#------------------------------------------------------------------------------
#$Date: 2017-09-28 16:09:33 +0300 (Thu, 28 Sep 2017) $
#$Revision: 201433 $
#$URL: file:///home/coder/svn-repositories/cod/cif/1/54/74/1547431.cif $
#------------------------------------------------------------------------------
#
# This file is available in the Crystallography Open Database (COD),
# http://www.crystallography.net/
#
# All data on this site have been placed in the public domain by the
# contributors.
#
data_1547431
loop_
_publ_author_name
'Anuradha R. Pallipurath'
'Jonathan M. Skelton'
'Mark R. Warren'
'Naghmeh Kamali'
'Patrick McArdle'
'Andrea Erxleben'
_publ_section_title
;
 Sulfamerazine: Understanding the Influence of Slip Planes in the
 Polymorphic Phase Transformation through X-Ray Crystallographic Studies
 and ab Initio Lattice Dynamics
;
_journal_name_full               'Molecular Pharmaceutics'
_journal_page_first              3735
_journal_page_last               3748
_journal_paper_doi               10.1021/acs.molpharmaceut.5b00504
_journal_volume                  12
_journal_year                    2015
_chemical_formula_moiety         'C11 H12 N4 O2 S'
_chemical_formula_sum            'C11 H12 N4 O2 S'
_chemical_formula_weight         264.31
_chemical_name_common            Sulfamerazine
_chemical_name_systematic        4-amino-N-(4-methylpyrimidin-2-yl)
_space_group_crystal_system      orthorhombic
_space_group_IT_number           61
_space_group_name_Hall           '-P 2ac 2ab'
_space_group_name_H-M_alt        'P b c a'
_symmetry_space_group_name_Hall  '-P 2ac 2ab'
_symmetry_space_group_name_H-M   'P b c a'
_atom_sites_solution_hydrogens   mixed
_cell_angle_alpha                90
_cell_angle_beta                 90
_cell_angle_gamma                90
_cell_formula_units_Z            8
_cell_length_a                   9.0885(6)
_cell_length_b                   11.5482(7)
_cell_length_c                   22.7898(12)
_cell_measurement_reflns_used    2502
_cell_measurement_temperature    184.9(1)
_cell_measurement_theta_max      29.2280
_cell_measurement_theta_min      4.2340
_cell_volume                     2391.9(2)
_computing_cell_refinement
;
'Tue Feb 03 13:58:01 2015'
;
_computing_data_collection
;
'Tue Feb 03 13:58:01 2015'
;
_computing_data_reduction
;
'Tue Feb 03 13:58:01 2015'
;
_computing_molecular_graphics    OSCAIL
_computing_structure_refinement  'SHELXL-2014/7 (Sheldrick, 2014)'
_computing_structure_solution    SHELXT
_diffrn_ambient_temperature      184.9(1)
_diffrn_detector_area_resol_mean 16.1048
_diffrn_measured_fraction_theta_full 0.997
_diffrn_measured_fraction_theta_max 0.870
_diffrn_measurement_device_type  'Xcalibur, Sapphire3'
_diffrn_measurement_method       '\w scans'
_diffrn_radiation_type           MoK\a
_diffrn_radiation_wavelength     0.71073
_diffrn_reflns_av_R_equivalents  0.0219
_diffrn_reflns_av_unetI/netI     0.0318
_diffrn_reflns_Laue_measured_fraction_full 0.997
_diffrn_reflns_Laue_measured_fraction_max 0.870
_diffrn_reflns_limit_h_max       11
_diffrn_reflns_limit_h_min       -10
_diffrn_reflns_limit_k_max       15
_diffrn_reflns_limit_k_min       -9
_diffrn_reflns_limit_l_max       15
_diffrn_reflns_limit_l_min       -31
_diffrn_reflns_number            7472
_diffrn_reflns_point_group_measured_fraction_full 0.997
_diffrn_reflns_point_group_measured_fraction_max 0.870
_diffrn_reflns_theta_full        25.242
_diffrn_reflns_theta_max         29.383
_diffrn_reflns_theta_min         3.640
_diffrn_source                   'Enhance (Mo) X-ray Source'
_exptl_absorpt_coefficient_mu    0.271
_exptl_absorpt_correction_T_max  1.00000
_exptl_absorpt_correction_T_min  0.96499
_exptl_absorpt_correction_type   multi-scan
_exptl_absorpt_process_details
;
crysalispro, agilent technologies,
version 1.171.37.33 (release 27-03-2014 crysalis171 .net)
(compiled mar 27 2014,17:12:48)
empirical absorption correction using spherical harmonics,
 implemented in scale3 abspack scaling algorithm.
;
_exptl_crystal_colour            Colourless
_exptl_crystal_density_diffrn    1.468
_exptl_crystal_description       Parallelepiped
_exptl_crystal_F_000             1104
_exptl_crystal_size_max          0.50
_exptl_crystal_size_mid          0.40
_exptl_crystal_size_min          0.20
_refine_diff_density_max         0.310
_refine_diff_density_min         -0.439
_refine_diff_density_rms         0.052
_refine_ls_extinction_coef       .
_refine_ls_extinction_method     none
_refine_ls_goodness_of_fit_ref   1.064
_refine_ls_hydrogen_treatment    mixed
_refine_ls_matrix_type           full
_refine_ls_number_parameters     176
_refine_ls_number_reflns         2872
_refine_ls_number_restraints     3
_refine_ls_restrained_S_all      1.064
_refine_ls_R_factor_all          0.0534
_refine_ls_R_factor_gt           0.0399
_refine_ls_shift/su_max          0.000
_refine_ls_shift/su_mean         0.000
_refine_ls_structure_factor_coef Fsqd
_refine_ls_weighting_details
'w=1/[\s^2^(Fo^2^)+(0.0379P)^2^+1.3510P] where P=(Fo^2^+2Fc^2^)/3'
_refine_ls_weighting_scheme      calc
_refine_ls_wR_factor_gt          0.0932
_refine_ls_wR_factor_ref         0.1003
_reflns_Friedel_coverage         0.000
_reflns_Friedel_fraction_full    .
_reflns_Friedel_fraction_max     .
_reflns_number_gt                2313
_reflns_number_total             2872
_reflns_threshold_expression     'I > 2\s(I)'
_cod_data_source_file            Exp_Form-II2FInHouse_Form-II_185K.cif
_cod_data_source_block           smz_f2_185
_cod_database_code               1547431
_shelx_space_group_comment
;
The symmetry employed for this shelxl refinement is uniquely defined
by the following loop, which should always be used as a source of
symmetry information in preference to the above space-group names.
They are only intended as comments.
;
_shelx_estimated_absorpt_t_min   0.877
_shelx_estimated_absorpt_t_max   0.948
_shelx_res_file
;
  
    smz_f2_185.res created by SHELXL-2014/7
  
  
TITL smz_f2_185 in Pbca
REM Old TITL smz_f2_185 in Pbca
REM SHELXT solution in Pbca
REM R1 0.111,  Rweak 0.439,  Alpha 0.030,  Orientation as input
REM Formula found by SHELXT:  C12 N3 O2 S
CELL  0.71073   9.0885  11.5482  22.7898   90.000   90.000   90.000
ZERR    8.000   0.0006   0.0007   0.0012    0.000    0.000    0.000
REM SG 61 8 8 Pbca P21/b21/c21/a PGmmm Orthorhombic
LATT 1
REM SG  ASUN  1  .5 .5 .5
REM SG  ORGN  at Inv.cen.
SYMM 0.5-X,-Y,0.5+Z
SYMM -X,0.5+Y,0.5-Z
SYMM 0.5+X,0.5-Y,-Z
SFAC C H N O S
UNIT 88 96 32 16 8
FMAP 2
DFIX  0.89 .02 N2 H1N2 N1 H1N1 N1 H2N1
PLAN -32
BOND $H
L.S. 12
SIZE    0.50  0.40  0.20
ACTA
CONF
HTAB
LIST 4
WGHT    0.037900    1.351000
FVAR       0.56173
S1    5    0.668181    0.346048    0.610324    11.00000    0.02269    0.02350 =
         0.02009    0.00195   -0.00044    0.00298
O1    4    0.658150    0.223106    0.613598    11.00000    0.03994    0.02298 =
         0.02866    0.00159   -0.00066    0.00634
O2    4    0.803353    0.397136    0.590388    11.00000    0.02155    0.03827 =
         0.02386    0.00122    0.00012    0.00173
N1    3    0.545591    0.532158    0.845515    11.00000    0.04665    0.03128 =
         0.02858   -0.00476    0.01231   -0.00300
N2    3    0.548613    0.395253    0.562815    11.00000    0.02209    0.02597 =
         0.02470    0.00817   -0.00255   -0.00296
N3    3    0.343906    0.285027    0.591223    11.00000    0.02678    0.02588 =
         0.02573    0.00066    0.00279   -0.00364
N4    3    0.333354    0.426069    0.514634    11.00000    0.02266    0.02927 =
         0.02237    0.00230   -0.00173   -0.00112
C1    1    0.625254    0.403678    0.678549    11.00000    0.02323    0.02426 =
         0.02062    0.00124    0.00005    0.00250
C2    1    0.551774    0.336906    0.719691    11.00000    0.03768    0.02572 =
         0.02906   -0.00005    0.00354   -0.00587
AFIX  43
H2    2    0.521878    0.262178    0.710245    11.00000   -1.30000
AFIX   0
C3    1    0.523146    0.381198    0.774428    11.00000    0.04015    0.02942 =
         0.02801    0.00415    0.00971   -0.00554
AFIX  43
H3    2    0.472540    0.336258    0.801620    11.00000   -1.30000
AFIX   0
C4    1    0.568733    0.492661    0.790001    11.00000    0.02900    0.02782 =
         0.02533    0.00034    0.00310    0.00429
C5    1    0.642201    0.559042    0.747577    11.00000    0.03434    0.02048 =
         0.03086   -0.00135    0.00399   -0.00020
AFIX  43
H5    2    0.673127    0.633602    0.756835    11.00000   -1.30000
AFIX   0
C6    1    0.669095    0.515313    0.692479    11.00000    0.02748    0.02267 =
         0.02707    0.00601    0.00417    0.00127
AFIX  43
H6    2    0.716669    0.560617    0.664581    11.00000   -1.30000
AFIX   0
C7    1    0.401769    0.365999    0.556906    11.00000    0.02234    0.02226 =
         0.02085   -0.00293    0.00110   -0.00019
C8    1    0.191416    0.400523    0.507209    11.00000    0.02393    0.03797 =
         0.02683   -0.00246   -0.00364   -0.00010
AFIX  43
H8    2    0.138688    0.440262    0.478615    11.00000   -1.30000
AFIX   0
C9    1    0.120165    0.318609    0.539741    11.00000    0.02227    0.03891 =
         0.03084   -0.00803    0.00123   -0.00619
AFIX  43
H9    2    0.021141    0.302278    0.533636    11.00000   -1.30000
AFIX   0
C10   1    0.200516    0.260883    0.582049    11.00000    0.02973    0.02774 =
         0.02633   -0.00689    0.00618   -0.00475
C11   1    0.132818    0.167807    0.618601    11.00000    0.03788    0.03936 =
         0.04559    0.00376    0.00824   -0.01170
AFIX 137
H11A  2    0.178472    0.094982    0.609592    11.00000   -1.30000
H11B  2    0.029406    0.163268    0.610332    11.00000   -1.30000
H11C  2    0.147034    0.185307    0.659389    11.00000   -1.30000
AFIX   0
H1N2  2    0.582893    0.450845    0.540902    11.00000    0.04328
H1N1  2    0.482387    0.492815    0.866211    11.00000    0.04774
H2N1  2    0.553079    0.605007    0.853987    11.00000    0.05023
HKLF 4
  
REM  smz_f2_185 in Pbca
REM R1 =  0.0399 for    2313 Fo > 4sig(Fo)  and  0.0534 for all    2872 data
REM    176 parameters refined using      3 restraints
  
END
  
WGHT      0.0383      1.3628
  
REM Instructions for potential hydrogen bonds
EQIV $1 -x+3/2, y+1/2, z
HTAB C6 O1_$1
EQIV $2 -x+1, -y+1, -z+1
HTAB C8 O2_$2
EQIV $3 x-1, y, z
HTAB C9 O2_$3
HTAB N2 N4_$2
EQIV $4 x-1/2, y, -z+3/2
HTAB N1 O2_$4
EQIV $5 -x+1, y+1/2, -z+3/2
HTAB N1 O1_$5
HTAB N1 N3_$5
  
REM Highest difference peak  0.310,  deepest hole -0.439,  1-sigma level  0.052
Q1    1   0.6485  0.3762  0.6504  11.00000  0.05    0.31
Q2    1   0.6114  0.5235  0.7705  11.00000  0.05    0.25
Q3    1   0.7711  0.3612  0.6080  11.00000  0.05    0.23
Q4    1   0.3548  0.4126  0.5463  11.00000  0.05    0.21
Q5    1   0.6119  0.4606  0.6740  11.00000  0.05    0.21
Q6    1   0.6299  0.5401  0.7177  11.00000  0.05    0.20
Q7    1   0.5560  0.4401  0.7801  11.00000  0.05    0.19
Q8    1   0.6219  0.3676  0.7063  11.00000  0.05    0.18
Q9    1   0.5942  0.3610  0.5795  11.00000  0.05    0.17
Q10   1   0.5908  0.5015  0.8170  11.00000  0.05    0.17
Q11   1   0.3672  0.3376  0.5825  11.00000  0.05    0.17
Q12   1   0.7946  0.4035  0.5617  11.00000  0.05    0.17
Q13   1   0.3771  0.3001  0.5640  11.00000  0.05    0.17
Q14   1   0.1494  0.4767  0.4825  11.00000  0.05    0.17
Q15   1   0.1484  0.3040  0.5666  11.00000  0.05    0.17
Q16   1   0.3963  0.2618  0.6247  11.00000  0.05    0.16
Q17   1   0.8404  0.3949  0.5930  11.00000  0.05    0.16
Q18   1   0.6151  0.2709  0.6193  11.00000  0.05    0.16
Q19   1   0.5600  0.3604  0.7496  11.00000  0.05    0.16
Q20   1   0.4921  0.2582  0.6771  11.00000  0.05    0.16
Q21   1   0.1695  0.2587  0.5523  11.00000  0.05    0.16
Q22   1   0.4916  0.3562  0.5513  11.00000  0.05    0.15
Q23   1   0.6751  0.1426  0.6389  11.00000  0.05    0.15
Q24   1   0.6538  0.5262  0.8525  11.00000  0.05    0.15
Q25   1   0.6575  0.1961  0.6401  11.00000  0.05    0.15
Q26   1   0.6990  0.5237  0.7220  11.00000  0.05    0.15
Q27   1   0.3618  0.2447  0.5747  11.00000  0.05    0.14
Q28   1   0.6409  0.4022  0.8528  11.00000  0.05    0.14
Q29   1   0.3489  0.4842  0.5138  11.00000  0.05    0.14
Q30   1   0.3823  0.4175  0.4732  11.00000  0.05    0.14
Q31   1   0.6979  0.1178  0.5792  11.00000  0.05    0.14
Q32   1   0.6317  0.1990  0.6143  11.00000  0.05    0.14
;
_shelx_res_checksum              685
_shelx_hkl_file
;
   0   0  -5   13.27    3.06
   0   0  -6 7261.04   38.92
   0   0  -7   78.15    5.87
   0   0  -8 1217.54   18.47
   0   0  -9   45.24    5.75
   0   0 -10 5913.62   45.61
   0   0 -11  208.01   10.05
   0   0 -12    2.97    2.25
   0   0 -13    6.98    3.35
   0   0 -14  859.21   20.95
   0   0 -15   34.12    5.59
   0   0 -16   22.18    4.20
   0   0 -17   12.38    4.27
   0   0 -18 1544.90   32.40
   0   0 -19   61.44    8.57
   0   0 -20  191.12   12.49
   0   0 -21    7.62    3.17
   0   0 -22  264.23   15.35
   0   0 -23    8.49    3.84
   0   0 -24   93.27    9.70
   0   0 -25    2.73    3.55
   0   0 -26   62.10    8.39
   0   0 -27    0.21    2.83
   0   0 -28   75.24   10.08
   0   0 -29   12.45    5.53
   0   0 -30  460.52   24.86
   0   0 -31   28.47    7.16
   0   1  -4    0.42    1.10
   0  -1   4    0.40    1.10
   0   1  -5    4.38    1.65
   0  -1   5    2.73    1.28
   0   1  -6    2.93    1.86
   0  -1   6    0.56    1.32
   0   1  -7   -0.69    1.74
   0  -1   7    1.39    1.32
   0   1  -8   -0.78    1.72
   0   1  -9    2.11    1.76
   0   1 -10    0.96    1.83
   0   1 -11    0.89    1.96
   0  -1 -12    0.60    1.66
   0   1 -12    0.86    2.11
   0  -1 -13   -0.80    1.84
   0   1 -13   -1.98    2.52
   0  -1 -14    1.91    2.21
   0   1 -14   -2.70    2.36
   0   1 -15    0.09    2.30
   0  -1 -15    0.76    2.37
   0   1 -16    8.25    3.11
   0  -1 -16   -1.09    2.55
   0   1 -17    1.62    2.42
   0  -1 -17    1.82    2.41
   0   1 -18    1.43    2.97
   0  -1 -18    0.68    2.44
   0   1 -19    0.00    3.20
   0  -1 -19   -0.86    3.18
   0   1 -20   -1.72    2.99
   0  -1 -20   -2.81    3.06
   0  -1 -21    0.98    2.90
   0   1 -21   -3.40    3.69
   0   1 -22   -0.09    3.00
   0  -1 -22    1.85    2.70
   0  -1 -23   -3.02    3.14
   0   1 -23   -2.81    3.42
   0   1 -24   -4.63    4.03
   0  -1 -24    1.07    2.71
   0  -1 -25   -1.46    2.96
   0   1 -25   -0.12    3.44
   0   1 -26    0.48    3.07
   0  -1 -26   -1.96    3.22
   0  -1 -27    7.77    3.86
   0   1 -27   -4.72    3.43
   0   1 -28   -1.57    4.18
   0  -1 -28   -1.61    3.77
   0  -1 -29   -3.27    3.69
   0   1 -29   -0.87    3.51
   0  -1 -30   -4.12    4.04
   0   1 -30    1.02    3.55
   0  -1 -31    3.94    2.85
   0   2  -1 7943.29   33.90
   0  -2   1 8044.07   34.37
   0  -2  -1 8050.22   30.24
   0  -2   2 4379.64   27.20
   0   2   2 4424.66   22.04
   0  -2  -2 4409.05   22.30
   0   2  -2 4290.69   26.96
   0   2  -3 9999.00   44.12
   0  -2   3 9746.08   43.98
   0  -2   4 8070.33   42.72
   0   2  -4 8029.59   42.61
   0  -2   5 8458.02   47.09
   0   2  -5 8597.73   46.90
   0   2  -6 8179.64   48.72
   0  -2   6 8310.94   49.14
   0  -2   7   96.23    5.72
   0   2  -7  111.31    6.29
   0  -2   8  559.50   14.63
   0   2  -8  619.63   15.02
   0  -2   9 2058.36   28.72
   0   2  -9 2023.03   28.41
   0   2 -10 1109.31   22.15
   0  -2  10 1033.84   21.20
   0   2 -11 1430.20   25.93
   0   2 -12  710.05   19.25
   0   2 -13  196.12   11.02
   0   2 -14  904.50   23.05
   0  -2 -15   47.69    5.30
   0   2 -15   57.03    7.64
   0   2 -16  113.22    9.28
   0  -2 -16  106.36    7.65
   0  -2 -17  567.01   18.37
   0   2 -17  538.18   19.96
   0  -2 -18  341.29   14.97
   0   2 -18  401.59   17.82
   0   2 -19  851.60   26.55
   0  -2 -19  879.53   24.26
   0   2 -20  163.71   12.41
   0  -2 -20  132.74   10.35
   0   2 -21   91.61    9.54
   0  -2 -21   84.79    8.34
   0  -2 -22   19.26    5.37
   0   2 -22   16.91    5.84
   0  -2 -23  612.76   22.86
   0   2 -23  610.76   25.16
   0   2 -24   42.55    8.36
   0  -2 -24   29.13    5.94
   0   2 -25   22.46    6.12
   0  -2 -25   22.58    5.33
   0   2 -26  155.64   13.67
   0  -2 -26  153.87   12.78
   0  -2 -27   26.32    5.92
   0   2 -27   11.47    5.11
   0  -2 -28   17.69    5.08
   0   2 -28   22.51    6.58
   0  -2 -29  106.31   11.41
   0   2 -29  102.05   12.16
   0  -2 -30   -0.27    2.75
   0  -3   0    0.17    1.00
   0   3   0    1.44    1.43
   0   3  -1    4.30    1.66
   0  -3   1    0.62    1.14
   0   3   1    1.66    1.22
   0  -3  -1    2.03    1.14
   0   3   2    2.22    1.20
   0   3  -2    0.50    1.42
   0  -3  -2    1.63    1.02
   0  -3   2    0.52    1.27
   0  -3   3   -0.60    1.26
   0   3   3   -0.33    1.08
   0  -3  -3    0.52    0.93
   0   3  -4   -0.31    1.62
   0  -3   4    0.56    1.35
   0  -3  -4    0.12    1.03
   0  -3   5    1.00    1.54
   0  -3  -5   -1.23    0.95
   0   3  -5    3.23    2.37
   0   3  -6    3.92    1.91
   0  -3   6    4.92    1.72
   0   3  -7   -1.67    2.00
   0  -3   7    0.41    1.54
   0   3  -8   -0.20    2.16
   0  -3   8    0.53    1.71
   0   3  -9    0.35    2.27
   0  -3   9    0.07    1.11
   0   3 -10    0.11    2.53
   0   3 -11   -0.84    2.59
   0   3 -12   -3.23    2.89
   0   3 -13   -1.05    2.72
   0   3 -14   -3.32    2.98
   0   3 -15    3.16    2.87
   0   3 -16   -2.64    3.50
   0  -3 -17    0.76    2.52
   0   3 -17    3.42    3.71
   0  -3 -18    1.49    2.22
   0   3 -18   -0.91    3.11
   0  -3 -19   -0.13    2.68
   0   3 -19    2.28    4.11
   0   3 -20    3.26    3.51
   0  -3 -20   -3.48    3.33
   0   3 -21   -1.57    2.84
   0  -3 -21   -6.66    3.46
   0  -3 -22   -1.89    2.27
   0   3 -22   -3.42    4.23
   0  -3 -23    3.01    2.89
   0   3 -23    0.90    3.07
   0   3 -24   -0.27    3.56
   0  -3 -24   -5.16    3.74
   0  -3 -25   -2.57    2.95
   0   3 -25   -1.98    3.63
   0   3 -26   -1.56    3.78
   0  -3 -26    2.66    2.53
   0  -3 -27    3.37    2.81
   0   3 -27   -7.16    3.94
   0  -3 -28    1.04    2.35
   0   3 -28   -0.15    3.74
   0   3 -29   -2.30    3.63
   0  -4   0 4159.53   32.43
   0   4   0 4267.28   32.82
   0   4   1 1557.34   19.29
   0  -4   1 1547.31   20.70
   0   4  -1 1564.11   20.43
   0  -4  -1 1542.18   19.23
   0  -4   2 1823.66   22.82
   0  -4  -2 1830.38   20.35
   0   4  -2 1759.68   22.65
   0   4   2 1779.17   20.22
   0  -4   3  151.60    6.90
   0   4   3  137.52    5.63
   0   4  -3  129.32    6.62
   0  -4  -3  139.06    5.63
   0  -4  -4  210.47    6.97
   0   4  -4  220.54    8.90
   0  -4   4  207.68    8.55
   0  -4   5  282.54   10.17
   0  -4  -5  273.63    8.06
   0   4  -5  270.33   10.29
   0  -4   6  815.95   18.08
   0  -4  -6  808.86   14.09
   0   4  -6  815.16   18.25
   0  -4   7  371.27   12.68
   0  -4  -7  380.72   10.06
   0   4  -7  372.02   12.93
   0   4  -8  310.94   12.35
   0   4  -9   20.25    3.66
   0   4 -10   -0.33    2.70
   0   4 -11  107.03    7.90
   0   4 -12   -1.28    2.48
   0   4 -13    9.06    3.88
   0  -4 -14  185.76    4.40
   0   4 -14  208.89   12.35
   0   4 -15  107.93    9.22
   0  -4 -15   98.72    3.62
   0   4 -16  240.39   14.19
   0  -4 -16  206.80    5.77
   0   4 -17  728.85   25.05
   0   4 -18 1790.79   40.04
   0  -4 -19  509.36   18.15
   0   4 -19  576.70   23.60
   0   4 -20   25.19    6.64
   0  -4 -20   22.76    5.05
   0  -4 -21   57.49    6.57
   0   4 -21   67.98    8.76
   0  -4 -22   -2.13    2.64
   0   4 -22    5.15    4.32
   0  -4 -23  118.39    9.95
   0   4 -23  130.36   12.66
   0   4 -24  369.27   21.19
   0  -4 -24  374.74   17.94
   0   4 -25  171.75   15.28
   0  -4 -25  166.89   12.49
   0   4 -26   24.38    6.53
   0  -4 -26   14.70    4.61
   0   4 -27   12.84    5.49
   0   4 -28   60.67    9.94
   0   5   0   -1.20    1.60
   0  -5   0    0.61    1.33
   0  -5  -1   -0.38    1.17
   0  -5   1    1.95    1.27
   0   5   1   -0.08    1.50
   0   5  -1   -0.24    1.66
   0   5  -2   -1.65    1.87
   0  -5   2   -0.10    1.44
   0  -5  -2    0.83    1.18
   0   5   2    1.64    1.64
   0   5   3    0.12    1.37
   0  -5   3    0.80    1.31
   0   5  -3   -0.09    1.85
   0  -5  -3    1.97    1.24
   0  -5  -4    2.40    1.14
   0   5  -4   -2.25    2.28
   0   5   4   -0.60    1.37
   0   5  -5   -1.30    2.04
   0  -5  -5    0.80    1.12
   0  -5   5    0.81    1.76
   0  -5  -6    1.63    1.21
   0   5   6    0.88    0.62
   0  -5  -7    2.07    1.14
   0   5  -7   11.97    4.68
   0   5  -8   -0.77    2.29
   0  -5  -8    1.31    1.33
   0   5  -9    0.97    2.72
   0  -5  -9    4.02    1.91
   0  -5 -10   -1.71    1.63
   0   5 -10    1.24    2.56
   0   5 -11    2.97    2.54
   0   5 -12   -0.27    2.83
   0   5 -13    4.75    3.11
   0   5 -14    2.15    3.28
   0   5 -15   -0.39    3.24
   0   5 -16    2.68    3.79
   0   5 -17   -2.12    3.62
   0   5 -18    2.86    3.82
   0   5 -19    2.57    3.86
   0  -5 -20    2.23    2.49
   0   5 -20    5.89    3.97
   0  -5 -21    0.04    2.09
   0   5 -21    3.40    3.88
   0   5 -22   -1.83    3.40
   0  -5 -22   -0.05    2.77
   0  -5 -23   -3.55    3.11
   0   5 -23   -3.49    3.85
   0   5 -24   -3.01    4.21
   0  -5 -24    1.49    2.30
   0   5 -25   -0.74    3.90
   0   5 -26    0.16    3.95
   0   5 -27    4.43    3.70
   0   6   0   35.33    4.10
   0  -6   0   35.78    3.92
   0  -6  -1 4180.28   39.16
   0   6   1 4072.22   39.03
   0  -6   1 4138.24   40.81
   0   6  -1 4137.04   41.12
   0  -6  -2 1534.96   23.23
   0   6  -2 1462.15   25.17
   0  -6   2 1469.08   24.86
   0   6   2 1484.31   23.27
   0   6   3  270.10    9.84
   0   6  -3  265.29   11.15
   0  -6  -3  260.30    9.51
   0  -6   3  288.95   11.39
   0  -6  -4  703.36   15.44
   0   6  -4  692.24   18.24
   0   6   4  704.46   15.62
   0   6  -5   26.25    4.12
   0  -6  -5   30.52    3.38
   0   6   5   31.59    3.51
   0  -6  -6    3.17    1.44
   0   6  -6    0.59    2.49
   0  -6  -7  369.85   11.42
   0   6   7  332.01    6.49
   0   6  -7  364.90   14.66
   0   6  -8   89.31    7.42
   0  -6  -8   72.11    5.22
   0   6  -9   41.39    5.45
   0  -6  -9   41.84    4.11
   0  -6 -10   60.04    4.93
   0   6 -10   60.67    6.96
   0   6 -11   26.03    8.36
   0  -6 -11    4.59    1.94
   0   6 -12 3860.47   53.84
   0  -6 -12 3853.69   41.02
   0  -6 -13   -0.66    1.47
   0   6 -13    4.45    4.86
   0   6 -14  385.65   18.14
   0   6 -15  609.69   23.43
   0   6 -16   82.34    9.10
   0   6 -17   99.23   10.57
   0   6 -18  657.57   25.67
   0   6 -19  377.15   20.38
   0   6 -20   98.02   11.50
   0  -6 -21  501.62   18.88
   0   6 -21  519.33   24.72
   0   6 -22  378.88   22.04
   0  -6 -22  348.72   16.40
   0   6 -23   18.23    6.22
   0   6 -24   72.20   10.37
   0   6 -25  193.99   16.99
   0   6 -26  281.85   20.68
   0  -7   0    3.33    1.83
   0   7   0    1.80    1.99
   0   7   1    1.67    2.30
   0  -7  -1    0.95    1.56
   0   7  -1    5.74    2.47
   0  -7  -2   -0.76    1.32
   0   7  -2    2.32    2.29
   0   7   2   -0.58    1.58
   0   7  -3    1.76    2.44
   0  -7  -3    1.76    1.70
   0   7   3    1.61    1.71
   0   7   4   -2.82    2.16
   0   7  -4   -0.58    2.41
   0  -7  -4    1.74    1.55
   0  -7  -5    0.84    1.16
   0   7  -5    1.69    2.49
   0   7   5   -0.33    1.50
   0  -7  -6    0.55    1.18
   0   7  -6    1.78    2.38
   0  -7  -7    1.00    1.41
   0   7  -7    2.24    2.55
   0   7  -8    2.07    2.54
   0   7   8   -0.16    0.57
   0  -7  -8   -1.39    1.60
   0  -7  -9   -1.03    1.77
   0   7  -9    0.62    2.89
   0  -7 -10   -1.68    2.12
   0   7 -10    1.06    3.03
   0   7 -11    3.35    3.85
   0  -7 -11    0.64    1.76
   0   7 -12    5.16    3.86
   0   7 -13   -1.91    3.65
   0   7 -14    3.10    3.51
   0   7 -15    3.05    3.61
   0   7 -16    4.62    4.26
   0   7 -17    3.92    4.13
   0   7 -18   -1.43    3.50
   0   7 -19    2.54    4.27
   0   7 -20   -2.83    4.24
   0   7 -21   -1.60    3.77
   0   7 -22    9.41    5.13
   0   7 -23    2.11    4.26
   0   7 -24    6.15    5.22
   0   7 -25   -1.92    3.89
   0   8   0  521.51   16.77
   0   8   1   20.92    4.09
   0   8  -1   20.10    3.83
   0   8   2   49.31    5.28
   0   8  -2   50.30    5.61
   0   8  -3    2.58    2.56
   0   8   3    8.29    2.44
   0   8  -4  232.12   12.27
   0   8   4  207.62   10.10
   0   8  -5   73.69    7.34
   0   8   5   74.90    6.20
   0   8  -6  269.19   13.93
   0  -8  -7 1344.07   24.69
   0   8  -7 1317.23   31.16
   0   8  -8  579.13   21.15
   0   8   8  572.93   10.01
   0   8  -9  221.65   13.58
   0   8 -10  194.27   13.35
   0   8 -11 1694.06   38.22
   0   8 -12   35.24    6.28
   0   8 -13  193.60   13.94
   0   8 -14  235.95   15.69
   0   8 -15  990.65   32.20
   0   8 -16   17.61    6.32
   0   8 -17  835.67   30.83
   0   8 -18   86.08   11.54
   0   8 -19  266.73   18.61
   0   8 -20    2.59    3.59
   0   8 -21  257.26   18.98
   0   8 -22   12.96    5.81
   0   8 -23  177.42   16.33
   0   9   0    1.56    2.21
   0   9  -1   -0.69    2.46
   0   9   1    0.56    2.51
   0   9   2   -0.48    1.92
   0   9  -2    2.35    2.33
   0   9  -3    0.99    2.64
   0   9   3    1.77    2.55
   0   9   4    0.79    1.90
   0   9  -4   -4.26    3.28
   0   9   5    2.09    2.54
   0   9  -5   -1.61    3.37
   0   9  -6   -2.25    2.95
   0   9  -7    6.28    3.76
   0   9  -8    0.26    3.29
   0   9  -9   -3.23    3.68
   0   9 -10   -5.80    3.91
   0   9 -11   -3.48    3.91
   0   9 -12    0.43    3.58
   0   9 -13   -2.49    3.46
   0   9 -14   -3.29    3.96
   0   9 -15   -1.62    4.00
   0   9 -16   -9.69    5.30
   0   9 -17    0.99    3.48
   0   9 -18   -1.78    4.47
   0   9 -19   -1.04    4.26
   0   9 -20    6.30    5.02
   0   9 -21   -0.20    3.59
   0   9 -22   -4.65    5.17
   0  10   0   30.08    5.31
   0  10   1   20.46    3.87
   0  10  -1   20.51    4.13
   0  10  -2   15.13    3.28
   0  10   2   25.14    4.52
   0  10  -3   -3.26    4.01
   0  10   3   -1.13    2.44
   0  10   4  320.65   14.36
   0  10  -4  311.83   15.98
   0  10   5  292.72   13.70
   0  10  -5  296.13   15.68
   0  10  -6  300.13   16.29
   0  10  -7  102.07    9.74
   0  10  -8  850.83   27.93
   0  10  -9   76.82    9.05
   0  10 -10   10.89    5.14
   0  10 -11  426.51   21.22
   0  10 -12   99.63   11.18
   0  10 -13   58.73    8.53
   0  10 -14  381.51   21.11
   0  10 -15   11.43    5.24
   0  10 -16    5.07    4.46
   0  10 -17   14.32    6.16
   0  10 -18  186.11   16.15
   0  10 -19   20.23    6.38
   0  10 -20    8.14    5.29
   0  11   0   -0.97    2.60
   0  11   1    1.83    2.58
   0  11  -1   -1.37    3.04
   0  11   2    0.95    2.36
   0  11  -2    5.16    3.49
   0  11   3   -1.99    2.90
   0  11  -3    0.25    3.51
   0  11  -4   -4.74    3.82
   0  11   4    2.71    3.22
   0  11  -5    1.92    2.74
   0  11   5    3.35    2.41
   0  11  -6   -2.92    3.28
   0  11  -7   -0.12    2.82
   0  11  -8   -2.27    3.07
   0  11  -9    0.18    3.27
   0  11 -10    0.23    3.33
   0  11 -11    1.07    2.90
   0  11 -12    8.40    4.26
   0  11 -13   -2.13    4.38
   0  11 -14    1.79    3.96
   0  11 -15   -2.75    3.08
   0  11 -16   -0.18    3.62
   0  11 -17   -2.15    3.79
   0  11 -18    7.76    5.42
   0  11 -19   -1.03    3.22
   0  12   0  257.07   15.26
   0  12  -1    7.96    3.58
   0  12   1    1.46    2.83
   0  12   2    3.07    2.77
   0  12  -2    3.76    3.67
   0  12   3  166.25   11.94
   0  12  -3  160.62   12.67
   0  12   4    6.93    3.48
   0  12  -4    9.28    4.52
   0  12  -5  150.45   12.50
   0  12   5  163.68   11.60
   0  12  -6   10.29    3.69
   0  12  -7   34.64    6.69
   0  12  -8   43.83    7.53
   0  12  -9   21.08    6.11
   0  12 -10  445.64   23.26
   0  12 -11  188.06   15.47
   0  12 -12   55.32    8.87
   0  12 -13    0.42    3.59
   0  12 -14   28.46    6.40
   0  12 -15    3.41    4.37
   0  12 -16   13.96    5.78
   0  12 -17   17.77    6.06
   0  13   0   -0.36    2.61
   0  13  -1   -4.86    3.42
   0  13   1    1.50    2.92
   0  13  -2    0.11    2.64
   0  13   2   -5.84    3.93
   0  13   3   -1.27    2.43
   0  13  -3    0.91    4.12
   0  13  -4   -5.37    3.94
   0  13   4   -3.18    3.05
   0  13  -5    2.56    3.02
   0  13  -6    3.64    3.60
   0  13  -7   -0.34    3.39
   0  13  -8   -1.34    3.54
   0  13  -9    3.18    4.31
   0  13 -10    1.67    3.85
   0  13 -11    1.09    3.76
   0  13 -12   -2.03    3.98
   0  13 -13   -4.32    4.65
   0  13 -14   -5.92    4.53
   0  14   0   36.45    6.91
   0  14  -1   98.86   10.74
   0  14  -2    9.30    4.75
   0  14  -3   23.27    5.58
   0  14  -4   22.68    5.85
   0  14  -5    2.58    3.26
   0  14  -6   52.31    8.37
   0  14  -7  162.97   14.90
   0  14  -8  133.39   13.57
   0  14  -9   12.86    5.84
   0  14 -10  163.05   15.43
   0  14 -11   18.45    6.42
   0  14 -12   54.26    9.90
   0  15  -4    6.21    4.41
   0  15  -5   -3.48    3.22
   0  15  -6    2.95    4.38
   0  15  -7    0.17    4.22
   0  15  -8    3.32    3.79
   0  15  -9   -4.74    5.39
  -1   0   4 1704.29   15.00
   1   0  -4 1779.93   15.26
   1   0  -5    5.83    1.42
  -1   0   5    7.86    1.49
   1   0  -6 3400.27   25.51
  -1   0   6 3366.93   25.60
  -1   0   7    1.20    1.23
   1   0  -7    1.18    1.53
   1   0  -8 3344.30   29.39
  -1   0   8 3323.13   29.71
   1   0  -9    0.22    1.48
   1   0 -10   10.70    2.45
   1   0 -11   17.13    3.75
   1   0 -12 1898.31   27.67
  -1   0 -13   12.06    3.88
   1   0 -13   63.31    6.99
   1   0 -14  787.15   19.82
  -1   0 -14  850.65   21.71
  -1   0 -15   23.89    5.60
   1   0 -15   72.55    7.78
  -1   0 -16 2373.11   39.00
   1   0 -16 2309.25   36.41
   1   0 -17  119.72    9.83
  -1   0 -17   67.71    7.48
  -1   0 -18    0.50    3.36
   1   0 -18    3.20    3.20
  -1   0 -19   -1.79    3.33
   1   0 -19    2.67    2.44
  -1   0 -20  129.37   10.43
   1   0 -20  120.56    9.60
  -1   0 -21    1.56    3.33
   1   0 -21    7.36    3.90
   1   0 -22   64.01    7.69
  -1   0 -22   67.33    8.64
   1   0 -23    5.24    3.69
  -1   0 -23    6.65    4.53
  -1   0 -24  455.92   21.80
   1   0 -24  435.66   20.72
   1   0 -25   34.08    7.03
  -1   0 -25   18.61    6.06
   1   0 -26  540.07   24.08
  -1   0 -26  579.79   25.86
   1   0 -27   19.59    5.50
  -1   0 -27   17.51    6.26
   1   0 -28    7.35    4.45
  -1   0 -28    3.97    4.03
  -1   0 -29   -5.38    4.76
   1   0 -29   -2.45    4.08
   1   0 -30   44.52    7.86
  -1   0 -30   37.62    7.72
   1   0 -31    5.84    3.96
  -1  -1   3  564.32    9.74
  -1  -1  -3  562.79    7.23
   1  -1  -3  573.11    8.38
   1   1  -3  554.65    9.64
  -1  -1  -4  170.40    4.24
  -1  -1   4  173.18    5.78
   1  -1  -4  177.10    3.73
   1   1  -4  180.52    5.96
   1   1  -5  676.93   12.15
   1  -1  -5  670.29    8.66
  -1  -1   5  675.40   12.14
   1   1  -6  146.67    6.11
   1  -1  -6  147.49    4.74
  -1  -1   6  139.19    5.96
   1  -1  -7  402.68    8.60
   1   1  -7  394.54   10.53
  -1  -1   7  401.76   10.60
   1  -1  -8  445.30    9.89
  -1   1  -8  447.88   12.53
  -1  -1   8  442.84   11.73
   1   1  -8  420.30   11.48
   1  -1  -9  126.14    5.83
  -1   1  -9  112.72    6.92
  -1  -1   9  117.23    6.33
   1   1  -9  103.43    6.23
   1   1 -10   29.51    3.82
   1  -1 -10   32.49    3.49
  -1  -1  10   35.47    3.79
  -1   1 -10   34.58    4.07
  -1   1 -11  306.39   12.03
   1  -1 -11  294.53    9.92
  -1  -1  11  310.47   11.44
   1   1 -11  296.21   11.13
   1   1 -12   40.33    5.09
   1  -1 -12   53.36    5.11
  -1   1 -12   40.10    5.15
  -1   1 -13  686.96   19.43
   1   1 -13  717.12   18.70
   1  -1 -13  709.66   16.91
   1   1 -14  114.16    8.15
   1  -1 -14  104.47    7.31
  -1   1 -14  108.03    8.34
   1   1 -15  102.67    7.90
   1  -1 -15  109.32    7.52
  -1   1 -15   94.92    8.07
   1  -1 -16  198.92   10.54
   1   1 -16  222.15   12.44
  -1   1 -16  199.96   11.75
  -1   1 -17  996.05   26.48
   1   1 -17  983.38   25.52
   1  -1 -17  989.67   23.65
  -1  -1 -17  975.25   25.42
   1   1 -18   55.04    7.37
  -1   1 -18   29.95    7.00
   1  -1 -18   43.31    6.56
  -1  -1 -18   46.15    6.37
   1  -1 -19   26.71    4.98
   1   1 -19   26.35    5.56
  -1   1 -19   21.86    5.48
  -1  -1 -19   19.00    5.12
   1  -1 -20  594.29   20.45
   1   1 -20  617.38   22.07
  -1   1 -20  616.81   23.25
  -1  -1 -20  591.67   21.66
   1   1 -21   28.94    6.95
  -1  -1 -21   22.76    5.32
   1  -1 -21   33.54    6.10
  -1   1 -21   33.68    6.49
   1   1 -22  119.88   10.90
   1  -1 -22  129.16   10.36
  -1  -1 -22  145.84   11.60
  -1   1 -22  154.88   12.37
   1   1 -23  140.15   11.87
  -1   1 -23  136.45   12.08
   1  -1 -23  121.48   10.30
  -1  -1 -23  139.40   11.74
   1  -1 -24    8.73    3.79
   1   1 -24    4.88    4.03
  -1  -1 -24    3.98    4.06
  -1   1 -24    7.85    4.38
   1   1 -25   99.84   10.60
  -1   1 -25  116.37   11.78
   1  -1 -25  111.20   10.50
  -1  -1 -25  116.53   11.36
  -1   1 -26  111.96   12.03
   1  -1 -26  114.07   11.05
   1   1 -26  123.54   12.30
  -1  -1 -26  128.77   12.28
   1   1 -27    1.28    3.38
  -1  -1 -27   11.51    5.05
  -1   1 -27    5.45    4.19
   1  -1 -27    3.28    3.31
  -1  -1 -28    7.71    4.27
   1   1 -28    3.05    3.26
   1  -1 -28   -1.37    3.61
  -1   1 -28    2.17    3.99
  -1  -1 -29    3.27    4.48
   1   1 -29   -1.67    3.48
   1  -1 -29   -2.43    4.04
  -1   1 -29    1.32    3.53
   1  -1 -30   -1.20    3.13
   1   1 -30    1.46    3.29
  -1  -1 -30   -5.07    3.94
  -1   2   0    1.70    0.73
   1  -2   0    0.56    0.63
  -1  -2   0    1.24    1.10
   1   2  -1  136.31    5.26
  -1   2  -1  146.06    4.29
   1   2   1  138.62    5.21
  -1  -2  -1  131.71    5.16
   1  -2   1  134.08    4.28
  -1  -2   1  132.23    5.21
   1   2  -2  442.44    9.72
  -1   2   2  461.62    8.05
  -1  -2   2  442.80    9.77
  -1   2  -2  459.26    8.66
  -1  -2  -2  453.51    9.47
   1  -2   2  458.55    8.82
   1   2   2  471.54    9.60
   1  -2  -3 8478.37   33.11
  -1   2  -3 8390.88   40.34
  -1   2   3 8346.41   33.05
   1   2   3 8290.55   26.22
  -1  -2  -3 8103.77   41.77
   1   2  -3 8176.17   43.17
  -1  -2   3 8423.30   44.06
   1  -2  -4  402.68    7.18
  -1   2  -4  414.72   10.03
   1   2  -4  379.40    9.86
  -1  -2   4  383.43    9.80
   1   2   4  372.19    5.27
  -1   2   4  376.73    7.01
  -1  -2   5 7463.07   45.81
   1  -2  -5 7372.21   31.80
  -1   2  -5 7381.94   44.24
   1   2  -5 7478.29   45.69
  -1  -2   6 1136.52   18.46
  -1  -2  -6 1041.04    9.50
   1  -2  -6 1091.50   12.74
   1   2  -6 1124.34   18.49
   1   2  -7  409.54   11.73
  -1  -2   7  386.59   11.39
  -1   2  -7  426.38   12.34
  -1   2  -8  110.81    7.10
   1   2  -8   94.49    6.13
  -1  -2   8  108.06    6.33
   1  -2  -8   97.42    4.42
   1   2  -9  586.50   15.38
   1  -2  -9  576.25   11.48
  -1  -2   9  576.20   15.30
  -1   2  -9  623.78   16.08
  -1  -2  10 2823.28   34.59
  -1   2 -10 2777.14   35.57
   1  -2 -10 2762.03   26.88
   1   2 -10 2798.65   34.72
   1  -2 -11  237.12    9.00
   1   2 -11  233.91   11.23
   1   2 -12   44.90    5.56
  -1   2 -12   46.37    5.87
   1  -2 -12   49.38    4.28
  -1   2 -13  761.76   21.03
   1   2 -13  753.37   20.36
   1  -2 -13  753.42   16.83
   1  -2 -14   90.93    6.52
  -1   2 -14  105.78    9.06
   1   2 -14   89.05    8.02
   1  -2 -15  599.82   16.42
  -1   2 -15  600.92   19.99
   1   2 -15  627.33   19.82
   1  -2 -16  205.20   10.23
   1   2 -16  225.98   12.64
  -1   2 -16  222.60   12.91
   1  -2 -17  111.73    7.99
  -1   2 -17  103.50    9.36
   1   2 -17  108.84    9.27
  -1   2 -18   13.80    4.57
   1  -2 -18   15.35    3.78
   1   2 -18   17.87    4.92
  -1  -2 -19  121.24   10.00
  -1   2 -19  106.38   10.17
   1  -2 -19  114.13    8.90
   1   2 -19  131.46   11.11
   1  -2 -20 1309.14   29.40
  -1   2 -20 1300.91   34.11
   1   2 -20 1356.25   33.80
  -1  -2 -20 1310.67   32.15
  -1  -2 -21  123.80   11.33
  -1   2 -21  147.77   12.78
   1   2 -21  137.80   12.60
   1  -2 -21  151.09   11.03
  -1   2 -22   70.21    8.82
   1   2 -22   69.36    8.58
   1  -2 -22   55.47    7.32
  -1  -2 -22   57.21    7.73
   1   2 -23  119.26   11.43
  -1  -2 -23  133.19   11.27
   1  -2 -23  124.34   10.37
  -1   2 -23  124.47   11.69
  -1   2 -24   41.17    6.93
  -1  -2 -24   49.56    7.69
   1   2 -24   39.12    6.91
   1  -2 -24   45.15    6.58
  -1  -2 -25    4.82    3.65
   1   2 -25    5.05    3.79
   1  -2 -25    9.81    3.85
  -1   2 -25    9.82    4.68
   1  -2 -26   73.28    8.51
  -1  -2 -26   98.12   10.76
   1   2 -26   97.08   11.25
  -1   2 -26   90.33   10.95
  -1  -2 -27  190.86   15.20
   1  -2 -27  181.06   13.78
   1   2 -27  171.90   14.98
  -1   2 -27  184.07   15.77
   1  -2 -28   18.23    5.23
   1   2 -28   14.48    5.56
  -1   2 -28   20.74    7.09
  -1  -2 -28   17.62    5.37
   1   2 -29   22.27    6.35
  -1  -2 -29   15.16    6.33
  -1   2 -29   18.20    6.58
   1   2 -30   95.91   11.89
  -1  -2 -30  111.90   12.26
  -1  -2 -31   47.15    8.45
   1  -3   0    0.25    0.81
  -1  -3   0    1.77    1.18
   1   3   0    2.79    1.74
  -1   3   1 1972.46   15.34
  -1  -3   1 1907.04   22.28
  -1   3  -1 1894.27   18.41
   1  -3   1 1886.38   18.49
   1   3  -1 1950.80   22.54
   1  -3  -1 1893.26   15.20
  -1  -3  -1 1977.80   22.10
   1   3   1 1986.30   22.16
  -1   3  -2  431.79    9.63
  -1  -3   2  405.96   10.59
   1  -3  -2  407.36    6.36
   1  -3   2  398.76    9.25
   1   3   2  415.04   10.16
  -1  -3  -2  413.78   10.20
   1   3  -2  401.67   10.63
  -1   3   2  415.56    6.39
  -1   3   3 2721.70   21.39
   1  -3  -3 2781.66   15.25
  -1   3   3 2800.26   15.34
   1   3  -3 2681.78   28.08
  -1  -3   3 2801.11   28.68
  -1   3  -3 2780.47   25.84
   1  -3   3 2707.55   25.59
  -1  -3  -3 2719.33   26.59
   1   3  -4  331.52   10.30
  -1  -3  -4  315.54    9.16
  -1   3  -4  306.32    9.16
  -1   3   4  324.78    7.07
  -1  -3   4  337.27   10.37
   1  -3   4  330.97    9.58
   1  -3  -4  309.07    5.21
   1  -3   5  871.05   16.64
   1   3  -5  864.93   17.45
   1  -3  -5  895.81    9.41
  -1   3  -5  870.45   16.48
  -1  -3   5  899.48   17.46
  -1   3   5  869.21   11.20
  -1  -3  -5  920.40   16.12
   1  -3  -6  553.25    8.88
  -1  -3   6  554.49   14.26
  -1   3  -6  553.89   13.80
   1   3  -6  569.39   14.52
   1  -3   6  558.32   14.04
  -1  -3   7   73.18    5.37
   1   3  -7   69.98    5.65
  -1   3  -7   76.07    6.15
   1  -3  -7   66.95    3.14
   1  -3   7   64.17    5.29
  -1  -3   8 2939.76   35.10
  -1   3  -8 2871.30   34.51
   1   3  -8 2965.82   35.73
   1  -3  -8 2898.79   20.99
  -1   3  -9  313.11   12.84
   1  -3  -9  278.10    6.79
   1   3  -9  289.02   11.59
  -1  -3 -10  609.72    7.59
  -1   3 -10  679.83   18.58
   1  -3 -10  642.67   10.99
   1   3 -10  660.85   18.16
   1  -3 -11   74.72    4.01
  -1   3 -11   94.35    7.91
   1   3 -11   73.89    6.73
   1  -3 -12  155.74    7.05
  -1   3 -12  168.03   10.00
   1   3 -12  152.22    9.51
  -1   3 -13    3.40    3.19
   1   3 -13    7.95    3.66
   1  -3 -13    6.07    2.00
  -1   3 -14  110.51    8.86
   1  -3 -14  100.88    6.25
   1   3 -14  110.92    8.67
  -1   3 -15    2.37    3.02
   1   3 -15    6.12    3.53
   1  -3 -15    3.55    2.05
  -1   3 -16    0.72    2.54
   1   3 -16    3.36    3.30
   1  -3 -16   -0.46    1.76
   1  -3 -17   72.70    6.19
   1   3 -17   70.41    7.79
  -1   3 -17   56.41    7.33
   1  -3 -18   78.49    6.82
  -1   3 -18   80.68    9.18
   1   3 -19  750.58   25.44
  -1   3 -19  738.30   25.78
   1  -3 -19  731.23   20.88
   1   3 -20  160.48   12.57
  -1   3 -20  145.86   12.59
   1  -3 -20  145.24    9.98
   1  -3 -21  227.01   12.65
  -1   3 -21  237.04   15.54
  -1  -3 -21  225.00   13.80
   1   3 -21  209.40   14.59
  -1   3 -22   34.54    6.39
   1   3 -22   53.67    8.13
  -1  -3 -22   40.47    6.50
   1  -3 -22   34.99    5.44
   1  -3 -23   80.66    8.04
   1   3 -23   78.69    9.53
  -1   3 -23   72.17    9.31
  -1  -3 -23   84.71    9.18
  -1  -3 -24    7.85    3.60
  -1   3 -24    5.23    4.07
   1  -3 -24    6.43    3.13
   1   3 -24   -1.69    3.32
  -1   3 -25   54.52    8.69
   1  -3 -25   63.73    7.60
  -1  -3 -25   52.61    7.48
   1   3 -25   59.26    8.75
   1  -3 -26   21.76    5.19
  -1  -3 -26   25.26    5.84
  -1   3 -26   16.89    5.89
   1   3 -26   19.38    5.43
  -1   3 -27    3.85    4.41
  -1  -3 -27    7.17    3.92
   1   3 -27    3.06    3.45
  -1   3 -28    2.57    3.51
  -1  -3 -28    3.27    2.97
   1   3 -28    0.85    3.70
  -1  -3 -29    5.59    3.57
   1   3 -29   -1.59    3.51
  -1  -3 -30    5.09    3.82
   1  -4   0   -0.42    1.08
   1   4   0    1.11    1.88
  -1  -4   0    0.40    1.04
  -1   4   0   -2.00    1.36
   1   4  -1   16.17    2.87
   1  -4   1   13.65    2.01
   1  -4  -1   14.09    1.80
  -1  -4   1   13.01    2.24
  -1   4  -1   11.22    1.88
  -1   4   1   12.88    1.77
  -1  -4  -1   13.92    2.31
   1   4   1    6.69    1.80
  -1   4  -2 2122.24   23.83
   1  -4   2 2196.23   24.03
   1   4   2 2125.12   25.76
  -1  -4  -2 2170.77   25.83
  -1  -4   2 2185.07   27.23
   1   4  -2 2165.09   27.23
  -1   4   2 2247.26   19.09
   1  -4  -2 2168.05   18.71
  -1   4  -3   32.31    3.35
   1   4   3   32.56    3.31
   1  -4   3   34.53    3.35
  -1  -4   3   33.93    3.76
  -1   4   3   37.86    2.43
   1   4  -3   33.38    3.76
  -1  -4  -3   34.36    3.49
   1  -4  -3   35.06    2.33
  -1   4   4  771.06   12.02
  -1  -4  -4  752.10   15.39
   1   4  -4  755.39   16.98
  -1   4  -4  775.78   16.02
   1  -4   4  763.26   15.84
  -1  -4   4  757.07   17.17
   1  -4  -4  750.39   10.18
   1   4  -5 1004.74   20.26
  -1   4  -5  989.69   19.08
  -1  -4  -5 1005.02   18.14
  -1   4   5 1032.86   13.17
   1  -4  -5  974.44   11.75
  -1  -4   5 1012.87   20.14
   1  -4   5 1046.49   19.31
   1  -4  -6  525.52    8.95
  -1  -4  -6  541.81   13.49
   1   4  -6  528.84   15.24
   1  -4   6  529.55   14.53
  -1  -4   6  514.25   14.87
  -1   4   6  516.89    9.06
  -1   4  -6  509.88   14.60
   1  -4  -7 1167.89   14.02
   1   4  -7 1155.09   23.27
  -1   4  -7 1180.82   22.62
   1  -4   7 1206.84   22.76
  -1  -4  -7 1162.90   20.39
   1   4  -8 2059.25   32.01
   1  -4  -8 2083.50   19.97
  -1   4  -8 2063.46   31.13
   1   4  -9 1772.47   30.87
  -1   4  -9 1772.84   30.07
   1  -4 -10  578.19    9.33
   1   4 -10  611.81   18.60
  -1   4 -10  627.48   18.90
   1   4 -11    7.49    3.93
  -1   4 -11    9.06    4.14
   1  -4 -11    4.93    0.99
  -1   4 -12   86.45    7.58
   1   4 -12  100.52    8.17
   1  -4 -12   91.50    4.03
   1  -4 -13   90.34    4.16
   1   4 -13  107.85    8.89
  -1   4 -13   96.47    8.43
   1  -4 -14  485.40   10.06
   1   4 -14  519.55   19.15
  -1   4 -14  492.50   18.95
   1  -4 -14  490.18   13.56
  -1  -4 -15   34.86    1.78
   1   4 -15   44.91    7.10
   1  -4 -15   51.27    3.51
  -1   4 -15   44.75    6.86
   1  -4 -15   44.41    4.68
   1  -4 -16   41.19    4.38
   1  -4 -16   41.36    3.34
  -1   4 -16   49.97    7.27
  -1  -4 -16   37.88    2.15
   1   4 -16   42.60    6.45
  -1   4 -17  368.98   17.95
   1   4 -17  390.66   18.14
  -1  -4 -17  354.27    7.21
   1  -4 -17  360.53    9.88
   1  -4 -17  393.85   13.86
  -1   4 -18  266.06   15.78
   1   4 -18  290.79   16.17
   1  -4 -18  274.26   12.01
   1  -4 -18  273.61    8.93
   1  -4 -19  160.70    7.10
  -1   4 -19  167.49   12.81
   1   4 -19  167.43   12.51
   1  -4 -19  162.94    9.73
   1   4 -20    7.59    4.46
   1  -4 -20    6.66    3.34
  -1   4 -20   13.15    5.16
   1   4 -21  113.59   11.19
  -1   4 -21  107.02   10.89
   1  -4 -21  105.62    8.46
  -1  -4 -22   68.76    8.39
   1  -4 -22   71.10    7.34
  -1   4 -22   78.98   10.14
   1   4 -22   78.14   10.12
   1  -4 -23  325.63   15.57
  -1  -4 -23  303.09   16.85
  -1   4 -23  350.66   20.42
   1   4 -23  349.45   20.04
   1   4 -24   13.65    5.44
  -1   4 -24    7.27    5.12
  -1  -4 -24    1.97    3.11
   1  -4 -24    8.62    3.91
  -1  -4 -25    0.01    2.78
  -1   4 -25   -5.46    4.32
   1   4 -25   -4.06    4.43
  -1   4 -26   29.15    7.16
   1   4 -26   27.91    6.41
  -1  -4 -26   33.90    6.60
  -1  -4 -27   35.49    6.66
   1   4 -27   50.55    8.92
  -1   4 -27   36.44    7.65
   1   4 -28    0.69    3.93
  -1  -4 -28    1.62    3.14
   1   5   0    2.52    2.06
  -1   5   0   -0.30    1.44
   1  -5   0   -0.57    1.19
  -1  -5   0   -0.58    1.36
  -1  -5   1  803.67   17.69
  -1   5   1  776.75   13.92
  -1   5  -1  734.10   14.99
   1   5  -1  791.59   17.83
   1  -5   1  784.71   15.19
   1   5   1  762.16   16.90
  -1  -5  -1  755.91   16.68
   1  -5  -1  768.78   13.66
   1   5   2    7.27    2.20
  -1   5   2    8.56    1.86
  -1  -5  -2    9.24    2.11
  -1  -5   2   10.37    2.47
   1  -5   2    9.59    2.01
  -1   5  -2   12.16    2.32
   1  -5  -2    7.99    1.63
   1   5  -2   10.12    2.69
   1   5  -3   26.25    3.89
  -1   5  -3   27.49    3.45
   1  -5  -3   28.26    2.54
  -1  -5  -3   29.83    3.33
   1  -5   3   31.83    3.48
  -1   5   3   26.21    2.51
  -1  -5   3   31.43    3.90
   1   5   3   26.43    3.38
   1   5   4   97.48    6.15
   1  -5  -4   92.46    4.32
  -1   5   4  101.32    4.59
  -1  -5  -4   91.47    5.90
  -1  -5   4   96.72    6.62
   1  -5   4  104.56    6.39
  -1   5  -4  101.10    6.52
   1   5  -4   95.90    6.81
  -1   5  -5   76.92    5.82
  -1  -5  -5   75.75    5.48
   1   5  -5   92.18    6.89
   1  -5  -5   81.43    3.91
   1  -5   5   86.01    6.08
  -1   5   5   81.63    4.33
  -1   5  -6   80.43    6.37
  -1   5   6   83.26    4.05
  -1  -5  -6   84.79    5.82
   1   5  -6  100.30    7.47
   1  -5  -6   86.93    4.14
   1   5  -7   -1.34    2.56
  -1  -5  -7    1.18    1.36
  -1   5  -7    4.89    2.91
  -1   5   7    0.10    0.80
   1  -5  -7    0.02    0.92
  -1   5  -8  726.31   19.83
   1  -5  -8  740.97   12.74
  -1  -5  -8  748.30   17.61
   1   5  -8  753.67   20.64
   1   5  -9 1274.98   27.79
  -1  -5  -9 1291.31   23.64
   1  -5  -9 1248.30   17.15
  -1   5  -9 1257.07   26.90
   1  -5 -10    3.21    1.25
   1   5 -10    5.75    3.81
  -1   5 -10    6.15    4.18
  -1  -5 -10    0.71    1.62
   1  -5 -11  144.67    6.48
   1   5 -11  135.70    9.80
  -1   5 -11  138.87    9.59
  -1   5 -12    8.39    3.71
   1   5 -12   -0.21    2.98
  -1   5 -13   69.67    7.48
   1   5 -13   74.45    8.09
  -1   5 -14  221.85   13.03
   1   5 -14  250.13   14.25
  -1   5 -15  126.23   10.59
   1   5 -15  144.71   11.32
   1   5 -16   91.31    9.43
  -1   5 -16   78.89    8.54
   1  -5 -16   85.66    6.30
   1  -5 -16   79.56    3.34
   1  -5 -17   50.73    2.75
   1   5 -17   46.36    6.96
  -1   5 -17   38.55    6.51
  -1   5 -18   -2.51    3.93
   1  -5 -18    1.52    1.82
   1   5 -18    5.73    3.89
  -1   5 -19   42.27    7.12
   1   5 -19   56.19    8.08
   1  -5 -19   61.02    5.85
  -1   5 -20   90.27   10.10
   1  -5 -20   99.36    7.64
   1   5 -20  106.50   11.00
   1  -5 -21   66.44    6.64
   1   5 -21   67.16    9.05
  -1   5 -21   57.99    8.45
   1  -5 -22   25.97    4.75
   1   5 -22   14.30    4.78
  -1   5 -22   24.84    6.43
   1   5 -23   37.94    7.68
  -1  -5 -23   49.48    7.12
  -1   5 -23   36.72    7.00
  -1   5 -24    6.19    4.63
  -1  -5 -24    3.33    3.25
   1   5 -24   -2.87    4.56
   1   5 -25    4.28    3.73
  -1   5 -25    1.30    3.82
  -1  -5 -25    3.95    3.38
  -1  -5 -26   43.96    7.24
  -1   5 -26   55.26    9.17
   1   5 -26   32.50    7.44
  -1   5 -27   11.73    5.00
   1   5 -27    1.73    3.47
  -1   6   0   -0.70    1.48
   1   6   0   -0.46    2.04
  -1  -6   0    0.64    1.30
   1  -6   0   -1.56    1.54
   1  -6   1 2209.56   28.04
  -1   6  -1 2209.13   28.60
   1   6  -1 2213.34   32.10
   1   6   1 2232.31   31.49
   1  -6  -1 2178.57   25.96
  -1   6   1 2245.12   26.49
  -1  -6  -1 2296.51   31.47
   1   6   2   35.42    4.08
   1  -6   2   48.98    4.49
  -1   6  -2   35.42    3.97
  -1   6   2   50.39    4.08
  -1  -6  -2   46.02    4.48
   1   6  -2   37.28    4.68
   1  -6  -2   42.75    3.60
   1  -6   3  575.33   15.43
   1   6   3  558.72   15.46
  -1   6   3  571.47   12.59
   1  -6  -3  552.94   12.31
   1   6  -3  584.51   17.19
  -1  -6  -3  547.65   15.24
  -1   6  -3  577.16   15.67
   1   6   4   47.15    4.70
   1  -6  -4   48.86    3.67
   1   6  -4   48.36    5.23
  -1   6   4   45.81    3.52
  -1  -6  -4   46.52    4.46
   1  -6   4   48.91    4.82
  -1   6  -4   48.41    5.01
  -1   6  -5 1500.81   27.07
   1  -6  -5 1492.03   19.19
   1   6  -5 1491.07   28.46
  -1  -6  -5 1510.44   25.45
  -1   6   5 1479.15   19.51
  -1  -6  -6   56.00    4.92
  -1   6   6   62.66    3.94
  -1   6  -6   59.81    5.79
   1  -6  -6   57.37    3.83
   1   6  -6   64.44    6.64
   1  -6  -7  284.16    8.35
  -1   6  -7  281.31   12.48
   1   6  -7  278.04   12.99
  -1   6   7  283.54    7.67
  -1  -6  -7  271.30   11.02
   1   6  -8  195.69   11.41
  -1  -6  -8  192.65    9.52
  -1   6   8  202.67    6.03
   1  -6  -8  202.99    7.21
  -1   6  -8  192.25   10.84
   1  -6  -9  754.77   14.21
   1   6  -9  803.02   23.10
  -1   6  -9  765.80   21.88
  -1   6 -10  206.73   12.05
   1  -6 -10  208.89    7.70
   1   6 -10  185.86   12.01
  -1   6 -11  479.98   18.51
   1  -6 -11  487.58   12.14
   1   6 -11  500.55   19.61
   1   6 -12  568.60   21.05
  -1   6 -12  553.85   20.67
   1  -6 -12  559.67   13.58
   1   6 -13  328.77   16.55
  -1   6 -13  346.78   16.61
   1  -6 -13  328.20   10.78
   1  -6 -14   47.52    4.42
  -1   6 -14   49.40    7.04
   1   6 -14   54.52    7.68
   1   6 -15  260.50   15.68
  -1   6 -15  246.80   14.99
   1   6 -16   10.47    4.31
  -1   6 -16    4.30    3.46
  -1   6 -17   -2.06    3.72
   1   6 -17   -0.36    3.94
  -1   6 -18   29.07    5.95
   1  -6 -18   35.86    4.46
   1   6 -18   28.22    5.69
   1  -6 -19    2.76    1.87
  -1   6 -19    1.32    3.71
   1   6 -19   -1.45    3.37
  -1   6 -20  241.87   16.62
   1   6 -20  232.03   16.44
   1  -6 -20  240.62   11.66
   1   6 -21    6.89    4.74
  -1   6 -21    6.44    5.50
   1   6 -22  182.44   15.36
  -1   6 -22  182.45   15.49
  -1   6 -23   29.23    6.84
   1   6 -23   15.77    6.00
  -1   6 -24   55.43    9.43
  -1  -6 -24   53.07    7.43
   1   6 -24   51.90    9.43
  -1   6 -25    1.20    4.41
   1   6 -25    8.38    5.06
   1   6 -26   25.62    7.34
  -1   6 -26   24.08    6.83
   1   7   0    1.61    2.25
   1  -7   0    0.02    1.31
  -1   7   0    0.25    1.73
   1  -7   1  219.90    9.68
  -1   7   1  204.08    8.96
   1  -7  -1  198.02    8.60
   1   7   1  207.00   10.65
   1   7  -1  221.77   11.05
  -1   7  -1  207.59    9.61
   1  -7  -2   12.21    2.28
   1   7  -2   11.99    3.37
   1   7   2    8.48    2.57
  -1   7  -2   11.04    2.71
  -1   7   2   16.34    2.97
  -1   7  -3   14.84    3.22
   1   7   3   23.74    3.85
   1  -7  -3   17.39    2.58
  -1   7   3   18.89    2.87
   1   7  -3   13.13    3.30
   1  -7  -4  184.15    7.79
  -1   7  -4  190.63   10.09
  -1   7   4  180.25    7.89
   1   7   4  177.55    9.57
   1   7  -4  191.02   10.87
   1  -7  -5  734.97   15.11
  -1   7   5  727.10   15.28
  -1   7  -5  723.04   20.31
   1   7   5  708.27   19.00
   1   7  -5  718.50   21.23
   1  -7  -6  222.26    8.23
   1   7  -6  222.95   12.17
  -1   7  -6  228.95   11.84
  -1   7   6  224.37    8.05
   1   7  -7    4.01    2.77
  -1   7  -7    4.33    2.90
   1  -7  -7    4.68    1.54
  -1   7   7    4.61    1.40
   1   7  -8  175.30   11.43
  -1   7   8  185.22    6.33
  -1   7  -8  177.27   11.10
   1  -7  -8  186.59    7.41
  -1   7  -9   55.99    6.82
   1   7  -9   50.62    6.55
   1  -7  -9   55.58    4.14
  -1   7   9   52.96    3.08
   1   7 -10  128.78   10.27
  -1   7 -10  119.20    9.72
   1  -7 -10  132.04    6.49
   1  -7 -11   13.01    2.45
   1   7 -11   14.86    4.96
  -1   7 -11    9.82    4.22
   1  -7 -12   11.91    2.24
  -1   7 -12   12.74    4.83
   1   7 -12   19.49    5.25
   1   7 -13  449.46   20.22
  -1   7 -13  467.34   20.20
   1   7 -14  691.73   25.62
  -1   7 -14  727.70   25.49
  -1   7 -15    6.64    5.23
   1   7 -15    7.05    4.82
  -1   7 -16    3.19    3.61
   1   7 -16    2.39    3.82
   1   7 -17  318.87   18.53
  -1   7 -17  287.40   17.67
   1   7 -18  100.30   11.16
  -1   7 -18  105.25   11.40
  -1   7 -19  130.56   12.71
   1   7 -19  134.38   12.80
  -1   7 -20    6.34    3.67
   1   7 -20   10.89    4.27
  -1   7 -21    0.50    4.10
   1   7 -21   16.31    5.57
   1   7 -22    3.06    4.30
  -1   7 -22  -10.57    6.82
   1   7 -23  109.91   12.88
  -1   7 -23  100.71   12.13
  -1   7 -24   -3.56    4.44
   1   7 -24    2.68    3.90
   1   7 -25    5.90    4.56
  -1   8   0   -1.63    2.25
   1   8   0   -0.44    2.74
   1   8  -1 1281.62   28.38
  -1   8  -1 1251.15   25.28
   1   8   1 1223.99   27.24
  -1   8   1 1254.36   24.04
   1  -8  -1 1287.83   23.75
   1   8  -2  125.07    9.23
  -1   8   2  141.49    8.08
  -1   8  -2  129.56    8.35
   1   8   2  121.85    8.55
   1  -8  -2  125.55    7.33
  -1   8   3   37.66    4.14
   1  -8  -3   29.53    3.53
   1   8   3   28.65    4.27
   1   8  -3   31.87    5.06
  -1   8  -3   32.81    4.45
  -1   8  -4   11.54    3.53
  -1   8   4    7.54    2.30
   1  -8  -4   16.61    2.68
   1   8   4    8.04    3.08
   1   8  -4    6.56    3.56
  -1   8   5 1118.67   20.87
   1   8   5 1160.14   25.65
   1  -8  -5 1166.12   20.91
  -1   8  -5 1105.94   26.56
   1   8  -5 1140.96   28.40
   1   8  -6   37.48    6.19
   1  -8  -6   35.36    3.70
  -1   8  -6   43.88    6.07
   1   8  -7  346.38   16.37
  -1   8   7  404.78   11.07
  -1   8  -7  388.77   16.51
   1  -8  -7  383.12   11.68
  -1   8   8   29.47    2.84
   1   8  -8   30.48    6.03
   1  -8  -8   25.09    3.04
  -1   8  -8   31.42    5.86
  -1   8  -9 2162.55   40.87
   1  -8  -9 2215.57   27.60
   1   8  -9 2188.44   42.23
  -1   8   9 2175.57   21.22
   1   8 -10   47.62    7.39
  -1   8 -10   50.71    8.11
   1  -8 -10   41.75    3.94
   1   8 -11   30.03    6.24
  -1   8 -11   18.70    5.10
   1   8 -12  308.28   17.13
  -1   8 -12  311.54   16.84
  -1   8 -13  173.16   13.07
   1   8 -13  169.77   13.12
  -1   8 -14    4.93    3.14
   1   8 -14    8.40    4.63
   1   8 -15  120.62   11.72
  -1   8 -15  118.77   11.36
  -1   8 -16   10.75    5.01
   1   8 -16    3.09    4.13
  -1   8 -17  252.77   17.29
   1   8 -17  256.34   17.26
   1   8 -18    7.75    5.76
  -1   8 -18    0.70    3.97
   1   8 -19  386.87   22.40
  -1   8 -19  395.08   22.21
  -1   8 -20    1.14    4.09
   1   8 -20    6.55    5.94
  -1   8 -21  140.03   14.04
   1   8 -21  118.14   12.97
  -1   8 -22   12.96    5.47
   1   8 -22   20.76    6.92
   1   8 -23  205.68   17.67
  -1   8 -23  195.05   17.28
  -1   9   0   -0.13    2.01
   1   9   0   -0.23    2.58
  -1   9  -1   62.15    6.26
  -1   9   1   71.18    6.53
   1   9   1   73.30    7.52
   1   9  -1   68.81    7.36
   1   9   2  144.32    9.90
  -1   9   2  128.27    8.28
  -1   9  -2  142.37    9.41
   1   9  -2  138.17   10.43
   1   9   3  222.98   12.03
  -1   9   3  209.86   10.27
   1   9  -3  216.61   12.76
  -1   9  -3  230.69   12.40
  -1   9  -4   80.37    7.66
   1   9   4   83.62    7.60
   1   9  -4   89.93    8.47
  -1   9   4   70.48    5.92
  -1   9   5   14.95    3.03
   1  -9  -5   15.58    2.75
   1   9   5   17.81    4.18
   1   9  -5   18.74    4.40
  -1   9  -5   17.59    4.17
  -1   9  -6  136.40   10.29
   1  -9  -6  125.46    7.35
   1   9  -6  127.94   10.40
  -1   9  -7    3.00    3.02
   1   9  -7    0.32    3.21
  -1   9  -8   55.74    7.72
   1   9  -8   54.81    7.78
  -1   9  -9 1715.57   38.59
   1   9  -9 1738.36   39.58
   1   9 -10   41.27    7.73
  -1   9 -10   43.28    7.29
  -1   9 -11   57.22    7.93
   1   9 -11   64.25    8.56
  -1   9 -12   15.43    4.91
   1   9 -12    7.37    4.03
   1   9 -13    5.80    4.32
  -1   9 -13   11.86    4.52
  -1   9 -14   14.26    4.69
   1   9 -14    9.15    4.08
   1   9 -15   54.00    8.63
  -1   9 -15   71.64    9.31
   1   9 -16  127.93   12.67
  -1   9 -16  117.87   11.96
  -1   9 -17   18.62    6.20
   1   9 -17    9.59    5.15
  -1   9 -18   84.12   10.84
   1   9 -18   81.44   10.39
  -1   9 -19   80.75   11.04
   1   9 -19   61.99    9.78
   1   9 -20   44.72    8.61
  -1   9 -20   46.60    9.21
   1   9 -21  131.66   14.48
  -1   9 -21   99.56   12.66
  -1   9 -22   19.15    6.51
   1   9 -22   22.86    7.08
   1  10   0    4.10    3.13
  -1  10   0   -0.96    2.19
   1  10   1  134.74   10.42
   1  10  -1  143.71   10.78
  -1  10  -1  137.42    9.74
  -1  10   1  133.05    9.27
  -1  10   2   53.26    5.94
   1  10  -2   52.23    6.98
  -1  10  -2   44.34    6.03
   1  10   2   45.88    6.22
   1  10  -3  372.65   17.83
   1  10   3  373.47   16.51
  -1  10   3  350.03   14.34
  -1  10  -3  345.97   15.94
  -1  10  -4   12.26    3.73
   1  10  -4    3.04    3.21
   1  10   4    6.98    3.56
  -1  10   4    5.70    2.46
   1  10   5  323.41   15.46
  -1  10   5  325.94   13.26
   1  10  -5  309.18   16.66
  -1  10  -5  327.50   16.08
  -1  10  -6  208.41   13.31
   1  10  -6  197.37   13.45
  -1  10  -7  160.01   12.01
   1  10  -7  163.53   12.74
   1  10  -8   70.85    8.63
  -1  10  -8   74.81    8.66
   1  10  -9  124.80   11.65
  -1  10  -9  133.21   11.32
  -1  10 -10  614.42   24.65
   1  10 -10  608.03   25.14
   1  10 -11   27.23    6.31
  -1  10 -11   27.35    5.87
  -1  10 -12  123.85   11.63
   1  10 -12  110.25   11.46
   1  10 -13  122.02   12.10
  -1  10 -13  117.25   11.64
  -1  10 -14    8.44    4.62
   1  10 -14   12.54    4.92
   1  10 -15   -4.54    4.47
  -1  10 -15   -2.15    3.85
  -1  10 -16  196.92   15.97
   1  10 -16  176.61   15.38
  -1  10 -17   26.18    6.56
   1  10 -17   35.86    7.97
   1  10 -18   29.64    7.14
  -1  10 -18   28.31    7.05
  -1  10 -19    9.43    4.78
   1  10 -19   12.64    5.46
  -1  10 -20  293.38   21.00
   1  10 -20  313.85   21.83
  -1  11   0   -0.43    2.16
   1  11   0    1.89    3.33
   1  11  -1   12.42    4.08
  -1  11  -1    8.00    3.71
   1  11   1    2.91    2.57
  -1  11   1   11.26    3.30
   1  11  -2    2.22    2.65
  -1  11   2    1.84    1.99
  -1  11  -2   -1.59    3.52
   1  11   2    7.14    3.64
  -1  11   3   82.16    7.47
   1  11  -3   86.78    9.30
   1  11   3   77.26    8.08
  -1  11  -3   80.42    8.43
  -1  11  -4   45.86    6.51
   1  11  -4   53.38    7.53
  -1  11   4   51.24    5.87
   1  11   4   49.54    6.86
   1  11   5    6.79    3.21
  -1  11  -5    5.89    3.76
  -1  11   5    1.96    1.93
   1  11  -5   -2.12    3.36
  -1  11  -6   16.79    4.61
   1  11  -6   18.74    5.12
   1  11  -7   29.76    5.96
  -1  11  -7   20.60    4.99
  -1  11  -8  235.25   15.36
   1  11  -8  229.80   15.95
  -1  11  -9   12.49    5.32
   1  11  -9   11.75    4.73
  -1  11 -10  272.69   17.20
   1  11 -10  323.72   19.40
  -1  11 -11   21.54    6.03
   1  11 -11   13.36    5.51
  -1  11 -12   66.97    9.41
   1  11 -12   72.27    9.69
   1  11 -13   21.47    5.61
  -1  11 -13   25.43    6.67
   1  11 -14   -0.08    3.37
  -1  11 -14    3.67    3.76
   1  11 -15    2.04    3.74
  -1  11 -15    0.29    2.96
  -1  11 -16    8.06    4.51
   1  11 -16   -1.86    4.04
  -1  11 -17   28.29    7.22
   1  11 -17   34.45    7.60
   1  11 -18    3.00    3.95
  -1  11 -18    0.98    4.53
  -1  11 -19   50.42    9.09
   1  12   0    0.53    2.66
  -1  12   0   -0.13    2.51
  -1  12  -1   -0.32    2.43
  -1  12   1    2.75    2.59
   1  12  -1    1.18    2.90
   1  12   1   -1.64    3.30
  -1  12  -2   65.83    7.77
  -1  12   2   78.63    7.94
   1  12   2   85.16    9.08
   1  12  -2   67.65    8.32
   1  12  -3   10.06    3.53
   1  12   3   13.64    4.84
  -1  12  -3    7.22    3.80
  -1  12   3   10.65    3.14
   1  12  -4   -2.19    3.21
   1  12   4    3.36    2.68
  -1  12   4    0.72    2.38
  -1  12  -4    2.04    3.84
  -1  12  -5    6.93    3.19
   1  12  -5   18.35    5.30
  -1  12  -6    7.89    3.03
   1  12  -6   18.63    5.24
  -1  12  -7   25.25    5.08
   1  12  -7   28.53    6.24
   1  12  -8   61.74    9.06
  -1  12  -8   44.56    7.29
   1  12  -9  140.55   13.46
  -1  12  -9  159.30   13.61
   1  12 -10   11.00    4.75
  -1  12 -10   12.97    5.15
   1  12 -11    6.67    5.36
  -1  12 -11    7.53    3.91
  -1  12 -12   14.47    5.81
   1  12 -12   14.54    5.50
  -1  12 -13  246.90   18.15
   1  12 -13  247.89   18.90
  -1  12 -14   14.39    5.83
   1  12 -14    2.42    3.40
  -1  12 -15    2.28    3.27
   1  12 -15    0.11    3.81
   1  12 -16  103.37   12.66
  -1  12 -16  105.31   13.01
  -1  12 -17   45.85    9.09
   1  13   0   -3.22    3.77
  -1  13   0    0.94    2.71
   1  13   1   69.28    8.73
   1  13  -1   68.40    9.20
  -1  13  -1   69.99    8.37
  -1  13   1   70.66    7.92
  -1  13  -2   27.16    5.72
   1  13   2   24.95    5.47
   1  13  -2   22.07    5.74
  -1  13  -3   37.41    6.61
   1  13  -3   41.25    7.39
   1  13   3   29.07    5.45
   1  13   4   66.87    8.16
   1  13  -4   63.89    8.86
  -1  13  -4   63.21    8.47
  -1  13  -5    4.68    3.95
   1  13  -5   -1.78    3.79
  -1  13  -6    3.51    3.03
   1  13  -6   -2.13    3.23
  -1  13  -7   12.50    4.64
   1  13  -7   17.49    5.07
   1  13  -8    6.08    3.47
  -1  13  -8    2.06    3.54
   1  13  -9  128.76   13.21
  -1  13  -9  101.09   11.63
  -1  13 -10    5.22    3.86
   1  13 -10   19.18    6.57
  -1  13 -11    0.83    3.49
   1  13 -11    3.59    4.44
  -1  13 -12   58.88    9.39
   1  13 -12   49.87    8.99
   1  13 -13    9.35    5.69
  -1  13 -13   -4.59    5.05
  -1  13 -14   23.59    6.09
   1  13 -14   25.93    7.38
  -1  13 -15  106.90   13.13
   1  14   0   -2.51    3.32
   1  14   1   37.77    6.78
   1  14  -1   40.96    7.43
   1  14   2   41.27    6.72
   1  14  -2   30.02    6.82
   1  14  -3   39.90    7.60
  -1  14  -3   22.36    5.60
   1  14   3   24.96    5.54
  -1  14  -4   -2.31    2.73
   1  14  -4    4.43    3.89
   1  14  -5  126.42   12.99
  -1  14  -5  123.89   12.49
  -1  14  -6  112.50   12.28
   1  14  -6  126.14   13.39
  -1  14  -7    5.56    3.58
   1  14  -7   -0.57    3.84
  -1  14  -8    8.10    5.06
   1  14  -8    5.53    5.02
   1  14  -9   24.17    6.63
  -1  14  -9   35.73    7.38
   1  14 -10   84.15   11.80
  -1  14 -10   79.26   10.85
   1  14 -11    6.14    4.48
  -1  14 -11    9.23    4.32
  -1  14 -12   19.75    5.78
   1  15  -1    2.13    3.24
   1  15  -2  111.86   12.41
   1  15  -3   36.01    7.38
   1  15  -4   18.12    6.07
   1  15  -5    2.25    4.05
   1  15  -6   39.02    8.27
  -1  15  -7   51.70    8.80
   1  15  -7   44.71    8.53
  -1  15  -8   36.04    7.79
  -1  15  -9   18.87    6.02
  -1  15 -10   50.95    9.22
   2   0   0  851.91   13.38
  -2   0   0  842.49   12.16
  -2   0   0  840.65   13.43
  -2   0  -1    0.20    1.00
   2   0  -1   -1.79    1.48
  -2   0   1    0.79    1.23
   2   0   1    0.23    1.47
  -2   0   1    1.39    0.93
   2   0  -2 5887.24   36.01
  -2   0  -2 5772.36   34.97
   2   0   2 5891.91   35.51
   2   0  -2 5949.62   30.34
  -2   0   2 5775.08   30.36
  -2   0   3   -0.37    1.04
  -2   0  -3   -0.01    1.31
  -2   0   4 3178.92   23.35
  -2   0  -4 3135.12   27.11
   2   0  -4 3154.08   23.09
  -2   0   5    1.06    1.10
   2   0  -5   -1.33    1.31
   2   0  -6  509.80   10.39
  -2   0   6  512.05   10.46
  -2   0   7    3.18    1.43
   2   0  -7    3.08    1.66
  -2   0   8 2271.48   24.48
   2   0  -8 2186.90   24.57
   2   0  -9   -0.09    1.48
  -2   0   9    5.74    1.49
   2   0 -10 5471.40   42.80
  -2   0  10 5508.14   42.12
   2   0 -11    2.24    2.91
  -2   0  11    1.16    1.39
   2   0 -12 1259.81   22.48
  -2   0  12 1271.90   22.47
   2   0 -13    7.03    4.54
   2   0 -14 1798.42   29.23
   2   0 -15   14.52    5.17
   2   0 -16  111.55    7.87
  -2   0 -17   -2.78    3.21
   2   0 -17    2.37    2.69
   2   0 -18  164.66   10.30
  -2   0 -18  160.71   11.47
  -2   0 -19   -3.97    3.46
   2   0 -19    2.00    3.41
  -2   0 -20   74.80    8.41
   2   0 -20   87.92    8.26
  -2   0 -21    5.56    3.88
   2   0 -21    4.09    3.25
   2   0 -22    3.77    3.02
  -2   0 -22    0.53    2.90
  -2   0 -23   -3.71    3.41
   2   0 -23    2.49    3.16
  -2   0 -24   27.14    6.00
   2   0 -24   33.23    5.93
  -2   0 -25    3.91    4.46
   2   0 -25   -1.20    3.14
   2   0 -26   75.69    9.14
  -2   0 -26   80.91   10.25
   2   0 -27    5.27    4.17
  -2   0 -27   -7.34    5.29
  -2   0 -28    1.14    3.86
   2   0 -28   -4.22    3.98
   2   0 -29   -0.06    2.81
  -2   0 -29   -3.68    4.34
  -2   1   0 8826.91   44.96
   2   1   0 8922.58   43.52
  -2  -1   0 8758.50   43.77
   2  -1   0 8906.53   44.89
   2  -1  -1 7303.49   40.08
  -2   1  -1 7320.40   41.39
   2   1  -1 7448.53   39.65
   2   1   1 7349.68   38.20
  -2  -1   1 7199.30   39.58
  -2   1   1 7384.09   40.72
  -2  -1  -1 7401.84   41.02
  -2   1  -2   47.85    3.63
  -2  -1  -2   51.02    3.43
  -2   1   2   46.57    2.32
   2   1  -2   45.03    3.25
   2   1   2   47.07    3.30
  -2  -1   2   48.17    3.44
  -2   1   2   55.07    3.75
   2  -1  -2   52.05    3.57
  -2   1   3 2939.01   26.13
  -2  -1  -3 2892.84   23.98
   2  -1  -3 2920.32   25.82
   2   1  -3 2901.66   25.39
  -2  -1   3 3011.32   25.70
   2  -1  -3 2969.58   16.94
   2   1   3 2918.03   23.80
  -2   1   3 2953.88   16.95
   2   1  -4 2728.24   25.30
  -2   1   4 2705.35   17.15
  -2  -1   4 2730.26   25.44
   2   1   4 2728.01   23.35
  -2  -1  -4 2718.44   23.29
   2  -1  -4 2686.67   25.33
   2  -1  -4 2743.68   17.01
  -2  -1  -5   10.51    1.78
   2  -1  -5   10.63    1.99
   2   1  -5    8.68    2.01
   2  -1  -5   11.50    1.36
  -2  -1   5   11.92    2.07
  -2   1   5    9.55    1.29
  -2  -1  -6   12.75    1.84
  -2   1   6   12.04    1.48
   2   1  -6    7.82    1.98
  -2  -1   6   12.85    2.25
   2  -1  -6    8.27    1.38
  -2  -1   7  143.67    6.55
   2  -1  -7  135.85    5.07
  -2   1   7  141.17    5.02
   2   1  -7  131.24    6.51
   2   1  -8 1238.41   20.34
   2  -1  -8 1297.28   16.65
  -2   1   8 1281.85   16.36
  -2  -1   8 1311.31   20.58
   2  -1  -9    3.92    1.31
  -2   1   9    6.59    1.55
  -2  -1   9    5.96    1.99
   2   1  -9    4.76    2.14
   2   1 -10  732.70   17.14
   2  -1 -10  724.83   14.24
  -2  -1  10  743.47   17.01
   2   1 -11    3.94    2.78
  -2  -1  11    2.61    2.23
   2  -1 -11    2.94    2.47
   2   1 -12 2202.53   31.91
   2  -1 -12 2157.70   27.50
   2   1 -13   32.43    5.89
   2  -1 -13   23.14    4.50
  -2   1 -14 1074.54   26.07
   2   1 -14 1080.88   23.82
   2  -1 -14 1107.43   21.80
  -2   1 -15  503.53   19.02
   2   1 -15  477.52   17.06
   2  -1 -15  500.37   15.18
  -2   1 -16  129.81    9.86
   2   1 -16  131.14    9.10
   2  -1 -16  123.00    8.03
   2   1 -17   69.95    7.80
   2  -1 -17   65.35    6.83
  -2   1 -17   63.28    7.90
  -2   1 -18 1429.39   34.26
   2   1 -18 1445.25   31.63
   2  -1 -18 1400.50   28.85
   2   1 -19   46.01    7.51
  -2   1 -19   38.13    7.40
   2  -1 -19   37.46    6.82
  -2   1 -20  149.86   11.84
  -2  -1 -20  149.88   11.60
   2   1 -20  137.75   10.59
   2  -1 -20  146.18   10.12
  -2   1 -21  110.24   10.82
  -2  -1 -21  107.31   10.59
   2  -1 -21  125.50    9.67
   2   1 -21  115.26   10.36
  -2  -1 -22  327.48   17.90
   2   1 -22  319.12   16.91
   2  -1 -22  317.10   15.92
  -2   1 -22  349.83   18.78
   2   1 -23   70.98    8.41
  -2  -1 -23   83.17    9.64
  -2   1 -23   82.12   10.02
   2  -1 -23   79.77    8.44
  -2   1 -24   20.84    5.47
   2   1 -24   32.87    6.32
   2  -1 -24   32.48    5.92
  -2  -1 -24   16.14    5.22
   2  -1 -25  172.41   12.87
  -2  -1 -25  204.07   15.44
   2   1 -25  184.40   14.34
  -2   1 -25  177.27   15.25
   2  -1 -26  531.65   22.81
   2   1 -26  545.28   24.49
  -2   1 -26  556.14   26.42
  -2  -1 -26  498.27   24.59
   2  -1 -27   84.62    9.98
   2   1 -27   83.12   11.01
  -2  -1 -27  102.92   12.28
  -2   1 -27   85.54   11.61
   2  -1 -28  443.17   22.07
  -2   1 -28  431.40   24.62
  -2  -1 -28  473.39   25.03
   2   1 -28  457.30   23.84
  -2   1 -29  260.77   19.42
  -2  -1 -29  260.74   19.31
   2   1 -29  257.89   18.13
   2   1 -30   39.84    8.10
   2   1 -31    9.61    5.17
  -2  -2   0 1447.55   19.64
  -2   2   0 1365.18   18.85
   2   2   0 1378.57   19.29
  -2   2   1  275.89    8.29
   2   2   1  273.57    8.73
   2   2  -1  265.43    8.61
  -2  -2  -1  270.81    8.80
  -2  -2   1  263.90    8.48
  -2  -2   2    6.99    1.91
   2  -2  -2    7.76    1.87
   2   2   2    9.35    1.69
  -2   2   2    8.10    1.65
  -2  -2  -2    6.76    2.04
   2   2  -2   10.15    2.43
   2   2   3 3602.46   26.13
  -2  -2   3 3690.14   32.47
  -2  -2  -3 3678.01   33.23
  -2   2   3 3751.08   29.93
   2  -2  -3 3706.94   29.44
   2   2  -3 3649.53   32.45
   2  -2  -4 2899.62   26.29
  -2  -2  -4 2895.78   22.92
  -2   2   4 2876.42   26.22
  -2  -2   4 2856.75   29.28
   2   2  -4 2813.80   29.33
   2   2   4 2899.80   22.89
  -2  -2  -5 1879.92   18.36
  -2  -2   5 1873.18   24.39
   2  -2  -5 1898.13   21.44
   2   2   5 1839.93   18.32
   2   2  -5 1810.42   24.12
   2   2  -6  503.41   13.15
  -2  -2  -6  517.22    9.79
   2  -2  -6  518.81   11.52
  -2  -2   6  541.82   13.57
   2  -2  -6  523.34    6.76
   2   2  -7  682.37   15.67
  -2  -2   7  686.67   15.77
   2  -2  -7  674.57    9.10
  -2  -2  -7  684.27   11.40
   2  -2  -7  674.81   13.31
  -2  -2  -8    4.31    1.17
   2   2  -8    3.18    2.19
   2  -2  -8    4.89    1.11
  -2  -2   8    4.09    1.88
   2  -2  -8    4.78    1.79
  -2  -2  -9   26.15    2.50
  -2  -2   9   26.74    3.58
  -2   2  -9   20.00    3.39
   2  -2  -9   27.58    3.08
   2   2  -9   21.44    3.53
   2  -2  -9   24.81    2.38
  -2   2 -10   13.03    3.36
   2   2 -10   10.33    2.92
  -2  -2  10    9.44    2.47
  -2  -2 -10   11.67    1.86
   2  -2 -10   12.08    2.22
   2  -2 -11  613.28   12.79
  -2   2 -11  616.89   18.07
   2   2 -11  615.15   17.65
   2   2 -12   18.49    5.39
   2  -2 -12   12.76    3.01
  -2   2 -12   13.64    5.30
   2   2 -13 1997.02   33.21
  -2   2 -13 1958.61   34.82
   2  -2 -13 1913.96   25.48
  -2   2 -14   30.65    6.39
   2   2 -14   13.40    3.90
   2  -2 -14   30.37    4.53
   2  -2 -15   34.75    4.00
  -2   2 -15   31.54    5.34
   2   2 -15   42.68    6.02
   2   2 -16  117.61    9.15
  -2   2 -16  115.80    9.64
   2  -2 -16  111.11    7.18
   2   2 -17    0.36    2.60
   2  -2 -17   -1.42    2.43
   2   2 -18   52.70    6.71
  -2   2 -18   55.03    7.26
   2  -2 -18   47.40    5.39
   2  -2 -19   84.72    7.52
  -2   2 -19   88.53    9.23
   2   2 -19   83.85    8.68
   2   2 -20    4.69    3.94
  -2   2 -20   -3.85    4.08
   2  -2 -20    4.20    2.78
   2   2 -21  150.44   12.04
  -2   2 -21  159.56   12.79
   2  -2 -21  138.72    9.82
   2   2 -22   94.81    9.54
  -2   2 -22   84.86    9.89
  -2  -2 -22   84.19    9.32
   2  -2 -22   83.57    8.02
  -2  -2 -23    9.93    4.44
  -2   2 -23    2.96    3.39
   2  -2 -23    2.17    2.54
   2   2 -23    8.65    4.82
  -2  -2 -24    3.59    3.18
   2   2 -24    3.94    3.87
   2  -2 -24    7.95    3.26
  -2   2 -24    0.82    3.12
   2  -2 -25    3.13    2.49
   2   2 -25    3.90    3.22
  -2   2 -25    6.36    4.55
  -2  -2 -25    0.66    2.92
   2   2 -26   32.14    6.97
   2  -2 -26   28.50    5.54
  -2   2 -26   21.74    6.39
  -2  -2 -26   28.53    6.33
  -2  -2 -27   52.95    8.43
   2   2 -27   38.44    7.65
  -2   2 -27   46.73    8.67
  -2   2 -28    5.42    4.60
  -2  -2 -28   11.52    5.01
   2   2 -28    7.41    4.12
   2   2 -29   78.95   10.77
  -2  -2 -29   77.42   10.69
   2   2 -30    9.83    4.40
  -2  -2 -30   10.60    5.06
   2   3   0 1093.28   18.88
  -2  -3   0 1092.29   18.89
  -2   3   0 1061.85   12.70
  -2   3   1  607.04   13.19
   2   3  -1  589.55   14.09
  -2   3   1  593.75    8.17
  -2   3  -1  570.46   10.36
   2   3   1  589.07   13.94
  -2  -3  -1  595.99   14.00
  -2  -3   1  600.19   14.13
  -2   3   2   32.56    3.10
  -2  -3   2   31.99    3.55
  -2  -3  -2   29.97    3.35
  -2   3   2   33.85    1.65
   2   3  -2   34.53    3.83
   2   3   2   34.46    3.79
  -2   3  -2   33.63    3.02
  -2   3  -3   93.23    5.11
   2   3   3   93.17    4.40
  -2  -3  -3   91.99    5.73
  -2   3   3   94.21    5.04
   2   3  -3   93.03    5.99
  -2  -3   3  100.66    6.01
   2   3  -4   36.85    4.02
   2  -3  -4   29.75    2.94
  -2   3  -4   32.14    3.52
  -2   3   4   29.49    2.83
  -2  -3  -4   33.45    3.58
   2   3   4   26.21    2.37
  -2  -3   4   22.88    3.27
   2  -3  -5  219.17    7.54
  -2   3  -5  213.01    8.47
   2   3   5  220.18    6.13
  -2  -3   5  226.23    9.35
  -2  -3  -5  217.30    9.15
  -2   3   5  218.19    7.45
   2   3  -5  206.82    9.13
  -2   3  -6  359.17   11.59
   2  -3  -6  346.70    9.50
   2   3   6  359.13    7.67
   2   3  -6  357.87   12.07
  -2  -3   6  376.71   12.39
  -2   3   6  351.23    9.42
  -2   3  -7   25.51    4.19
   2  -3  -7   19.48    2.55
  -2  -3   7   19.47    3.21
   2   3  -7   16.68    3.21
   2  -3  -8  651.03   13.20
   2   3  -8  669.39   17.44
  -2  -3  -8  660.50   10.21
  -2   3  -8  688.57   17.50
  -2  -3   8  677.99   17.54
   2  -3  -8  656.82    8.45
   2  -3  -9  370.85   10.28
  -2   3  -9  386.60   13.92
   2   3  -9  374.14   13.61
  -2  -3  -9  373.87    7.85
   2  -3  -9  382.91    7.46
   2  -3 -10  165.19    5.51
   2   3 -10  164.39    9.43
   2  -3 -10  157.67    6.78
  -2  -3 -10  158.82    5.26
  -2   3 -10  168.07    9.85
   2  -3 -11  443.90   11.70
   2   3 -11  434.56   15.69
   2  -3 -11  443.72    9.92
  -2   3 -11  453.34   15.94
  -2  -3 -11  432.56    9.12
   2   3 -12    5.68    2.99
   2  -3 -12    4.74    1.77
   2  -3 -12    6.98    1.82
  -2  -3 -12    4.62    1.07
  -2   3 -12    2.95    3.21
   2  -3 -13  110.43    6.29
   2  -3 -13  114.69    5.89
   2   3 -13  110.41    8.56
  -2  -3 -13  114.89    5.07
  -2   3 -13  118.47    8.85
   2   3 -14    8.97    3.61
   2  -3 -14   15.77    2.98
   2  -3 -14   11.41    2.48
  -2   3 -14   18.92    4.62
  -2  -3 -14   13.76    2.06
  -2  -3 -15   98.52    5.15
   2  -3 -15   97.83    6.27
   2   3 -15  106.78    9.03
  -2   3 -15   93.59    8.71
  -2   3 -16    4.81    4.00
   2  -3 -16    3.05    2.13
  -2  -3 -16    2.00    1.18
   2   3 -17  379.52   17.30
  -2   3 -17  394.65   18.33
   2  -3 -17  385.80   13.34
   2  -3 -18  151.55    8.89
  -2   3 -18  164.96   12.53
   2   3 -18  138.26   11.45
   2   3 -19  283.18   15.91
   2  -3 -19  314.26   13.08
  -2   3 -19  303.35   17.02
   2   3 -20   57.67    7.70
   2  -3 -20   67.82    6.54
  -2   3 -20   64.04    8.64
   2   3 -21    5.56    3.57
  -2   3 -21    6.91    3.75
   2  -3 -21    1.25    1.91
   2  -3 -22   87.59    7.77
  -2   3 -22   98.13   10.67
   2   3 -22  101.15   10.34
   2   3 -23   -1.47    3.11
  -2  -3 -23   -2.50    2.88
  -2   3 -23   -2.04    3.42
   2  -3 -23    2.53    2.49
  -2   3 -24   28.03    7.34
   2  -3 -24   31.54    5.19
  -2  -3 -24   35.53    6.87
   2   3 -24   38.77    7.61
  -2   3 -25  233.39   17.43
   2   3 -25  247.94   17.66
  -2  -3 -25  245.39   16.57
  -2  -3 -26    2.83    3.60
  -2   3 -26   12.11    5.64
   2   3 -26    6.99    4.76
   2   3 -27   15.02    5.30
  -2  -3 -27   19.95    5.95
  -2   3 -27   25.21    6.94
   2   3 -28   76.68   10.71
  -2   3 -28   70.80   10.73
  -2  -3 -28   70.81    9.62
   2   3 -29  216.05   17.84
  -2  -3 -29  222.33   17.12
  -2  -3 -30   44.53    8.29
  -2  -4   0    2.07    1.22
   2   4   0    3.63    1.84
  -2   4   0    4.38    1.17
   2   4  -1    6.14    2.26
  -2  -4  -1    7.77    2.13
  -2  -4   1    5.03    1.82
  -2   4   1    9.07    1.40
   2   4   1    8.52    2.49
  -2   4  -1    5.20    1.52
  -2  -4   2  102.92    6.47
  -2  -4  -2  110.72    6.61
  -2   4  -2   92.25    5.06
   2   4  -2  104.44    6.77
  -2   4   2   97.45    5.70
   2   4   2  100.19    6.52
  -2   4   2  100.10    3.56
  -2   4  -3  111.25    5.89
  -2   4   3  113.67    5.86
   2   4   3  110.53    6.73
  -2  -4   3  116.16    7.00
  -2  -4  -3  111.59    6.78
  -2   4   3  106.86    3.09
   2   4  -3  107.87    7.02
  -2   4  -4  389.40   11.36
  -2  -4   4  387.45   12.96
  -2   4   4  386.11   10.48
  -2  -4  -4  395.49   12.62
   2   4  -4  381.38   12.93
  -2  -4   5   23.29    3.30
  -2   4   5   32.16    3.01
   2   4   5   25.99    2.29
  -2  -4  -5   28.36    3.71
  -2   4  -5   29.84    3.83
   2   4  -5   27.83    5.85
  -2   4  -6  719.30   17.10
  -2  -4  -6  698.79   17.35
   2   4   6  709.59   10.63
  -2   4   6  715.78   13.79
   2   4  -6  691.76   18.16
  -2  -4  -7  398.26   13.37
  -2   4  -7  368.71   13.08
   2   4   7  350.07    7.20
  -2   4   7  358.69    9.87
   2   4  -7  373.31   13.66
   2  -4  -8  933.53    8.49
   2  -4  -8 1033.41   16.49
   2   4  -8 1003.50   23.09
  -2   4  -8 1064.38   22.71
   2  -4  -9  212.22    7.54
   2  -4  -9  206.85    4.87
   2   4  -9  203.57   10.60
  -2   4  -9  215.21   11.08
   2   4 -10  334.51   14.16
   2  -4 -10  344.27    7.18
   2  -4 -10  344.38    9.63
  -2   4 -10  371.86   14.51
  -2   4 -11    2.74    3.29
   2  -4 -11    1.11    1.08
   2   4 -11    0.27    2.60
   2  -4 -11    1.71    1.08
   2  -4 -12   23.36    2.42
  -2   4 -12   24.00    4.60
   2   4 -12   19.04    4.08
   2  -4 -12   22.18    2.72
  -2   4 -13    7.99    3.30
   2  -4 -13    5.69    1.53
   2  -4 -13    6.40    1.65
  -2  -4 -13    6.18    0.99
   2   4 -13   11.06    3.63
   2  -4 -14  126.25    6.49
   2  -4 -14  118.20    6.07
  -2   4 -14  136.25   10.37
  -2  -4 -14  117.38    4.05
   2   4 -14  130.86   10.32
  -2   4 -15  381.70   17.48
  -2  -4 -15  388.55    7.77
   2  -4 -15  376.13   11.40
   2   4 -15  377.28   17.40
   2  -4 -15  379.14   11.47
  -2  -4 -16   69.43    3.47
   2  -4 -16   71.88    5.24
   2  -4 -16   68.16    5.33
   2   4 -16   75.76    8.45
  -2   4 -16   71.50    8.45
   2  -4 -17   -0.35    1.31
   2   4 -17   -1.29    3.13
  -2   4 -17   -0.65    3.94
   2  -4 -17    2.42    1.62
   2  -4 -18   17.80    2.85
   2  -4 -18   11.73    2.65
  -2   4 -18    9.63    3.18
   2  -4 -19   -0.90    1.39
   2  -4 -19   -0.65    1.40
  -2   4 -19    4.74    3.72
   2   4 -19   -0.75    3.25
   2   4 -20  184.69   13.69
   2  -4 -20  180.72    9.93
   2  -4 -20  181.98    8.98
  -2   4 -20  173.51   13.38
   2   4 -21   14.28    5.68
  -2   4 -21   15.07    4.79
   2  -4 -21   10.24    2.93
  -2   4 -22   92.32   10.38
   2   4 -22   80.10    9.75
   2  -4 -22   81.52    7.25
   2   4 -23   18.00    5.05
  -2   4 -23   28.17    6.66
   2   4 -24   28.79    6.95
  -2   4 -24   25.80    6.13
   2   4 -25   55.95    8.79
  -2   4 -25   57.74    9.42
  -2  -4 -25   54.34    8.17
   2   4 -26    7.04    4.74
  -2   4 -26    6.03    5.28
  -2  -4 -26   -1.17    3.31
   2   4 -27   38.15    7.89
  -2   4 -27   22.99    5.82
  -2  -4 -27   28.97    6.29
  -2  -4 -28   44.01    7.88
   2   4 -28   38.60    8.34
  -2  -4 -29    8.20    4.25
  -2  -4 -30    0.41    3.02
  -2   5   0 4123.39   31.97
   2   5   0 4090.05   43.85
   2  -5   0 4159.59   31.65
  -2  -5   0 4177.04   43.40
   2   5  -1   21.45    4.08
  -2   5   1   15.67    2.14
  -2  -5   1   13.91    3.03
   2  -5   1   13.46    2.31
  -2   5  -1   12.91    2.25
   2   5   1   16.12    3.46
   2  -5  -1   13.40    2.29
  -2  -5  -1   14.70    2.87
  -2  -5  -2  134.90    7.90
   2   5   2  125.89    7.66
   2  -5   2  134.67    6.50
  -2   5  -2  135.60    6.67
   2   5  -2  132.31    8.24
   2  -5  -2  124.15    4.71
  -2   5   2  128.30    4.83
  -2   5  -3   81.26    5.41
  -2   5   3   83.97    5.52
   2  -5   3   82.47    5.49
  -2  -5  -3   81.96    6.23
   2   5   3   75.74    5.98
   2  -5  -3   81.82    3.49
  -2   5   3   78.73    3.49
   2   5  -3   75.50    6.27
  -2   5   4  117.41    6.23
  -2   5   4  115.62    3.77
   2  -5  -4  116.84    3.66
   2  -5   4  119.38    6.92
   2   5  -4  123.81    8.20
  -2  -5  -4  115.92    7.39
  -2   5  -4  116.28    6.90
  -2   5  -5  397.64   12.93
   2  -5  -5  349.93    5.55
  -2  -5  -5  401.27   13.77
   2   5  -5  375.88   14.14
  -2   5   5  402.37   11.14
  -2   5   6   55.22    4.08
   2   5   6   63.40    3.40
  -2   5  -6   64.22    5.80
   2   5  -6   58.89    5.98
   2   5   7  487.94    8.59
  -2   5  -7  547.00   16.53
   2   5  -7  530.91   17.67
  -2   5   7  522.89   12.14
   2   5  -8 1800.01   32.58
  -2   5  -8 1787.88   31.05
  -2   5   8 1733.68   21.66
   2  -5  -9    3.15    0.71
  -2   5  -9    9.02    4.93
   2  -5  -9    3.68    0.84
   2   5  -9    5.89    3.73
   2  -5 -10  291.32    6.46
   2  -5 -10  291.88    6.20
  -2   5 -10  287.24   13.49
   2   5 -10  322.20   14.56
  -2   5 -11  115.91    9.14
   2   5 -11  113.49    9.22
   2  -5 -11  104.17    4.22
   2  -5 -11  109.09    4.22
   2  -5 -12   25.12    2.36
  -2   5 -12   28.75    5.45
   2  -5 -12   27.83    2.49
   2   5 -12   23.72    4.69
   2   5 -13  122.29   10.28
   2  -5 -13  100.36    5.30
  -2   5 -13  106.01    9.47
   2  -5 -13   96.75    4.87
   2  -5 -14  684.17   13.73
  -2   5 -14  684.17   23.38
   2  -5 -14  680.49   13.47
   2   5 -14  709.24   23.88
   2  -5 -15  216.92    7.89
   2   5 -15  224.98   13.95
   2  -5 -15  214.44    8.19
  -2   5 -15  221.21   13.98
  -2   5 -16   25.24    5.95
   2  -5 -16   15.82    2.26
   2  -5 -16   16.76    2.75
   2   5 -16   14.07    4.61
   2  -5 -17   26.50    2.92
   2  -5 -17   25.94    3.35
  -2   5 -17   34.30    6.61
   2   5 -17   24.20    5.11
   2  -5 -18  138.32    7.62
   2   5 -18  142.61   12.05
  -2   5 -18  137.26   11.97
   2  -5 -19  182.68    9.30
   2   5 -19  180.56   13.60
  -2   5 -19  197.29   14.51
   2   5 -20   61.63    8.44
  -2   5 -20   59.79    8.71
  -2   5 -21   19.59    6.11
   2   5 -21   14.58    5.19
   2   5 -22  242.77   17.05
  -2   5 -22  260.15   17.88
  -2   5 -23    4.12    3.80
   2   5 -23    1.88    4.23
  -2   5 -24   54.48    9.23
   2   5 -24   67.38    9.79
  -2   5 -25   -8.31    4.96
   2   5 -25    9.23    5.66
   2   5 -26   89.09   11.40
  -2  -5 -26   90.27   10.51
  -2   5 -26  101.30   12.11
   2   5 -27   21.46    6.28
  -2  -5 -27   22.17    5.64
  -2  -5 -28   96.33   11.14
  -2   6   0  677.01   14.45
   2   6   0  706.34   19.60
   2  -6   0  672.88   14.21
  -2   6   1   31.23    3.09
   2   6  -1   31.63    4.51
   2  -6  -1   31.18    3.03
   2   6   1   31.01    4.50
   2  -6   1   30.47    3.31
  -2   6  -1   34.47    3.63
   2   6  -2   27.90    4.65
  -2   6  -2   26.49    3.48
   2   6   2   21.11    3.74
   2  -6   2   19.87    2.88
  -2   6   2   26.64    2.73
   2  -6  -2   21.98    2.43
   2  -6  -3   50.83    3.23
  -2   6  -3   43.15    4.52
   2   6  -3   45.87    5.47
   2  -6   3   49.08    4.58
   2   6   3   50.85    5.21
  -2   6   3   55.55    3.54
  -2   6   4  294.66   10.42
   2  -6  -4  273.81    6.95
   2  -6   4  279.10   11.10
   2   6   4  284.95   12.35
  -2   6   4  283.79    7.30
  -2   6  -4  282.25   11.30
   2   6  -4  276.82   12.79
   2  -6  -5  142.21    4.69
   2   6  -5  162.96   10.08
  -2   6   5  154.85    7.36
  -2   6  -5  140.80    8.28
   2   6  -6   11.41    3.33
  -2   6   6   12.30    2.15
  -2   6  -6   14.22    3.27
   2  -6  -6   12.77    1.42
  -2   6   7  210.23    8.17
  -2   6  -7  213.48   10.88
   2  -6  -7  195.03    4.89
   2   6   7  193.40    5.78
   2   6  -7  209.51   11.82
   2   6   8    8.41    1.12
   2   6  -8    9.04    3.64
  -2   6   8    9.13    1.79
  -2   6  -8    8.86    3.18
   2  -6  -8    6.34    0.95
   2  -6  -9   17.55    1.56
   2   6  -9   21.95    4.94
  -2   6  -9   13.82    3.69
   2   6 -10   62.87    7.70
   2  -6 -10   54.52    2.76
  -2   6 -10   55.20    6.79
   2   6 -11  630.68   22.47
   2  -6 -11  645.92   10.23
  -2   6 -11  673.85   21.99
   2   6 -12  207.65   13.15
   2  -6 -12  197.71    6.09
   2  -6 -12  205.23    6.27
  -2   6 -12  205.30   12.84
   2  -6 -13  151.46    5.70
   2  -6 -13  141.91    5.69
   2   6 -13  160.60   12.24
  -2   6 -13  141.98   10.85
   2   6 -14  375.79   18.29
   2  -6 -14  334.79    8.98
  -2   6 -14  353.19   17.36
   2   6 -15  174.22   13.09
   2  -6 -15  157.31    6.61
  -2   6 -15  169.76   12.89
   2  -6 -16  221.76    8.30
   2   6 -16  214.68   14.49
  -2   6 -16  230.05   15.00
  -2   6 -17    2.88    3.35
   2  -6 -17    0.81    1.28
   2   6 -17    2.43    3.90
   2   6 -18   92.01    9.99
  -2   6 -18  108.37   10.68
   2   6 -19   17.05    5.25
  -2   6 -19   12.51    4.36
   2   6 -20    0.27    3.64
  -2   6 -20   -4.69    4.39
  -2   6 -21    2.43    3.87
   2   6 -21   17.58    5.67
   2   6 -22  117.27   12.29
  -2   6 -22   97.21   11.47
   2   6 -23   32.80    7.56
  -2   6 -23   24.75    7.30
   2   6 -24  207.29   17.07
  -2   6 -24  185.19   16.43
  -2   6 -25   -2.45    4.29
   2   6 -25   12.52    5.74
  -2  -6 -26   52.64    8.11
   2   6 -26   49.74    9.05
   2  -7   0    6.31    2.08
  -2   7   0    9.61    2.49
   2   7   0    8.61    3.39
   2   7   1  923.62   23.63
  -2   7  -1  895.39   18.93
   2  -7  -1  913.72   17.19
   2   7  -1  960.12   24.20
   2  -7   1  899.37   18.68
  -2   7   1  925.06   17.66
   2   7   2  282.33   13.03
   2   7  -2  277.68   13.52
  -2   7  -2  289.38   11.37
  -2   7   2  279.69    9.35
   2  -7   2  294.47   11.04
   2  -7  -2  276.64    9.05
  -2   7  -3  785.82   19.39
   2  -7  -3  785.37   14.45
  -2   7   3  770.35   14.85
   2   7   3  812.22   21.73
   2   7  -3  791.79   22.50
   2  -7  -4  170.50    6.37
  -2   7   4  174.97    8.60
   2   7   4  167.30   10.02
  -2   7  -4  165.29    9.47
  -2   7   4  164.96    6.55
   2   7  -4  169.68   10.87
  -2   7  -5  234.44   11.39
  -2   7   5  255.28   10.05
   2  -7  -5  241.81    7.18
  -2   7   5  249.69    7.55
   2   7  -5  242.32   13.09
  -2   7  -6  314.27   13.60
  -2   7   6  339.15   11.22
   2  -7  -6  326.82    7.97
   2   7  -6  340.77   15.73
   2   7  -7  905.28   25.93
   2  -7  -7  914.90   12.69
  -2   7  -7  927.75   23.97
   2   7   7  909.98   13.59
  -2   7   7  926.22   17.90
   2   7   8  156.16    4.90
  -2   7   8  159.05    7.24
   2   7  -8  148.12   10.82
   2  -7  -8  157.92    5.13
  -2   7  -8  160.74   10.39
   2   7  -9  123.54    9.94
  -2   7   9  132.45    6.36
  -2   7  -9  144.38   10.13
   2  -7  -9  124.73    4.55
   2  -7 -10   79.87    3.67
   2   7 -10   85.57    9.14
  -2   7 -10  101.02    9.55
   2  -7 -11 2419.04   20.43
   2   7 -11 2445.55   45.60
  -2   7 -11 2472.57   43.62
   2   7 -12  522.17   21.79
  -2   7 -12  531.23   21.36
   2  -7 -13  188.27    6.19
   2   7 -13  198.35   13.81
  -2   7 -13  187.31   12.96
   2   7 -14  150.72   12.39
   2  -7 -14  139.24    5.61
  -2   7 -14  143.67   11.71
   2   7 -15   10.40    5.16
  -2   7 -15   10.85    4.80
   2   7 -16  195.41   14.44
  -2   7 -16  207.55   14.55
   2   7 -17  241.59   16.62
  -2   7 -17  248.59   16.38
   2   7 -18  106.75   11.50
  -2   7 -18   83.26   10.02
  -2   7 -19   90.15   10.32
   2   7 -19   74.66    9.68
  -2   7 -20    3.57    3.25
   2   7 -20    6.55    3.89
   2   7 -21  166.01   14.89
  -2   7 -21  157.88   14.74
  -2   7 -22    8.04    6.06
   2   7 -22   10.97    4.92
  -2   7 -23    8.04    4.58
   2   7 -23    2.77    4.25
  -2   7 -24   -0.78    4.16
   2   7 -24    4.32    4.55
   2   7 -25  135.42   14.65
   2  -8   0   24.77    3.34
  -2   8   0   26.05    3.75
   2   8   0   21.44    4.36
  -2   8  -1   14.76    2.93
   2   8   1   17.32    4.39
  -2   8   1   13.89    2.90
   2  -8  -1   17.08    2.76
   2   8  -1   15.33    3.84
   2  -8  -2   44.82    4.13
  -2   8  -2   39.78    4.69
  -2   8   2   43.36    4.28
   2   8  -2   40.93    5.78
   2   8   2   40.19    5.56
   2  -8  -3  213.35    8.38
   2   8   3  198.91   11.77
  -2   8  -3  207.20   10.79
  -2   8   3  211.63    8.70
   2   8  -3  198.82   12.06
  -2   8  -4  253.68   12.36
   2   8   4  249.91   13.09
   2  -8  -4  256.79    8.75
  -2   8   4  242.71    9.02
   2   8  -4  234.96   13.40
  -2   8   5  266.86    8.88
  -2   8  -5  257.22   12.68
   2  -8  -5  267.83    8.56
  -2   8   5  272.80   11.03
   2   8  -5  250.16   14.08
   2   8  -6   -0.96    3.52
   2  -8  -6    1.33    1.11
  -2   8  -6    1.12    2.50
  -2   8   6    1.54    1.42
  -2   8   7  102.11    6.33
  -2   8  -7   93.83    8.41
   2  -8  -7  101.31    4.91
   2   8  -7   99.41    9.13
  -2   8  -8    0.98    2.64
   2   8   8    5.69    1.28
   2   8  -8    1.28    3.36
  -2   8   8   -0.16    1.43
   2  -8  -8    0.66    0.77
   2   8   9  111.17    3.20
  -2   8  -9  120.87    9.99
   2   8  -9  117.69   10.38
  -2   8 -10   98.03    9.28
   2   8 -10   94.06    9.55
   2   8 -11    7.77    4.85
  -2   8 -11   -2.64    3.39
   2   8 -12   33.89    6.53
  -2   8 -12   28.18    5.69
  -2   8 -13   15.93    4.98
   2   8 -13    7.45    3.80
  -2   8 -14   41.74    7.02
   2   8 -14   41.78    7.17
   2   8 -15  401.30   21.04
  -2   8 -15  377.02   19.68
  -2   8 -16    3.88    4.30
   2   8 -16   12.12    5.95
   2   8 -17  120.74   12.24
  -2   8 -17  109.30   11.36
  -2   8 -18   54.56    9.06
   2   8 -18   64.45    9.81
   2   8 -19  134.71   13.39
  -2   8 -19  101.52   11.60
  -2   8 -20    3.87    4.44
   2   8 -20   -5.63    4.62
   2   8 -21  204.50   16.96
  -2   8 -21  197.40   16.63
   2   8 -22    2.77    3.87
  -2   8 -22    0.13    3.99
  -2   8 -23   44.20    8.75
   2   8 -23   39.96    8.24
  -2   9   0   30.94    4.24
   2   9   0   24.49    5.19
   2   9  -1  229.77   13.44
   2   9   1  236.10   13.42
  -2   9   1  215.54   10.31
  -2   9  -1  206.12   10.67
   2   9  -2   17.00    4.53
  -2   9   2   17.98    3.20
  -2   9  -2   19.01    4.02
   2   9   2   13.42    3.86
   2  -9  -2   15.71    2.80
  -2   9  -3  542.79   18.26
   2  -9  -3  535.32   14.39
  -2   9   3  561.49   15.38
   2   9  -3  544.72   21.23
   2   9   3  558.39   20.14
   2  -9  -4  141.46    7.20
  -2   9  -4  145.58    9.84
   2   9   4  138.20   10.46
  -2   9   4  154.24    7.86
   2   9  -4  136.96   10.96
  -2   9  -5   22.15    5.00
   2   9  -5   23.58    5.22
  -2   9   5   18.00    2.94
  -2   9  -6  343.97   15.82
   2   9  -6  316.40   16.90
  -2   9  -7 1512.82   34.21
   2   9  -7 1509.77   36.97
  -2   9  -8  624.85   22.52
   2   9  -8  625.20   24.38
   2   9   8  605.51   11.53
  -2   9  -9   32.71    6.51
   2   9  -9   30.89    6.36
  -2   9 -10  498.00   21.06
   2   9 -10  516.40   22.49
  -2   9 -11   98.48    9.79
   2   9 -11  104.88   10.66
   2   9 -12   -2.73    3.49
  -2   9 -12    2.20    3.29
  -2   9 -13  229.07   15.54
   2   9 -13  216.03   15.77
  -2   9 -14   40.77    7.32
   2   9 -14   32.91    6.86
   2   9 -15  148.97   13.66
  -2   9 -15  149.59   13.70
  -2   9 -16   71.07    9.71
   2   9 -16   89.46   11.12
   2   9 -17  398.57   22.65
  -2   9 -17  409.27   22.53
  -2   9 -18   11.79    5.87
   2   9 -18   14.44    6.03
  -2   9 -19   46.35    8.56
   2   9 -19   45.73    8.97
  -2   9 -20    1.12    4.42
   2   9 -20    4.39    4.22
  -2   9 -21   65.49    9.93
   2   9 -21   75.43   11.23
  -2   9 -22   73.78   11.01
   2  10   0   88.06    8.89
  -2  10   0   87.07    7.35
   2  10  -1   12.20    4.24
  -2  10  -1   12.89    3.69
  -2  10   1    8.31    2.79
   2  10   1    7.90    3.58
  -2  10   2   -0.21    1.75
  -2  10  -2    3.35    2.58
   2  10   2    8.07    4.33
   2  10  -2   -0.58    3.37
  -2  10  -3    4.97    2.97
   2  10   3    4.76    3.58
  -2  10   3    2.37    1.94
   2  10  -3   -0.09    2.76
   2  10  -4   88.99    9.49
  -2  10  -4   92.93    8.53
   2  10   4   99.61    9.20
  -2  10   4   83.04    6.29
   2  10  -5   31.78    6.66
  -2  10  -5   23.80    4.98
  -2  10   5   29.26    4.03
   2  10  -6  144.49   12.18
  -2  10  -6  157.81   11.33
   2  10  -7    0.00    3.50
  -2  10  -7    6.46    3.84
   2  10  -8    3.74    3.60
  -2  10  -8   15.67    4.46
   2  10  -9   -0.75    3.39
  -2  10  -9    4.25    4.13
   2  10 -10   -0.96    4.65
  -2  10 -10    0.65    3.37
  -2  10 -11  134.35   12.12
   2  10 -11  131.98   12.60
   2  10 -12   90.50   10.60
  -2  10 -12   92.02   10.39
   2  10 -13    9.85    4.68
  -2  10 -13   14.89    5.51
   2  10 -14   30.93    6.64
  -2  10 -14   34.57    7.38
  -2  10 -15   63.66    9.29
   2  10 -15   66.88   10.33
  -2  10 -16   28.66    6.48
   2  10 -16   26.90    6.15
   2  10 -17   -3.08    4.26
  -2  10 -17    0.95    3.85
  -2  10 -18   58.00    9.58
   2  10 -18   68.00   10.66
  -2  10 -19   59.66    9.62
   2  10 -19   76.57   11.01
   2  10 -20   12.78    6.12
  -2  10 -20    7.29    4.74
  -2  11   0  360.86   15.51
   2  11   0  363.24   18.97
  -2  11   1   36.80    5.28
  -2  11  -1   39.98    5.70
   2  11   1   36.00    6.30
   2  11  -1   29.33    5.97
  -2  11  -2    4.72    2.72
   2  11   2    5.72    4.25
  -2  11   2    2.93    2.30
   2  11  -2   -0.60    3.29
   2  11   3   14.39    4.85
  -2  11  -3   13.55    4.14
  -2  11   3   14.58    3.16
   2  11  -3   13.81    4.77
  -2  11   4  882.86   21.42
   2  11  -4  885.53   30.26
  -2  11  -4  861.79   26.51
   2  11   4  909.33   28.76
   2  11  -5   32.46    6.64
  -2  11  -5   36.49    6.04
  -2  11  -6  197.71   13.41
   2  11  -6  169.74   13.69
  -2  11  -7  284.80   16.24
   2  11  -7  283.56   17.80
   2  11  -8   28.28    5.91
  -2  11  -8   27.17    5.78
   2  11  -9   64.27    9.37
  -2  11  -9   68.18    8.46
  -2  11 -10  332.19   18.85
   2  11 -10  337.39   20.51
   2  11 -11    5.31    4.25
  -2  11 -11    8.03    4.40
   2  11 -12   91.47   11.39
  -2  11 -12   68.99    9.42
   2  11 -13   37.03    7.66
  -2  11 -13   44.05    7.96
  -2  11 -14  128.44   12.73
   2  11 -14  131.68   13.66
   2  11 -15   12.76    5.89
  -2  11 -15   25.60    6.27
   2  11 -16   70.98   10.42
  -2  11 -16   62.91    9.51
   2  11 -17    7.18    4.39
  -2  11 -17    8.17    5.18
   2  11 -18   83.24   12.06
  -2  11 -18   59.71   10.28
  -2  11 -19   -6.18    5.34
   2  12   0  104.18   10.75
  -2  12   0  111.57    9.40
  -2  12  -1   40.52    6.64
   2  12   1   33.82    6.26
   2  12  -1   31.49    6.39
  -2  12   1   31.50    5.12
   2  12   2   23.84    5.30
   2  12  -2   29.75    6.65
  -2  12  -2   32.13    5.73
  -2  12  -3   33.86    5.98
   2  12   3   30.09    6.27
   2  12  -3   24.51    6.56
  -2  12  -4   15.81    4.21
   2  12   4   22.71    5.63
   2  12  -4   12.29    4.33
   2  12  -5    8.38    4.40
  -2  12  -5    9.30    3.66
  -2  12  -6   -1.23    2.52
   2  12  -6    3.54    3.33
   2  12  -7    1.84    3.74
  -2  12  -7    7.10    3.37
   2  12  -8   16.70    4.76
  -2  12  -8   12.06    4.63
  -2  12  -9   45.46    7.44
   2  12  -9   35.15    7.44
   2  12 -10    3.85    4.52
  -2  12 -10    0.92    3.65
  -2  12 -11   47.52    8.03
   2  12 -11   52.93    9.29
  -2  12 -12   10.91    4.56
   2  12 -12   18.81    5.93
   2  12 -13   12.82    6.13
  -2  12 -13    8.45    4.35
   2  12 -14   14.48    5.84
  -2  12 -14   22.12    5.70
   2  12 -15   16.16    6.06
  -2  12 -15    6.98    3.60
  -2  12 -16    9.28    4.94
  -2  12 -17   -7.94    5.71
   2  13   0  327.76   19.75
   2  13   1   60.21    8.48
   2  13  -1   60.60    8.81
   2  13   2    6.37    3.60
   2  13  -2    6.82    3.41
  -2  13  -3   18.74    5.00
   2  13   3    5.53    3.94
   2  13  -3   13.58    5.30
  -2  13  -4   60.59    8.00
   2  13   4   60.78    8.64
   2  13  -4   51.36    8.37
  -2  13  -5    9.48    4.12
   2  13  -5    9.12    4.67
   2  13  -6   38.91    7.62
  -2  13  -6   41.77    6.99
   2  13  -7  187.64   15.90
  -2  13  -7  200.77   15.00
  -2  13  -8    3.94    3.74
   2  13  -8    6.67    4.23
  -2  13  -9   64.56    9.06
   2  13  -9   55.84    9.11
   2  13 -10   27.53    6.77
  -2  13 -10   23.36    6.06
  -2  13 -11   71.95   10.12
   2  13 -11   85.46   11.82
  -2  13 -12   24.32    6.45
   2  13 -12   27.01    7.34
   2  13 -13    7.89    4.93
  -2  13 -13   -0.21    3.17
  -2  13 -14    2.21    3.18
  -2  13 -15   28.47    7.48
   2  14   0   97.55   11.46
   2  14   1    8.79    4.96
   2  14  -1    3.50    4.38
   2  14   2    2.70    3.70
   2  14  -2    0.27    3.30
   2  14   3   61.84    8.86
   2  14  -3   57.83    9.04
   2  14  -4   17.12    5.54
   2  14  -5   -1.27    4.28
  -2  14  -6    7.89    3.97
   2  14  -6    2.94    4.62
  -2  14  -7   42.62    7.31
   2  14  -7   44.81    8.79
   2  14  -8   20.96    6.41
  -2  14  -8   24.30    5.94
   2  14  -9    2.56    4.41
  -2  14  -9    5.28    3.79
  -2  14 -10   -6.35    4.98
  -2  14 -11   -1.49    3.70
  -2  14 -12    1.34    3.20
   2  15   0   29.80    6.65
   2  15   1    7.79    4.18
   2  15  -1    5.70    4.14
   2  15   2   18.69    5.96
   2  15  -2   14.60    5.35
   2  15  -3   77.91   11.17
   2  15  -4   99.85   12.47
   2  15  -5    1.07    3.92
   3   0   0    6.29    2.45
  -3   0   0    5.63    2.01
  -3   0   1    2.74    1.86
   3   0  -1    2.09    1.96
   3   0   1   -1.31    1.50
  -3   0   1   -0.23    1.16
   3   0   2 1005.35   17.96
  -3   0   2 1007.45   15.61
  -3   0  -2 1027.04   18.01
   3   0  -2 1007.57   15.41
   3   0  -2 1005.50   18.25
   3   0   3    0.69    1.77
  -3   0  -3   -0.37    1.59
   3   0  -3   -1.34    1.81
   3   0  -3    0.82    1.28
  -3   0   3   -0.30    1.06
  -3   0  -4   26.57    3.13
   3   0  -4   28.16    3.45
   3   0  -4   28.99    2.83
  -3   0   4   29.48    2.72
  -3   0  -5    3.40    1.73
   3   0  -5    1.97    1.61
  -3   0   5    1.43    1.22
  -3   0  -6   63.21    4.82
   3   0  -6   61.01    4.08
  -3   0   6   70.67    4.33
  -3   0   7    0.44    1.05
   3   0  -7    3.50    1.50
  -3   0  -7    0.49    1.14
  -3   0   8   22.62    2.79
   3   0  -8   21.25    2.81
   3   0  -9    1.91    1.56
  -3   0   9    2.03    1.67
   3   0 -10  159.09    7.54
  -3   0  10  174.10    7.87
   3   0 -11    2.54    1.98
  -3   0  11    1.05    1.32
  -3   0  12   13.31    2.65
   3   0 -12   11.57    2.59
  -3   0  13    1.45    1.76
   3   0 -13   -2.06    2.39
   3   0 -14    2.14    2.31
   3   0 -15   -0.11    2.09
   3   0 -16   12.65    3.27
   3   0 -17    2.71    3.20
   3   0 -18  697.98   21.22
   3   0 -19    4.86    3.68
   3   0 -20    2.49    2.25
  -3   0 -20   -8.15    4.91
   3   0 -21   -2.54    3.59
  -3   0 -21    1.16    3.20
  -3   0 -22   13.66    4.66
   3   0 -22    5.87    2.78
   3   0 -23    4.97    2.88
  -3   0 -23   -0.83    3.23
   3   0 -24    8.09    3.40
  -3   0 -24    8.92    4.34
  -3   0 -25    1.31    3.56
   3   0 -25   -2.94    3.21
   3   0 -26   24.53    5.39
  -3   0 -26   34.11    6.88
  -3   0 -27   -8.11    4.87
   3   0 -27   -2.95    3.91
  -3   0 -28    3.33    4.02
  -3   1   0    1.76    1.80
   3  -1   0    6.90    2.28
   3   1   0    7.77    2.24
  -3  -1   0    0.73    1.22
   3   1   1  874.08   16.48
  -3   1   1  871.16   17.11
  -3  -1  -1  882.42   16.55
   3   1  -1  887.02   17.10
  -3  -1  -1  900.27   16.81
   3  -1   1  931.50   17.72
  -3  -1   1  876.65   16.15
  -3   1  -1  911.78   17.52
   3  -1  -1  888.29   17.25
  -3   1   1  884.70   13.48
   3   1  -1  891.02   16.24
   3   1  -2 1767.29   24.46
   3  -1  -2 1779.38   24.42
   3   1   2 1815.56   23.53
  -3  -1  -2 1740.98   23.02
  -3   1  -2 1755.33   24.56
  -3  -1  -2 1756.43   24.22
   3   1  -2 1769.49   22.63
  -3   1   2 1744.96   18.25
  -3  -1   2 1772.84   22.98
  -3   1   2 1805.72   24.43
  -3  -1  -3 3617.52   33.10
   3  -1  -3 3550.90   34.75
  -3  -1   3 3651.05   32.92
   3   1   3 3607.63   33.26
   3   1  -3 3648.88   32.82
  -3   1   3 3566.06   25.40
  -3   1  -3 3596.17   35.66
  -3   1   3 3643.77   35.05
   3   1  -4    8.18    2.18
  -3   1  -4   12.17    2.71
   3   1   4   11.90    2.43
  -3   1   4   11.37    1.69
  -3  -1  -4   10.13    2.11
   3  -1  -4   14.91    2.92
  -3  -1   4   13.54    2.29
   3  -1  -4   10.88    1.67
  -3   1  -5  583.17   15.05
  -3  -1  -5  556.56   13.14
  -3   1   5  569.28   10.05
  -3  -1   5  563.75   13.29
   3  -1  -5  580.17   14.36
   3  -1  -5  557.34   10.11
   3   1  -5  575.92   13.49
  -3  -1  -6 2189.98   26.34
   3  -1  -6 2167.65   28.20
  -3  -1   6 2180.69   26.67
  -3   1   6 2191.15   20.56
   3  -1  -6 2242.66   20.79
   3   1  -6 2204.77   26.83
  -3  -1  -7  341.56   10.56
   3  -1  -7  334.92   11.34
  -3  -1   7  357.76   11.09
  -3   1   7  317.58    8.15
   3  -1  -7  334.91    8.41
   3   1  -7  316.14   10.60
  -3  -1  -8  917.69   17.73
  -3  -1   8  925.54   18.30
  -3   1   8  891.05   14.47
   3  -1  -8  905.69   14.51
   3   1  -8  910.98   18.32
   3  -1  -9  386.68   10.01
  -3  -1  -9  394.78   11.88
   3   1  -9  381.87   12.33
  -3   1   9  357.30    9.59
  -3  -1   9  373.89   12.08
   3   1 -10 1033.59   20.79
  -3  -1  10 1042.41   20.86
  -3  -1 -10 1017.84   19.55
  -3   1  10  986.47   16.76
   3  -1 -10 1043.93   17.27
  -3  -1 -11    5.89    2.09
  -3  -1  11    5.71    2.03
   3   1 -11    5.06    2.35
   3  -1 -11    8.99    2.29
  -3   1  11    4.33    1.40
   3   1 -12 1826.52   29.75
  -3   1  12 1893.04   25.57
   3  -1 -12 1894.38   25.83
   3  -1 -13  507.83   14.01
  -3   1  13  528.13   14.18
   3   1 -13  516.53   16.38
   3   1 -14   31.61    4.89
   3  -1 -14   33.74    4.20
   3  -1 -15  128.64    8.01
   3   1 -15  117.21    8.91
   3   1 -16 1216.97   27.77
   3  -1 -16 1268.37   25.17
   3   1 -17  185.61   11.59
   3  -1 -17  192.83   10.57
   3  -1 -18   10.93    3.15
  -3   1 -18    5.74    3.22
   3   1 -18    8.37    3.54
   3   1 -19   43.11    6.67
  -3   1 -19   27.12    6.19
   3  -1 -19   35.88    5.24
  -3   1 -20  504.13   22.07
   3   1 -20  486.89   19.80
   3  -1 -20  522.72   18.67
   3   1 -21   36.42    6.58
  -3   1 -21   39.00    7.68
   3  -1 -21   43.75    6.25
  -3  -1 -22  198.19   14.64
  -3   1 -22  195.91   15.21
   3  -1 -22  209.82   12.72
   3   1 -22  197.46   13.54
   3   1 -23  391.39   19.16
   3  -1 -23  417.56   18.54
  -3  -1 -23  372.76   20.48
  -3   1 -23  402.74   21.48
   3   1 -24  102.63   10.59
   3  -1 -24  112.15   10.12
  -3  -1 -24   99.84   11.22
  -3   1 -24  109.88   11.91
   3  -1 -25    6.82    3.94
  -3   1 -25    4.73    4.78
  -3  -1 -25    9.72    4.71
   3   1 -25    0.50    3.07
  -3  -1 -26  209.80   16.60
   3   1 -26  205.66   15.16
  -3   1 -26  208.10   17.04
  -3   1 -27   76.89   10.52
  -3  -1 -27   81.50   11.11
   3   1 -27   72.49    9.57
  -3   1 -28   27.44    7.32
  -3  -1 -28   32.44    7.68
   3   1 -28   23.00    5.81
   3   1 -29   20.71    5.77
  -3   2   0    0.25    1.32
   3   2   0   -3.32    2.09
   3   2   0    1.81    2.04
  -3  -2   0    0.81    1.60
   3  -2  -1    0.92    1.77
  -3  -2   1    6.52    2.46
  -3   2  -1    2.68    2.00
  -3   2   1    1.23    1.47
   3   2   1   -0.01    1.79
   3   2  -1    0.22    2.27
  -3  -2  -1    4.62    2.04
  -3   2   2  268.47    9.67
   3   2   2  260.79    8.92
  -3   2  -2  272.28   10.32
   3  -2  -2  257.36    9.47
  -3   2   2  261.89    6.36
  -3  -2  -2  265.34   10.05
   3   2  -2  242.25    9.48
  -3  -2   2  260.47    9.67
   3   2   3  563.96   13.01
  -3   2  -3  574.17   15.07
  -3  -2  -3  582.18   15.20
  -3   2   3  551.97    8.48
   3   2  -3  582.86   14.53
   3  -2  -3  561.96   13.99
  -3  -2   3  576.15   14.34
  -3   2   3  588.87   14.29
   3   2   4  840.20   15.75
   3  -2  -4  865.54   17.53
  -3   2   4  838.83   17.12
  -3  -2  -4  861.59   15.80
  -3  -2   4  877.85   17.80
   3   2  -4  881.38   18.02
  -3   2   4  863.11    9.86
   3   2   5  372.15   10.55
  -3   2   5  370.80    6.37
  -3  -2   5  377.75   11.87
   3  -2  -5  367.12   11.60
   3   2  -5  368.08   11.97
  -3  -2  -5  375.81   10.44
   3   2  -6    3.48    2.28
   3   2   6    1.19    1.63
   3  -2  -6    5.30    2.00
  -3  -2  -6    2.48    1.43
  -3   2   6    1.90    0.65
   3  -2  -6    2.74    0.82
  -3  -2   6    0.30    1.40
   3  -2  -7  272.35   10.06
  -3   2   7  262.62    5.88
  -3  -2  -7  265.37    8.93
  -3  -2   7  268.44   10.54
   3  -2  -7  256.72    5.94
   3   2  -7  265.17   10.52
   3  -2  -8  411.34   12.66
  -3  -2  -8  398.41   11.00
  -3  -2   8  413.01   13.30
  -3   2   8  388.70    7.86
   3  -2  -8  412.47    8.12
   3   2  -8  423.00   13.52
  -3  -2  -9    6.90    1.71
  -3  -2   9    3.12    1.47
   3  -2  -9    2.99    1.83
   3   2  -9    9.30    2.77
  -3   2   9    4.57    1.15
   3  -2  -9    4.89    1.13
   3  -2 -10    1.59    1.32
  -3  -2 -10   -0.30    0.95
   3  -2 -10    0.99    1.70
   3   2 -10   -1.90    2.14
   3  -2 -11   32.84    4.20
   3   2 -11   33.63    4.41
   3  -2 -11   26.56    2.76
  -3  -2 -11   31.55    3.41
   3  -2 -12   91.92    6.84
   3  -2 -12  105.26    5.54
  -3  -2 -12  100.60    6.09
   3   2 -12  103.36    7.77
   3   2 -13   64.61    6.53
   3  -2 -13   55.67    4.36
  -3  -2 -13   58.22    4.83
  -3  -2 -14  115.44    6.79
   3   2 -14  111.58    8.87
  -3   2 -14  102.02    8.75
   3  -2 -14  118.95    6.63
  -3  -2 -15   92.20    6.26
   3   2 -15  101.38    8.58
   3  -2 -15  103.91    6.58
  -3   2 -15   92.04    8.84
  -3  -2 -16  179.06    8.92
   3  -2 -16  190.79    9.23
   3   2 -16  179.16   11.49
  -3   2 -16  176.65   12.21
  -3   2 -17   93.17    9.33
   3   2 -17   81.76    8.06
   3  -2 -17   91.44    6.85
  -3   2 -18  134.15   11.14
   3   2 -18  143.77   10.75
   3  -2 -18  149.96    8.95
   3  -2 -19    0.67    1.84
  -3   2 -19    1.60    3.07
   3   2 -19    4.16    3.10
   3  -2 -20   38.73    5.02
  -3   2 -20   28.40    5.88
   3   2 -20   39.06    6.21
   3   2 -21   76.79    8.58
   3  -2 -21   77.23    7.25
  -3   2 -21   85.85    9.77
   3  -2 -22   17.57    3.82
  -3   2 -22   16.19    5.14
   3   2 -22   14.63    4.39
  -3   2 -23   -0.90    3.27
   3  -2 -23    0.25    2.31
   3   2 -23    2.60    3.19
   3  -2 -24    2.07    2.09
  -3   2 -24   -1.08    3.78
  -3  -2 -24   -2.02    3.95
   3   2 -24    0.87    3.22
  -3   2 -25    5.97    4.07
  -3  -2 -25    4.39    3.57
   3   2 -25    5.26    3.56
  -3   2 -26   -0.66    4.18
  -3  -2 -26   -1.23    4.29
   3   2 -26    0.49    3.49
   3   2 -27   24.00    5.88
  -3  -2 -27   29.30    6.65
  -3   2 -27   37.70    7.82
   3   2 -28    0.97    4.36
  -3  -2 -28    7.27    4.27
   3   2 -29   -2.49    4.11
   3   2 -30    2.18    3.63
  -3   3   0    0.70    1.65
  -3  -3   0   -1.25    1.79
   3   3   0   -2.63    2.54
   3   3   1   93.53    6.52
   3   3  -1   98.29    6.70
  -3  -3  -1   98.32    6.44
  -3  -3   1   97.97    6.48
  -3   3   1   91.78    6.04
  -3   3  -1  101.50    6.50
   3   3   2  954.79   17.20
   3   3  -2  918.45   19.67
  -3  -3  -2  964.34   20.17
  -3   3   2  915.76   18.58
  -3  -3   2  958.40   19.93
   3  -3  -3  175.35    8.21
   3   3   3  169.27    7.26
  -3   3   3  160.15    3.86
  -3   3   3  167.04    7.97
  -3  -3  -3  186.75    9.00
   3   3  -3  170.72    8.73
  -3  -3   3  182.91    8.79
  -3   3   4  563.97   14.43
  -3  -3   4  554.97   15.41
  -3  -3  -4  578.41   16.10
   3   3  -4  568.22   15.66
   3   3   4  570.84   12.91
   3  -3  -4  558.69   14.39
  -3  -3   5 3524.94   39.39
   3   3   5 3469.29   31.29
   3  -3  -5 3602.73   35.89
  -3  -3  -5 3554.01   40.51
  -3   3   5 3571.27   35.86
   3   3  -5 3500.79   39.55
   3   3   6  936.18   16.14
  -3   3   6  950.71   18.58
   3  -3  -6  896.99   18.24
   3   3  -6  931.02   20.75
  -3  -3   6  956.16   20.88
   3  -3  -7   89.87    6.16
  -3  -3  -7   80.41    4.77
   3   3   7  102.69    5.41
   3   3  -7   81.34    6.65
  -3   3  -8  426.23   14.66
   3  -3  -8  416.13   12.65
  -3  -3  -8  429.18   10.72
   3   3  -8  417.53   14.50
  -3  -3  -9 1335.12   19.01
   3  -3  -9 1316.85   22.64
  -3   3  -9 1310.28   26.46
   3  -3  -9 1248.03   11.60
   3   3  -9 1367.57   26.61
   3   3 -10  228.91   11.33
   3  -3 -10  232.27    9.77
  -3   3 -10  213.01   11.25
  -3  -3 -10  219.47    7.85
   3  -3 -10  212.53    5.53
   3  -3 -11   43.92    2.87
  -3  -3 -11   41.92    3.61
  -3   3 -11   43.16    5.72
   3   3 -11   41.75    5.21
   3  -3 -11   37.52    4.21
  -3  -3 -12    2.37    1.11
   3  -3 -12    1.03    1.85
   3   3 -12    0.20    2.29
   3  -3 -12    3.35    1.06
  -3   3 -12    1.84    3.07
  -3   3 -13  549.12   19.73
   3  -3 -13  529.47   15.43
   3   3 -13  532.67   18.81
   3  -3 -13  551.34   11.94
  -3  -3 -13  553.48   13.13
   3  -3 -14    2.02    1.38
  -3  -3 -14   -0.82    1.25
  -3   3 -14    0.92    3.51
   3  -3 -14    4.05    2.37
   3   3 -14    0.08    2.43
  -3  -3 -15  415.66   11.87
  -3   3 -15  396.06   17.78
   3  -3 -15  403.32   11.79
   3   3 -15  409.47   17.32
   3  -3 -15  416.19   14.24
  -3  -3 -16    1.79    1.22
   3  -3 -16    3.04    2.15
   3  -3 -16    4.66    2.66
   3   3 -16    7.45    4.77
  -3   3 -16    5.59    4.46
   3  -3 -17  507.85   16.46
   3   3 -17  520.98   20.53
   3  -3 -17  495.35   14.40
  -3   3 -17  502.66   21.11
   3  -3 -18  177.48    9.14
   3   3 -18  154.94   11.78
   3  -3 -18  162.09    9.69
  -3   3 -18  187.10   13.55
   3  -3 -19  193.42   10.64
   3   3 -19  203.25   13.61
   3  -3 -19  211.34   10.37
  -3   3 -19  175.00   13.22
   3  -3 -20   14.35    3.38
   3  -3 -20   13.95    3.88
   3   3 -20   14.99    5.06
  -3   3 -20   13.16    5.37
   3  -3 -21   91.21    7.52
  -3   3 -21   79.83    9.74
   3  -3 -21   83.58    7.11
   3   3 -21   87.51    9.33
   3  -3 -22   40.86    5.55
  -3   3 -22   27.23    7.23
   3   3 -22   35.67    6.43
  -3   3 -23  163.50   14.17
   3   3 -23  163.03   13.53
   3   3 -24    7.50    4.56
  -3   3 -24    4.06    4.42
  -3   3 -25    6.22    4.37
   3   3 -25    8.77    4.07
  -3  -3 -25   10.15    4.47
  -3   3 -26   40.15    8.05
  -3  -3 -26   52.47    8.79
   3   3 -26   43.83    7.68
  -3   3 -27   88.56   11.90
   3   3 -27   86.77   11.06
  -3  -3 -27   80.17   10.36
  -3  -3 -28   30.96    7.09
   3   3 -28   35.80    7.82
   3   3 -29   22.65    6.59
  -3   4   0    1.00    1.14
  -3   4   0    0.50    1.30
   3   4   0   -1.83    2.86
  -3   4   1  381.50    8.10
  -3   4   1  385.36   12.82
   3   4  -1  398.14   13.79
   3   4   1  377.21   13.64
  -3   4  -1  380.49    9.73
  -3   4   2    0.74    0.74
  -3   4   2    1.52    1.56
   3   4   2    1.11    2.27
  -3   4  -2   -1.98    1.47
   3   4  -2    0.70    2.19
  -3   4   3   80.90    5.77
  -3   4   3   69.12    2.44
   3   4  -3   87.18    7.06
   3   4   3   77.25    5.10
  -3   4  -3   81.73    5.28
  -3   4   4 1239.10   21.93
   3   4   4 1204.37   19.17
  -3   4  -4 1193.17   20.82
   3   4  -4 1225.96   25.08
   3   4   5   32.11    3.27
  -3   4  -5   42.55    4.89
   3   4  -5   38.30    5.05
  -3   4   5   34.08    3.90
  -3   4  -6  225.13   10.01
   3  -4  -6  234.91    9.48
   3   4   6  229.65    7.97
  -3   4   6  234.30    9.47
   3   4  -6  230.49   11.30
   3   4   7  135.87    6.24
  -3   4   7  145.51    7.54
  -3   4  -7  132.53    8.23
   3  -4  -7  137.41    7.34
   3   4  -7  124.65    8.63
  -3   4  -8   80.57    6.94
   3  -4  -8   67.62    5.28
   3   4  -8   67.31    6.66
   3  -4  -9  868.83   18.34
  -3   4  -9  854.92   21.72
   3   4  -9  865.11   22.93
   3  -4 -10    6.85    3.39
   3   4 -10    4.54    3.00
  -3   4 -10   12.59    4.29
   3  -4 -11    1.26    1.43
   3  -4 -11    0.52    0.44
   3   4 -11   -2.88    2.81
  -3   4 -11   -1.34    2.98
   3  -4 -12   15.32    2.80
  -3   4 -12   17.95    4.29
   3  -4 -12   15.91    1.60
   3   4 -12   13.64    3.71
   3  -4 -13   11.70    2.51
  -3  -4 -13   13.56    1.96
   3   4 -13    7.68    3.80
  -3   4 -13   12.46    3.71
   3  -4 -13   10.12    1.48
  -3   4 -14    4.39    3.25
   3  -4 -14    2.10    1.52
   3   4 -14    6.56    3.47
  -3  -4 -14    1.57    1.04
   3  -4 -14    3.92    1.25
   3  -4 -15    2.54    1.33
   3  -4 -15    1.92    1.79
  -3  -4 -15    0.35    0.99
  -3   4 -15   -0.56    3.23
   3   4 -15    6.08    3.12
   3  -4 -16   46.43    4.79
  -3   4 -16   47.69    6.89
   3  -4 -16   39.96    3.66
   3   4 -16   37.96    6.23
   3  -4 -17   15.77    2.67
  -3   4 -17   15.10    4.48
   3  -4 -17   13.95    2.87
   3   4 -17   16.64    4.76
   3  -4 -18    0.19    1.72
  -3   4 -18    0.42    3.20
   3  -4 -18    0.78    1.24
   3   4 -18    0.97    2.82
  -3   4 -19    4.72    4.14
   3  -4 -19    9.52    2.58
   3  -4 -19    8.15    2.54
   3   4 -19   16.10    5.25
   3  -4 -20   77.04    6.61
   3   4 -20   76.38    9.01
  -3   4 -20   71.28    9.20
   3   4 -21   15.94    4.89
  -3   4 -21   18.09    5.15
  -3   4 -22   -3.02    3.74
   3   4 -22    4.93    3.93
  -3   4 -23   10.59    4.60
   3   4 -23    9.02    4.27
  -3   4 -24   -0.06    3.72
   3   4 -24    1.96    3.12
  -3   4 -25   -2.43    3.53
   3   4 -25   -4.33    4.32
  -3   4 -26   10.74    4.61
   3   4 -26   16.06    5.43
   3   4 -27    9.02    5.07
  -3  -4 -27    1.78    2.92
   3   4 -28    3.34    4.24
  -3  -4 -28    8.64    4.42
  -3   5   0   -0.46    1.11
   3   5   0    3.94    2.80
  -3   5  -1  402.76   10.76
   3   5  -1  385.50   14.65
  -3   5   1  408.03    9.16
   3   5   1  394.85   14.67
  -3   5   1  410.91   13.79
  -3   5   2  723.13   18.05
  -3   5  -2  687.40   14.96
   3   5   2  693.49   19.41
   3   5  -2  711.88   19.79
  -3   5   2  681.80   10.66
  -3   5   3   24.08    1.75
   3   5  -3   31.97    4.83
  -3   5  -3   24.54    3.47
   3   5   3   23.76    4.07
  -3   5   3   21.06    3.14
   3   5  -4   21.17    4.59
  -3   5   4   17.21    2.82
   3   5   4   19.43    2.74
  -3   5  -4   21.47    3.34
   3   5   5  388.95   10.90
  -3   5   5  421.49   13.23
  -3   5  -5  428.07   13.67
   3   5  -5  416.49   15.93
   3   5   6  321.07    9.60
  -3   5  -6  341.71   12.79
  -3   5   6  351.80   11.97
   3   5  -6  337.93   14.53
  -3   5  -7  162.20    9.63
  -3   5   7  159.99    8.03
   3   5   7  147.42    6.38
   3   5  -7  146.69    9.72
  -3   5   8  416.46   12.83
   3   5   8  407.10   10.10
  -3   5  -8  398.44   14.98
   3   5  -8  419.41   16.86
  -3   5  -9    4.22    3.05
   3   5  -9    3.47    2.73
  -3   5 -10   25.63    4.79
   3   5 -10   23.88    4.63
   3   5 -11  610.91   21.32
   3  -5 -11  628.07   15.91
  -3   5 -11  621.36   20.57
  -3   5 -12   36.28    6.11
   3  -5 -12   35.79    4.02
   3   5 -12   34.56    5.54
   3  -5 -13   60.68    5.07
   3  -5 -13   50.37    2.23
   3  -5 -13   48.59    2.28
   3   5 -13   49.59    6.78
  -3   5 -13   60.25    7.30
   3  -5 -14   25.31    3.38
   3  -5 -14   19.01    1.74
   3   5 -14   19.46    4.82
  -3   5 -14   18.71    5.00
   3  -5 -15   73.14    5.74
   3  -5 -15   71.20    3.80
  -3   5 -15   82.79    9.08
   3   5 -15   66.92    8.21
   3  -5 -16  417.65   13.36
   3   5 -16  429.56   19.72
  -3   5 -16  421.84   19.65
   3  -5 -16  423.08   10.05
   3   5 -17  203.47   13.92
  -3   5 -17  172.06   13.18
   3  -5 -17  177.81    8.96
   3  -5 -18   30.35    4.00
   3   5 -18   25.94    5.67
  -3   5 -18   31.14    6.22
  -3   5 -19   40.40    7.55
   3   5 -19   33.85    6.71
  -3   5 -20  111.88   11.79
   3   5 -20  104.76   11.04
  -3   5 -21  160.68   14.30
   3   5 -21  157.10   13.87
  -3   5 -22  116.91   12.49
   3   5 -22  120.27   12.27
  -3   5 -23   11.88    6.24
   3   5 -23    8.55    5.14
   3   5 -24  345.02   21.19
  -3   5 -24  334.42   21.60
  -3   5 -25    7.23    4.39
   3   5 -25    9.26    5.26
   3   5 -26   97.55   12.14
  -3  -5 -27   43.96    8.10
   3   5 -27   52.19    9.39
  -3  -5 -28   33.77    7.23
  -3   6   0    1.42    1.55
   3   6   0   -4.17    3.55
  -3   6  -1    7.35    1.87
   3   6   1    9.00    3.19
   3   6  -1   12.54    3.76
  -3   6   1   11.61    2.00
  -3   6   2  497.89   10.21
   3   6   2  496.62   17.45
   3   6  -2  515.83   18.01
  -3   6  -2  483.89   13.47
  -3   6   3   55.56    5.25
   3   6   3   53.61    5.89
   3   6  -3   52.75    6.27
  -3   6   3   52.94    3.01
  -3   6  -3   51.43    4.75
  -3   6   4   50.80    4.99
   3   6  -4   49.12    6.17
  -3   6   4   48.61    2.40
  -3   6  -4   52.73    5.06
   3   6  -5   59.67    6.69
   3   6   5   58.28    4.65
  -3   6  -5   59.12    5.54
  -3   6   5   50.51    4.79
   3   6   6  131.24    6.39
  -3   6   6  140.00    7.81
   3   6  -6  129.29    9.72
  -3   6  -6  134.04    8.55
  -3   6  -7    3.54    2.82
   3   6  -7    2.11    2.81
   3   6   7    0.55    1.31
  -3   6   7   -0.08    1.25
   3   6  -8   58.90    6.95
  -3   6   8   71.73    5.54
   3   6   8   74.43    4.34
  -3   6  -8   79.72    7.25
   3   6   9   22.52    2.38
   3   6  -9   27.59    4.96
  -3   6   9   20.25    3.04
  -3   6  -9   21.65    4.38
   3   6 -10    9.64    3.77
  -3   6 -10   10.02    3.17
  -3   6 -11   18.32    4.19
   3   6 -11   15.02    4.11
  -3   6 -12    2.95    3.61
   3   6 -12    4.94    4.15
  -3   6 -13   71.18    8.35
   3   6 -13   83.42    9.03
   3   6 -14  106.17   10.16
  -3   6 -14  108.02   10.26
  -3   6 -15    8.41    3.77
   3   6 -15   17.00    5.27
  -3   6 -16   -4.04    5.12
   3   6 -16    0.45    3.52
  -3   6 -17   15.53    4.72
   3   6 -17   17.07    5.18
  -3   6 -18   10.97    4.58
   3   6 -18   13.49    5.08
  -3   6 -19    9.93    4.28
   3   6 -19    8.35    4.60
  -3   6 -20   19.11    5.85
   3   6 -20   23.62    6.44
  -3   6 -21    3.56    3.96
   3   6 -21    4.75    4.19
  -3   6 -22   -3.09    4.30
   3   6 -22    9.26    4.67
  -3   6 -23   -3.54    3.57
   3   6 -23    4.91    4.00
  -3   6 -24    7.83    5.07
   3   6 -24   20.12    6.42
   3   6 -25   -0.77    3.49
   3   6 -26    4.12    4.61
  -3  -6 -28   -7.08    4.53
  -3   7   0    0.83    1.46
   3   7   0   -2.27    3.34
  -3   7   1  618.25   13.79
  -3   7  -1  642.24   15.86
   3   7   1  621.57   20.64
   3   7  -1  607.96   20.81
  -3   7  -2   40.01    4.51
   3   7   2   36.17    5.65
  -3   7   2   40.77    3.43
   3   7  -2   43.80    6.25
   3   7   3  811.54   23.76
  -3   7  -3  851.92   20.01
   3   7  -3  848.87   24.71
  -3   7   3  843.67   13.74
   3   7   4 1282.15   29.80
  -3   7   4 1214.94   14.56
  -3   7  -4 1240.76   24.87
   3   7  -4 1186.10   29.73
   3   7  -5 1110.59   28.95
  -3   7  -5 1066.21   24.10
   3   7   6  203.81    8.42
  -3   7   6  232.76   10.46
   3   7  -6  227.44   13.57
  -3   7  -6  229.28   11.84
   3   7  -7   -3.25    3.35
  -3   7   7   -0.35    1.52
   3   7   7    0.82    1.17
  -3   7  -7    1.50    2.50
   3   7   8  363.52    9.68
  -3   7   8  363.26   12.59
   3   7  -8  360.80   17.18
  -3   7  -8  378.84   15.98
   3   7   9  675.65   12.10
  -3   7   9  701.24   17.20
   3   7  -9  693.45   24.12
  -3   7  -9  720.28   22.61
   3   7 -10   80.71    8.89
  -3   7 -10   72.77    7.86
   3   7 -11   10.49    4.36
  -3   7 -11    6.03    3.11
  -3   7 -12  128.40   10.90
   3   7 -12  140.27   12.23
  -3   7 -13  959.98   29.39
   3   7 -13 1064.25   31.64
  -3   7 -14   38.18    6.89
   3   7 -14   28.59    6.71
   3   7 -15    6.63    3.83
  -3   7 -15    6.91    4.13
  -3   7 -16   37.41    6.81
   3   7 -16   27.80    6.39
   3   7 -17  435.11   22.18
  -3   7 -17  433.47   21.74
   3   7 -18   12.31    6.09
  -3   7 -18   -0.91    4.29
   3   7 -19  291.29   19.03
  -3   7 -19  301.23   19.28
   3   7 -20   63.61   10.09
  -3   7 -20   58.82    9.07
   3   7 -21  101.27   12.13
  -3   7 -21   79.41   10.61
   3   7 -22   60.82    9.95
  -3   7 -22   31.43    7.51
   3   7 -23  347.23   22.32
  -3   7 -23  364.06   23.07
   3   7 -24    5.99    5.33
  -3   8   0    0.43    1.48
   3   8   0   -4.69    3.61
  -3   8   1   14.30    2.54
  -3   8  -1   16.21    3.10
   3   8   1   11.73    3.72
   3   8  -1    9.31    3.81
  -3   8   2   -1.36    1.41
   3   8   2    1.52    2.95
  -3   8  -2   -3.00    2.57
   3   8  -2    3.21    3.21
  -3   8  -3  152.36    9.01
   3   8   3  162.08   11.30
   3   8  -3  169.63   12.01
  -3   8   3  166.61    6.97
   3   8  -4   69.82    8.11
  -3   8  -4   71.47    6.63
   3   8   4   71.84    8.05
  -3   8   4   75.17    4.28
   3   8  -5   55.70    7.74
  -3   8  -5   51.93    6.15
  -3   8   5   52.30    3.17
  -3   8  -6   83.03    7.61
   3   8  -6   66.63    7.89
  -3   8  -7   27.22    5.35
   3   8   7   23.13    2.99
   3   8  -7   15.89    4.32
   3   8   8  128.27    6.06
  -3   8   8  127.78    7.86
  -3   8  -8  112.65    9.48
   3   8  -8  110.66   10.16
  -3   8  -9  167.29   11.51
   3   8  -9  173.99   12.94
   3   8   9  178.13    6.28
   3   8 -10   32.96    6.11
  -3   8 -10   32.65    5.32
   3   8 -11   11.62    4.45
  -3   8 -11    7.59    3.13
   3   8 -12   21.17    5.14
  -3   8 -12   25.31    5.23
   3   8 -13    3.47    3.11
  -3   8 -13    7.73    3.39
   3   8 -14    1.57    3.07
  -3   8 -14    2.03    3.15
   3   8 -15   89.62   10.41
  -3   8 -15   77.82    9.39
   3   8 -16    6.43    3.81
  -3   8 -16   -0.68    3.77
  -3   8 -17   90.79   10.56
   3   8 -17   96.73   11.17
   3   8 -18   11.54    4.61
  -3   8 -18    6.33    3.66
  -3   8 -19    4.53    3.51
   3   8 -19   11.42    5.48
   3   8 -20   35.10    7.70
  -3   8 -20   48.88    8.61
   3   8 -21    2.62    4.98
  -3   8 -21    7.81    5.57
   3   8 -22   14.06    6.36
  -3   8 -22    3.85    3.69
   3   8 -23   -0.73    3.49
  -3   9   0    0.09    1.84
   3   9   0    2.96    3.54
  -3   9  -1  846.96   20.84
   3   9   1  894.11   27.51
   3   9  -1  910.51   27.83
  -3   9   1  890.64   19.62
  -3   9  -2   76.28    6.73
   3   9   2   70.76    8.00
  -3   9   2   74.53    5.54
   3   9  -2   70.63    8.36
  -3   9  -3    1.08    2.24
   3   9   3   -3.95    3.94
  -3   9   3   -0.59    1.29
   3   9  -3   -0.38    3.18
  -3   9  -4  219.77   12.07
  -3   9   4  237.18    8.40
   3   9  -4  222.70   14.57
   3   9   4  241.62   14.44
  -3   9  -5 1255.37   29.16
  -3   9   5 1248.68   17.56
   3   9  -5 1235.66   33.83
  -3   9  -6  218.85   12.78
   3   9  -6  186.79   13.74
   3   9   7  219.46    8.90
  -3   9  -7  220.68   13.13
   3   9  -7  222.94   15.00
  -3   9  -8  183.35   12.41
   3   9  -8  180.28   13.51
  -3   9  -9  535.09   21.56
   3   9  -9  565.47   24.12
  -3   9 -10  242.84   15.17
   3   9 -10  218.04   15.53
   3   9 -11  101.08   10.77
  -3   9 -11   86.17    9.35
  -3   9 -12    0.61    3.31
   3   9 -12    6.18    4.33
  -3   9 -13  186.22   13.90
   3   9 -13  183.23   14.81
   3   9 -14   90.57   10.91
  -3   9 -14   69.55    9.12
   3   9 -15   10.30    4.95
  -3   9 -15   10.93    5.22
  -3   9 -16  326.16   19.99
   3   9 -16  340.80   21.00
  -3   9 -17  277.03   18.89
   3   9 -17  320.11   20.58
  -3   9 -18    9.42    5.06
   3   9 -18    9.15    5.57
  -3   9 -19  183.53   16.07
   3   9 -19  200.54   17.21
  -3   9 -20  128.09   13.74
   3   9 -20  106.10   13.14
  -3   9 -21   86.59   11.89
   3   9 -21  114.47   13.70
  -3  10   0   -1.50    2.32
   3  10   0   -1.65    3.49
  -3  10   1    2.69    1.84
   3  10   1    1.31    3.34
  -3  10  -1    4.68    2.31
   3  10  -1    5.30    3.21
  -3  10  -2    3.06    2.46
   3  10   2    5.96    3.50
   3  10  -2    2.86    3.60
  -3  10   2    3.53    2.03
  -3  10  -3   22.69    4.59
   3  10   3   25.58    5.53
  -3  10   3   14.87    2.74
   3  10  -3   12.13    4.52
   3  10   4   12.24    4.08
  -3  10  -4   16.83    4.35
   3  10  -4   12.68    4.42
   3  10  -5    0.45    3.08
  -3  10  -5    1.82    2.27
   3  10  -6   19.40    5.96
  -3  10  -6   14.67    3.99
   3  10  -7   63.19    8.82
  -3  10  -7   78.89    8.46
  -3  10  -8  174.84   12.60
   3  10  -8  169.76   13.80
  -3  10  -9  105.39   10.06
   3  10  -9  101.34   11.34
  -3  10 -10   68.88    8.44
   3  10 -10   58.22    8.68
   3  10 -11    6.92    4.63
  -3  10 -11    6.18    4.10
  -3  10 -12    1.30    3.68
   3  10 -12   -6.10    4.86
  -3  10 -13   12.25    5.33
   3  10 -13   -4.03    4.83
  -3  10 -14   42.03    7.47
   3  10 -14   44.82    8.35
  -3  10 -15    0.42    4.00
   3  10 -15    3.87    4.52
  -3  10 -16   46.46    8.01
   3  10 -16   54.65    9.27
  -3  10 -17   41.40    7.52
   3  10 -17   47.01    8.79
  -3  10 -18  105.87   12.40
   3  10 -18   95.79   12.49
  -3  10 -19   15.66    6.46
   3  10 -19   12.40    5.14
  -3  10 -20   33.76    8.19
  -3  11   0   -3.36    2.53
   3  11   0   -3.15    3.67
  -3  11  -1   56.68    6.33
  -3  11   1   56.57    5.80
   3  11   1   55.73    7.88
   3  11  -1   49.48    7.53
   3  11   2  252.14   16.11
   3  11  -2  240.34   16.03
  -3  11  -2  244.51   13.01
  -3  11  -3   37.29    5.44
   3  11  -3   26.98    5.94
   3  11   4   65.79    8.73
  -3  11  -4   51.60    6.88
   3  11  -4   55.70    8.13
  -3  11  -5   54.52    7.20
   3  11  -5   53.33    8.07
  -3  11  -6  109.33    9.92
   3  11  -6  100.45   11.17
  -3  11  -7   18.34    4.81
   3  11  -7    3.49    3.31
   3  11  -8   -1.66    4.61
  -3  11  -8    5.71    3.35
   3  11  -9    2.29    3.67
  -3  11  -9    8.05    4.00
   3  11 -10   20.82    6.58
  -3  11 -10   22.61    5.63
   3  11 -11    2.51    3.87
  -3  11 -11    4.40    3.64
  -3  11 -12  398.88   21.66
   3  11 -12  363.24   22.46
  -3  11 -13   28.68    6.77
   3  11 -13   35.23    7.84
   3  11 -14   50.36    9.09
  -3  11 -14   38.97    7.79
   3  11 -15   25.59    6.86
  -3  11 -15   37.06    7.89
  -3  11 -16   27.10    6.67
   3  11 -16   15.98    5.81
  -3  11 -17    6.44    5.49
   3  11 -17   -3.13    5.94
  -3  11 -18    0.73    3.49
   3  12   0    1.84    2.97
   3  12   1   29.09    6.48
   3  12  -1   23.65    5.77
  -3  12  -2   11.65    3.67
   3  12   2   20.07    5.95
   3  12  -2   18.22    5.28
  -3  12  -3   -1.34    2.42
   3  12   3   -3.23    3.40
   3  12  -3    3.02    3.22
  -3  12  -4   -0.26    2.96
   3  12  -4    6.81    4.93
  -3  12  -5   -0.97    3.00
   3  12  -5    4.25    4.11
  -3  12  -6   17.36    4.46
   3  12  -6   18.99    5.37
  -3  12  -7    4.44    3.25
   3  12  -7   13.36    5.13
   3  12  -8    1.77    4.64
  -3  12  -8   -4.39    3.59
   3  12  -9   51.29    8.89
  -3  12  -9   34.14    6.99
   3  12 -10   16.45    5.68
  -3  12 -10   19.11    4.87
   3  12 -11   13.41    6.16
  -3  12 -11    1.60    3.57
   3  12 -12   49.60    9.21
  -3  12 -12   46.31    8.18
   3  12 -13   -0.05    3.85
  -3  12 -13   -2.36    3.22
   3  12 -14   35.07    8.22
  -3  12 -14   31.02    6.92
  -3  12 -15   16.89    6.42
  -3  12 -16    4.56    3.43
   3  13   0    4.51    4.14
   3  13   1  252.81   17.91
   3  13  -1  249.00   17.99
   3  13  -2  230.04   17.60
   3  13   2  246.82   17.65
   3  13   3    7.74    3.98
   3  13  -3   -0.69    3.69
   3  13  -4   82.84   11.02
   3  13  -5  126.33   13.41
  -3  13  -6    1.29    3.05
   3  13  -6    3.08    3.93
  -3  13  -7   21.55    5.28
   3  13  -7   11.71    5.49
   3  13  -8   58.09    9.68
  -3  13  -8   59.15    8.37
   3  13  -9  159.37   15.76
  -3  13  -9  139.33   12.77
  -3  13 -10    8.50    4.59
   3  13 -10    3.81    4.92
  -3  13 -11   74.47   10.18
   3  13 -11   66.82   10.58
  -3  13 -12   17.99    6.19
  -3  13 -13  209.11   17.05
  -3  13 -14   11.20    5.48
  -3  13 -15   10.89    5.43
   3  14   0   -1.35    3.69
   3  14   1   40.86    8.36
   3  14  -1   27.66    7.06
   3  14   2    2.43    3.73
   3  14  -2    2.91    3.13
   3  14  -3    2.46    3.78
   3  14  -4   -3.19    4.30
   3  14  -5    1.28    3.60
   3  14  -6   55.59    9.62
   3  14  -7   17.79    6.31
  -3  14 -11    5.71    4.25
  -3  14 -12    6.00    4.04
   3  15   0    3.89    3.71
   3  15   1   33.04    7.70
   3  15  -1   37.50    8.50
   3  15   2  298.17   20.83
   3  15  -2  286.14   20.98
  -4   0   0 7693.84   57.27
  -4   0   0 7670.95   51.90
   4   0   0 7584.25   57.60
   4   0   1    0.01    2.46
   4   0  -1    4.77    2.74
  -4   0  -1    6.86    2.63
  -4   0  -1    1.66    1.74
  -4   0   1    5.80    2.81
  -4   0   1    1.49    1.49
   4   0   2  579.64   15.84
   4   0  -2  577.38   16.30
  -4   0  -2  601.37   16.07
  -4   0   2  560.09   13.68
  -4   0   3    2.08    1.66
   4   0  -3   -0.07    1.45
   4   0   3   -1.25    2.06
  -4   0  -3    1.41    1.59
   4   0  -3    2.47    2.71
  -4   0  -4  551.95   15.57
   4   0  -4  545.48   16.09
   4   0  -4  563.02   13.43
  -4   0   4  554.82   13.40
  -4   0  -5    0.97    1.48
  -4   0   5    1.83    1.22
   4   0  -5   -1.51    2.88
   4   0  -5   -1.54    1.63
  -4   0  -6   85.65    6.36
   4   0  -6   88.54    6.82
  -4   0   6   82.72    5.28
   4   0  -6   84.30    5.44
  -4   0  -7    1.87    1.48
   4   0  -7    1.96    2.51
  -4   0   7    0.71    1.28
   4   0  -7    0.86    1.54
  -4   0   8  446.62   12.52
   4   0  -8  429.85   12.43
  -4   0   9    0.78    1.09
   4   0  -9   -1.20    1.81
   4   0 -10  286.29   10.68
  -4   0  10  281.62   10.66
   4   0 -11    1.32    1.91
  -4   0  11    2.88    1.59
  -4   0  12  238.54   10.25
   4   0 -12  217.63    9.94
   4   0 -13    3.48    2.40
   4   0 -14 2285.36   33.82
   4   0 -15    7.57    3.74
   4   0 -16  460.83   16.40
   4   0 -17    0.61    2.31
   4   0 -18   60.50    6.48
   4   0 -19   -0.52    2.29
   4   0 -20   66.78    7.32
   4   0 -21    0.61    2.76
   4   0 -22  127.83   10.34
  -4   0 -22  119.95   11.93
   4   0 -23    2.20    3.06
  -4   0 -23   -1.31    3.19
  -4   0 -24    6.37    5.06
   4   0 -24    2.20    2.56
  -4   0 -25   -4.31    4.45
   4   0 -25   -2.39    3.04
  -4   0 -26    7.41    5.31
  -4   0 -27    7.51    5.60
   4   1   0  213.02    9.77
   4  -1   0  205.18    9.86
  -4   1   0  225.29    9.99
  -4  -1   0  215.96    9.24
   4  -1  -1  477.77   14.74
  -4   1  -1  517.54   15.10
   4   1   1  465.10   14.15
  -4  -1  -1  474.01   14.15
   4  -1   1  462.24   14.58
  -4   1   1  459.55   11.72
  -4  -1  -1  492.64   14.07
  -4  -1   1  462.16   13.49
  -4   1   1  490.11   14.69
   4   1  -1  471.84   14.50
   4   1   2  317.31   11.67
  -4   1  -2  315.42   11.98
  -4   1   2  326.96   12.03
   4  -1   2  313.71   12.09
  -4  -1  -2  319.55   11.58
   4  -1  -2  331.76   12.36
   4   1  -2  309.68   10.84
  -4   1   2  314.98    9.51
  -4  -1   2  326.18   11.29
   4   1  -2  310.89   11.95
  -4  -1  -2  347.58   12.17
  -4   1  -3  134.13    7.99
   4  -1  -3  140.73    8.33
  -4   1   3  138.98    8.03
   4   1   3  127.34    7.51
  -4   1   3  143.29    6.30
   4   1  -3  135.51    8.29
  -4  -1   3  128.45    7.05
  -4  -1  -3  131.81    7.57
   4   1  -3  125.84    7.17
  -4  -1  -4 2500.77   32.07
  -4   1  -4 2534.46   34.33
   4  -1  -4 2514.29   34.01
   4   1  -4 2489.51   34.65
   4   1   4 2523.64   32.55
   4   1  -4 2476.23   30.72
  -4   1   4 2466.85   25.25
  -4  -1   4 2469.93   30.71
   4   1   5  264.70   10.68
   4  -1  -5  270.31   11.39
  -4  -1  -5  266.10   10.64
   4  -1  -5  262.96    8.23
   4   1  -5  267.99   10.23
  -4   1   5  256.34    8.15
  -4  -1   5  262.43   10.06
  -4  -1  -6   33.37    3.80
   4  -1  -6   42.64    5.05
  -4   1   6   34.54    2.96
   4  -1  -6   36.37    3.22
  -4  -1   6   36.48    3.89
   4   1  -6   34.42    3.96
  -4  -1   7  147.17    7.82
  -4   1   7  143.59    6.25
   4  -1  -7  151.85    8.82
   4  -1  -7  143.64    6.31
   4   1  -7  147.25    8.05
  -4  -1  -7  152.95    8.12
  -4  -1  -8  967.42   20.62
  -4  -1   8  977.47   20.28
  -4   1   8  929.43   16.04
   4  -1  -8  930.63   16.21
   4   1  -8  953.37   20.26
   4  -1  -8  940.40   21.92
   4   1  -9    9.98    2.59
  -4  -1   9   10.65    2.35
  -4  -1  -9   10.83    2.38
   4  -1  -9   11.81    3.25
   4  -1  -9   13.92    2.35
  -4   1   9    9.91    1.83
  -4   1  10  255.89    8.89
   4  -1 -10  267.00   12.07
  -4  -1  10  267.71   11.04
   4  -1 -10  258.02    9.15
   4   1 -10  251.34   10.84
   4  -1 -11  160.88    9.98
  -4   1  11  169.21    7.60
   4  -1 -11  170.00    7.78
   4   1 -11  173.00    9.20
  -4   1  12  201.74    8.58
   4  -1 -12  204.52    8.74
   4   1 -12  210.62   10.49
  -4   1  13  105.86    6.56
   4  -1 -13  110.15    6.79
   4   1 -13  108.92    7.89
  -4   1  14  578.44   15.81
   4   1 -14  611.36   18.86
   4  -1 -14  586.32   15.95
   4  -1 -15 1695.09   28.08
  -4   1  15 1714.92   28.10
   4   1 -15 1670.19   32.32
   4   1 -16  365.42   15.33
   4  -1 -16  340.52   13.22
   4   1 -17   50.86    6.29
   4  -1 -17   44.95    5.25
   4   1 -18  454.07   18.08
   4  -1 -18  464.18   16.40
   4   1 -19    3.86    2.83
   4  -1 -19    2.01    2.39
   4   1 -20   34.74    5.67
   4  -1 -20   28.35    4.47
  -4   1 -20   27.35    6.23
   4  -1 -21   95.23    8.31
   4   1 -21  100.77    9.63
  -4   1 -21  102.49   11.26
   4   1 -22  437.12   19.91
   4  -1 -22  413.12   17.48
  -4   1 -22  449.24   23.03
   4   1 -23    6.21    4.19
   4  -1 -23    4.65    3.69
  -4   1 -24   25.90    6.71
  -4  -1 -24   24.58    6.92
   4   1 -24   10.96    4.52
  -4   1 -25  143.98   14.45
  -4  -1 -25  157.54   14.60
   4   1 -25  143.27   12.43
  -4  -1 -26  286.17   19.89
   4   1 -26  319.39   18.62
  -4   1 -26  320.42   21.36
  -4  -1 -27    7.78    5.72
  -4   1 -27    6.15    4.52
   4   1 -27   16.35    5.28
   4  -2   0  491.16   15.33
  -4   2   0  502.60   15.31
   4   2   0  488.92   14.66
  -4  -2   0  497.99   14.99
  -4  -2   1   10.73    2.52
   4  -2  -1   10.40    3.00
   4   2   1    8.27    2.52
  -4   2  -1   11.94    2.58
  -4   2   1   10.97    2.60
   4   2  -1    6.29    2.80
   4   2  -1   11.08    2.68
  -4  -2  -1   16.90    3.12
   4   2   2  529.15   14.95
  -4   2   2  537.90   15.74
   4   2  -2  527.66   15.78
   4  -2  -2  513.44   15.55
  -4   2   2  511.19   11.19
   4   2  -2  525.48   15.27
  -4  -2  -2  532.73   15.70
  -4  -2   2  516.18   15.08
   4   2   3 1095.49   21.15
   4  -2  -3 1124.15   22.76
  -4   2   3 1105.42   22.62
   4   2  -3 1116.02   22.42
  -4   2   3 1078.92   15.25
  -4  -2   3 1142.30   22.40
   4   2   4 2002.43   28.41
  -4   2   4 2053.72   30.73
  -4  -2  -4 2047.67   28.65
   4  -2  -4 1990.53   30.64
   4   2  -4 2046.25   30.09
  -4   2   4 2013.84   20.02
  -4  -2   4 2027.12   29.78
   4   2   5  113.80    6.95
  -4  -2  -5   98.30    6.42
   4  -2  -5  105.47    7.46
  -4  -2   5  103.61    6.91
   4   2  -5  101.43    7.01
  -4   2   5  102.38    4.40
   4   2   6  221.03    9.72
  -4  -2  -6  211.60    9.28
   4  -2  -6  214.55   10.25
  -4  -2   6  218.62   10.01
  -4   2   6  228.07    6.51
   4   2  -6  215.88   10.17
   4  -2  -7  851.82   20.24
   4  -2  -7  830.93   12.65
  -4   2   7  853.58   12.64
  -4  -2  -7  855.96   18.58
   4   2  -7  835.70   20.13
  -4  -2  -8  154.01    8.00
   4  -2  -8  152.90    8.94
   4  -2  -8  158.10    5.68
   4   2  -8  158.83    9.00
  -4   2   8  156.48    5.54
   4   2  -9   20.10    3.79
  -4  -2  -9   14.15    2.61
   4  -2  -9   16.46    3.44
  -4   2   9   20.13    2.19
   4  -2  -9   17.92    2.17
  -4   2  10   12.61    1.84
   4  -2 -10   11.13    3.16
   4  -2 -10   11.98    1.95
   4   2 -10    6.84    2.49
  -4  -2 -10   13.14    2.63
  -4  -2 -11   62.22    5.24
   4  -2 -11   69.29    6.29
   4   2 -11   55.00    5.87
   4  -2 -11   64.05    4.34
  -4   2  11   65.33    4.18
  -4  -2 -12  150.22    8.25
   4  -2 -12  144.43    9.16
  -4   2  12  139.96    6.33
   4  -2 -12  140.67    6.44
   4   2 -12  133.80    9.01
   4  -2 -13  121.56    8.55
   4  -2 -13  108.09    5.98
   4   2 -13  113.75    8.44
   4   2 -14   72.61    7.17
   4  -2 -14   82.36    7.40
   4  -2 -14   85.24    5.59
   4  -2 -15  150.76    7.73
   4   2 -15  149.78   10.08
   4  -2 -15  152.68    9.96
   4  -2 -16   78.31    5.88
   4   2 -16   82.01    8.06
   4  -2 -16   86.84    7.75
   4   2 -17   99.30    9.21
   4  -2 -17   80.36    6.15
   4  -2 -17   88.83    8.10
  -4   2 -17   82.12    9.28
   4   2 -18  233.03   13.61
   4  -2 -18  236.94   10.92
   4  -2 -18  212.44   12.39
  -4   2 -18  219.77   14.80
  -4   2 -19    2.12    3.52
   4   2 -19    2.03    2.94
   4  -2 -19    4.39    2.38
   4  -2 -19    3.41    2.96
   4  -2 -20   -0.88    2.25
   4   2 -20    5.63    3.25
   4  -2 -20    7.14    2.77
  -4   2 -20    1.10    3.36
  -4   2 -21   36.63    7.07
   4  -2 -21   38.49    6.03
   4   2 -21   28.08    5.75
   4  -2 -21   34.89    4.87
  -4   2 -22   13.98    5.34
   4  -2 -22   10.54    3.69
   4   2 -22   13.71    4.30
   4  -2 -23   20.31    4.61
   4   2 -23   11.19    3.44
  -4   2 -23   24.23    6.36
   4  -2 -24    1.85    2.50
  -4   2 -24    4.93    4.22
   4   2 -24   -0.40    2.79
  -4   2 -25    4.96    3.54
   4   2 -25   -0.87    2.66
  -4  -2 -26   48.04    8.46
  -4   2 -26   53.81    9.14
   4   2 -26   51.64    8.11
  -4  -2 -27    8.57    5.58
   4   2 -27    9.09    4.67
   4   2 -28   -1.73    3.27
   4   3   0 1538.79   26.30
   4   3   0 1596.30   28.46
   4   3   1   18.39    3.30
   4   3  -1   18.26    3.58
   4   3   2   47.86    4.59
   4   3  -2   65.41    6.15
   4  -3  -3  569.46   16.75
   4   3   3  580.01   15.60
  -4   3   3  537.02    9.68
   4   3  -3  555.30   16.88
  -4   3   4    8.15    1.21
   4   3   4    7.03    2.36
   4  -3  -4   15.41    3.28
   4   3  -4   11.36    3.24
   4  -3  -5  338.68   12.94
   4   3   5  332.52   11.73
   4   3  -5  352.08   13.65
  -4   3   5  338.07    6.29
   4   3   6 1164.41   21.30
   4  -3  -6 1099.27   23.16
  -4   3   6 1082.94   10.39
   4   3  -6 1129.35   24.60
   4   3   7  113.80    6.70
   4  -3  -7  119.75    7.76
  -4   3   7  102.82    3.05
   4   3  -7  110.13    8.14
  -4   3   8  127.08    3.50
   4  -3  -8  138.57    8.45
  -4  -3  -8  142.50    7.45
   4   3  -8  135.52    8.93
   4  -3  -9  164.33    9.19
  -4  -3  -9  164.45    7.99
   4   3  -9  151.27    9.66
   4  -3 -10   58.77    5.60
  -4  -3 -10   50.53    4.49
   4   3 -10   54.03    6.07
   4  -3 -10   48.14    2.65
   4  -3 -11  290.08   12.34
   4  -3 -11  290.81    7.05
  -4  -3 -11  296.72   10.89
   4   3 -11  263.34   13.17
  -4  -3 -12   46.52    4.48
   4  -3 -12   41.20    5.06
   4   3 -12   40.76    5.59
   4  -3 -12   46.38    3.10
   4  -3 -13   14.89    2.05
  -4  -3 -13   18.38    3.09
   4  -3 -13   14.85    3.46
   4   3 -13   11.82    3.34
  -4   3 -13    9.45    3.83
  -4   3 -14    5.78    3.71
   4  -3 -14    7.11    1.72
  -4  -3 -14    3.65    1.49
   4  -3 -14    5.45    2.41
   4   3 -14    3.14    2.87
  -4  -3 -15  128.84    7.51
   4   3 -15  129.54   10.00
   4  -3 -15  134.63    9.11
  -4   3 -15  133.30   10.82
   4  -3 -15  123.25    6.19
   4  -3 -16   -0.74    2.00
   4  -3 -16    0.12    1.32
   4   3 -16   -0.71    2.62
  -4   3 -16    4.63    3.53
   4  -3 -17  198.95   11.41
   4  -3 -17  199.80    8.82
  -4   3 -17  193.90   13.91
   4   3 -17  207.00   13.10
   4  -3 -18  117.91    9.27
  -4   3 -18  116.20   10.93
   4  -3 -18  118.95    7.11
   4   3 -18  109.93   10.13
  -4   3 -19  140.98   12.48
   4  -3 -19  142.20    8.06
   4  -3 -19  139.75    9.94
   4   3 -19  150.09   12.01
   4   3 -20   88.63   10.03
   4  -3 -20   90.97    8.49
  -4   3 -20  115.06   11.83
   4  -3 -21  680.88   22.47
  -4   3 -21  730.14   28.99
   4   3 -21  681.97   26.13
   4  -3 -22   11.70    4.91
  -4   3 -22   13.84    5.78
   4   3 -22    7.99    5.87
  -4   3 -23   62.64    9.44
   4   3 -23   63.06    8.68
  -4   3 -24   -1.49    3.93
   4   3 -24   -1.64    2.79
  -4   3 -25   91.18   11.59
   4   3 -25   84.74   10.34
  -4   3 -26   34.88    7.94
   4   3 -26   35.05    7.27
   4   3 -27    4.10    3.53
  -4  -3 -27   13.35    5.49
   4   3 -28   24.00    6.43
   4   3 -29  151.07   14.72
   4   4   0   25.43    4.15
   4   4   1   13.39    3.50
   4   4  -1   16.51    3.46
   4   4   1   15.66    3.12
  -4   4   1   16.34    1.97
   4   4   2  154.62    8.29
  -4   4   2  146.93    5.19
   4   4  -2  155.76    9.72
  -4   4   3   54.40    2.79
   4   4   3   60.70    5.22
  -4   4   3   59.14    2.97
   4   4  -3   61.51    6.16
   4   4   4  192.95    9.07
   4   4  -4  188.68   10.73
  -4   4   4  171.78    4.06
  -4   4   4  176.56    3.97
  -4   4  -5  956.66   20.76
   4   4   5  984.90   19.87
   4   4  -5 1028.14   24.68
   4   4   6  181.60    8.44
  -4   4  -6  178.71    9.71
   4  -4  -6  188.97    9.77
   4   4  -6  189.78   11.00
   4  -4  -7  244.13   11.31
   4   4   7  260.07   10.03
  -4   4  -7  248.24   11.56
   4   4  -7  230.16   12.26
   4   4   8    1.25    1.57
   4  -4  -8    2.50    1.99
  -4   4  -8    4.96    2.73
   4   4  -8    3.00    3.09
   4   4  -9   -2.46    2.35
   4  -4  -9   -1.75    2.50
  -4   4  -9   -0.91    2.69
  -4   4 -10   51.03    5.97
   4   4 -10   61.77    6.92
   4  -4 -10   53.04    5.41
   4   4 -11   22.82    4.94
   4  -4 -11   20.96    3.48
  -4   4 -11   25.63    4.96
   4  -4 -12    2.00    1.90
   4   4 -12    3.51    2.80
  -4   4 -12   -0.56    3.49
  -4   4 -13   10.16    3.95
   4  -4 -13   16.83    3.34
   4   4 -13   12.23    3.99
  -4  -4 -13   11.83    2.37
   4  -4 -13    9.52    1.08
   4  -4 -14  137.59    8.88
  -4   4 -14  138.92   10.94
  -4  -4 -14  136.46    7.05
   4  -4 -14  127.75    4.50
   4   4 -14  123.81   10.29
   4  -4 -15   46.92    5.38
   4   4 -15   47.04    6.82
   4  -4 -15   42.37    2.97
  -4   4 -15   53.14    7.16
   4  -4 -16   59.91    6.16
   4   4 -16   56.92    7.74
  -4   4 -16   54.04    7.56
   4  -4 -16   52.81    3.61
   4  -4 -17   32.77    4.71
   4   4 -17   30.37    5.89
  -4   4 -17   34.01    6.56
   4  -4 -18   54.06    6.09
   4   4 -18   49.88    7.55
  -4   4 -18   52.46    8.12
   4   4 -19  234.01   15.32
   4  -4 -19  218.71   12.04
  -4   4 -19  235.11   15.91
   4  -4 -20    1.48    1.95
  -4   4 -20    7.00    4.63
   4   4 -20    2.38    3.52
  -4   4 -21   13.89    4.74
   4   4 -21   19.46    5.62
  -4   4 -22   44.25    8.38
   4   4 -22   52.09    8.15
  -4   4 -23   -0.82    3.77
   4   4 -23   -0.34    3.50
   4   4 -24    2.02    3.67
  -4   4 -24    2.53    3.80
   4   4 -25   -2.85    4.12
  -4   4 -25   -1.32    4.52
   4   4 -26    5.25    4.45
   4   4 -27   13.38    5.72
   4   4 -28   16.70    5.59
  -4   5   0  393.47   10.40
   4   5   0  408.37   16.11
  -4   5  -1    1.67    1.38
  -4   5   1    1.84    1.09
   4   5   1    4.23    3.63
   4   5  -1   -1.43    2.51
  -4   5   2  197.56    6.06
   4   5   2  189.42   11.22
   4   5  -2  198.22   11.63
  -4   5  -2  197.88    8.49
   4   5   3  290.93   11.61
   4   5  -3  293.93   14.00
  -4   5   3  294.51    6.22
  -4   5  -3  291.64   10.81
   4   5   4  111.37    7.12
   4   5  -4  115.96    8.85
  -4   5  -4  116.03    7.23
   4   5   5  124.85    7.35
   4   5  -5  137.24    9.77
  -4   5  -5  127.05    7.92
   4   5  -6   19.18    4.79
   4   5   6   16.55    2.85
  -4   5  -6   23.09    3.80
   4   5  -7    5.96    3.21
   4   5   7    1.57    1.54
  -4   5  -7    4.70    2.86
   4   5   8  288.23   10.39
   4   5  -8  293.09   14.74
  -4   5  -8  275.86   13.05
   4   5   9  217.43    9.06
   4   5  -9  217.68   12.83
  -4   5  -9  215.00   11.97
   4  -5 -10  461.39   15.74
  -4   5 -10  458.39   17.66
   4   5 -10  471.43   18.93
   4  -5 -11   57.45    5.88
   4   5 -11   53.28    7.14
  -4   5 -11   46.04    6.60
   4  -5 -12  132.16    8.54
  -4   5 -12  144.66   10.85
   4   5 -12  147.24   11.47
   4  -5 -13   34.98    4.73
   4   5 -13   31.38    6.29
  -4   5 -13   33.74    6.08
   4  -5 -14  732.60   20.11
  -4   5 -14  728.65   25.03
   4   5 -14  712.53   25.03
   4  -5 -15    6.92    3.01
  -4   5 -15   15.97    5.15
   4   5 -15    8.23    4.75
   4  -5 -16  224.92   11.23
  -4   5 -16  229.29   15.03
   4   5 -16  216.08   14.57
   4  -5 -17   84.98    7.06
  -4   5 -17   95.28   10.24
   4   5 -17   92.55    9.90
   4  -5 -18  140.38    9.09
   4   5 -18  132.28   11.95
  -4   5 -18  143.65   12.82
  -4   5 -19    1.58    3.28
   4   5 -19    3.66    4.52
   4   5 -20  117.70   11.93
  -4   5 -20  129.07   12.64
   4   5 -21   18.28    6.38
  -4   5 -21   14.77    5.84
   4   5 -22  254.32   17.93
  -4   5 -22  288.75   19.35
   4   5 -23   41.54    8.29
  -4   5 -23   42.43    8.44
   4   5 -24   86.18   11.15
  -4   5 -24   89.47   11.76
   4   5 -25   38.20    7.62
   4   5 -26    3.10    3.09
   4   6   0  272.68   14.12
  -4   6   0  273.77    9.26
  -4   6   1   42.43    3.43
   4   6   1   44.63    6.13
   4   6  -1   39.06    5.57
  -4   6  -1   44.23    4.16
  -4   6  -2  169.81    8.27
  -4   6   2  172.49    6.07
   4   6   2  173.68   11.21
   4   6  -2  174.68   11.46
  -4   6  -3    0.61    1.69
  -4   6   3    4.74    1.09
   4   6  -3    7.26    3.22
   4   6   4  275.77   11.29
  -4   6  -4  270.39   11.55
   4   6  -4  306.12   15.15
   4   6  -5   43.06    6.12
   4   6   5   34.45    4.11
  -4   6  -5   35.70    4.87
   4   6   6  245.34   10.09
  -4   6  -6  248.01   11.93
   4   6  -6  238.56   13.67
   4   6  -7   49.70    6.38
   4   6   7   40.82    4.12
  -4   6  -7   49.41    5.99
   4   6   8   -1.11    1.59
  -4   6  -8   -0.83    2.46
   4   6  -8    3.15    3.00
   4   6   9   13.23    2.37
   4   6  -9    5.35    3.23
  -4   6  -9   14.10    4.10
   4   6 -10   39.93    6.43
  -4   6 -10   39.27    5.88
   4   6 -11   33.34    6.02
  -4   6 -11   32.78    5.92
  -4   6 -12  260.95   14.77
   4   6 -12  271.53   15.67
   4   6 -13    2.38    3.37
  -4   6 -13    7.70    4.23
   4   6 -14   26.10    5.97
  -4   6 -14   28.77    6.64
  -4   6 -15  462.04   21.21
   4   6 -15  469.01   22.11
   4   6 -16    4.44    4.14
  -4   6 -16   10.25    5.05
   4   6 -17   39.47    6.78
  -4   6 -17   55.64    8.16
   4   6 -18   63.75    9.18
  -4   6 -18   72.73    9.52
   4   6 -19   25.52    6.34
  -4   6 -19   23.84    6.19
   4   6 -20   12.66    5.59
  -4   6 -20    8.88    4.38
   4   6 -21  102.11   11.59
  -4   6 -21  116.98   12.58
  -4   6 -22   30.31    7.42
   4   6 -22   36.94    7.68
  -4   6 -23   21.37    6.50
   4   6 -23   12.44    5.08
  -4   6 -24   10.28    5.66
   4   6 -24    5.10    3.98
   4   6 -25    3.11    4.92
  -4   7   0   94.62    5.84
   4   7   0   77.73    8.04
  -4   7   1  173.90    7.33
   4   7   1  169.24   11.80
   4   7  -1  162.51   11.51
  -4   7  -1  193.69    8.79
  -4   7   2   40.69    3.34
  -4   7  -2   40.77    4.69
   4   7   2   46.78    6.86
   4   7  -2   43.09    6.89
   4   7   3 2048.76   39.98
   4   7  -3 2047.37   40.32
  -4   7  -3 1966.55   30.61
  -4   7   3 1976.30   19.08
   4   7   4  644.04   17.72
  -4   7   4  571.58    7.70
   4   7  -4  629.23   22.74
  -4   7  -4  621.88   18.10
   4   7   5   68.14    5.79
  -4   7  -5   59.49    6.08
   4   7  -5   67.66    7.92
  -4   7  -6  132.18    9.09
   4   7   6  135.00    7.67
   4   7  -6  130.50   10.50
  -4   7  -7  386.90   15.83
   4   7   7  339.46   11.73
   4   7  -7  365.89   18.07
   4   7  -8    0.73    3.57
  -4   7  -8    2.19    2.94
   4   7   8   -0.41    1.65
   4   7  -9    7.06    3.34
   4   7   9   12.07    2.26
  -4   7  -9   15.26    4.42
   4   7 -10   23.45    6.17
  -4   7 -10   25.93    5.52
  -4   7 -11  631.32   22.89
   4   7 -11  601.02   24.08
   4   7 -12   11.88    5.43
  -4   7 -12   17.07    5.38
  -4   7 -13  342.55   17.88
   4   7 -13  319.55   18.48
  -4   7 -14   82.02    9.79
   4   7 -14   61.52    9.21
  -4   7 -15  432.01   21.17
   4   7 -15  446.28   22.11
  -4   7 -16   42.63    7.28
   4   7 -16   42.19    7.39
  -4   7 -17   22.02    6.02
   4   7 -17   30.07    6.69
  -4   7 -18   67.10    9.36
   4   7 -18   49.94    8.46
  -4   7 -19   67.34    9.38
   4   7 -19   76.68   10.46
  -4   7 -20    5.79    3.17
   4   7 -20   25.42    6.51
  -4   7 -21  308.17   20.70
   4   7 -21  277.77   19.65
  -4   7 -22   46.44    8.58
   4   7 -22   42.14    8.56
  -4   7 -23   33.82    7.95
   4   7 -23   34.05    7.48
  -4   8   0  246.81   10.00
   4   8   0  243.64   14.69
  -4   8   1    9.76    2.43
   4   8   1   13.31    3.95
   4   8  -1    9.99    4.10
  -4   8  -1    5.74    2.25
  -4   8  -2    1.67    1.94
  -4   8   2    0.60    1.49
   4   8   2    3.70    3.45
   4   8  -2   -3.27    4.33
   4   8   3  310.84   16.68
  -4   8  -3  330.61   13.43
   4   8  -3  325.43   17.31
  -4   8   3  320.24    8.55
  -4   8   4   92.42    3.74
   4   8  -4  107.99   10.36
  -4   8  -4   94.05    7.46
   4   8   5    2.96    2.27
  -4   8  -5   -0.07    2.25
   4   8  -5    3.79    3.80
   4   8  -6   72.25    8.88
   4   8   6   76.77    6.20
  -4   8  -6   69.25    6.98
   4   8   7  184.48    8.94
   4   8  -7  169.95   13.00
  -4   8  -7  191.06   11.57
   4   8   8  155.74    7.84
   4   8  -8  159.34   12.61
  -4   8  -8  153.29   10.73
   4   8  -9   18.86    5.15
   4   8   9   29.50    3.31
  -4   8  -9   24.53    4.54
   4   8 -10   20.00    5.66
  -4   8 -10    8.23    2.87
   4   8 -11   28.48    6.57
  -4   8 -11   32.54    5.71
   4   8 -12   19.94    4.81
  -4   8 -12    8.18    3.59
   4   8 -13   18.23    5.11
  -4   8 -13   22.14    5.73
   4   8 -14   22.45    6.51
  -4   8 -14   13.95    4.30
   4   8 -15   31.99    7.09
  -4   8 -15   38.01    6.88
   4   8 -16   18.18    5.84
  -4   8 -16   14.51    5.20
   4   8 -17  114.67   12.68
  -4   8 -17  130.97   12.90
   4   8 -18   23.91    7.72
  -4   8 -18   25.35    6.32
   4   8 -19   38.51    8.22
  -4   8 -19   19.79    5.88
   4   8 -20   -1.27    4.25
  -4   8 -20    3.51    3.47
  -4   8 -21  176.37   15.99
   4   8 -21  149.11   14.86
   4   8 -22    8.27    5.77
  -4   8 -22    3.23    3.81
  -4   9   0  790.29   18.66
   4   9   0  755.15   26.79
  -4   9  -1  362.59   13.52
   4   9   1  368.49   18.95
   4   9  -1  356.79   18.78
  -4   9   1  372.16   12.10
  -4   9  -2  305.90   12.94
   4   9   2  305.58   17.17
   4   9  -2  309.01   17.43
  -4   9   2  317.44   10.25
  -4   9  -3  597.06   18.66
   4   9   3  623.75   24.30
   4   9  -3  601.58   24.24
  -4   9  -4  586.57   19.23
   4   9  -4  551.57   23.39
  -4   9  -5   -2.07    2.57
   4   9  -5   -1.41    3.86
   4   9   6  208.93   10.32
  -4   9  -6  211.91   12.50
   4   9  -6  206.43   15.07
   4   9   7  913.14   20.03
  -4   9  -7  899.71   26.38
   4   9  -7  924.71   31.22
   4   9  -8   70.79    9.67
  -4   9  -8   71.66    7.86
   4   9  -9   92.68   10.36
  -4   9  -9   92.59    9.05
   4   9 -10   10.36    4.83
  -4   9 -10    1.95    2.62
  -4   9 -11  104.91   10.42
   4   9 -11  106.91   11.51
  -4   9 -12   24.87    6.16
   4   9 -12   24.97    6.47
   4   9 -13   23.86    6.90
  -4   9 -13   36.62    6.80
   4   9 -14   78.01   10.09
  -4   9 -14   81.53   10.00
  -4   9 -15  193.99   14.87
   4   9 -15  186.14   15.88
   4   9 -16    8.83    5.67
  -4   9 -16    9.81    4.88
  -4   9 -17  169.91   14.76
   4   9 -17  160.57   15.18
   4   9 -18   60.59   10.20
  -4   9 -18   65.57   10.03
   4   9 -19    0.06    4.40
  -4   9 -19   -5.22    4.53
   4   9 -20    7.12    4.11
  -4   9 -20    7.70    4.79
  -4  10   0   46.62    4.89
   4  10   0   42.76    7.46
  -4  10  -1    8.39    2.65
   4  10   1    8.39    3.92
   4  10  -1   11.85    5.16
  -4  10  -2   13.02    3.26
   4  10   2   21.60    5.88
   4  10  -2   14.05    4.44
   4  10   3    3.90    3.95
  -4  10  -3    1.78    2.24
   4  10  -3   -1.62    3.36
  -4  10  -4   11.43    3.66
   4  10  -4    0.71    3.50
  -4  10  -5   -4.72    3.74
   4  10  -5   -6.13    4.71
  -4  10  -6  201.62   12.67
   4  10  -6  197.54   15.34
  -4  10  -7    9.12    4.33
   4  10  -7    6.67    4.49
  -4  10  -8  224.82   14.25
   4  10  -8  213.96   16.25
  -4  10  -9   -4.10    3.08
   4  10  -9   -6.90    5.70
  -4  10 -10    0.38    3.42
   4  10 -10   -1.78    4.00
  -4  10 -11  139.71   12.10
   4  10 -11  144.31   13.99
   4  10 -12   10.88    4.99
  -4  10 -12   15.18    4.25
   4  10 -13    5.95    3.93
  -4  10 -13    0.73    3.19
   4  10 -14    5.56    5.26
  -4  10 -14    8.80    4.38
   4  10 -15    5.17    4.99
  -4  10 -15    5.63    4.70
   4  10 -16   25.38    6.64
  -4  10 -16   32.38    7.21
   4  10 -17    5.72    5.22
  -4  10 -17    8.62    4.71
   4  10 -18   54.67    9.53
  -4  10 -18   58.04    9.34
  -4  10 -19   12.91    4.90
   4  11   0  405.77   21.55
   4  11   1   48.86    7.78
   4  11  -1   45.88    7.85
   4  11   2   13.06    4.36
   4  11  -2    7.84    3.86
  -4  11  -3   56.84    6.85
   4  11   3   63.78    9.71
   4  11  -3   66.72    9.91
  -4  11  -4  551.92   20.48
   4  11  -4  522.05   25.28
   4  11  -5  128.70   13.08
  -4  11  -5  128.73   10.48
  -4  11  -6  439.31   19.44
   4  11  -6  447.38   23.60
  -4  11  -7   12.74    4.16
   4  11  -7   11.75    5.94
   4  11  -8    8.08    3.61
  -4  11  -8   12.51    3.90
   4  11  -9   32.91    7.68
  -4  11  -9   37.25    6.69
  -4  11 -10  327.22   18.66
   4  11 -10  337.13   21.67
  -4  11 -11    7.09    4.87
   4  11 -11    7.17    5.96
   4  11 -12   38.49    8.21
  -4  11 -12   44.97    7.89
  -4  11 -13   31.15    6.86
   4  11 -13   18.24    6.24
  -4  11 -14  163.20   14.74
   4  11 -14  146.81   14.90
  -4  11 -15    4.26    3.77
   4  11 -15   -3.53    4.62
  -4  11 -16    6.79    4.76
  -4  11 -17    5.72    4.76
  -4  11 -18   27.96    7.82
   4  12   0   52.07    8.77
   4  12   1    1.07    3.10
   4  12  -1   -2.55    4.10
   4  12   2   21.37    6.27
   4  12  -2   10.23    4.82
   4  12  -3   83.93   10.90
   4  12  -4    1.37    4.13
   4  12  -5    0.18    3.76
  -4  12  -6   41.64    6.48
   4  12  -6   43.42    8.41
  -4  12  -7   22.44    5.53
   4  12  -7   23.33    6.66
  -4  12  -8   29.61    5.75
   4  12  -8   28.24    7.12
  -4  12  -9   37.11    6.64
   4  12  -9   40.67    8.31
   4  12 -10   26.70    7.27
  -4  12 -10   11.40    4.60
   4  12 -11   41.54    8.80
  -4  12 -11   33.88    6.78
   4  12 -12   29.11    8.45
  -4  12 -12    9.02    4.23
  -4  12 -13   12.59    5.38
  -4  12 -14   34.93    7.15
  -4  12 -15    7.59    4.84
  -4  12 -16   -1.37    3.55
   4  13   0   43.12    7.96
   4  13   1   75.05   10.47
   4  13  -1   79.80   11.02
   4  13   2    1.14    3.59
   4  13  -2    8.07    4.53
   4  13  -3  253.98   19.00
   4  13  -4    2.45    4.64
   4  13  -5    7.61    4.30
   4  13  -6    7.80    4.61
   4  13  -7  116.15   13.61
   4  13  -8  114.25   13.67
   4  13  -9   14.44    6.34
  -4  13 -10    4.68    3.93
  -4  13 -11   -3.95    3.47
  -4  13 -12  116.93   12.56
  -4  13 -13   28.51    6.92
  -4  13 -14   -5.47    4.75
   4  14   0  116.97   13.49
   4  14   1   22.77    6.63
   4  14  -1   28.65    7.48
   4  14  -2    6.34    5.02
   4  14  -3    8.86    4.18
   4  14  -4    6.10    4.79
   5   0   0    0.73    2.41
  -5   0   0   -1.60    1.60
   5   0   1    6.06    3.09
   5   0  -1    5.63    2.65
  -5   0  -1    3.10    1.71
  -5   0   1   -1.69    1.69
   5   0   2 1206.22   25.92
  -5   0   2 1237.49   22.71
   5   0  -2 1249.78   26.73
  -5   0   3    9.70    2.81
   5   0   3   16.18    4.86
   5   0  -3   12.62    4.78
   5   0   4 1827.20   31.99
   5   0  -4 1795.54   32.55
  -5   0   4 1849.79   27.27
  -5   0   5   -0.44    1.76
   5   0  -5    3.11    2.07
   5   0  -6 1484.10   24.35
   5   0  -6 1467.88   30.01
  -5   0   6 1456.27   24.17
   5   0  -7    0.25    2.80
  -5   0   7    0.35    1.36
   5   0  -7    3.57    2.11
   5   0  -8  345.46   15.02
  -5   0   8  352.54   12.11
   5   0  -8  351.37   12.29
  -5   0   9    1.89    1.70
   5   0  -9    1.47    2.83
   5   0  -9    1.15    1.81
   5   0 -10  171.78   10.96
  -5   0  10  156.45    8.37
   5   0 -10  159.50    8.55
   5   0 -11   -2.58    2.01
   5   0 -11    1.76    3.01
  -5   0  11   -1.35    1.56
   5   0 -12  657.94   18.02
   5   0 -13   -0.17    2.39
   5   0 -14  167.24    9.65
   5   0 -15   11.03    3.62
   5   0 -16  839.47   22.51
   5   0 -17    1.58    2.04
   5   0 -18   61.20    6.51
   5   0 -19    4.67    3.07
   5   0 -20  153.50   10.78
   5   0 -21    8.63    3.25
   5   0 -22   50.02    6.64
  -5   0 -24  500.33   26.16
  -5   0 -25    6.59    6.63
  -5   0 -26  184.93   16.67
   5  -1   0    1.83    2.57
   5   1   0   -1.06    2.10
  -5   1   0   -0.60    1.22
   5  -1   1  137.57    9.15
   5   1   1  129.77    8.63
   5   1  -1  143.09    9.03
   5  -1  -1  132.67    8.80
  -5   1   1  131.75    7.20
  -5  -1   2    1.58    1.34
   5  -1   2    1.24    2.65
   5   1   2    0.31    2.83
   5  -1  -2   -0.02    2.46
   5   1  -2    3.21    2.64
  -5   1   2    2.06    1.37
  -5  -1   3   31.06    3.99
   5   1   3   30.77    4.54
   5  -1  -3   23.72    4.18
   5   1  -3   33.06    5.11
   5   1  -3   31.58    4.09
  -5   1   3   28.92    3.35
  -5  -1   4   12.44    2.77
  -5   1   4    9.11    1.92
   5   1   4    6.49    2.75
   5  -1  -4    9.56    2.93
   5   1  -4    5.48    2.59
   5   1  -4   10.89    2.68
   5   1   5   14.49    3.34
  -5   1   5   18.50    2.71
   5  -1  -5   20.52    4.35
  -5  -1   5   25.29    3.71
   5   1  -5   19.97    4.38
   5   1  -5   18.85    3.46
  -5  -1   6  477.66   14.89
   5  -1  -6  476.29   17.21
   5   1  -6  484.46   17.44
   5   1  -6  477.92   15.17
  -5   1   6  462.57   12.42
  -5   1   7   44.53    4.00
   5  -1  -7   49.16    5.88
   5   1  -7   49.55    6.20
   5  -1  -7   39.78    3.90
   5   1  -7   50.17    5.13
   5  -1  -8   28.00    4.65
   5  -1  -8   28.51    3.29
   5   1  -8   28.40    4.20
  -5   1   8   29.69    3.37
   5  -1  -9   77.18    7.53
  -5   1   9   76.65    5.28
   5  -1  -9   72.22    5.27
   5   1  -9   76.05    6.42
   5  -1 -10  716.70   21.73
   5  -1 -10  707.00   16.33
   5   1 -10  711.00   19.46
  -5   1  10  696.48   15.99
   5   1 -11   35.51    4.89
   5  -1 -11   36.68    5.50
   5  -1 -11   38.96    4.23
  -5   1  11   40.80    4.22
   5  -1 -12  308.61   14.90
  -5   1  12  294.80   10.92
   5  -1 -12  293.92   11.07
   5   1 -12  289.59   12.90
   5  -1 -13  449.88   18.13
  -5   1  13  444.35   13.72
   5  -1 -13  453.43   14.16
   5   1 -13  443.32   16.34
   5  -1 -14  206.38   12.67
  -5   1  14  180.45    9.13
   5  -1 -14  193.48    9.55
   5   1 -14  206.92   11.44
   5  -1 -15    9.61    2.87
   5   1 -15    8.49    3.26
   5  -1 -15   17.40    5.04
   5  -1 -16  286.49   15.35
   5  -1 -16  286.61   12.24
   5   1 -16  282.70   14.05
   5  -1 -17   33.78    4.56
   5   1 -17   30.76    5.05
   5  -1 -17   42.44    6.72
   5  -1 -18   26.31    4.16
   5   1 -18   33.75    5.26
   5  -1 -18   28.08    5.61
   5  -1 -19   25.12    4.26
   5   1 -19   21.36    4.66
   5  -1 -19   25.58    5.23
   5  -1 -20  145.53   11.86
   5  -1 -20  154.37   10.16
   5   1 -20  176.78   12.39
   5   1 -21   65.92    7.89
   5  -1 -21   69.29    8.74
   5   1 -22    1.76    2.99
  -5   1 -22    5.03    4.47
   5  -1 -22    5.46    4.14
   5  -1 -23  150.23   12.62
  -5   1 -23  165.89   15.37
   5   1 -23  144.00   11.93
   5  -1 -24  206.64   14.80
  -5   1 -24  252.47   19.06
   5   1 -24  223.28   14.84
   5  -1 -25   17.99    5.90
  -5   1 -25   14.38    6.16
  -5  -1 -26   46.73    9.36
   5  -2   0   -4.26    2.91
   5   2   0   -0.55    2.12
   5  -2  -1   96.74    7.83
   5   2   1  108.52    7.92
   5   2  -1  104.84    8.07
  -5   2   1  103.93    6.12
   5   2   2  118.81    8.17
   5   2  -2  123.54    8.83
   5  -2  -2  117.16    8.64
   5   2  -2  110.67    7.72
  -5   2   2  113.82    6.19
   5   2  -3 1174.00   26.37
   5   2   3 1166.45   25.09
   5   2  -3 1157.57   24.62
  -5   2   3 1212.76   19.36
   5  -2  -3 1220.64   26.67
   5   2   4  787.51   20.50
   5  -2  -4  833.08   22.11
   5   2  -4  821.72   22.53
   5   2  -4  799.50   20.65
  -5   2   4  819.50   15.55
   5   2   5  826.17   21.02
   5  -2  -5  829.97   22.21
   5   2  -5  860.61   23.35
   5   2  -5  826.67   21.30
  -5   2   5  817.06   14.98
   5   2   6  779.30   20.30
   5  -2  -6  755.86   21.59
   5   2  -6  754.79   20.29
  -5   2   6  742.93   14.09
   5  -2  -7   93.20    7.62
  -5   2   7   87.62    4.84
  -5   2   8    2.42    1.18
   5  -2  -8    3.73    3.03
   5   2  -8    3.51    2.49
   5  -2  -9  594.18   19.39
   5  -2  -9  556.98   12.44
   5   2  -9  560.09   18.20
  -5   2   9  563.62   12.34
   5  -2 -10  210.44   12.07
  -5   2  10  208.83    7.67
   5  -2 -10  201.87    7.62
   5   2 -10  176.09   10.55
   5   2 -11   55.41    6.19
   5  -2 -11   63.28    6.78
  -5   2  11   61.55    4.40
   5  -2 -11   62.42    4.38
   5  -2 -12  180.84   11.64
   5  -2 -12  189.69    7.97
  -5   2  12  184.88    7.65
   5   2 -12  185.11   11.08
   5  -2 -13  769.76   16.42
   5   2 -13  803.23   23.17
   5  -2 -13  805.90   23.61
  -5   2  13  748.73   15.76
   5  -2 -14   72.46    7.51
   5   2 -14   56.07    6.58
   5  -2 -14   60.52    4.85
   5  -2 -15  245.91   13.64
   5  -2 -15  241.87    9.89
   5   2 -15  225.18   12.96
   5  -2 -16  152.65   11.33
   5  -2 -16  180.47    8.82
   5   2 -16  166.00   11.48
   5  -2 -17  244.49   13.96
   5  -2 -17  254.42   10.88
   5   2 -17  256.93   14.39
   5  -2 -18  220.45   13.44
   5  -2 -18  216.70   10.31
   5   2 -18  217.15   13.53
   5   2 -19   35.62    6.05
   5  -2 -19   33.36    5.82
  -5   2 -19   40.42    7.49
   5  -2 -20  232.71   14.51
  -5   2 -20  255.32   17.38
   5   2 -20  242.10   14.91
  -5   2 -21   41.11    7.65
   5   2 -21   38.83    6.47
   5  -2 -21   39.93    6.47
   5  -2 -22   28.85    6.02
   5   2 -22   24.73    5.27
  -5   2 -22   30.11    7.14
  -5   2 -23   37.97    7.79
   5  -2 -23   37.79    6.45
   5   2 -23   27.61    5.98
  -5   2 -24   23.21    7.07
   5  -2 -24   25.42    5.48
   5   2 -24   38.45    6.96
   5   2 -25    1.32    2.91
  -5   2 -25    3.38    5.24
   5   2 -26   25.70    6.31
   5   3   0    1.60    2.56
   5   3   1    9.37    3.13
   5   3  -1   12.92    3.58
   5   3  -1    8.25    2.74
   5  -3  -2  297.18   13.53
   5   3   2  303.01   12.87
   5   3  -2  315.61   13.91
  -5   3   2  300.24    9.48
   5   3  -2  298.48   13.49
   5  -3  -3    5.79    3.01
   5   3   3    4.58    2.32
   5   3  -3   10.04    3.67
   5   3  -3    3.44    2.25
  -5   3   3    6.64    1.51
   5  -3  -4    6.08    2.83
   5   3   4    6.67    2.66
   5   3  -4   -1.19    2.60
  -5   3   4    0.89    0.92
   5  -3  -5  401.66   15.90
   5   3   5  400.08   14.48
   5   3  -5  409.83   15.86
  -5   3   5  408.87    9.25
   5   3   6   59.05    5.78
   5  -3  -6   67.54    6.76
  -5   3   6   52.94    3.19
   5   3  -6   68.57    6.82
   5   3   7  281.47   12.17
   5  -3  -7  281.66   13.30
  -5   3   7  285.28    7.05
   5   3  -7  288.07   13.61
   5   3  -8   20.51    4.00
   5  -3  -8   16.11    3.46
  -5   3   8   19.00    1.82
   5   3  -9   35.76    5.17
  -5   3   9   30.59    2.31
   5  -3  -9   31.41    4.85
   5   3 -10   14.36    3.79
   5  -3 -10   12.77    3.00
  -5   3  10   13.72    1.72
   5   3 -11    0.73    2.56
   5  -3 -11    0.48    2.44
  -5   3  11    4.51    1.18
   5   3 -12   -0.12    2.76
   5  -3 -12    1.64    2.71
   5  -3 -12    2.54    1.14
   5  -3 -13  228.93   12.55
   5  -3 -13  235.61    7.48
   5   3 -13  217.18   12.91
   5   3 -14   -1.11    2.89
   5  -3 -14    2.53    2.74
   5  -3 -14   -0.90    1.11
   5  -3 -15  239.77   13.41
   5  -3 -15  254.99    8.59
   5   3 -15  249.61   14.29
   5   3 -16   44.45    6.69
   5  -3 -16   48.49    6.26
  -5   3 -16   49.34    7.47
   5   3 -17    5.16    3.12
   5  -3 -17    2.78    2.91
  -5   3 -17    7.22    3.77
  -5   3 -18    1.14    3.53
   5   3 -18    3.62    2.99
   5  -3 -18    4.01    2.75
   5  -3 -19   44.38    6.45
   5   3 -19   41.21    6.69
  -5   3 -19   38.39    7.58
   5  -3 -20   22.78    4.74
   5   3 -20   13.44    4.03
  -5   3 -21   15.29    5.34
   5  -3 -21   13.70    3.96
   5   3 -21   12.52    4.67
   5  -3 -22   11.82    4.10
   5   3 -22   15.58    4.49
  -5   3 -22   12.81    5.54
   5   3 -23   49.12    8.13
  -5   3 -23   53.25    9.40
  -5   3 -24  146.75   14.96
   5   3 -24  131.51   12.58
  -5   3 -25   13.43    4.30
   5   3 -25   18.22    5.57
   5   3 -26   -0.04    3.18
   5   3 -27   74.18   10.05
   5   4   0    1.93    2.51
   5   4   0    0.86    2.65
   5   4   1  341.55   13.98
   5   4  -1  346.21   14.53
   5   4  -1  323.45   14.70
   5   4   2    3.76    2.68
   5   4  -2    4.29    2.50
   5   4   3    6.22    2.70
  -5   4   3    4.89    1.22
   5   4  -3    7.27    2.82
   5   4   4   93.14    7.21
   5   4  -4   89.35    8.17
  -5   4   4   94.94    4.21
   5  -4  -5   38.34    5.51
   5   4   5   42.91    5.24
  -5   4   5   35.22    2.27
   5   4  -5   52.66    6.83
   5  -4  -6  540.80   18.56
   5   4   6  522.05   16.35
  -5   4   6  486.84    6.39
   5   4  -6  537.02   19.40
   5   4   7  547.41   16.59
   5  -4  -7  545.03   18.68
   5   4  -7  573.46   20.13
   5   4   8  152.00    8.73
   5  -4  -8  140.99    9.78
   5   4  -8  151.91   10.75
   5   4  -9   63.23    6.99
   5  -4  -9   62.71    6.59
   5   4 -10   -4.05    3.20
   5  -4 -10   -0.11    2.46
   5  -4 -11    0.20    2.30
   5   4 -11    2.42    3.37
  -5   4 -11    4.88    2.76
   5  -4 -12  210.64   12.00
  -5   4 -12  229.12   13.64
   5   4 -12  209.91   13.22
   5   4 -13   20.67    5.14
   5  -4 -13   21.86    4.49
  -5   4 -13   16.82    4.46
   5  -4 -14   72.64    7.18
  -5   4 -14   69.43    7.97
   5   4 -14   78.64    8.48
   5   4 -15   18.70    5.16
   5  -4 -15   25.19    4.51
  -5   4 -15   21.40    5.71
   5  -4 -16  304.89   14.91
  -5   4 -16  307.40   17.58
   5   4 -16  332.56   17.60
   5  -4 -17  170.02   11.26
  -5   4 -17  156.11   12.90
   5   4 -17  157.42   12.49
  -5   4 -18    2.79    3.34
   5  -4 -18    2.23    2.52
   5   4 -18    1.69    3.20
   5  -4 -19   63.43    7.16
   5   4 -19   73.98    9.15
  -5   4 -19   57.65    8.51
   5  -4 -20   18.21    4.09
   5   4 -20   19.06    5.64
  -5   4 -20   17.63    6.05
   5   4 -21   19.39    5.05
  -5   4 -21   27.28    7.24
   5   4 -22   12.96    6.26
  -5   4 -22    7.02    4.32
  -5   4 -23  507.04   26.68
   5   4 -23  514.27   24.99
  -5   4 -24    2.69    5.00
   5   4 -24    1.61    5.07
   5   4 -25    7.80    3.83
   5   4 -26   28.04    7.02
   5   4 -27    0.53    3.28
  -5   5   0   -0.28    1.25
   5   5   0   -0.80    2.91
   5   5   1  522.99   17.54
  -5   5  -1  511.01   13.77
   5   5   1  545.36   20.21
   5   5  -1  539.45   19.82
  -5   5   1  539.40   12.22
   5   5   2  262.78   12.35
  -5   5  -2  271.86   10.66
   5   5  -2  292.24   14.71
  -5   5   2  268.49    7.87
  -5   5   3   11.47    1.55
   5   5   3   10.73    2.98
  -5   5   3   13.25    1.71
  -5   5  -3   10.54    2.65
   5   5  -3   13.66    4.13
  -5   5   4   37.11    2.19
   5   5   4   35.92    4.77
  -5   5   4   38.38    2.29
  -5   5  -4   38.86    4.69
   5   5  -4   41.03    6.13
   5   5   5  103.84    7.64
  -5   5  -5  115.84    7.92
   5   5  -5   96.95    8.87
  -5   5  -6  326.52   13.74
   5   5   6  327.84   13.03
   5   5  -6  328.73   16.09
  -5   5  -7  281.80   13.43
   5   5  -7  273.51   14.91
   5   5   7  257.36   11.42
  -5   5  -8  123.30    9.11
   5   5   8  129.41    8.06
   5   5  -8  122.76   10.41
   5  -5  -9   15.67    4.31
   5   5  -9   20.11    4.81
   5   5   9   14.68    3.27
  -5   5  -9   13.23    3.96
   5   5 -10   15.98    4.31
   5  -5 -10   15.54    3.79
  -5   5 -10   13.64    3.66
   5  -5 -11   88.50    8.04
  -5   5 -11   96.30    8.95
   5   5 -11   85.66    8.87
   5  -5 -12  321.03   14.73
  -5   5 -12  314.42   16.27
   5   5 -12  327.34   17.20
   5   5 -13   -1.09    2.84
   5  -5 -13    2.95    3.04
  -5   5 -13    5.09    3.77
   5   5 -14   11.19    4.10
   5  -5 -14    5.30    2.70
  -5   5 -14    7.25    2.74
   5  -5 -15   17.56    4.20
   5   5 -15   10.66    4.11
  -5   5 -15    9.26    3.82
   5  -5 -16   51.62    6.31
   5   5 -16   44.37    7.17
  -5   5 -16   56.55    8.07
   5  -5 -17    1.48    2.21
   5   5 -17    2.68    3.44
  -5   5 -17    3.78    4.11
   5  -5 -18   13.87    3.74
   5   5 -18   19.38    5.15
  -5   5 -18   18.78    4.91
  -5   5 -19    5.22    3.21
   5   5 -19    6.03    3.29
  -5   5 -20    3.30    3.19
   5   5 -20    3.43    4.03
  -5   5 -21  135.33   13.75
   5   5 -21  131.24   12.98
  -5   5 -22   22.01    6.38
   5   5 -22   12.60    5.22
   5   5 -23   80.33   10.85
  -5   5 -23   59.28   10.10
   5   5 -24  109.46   12.54
   5   5 -25    4.67    4.52
   5   5 -26   25.37    6.97
  -5   6   0    0.47    1.46
   5   6   0   -5.90    4.62
  -5   6   1  662.77   13.80
  -5   6  -1  672.05   16.08
   5   6   1  658.49   23.26
   5   6  -1  665.20   23.06
   5   6   2  313.66   13.93
  -5   6  -2  318.58   11.86
   5   6  -2  321.75   16.45
  -5   6   2  322.75    8.71
   5   6   3  384.30   15.17
  -5   6  -3  413.12   13.97
   5   6  -3  417.49   18.58
  -5   6   3  404.37    8.31
   5   6   4  133.10    8.75
   5   6  -4  139.15   11.14
  -5   6  -4  132.27    8.46
   5   6   5  198.83   10.64
   5   6  -5  194.22   13.15
  -5   6  -5  198.83   10.65
  -5   6  -6   26.18    4.77
   5   6   6   26.54    3.94
   5   6   7   29.45    4.16
  -5   6  -7   27.55    4.65
   5   6  -7   21.05    5.11
   5   6  -8   56.86    7.91
  -5   6  -8   54.99    6.65
   5   6   8   50.76    5.21
   5   6   9  365.34   13.33
   5   6  -9  340.60   17.81
  -5   6  -9  365.54   16.39
   5   6 -10    8.25    4.10
  -5   6 -10    7.17    3.72
   5   6 -11   60.02    8.14
  -5   6 -11   53.03    6.94
  -5   6 -12  253.75   14.99
   5   6 -12  252.40   15.76
   5   6 -13   75.45    8.91
  -5   6 -13   69.12    8.31
  -5   6 -14    7.09    3.82
   5   6 -14    6.70    4.48
   5  -6 -15  279.22   13.84
  -5   6 -15  279.01   16.89
   5   6 -15  280.91   17.58
   5  -6 -16    7.81    3.04
   5   6 -16    7.60    5.09
  -5   6 -16    3.80    4.14
  -5   6 -17    2.12    3.57
   5  -6 -17    5.93    2.55
   5   6 -18   -0.60    3.22
  -5   6 -18    1.90    3.85
   5   6 -19   19.43    6.16
  -5   6 -19   28.44    7.19
  -5   6 -20  314.68   20.36
   5   6 -20  314.55   20.01
   5   6 -21    2.89    4.56
  -5   6 -21    7.12    5.45
  -5   6 -22  316.23   21.22
   5   6 -22  304.30   20.55
   5   6 -23   39.21    8.43
  -5   6 -23   35.01    8.72
   5   6 -24   69.53   10.40
  -5   7   0    0.30    1.54
   5   7   0   -6.26    4.51
  -5   7   1   54.90    4.21
   5   7   1   51.88    7.60
   5   7  -1   49.89    7.18
  -5   7  -1   52.19    4.82
   5   7   2  676.03   20.82
  -5   7   2  691.75   13.06
   5   7  -2  681.52   24.74
  -5   7  -2  726.31   18.21
  -5   7  -3  257.91   11.49
  -5   7   3  250.50    6.59
   5   7   3  258.64   12.93
   5   7  -3  269.63   16.01
   5   7   4  235.47   11.75
  -5   7  -4  235.31   11.35
   5   7  -4  222.64   14.67
   5   7   5   78.56    7.04
  -5   7  -5   81.11    7.19
   5   7  -5   79.73    9.24
   5   7   6   -2.92    2.42
  -5   7  -6    1.12    2.38
   5   7  -6   -5.25    4.74
   5   7   7   -3.00    2.63
  -5   7  -7   -0.67    2.49
   5   7  -7   -1.06    4.28
  -5   7  -8  113.16    9.58
   5   7   8   99.03    7.17
   5   7  -8   93.66    9.95
   5   7   9  255.57   11.13
  -5   7  -9  269.91   14.46
   5   7  -9  252.67   16.14
   5   7  10    1.65    1.68
   5   7 -10   -2.38    3.25
  -5   7 -10    0.89    3.21
  -5   7 -11  110.50   10.31
   5   7 -11  115.39   11.69
   5   7 -12   55.22    8.79
  -5   7 -12   51.36    7.58
  -5   7 -13  141.57   11.94
   5   7 -13  151.00   13.11
  -5   7 -14  122.08   11.40
   5   7 -14  101.57   11.07
   5   7 -15   17.89    5.77
  -5   7 -15   27.82    6.17
   5   7 -16   35.04    6.72
  -5   7 -16   28.40    6.28
   5   7 -17   -1.49    3.41
  -5   7 -17    5.01    4.42
   5   7 -18    3.50    3.68
  -5   7 -18    2.99    3.25
   5   7 -19   11.17    5.18
  -5   7 -19   10.59    4.85
   5   7 -20   -0.77    3.78
  -5   7 -20   -2.68    3.38
   5   7 -21    2.16    3.71
  -5   7 -21    7.91    5.01
  -5   7 -22   -1.12    4.58
   5   7 -22    1.70    3.19
   5   7 -23   20.67    7.17
  -5   8   0    1.09    2.01
   5   8   0    0.03    3.39
  -5   8   1  947.91   17.72
   5   8   1  973.28   30.61
  -5   8  -1  955.37   20.55
   5   8  -1  901.47   29.41
  -5   8   2  149.30    6.37
   5   8   2  154.84   12.33
   5   8  -2  151.13   12.56
  -5   8  -2  137.18    8.37
   5   8   3   13.19    3.81
  -5   8  -3    6.77    2.54
   5   8  -3    2.44    3.90
   5   8   4   51.75    6.12
  -5   8  -4   41.91    5.34
   5   8  -4   58.91    8.76
   5   8   5 1591.00   30.85
   5   8  -5 1629.56   40.20
  -5   8  -5 1623.91   32.04
   5   8   6   55.12    5.97
  -5   8  -6   63.96    7.59
   5   8   7    2.61    1.89
  -5   8  -7    2.50    2.74
  -5   8  -8   30.18    5.50
   5   8   8   29.73    4.30
   5   8  -8   45.49    8.28
  -5   8  -9  847.04   26.48
   5   8   9  871.62   20.25
   5   8  -9  845.69   30.46
  -5   8 -10  129.91   11.01
   5   8 -10  138.79   13.04
   5   8 -11   53.26    8.47
  -5   8 -11   64.91    8.40
   5   8 -12   62.96    9.37
  -5   8 -12   66.48    8.75
  -5   8 -13  362.17   19.31
   5   8 -13  378.32   21.53
  -5   8 -14   -1.24    3.32
   5   8 -14   -1.52    3.87
  -5   8 -15   15.76    5.09
   5   8 -15   15.46    5.59
  -5   8 -16   11.13    4.84
   5   8 -16   12.15    5.90
  -5   8 -17  239.41   17.56
   5   8 -17  254.29   18.66
  -5   8 -18   -1.53    3.89
   5   8 -18    7.37    4.58
  -5   8 -19  190.11   16.56
   5   8 -19  189.31   16.85
  -5   8 -20    1.40    4.18
   5   8 -20   12.68    6.20
  -5   8 -21   66.99   10.26
   5   8 -21   64.31   10.00
   5   9   0    0.71    3.25
  -5   9   0    0.98    1.69
  -5   9  -1  443.53   14.58
   5   9   1  422.78   21.15
   5   9  -1  404.22   20.62
   5   9   2    8.91    3.97
   5   9  -2   13.77    4.81
  -5   9  -2   10.60    2.84
  -5   9  -3   13.93    3.55
   5   9  -3    1.00    4.48
   5   9   4   63.63    6.92
  -5   9  -4   51.95    5.89
   5   9  -4   56.64    8.82
   5   9   5  100.09    8.02
  -5   9  -5   84.70    7.86
   5   9  -5   80.50    9.63
   5   9   6  218.81   11.47
   5   9  -6  243.96   16.93
  -5   9  -6  217.88   12.74
   5   9   7   -1.89    2.16
  -5   9  -7    1.60    3.01
   5   9  -7    1.88    4.91
  -5   9  -8   23.34    5.01
   5   9  -8   36.58    6.88
   5   9  -9   72.62    9.72
  -5   9  -9   61.56    7.73
   5   9 -10   18.57    5.89
  -5   9 -10   19.57    4.91
   5   9 -11   55.99    8.69
  -5   9 -11   51.94    7.75
   5   9 -12  147.46   14.22
  -5   9 -12  130.93   11.87
   5   9 -13    4.98    4.18
  -5   9 -13    3.28    4.22
   5   9 -14    1.27    3.98
  -5   9 -14   -2.14    2.97
   5   9 -15   66.73    9.88
  -5   9 -15   79.32   10.02
   5   9 -16   47.56    8.80
  -5   9 -16   65.22    9.36
   5   9 -17   23.70    7.02
  -5   9 -17   25.08    6.35
   5   9 -18    8.57    4.92
  -5   9 -18    5.33    4.00
   5   9 -19   14.12    6.49
  -5   9 -19    5.43    3.94
   5  10   0   -8.62    5.61
   5  10   1   96.34   10.88
   5  10  -1   99.08   11.15
   5  10   2  210.18   15.88
   5  10  -2  193.60   15.00
  -5  10  -3  239.79   12.52
   5  10  -3  218.61   16.39
   5  10   4  451.78   17.76
  -5  10  -4  483.19   18.30
   5  10  -4  440.63   23.11
   5  10   5  434.18   16.95
  -5  10  -5  461.37   18.61
   5  10  -5  440.64   23.41
  -5  10  -6  254.56   14.37
   5  10  -6  267.99   18.60
  -5  10  -7   24.46    5.26
   5  10  -7   16.51    6.31
  -5  10  -8   16.04    4.47
   5  10  -8   14.10    5.34
  -5  10  -9   -2.28    2.85
   5  10  -9    4.73    4.55
   5  10 -10    4.59    3.67
  -5  10 -10    5.88    2.56
   5  10 -11   88.92   11.67
  -5  10 -11   79.86    9.25
   5  10 -12   22.80    6.75
  -5  10 -12   22.59    6.24
   5  10 -13  130.65   13.87
  -5  10 -13  130.41   12.81
   5  10 -14   -7.69    5.44
  -5  10 -14    1.22    3.06
   5  10 -15   -1.47    4.77
  -5  10 -15   -2.04    3.93
   5  10 -16  116.42   13.76
  -5  10 -16  114.41   12.51
  -5  10 -17   18.86    6.43
  -5  10 -18    5.27    4.64
   5  11   0   -1.98    4.65
   5  11   1   -0.47    4.15
   5  11  -1    4.32    3.90
   5  11   2  157.93   14.61
   5  11  -2  170.47   14.84
   5  11  -3   23.54    6.14
   5  11  -4    1.49    3.27
   5  11  -5    7.91    4.61
   5  11  -6    1.23    4.75
  -5  11  -6    9.03    3.78
  -5  11  -7   77.18    8.51
   5  11  -7   82.17   11.07
   5  11  -8   36.88    7.96
  -5  11  -8   32.22    5.90
  -5  11  -9   83.27    9.46
   5  11  -9   87.58   11.62
  -5  11 -10   77.36    9.38
   5  11 -10   85.81   11.64
   5  11 -11   83.14   11.47
  -5  11 -11  105.13   11.09
  -5  11 -12  106.24   11.43
   5  11 -12  103.66   12.84
   5  11 -13    8.35    5.45
  -5  11 -13   -1.32    3.42
  -5  11 -14   -1.45    3.28
  -5  11 -15   13.92    5.28
  -5  11 -16   71.12   10.44
  -5  11 -17   16.35    5.67
   5  12   0    2.93    3.00
   5  12   1   66.94    9.98
   5  12  -1   68.27    9.97
   5  12  -2   31.00    7.48
   5  12  -3    1.81    3.35
   5  12  -4   24.20    6.82
   5  12  -5   66.76   10.09
   5  12  -6   25.73    6.64
   5  12  -7   -2.57    4.86
   5  12  -8   65.72   10.56
   5  12  -9    5.79    4.72
  -5  12 -10   47.63    7.83
   5  12 -10   50.48    9.32
  -5  12 -11   -2.49    3.93
  -5  12 -12  122.22   12.69
  -5  12 -13   57.52    9.30
  -5  12 -14   28.23    7.02
  -5  12 -15   -2.93    3.75
   5  13   0    5.15    4.95
   5  13   1   43.93    8.96
   5  13  -1   41.87    8.38
   5  13  -2   21.03    7.22
   5  13  -3   14.61    5.16
   5  13  -4   12.04    4.65
   5  13  -5    1.28    3.27
   6   0   0 6132.85   64.18
   6   0   1   19.21    5.38
   6   0  -1   30.21    6.57
   6   0   2  213.48   12.52
   6   0  -2  217.77   12.73
   6   0   3   10.70    4.90
   6   0  -3   10.16    4.76
   6   0   4 1164.41   28.39
   6   0  -4 1195.89   29.01
   6   0  -5   -3.05    3.13
   6   0  -6  379.67   16.88
   6   0  -7   44.79    8.13
   6   0  -7   22.19    4.98
   6   0  -8 2364.69   42.47
   6   0  -8 2288.07   33.66
   6   0  -9   12.22    5.75
   6   0  -9    1.94    2.45
   6   0 -10 2584.41   45.62
   6   0 -10 2589.14   36.79
   6   0 -11   30.15    7.04
   6   0 -11    7.68    3.73
   6   0 -12   91.34    9.71
   6   0 -12   85.91    7.18
   6   0 -13   39.19    8.76
   6   0 -13    4.67    3.95
   6   0 -14 1307.35   34.05
   6   0 -14 1292.09   27.80
   6   0 -15   -0.23    2.31
   6   0 -15    5.61    4.53
   6   0 -16   21.73    3.62
   6   0 -16   28.65    5.97
   6   0 -17    0.81    2.46
   6   0 -17    3.02    3.16
   6   0 -18   69.87    6.99
   6   0 -18   88.88    9.72
   6   0 -19    1.78    2.19
   6   0 -19   -4.09    3.68
   6   0 -20   14.39    3.72
   6   0 -20    9.71    4.52
   6   0 -21    0.00    3.00
   6   0 -22  140.99   12.93
   6   0 -23    4.77    4.11
   6   0 -24   82.58   10.43
   6   0 -25    8.20    4.79
   6   0 -26  192.46   15.97
   6  -1   0   54.24    6.42
   6   1   0   58.56    6.87
   6  -1   1   96.72    8.55
   6  -1  -1   86.31    8.09
   6   1   1  102.53    8.53
   6   1  -1  100.15    8.71
   6  -1   2   -4.78    3.68
   6   1   2   -0.37    2.72
   6  -1  -2   -3.73    3.52
   6   1  -2   -2.91    3.49
  -6   1   2    1.43    1.40
   6   1   3    9.59    3.46
   6  -1  -3    7.40    3.74
   6   1  -3   19.46    5.29
  -6   1   3   10.62    2.42
   6   1   4  359.21   15.62
   6  -1  -4  317.68   15.31
   6   1  -4  332.80   15.64
  -6   1   4  346.29   12.33
   6   1   5    1.18    2.55
  -6   1   5    0.93    1.53
   6  -1  -5   -0.68    2.82
   6   1  -5    7.64    4.81
   6   1  -5    1.11    2.54
   6  -1  -6  294.05   14.78
   6   1  -6  289.69   14.96
   6   1  -6  292.83   13.05
  -6   1   6  292.80   11.12
  -6   1   7   49.13    4.66
   6  -1  -7   48.03    6.40
   6   1  -7   56.49    7.41
   6   1  -7   37.34    5.22
   6  -1  -8   24.10    5.14
   6   1  -8   23.36    4.68
   6   1  -8   15.68    3.57
  -6   1   8   22.91    3.30
   6  -1  -9   11.43    3.90
   6   1  -9   25.57    5.56
   6  -1  -9   24.70    3.52
   6   1  -9   25.28    4.36
  -6   1   9   26.66    3.61
  -6   1  10    2.41    1.75
   6  -1 -10    4.69    3.24
   6   1 -10   -4.89    4.34
   6  -1 -10   -1.58    1.80
   6   1 -10    4.17    2.96
   6  -1 -11    9.43    4.13
   6   1 -11    2.83    3.30
  -6   1  11    5.17    2.01
   6  -1 -11    2.68    1.85
   6   1 -11   10.82    3.56
   6  -1 -12   78.66    8.82
   6   1 -12   67.92    8.08
   6  -1 -12   69.50    5.89
   6   1 -12   72.47    7.04
   6  -1 -13  547.30   21.77
   6   1 -13  528.94   22.15
   6  -1 -13  504.90   15.73
   6   1 -13  534.69   18.93
   6  -1 -14  462.47   20.08
   6  -1 -14  412.27   14.59
   6   1 -14  433.71   17.28
   6  -1 -15  116.26   10.44
   6  -1 -15  132.38    8.50
   6   1 -15  125.74    9.53
   6   1 -16   -3.95    3.63
   6  -1 -16    0.74    2.79
   6  -1 -16    0.44    1.80
   6  -1 -17   46.75    5.36
   6   1 -17   47.52    6.27
   6  -1 -17   51.61    7.31
   6  -1 -18   24.82    4.16
   6   1 -18   19.78    4.47
   6  -1 -18   29.64    6.74
   6  -1 -19  239.35   15.72
   6   1 -19  224.52   13.78
   6   1 -20    3.70    3.46
   6  -1 -20    1.76    3.72
   6  -1 -21  182.91   14.23
   6   1 -21  169.32   12.39
   6  -1 -22   -4.16    3.32
   6   1 -22   -5.21    3.78
   6  -1 -23    4.17    3.18
  -6   1 -23   -5.38    5.32
   6  -1 -24   14.13    4.73
  -6   1 -24   23.24    7.24
   6  -1 -25   23.81    6.24
   6  -2   0  356.08   16.14
   6   2   0  371.18   16.10
  -6   2   0  353.59   12.92
   6  -2  -1  191.80   11.92
   6   2   1  216.69   12.24
   6   2  -1  202.85   12.05
  -6   2   1  200.62    9.54
   6  -2  -2   19.23    4.66
   6   2   2   27.72    4.99
   6   2  -2   19.83    4.47
  -6   2   2   19.11    3.03
   6  -2  -3  624.50   21.53
   6   2   3  636.83   20.34
   6   2  -3  656.07   21.98
  -6   2   3  672.27   16.51
   6   2   4 1222.03   28.52
   6  -2  -4 1236.34   29.78
   6   2  -4 1246.11   30.20
   6   2  -4 1218.47   27.54
  -6   2   4 1219.38   21.65
   6   2   5  123.63    9.32
   6  -2  -5  132.12   10.08
   6   2  -5  134.43   10.41
   6   2  -5  119.94    9.01
  -6   2   5  116.50    6.62
   6   2   6  497.44   18.46
   6   2  -6  478.79   19.42
   6  -2  -6  496.16   19.18
   6   2  -6  519.74   18.02
  -6   2   6  491.43   13.23
   6  -2  -7  759.83   23.85
  -6   2   7  739.60   15.98
   6   2  -7  728.84   24.31
   6   2  -7  761.36   21.95
   6  -2  -8   82.05    8.39
  -6   2   8   81.85    5.32
   6   2  -8   72.60    8.25
   6   2  -8   85.17    7.80
  -6   2   9    3.52    1.45
   6  -2  -9    4.24    3.46
   6   2  -9   11.63    4.73
   6   2  -9    2.75    2.91
   6  -2 -10  185.61   12.30
   6   2 -10  188.19   11.53
  -6   2  10  181.39    7.95
   6  -2 -11  997.28   28.00
   6  -2 -11  996.62   18.83
   6   2 -11  989.94   26.21
   6  -2 -12  111.33   10.19
   6  -2 -12  116.11    6.58
   6   2 -12  109.10    9.09
   6  -2 -13  644.79   23.28
   6  -2 -13  640.59   15.67
   6   2 -13  659.38   21.97
   6   2 -14   42.46    6.04
   6  -2 -14   37.63    6.54
   6  -2 -14   43.83    4.38
   6   2 -15   11.26    3.56
   6  -2 -15   18.04    5.19
   6  -2 -15   16.79    2.87
   6  -2 -16   86.41    9.23
   6   2 -16   79.52    8.39
   6  -2 -17   90.42    9.68
   6   2 -17  100.71    9.56
   6  -2 -18  150.39   12.11
   6   2 -18  162.95   12.11
   6  -2 -19  100.40   10.07
   6   2 -19  108.70   10.25
   6   2 -20   -2.34    2.91
   6  -2 -20    0.64    2.62
   6  -2 -21  104.51   10.54
  -6   2 -21  105.67   12.25
   6   2 -21  105.39   10.53
   6   2 -22   44.37    6.97
   6  -2 -22   69.08    8.92
  -6   2 -22   58.88    9.54
  -6   2 -23   13.60    5.04
   6   2 -23    9.69    4.28
   6  -2 -23   12.65    4.49
   6  -2 -24    2.96    3.37
   6   3   0    0.62    2.75
   6   3   1   62.78    6.81
   6   3  -1   49.71    6.43
  -6   3   1   54.63    4.84
   6  -3  -2    7.25    3.22
   6   3   2   14.56    3.80
   6   3  -2   13.51    4.03
  -6   3   2   11.44    2.23
   6  -3  -3   -1.71    2.71
   6   3   3    1.00    2.58
   6   3  -3    2.21    3.60
   6   3  -3   -0.13    2.54
  -6   3   3    0.16    1.30
   6  -3  -4  752.32   23.64
   6   3   4  748.54   21.92
   6   3  -4  778.96   24.15
   6   3  -4  739.12   22.69
  -6   3   4  737.92   15.54
   6  -3  -5   97.47    8.97
   6   3   5   93.15    8.10
   6   3  -5   99.71    9.41
   6   3  -5   98.08    8.53
  -6   3   5   87.22    5.27
   6   3   6   13.33    4.03
   6  -3  -6   11.67    4.12
  -6   3   6    9.09    1.80
   6   3  -6   14.56    4.63
   6   3  -6   19.10    4.90
   6   3   7  363.54   15.34
   6  -3  -7  373.64   17.07
  -6   3   7  364.20    9.68
   6   3  -7  376.26   16.61
   6  -3  -8  166.08   11.35
  -6   3   8  172.85    6.55
   6   3  -8  165.06   11.23
   6  -3  -9    0.98    3.22
  -6   3   9    1.19    1.12
   6   3  -9    2.36    3.03
   6  -3 -10  177.70   12.06
   6   3 -10  175.88   11.96
   6  -3 -11    5.34    2.91
   6   3 -11   13.42    4.14
   6  -3 -12  297.62   15.26
   6   3 -12  266.92   14.75
   6   3 -13   28.62    5.47
   6  -3 -13   33.15    5.71
   6   3 -14   31.87    5.81
   6  -3 -14   27.38    5.52
   6   3 -15   37.42    6.28
   6  -3 -15   28.13    5.44
   6  -3 -16  316.45   16.71
   6   3 -16  314.62   17.01
   6   3 -17    4.02    3.67
   6  -3 -17   10.50    3.90
   6  -3 -18  249.97   15.13
  -6   3 -18  228.67   16.60
   6   3 -18  216.30   14.89
   6  -3 -19  237.06   14.99
  -6   3 -19  227.69   16.69
   6   3 -19  230.15   15.53
  -6   3 -20   32.95    7.63
   6   3 -20   31.44    6.61
   6  -3 -20   31.20    6.45
   6   3 -21    5.08    3.88
   6  -3 -21    6.33    3.52
  -6   3 -21   12.02    5.40
   6  -3 -22   93.69    9.79
  -6   3 -22   87.06   11.20
   6   3 -22   95.35   10.42
  -6   3 -23    6.89    4.28
   6   3 -23   26.09    5.92
   6   3 -24   11.33    4.71
   6   3 -25   -1.08    2.92
   6   4   0  147.55   10.57
   6   4   1  148.18   10.42
   6   4  -1  153.15   10.61
   6   4   2   10.63    3.28
   6   4  -2    6.91    3.44
   6   4  -2    0.97    3.01
  -6   4   2    5.50    1.73
   6   4  -3   71.56    8.15
   6   4   3   68.15    6.94
   6   4  -3   81.65    8.23
  -6   4   3   76.12    4.91
   6   4   4   19.20    3.94
   6   4  -4   18.17    4.91
   6   4  -4   17.46    4.49
  -6   4   4   17.31    2.36
   6  -4  -5    2.97    3.23
  -6   4   5    9.22    1.64
   6   4   5    9.94    3.37
   6   4  -5    5.44    2.87
   6  -4  -6    3.74    3.63
   6   4   6   -1.50    2.73
  -6   4   6    2.02    1.00
   6   4  -6    3.64    3.66
   6  -4  -7  454.23   18.55
   6   4   7  395.21   16.25
  -6   4   7  401.46    7.74
   6   4  -7  436.47   18.78
   6   4   8  806.44   22.79
   6  -4  -8  802.17   24.92
   6   4  -8  803.43   25.25
   6  -4  -9  136.61   10.66
   6   4  -9  136.97   11.04
   6  -4 -10  285.19   15.22
   6   4 -10  288.82   15.76
   6  -4 -11   13.33    4.05
   6   4 -11   16.80    4.47
   6   4 -12   24.95    5.36
   6  -4 -12   22.74    4.63
   6   4 -13   35.74    6.39
   6  -4 -13   36.07    5.65
   6  -4 -14   36.07    5.94
  -6   4 -14   36.46    6.35
   6   4 -14   39.92    6.73
   6  -4 -15  271.45   15.23
  -6   4 -15  272.45   16.78
   6   4 -15  266.17   16.08
   6   4 -16   72.12    9.12
   6  -4 -16   67.59    8.06
  -6   4 -16   66.11    9.04
   6  -4 -17   78.99    8.62
   6   4 -17   75.08    9.43
  -6   4 -17   91.14   10.60
   6  -4 -18  189.28   13.27
  -6   4 -18  212.78   16.10
   6   4 -18  176.69   13.97
   6   4 -19   36.57    6.96
  -6   4 -19   46.11    8.02
   6  -4 -19   56.14    7.39
  -6   4 -20    0.49    4.09
   6   4 -20    9.17    4.72
   6  -4 -20   -0.77    2.60
   6   4 -21   52.23    8.24
  -6   4 -21   64.97   10.07
   6   4 -22   78.48   10.17
  -6   4 -22   87.04   11.35
   6   4 -23   53.86    8.71
  -6   4 -23   53.40    9.24
   6   4 -24    4.91    4.22
   6   4 -25   54.39    9.18
   6   4 -26   27.97    6.78
   6   5   0    7.90    4.51
   6   5   1  292.09   14.48
   6   5  -1  296.25   14.89
   6   5  -1  279.69   15.35
   6   5   2   54.21    6.71
   6   5  -2   54.15    7.03
  -6   5   2   51.94    4.15
  -6   5   2   46.03    3.78
   6   5  -2   50.44    6.79
   6   5   3    0.19    2.43
   6   5  -3   -0.81    3.73
  -6   5   3    0.34    0.96
  -6   5   3    1.58    1.31
  -6   5   4   -0.05    0.78
   6   5   4    3.70    3.31
   6   5  -4    2.99    3.53
  -6   5   4    2.13    1.10
   6   5   5  287.25   13.73
  -6   5  -5  309.11   13.54
   6   5  -5  295.73   15.97
  -6   5   5  282.94    6.24
   6   5  -6  142.52   11.60
  -6   5  -6  141.40    9.62
   6   5   6  131.98    9.34
   6   5   7  179.48   10.57
   6   5  -7  177.70   12.59
  -6   5  -7  192.71   11.71
   6   5   8   17.68    3.77
   6   5  -8   20.17    5.35
  -6   5  -8   18.15    4.13
   6  -5  -9  197.05   12.67
   6   5   9  195.06   11.15
  -6   5  -9  189.16   12.16
   6   5  -9  178.35   13.05
   6  -5 -10   19.38    4.77
  -6   5 -10   11.85    3.97
   6   5 -10   20.89    5.15
   6   5 -11   20.77    5.44
  -6   5 -11   11.96    3.37
   6  -5 -11   14.90    4.36
   6   5 -12   39.45    6.75
   6  -5 -12   36.65    6.18
  -6   5 -12   43.68    6.81
   6  -5 -13  213.97   13.49
  -6   5 -13  216.04   14.48
   6   5 -13  233.30   15.73
   6  -5 -14   59.72    7.52
  -6   5 -14   49.40    7.60
  -6   5 -15   24.89    6.25
   6   5 -15   32.60    6.56
   6  -5 -15   24.86    5.15
   6   5 -16   14.80    5.07
   6  -5 -16   14.24    3.93
  -6   5 -16   17.33    4.96
   6   5 -17    7.84    4.66
   6  -5 -17    0.85    2.23
  -6   5 -17    1.29    3.69
   6  -5 -18  195.74   13.10
   6   5 -18  192.06   15.09
  -6   5 -18  200.80   15.72
   6   5 -19   57.98    8.54
   6  -5 -19   53.15    7.04
  -6   5 -19   45.37    8.39
   6   5 -20   -3.13    3.70
  -6   5 -20    1.44    3.83
   6   5 -21   45.64    8.24
  -6   5 -21   54.99    9.44
   6   5 -22    2.81    4.32
  -6   5 -22    0.43    3.72
   6   5 -23   16.96    6.04
   6   5 -24  117.75   13.16
   6   5 -25   20.38    6.65
  -6   6   0    4.23    2.30
   6   6   0    8.59    4.70
   6   6   0    4.67    4.27
   6   6   1  227.19   13.04
   6   6  -1  244.56   14.04
  -6   6   1  216.88    8.45
   6   6  -1  202.82   13.93
  -6   6  -1  229.30   10.01
   6   6   2   14.35    3.92
  -6   6  -2   19.26    3.34
   6   6  -2   13.92    4.27
  -6   6   2   20.18    2.58
  -6   6   3   20.32    2.38
   6   6   3   15.37    3.86
  -6   6  -3   21.76    3.97
   6   6  -3   16.82    5.31
   6   6   4  957.70   25.87
   6   6  -4  946.25   29.36
  -6   6   4  912.35   11.23
  -6   6  -4  933.64   22.96
   6   6   5   79.80    7.42
   6   6  -5   90.19    9.50
  -6   6  -5   86.97    7.81
   6   6   6   26.62    4.48
  -6   6  -6   37.09    5.41
   6   6  -6   35.37    6.43
   6   6   7  261.70   12.96
   6   6  -7  288.94   16.69
  -6   6  -7  311.13   14.68
   6   6   8   18.04    4.30
  -6   6  -8   21.46    4.55
   6   6  -8   23.00    4.99
   6   6   9   12.83    3.39
  -6   6  -9    9.56    4.07
   6   6  -9    6.97    3.97
  -6   6 -10   73.98    8.24
   6   6 -10   72.02    9.27
   6   6 -11  331.18   18.82
  -6   6 -11  323.29   17.09
   6   6 -12  161.56   13.24
  -6   6 -12  144.66   11.67
   6   6 -13   39.21    7.19
  -6   6 -13   43.27    7.28
   6   6 -14  468.69   23.12
  -6   6 -14  500.78   22.72
   6  -6 -15  160.59   11.76
   6   6 -15  147.02   13.46
  -6   6 -15  153.82   13.42
   6  -6 -16   64.63    7.65
   6   6 -16   56.89    8.83
  -6   6 -16   64.03    9.11
   6   6 -17   39.60    7.76
   6  -6 -17   30.41    5.14
  -6   6 -17   29.89    6.77
  -6   6 -18  115.15   12.61
   6   6 -18  114.18   12.44
  -6   6 -19   31.22    7.40
   6   6 -19   21.84    6.23
  -6   6 -20   16.08    5.59
   6   6 -20   16.40    5.79
   6   6 -21   34.42    7.48
  -6   6 -21   32.36    7.95
   6   6 -22   94.61   12.09
   6   6 -23   47.69    9.30
  -6   7   0  245.68    9.82
   6   7   0  249.56   14.22
   6   7   0  230.67   15.37
  -6   7  -1  155.63    8.40
   6   7   1  150.10   11.10
   6   7  -1  163.58   12.94
  -6   7   1  162.70    7.34
   6   7   2  304.67   15.48
  -6   7  -2  298.71   12.25
   6   7  -2  299.02   17.44
  -6   7   2  314.05    9.16
   6   7   3  114.18    9.46
  -6   7  -3  113.62    7.97
   6   7  -3  117.94   11.19
   6   7   4    0.20    2.38
   6   7  -4   -4.06    4.31
  -6   7  -4    0.91    1.93
   6   7   5   36.23    5.60
   6   7  -5   30.77    5.87
  -6   7  -5   30.98    4.66
   6   7   6    3.48    2.18
   6   7  -6    3.20    3.79
  -6   7  -6    6.01    2.87
   6   7   7    1.80    2.14
   6   7  -7   -2.11    4.06
  -6   7  -7   -0.69    2.13
   6   7   8    2.61    2.23
   6   7  -8    0.63    3.54
  -6   7  -8   -2.47    2.89
  -6   7  -9   11.55    3.92
   6   7   9   13.44    3.56
   6   7  -9   12.78    4.92
   6   7  10  101.69    8.04
  -6   7 -10   88.42    8.87
   6   7 -10  103.92   10.95
   6   7 -11   -4.82    4.54
  -6   7 -11    1.47    3.22
   6   7 -12   25.46    5.89
  -6   7 -12   20.07    4.94
   6   7 -13    7.37    4.31
  -6   7 -13   13.36    4.66
   6   7 -14   85.38   10.89
  -6   7 -14   81.69    9.57
   6   7 -15    9.72    3.77
  -6   7 -15   32.99    6.74
   6   7 -16    5.01    4.32
  -6   7 -16    9.96    4.86
   6   7 -17   14.10    4.89
  -6   7 -17   21.74    6.05
   6   7 -18   34.08    7.12
  -6   7 -18   38.71    8.05
   6   7 -19   10.69    5.27
  -6   7 -19    7.17    5.32
   6   7 -20    6.54    4.32
  -6   7 -20    3.87    3.35
   6   7 -21    1.55    4.14
   6   8   0    5.86    4.03
   6   8   1   18.50    4.65
  -6   8  -1   15.82    2.88
   6   8  -1    9.81    3.77
   6   8   2   37.96    6.11
   6   8  -2   36.16    6.79
  -6   8  -2   38.20    4.69
   6   8   3  269.68   14.57
   6   8  -3  299.49   18.02
  -6   8  -3  291.69   12.84
   6   8   4   84.78    8.37
   6   8  -4   81.41    9.78
  -6   8  -4   83.30    7.45
  -6   8  -5  296.21   14.10
   6   8   5  290.75   14.60
   6   8  -5  292.31   18.04
  -6   8  -6    3.02    2.97
   6   8   6    2.11    2.34
   6   8   7  569.30   19.35
  -6   8  -7  558.24   20.69
   6   8  -7  575.12   25.58
   6   8   8    1.78    2.03
  -6   8  -8    5.87    3.50
   6   8  -8    7.48    4.52
  -6   8  -9   40.16    6.28
   6   8  -9   28.93    6.64
  -6   8 -10   32.85    6.06
   6   8 -10   30.26    6.72
  -6   8 -11  257.87   15.89
   6   8 -11  268.14   18.24
   6   8 -12    7.12    3.81
  -6   8 -12    9.13    4.34
   6   8 -13   -2.80    4.00
  -6   8 -13    2.47    2.73
   6   8 -14   33.65    8.66
  -6   8 -14   23.88    6.41
  -6   8 -15  520.47   24.84
   6   8 -15  558.95   27.67
   6   8 -16    9.00    4.96
  -6   8 -16   24.82    6.97
  -6   8 -17  218.41   17.04
   6   8 -17  225.63   18.29
   6   8 -18    1.17    4.74
  -6   8 -18   10.38    4.80
  -6   8 -19  148.92   14.85
   6   8 -19  135.44   14.71
   6   9   0  128.40   12.24
   6   9   1    5.69    3.72
   6   9  -1    2.20    3.92
   6   9   2    1.20    2.59
   6   9  -2   -8.90    5.26
  -6   9  -3    2.45    2.22
   6   9   3    3.31    2.39
   6   9   4    0.91    2.18
  -6   9  -4    5.15    2.50
   6   9  -4    0.98    3.80
   6   9   5  231.77   13.21
   6   9  -5  256.28   17.83
  -6   9  -5  228.64   12.77
   6   9   6   58.80    6.81
  -6   9  -6   63.56    7.13
   6   9  -6   67.41    9.55
  -6   9  -7    1.98    2.48
   6   9  -7    0.25    4.33
  -6   9  -8   43.37    6.61
   6   9  -8   46.83    8.53
  -6   9  -9   18.98    4.97
   6   9  -9   15.55    5.70
  -6   9 -10   14.17    3.99
   6   9 -10   19.06    6.34
  -6   9 -11   12.67    4.16
   6   9 -11   20.69    6.16
  -6   9 -12   11.14    4.66
   6   9 -12   19.12    6.06
   6   9 -13   19.08    6.22
  -6   9 -13   10.72    3.55
   6   9 -14   28.50    6.85
  -6   9 -14   34.22    6.82
   6   9 -15   -1.86    4.60
  -6   9 -15    2.71    3.96
   6   9 -16    5.74    5.40
  -6   9 -16   10.24    4.47
   6   9 -17   14.05    4.91
  -6   9 -17   21.69    6.69
  -6   9 -18    7.91    5.42
   6  10   0  137.19   13.41
   6  10  -1   14.80    5.45
   6  10   2    8.99    3.72
   6  10  -2    5.56    3.67
   6  10   3   68.83    7.85
   6  10  -3   59.16    8.83
   6  10   4  196.04   12.66
   6  10  -4  184.39   15.64
   6  10  -5    3.67    4.27
   6  10  -6   77.99   10.75
  -6  10  -7   18.71    4.37
   6  10  -7   22.74    6.58
   6  10  -8  205.73   17.10
  -6  10  -8  168.69   12.51
  -6  10  -9   -2.18    3.55
   6  10  -9   -0.81    3.22
  -6  10 -10   50.13    7.49
   6  10 -10   54.79    9.47
   6  10 -11  167.29   15.93
  -6  10 -11  159.87   13.19
   6  10 -12  113.18   13.70
  -6  10 -12  106.10   11.40
  -6  10 -13    8.58    5.13
   6  10 -13   -1.96    4.20
   6  10 -14  178.35   16.64
  -6  10 -14  177.14   14.98
  -6  10 -15   92.66   11.55
  -6  10 -16    9.68    4.56
  -6  10 -17   10.92    4.87
   6  11   0   38.92    8.15
   6  11  -1   29.87    7.42
   6  11   2   35.88    6.17
   6  11  -2   46.10    8.80
   6  11  -3  105.40   12.40
   6  11  -4    5.74    3.21
   6  11  -5    1.04    4.51
   6  11  -6    6.68    5.03
   6  11  -7   14.56    5.39
   6  11  -8   -1.08    3.95
   6  11  -9   16.77    5.87
  -6  11 -10   -2.11    3.81
   6  11 -10    3.44    3.40
  -6  11 -11   -1.28    3.76
   6  11 -11    6.79    4.94
  -6  11 -12   45.61    7.71
  -6  11 -13   34.34    6.94
  -6  11 -14    4.68    3.40
  -6  11 -15   -0.58    3.04
  -6  11 -16   27.60    6.77
   6  12   0   53.93    9.94
   6  12  -1   34.62    7.79
   6  12  -2   78.53   11.24
   6  12  -3   48.04    9.12
   6  12  -4   36.84    7.70
   6  12  -5   13.75    5.70
   6  12  -6   11.82    5.43
   7   0   0    0.23    3.56
   7   0   1   -1.37    2.99
   7   0  -1    6.63    3.66
   7   0   2 1253.30   31.90
   7   0  -2 1235.34   32.21
   7   0   3   -0.23    3.72
   7   0  -3   -4.56    2.96
   7   0  -4  639.03   23.33
   7   0  -5    8.60    5.94
   7   0  -6  186.35   13.01
   7   0  -7    1.07    3.25
   7   0  -8  728.41   25.67
   7   0  -9    1.02    3.81
   7   0  -9    5.54    2.85
   7   0 -10  121.35   10.77
   7   0 -10  106.85    8.17
   7   0 -11    0.98    3.54
   7   0 -11   -2.31    2.61
   7   0 -12  180.63   13.80
   7   0 -12  168.79   10.39
   7   0 -13   40.20    9.14
   7   0 -13   12.51    4.80
   7   0 -14 1119.34   33.98
   7   0 -14 1147.17   27.59
   7   0 -15    5.39    5.91
   7   0 -15    4.68    3.37
   7   0 -16  814.14   29.67
   7   0 -16  812.98   23.85
   7   0 -17    8.83    5.59
   7   0 -17    7.79    3.54
   7   0 -18   89.11   10.29
   7   0 -19   -1.55    3.56
   7   0 -20  166.57   14.35
   7   0 -21   -2.50    3.09
   7   0 -22   64.74    9.45
   7   0 -23   -0.90    3.13
   7   0 -24  203.87   16.66
   7   0 -25    9.86    5.63
   7   0 -26  142.47   14.33
   7  -1   0   -2.41    3.79
   7   1   0    4.43    3.96
   7  -1   1  291.14   15.90
   7  -1  -1  291.85   16.00
   7   1   1  290.36   15.46
   7   1  -1  278.79   15.34
   7  -1   2  457.19   19.87
   7   1   2  498.83   20.04
   7  -1  -2  484.07   20.36
   7   1  -2  477.11   20.07
   7   1   3  203.47   13.08
   7  -1  -3  193.32   12.89
   7   1  -3  210.71   13.53
   7   1   4  133.75   10.68
   7  -1  -4  128.58   10.79
   7   1  -4  125.57   10.77
   7   1   5    1.42    3.51
   7  -1  -5    5.00    4.47
   7   1  -5    6.57    4.64
   7  -1  -6  405.69   18.89
   7   1  -6  432.16   19.79
   7  -1  -7    7.79    3.67
   7   1  -7   12.87    3.19
   7  -1  -8  320.04   17.11
   7   1  -8  327.71   17.68
   7   1  -8  333.17   14.94
   7  -1  -9  257.46   15.44
   7   1  -9  273.50   16.34
   7   1  -9  237.37   12.90
   7  -1 -10   35.18    6.35
   7   1 -10   34.30    7.05
   7   1 -10   32.84    5.15
   7  -1 -11  307.45   17.31
   7   1 -11  339.68   18.56
   7  -1 -11  313.36   12.88
   7   1 -11  301.50   14.48
   7  -1 -12  627.47   24.84
   7   1 -12  660.99   25.79
   7  -1 -12  627.90   18.30
   7   1 -12  596.79   20.79
   7  -1 -13   15.88    5.47
   7  -1 -13    9.23    2.91
   7   1 -13    9.66    3.31
   7  -1 -14  131.24   11.77
   7   1 -14  118.53   11.44
   7  -1 -14  115.26    8.04
   7   1 -14  114.06    9.37
   7  -1 -15    3.46    4.17
   7   1 -15   -2.19    3.86
   7  -1 -15    0.94    1.62
   7   1 -15    1.66    2.37
   7  -1 -16    1.26    3.16
   7   1 -16    8.34    5.09
   7   1 -16   -1.15    2.66
   7  -1 -17   13.85    4.69
   7   1 -17    9.45    5.08
   7   1 -17   10.40    3.51
   7  -1 -18    5.93    4.25
   7   1 -18   -0.43    3.54
   7   1 -18    4.57    2.54
   7  -1 -19    4.38    3.62
   7   1 -19    6.59    4.29
   7   1 -19    7.01    2.79
   7  -1 -20   -5.43    3.69
   7   1 -20   -4.38    4.24
   7  -1 -21    2.39    2.99
   7   1 -21    2.58    3.46
   7  -1 -22    1.23    3.28
   7   1 -22   -6.99    5.20
   7  -1 -23   -1.60    3.38
   7   1 -23   -4.14    4.72
   7  -1 -24    1.09    3.25
   7   1 -24   -2.33    3.61
   7  -1 -25    0.73    3.31
   7   1 -25    4.31    3.00
   7  -2   0   -3.81    4.16
   7   2   0    0.18    3.66
   7  -2  -1  547.12   21.91
   7   2   1  548.10   21.05
   7   2  -1  543.04   21.34
   7  -2  -2  139.95   11.57
   7   2   2  147.49   11.10
   7   2  -2  147.01   11.75
   7  -2  -3  102.82    9.80
   7   2   3   98.35    8.98
   7   2  -3  105.24    9.89
  -7   2   4    5.38    2.62
   7   2   4    4.89    4.49
   7  -2  -4    6.18    4.79
   7   2  -4    4.29    4.26
   7   2   5 1426.10   33.97
   7  -2  -5 1463.69   35.69
   7   2  -5 1447.63   35.87
  -7   2   5 1449.62   25.86
   7   2   6   76.53    8.33
   7   2  -6   79.88    9.47
   7  -2  -6   75.88    8.84
   7   2  -6   66.42    7.98
  -7   2   6   68.72    5.64
   7   2  -7  286.78   16.35
   7  -2  -7  279.73   15.90
   7   2  -7  275.19   14.31
   7  -2  -8   64.55    7.90
   7   2  -8   75.96    9.01
   7   2  -8   75.39    8.01
   7  -2  -9   -6.29    4.57
   7   2  -9    6.52    4.22
   7   2  -9   -1.23    2.85
   7  -2 -10  436.48   19.84
   7   2 -10  431.67   20.80
   7   2 -10  453.03   18.67
   7  -2 -11   94.57    9.79
   7   2 -11   95.31    9.93
   7   2 -11  110.53    9.63
   7  -2 -12   33.23    6.31
   7   2 -12   30.34    6.64
   7   2 -12   26.11    5.01
   7  -2 -13  256.19   16.02
   7   2 -13  254.17   16.78
   7   2 -13  273.75   14.99
   7  -2 -14    0.83    3.23
   7   2 -14    5.77    4.84
   7   2 -14    3.38    2.80
   7  -2 -15   76.59    9.28
   7   2 -15   79.42    9.94
   7   2 -15   67.09    7.86
   7  -2 -16  187.53   14.14
   7   2 -16  197.21   15.55
   7   2 -16  186.41   13.16
   7  -2 -17   37.94    7.29
   7   2 -17   52.89    7.45
   7   2 -18    3.32    3.87
   7  -2 -18   13.41    5.37
   7  -2 -19  340.27   19.52
   7   2 -19  354.91   18.80
   7  -2 -20  283.70   18.27
   7   2 -20  272.56   16.66
   7   2 -21    5.11    3.29
   7  -2 -21   11.42    4.54
   7  -2 -22   11.37    4.79
  -7   2 -22    3.02    4.32
   7  -2 -23  164.99   14.46
   7   3   0    1.90    3.13
   7   3   1   41.53    6.44
   7   3  -1   42.50    6.19
   7  -3  -2   37.40    5.77
   7   3   2   30.05    4.87
   7   3  -2   39.71    6.43
  -7   3   2   37.69    4.40
   7  -3  -3    0.97    3.87
   7   3   3    0.31    3.62
   7   3  -3    2.57    2.91
  -7   3   3    8.49    2.25
   7   3  -4   76.43    9.19
   7  -3  -4   63.88    7.98
   7   3   4   63.36    7.32
  -7   3   4   71.11    5.60
   7  -3  -5  783.95   26.23
   7   3   5  759.65   24.38
   7   3  -5  809.28   27.22
   7   3  -5  783.20   24.88
   7   3   6   12.08    4.22
   7  -3  -6   13.94    5.47
   7   3  -6   21.99    6.61
   7   3  -6   19.65    5.67
   7   3   7  147.36   11.11
   7  -3  -7  155.22   12.02
   7   3  -7  158.52   12.70
   7   3  -7  147.94   11.22
   7  -3  -8   96.28    9.42
   7   3  -8   94.82   10.04
   7   3  -8  102.93    9.41
   7  -3  -9  103.11    9.97
   7   3  -9  120.41   11.01
   7   3  -9  112.45    9.63
   7  -3 -10   -1.46    3.24
   7   3 -10    6.39    4.87
   7   3 -10    1.85    2.85
   7  -3 -11  269.51   15.93
   7   3 -11  267.26   16.87
   7   3 -11  261.70   15.22
   7  -3 -12  162.92   12.54
   7   3 -12  156.13   11.94
   7  -3 -13   57.01    7.81
   7   3 -13   45.87    6.71
   7  -3 -14   11.02    4.01
   7   3 -14    2.38    2.74
   7  -3 -15   40.27    6.94
   7   3 -15   43.53    6.92
   7  -3 -16    1.38    3.22
   7   3 -16    8.42    4.43
   7   3 -17   25.97    5.85
   7  -3 -17   26.67    5.97
   7   3 -18    8.02    4.03
   7  -3 -18   -0.85    3.39
  -7   3 -19    3.52    3.86
   7   3 -19   -2.36    3.28
   7  -3 -19   -3.67    3.62
  -7   3 -20    0.73    3.01
   7   3 -20    4.14    2.71
   7  -3 -20    6.49    3.60
   7   3 -21    0.00    3.01
   7  -3 -21   -0.74    3.31
  -7   3 -21   -3.06    3.60
   7   3 -22   -4.71    4.15
   7  -3 -22    2.26    2.75
   7   4   0    4.09    2.91
   7   4   1  207.13   13.19
   7   4  -1  200.79   13.61
   7   4   2  682.85   23.48
   7   4  -2  699.62   24.54
   7   4   3   17.81    4.42
   7   4  -3   23.24    6.10
   7   4   4  809.61   25.55
   7   4  -4  861.28   28.15
   7   4  -4  869.66   27.60
   7  -4  -5  180.84   13.37
   7   4   5  178.25   12.22
   7   4  -5  211.28   14.82
   7   4  -5  197.24   13.64
   7  -4  -6  136.55   11.47
   7   4   6  144.10   10.79
   7   4  -6  156.33   12.37
   7   4  -6  142.00   11.71
   7  -4  -7   25.54    5.65
   7   4   7   35.40    5.68
   7   4  -7   39.84    6.98
   7   4  -7   23.72    5.24
   7   4   8  174.11   11.77
   7  -4  -8  161.85   12.23
   7   4  -8  159.96   13.12
   7   4  -8  163.11   12.30
   7  -4  -9  233.50   14.77
   7   4  -9  251.27   15.34
   7  -4 -10   15.10    4.83
   7   4 -10   13.31    4.19
   7  -4 -11   -0.02    2.87
   7   4 -11   -1.93    3.45
   7  -4 -12   11.13    3.95
   7   4 -12    9.92    4.28
   7  -4 -13  242.02   15.28
   7   4 -13  240.39   15.67
   7  -4 -14    1.48    3.10
   7   4 -14    3.73    3.44
   7  -4 -15   13.64    4.14
  -7   4 -15   16.38    5.07
   7   4 -15   26.19    6.03
   7  -4 -16  116.16   10.95
  -7   4 -16  119.51   11.99
   7   4 -16  100.79   10.72
   7  -4 -17   98.83   10.45
  -7   4 -17  101.85   11.66
   7   4 -17  101.48   11.01
   7  -4 -18  112.73   11.23
  -7   4 -18   99.58   11.72
   7   4 -18   97.93   11.03
   7   4 -19   61.87    9.24
   7  -4 -19   44.30    7.34
  -7   4 -19   54.25    9.18
   7  -4 -20  129.19   11.82
  -7   4 -20  108.81   12.47
   7   4 -20  137.82   13.23
   7   4 -21   10.57    4.22
  -7   4 -21    7.95    4.11
   7   4 -22    5.73    3.57
   7   4 -23    8.01    4.02
   7   4 -24   28.71    6.96
   7   5   0   -1.06    2.85
   7   5   1   10.39    3.80
   7   5  -1   11.42    4.67
   7   5   2   21.28    4.28
   7   5  -2   29.73    5.91
   7   5   3   56.35    7.00
   7   5  -3   52.93    7.65
   7   5  -3   53.05    7.51
   7   5   4   21.88    4.27
   7   5  -4   22.68    5.67
   7   5  -4   25.67    5.78
   7   5   5   11.55    3.61
   7   5  -5   10.66    4.21
   7   5  -5    8.58    4.33
   7   5   6  111.07    9.53
   7   5  -6  125.66   11.68
   7   5  -6  117.54   10.93
   7   5   7  144.27   10.76
   7   5  -7  157.07   12.59
   7   5   8    3.86    2.56
   7   5  -8    4.02    3.43
   7  -5  -9    7.09    3.93
   7   5   9   -2.00    2.75
  -7   5  -9    2.95    2.63
   7   5  -9   -1.82    3.84
   7  -5 -10    1.45    3.10
  -7   5 -10   -0.69    3.46
   7   5 -10    5.85    3.95
  -7   5 -11   40.77    6.29
   7  -5 -11   44.37    6.72
   7   5 -11   42.24    6.84
   7  -5 -12   23.32    5.35
  -7   5 -12   19.76    4.90
   7   5 -12   18.35    5.15
  -7   5 -13   -2.61    4.33
   7  -5 -13    2.51    3.36
   7   5 -13   -3.34    3.84
   7  -5 -14   11.35    3.79
  -7   5 -14   14.90    5.14
   7   5 -14   11.67    3.70
   7  -5 -15   15.62    4.28
  -7   5 -15   31.96    6.43
   7   5 -15   29.80    6.49
   7   5 -16   46.02    7.62
   7  -5 -16   43.57    6.99
  -7   5 -16   33.86    7.30
   7   5 -17   17.82    5.67
  -7   5 -17   14.89    5.33
   7  -5 -17   19.88    5.22
   7   5 -18    4.68    3.26
   7  -5 -18    7.57    3.47
  -7   5 -18   14.96    5.10
   7   5 -19   20.51    6.00
  -7   5 -19    9.73    4.03
   7   5 -20    9.38    4.79
  -7   5 -20    5.60    3.79
   7   5 -21    1.25    3.11
   7   5 -22   40.04    7.80
   7   5 -23   24.57    6.78
   7   6   0    1.46    3.14
  -7   6   0    1.33    2.30
  -7   6  -1  403.29   14.07
   7   6   1  402.51   19.03
   7   6  -1  394.10   19.06
  -7   6   1  417.43   12.78
   7   6   2  506.96   20.85
  -7   6  -2  513.75   16.79
   7   6  -2  519.73   22.07
   7   6  -2  499.52   22.97
  -7   6  -3    2.48    2.39
   7   6   3    4.50    3.24
   7   6  -3    2.53    3.39
   7   6  -3    9.63    5.17
   7   6   4   -1.16    2.62
  -7   6  -4    2.88    2.89
   7   6  -4   -0.80    3.47
   7   6  -4    2.61    4.45
   7   6   5  524.24   20.51
  -7   6  -5  538.66   19.20
   7   6  -5  526.05   22.98
   7   6  -5  540.18   23.58
   7   6   6    2.76    3.06
  -7   6  -6    0.68    2.82
   7   6  -6    2.13    3.37
   7   6   7  127.86   10.03
  -7   6  -7  133.66   10.30
   7   6  -7  131.81   11.94
   7   6   8   42.56    6.28
  -7   6  -8   44.18    6.50
   7   6  -8   30.91    6.30
   7   6   9   76.46    8.15
  -7   6  -9   72.98    8.35
   7   6  -9   83.31    9.80
  -7   6 -10  259.19   15.44
   7   6 -10  251.27   16.78
  -7   6 -11   56.82    8.17
   7   6 -11   52.27    8.27
  -7   6 -12  472.05   21.90
   7   6 -12  469.05   23.54
   7   6 -13  144.54   13.61
  -7   6 -13  155.36   13.19
  -7   6 -14    5.45    4.60
   7   6 -14    1.95    3.86
  -7   6 -15   12.97    4.91
   7   6 -15    8.74    4.59
   7  -6 -16  119.69   10.94
   7   6 -16  123.06   12.65
  -7   6 -16  122.63   12.31
   7  -6 -17   37.86    6.81
   7   6 -17   32.68    7.14
  -7   6 -17   31.82    7.65
   7   6 -18   20.79    6.16
  -7   6 -18   16.23    5.66
   7   6 -19   25.89    6.84
  -7   6 -19   24.34    6.63
  -7   6 -20   82.07   11.28
   7   6 -20   99.72   12.27
   7   6 -21    0.06    4.36
   7   6 -22   31.25    7.56
   7   7   0   -2.91    4.07
   7   7   1    1.65    3.07
   7   7  -1   -1.93    3.72
  -7   7  -1    3.70    1.91
   7   7   2   81.75    8.87
  -7   7  -2   72.60    6.39
   7   7  -2   89.00    9.54
   7   7  -2   75.71    9.76
   7   7   3  130.55   10.72
   7   7  -3  141.52   12.04
  -7   7  -3  130.79    8.91
   7   7  -3  129.37   12.40
  -7   7  -4    2.48    2.01
   7   7   4   -0.56    2.72
   7   7  -4    2.67    4.26
  -7   7  -5   48.93    6.12
   7   7   5   46.22    6.44
   7   7  -5   44.37    7.97
  -7   7  -6   -1.50    2.28
   7   7   6    0.12    2.34
   7   7  -6   -4.17    4.10
  -7   7  -7   15.13    4.18
   7   7   7    5.80    2.14
   7   7  -7    8.35    4.59
   7   7   8    5.43    3.38
  -7   7  -8    2.20    2.95
   7   7  -8    4.02    4.42
   7   7   9  100.19    9.03
   7   7  -9  101.00   11.51
  -7   7  -9   90.88    9.20
   7   7  10    9.23    3.18
  -7   7 -10   16.15    5.18
   7   7 -10    8.93    4.40
  -7   7 -11   31.16    6.62
   7   7 -11   25.36    6.54
  -7   7 -12   23.86    6.38
   7   7 -12   15.92    6.01
   7   7 -13  308.28   20.10
  -7   7 -13  266.64   17.19
  -7   7 -14   59.69    8.73
   7   7 -14   58.44    9.48
  -7   7 -15    4.86    4.06
   7   7 -15   -0.67    4.01
  -7   7 -16   23.66    5.97
   7   7 -16   16.22    5.41
   7   7 -17    5.78    3.96
  -7   7 -17   12.36    4.95
   7   7 -18   -2.43    3.79
  -7   7 -18    1.78    3.77
   7   7 -19   86.79   11.80
  -7   7 -19   91.52   11.67
   7   8   0    0.44    3.36
   7   8   1  546.87   22.73
   7   8  -1  523.91   22.98
   7   8  -1  513.28   24.93
   7   8   2   39.93    6.82
   7   8  -2   35.96    6.86
   7   8  -2   40.85    8.02
   7   8   3   73.38    8.33
   7   8  -3   60.22    8.33
   7   8  -3   88.50   10.62
  -7   8  -4   26.82    4.60
   7   8   4   18.61    4.58
   7   8  -4   15.73    5.51
   7   8   5   75.59    8.28
  -7   8  -5   60.47    6.60
   7   8  -5   72.42    9.70
   7   8   6    0.81    2.44
  -7   8  -6    3.57    3.03
   7   8  -6   -2.51    3.42
   7   8   7   84.77    8.26
  -7   8  -7  115.02    9.80
   7   8  -7   92.54   11.15
   7   8   8    2.19    2.32
  -7   8  -8    5.06    3.45
   7   8  -8   -1.50    3.52
  -7   8  -9  384.32   18.83
   7   8  -9  414.79   23.19
  -7   8 -10   24.58    5.85
   7   8 -10   21.73    6.60
  -7   8 -11   14.77    4.59
   7   8 -11   17.21    5.20
  -7   8 -12   16.55    4.84
   7   8 -12   19.44    5.84
  -7   8 -13   55.28    8.44
   7   8 -13   60.78    9.97
  -7   8 -14   23.78    6.10
   7   8 -14   10.15    5.21
  -7   8 -15  145.65   13.74
   7   8 -15  138.02   14.50
  -7   8 -16   11.24    5.89
   7   8 -16   10.99    5.99
  -7   8 -17  115.77   12.83
   7   8 -17  124.38   14.34
  -7   8 -18   23.72    6.88
   7   9   0   -0.92    3.16
   7   9   1    5.58    3.14
   7   9  -1    3.05    2.91
   7   9  -1    0.51    3.94
   7   9   2   -0.55    2.83
   7   9  -2   -0.53    3.99
   7   9  -2    1.72    3.88
   7   9   3    1.54    3.05
   7   9  -3   -1.43    3.52
   7   9   4   17.61    4.81
   7   9  -4   14.36    5.52
   7   9   5  147.32   11.40
   7   9  -5  166.50   14.99
   7   9  -6    9.21    4.94
   7   9  -7   85.53   11.14
  -7   9  -7   84.00    8.53
  -7   9  -8   32.40    5.70
   7   9  -8   37.28    7.36
  -7   9  -9   39.23    6.91
   7   9  -9   45.82    8.59
  -7   9 -10   16.79    4.70
   7   9 -10   14.73    5.92
  -7   9 -11   88.48   10.03
   7   9 -11   87.74   12.14
  -7   9 -12    4.94    3.74
   7   9 -12    6.54    4.32
  -7   9 -13   91.43   10.74
   7   9 -13   79.28   11.33
  -7   9 -14    4.72    3.09
   7   9 -14    6.77    3.80
  -7   9 -15    3.47    3.88
  -7   9 -16   11.62    6.43
  -7   9 -17  240.83   18.63
   7  10   0    0.84    2.89
   7  10   1    1.61    3.43
   7  10  -1    0.43    3.42
   7  10  -1    3.00    3.66
   7  10   2  116.33   10.91
   7  10  -2  107.32   12.76
   7  10   3   56.75    7.84
   7  10  -3   65.15   10.13
   7  10  -4    0.12    3.78
   7  10  -5    4.74    4.91
   7  10  -6   96.16   12.25
   7  10  -7   94.37   11.91
   7  10  -8   78.05   11.28
   7  10  -9   95.34   12.57
   7  10 -10  177.32   17.03
  -7  10 -11   10.42    4.76
   7  10 -11   -1.47    3.67
  -7  10 -12  141.67   13.07
  -7  10 -13   26.35    6.18
  -7  10 -14   12.73    5.01
  -7  10 -15   38.55    7.84
  -7  10 -16  163.09   15.31
   7  11   0    0.37    2.75
   7  11   1    5.19    4.04
   7  11  -1   -4.08    4.32
   7  11  -2   12.40    4.99
   7  11  -3   12.89    5.99
   7  11  -4   15.23    5.67
   7  11  -5   23.98    6.91
   7  11  -6    3.38    3.86
   8   0   0 1109.32   32.87
   8   0   1    1.14    3.95
   8   0  -1    0.20    3.64
   8   0   2  107.36   10.61
   8   0  -2  115.34   10.74
   8   0   3    1.15    3.67
   8   0  -3   -2.01    4.11
   8   0  -4   95.22   10.19
   8   0  -5   -5.78    4.68
   8   0  -6  121.18   11.51
   8   0  -7    0.79    3.92
   8   0  -8   33.18    6.80
   8   0  -9    9.30    4.03
   8   0 -10  761.29   28.91
   8   0 -11    2.25    3.06
   8   0 -12   22.45    5.94
   8   0 -12   17.30    3.95
   8   0 -13    2.42    3.35
   8   0 -13   -3.48    2.92
   8   0 -14  245.97   17.26
   8   0 -14  243.27   13.28
   8   0 -15    9.14    5.32
   8   0 -16   38.23    7.94
   8   0 -17    5.09    4.77
   8   0 -18   54.16    9.29
   8   0 -19    2.73    3.99
   8   0 -20   59.65    9.35
   8   0 -21   16.76    6.42
   8   0 -22   77.00   10.83
   8   0 -23    2.30    3.77
   8  -1   0  527.66   23.13
   8   1   0  547.44   22.91
   8  -1   1  406.04   20.20
   8  -1  -1  426.44   20.71
   8   1   1  465.38   21.11
   8   1  -1  391.07   19.82
   8   1   2    0.61    3.30
   8  -1  -2    6.18    4.82
   8   1  -2   -6.53    4.04
   8   1   3   46.07    7.38
   8  -1  -3   34.02    6.31
   8   1  -3   32.12    6.40
   8   1   4  373.25   18.94
   8  -1  -4  346.97   18.74
   8   1  -4  391.59   19.87
   8  -1  -5    6.09    3.27
   8   1  -5    4.64    3.96
   8  -1  -6  161.66   13.12
   8   1  -6  174.41   13.70
   8  -1  -7  105.76   11.13
   8   1  -7  104.47   10.94
   8  -1  -8  119.77   11.56
   8   1  -8  116.81   11.50
   8  -1  -9   36.07    6.55
   8   1  -9   43.76    7.73
   8  -1 -10   40.03    7.11
   8   1 -10   46.51    7.88
   8   1 -10   38.16    5.87
   8  -1 -11   26.68    6.91
   8   1 -11   31.52    7.26
   8   1 -11   26.57    5.64
   8  -1 -12  403.09   21.29
   8   1 -12  431.66   22.34
   8   1 -12  405.31   18.21
   8  -1 -13    6.89    4.77
   8   1 -13    8.44    5.86
   8   1 -13    4.72    3.25
   8  -1 -14  109.33   11.53
   8   1 -14  121.57   12.76
   8   1 -14  113.77    9.93
   8  -1 -15  164.01   14.16
   8   1 -15  149.77   14.26
   8   1 -15  153.90   11.62
   8  -1 -16   65.30    9.42
   8   1 -16   73.34   10.19
   8   1 -16   67.69    7.78
   8  -1 -17   73.51   10.41
   8   1 -17   52.54    9.29
   8  -1 -18  638.79   28.73
   8   1 -18  615.28   28.63
   8  -1 -19   11.69    5.90
   8   1 -19   15.09    7.11
   8  -1 -20    4.41    4.18
   8   1 -20    4.05    4.89
   8  -1 -21   72.19   10.54
   8   1 -21   57.41    9.81
   8  -1 -22  145.58   14.66
   8   1 -22  176.53   16.28
   8  -1 -23   -8.17    4.29
   8  -1 -24  101.44   12.42
   8   2   0   85.16    9.64
   8  -2  -1  150.84   12.63
   8   2   1  148.24   12.15
   8   2  -1  162.67   12.59
   8  -2  -2   16.35    5.01
   8   2   2   21.35    5.51
   8   2  -2    4.94    3.96
   8  -2  -3  403.47   20.24
   8   2   3  441.14   20.24
   8   2  -3  404.45   20.17
   8   2   4   32.69    6.15
   8  -2  -4   31.36    6.44
   8   2  -4   26.20    5.89
   8   2   5   32.57    6.53
   8  -2  -5   31.45    6.24
   8   2  -5   44.60    7.88
   8   2   6  127.62   11.36
   8  -2  -6  121.36   11.59
   8   2  -6  120.45   12.06
   8  -2  -7  692.26   26.51
   8   2  -7  688.38   27.12
   8  -2  -8   19.38    6.24
   8   2  -8   23.94    6.92
   8   2  -8   31.19    5.97
   8  -2  -9   11.50    3.73
   8   2  -9   13.39    4.38
   8   2  -9   16.87    4.62
   8  -2 -10    4.85    3.94
   8   2 -10    5.21    4.43
   8   2 -10   -2.02    2.48
   8  -2 -11  193.98   14.76
   8   2 -11  177.46   14.60
   8   2 -11  193.51   13.08
   8  -2 -12   62.43    9.05
   8   2 -12   70.11    9.74
   8   2 -12   61.70    7.72
   8  -2 -13   28.00    6.02
   8   2 -13   44.11    7.95
   8   2 -13   32.06    5.82
   8  -2 -14   33.96    6.80
   8   2 -14   48.77    8.39
   8   2 -14   31.78    5.80
   8  -2 -15    7.35    4.14
   8   2 -15   10.12    4.64
   8   2 -15    4.94    2.97
   8  -2 -16    0.89    3.37
   8   2 -16   -0.07    2.95
   8  -2 -17    1.06    3.04
   8   2 -17    5.49    3.72
   8   2 -17    0.34    2.77
   8  -2 -18    3.84    4.23
   8   2 -18    5.86    4.68
   8   2 -18    5.65    3.52
   8  -2 -19   89.71   10.98
   8   2 -19   75.04   10.87
   8  -2 -20   47.10    8.47
   8   2 -20   44.09    8.69
   8  -2 -21  178.36   15.35
   8   2 -21  203.45   17.65
   8  -2 -22    6.76    5.08
   8  -2 -23   -4.04    4.04
   8   3   0   46.40    7.14
   8   3   1   58.69    7.69
   8   3  -1   58.46    7.99
   8   3   2   18.17    4.71
   8   3  -2   30.31    6.28
   8  -3  -3  131.71   11.83
   8   3   3  140.55   11.67
   8   3  -3  140.74   12.01
   8  -3  -4  108.75   11.19
   8   3   4  110.05   10.43
   8   3  -4  104.22   10.74
   8  -3  -5   27.96    5.91
   8   3   5   39.41    6.50
   8   3  -5   38.10    7.10
   8   3   6  393.06   19.24
   8  -3  -6  388.98   20.27
   8   3  -6  406.70   20.87
   8   3   7  157.68   12.31
   8  -3  -7  165.68   13.69
   8   3  -7  185.97   14.60
   8   3  -7  171.12   12.74
   8  -3  -8  189.93   14.52
   8   3  -8  213.86   15.83
   8   3  -8  196.08   13.63
   8  -3  -9    1.85    3.33
   8   3  -9    2.60    3.41
   8   3  -9    4.82    3.94
   8  -3 -10    4.30    4.36
   8   3 -10    5.68    4.57
   8   3 -10    8.32    3.63
   8  -3 -11  161.53   13.41
   8   3 -11  153.44   13.57
   8   3 -11  164.93   12.61
   8  -3 -12   -6.35    4.50
   8   3 -12   -0.48    3.39
   8   3 -12   -0.26    2.75
   8  -3 -13   20.70    5.61
   8   3 -13   12.97    4.32
   8   3 -13   13.45    4.25
   8  -3 -14   29.41    6.57
   8   3 -14   16.64    5.10
   8   3 -14   27.49    5.87
   8  -3 -15   47.34    7.66
   8   3 -15   70.84    9.96
   8   3 -15   54.29    7.84
   8  -3 -16   50.83    8.15
   8   3 -16   45.76    8.51
   8   3 -16   43.48    7.36
   8  -3 -17  161.49   14.22
   8   3 -17  137.52   14.21
   8   3 -17  152.12   13.21
   8  -3 -18   15.36    5.78
   8   3 -18   23.00    7.32
   8   3 -18    8.21    4.40
   8  -3 -19  222.49   16.67
   8   3 -19  231.09   18.37
   8   3 -19  215.49   15.83
   8  -3 -20   -1.08    3.13
   8   3 -20   13.72    6.74
  -8   3 -20   14.94    6.87
   8   3 -20    7.47    4.78
   8  -3 -21  135.11   13.27
   8  -3 -22   54.01    8.64
   8   4   0   21.02    5.29
   8   4   1   71.60    8.36
   8   4  -1   84.70    9.89
   8   4   2  248.19   15.66
   8   4  -2  275.90   16.95
   8   4   3    2.19    4.00
   8   4  -3   -1.61    3.31
   8   4   4   37.70    6.61
   8   4  -4   32.50    6.73
   8   4   5  340.92   18.00
   8   4  -5  332.80   19.08
   8  -4  -6  100.93   10.62
   8   4   6   91.21    9.52
   8   4  -6   95.64   10.81
   8   4  -6  101.92   10.44
   8  -4  -7   86.37   10.21
   8   4   7  106.32   10.25
   8   4  -7  113.44   11.80
   8   4  -7   89.53    9.86
   8   4   8  182.04   13.01
   8  -4  -8  187.84   14.39
   8   4  -8  198.92   15.24
   8   4  -8  184.89   13.83
   8  -4  -9   48.07    8.15
   8   4  -9   51.17    8.32
   8   4  -9   36.38    6.52
   8  -4 -10   57.90    8.32
   8   4 -10   49.72    8.56
   8   4 -10   61.57    8.34
   8  -4 -11   40.18    7.00
   8   4 -11   39.01    7.49
   8   4 -11   44.15    7.06
   8  -4 -12   13.49    4.96
   8   4 -12   11.11    5.08
   8   4 -12   13.65    4.82
   8  -4 -13    5.39    3.29
   8   4 -13    1.12    3.53
   8   4 -13    4.99    3.25
   8  -4 -14    5.01    3.91
   8   4 -14    6.99    3.75
   8   4 -14    6.98    3.58
   8  -4 -15   28.42    5.95
   8   4 -15   35.91    7.63
   8   4 -15   33.07    6.33
  -8   4 -16    2.03    3.48
   8  -4 -16   -1.80    4.47
   8   4 -16    2.25    3.97
   8   4 -16   -2.64    3.88
  -8   4 -17   46.34    8.57
   8  -4 -17   23.63    5.58
   8   4 -17   50.64    9.17
   8   4 -17   48.69    7.98
   8  -4 -18   93.32   10.79
   8   4 -18   94.84   11.23
  -8   4 -18   98.18   12.19
  -8   4 -19   59.58   10.09
   8  -4 -19   49.57    8.17
   8   4 -19   70.77    9.89
   8  -4 -20   18.66    5.54
   8   4 -20   18.39    5.56
   8   4 -21   -5.90    4.47
   8   5   0 1463.08   38.55
   8   5  -1   79.91   10.15
   8   5   1   63.85    8.56
   8   5   2    9.43    4.09
   8   5  -2   12.00    4.51
   8   5   3  113.73   10.90
   8   5  -3  125.88   12.11
   8   5   4   94.44    9.69
   8   5  -4   98.17   10.60
   8   5   5  104.05   10.06
   8   5  -5   91.99   10.38
   8   5   6  174.09   12.94
   8   5  -6  208.68   15.58
   8   5  -6  191.67   14.85
   8   5   7  100.66    9.76
   8   5  -7  102.03   11.62
   8   5  -7  104.28   11.14
   8   5   8   86.89    9.16
   8   5  -8   83.34   10.38
   8   5  -8   90.06   10.27
   8   5  -9   41.26    7.58
   8   5  -9   38.96    7.05
   8  -5 -10   92.97   10.73
   8   5 -10   92.64   11.07
   8   5 -10   96.87   10.64
   8  -5 -11   26.35    6.41
   8   5 -11   37.45    7.25
  -8   5 -11   29.43    5.47
   8   5 -11   31.80    6.38
   8  -5 -12    0.75    3.23
  -8   5 -12   -0.41    3.93
   8   5 -12    0.69    4.30
   8   5 -12   -0.28    3.09
   8  -5 -13   16.54    4.77
   8   5 -13   17.83    5.31
  -8   5 -13   12.28    4.31
   8  -5 -14   54.15    8.10
  -8   5 -14   65.44    9.05
   8   5 -14   55.74    8.41
  -8   5 -15   -4.19    4.62
   8  -5 -15   -5.03    4.11
   8   5 -15    3.82    3.54
   8  -5 -16   -0.60    2.65
  -8   5 -16    1.01    3.29
   8   5 -16   -4.38    4.43
   8  -5 -17   16.17    4.93
  -8   5 -17   18.44    6.19
   8   5 -17   19.11    5.83
   8  -5 -18   98.45   11.16
  -8   5 -18   95.49   12.01
   8   5 -18  121.14   13.12
  -8   5 -19    3.29    3.62
   8   5 -19    7.37    4.29
   8   5 -20   28.80    6.90
   8   5 -21   12.28    5.02
   8   5 -22   64.13    9.69
   8   6   0    6.12    3.94
   8   6   1    6.99    4.42
   8   6  -1   12.35    5.45
   8   6   2  654.59   25.65
   8   6  -2  658.57   26.50
  -8   6  -2  674.83   20.29
   8   6   3  204.27   14.37
   8   6  -3  198.31   15.16
  -8   6  -3  204.77   11.85
   8   6   4   10.45    3.93
   8   6  -4   14.75    5.20
   8   6  -4   15.97    5.47
  -8   6  -4    9.48    3.60
   8   6   5    3.48    2.83
   8   6  -5    3.79    4.08
   8   6  -5    5.43    4.07
  -8   6  -5    1.29    2.43
   8   6   6   -2.70    3.27
   8   6  -6    7.00    5.53
   8   6  -6    4.45    3.86
  -8   6  -6    1.87    2.48
   8   6   7    3.78    2.56
   8   6  -7    8.13    4.52
   8   6  -7    0.82    3.64
  -8   6  -7    3.94    2.29
   8   6   8    2.56    2.47
   8   6  -8    3.51    3.99
  -8   6  -8   -0.14    3.20
   8   6  -8   -4.75    4.93
   8   6   9    4.41    2.81
   8   6  -9    4.54    4.73
  -8   6  -9    2.74    2.59
   8   6  -9    0.79    4.06
   8   6 -10   23.14    6.50
  -8   6 -10   31.04    6.20
   8   6 -10   21.15    5.59
  -8   6 -11   22.98    5.63
   8   6 -11   29.99    6.81
  -8   6 -12   69.41    9.12
   8   6 -12   79.53   10.20
  -8   6 -13   -5.48    4.52
   8   6 -13   -7.31    4.79
   8   6 -14   62.22    9.45
  -8   6 -14   68.00    9.29
  -8   6 -15    6.10    3.20
   8   6 -15    1.66    3.31
  -8   6 -16   -0.08    3.94
   8   6 -16   -0.94    3.68
  -8   6 -17   27.33    6.47
   8   6 -17   30.74    7.24
  -8   6 -18   42.01    8.26
   8   6 -18   43.74    8.73
   8   6 -19    8.14    4.69
   8   7   0   34.99    7.75
   8   7   1  268.45   17.06
   8   7  -1  279.21   17.74
   8   7   2   16.42    5.67
   8   7  -2   21.54    6.58
   8   7   3  502.70   22.43
   8   7  -3  514.25   24.19
   8   7   4   57.79    8.10
  -8   7  -4   55.11    6.62
   8   7  -4   56.95    8.79
   8   7  -4   57.44    8.96
   8   7   5   -2.69    3.29
  -8   7  -5    1.80    2.64
   8   7  -5    1.06    3.63
   8   7  -5    3.55    3.84
   8   7   6    3.81    2.89
  -8   7  -6    2.47    2.89
   8   7  -6    3.97    4.70
   8   7  -6   -1.25    4.38
   8   7   7  125.68   10.99
   8   7  -7  142.64   13.70
   8   7  -7  124.48   13.30
  -8   7  -7  127.81   10.50
   8   7   8  100.78    9.71
   8   7  -8  103.60   11.99
   8   7  -8   98.17   11.57
  -8   7  -8  102.00    9.73
   8   7   9   25.56    5.01
  -8   7  -9   24.73    5.50
   8   7  -9   11.59    4.99
   8   7 -10  110.53   12.37
  -8   7 -10  129.31   11.74
   8   7 -11  296.41   20.05
  -8   7 -11  269.73   17.11
  -8   7 -12    7.76    4.35
   8   7 -12    4.09    4.45
  -8   7 -13   34.29    7.18
   8   7 -13   43.10    7.97
  -8   7 -14   18.85    6.27
   8   7 -14   10.04    4.73
  -8   7 -15   24.35    6.07
   8   7 -15   29.90    7.43
  -8   7 -16    1.67    3.28
   8   7 -16   -0.86    3.49
  -8   7 -17   83.97   11.18
   8   7 -17   74.61   10.86
   8   8   0  245.25   16.52
   8   8   1   75.93    9.71
   8   8  -1   67.19    9.24
   8   8   2    5.42    4.56
   8   8  -2    0.71    3.16
   8   8   3   21.86    5.72
   8   8  -3   11.35    4.59
   8   8   4   10.28    4.52
   8   8  -4    4.27    4.56
   8   8  -4    6.66    4.31
   8   8   5   77.66    9.06
   8   8  -5   76.14    9.97
   8   8  -5   82.89   11.27
   8   8   6   49.28    7.29
   8   8  -6   58.75    9.39
   8   8  -6   41.26    8.17
   8   8   7  110.13   10.51
   8   8  -7  119.42   13.00
   8   8  -7  120.42   13.10
   8   8  -8    7.11    4.71
  -8   8  -8    3.33    3.37
   8   8  -9    3.99    5.12
  -8   8  -9    0.81    2.68
   8   8 -10    5.62    4.87
  -8   8 -10    5.86    3.99
  -8   8 -11  140.07   12.49
   8   8 -11  164.22   15.69
   8   8 -12   15.91    6.25
  -8   8 -12   10.99    4.97
  -8   8 -13   -3.15    3.37
   8   8 -13    0.01    4.63
  -8   8 -14   13.25    5.32
   8   8 -14    3.08    5.14
  -8   8 -15  184.91   15.77
  -8   8 -16    8.41    4.69
   8   9   0  139.67   12.70
   8   9   1   97.03   10.51
   8   9  -1   86.18   10.86
   8   9   2   44.17    7.58
   8   9  -2   46.11    7.90
   8   9   3   79.42    9.71
   8   9  -3   66.80    9.49
   8   9  -3   59.70    9.99
   8   9   4    4.63    3.40
   8   9  -4    1.52    3.39
   8   9  -4    3.18    4.90
   8   9   5   38.81    6.84
   8   9  -5   38.87    7.62
   8   9  -5   29.40    7.54
   8   9  -6   47.85    9.07
   8   9  -6   33.46    8.03
   8   9  -7  405.93   24.53
   8   9  -8  121.99   13.86
   8   9  -9    2.25    4.82
   8   9 -10   22.06    6.98
   8   9 -11   98.35   12.91
  -8   9 -12   36.37    7.14
  -8   9 -13   86.29   10.70
  -8   9 -14   42.95    8.09
  -8   9 -15   43.30    8.03
  -8   9 -16    7.12    3.97
   8  10   0   16.20    5.64
   8  10   1   29.81    6.26
   8  10  -1   39.13    7.40
   8  10   2    3.32    2.84
   8  10  -2    8.17    4.70
   8  10  -3    4.52    3.68
   8  10  -3   20.15    6.59
   8  10  -4  103.20   12.00
   8  10  -4  105.74   13.03
   8  10  -5    6.90    5.22
   8  10  -5   17.49    7.60
   8  11   0   44.99    8.19
   8  11  -1    4.85    4.05
   8  11  -2    5.43    3.96
   8  11  -3   23.12    6.33
   8  11  -4  218.88   17.57
   8  11  -5    8.85    4.74
   8  12  -3    0.36    3.91
   8  12  -4    9.00    4.27
   9   0   0    4.45    4.86
   9   0   1    0.53    4.05
   9   0  -1    3.20    3.75
   9   0   2   16.56    5.48
   9   0  -2   17.24    5.40
   9   0  -3   -4.60    4.77
   9   0  -4    8.22    4.29
   9   0  -5   -0.22    3.57
   9   0  -6  129.95   12.51
   9   0  -7    2.17    4.16
   9   0  -8   35.48    6.84
   9   0  -9   -1.77    3.03
   9   0 -10   19.24    5.64
   9   0 -11    1.85    2.99
   9   0 -12   11.19    4.12
   9   0 -13   -5.48    4.91
   9   0 -14   56.12    9.12
   9   0 -15    0.69    3.35
   9   0 -16   21.51    5.69
   9   0 -17    2.76    3.93
   9   0 -18  104.33   12.86
   9   0 -19    0.42    3.68
   9  -1   0    6.52    4.71
   9   1   0    5.92    4.89
   9  -1   1  218.17   16.25
   9  -1  -1  249.30   17.26
   9   1   1  247.98   17.13
   9   1  -1  239.31   16.86
   9   1   2  913.34   31.90
   9  -1  -2  875.10   31.71
   9   1  -2  912.57   31.93
   9   1   3   15.43    6.04
   9  -1  -3   12.17    5.18
   9   1  -3   13.76    5.57
   9   1   4  260.81   17.14
   9  -1  -4  275.88   17.98
   9   1  -4  249.25   17.47
   9  -1  -5   65.98    9.36
   9   1  -5   62.17    9.54
   9  -1  -6  190.45   15.20
   9   1  -6  181.46   14.94
   9  -1  -7    3.55    4.19
   9   1  -7    9.19    5.26
   9  -1  -8  337.76   20.44
   9   1  -8  345.02   20.70
   9  -1  -9  197.20   16.04
   9   1  -9  208.83   16.63
   9  -1 -10  281.16   18.68
   9   1 -10  293.29   19.53
   9  -1 -11   22.81    6.48
   9   1 -11   29.36    7.42
   9  -1 -12  196.92   16.00
   9   1 -12  246.33   18.31
   9  -1 -13   99.12   11.93
   9   1 -13  103.43   12.50
   9  -1 -14    1.49    4.10
   9   1 -14   -0.29    4.11
   9  -1 -15   11.01    5.36
   9   1 -15   15.21    6.88
   9  -1 -16  171.21   15.67
   9   1 -16  163.70   15.55
   9  -1 -17   43.32    8.74
   9   1 -17   48.13    9.04
   9  -1 -18   15.39    5.52
   9   1 -18   18.62    6.28
   9  -1 -19    8.18    4.88
   9   1 -19    4.76    4.60
   9  -1 -20   86.85   11.51
   9   2   0   -4.10    4.18
   9   2   1   -0.26    3.80
   9   2  -1    6.67    3.26
   9  -2  -2    1.15    4.18
   9   2   2    2.45    4.17
   9   2  -2   -6.01    4.76
   9  -2  -3    3.91    3.43
   9   2   3    4.40    4.38
   9   2  -3   -2.03    4.60
   9   2   4    6.09    3.81
   9  -2  -4    6.50    3.84
   9   2  -4    8.67    3.93
   9   2   5   92.86   10.38
   9  -2  -5   96.21   10.73
   9   2  -5   90.54   10.78
   9  -2  -6   15.25    4.90
   9   2  -6   15.18    5.42
   9  -2  -7   60.53    8.89
   9   2  -7   65.26    9.40
   9  -2  -8    3.18    3.53
   9   2  -8    5.96    4.36
   9  -2  -9   61.14    9.09
   9   2  -9   73.80   10.28
   9  -2 -10   19.81    5.83
   9   2 -10   31.04    7.40
   9  -2 -11   -5.36    4.18
   9   2 -11    4.20    4.86
   9  -2 -12   10.43    5.00
   9   2 -12   10.93    5.30
   9   2 -12    4.91    2.71
   9  -2 -13    7.65    4.88
   9   2 -13   -0.77    3.24
   9   2 -13   -2.88    3.60
   9  -2 -14   10.81    4.90
   9   2 -14   12.06    5.66
   9   2 -14    9.37    3.79
   9  -2 -15  147.66   14.31
   9   2 -15  175.11   15.75
   9   2 -15  167.69   13.22
   9  -2 -16    1.13    3.26
   9   2 -16    1.77    4.01
   9  -2 -17  108.42   12.42
   9   2 -17  109.04   13.04
   9  -2 -18   -5.18    4.84
   9   2 -18   -4.35    5.41
   9  -2 -19    3.08    3.37
   9  -2 -20   -3.10    3.76
   9   3   0    0.99    3.32
   9   3   1  301.96   18.50
   9   3  -1  303.23   18.75
   9   3   2   11.01    5.46
   9   3  -2    8.24    4.98
   9   3   3   78.91    9.57
   9   3  -3   79.30    9.88
   9  -3  -4    6.67    3.82
   9   3   4   19.80    5.74
   9   3  -4   15.61    5.14
   9  -3  -5  251.36   17.47
   9   3   5  283.54   17.78
   9   3  -5  271.29   18.13
   9   3   6   -0.05    3.47
   9  -3  -6    7.68    4.82
   9   3  -6    2.09    4.26
   9  -3  -7    4.19    3.70
   9   3  -7    6.78    4.07
   9  -3  -8   26.34    6.93
   9   3  -8   28.75    8.12
   9  -3  -9  348.19   20.98
   9   3  -9  382.75   22.51
   9  -3 -10   40.85    7.74
   9   3 -10   37.29    7.65
   9   3 -10   48.28    7.86
   9  -3 -11   26.13    6.67
   9   3 -11   18.34    5.50
   9   3 -11   20.41    5.36
   9  -3 -12   16.44    5.20
   9   3 -12   19.96    5.76
   9   3 -12   12.66    4.17
   9  -3 -13   42.57    7.56
   9   3 -13   64.69   10.53
   9   3 -13   49.78    7.67
   9  -3 -14    9.65    4.87
   9   3 -14   19.91    6.80
   9   3 -14    7.45    3.92
   9  -3 -15  175.28   15.43
   9   3 -15  163.57   15.82
   9   3 -15  192.37   14.63
   9  -3 -16   13.81    5.88
   9   3 -16   10.01    5.66
   9   3 -16    5.55    4.23
   9  -3 -17    0.20    3.97
   9   3 -17    3.62    4.78
   9   3 -17   -3.56    3.59
   9  -3 -18   22.62    6.50
   9  -3 -19  172.10   15.69
   9  -3 -20   78.19   11.03
   9  -3 -21   32.38    7.58
   9   4   0   -5.92    5.04
   9   4   1   13.05    4.63
   9   4  -1   13.74    4.92
   9   4   2   29.90    6.31
   9   4  -2   35.39    6.82
   9   4   3    8.44    4.02
   9   4  -3   -0.16    4.49
   9   4   4    1.42    2.83
   9   4  -4    7.30    4.37
   9   4   5   38.99    6.86
   9   4  -5   43.48    7.80
   9   4   6   36.31    6.77
   9   4  -6   23.76    6.23
   9  -4  -7   14.22    5.62
   9   4   7   21.54    5.47
   9   4  -7   20.48    6.33
   9  -4  -8  226.13   17.12
   9   4  -8  258.18   18.57
   9  -4  -9   14.79    5.74
   9   4  -9   12.67    6.08
   9   4  -9   18.06    6.05
   9  -4 -10   20.40    5.58
   9   4 -10   27.88    6.73
   9   4 -10   20.81    5.76
   9  -4 -11    6.76    3.93
   9   4 -11    5.67    3.74
   9   4 -11    5.82    3.09
   9  -4 -12    0.63    3.82
   9   4 -12    5.19    4.52
   9   4 -12   13.65    4.89
   9  -4 -13   -7.71    4.82
   9   4 -13    0.48    3.50
   9   4 -13   -0.92    3.69
   9  -4 -14   19.45    5.60
   9   4 -14   31.62    7.53
   9   4 -14   22.31    5.51
   9  -4 -15    2.29    3.76
   9   4 -15   -6.38    5.47
   9   4 -15   -2.74    3.43
   9  -4 -16   -0.40    3.09
   9   4 -16    1.06    3.59
   9  -4 -17    2.02    3.67
   9   4 -17    9.64    4.79
  -9   4 -17   -0.52    3.43
   9  -4 -18   15.44    5.68
   9   4 -18   18.93    5.97
   9  -4 -19    5.62    3.80
   9   5   0    1.19    3.70
   9   5   1   -1.98    4.43
   9   5  -1   -4.43    4.31
   9   5   2  171.92   14.01
   9   5  -2  160.40   14.07
   9   5   3   14.28    4.77
   9   5  -3   22.27    6.52
   9   5   4    4.63    3.24
   9   5  -4   -2.39    3.39
   9   5   5    7.77    3.83
   9   5  -5    3.60    4.64
   9   5   6   74.56    9.33
   9   5  -6   91.77   11.10
   9   5   7    7.13    3.82
   9   5  -7   12.96    5.07
   9   5   8  217.61   15.50
   9   5  -8  209.63   16.96
   9   5  -8  193.54   15.51
   9   5  -9   19.47    7.37
   9   5  -9   27.00    7.23
   9   5 -10  129.75   14.09
   9   5 -10  135.79   13.06
   9   5 -11   36.95    8.34
   9   5 -11   40.22    7.80
   9  -5 -12  158.51   14.52
  -9   5 -12  153.42   13.85
   9   5 -12  170.34   15.94
   9   5 -12  161.23   14.62
   9  -5 -13   49.84    8.79
  -9   5 -13   58.39    9.07
   9   5 -13   60.28   10.06
   9   5 -13   53.72    9.00
   9  -5 -14   60.44    9.81
   9   5 -14   87.16   12.38
   9   5 -14   70.04    9.83
  -9   5 -14   66.97    9.81
   9  -5 -15   52.12    9.15
  -9   5 -15   40.06    7.42
   9   5 -15   33.65    7.82
   9  -5 -16  257.71   18.81
  -9   5 -16  277.35   19.77
   9   5 -16  285.62   19.86
   9  -5 -17   10.84    5.62
  -9   5 -17    5.78    4.44
   9   5 -17    1.10    3.22
   9  -5 -18    8.00    4.39
   9   5 -18    4.88    3.82
   9   5 -19   15.46    5.38
   9   6   0    2.05    3.86
   9   6   1    9.99    4.20
   9   6  -1   13.20    4.90
   9   6   2   13.96    5.31
   9   6  -2   21.55    5.71
   9   6   3   37.21    6.97
   9   6  -3   45.79    8.48
   9   6   4    4.39    3.12
   9   6  -4   12.25    5.66
   9   6   5    1.00    3.14
   9   6  -5    0.81    3.41
  -9   6  -5   -5.00    3.38
   9   6   6    5.64    3.89
  -9   6  -6    1.52    2.38
   9   6  -6    0.26    4.01
  -9   6  -7    0.93    2.82
   9   6   7   10.85    4.65
   9   6  -7    8.71    6.02
   9   6  -7    7.29    4.42
  -9   6  -8   20.46    5.00
   9   6   8   34.65    6.40
   9   6  -8   25.75    7.07
   9   6  -8   41.00    8.10
   9   6  -9    9.13    4.28
   9   6  -9   19.00    5.97
  -9   6  -9   11.75    3.96
   9   6 -10    6.19    4.98
  -9   6 -10    2.86    2.75
   9   6 -11    1.26    4.60
  -9   6 -11   -0.63    3.29
   9   6 -11   -6.26    4.09
  -9   6 -12    9.90    4.50
   9   6 -12    1.66    3.67
  -9   6 -13   18.62    5.65
   9   6 -13   24.38    8.30
   9   6 -13   15.05    5.07
  -9   6 -14    4.73    4.59
   9   6 -14   -0.89    3.50
   9   6 -15   14.70    5.13
  -9   6 -15   13.00    4.91
   9   6 -16    7.03    4.35
  -9   6 -16    7.28    3.84
   9   6 -17   53.59    9.61
   9   7   0    5.49    3.73
   9   7   1   21.65    6.00
   9   7  -1   28.98    7.02
   9   7   2   83.41   10.41
   9   7  -2   77.99   10.54
   9   7   3  219.02   16.21
   9   7  -3  248.43   18.12
   9   7   4   -1.90    3.40
   9   7  -4    3.01    4.29
   9   7   5  151.63   13.24
   9   7  -5  142.09   14.07
   9   7   6   47.15    7.84
   9   7  -6   39.18    8.30
   9   7   7   11.03    4.79
   9   7  -7   26.16    6.79
   9   7  -7   18.14    6.15
   9   7   8    5.74    3.41
   9   7  -8    8.99    5.36
   9   7  -8    0.76    3.54
   9   7  -9  185.14   16.89
   9   7  -9  187.33   16.72
  -9   7  -9  179.90   13.61
   9   7 -10   72.50   10.97
  -9   7 -10   70.61    9.10
   9   7 -10  100.46   12.68
   9   7 -11   11.75    5.76
  -9   7 -11    4.19    3.85
   9   7 -11    4.33    4.23
  -9   7 -12   49.52    8.44
   9   7 -12   54.04   10.16
   9   7 -13  296.18   21.08
  -9   7 -13  273.95   18.66
  -9   7 -14   10.54    5.37
   9   7 -14    2.61    3.93
  -9   7 -15   62.70    9.59
   9   8   0    3.61    3.40
   9   8   1   10.65    4.11
   9   8  -1   15.35    6.17
   9   8   2   15.91    5.62
   9   8  -2    9.37    5.05
   9   8   3   38.06    7.31
   9   8  -3   25.98    6.51
   9   8   4   16.29    5.64
   9   8  -4   11.33    5.48
   9   8   5   56.70    8.17
   9   8  -5   63.92    9.86
   9   8   6   19.12    4.90
   9   8  -6   17.74    6.12
   9   8  -6   24.17    7.12
   9   8  -7   15.34    6.41
   9   8  -7   21.19    6.51
   9   8  -8   12.56    5.88
   9   8  -8   15.11    6.20
   9   8  -9   16.23    6.55
   9   8  -9   24.37    7.06
  -9   8 -13    3.06    3.62
  -9   8 -14   17.63    5.66
  -9   8 -15   16.41    5.63
   9   9   0    2.86    4.03
   9   9   1   95.29   11.29
   9   9  -1   78.44   10.57
   9   9   2   21.93    5.98
   9   9  -2   22.38    6.28
   9   9   3   25.87    6.32
   9   9  -3   25.09    6.92
   9   9  -4    8.38    5.40
   9   9  -5   10.80    5.56
   9   9  -6  249.06   19.56
   9   9  -7   27.76    7.70
   9  10   0    6.98    4.61
   9  10   1   -7.79    4.71
   9  10  -1    0.97    3.44
   9  10  -2   -1.39    4.25
   9  10  -3   20.33    6.83
   9  10  -4   40.25    8.10
   9  10  -5    6.35    4.18
   9  11  -2  110.16   12.84
  10   0   0  237.39   17.84
  10   0   1    6.87    5.92
  10   0  -1   17.61    7.08
  10   0  -2  112.29   12.39
  10   0  -3    5.96    4.22
  10   0  -4   68.24    9.72
  10   0  -5    2.42    4.01
  10   0  -6    7.01    4.02
  10   0  -7    0.84    3.38
  10   0  -8  127.44   13.71
  10   0  -9   -3.16    4.95
  10   0 -10    9.06    5.68
  10   0 -11   -1.26    3.60
  10   0 -12   76.72   11.14
  10   0 -13   -5.43    4.76
  10   0 -14   42.67    8.22
  10   0 -15   -1.89    4.02
  10   1   0   10.92    4.97
  10  -1  -1   15.45    5.54
  10   1   1   18.19    5.86
  10   1  -1   15.74    5.24
  10   1   2    3.95    5.03
  10  -1  -2    1.10    3.40
  10   1  -2   -6.89    4.57
  10   1   3   30.97    7.49
  10  -1  -3   28.40    7.36
  10   1  -3   28.18    6.70
  10  -1  -4  152.75   14.51
  10   1  -4  171.30   15.60
  10  -1  -5   36.14    7.73
  10   1  -5   41.40    8.31
  10  -1  -6   44.65    8.34
  10   1  -6   47.68    8.72
  10  -1  -7  116.84   12.95
  10   1  -7  118.04   13.46
  10  -1  -8  156.88   15.14
  10   1  -8  186.37   16.37
  10  -1  -9   32.90    7.84
  10   1  -9   39.13    9.08
  10  -1 -10   79.65   11.44
  10   1 -10  101.64   13.09
  10  -1 -11  178.49   16.16
  10   1 -11  192.89   16.95
  10  -1 -12   16.76    7.39
  10   1 -12   13.46    5.73
  10  -1 -13   31.69    7.49
  10   1 -13   33.90    7.95
  10  -1 -14   40.02    8.28
  10   1 -14   57.00    9.88
  10  -1 -15   47.44    9.35
  10   2   0   -1.33    3.15
  10   2   1   -0.24    3.84
  10   2  -1   -1.42    4.21
  10   2   2    4.68    3.17
  10   2  -2    7.49    3.90
  10  -2  -3   -4.74    4.71
  10   2   3    0.09    3.34
  10   2  -3   -2.79    4.11
  10   2   4   67.69    9.52
  10  -2  -4   66.21   10.26
  10   2  -4   63.22   10.25
  10  -2  -5    3.09    4.04
  10   2  -5    1.28    4.40
  10  -2  -6   23.46    6.64
  10   2  -6   14.11    5.15
  10  -2  -7    0.74    4.36
  10   2  -7   12.44    5.41
  10  -2  -8   47.48    8.56
  10   2  -8   63.64   10.30
  10  -2  -9    8.40    4.91
  10   2  -9   10.55    4.53
  10  -2 -10  107.12   12.57
  10   2 -10   99.01   12.60
  10  -2 -11   54.95    9.53
  10   2 -11   49.18    9.16
  10  -2 -12    4.19    4.16
  10   2 -12   15.22    5.91
  10  -2 -13    7.98    4.82
  10   2 -13   -1.73    5.17
  10  -2 -14   41.40    8.94
  10  -2 -15    0.43    3.70
  10   3   0    2.29    4.00
  10   3   1    8.28    4.23
  10   3  -1    1.78    3.61
  10   3   2    3.86    3.98
  10   3  -2   11.35    5.85
  10   3   3  217.73   16.92
  10   3  -3  232.57   17.93
  10   3   4   13.34    6.36
  10   3  -4   11.90    6.07
  10   3   5   96.06   11.43
  10   3  -5   86.35   11.20
  10  -3  -6   17.95    6.38
  10   3  -6   37.62    8.56
  10  -3  -7  415.51   24.71
  10   3  -7  440.03   25.05
  10  -3  -8   44.46    9.48
  10   3  -8   35.30    9.05
  10  -3  -9   20.23    6.75
  10   3  -9   29.76    7.72
  10  -3 -10    0.20    4.29
  10   3 -10    2.58    5.32
  10  -3 -11   60.70    9.73
  10   3 -11   77.24   11.32
  10  -3 -12    2.08    3.76
  10   3 -12   16.13    6.88
  10  -3 -13   60.36    9.83
  10  -3 -14   10.15    5.61
  10  -3 -15   96.31   12.19
  10   4   0   29.69    6.97
  10   4   1   75.43   10.26
  10   4  -1   92.80   11.47
  10   4   2    0.31    3.69
  10   4  -2    4.99    3.70
  10   4   3    2.30    3.04
  10   4  -3    0.77    3.85
  10   4   4    8.19    3.99
  10   4  -4    8.43    4.97
  10   4   5   -1.10    3.73
  10   4  -5    1.81    4.13
  10   4   6   -3.10    4.63
  10   4  -6   20.80    6.96
  10   4  -7  137.38   14.22
  10   4  -8    8.37    4.41
  10  -4  -9    8.97    5.47
  10   4  -9    3.40    4.79
  10  -4 -10    1.06    3.44
  10   4 -10    3.77    4.64
  10  -4 -11    1.34    3.41
  10   4 -11    8.88    5.75
  10  -4 -12   15.64    5.83
  10  -4 -13   78.12   11.08
  10   4 -13   54.16    8.44
  10  -4 -14    9.86    5.27
  10   4 -14   -0.64    3.59
  10  -4 -15    3.90    4.26
  10   4 -15    5.72    3.69
  10   5   0  115.07   12.85
  10   5   1  125.49   13.16
  10   5  -1  152.36   14.74
  10   5   2   23.93    6.59
  10   5  -2   27.18    7.05
  10   5   3   29.56    6.98
  10   5  -3   30.56    7.50
  10   5   4  152.18   14.15
  10   5  -4  140.87   14.09
  10   5   5   10.79    4.87
  10   5  -5   16.21    6.03
  10   5   6    3.18    3.70
  10   5  -6   10.17    5.47
  10   5   7    4.60    4.27
  10   5  -7    7.07    4.91
  10   5  -8   56.66    9.87
  10   5  -9   51.62    9.27
 -10   5 -12   -1.54    3.76
  10   5 -12    4.30    3.35
 -10   5 -13    1.19    4.03
  10   5 -13   -1.30    3.15
  10   5 -14   60.61    9.80
 -10   5 -14   72.61   10.09
  10  -5 -15    6.48    4.73
  10   5 -15    7.79    4.05
  10   5 -16    2.52    3.98
  10   6   0   89.92   11.36
  10   6   1    6.97    5.18
  10   6  -1   17.34    6.14
  10   6   2    7.06    4.71
  10   6  -2    8.35    4.51
  10   6   3    7.55    3.57
  10   6  -3    2.18    4.19
  10   6   4   62.82    9.45
  10   6  -4   63.93    9.86
  10   6   5   19.40    5.66
  10   6  -5   12.89    5.54
  10   6   6   12.22    4.39
  10   6  -6    6.65    4.95
  10   6   7    2.06    3.26
  10   6  -7   -0.73    3.76
  10   6  -8   28.50    7.37
 -10   6 -10  173.57   14.39
  10   6 -11    2.47    4.45
 -10   6 -11    1.89    3.11
 -10   6 -12   -5.34    4.02
  10   6 -12   -0.98    3.18
 -10   6 -13   -2.35    3.12
 -10   6 -14    0.27    3.24
  10   7   0   32.66    8.61
  10   7   1  219.52   17.54
  10   7  -1  239.06   18.73
  10   7   2   46.55    8.63
  10   7  -2   34.43    7.44
  10   7  -3  107.57   12.78
  10   7   3   94.23   11.26
  10   7   4   16.28    5.55
  10   7  -4   21.11    6.76
  10   7   5    9.36    4.37
  10   7  -5    3.53    3.74
  10   7   6   19.33    5.37
  10   7  -6   15.44    5.82
  10   7   7   89.18   11.01
  10   8   0   90.32   11.95
  10   8   1   -2.98    4.53
  10   8  -1   16.58    5.32
  10   8   2   12.47    5.36
  10   8  -2    7.14    4.91
  10   8   3   -1.45    3.37
  10   8  -3   -2.37    3.98
  10   8   4    4.70    4.01
  10   8  -4   11.19    6.23
  10   8   5    7.54    4.37
  10   9   0  172.16   15.90
  10   9   1   50.40    9.32
  10   9  -1   36.51    7.49
  10   9   2   15.22    5.62
  11   0   0   -2.03    4.05
  11   0  -1    8.87    5.27
  11   0  -2  171.26   16.29
  11   0  -3   -1.94    4.20
  11   0  -4   66.88   10.68
  11   0  -5    6.87    5.35
  11   0  -6   39.56    8.33
  11   0  -7   -4.01    4.51
  11   1   0   -5.46    4.75
  11   1   1    4.89    3.69
  11   1  -1    1.82    3.87
  11  -1  -2   19.92    6.17
  11   1  -2   22.85    6.79
  11  -1  -3    8.58    4.67
  11   1  -3    7.86    4.80
  11  -1  -4   16.20    5.90
  11   1  -4    0.13    3.60
  11  -1  -5   17.09    6.54
  11   1  -5    1.79    4.66
  11  -1  -6   73.05   11.30
  11   1  -6   53.07    9.80
  11  -1  -7   10.42    5.36
  11   1  -7   10.92    5.02
  11  -1  -8    3.54    4.53
  11   2   0    5.60    5.66
  11   2   1   57.69    9.59
  11   2  -1   66.22   11.02
  11   2  -2  108.26   13.30
  11   2   2   93.37   12.17
  11   2   3   -5.27    4.72
  11   2  -3    1.33    4.19
  11   2  -4   28.56    7.23
  11  -2  -5   30.69    7.77
  11   2  -5   34.04    7.88
  11  -2  -6    0.45    4.95
  11   2  -6    5.53    4.28
  11  -2  -7    4.99    4.38
  11   3   0   -1.13    3.72
  11   3   1    3.94    4.24
  11   3  -1    2.60    3.71
  11   3   2    8.28    5.24
  11   3  -2    3.61    4.54
  11   3   3    2.28    3.48
  11   3  -3   -1.86    3.98
  11   3   4   -2.32    4.67
  11   3  -4    2.77    4.42
  11   3  -5   77.40   11.50
  11   4   0    3.72    4.77
  11   4  -1  108.86   13.20
  11   4   1  101.48   12.73
  11   4   2   11.40    5.00
  11   4  -2   29.02    7.22
  11   4   3    0.33    4.71
  11   4  -3    7.27    5.51
  11   4   4   -5.01    4.74
  11   4  -4    5.32    4.13
  11   4   5   -3.81    4.85
  11   5   0   -2.05    3.83
  11   5   1   63.47   10.31
  11   5  -1   69.94   10.94
  11   5   2  167.43   16.01
  11   5  -2  198.69   17.73
  11   5   3    2.94    4.07
  11   5   4   25.35    7.05
  11   5   5    8.98    4.92
  11   5   6   58.38    9.23
  11   6   0   -0.98    4.14
  11   6   1   73.77   11.17
  11   6   2  150.04   15.32
  11   6   3    9.95    5.11
  11   6   4   18.91    5.61
  11   6   5    3.79    4.65
  11   6   6    9.86    4.24
  11   7   3    8.64    4.87
  11   7   4   55.69    9.55
  11   7   5   48.77    8.84
   0   0   0    0.00    0.00
  
TITL smz_f2_185 in Pbca
REM Pbca (#61 in standard setting)
CELL 0.71073   9.088512  11.548165  22.789784  90.0000  90.0000  90.0000
ZERR    6.00   0.000553   0.000682   0.001159   0.0000   0.0000   0.0000
LATT  1
SYMM -x+1/2,-y, z+1/2
SYMM -x, y+1/2,-z+1/2
SYMM  x+1/2,-y+1/2,-z
SFAC C H N O S
UNIT 90.00 90.00 24.00 12.00 6.00
TREF
HKLF 4
END
_computing_structure_solution     'SHELXT 2014/5 (Sheldrick, 2014)'
;
_shelx_hkl_checksum              78525
loop_
_space_group_symop_operation_xyz
'x, y, z'
'-x+1/2, -y, z+1/2'
'-x, y+1/2, -z+1/2'
'x+1/2, -y+1/2, -z'
'-x, -y, -z'
'x-1/2, y, -z-1/2'
'x, -y-1/2, z-1/2'
'-x-1/2, y-1/2, z'
loop_
_atom_site_label
_atom_site_type_symbol
_atom_site_fract_x
_atom_site_fract_y
_atom_site_fract_z
_atom_site_U_iso_or_equiv
_atom_site_adp_type
_atom_site_occupancy
_atom_site_site_symmetry_order
_atom_site_calc_flag
_atom_site_refinement_flags_posn
_atom_site_refinement_flags_adp
_atom_site_refinement_flags_occupancy
_atom_site_disorder_assembly
_atom_site_disorder_group
S1 S 0.66818(5) 0.34605(4) 0.61032(2) 0.02209(13) Uani 1 1 d . . . . .
O1 O 0.65815(15) 0.22311(11) 0.61360(6) 0.0305(3) Uani 1 1 d . . . . .
O2 O 0.80335(14) 0.39714(12) 0.59039(6) 0.0279(3) Uani 1 1 d . . . . .
N1 N 0.5456(2) 0.53216(16) 0.84551(8) 0.0355(4) Uani 1 1 d D . . . .
N2 N 0.54861(17) 0.39525(13) 0.56282(7) 0.0243(3) Uani 1 1 d D . . . .
N3 N 0.34391(17) 0.28503(13) 0.59122(7) 0.0261(3) Uani 1 1 d . . . . .
N4 N 0.33335(16) 0.42607(14) 0.51463(6) 0.0248(3) Uani 1 1 d . . . . .
C1 C 0.6253(2) 0.40368(15) 0.67855(8) 0.0227(4) Uani 1 1 d . . . . .
C2 C 0.5518(2) 0.33691(17) 0.71969(9) 0.0308(4) Uani 1 1 d . . . . .
H2 H 0.5219 0.2622 0.7102 0.040 Uiso 1 1 calc R U . . .
C3 C 0.5231(2) 0.38120(17) 0.77443(9) 0.0325(5) Uani 1 1 d . . . . .
H3 H 0.4725 0.3363 0.8016 0.042 Uiso 1 1 calc R U . . .
C4 C 0.5687(2) 0.49266(16) 0.79000(8) 0.0274(4) Uani 1 1 d . . . . .
C5 C 0.6422(2) 0.55904(15) 0.74758(9) 0.0286(4) Uani 1 1 d . . . . .
H5 H 0.6731 0.6336 0.7568 0.037 Uiso 1 1 calc R U . . .
C6 C 0.6691(2) 0.51531(16) 0.69248(8) 0.0257(4) Uani 1 1 d . . . . .
H6 H 0.7167 0.5606 0.6646 0.033 Uiso 1 1 calc R U . . .
C7 C 0.40177(19) 0.36600(15) 0.55691(7) 0.0218(4) Uani 1 1 d . . . . .
C8 C 0.1914(2) 0.40052(18) 0.50721(8) 0.0296(4) Uani 1 1 d . . . . .
H8 H 0.1387 0.4403 0.4786 0.038 Uiso 1 1 calc R U . . .
C9 C 0.1202(2) 0.31861(18) 0.53974(9) 0.0307(4) Uani 1 1 d . . . . .
H9 H 0.0211 0.3023 0.5336 0.040 Uiso 1 1 calc R U . . .
C10 C 0.2005(2) 0.26088(16) 0.58205(8) 0.0279(4) Uani 1 1 d . . . . .
C11 C 0.1328(3) 0.16781(19) 0.61860(10) 0.0409(5) Uani 1 1 d . . . . .
H11A H 0.1785 0.0950 0.6096 0.053 Uiso 1 1 calc R U . . .
H11B H 0.0294 0.1633 0.6103 0.053 Uiso 1 1 calc R U . . .
H11C H 0.1470 0.1853 0.6594 0.053 Uiso 1 1 calc R U . . .
H1N2 H 0.583(3) 0.4508(17) 0.5409(9) 0.043(7) Uiso 1 1 d D . . . .
H1N1 H 0.482(2) 0.4928(19) 0.8662(10) 0.048(7) Uiso 1 1 d D . . . .
H2N1 H 0.553(3) 0.6050(15) 0.8540(11) 0.050(7) Uiso 1 1 d D . . . .
loop_
_atom_site_aniso_label
_atom_site_aniso_U_11
_atom_site_aniso_U_22
_atom_site_aniso_U_33
_atom_site_aniso_U_23
_atom_site_aniso_U_13
_atom_site_aniso_U_12
S1 0.0227(2) 0.0235(2) 0.0201(2) 0.00195(18) -0.00044(16) 0.00298(17)
O1 0.0399(8) 0.0230(7) 0.0287(7) 0.0016(6) -0.0007(6) 0.0063(6)
O2 0.0215(7) 0.0383(8) 0.0239(6) 0.0012(6) 0.0001(5) 0.0017(6)
N1 0.0467(11) 0.0313(9) 0.0286(9) -0.0048(8) 0.0123(8) -0.0030(9)
N2 0.0221(8) 0.0260(8) 0.0247(8) 0.0082(7) -0.0026(6) -0.0030(6)
N3 0.0268(8) 0.0259(8) 0.0257(8) 0.0007(7) 0.0028(6) -0.0036(6)
N4 0.0227(8) 0.0293(8) 0.0224(7) 0.0023(7) -0.0017(6) -0.0011(6)
C1 0.0232(9) 0.0243(9) 0.0206(8) 0.0012(7) 0.0001(7) 0.0025(7)
C2 0.0377(11) 0.0257(9) 0.0291(10) -0.0001(8) 0.0035(8) -0.0059(8)
C3 0.0401(12) 0.0294(10) 0.0280(10) 0.0042(8) 0.0097(8) -0.0055(9)
C4 0.0290(10) 0.0278(9) 0.0253(9) 0.0003(8) 0.0031(7) 0.0043(8)
C5 0.0343(11) 0.0205(8) 0.0309(9) -0.0014(8) 0.0040(8) -0.0002(8)
C6 0.0275(10) 0.0227(9) 0.0271(9) 0.0060(8) 0.0042(7) 0.0013(7)
C7 0.0223(9) 0.0223(8) 0.0208(8) -0.0029(7) 0.0011(7) -0.0002(7)
C8 0.0239(10) 0.0380(11) 0.0268(9) -0.0025(8) -0.0036(7) -0.0001(8)
C9 0.0223(10) 0.0389(11) 0.0308(10) -0.0080(9) 0.0012(8) -0.0062(8)
C10 0.0297(10) 0.0277(9) 0.0263(9) -0.0069(8) 0.0062(7) -0.0047(8)
C11 0.0379(12) 0.0394(12) 0.0456(13) 0.0038(10) 0.0082(10) -0.0117(10)
loop_
_atom_type_symbol
_atom_type_description
_atom_type_scat_dispersion_real
_atom_type_scat_dispersion_imag
_atom_type_scat_source
C C 0.0033 0.0016 'International Tables Vol C Tables 4.2.6.8 and 6.1.1.4'
H H 0.0000 0.0000 'International Tables Vol C Tables 4.2.6.8 and 6.1.1.4'
N N 0.0061 0.0033 'International Tables Vol C Tables 4.2.6.8 and 6.1.1.4'
O O 0.0106 0.0060 'International Tables Vol C Tables 4.2.6.8 and 6.1.1.4'
S S 0.1246 0.1234 'International Tables Vol C Tables 4.2.6.8 and 6.1.1.4'
loop_
_geom_angle_atom_site_label_1
_geom_angle_atom_site_label_2
_geom_angle_atom_site_label_3
_geom_angle
_geom_angle_site_symmetry_1
_geom_angle_site_symmetry_3
O1 S1 O2 118.72(8) . .
O1 S1 N2 109.77(8) . .
O2 S1 N2 102.48(8) . .
O1 S1 C1 108.71(8) . .
O2 S1 C1 108.55(8) . .
N2 S1 C1 108.08(8) . .
C4 N1 H1N1 115.5(17) . .
C4 N1 H2N1 121.4(17) . .
H1N1 N1 H2N1 116(2) . .
C7 N2 S1 128.35(13) . .
C7 N2 H1N2 118.0(16) . .
S1 N2 H1N2 113.4(16) . .
C7 N3 C10 115.91(16) . .
C8 N4 C7 115.17(16) . .
C2 C1 C6 120.08(17) . .
C2 C1 S1 120.08(14) . .
C6 C1 S1 119.81(14) . .
C3 C2 C1 119.92(18) . .
C3 C2 H2 120.0 . .
C1 C2 H2 120.0 . .
C2 C3 C4 121.16(18) . .
C2 C3 H3 119.4 . .
C4 C3 H3 119.4 . .
N1 C4 C3 119.91(18) . .
N1 C4 C5 122.07(18) . .
C3 C4 C5 117.98(17) . .
C6 C5 C4 120.87(17) . .
C6 C5 H5 119.6 . .
C4 C5 H5 119.6 . .
C5 C6 C1 119.97(17) . .
C5 C6 H6 120.0 . .
C1 C6 H6 120.0 . .
N3 C7 N4 127.18(17) . .
N3 C7 N2 119.79(16) . .
N4 C7 N2 113.03(15) . .
N4 C8 C9 122.89(19) . .
N4 C8 H8 118.6 . .
C9 C8 H8 118.6 . .
C8 C9 C10 117.57(18) . .
C8 C9 H9 121.2 . .
C10 C9 H9 121.2 . .
N3 C10 C9 121.28(18) . .
N3 C10 C11 117.42(18) . .
C9 C10 C11 121.28(19) . .
C10 C11 H11A 109.5 . .
C10 C11 H11B 109.5 . .
H11A C11 H11B 109.5 . .
C10 C11 H11C 109.5 . .
H11A C11 H11C 109.5 . .
H11B C11 H11C 109.5 . .
loop_
_geom_bond_atom_site_label_1
_geom_bond_atom_site_label_2
_geom_bond_distance
_geom_bond_site_symmetry_2
S1 O1 1.4246(13) .
S1 O2 1.4366(13) .
S1 N2 1.6359(15) .
S1 C1 1.7357(18) .
N1 C4 1.361(2) .
N1 H1N1 0.871(16) .
N1 H2N1 0.866(16) .
N2 C7 1.383(2) .
N2 H1N2 0.871(16) .
N3 C7 1.328(2) .
N3 C10 1.349(2) .
N4 C8 1.334(2) .
N4 C7 1.340(2) .
C1 C2 1.386(3) .
C1 C6 1.386(3) .
C2 C3 1.373(3) .
C2 H2 0.9300 .
C3 C4 1.398(3) .
C3 H3 0.9300 .
C4 C5 1.403(3) .
C5 C6 1.375(3) .
C5 H5 0.9300 .
C6 H6 0.9300 .
C8 C9 1.365(3) .
C8 H8 0.9300 .
C9 C10 1.381(3) .
C9 H9 0.9300 .
C10 C11 1.493(3) .
C11 H11A 0.9600 .
C11 H11B 0.9600 .
C11 H11C 0.9600 .
loop_
_geom_torsion_atom_site_label_1
_geom_torsion_atom_site_label_2
_geom_torsion_atom_site_label_3
_geom_torsion_atom_site_label_4
_geom_torsion
_geom_torsion_site_symmetry_1
_geom_torsion_site_symmetry_2
_geom_torsion_site_symmetry_3
_geom_torsion_site_symmetry_4
O1 S1 N2 C7 46.29(18) . . . .
O2 S1 N2 C7 173.34(16) . . . .
C1 S1 N2 C7 -72.14(18) . . . .
O1 S1 C1 C2 -17.50(18) . . . .
O2 S1 C1 C2 -147.95(15) . . . .
N2 S1 C1 C2 101.60(16) . . . .
O1 S1 C1 C6 160.31(15) . . . .
O2 S1 C1 C6 29.85(17) . . . .
N2 S1 C1 C6 -80.59(16) . . . .
C6 C1 C2 C3 -0.4(3) . . . .
S1 C1 C2 C3 177.42(16) . . . .
C1 C2 C3 C4 -0.9(3) . . . .
C2 C3 C4 N1 -176.6(2) . . . .
C2 C3 C4 C5 1.3(3) . . . .
N1 C4 C5 C6 177.48(19) . . . .
C3 C4 C5 C6 -0.3(3) . . . .
C4 C5 C6 C1 -0.9(3) . . . .
C2 C1 C6 C5 1.3(3) . . . .
S1 C1 C6 C5 -176.52(14) . . . .
C10 N3 C7 N4 0.3(3) . . . .
C10 N3 C7 N2 -179.23(16) . . . .
C8 N4 C7 N3 0.3(3) . . . .
C8 N4 C7 N2 179.82(16) . . . .
S1 N2 C7 N3 -2.8(3) . . . .
S1 N2 C7 N4 177.60(13) . . . .
C7 N4 C8 C9 -0.5(3) . . . .
N4 C8 C9 C10 0.2(3) . . . .
C7 N3 C10 C9 -0.6(3) . . . .
C7 N3 C10 C11 178.22(17) . . . .
C8 C9 C10 N3 0.5(3) . . . .
C8 C9 C10 C11 -178.36(19) . . . .
