#------------------------------------------------------------------------------
#$Date: 2017-09-28 16:23:56 +0300 (Thu, 28 Sep 2017) $
#$Revision: 201451 $
#$URL: file:///home/coder/svn-repositories/cod/cif/1/54/74/1547449.cif $
#------------------------------------------------------------------------------
#
# This file is available in the Crystallography Open Database (COD),
# http://www.crystallography.net/
#
# All data on this site have been placed in the public domain by the
# contributors.
#
data_1547449
loop_
_publ_author_name
'Anuradha R. Pallipurath'
'Jonathan M. Skelton'
'Mark R. Warren'
'Naghmeh Kamali'
'Patrick McArdle'
'Andrea Erxleben'
_publ_section_title
;
 Sulfamerazine: Understanding the Influence of Slip Planes in the
 Polymorphic Phase Transformation through X-Ray Crystallographic Studies
 and ab Initio Lattice Dynamics
;
_journal_name_full               'Molecular Pharmaceutics'
_journal_page_first              3735
_journal_page_last               3748
_journal_paper_doi               10.1021/acs.molpharmaceut.5b00504
_journal_volume                  12
_journal_year                    2015
_chemical_formula_moiety         'C11 H12 N4 O2 S'
_chemical_formula_sum            'C11 H12 N4 O2 S'
_chemical_formula_weight         264.31
_chemical_name_common            Sulfamerazine
_chemical_name_systematic        4-amino-N-(4-methylpyrimidin-2-yl)
_space_group_crystal_system      orthorhombic
_space_group_IT_number           61
_space_group_name_Hall           '-P 2ac 2ab'
_space_group_name_H-M_alt        'P b c a'
_symmetry_space_group_name_Hall  '-P 2ac 2ab'
_symmetry_space_group_name_H-M   'P b c a'
_atom_sites_solution_hydrogens   mixed
_cell_angle_alpha                90
_cell_angle_beta                 90
_cell_angle_gamma                90
_cell_formula_units_Z            8
_cell_length_a                   9.1357(3)
_cell_length_b                   11.6782(3)
_cell_length_c                   22.8834(6)
_cell_measurement_reflns_used    3224
_cell_measurement_temperature    270
_cell_measurement_theta_max      29.2290
_cell_measurement_theta_min      2.7570
_cell_volume                     2441.40(12)
_computing_cell_refinement
;
CrysAlisPro, Agilent Technologies,
Version 1.171.37.34 (release 22-05-2014 CrysAlis171 .NET)
(compiled May 22 2014,16:03:01)
;
_computing_data_collection
;
CrysAlisPro, Agilent Technologies,
Version 1.171.37.34 (release 22-05-2014 CrysAlis171 .NET)
(compiled May 22 2014,16:03:01)
;
_computing_data_reduction
;
CrysAlisPro, Agilent Technologies,
Version 1.171.37.34 (release 22-05-2014 CrysAlis171 .NET)
(compiled May 22 2014,16:03:01)
;
_computing_molecular_graphics    OSCAIL
_computing_structure_refinement  'SHELXL-2014/7 (Sheldrick, 2014)'
_computing_structure_solution    SHELXT
_diffrn_ambient_temperature      270
_diffrn_measured_fraction_theta_full 0.970
_diffrn_measured_fraction_theta_max 0.925
_diffrn_measurement_device       'CrystalLogic Kappa (3 circle)'
_diffrn_measurement_device_type  'Rigaku Saturn724+ (2x2 bin mode)'
_diffrn_measurement_method
;
omega rotation with 1 degree frames
;
_diffrn_measurement_specimen_support 'MiTeGen loop'
_diffrn_radiation_monochromator  'double crystal Silicon 111'
_diffrn_radiation_source         'Diamond Light Source Beamline I19'
_diffrn_radiation_type           Synchrotron
_diffrn_radiation_wavelength     0.68890
_diffrn_reflns_av_R_equivalents  0.0636
_diffrn_reflns_av_unetI/netI     0.0626
_diffrn_reflns_Laue_measured_fraction_full 0.970
_diffrn_reflns_Laue_measured_fraction_max 0.925
_diffrn_reflns_limit_h_max       11
_diffrn_reflns_limit_h_min       -7
_diffrn_reflns_limit_k_max       13
_diffrn_reflns_limit_k_min       -16
_diffrn_reflns_limit_l_max       32
_diffrn_reflns_limit_l_min       -21
_diffrn_reflns_number            9058
_diffrn_reflns_point_group_measured_fraction_full 0.970
_diffrn_reflns_point_group_measured_fraction_max 0.925
_diffrn_reflns_theta_full        24.415
_diffrn_reflns_theta_max         29.471
_diffrn_reflns_theta_min         1.725
_exptl_absorpt_coefficient_mu    0.265
_exptl_absorpt_correction_T_max  1.00000
_exptl_absorpt_correction_T_min  0.91758
_exptl_absorpt_correction_type   multi-scan
_exptl_absorpt_process_details
;
CrysAlisPro, Agilent Technologies,
Version 1.171.36.28 (release 01-02-2013 CrysAlis171 .NET)
Empirical absorption correction using spherical harmonics,
implemented in SCALE3 ABSPACK scaling algorithm.
;
_exptl_crystal_colour            Colourless
_exptl_crystal_density_diffrn    1.438
_exptl_crystal_description       Parallelepiped
_exptl_crystal_F_000             1104
_exptl_crystal_size_max          0.50
_exptl_crystal_size_mid          0.40
_exptl_crystal_size_min          0.20
_refine_diff_density_max         0.374
_refine_diff_density_min         -0.371
_refine_diff_density_rms         0.068
_refine_ls_extinction_coef       .
_refine_ls_extinction_method     none
_refine_ls_goodness_of_fit_ref   1.038
_refine_ls_hydrogen_treatment    mixed
_refine_ls_matrix_type           full
_refine_ls_number_parameters     176
_refine_ls_number_reflns         3443
_refine_ls_number_restraints     0
_refine_ls_restrained_S_all      1.038
_refine_ls_R_factor_all          0.0942
_refine_ls_R_factor_gt           0.0586
_refine_ls_shift/su_max          0.000
_refine_ls_shift/su_mean         0.000
_refine_ls_structure_factor_coef Fsqd
_refine_ls_weighting_details
'w=1/[\s^2^(Fo^2^)+(0.0463P)^2^+1.4827P] where P=(Fo^2^+2Fc^2^)/3'
_refine_ls_weighting_scheme      calc
_refine_ls_wR_factor_gt          0.1357
_refine_ls_wR_factor_ref         0.1591
_reflns_Friedel_coverage         0.000
_reflns_Friedel_fraction_full    .
_reflns_Friedel_fraction_max     .
_reflns_number_gt                2196
_reflns_number_total             3443
_reflns_threshold_expression     'I > 2\s(I)'
_cod_data_source_file            Exp_Form-II2FSynchrotron_Form-II_270K.cif
_cod_data_source_block           270k_smz-f2_a
_cod_database_code               1547449
_shelx_space_group_comment
;
The symmetry employed for this shelxl refinement is uniquely defined
by the following loop, which should always be used as a source of
symmetry information in preference to the above space-group names.
They are only intended as comments.
;
_shelx_estimated_absorpt_t_min   0.879
_shelx_estimated_absorpt_t_max   0.949
_shelx_res_file
;

    270k_smz-f2_a.res created by SHELXL-2014/7

TITL 270k_smz-f2_a.res in Pbca
REM Old TITL 033_270K_SulfamerazineF2_ in Pbca
REM SHELXT solution in Pbca
REM R1 0.144,  Rweak 0.383,  Alpha 0.020,  Orientation as input
REM Formula found by SHELXT:  C12 N3 O2 S
CELL  0.68890   9.1357  11.6782  22.8834   90.000   90.000   90.000
ZERR    8.000   0.0003   0.0003   0.0006    0.000    0.000    0.000
REM SG 61 8 8 Pbca P21/b21/c21/a PGmmm Orthorhombic
LATT 1
REM SG  ASUN  1  .5 .5 .5
REM SG  ORGN  at Inv.cen.
SYMM 0.5-X,-Y,0.5+Z
SYMM -X,0.5+Y,0.5-Z
SYMM 0.5+X,0.5-Y,-Z
SFAC C H N O S
UNIT 88 96  32  16  8
FMAP 2
PLAN -32
BOND $H
L.S. 12
SIZE    0.50  0.40  0.20
ACTA
CONF
REM Instructions for potential hydrogen bonds
EQIV $1 -x+1/2, y+1/2, z
HTAB C6 O1_$1
EQIV $2 -x+1, -y+1, -z+1
HTAB C8 O2_$2
EQIV $3 x+1, y, z
HTAB C9 O2_$3
HTAB N2 N4_$2
EQIV $4 x+1/2, y, -z+1/2
HTAB N1 O2_$4
EQIV $5 -x+1, y+1/2, -z+1/2
HTAB N1 O1_$5
HTAB N1 N3_$5
LIST 4
WGHT    0.046300    1.482700
FVAR       0.55397
S1    5    0.332877    0.346525    0.389797    11.00000    0.03832    0.03849 =
         0.03318   -0.00282   -0.00004   -0.00418
O2    4    0.198242    0.396930    0.409543    11.00000    0.03491    0.06182 =
         0.03861   -0.00153    0.00138   -0.00316
O1    4    0.342327    0.224858    0.386223    11.00000    0.06493    0.03597 =
         0.04218   -0.00160   -0.00075   -0.00988
N4    3    0.665737    0.426199    0.485349    11.00000    0.03724    0.04440 =
         0.03764   -0.00434   -0.00309    0.00322
N3    3    0.655143    0.286107    0.409086    11.00000    0.04072    0.04214 =
         0.04034   -0.00275    0.00334    0.00761
N2    3    0.451256    0.394796    0.437584    11.00000    0.03541    0.04287 =
         0.03935   -0.01139   -0.00268    0.00534
N1    3    0.456111    0.533434    0.155479    11.00000    0.07520    0.05126 =
         0.04445    0.00447    0.01696    0.00342
C1    1    0.376235    0.404742    0.321907    11.00000    0.03906    0.03940 =
         0.03262   -0.00189    0.00343   -0.00332
C2    1    0.448641    0.338327    0.280574    11.00000    0.05728    0.04193 =
         0.04624    0.00105    0.00810    0.01046
AFIX  43
H2    2    0.477471    0.264093    0.289739    11.00000   -1.30000
AFIX   0
C3    1    0.477531    0.382729    0.226070    11.00000    0.06751    0.04614 =
         0.04106   -0.00162    0.01329    0.00842
AFIX  43
H3    2    0.527176    0.338233    0.198808    11.00000   -1.30000
AFIX   0
C4    1    0.433715    0.493227    0.210980    11.00000    0.04454    0.04347 =
         0.04014    0.00151    0.00348   -0.00560
C5    1    0.360315    0.558969    0.253103    11.00000    0.05751    0.03415 =
         0.04482    0.00085    0.00550   -0.00087
AFIX  43
H5    2    0.329011    0.632568    0.243897    11.00000   -1.30000
AFIX   0
C6    1    0.334384    0.515207    0.307932    11.00000    0.05011    0.03598 =
         0.04153   -0.00588    0.00735   -0.00333
AFIX  43
H6    2    0.288245    0.560350    0.335889    11.00000   -1.30000
AFIX   0
C7    1    0.598667    0.366381    0.443305    11.00000    0.03472    0.04076 =
         0.03421    0.00281   -0.00015    0.00191
C8    1    0.807875    0.401388    0.492763    11.00000    0.04007    0.05896 =
         0.04170    0.00157   -0.00321    0.00128
AFIX  43
H8    2    0.860502    0.440969    0.521087    11.00000   -1.30000
AFIX   0
C9    1    0.878157    0.320242    0.460301    11.00000    0.03324    0.06255 =
         0.04528    0.00895    0.00061    0.00880
AFIX  43
H9    2    0.976749    0.304174    0.466231    11.00000   -1.30000
AFIX   0
C10   1    0.797884    0.262618    0.418250    11.00000    0.04669    0.04527 =
         0.04466    0.00779    0.00998    0.00844
C11   1    0.865624    0.170635    0.381440    11.00000    0.05748    0.06294 =
         0.07344   -0.00555    0.01339    0.01447
AFIX 137
H11A  2    0.823326    0.097979    0.391437    11.00000   -1.30000
H11B  2    0.969213    0.168406    0.388393    11.00000   -1.30000
H11C  2    0.847719    0.186605    0.340913    11.00000   -1.30000
AFIX   0
H1N2  2    0.420158    0.445787    0.459210    11.00000    0.04409
H1N1  2    0.515609    0.497761    0.137276    11.00000    0.05088
H2N1  2    0.453287    0.612324    0.151234    11.00000    0.09469
HKLF 4

REM  270k_smz-f2_a.res in Pbca
REM R1 =  0.0586 for    2196 Fo > 4sig(Fo)  and  0.0942 for all    3443 data
REM    176 parameters refined using      0 restraints

END

WGHT      0.0677      0.4989

REM Highest difference peak  0.374,  deepest hole -0.371,  1-sigma level  0.068
Q1    1   0.3599  0.3791  0.3488  11.00000  0.05    0.37
Q2    1   0.1628  0.4580  0.3893  11.00000  0.05    0.32
Q3    1   0.6085  0.4861  0.4994  11.00000  0.05    0.27
Q4    1   0.1889  0.3715  0.3835  11.00000  0.05    0.26
Q5    1   0.6704  0.3384  0.2192  11.00000  0.05    0.26
Q6    1   0.6331  0.5189  0.4817  11.00000  0.05    0.23
Q7    1   0.1772  0.6053  0.2698  11.00000  0.05    0.22
Q8    1   0.8199 -0.0339  0.3116  11.00000  0.05    0.22
Q9    1   0.3424  0.0900  0.3714  11.00000  0.05    0.22
Q10   1   0.1715  0.3986  0.4227  11.00000  0.05    0.22
Q11   1   0.8826  0.0830  0.4091  11.00000  0.05    0.21
Q12   1   0.5543  0.4237  0.2388  11.00000  0.05    0.21
Q13   1   0.8530  0.3117  0.4288  11.00000  0.05    0.21
Q14   1   0.3443  0.6735  0.2370  11.00000  0.05    0.20
Q15   1   0.1791  0.6844  0.2705  11.00000  0.05    0.20
Q16   1   0.5962  0.6091  0.1880  11.00000  0.05    0.20
Q17   1   0.4265  0.2143  0.3524  11.00000  0.05    0.20
Q18   1   0.6555  0.5214  0.1501  11.00000  0.05    0.20
Q19   1   0.1518  0.3346  0.4544  11.00000  0.05    0.20
Q20   1   0.3385  0.7399  0.2636  11.00000  0.05    0.20
Q21   1   0.4175  0.1455  0.2666  11.00000  0.05    0.19
Q22   1   0.3267  0.2813  0.2583  11.00000  0.05    0.19
Q23   1   0.5624  0.2965  0.2979  11.00000  0.05    0.19
Q24   1   0.9139  0.3183  0.4601  11.00000  0.05    0.19
Q25   1   0.3364  0.3133  0.4895  11.00000  0.05    0.19
Q26   1   0.6669  0.2953  0.2880  11.00000  0.05    0.19
Q27   1   0.6450  0.2933  0.2320  11.00000  0.05    0.18
Q28   1   0.9737  0.0231  0.3583  11.00000  0.05    0.18
Q29   1   0.8777 -0.0341  0.3293  11.00000  0.05    0.18
Q30   1   0.1587  0.2750  0.4777  11.00000  0.05    0.18
Q31   1   0.2242  0.6000  0.2284  11.00000  0.05    0.18
Q32   1   0.3480  0.1547  0.3287  11.00000  0.05    0.18
;
_shelx_res_checksum              59772
_shelx_hkl_file
;
   0   0   2  315.30   10.30
   0   0   3   -0.09    0.73
   0   0   4 2665.00   38.80
   0   0   5   -1.09    1.53
   0   0   6 7542.32   80.26
   0   0   7   -1.16    1.41
   0   0   8 1004.96   33.85
   0   0   9   -0.21    2.09
   0   0  10 5220.41   86.79
   0   0  11    1.01    2.91
   0   0  12    6.47    2.62
   0   0  13   -0.27    1.28
   0   0  14  762.66   40.08
   0   0  15    2.18    1.72
   0   0  16    8.09    5.49
   0   0  17   -1.39    2.45
   0   0  18 1232.13   56.97
   0   0  19   13.24    7.30
   0   0  20   90.91   17.16
   0   0  21    3.67    1.40
   0   0  22  107.95   19.66
   0   0  23    4.92    6.67
   0   0  24   67.84   14.81
   0   0  25   -2.62    2.81
   0   0  26   20.67    9.44
   0   0  27    4.30    5.84
   0   0  28   37.30   11.26
   0   0  29   -1.08    5.35
   0   0  30  225.39   30.73
   0   0  31   -0.12    2.77
   0   0  32    4.68    6.62
   0  -1   0   -0.09    0.25
   0  -1   1    0.22    0.26
   0   1   1   -0.77    0.29
   0   1   2    0.09    0.90
   0  -1   2    2.55    1.09
   0  -1   3   -0.30    0.38
   0   1   3    0.27    0.51
   0   1   4    0.89    1.16
   0  -1   4    0.65    1.09
   0   1   5   -0.59    0.69
   0  -1   5   -0.01    1.52
   0   1   6   -0.92    1.12
   0  -1   6   -0.60    1.56
   0   1   7    1.64    1.60
   0  -1   7   -0.75    1.05
   0   1   8    0.39    1.29
   0  -1   8    1.20    3.12
   0  -1   9    1.18    2.95
   0   1   9    1.16    1.46
   0  -1  10   -2.20    2.81
   0   1  10    1.82    1.56
   0   1  11    0.72    1.90
   0  -1  11    0.38    3.66
   0   1  12   -0.73    0.42
   0  -1  12    0.73    2.11
   0  -1  13    4.03    3.81
   0   1  13   -0.42    1.59
   0   1  14    3.37    4.64
   0  -1  14    0.65    1.84
   0  -1  15    1.74    1.44
   0   1  15    4.78    5.06
   0   1  16    2.56    1.82
   0  -1  16    0.29    2.39
   0   1  17   -1.38    1.17
   0  -1  17   -2.22    2.20
   0   1  18   -1.05    2.36
   0  -1  18   -1.27    2.87
   0  -1  19    2.53    2.36
   0   1  19    1.82    5.46
   0  -1  20   -1.16    4.38
   0   1  20   -1.14    5.17
   0   1  21   -2.60    2.80
   0  -1  21   -3.17    7.42
   0   1  22    3.62    6.95
   0  -1  22    1.61    5.70
   0  -1  23    4.73    3.81
   0   1  23   -4.46    2.50
   0   1  24    1.86    4.76
   0  -1  24    0.75    5.89
   0  -1  25   -2.12    4.66
   0   1  25    0.32    3.02
   0   1  26   -3.69    4.08
   0  -1  26    1.17    4.67
   0  -1  27    0.84    5.24
   0   1  27    2.26    7.11
   0  -1  28   -2.04    2.40
   0   1  28    4.50    5.98
   0   1  29    5.59    5.80
   0  -1  29   -0.93    1.63
   0   1  30   -1.42    7.86
   0  -1  30    5.89    8.59
   0   1  31    1.30    6.92
   0  -1  31   -0.77    1.97
   0  -1  32    1.24    4.17
   0   1  32    9.18    9.88
   0  -2   0    0.96    0.95
   0   2   1 8062.59   66.18
   0  -2   2 4173.49   47.06
   0   2   2 4292.67   52.44
   0   2   3 9999.00   83.90
   0   2   4 8135.53   78.48
   0  -2   4 7737.90   76.96
   0  -2   5 8489.73   81.53
   0   2   5 7783.41   82.44
   0   2   6 7710.40   89.97
   0  -2   6 7737.29   84.92
   0   2   7   60.39    8.53
   0  -2   7   59.95    7.75
   0  -2   8  512.43   25.03
   0   2   8  524.32   26.14
   0  -2   9 1625.57   46.84
   0   2   9 1674.88   49.28
   0  -2  10  800.48   34.49
   0   2  10  842.60   36.78
   0   2  11 1238.62   46.18
   0  -2  11 1190.79   44.00
   0  -2  12  542.28   31.61
   0   2  12  573.24   33.30
   0  -2  13  147.19   16.97
   0   2  13  124.75   15.36
   0  -2  14  582.57   35.06
   0   2  14  693.76   38.52
   0  -2  15    9.71    4.22
   0   2  15   19.99    7.47
   0  -2  16   55.01   10.70
   0   2  16   78.32   14.23
   0  -2  17  430.04   32.67
   0   2  17  410.87   32.12
   0  -2  18  158.67   20.30
   0   2  18  194.74   23.11
   0   2  19  620.75   41.24
   0  -2  19  564.79   39.71
   0  -2  20   45.41   11.74
   0   2  20   45.96   11.66
   0   2  21   68.52   13.94
   0  -2  21   53.65   13.09
   0  -2  22    4.09    6.08
   0   2  22    0.62    3.81
   0   2  23  374.68   34.69
   0  -2  23  355.63   35.13
   0   2  24   -2.78    2.01
   0  -2  24    6.32    7.98
   0   2  25   16.30    8.02
   0  -2  25    7.69    7.57
   0   2  26   75.50   16.44
   0  -2  26   92.48   18.36
   0  -2  27   16.23    7.90
   0   2  27    3.72    6.23
   0  -2  28   17.91    9.30
   0   2  28    8.03    5.83
   0  -2  29   51.42   15.21
   0   2  29   51.06   14.49
   0  -2  30   -3.62    3.90
   0   2  30   -1.60    3.83
   0   2  31    2.31   12.85
   0  -2  31   -3.12    5.88
   0  -2  32   22.24   11.26
   0   2  32   29.59   10.06
   0  -3   0   -0.38    0.96
   0  -3   1   -0.43    1.05
   0   3   2   -0.86    2.04
   0  -3   2    1.10    0.65
   0  -3   3    0.63    1.76
   0   3   3    2.50    1.79
   0  -3   4    2.21    0.99
   0   3   4   -1.08    1.60
   0  -3   5    0.26    1.31
   0   3   5   -1.54    1.90
   0   3   6    0.30    0.89
   0  -3   6    1.22    1.01
   0   3   7   -0.96    1.61
   0  -3   7    0.48    1.89
   0  -3   8    1.29    1.30
   0   3   8    0.73    0.32
   0  -3   9    0.96    0.85
   0   3   9    1.10    2.28
   0  -3  10    2.50    3.78
   0   3  10    1.30    1.32
   0   3  11    0.50    3.03
   0  -3  11    0.54    1.87
   0  -3  12    4.00    2.87
   0   3  12   -1.26    3.95
   0  -3  13    2.56    4.03
   0   3  13   -0.23    0.91
   0   3  14   -1.08    1.29
   0  -3  14    0.46    3.02
   0  -3  15    1.86    3.12
   0   3  15    0.84    1.60
   0  -3  16   -1.96    2.86
   0   3  16    0.68    3.62
   0  -3  17    1.14    0.42
   0   3  17   -0.87    3.24
   0   3  18    5.82    7.00
   0  -3  18   -2.47    1.63
   0  -3  19    0.17    1.57
   0   3  19   -2.53    4.31
   0  -3  20    2.61    4.41
   0   3  20   -0.25    5.90
   0   3  21   -2.56    3.16
   0  -3  21    3.21    7.39
   0   3  22   -2.20    5.39
   0  -3  22    3.14    1.03
   0  -3  23   -4.00    5.42
   0   3  23   -2.47    3.31
   0   3  24    1.96    5.40
   0  -3  24    1.03    5.34
   0   3  25    0.94    4.04
   0  -3  25    0.92    5.51
   0   3  26   -2.45    3.22
   0  -3  26    4.63    4.81
   0  -3  27   -3.66    4.05
   0   3  27   -7.43    5.18
   0   3  28    3.36    5.89
   0  -3  28   -0.37    5.05
   0   3  29    3.49    5.70
   0  -3  29   -2.22    3.05
   0   3  30   -5.22    7.44
   0  -3  30   -5.39    5.13
   0   3  31   -3.58    5.06
   0  -3  31    3.08    2.88
   0  -3  32   -1.44    2.51
   0   3  32   -2.96    4.44
   0  -4   0 4253.92   66.10
   0  -4   1 1375.05   37.82
   0  -4  -1 1371.80   37.27
   0  -4   2 1726.10   42.61
   0  -4   3  114.45   10.92
   0   4   3   92.23   10.37
   0  -4   4  209.26   15.08
   0   4   4  226.60   16.48
   0  -4   5  255.50   17.09
   0   4   5  236.47   17.24
   0  -4   6  726.43   29.90
   0   4   6  795.14   32.98
   0   4   7  364.74   22.88
   0  -4   7  315.58   20.93
   0   4   8  239.72   19.32
   0  -4   8  218.81   17.86
   0  -4   9    6.80    3.97
   0   4   9    3.49    0.83
   0   4  10   -0.93    1.64
   0  -4  10    0.66    0.33
   0  -4  11  109.40   14.02
   0   4  12    3.87    3.82
   0  -4  12    1.64    1.63
   0  -4  13    3.40    2.44
   0   4  13    3.71    0.73
   0   4  14  186.71   20.27
   0  -4  14  154.37   18.58
   0  -4  15   70.10   12.94
   0   4  15   58.39   12.16
   0   4  16  125.70   17.21
   0  -4  16   95.73   15.89
   0  -4  17  493.01   35.71
   0   4  17  505.64   36.01
   0   4  18 1151.34   56.30
   0  -4  18 1379.40   63.11
   0   4  19  269.00   28.15
   0  -4  19  328.94   30.94
   0   4  20    1.67    4.63
   0  -4  20   -2.06    4.51
   0   4  21   35.69   11.85
   0  -4  21   60.78   14.01
   0   4  22   -3.29    7.41
   0  -4  22    6.47    7.16
   0   4  23   79.34   15.83
   0  -4  23   63.32   13.11
   0   4  24  204.46   25.09
   0  -4  24  175.79   24.87
   0   4  25   57.88   13.14
   0  -4  25   77.05   15.92
   0  -4  26    8.45    5.62
   0   4  26   18.57    9.15
   0   4  27   -4.40    5.87
   0  -4  27    0.25    6.94
   0  -4  28   29.14   12.34
   0   4  28   22.47    9.25
   0   4  29    3.78    4.86
   0  -4  29   20.86    9.38
   0   4  30    0.99    5.13
   0  -4  30    4.27    6.53
   0  -4  31    0.56    4.35
   0   4  31    6.52    7.40
   0  -5   0   -1.47    2.19
   0  -5   1   -1.77    2.49
   0  -5  -1    0.07    1.67
   0  -5  -2    1.28    0.78
   0  -5   2   -2.10    1.44
   0  -5   3    1.11    0.71
   0  -5   4   -0.65    0.85
   0   5   4   -0.69    2.93
   0   5   5   -1.77    1.83
   0  -5   5   -1.15    2.48
   0  -5   6    0.66    2.80
   0   5   6    2.90    3.04
   0  -5   7    0.69    2.70
   0   5   7    0.92    2.44
   0   5   8    0.89    4.72
   0  -5   8   -0.04    2.74
   0  -5   9    0.80    1.85
   0   5   9    0.73    2.56
   0   5  10   -1.31    1.20
   0  -5  10    1.56    2.68
   0   5  11    0.72    3.96
   0  -5  11    5.01    4.55
   0  -5  12   -0.01    2.20
   0   5  12   -1.11    3.30
   0   5  13   -1.94    4.08
   0  -5  13   -1.32    3.45
   0  -5  14    4.67    5.02
   0   5  14    2.43    2.39
   0   5  15   -2.05    3.51
   0  -5  15    2.54    3.62
   0  -5  16    2.55    5.60
   0   5  16    0.62    3.60
   0  -5  17    0.90    3.41
   0   5  17   -2.25    2.58
   0  -5  18   -0.20    3.58
   0   5  18   -0.32    1.46
   0  -5  19   -1.09    1.22
   0   5  19    3.13    4.53
   0  -5  20   -2.17    5.70
   0   5  20    1.47    2.46
   0   5  21    3.56    6.11
   0  -5  21   -0.05    4.98
   0  -5  22    6.98    7.71
   0   5  22    4.98    6.37
   0   5  23   -4.20    3.25
   0  -5  23    2.44    2.30
   0   5  24    6.15    7.59
   0  -5  24    7.27    6.64
   0  -5  25    9.56    7.56
   0   5  25    0.10    3.31
   0  -5  26   -1.59    1.77
   0   5  26    8.53    7.22
   0  -5  27   -0.25    4.64
   0   5  27    4.23    4.58
   0  -5  28   -2.99    6.46
   0   5  28   -3.27    3.89
   0  -5  29   -1.40    1.00
   0   5  29   -3.02    5.14
   0  -5  30   -4.71    2.87
   0   5  30   -3.15    6.53
   0   5  31   -2.01    0.33
   0  -5  31    8.92    7.27
   0  -6   0   18.62    5.43
   0  -6  -1 3584.75   73.77
   0  -6   1 3579.25   76.45
   0  -6  -2 1112.22   40.39
   0  -6   2 1110.49   41.80
   0  -6   3  215.14   18.75
   0  -6   4  552.85   29.05
   0   6   5   28.82    6.85
   0  -6   5   27.64    6.91
   0  -6   6    4.30    2.73
   0   6   6    7.20    4.13
   0  -6   7  282.85   22.06
   0   6   7  306.97   23.65
   0   6   8   43.46    9.61
   0  -6   8   42.16    9.28
   0   6   9   64.76   12.06
   0  -6   9   48.64   11.25
   0  -6  10   80.52   12.04
   0   6  10   59.84   10.83
   0  -6  11    0.84    1.57
   0   6  11    0.99    4.12
   0  -6  12 2699.98   76.79
   0   6  12 2623.77   78.57
   0  -6  13    5.66    5.10
   0   6  13    5.25    3.99
   0  -6  14  221.75   23.42
   0   6  14  267.04   25.37
   0  -6  15  510.69   35.61
   0   6  15  501.00   36.28
   0   6  16   45.16   10.70
   0  -6  16   79.20   14.77
   0  -6  17   85.23   15.34
   0   6  17   93.69   17.70
   0  -6  18  349.97   31.73
   0   6  18  326.68   31.43
   0   6  19  233.47   26.87
   0  -6  19  247.03   27.62
   0   6  20   55.17   12.69
   0  -6  20   49.86   12.40
   0   6  21  294.84   30.66
   0  -6  21  279.96   31.22
   0   6  22  130.09   21.07
   0  -6  22  168.09   24.50
   0  -6  23    8.26    8.08
   0   6  23   -0.95    3.45
   0   6  24   28.03    9.72
   0  -6  24   51.62   13.86
   0   6  25   59.01   14.80
   0  -6  25   86.58   16.89
   0   6  26   80.34   17.35
   0  -6  26  118.41   21.50
   0   6  27   -1.04    2.35
   0  -6  27   -0.20    5.26
   0   6  28   57.63   15.58
   0  -6  28   51.13   14.78
   0  -6  29   18.40    9.84
   0   6  29    2.14    0.73
   0  -6  30    3.77    5.78
   0   6  30    1.67    3.77
   0  -7   0   -2.51    2.83
   0  -7   1    1.29    2.45
   0  -7  -1    3.58    4.16
   0  -7  -2    2.14    3.38
   0  -7   2    1.07    1.35
   0  -7  -3   -2.46    2.98
   0  -7   3   -0.53    0.72
   0  -7   4   -0.65    2.81
   0  -7   5    0.30    3.26
   0  -7   6   -3.07    4.53
   0   7   6   -2.09    2.00
   0   7   7   -0.76    1.62
   0  -7   7   -0.63    1.79
   0  -7   8    0.59    2.59
   0   7   8    0.63    0.42
   0   7   9   -0.50    2.29
   0  -7   9   -0.99    3.75
   0   7  10    2.05    3.72
   0  -7  10   -2.43    3.94
   0  -7  11   -1.41    0.41
   0   7  11   -4.37    5.43
   0  -7  12   -1.81    3.41
   0   7  12    4.36    3.62
   0  -7  13    2.84    4.79
   0   7  13    1.09    1.96
   0  -7  14   -2.07    3.19
   0   7  14   -1.62    3.02
   0  -7  15   -1.18    3.32
   0   7  15   -0.35    2.62
   0  -7  16   -0.53    3.00
   0   7  16   -4.24    2.85
   0   7  17   -3.39    2.50
   0  -7  17    0.46    2.35
   0   7  18    4.02    6.15
   0  -7  18   -0.85    4.50
   0   7  19   -3.12    3.48
   0  -7  19    2.99    3.77
   0  -7  20    1.16    2.72
   0   7  20   -5.19    6.68
   0  -7  21    4.12    2.88
   0   7  21    1.52    8.05
   0  -7  22    0.30    7.24
   0   7  22   -4.05    2.57
   0  -7  23   -4.07    7.65
   0   7  23   -4.96    6.00
   0  -7  24   -0.80    4.29
   0   7  24   -1.78    3.12
   0   7  25   -3.24    1.64
   0  -7  25    0.67    6.03
   0  -7  26    0.74    5.85
   0   7  26   -3.64    3.36
   0   7  27    3.48    3.65
   0  -7  27   -1.55    4.19
   0  -7  28   -0.03    3.99
   0   7  28    2.36    5.43
   0   7  29    0.55    0.67
   0  -7  29    2.94    3.30
   0  -8   0  383.34   27.74
   0  -8   1   10.57    3.02
   0  -8  -1   14.49    5.45
   0  -8   2   35.78    9.03
   0  -8  -2   35.73    8.49
   0  -8   3   18.94    6.12
   0  -8  -3   18.05    7.24
   0  -8  -4  151.01   17.66
   0  -8   4  145.40   17.59
   0  -8   5   57.24   10.61
   0  -8  -5   78.38   12.97
   0  -8   6  220.89   21.69
   0  -8   7  993.07   47.48
   0   8   8  375.92   29.92
   0  -8   8  323.31   26.67
   0  -8   9  136.11   18.01
   0   8   9  221.48   23.07
   0   8  10  100.65   15.62
   0  -8  10  122.77   17.49
   0   8  11 1365.96   59.25
   0  -8  11 1298.10   56.81
   0   8  12   44.72   11.36
   0  -8  12   40.93   11.21
   0  -8  13  139.11   18.92
   0   8  13  152.46   20.66
   0  -8  14   95.98   16.30
   0   8  14  124.56   18.91
   0  -8  15  594.43   40.71
   0   8  15  640.91   43.17
   0  -8  16    4.22    6.76
   0   8  16    4.08    2.05
   0  -8  17  526.73   40.78
   0   8  17  438.96   36.62
   0  -8  18   50.60   13.90
   0   8  18   73.61   16.97
   0  -8  19  139.64   21.53
   0   8  19   95.24   17.34
   0   8  20    0.38    3.55
   0  -8  20    0.97    4.30
   0   8  21  154.30   23.39
   0  -8  21   93.83   18.37
   0  -8  22    4.01    4.50
   0   8  22    2.63    4.36
   0  -8  23   70.88   17.14
   0   8  23   50.86   14.41
   0   8  24   -0.43    3.99
   0  -8  24   22.54   10.75
   0   8  25  132.14   22.03
   0  -8  25  152.86   25.80
   0   8  26   11.73    9.18
   0  -8  26   13.60    9.14
   0  -8  27   24.66   11.48
   0   8  27   19.36    6.34
   0   8  28   -7.24    2.75
   0  -8  28    5.15    5.37
   0  -9   0   -1.10    2.61
   0  -9   1    2.74    4.68
   0  -9  -1    1.06    1.25
   0  -9   2    1.85    4.98
   0  -9  -2   -1.01    2.42
   0  -9  -3    0.71    3.13
   0  -9   3   -1.29    3.58
   0  -9  -4   -0.62    3.65
   0  -9   4   -0.95    2.18
   0  -9   5    1.22    3.18
   0  -9  -5   -1.02    1.87
   0  -9   6    1.52    2.15
   0  -9  -6   -2.90    5.09
   0  -9   7    1.90    4.01
   0  -9   8    2.84    2.35
   0   9   9    2.32    5.01
   0  -9   9    1.85    2.73
   0   9  10    2.70    3.49
   0  -9  10   -2.50    3.89
   0   9  11   -0.68    3.36
   0  -9  11   -1.59    4.08
   0   9  12    1.25    0.45
   0  -9  12    7.84    4.23
   0  -9  13    0.41    2.05
   0   9  13    3.31    3.79
   0  -9  14   -3.51    4.13
   0   9  14    4.98    4.77
   0   9  15    0.95    2.00
   0  -9  15    0.82    4.62
   0   9  16   -4.60    2.69
   0  -9  16   -1.48    1.97
   0   9  17    1.48    7.35
   0  -9  17    8.50    2.31
   0  -9  18   -4.92    7.32
   0   9  18    2.46    4.40
   0  -9  19   -1.62    5.12
   0   9  19    0.86    2.20
   0  -9  20   -3.16    4.18
   0   9  20    7.01    8.69
   0   9  21    4.35    2.73
   0  -9  21   -0.03    3.35
   0   9  22    2.84    3.31
   0  -9  22    2.60    4.55
   0  -9  23    4.81    3.31
   0   9  23   -5.18    6.11
   0   9  24    1.20    4.69
   0  -9  24    5.88    2.52
   0  -9  25   -3.20    4.55
   0   9  25   -1.09    4.88
   0  -9  26   -3.72    5.76
   0   9  26   -3.30    4.79
   0  -9  27    5.35    6.33
   0   9  27   -2.83    2.35
   0 -10   0   18.85    6.55
   0 -10  -1    7.08    2.38
   0 -10   1   19.75    6.76
   0 -10   2   -1.00    4.70
   0 -10  -2    4.58    3.83
   0 -10   3    4.99    3.30
   0 -10  -3    1.71    5.36
   0 -10   4  244.66   24.86
   0 -10  -4  203.79   22.78
   0 -10   5  179.14   20.99
   0 -10  -5  201.86   22.87
   0 -10   6  189.89   22.12
   0 -10  -6  157.97   20.07
   0 -10  -7   66.42   13.70
   0 -10   7   76.75   14.39
   0 -10   8  512.11   37.18
   0 -10   9   32.54    8.66
   0 -10  10    1.63    6.22
   0 -10  11  285.46   29.06
   0  10  12   88.07   15.29
   0 -10  12   69.40   14.24
   0  10  13   38.26   10.82
   0 -10  13   42.02   11.79
   0  10  14  235.50   28.00
   0 -10  14  214.24   25.82
   0 -10  15    3.19    4.01
   0  10  15   -0.89    2.30
   0 -10  16   -0.07    5.17
   0  10  16   -0.54    3.13
   0  10  17    2.43    4.25
   0 -10  17    2.78    4.98
   0 -10  18  104.25   19.15
   0  10  18   84.42   17.53
   0  10  19    5.37    6.18
   0 -10  19    8.08    5.82
   0  10  20   11.52    9.52
   0 -10  20    9.74    6.41
   0 -10  21   21.88    7.83
   0  10  21   16.77    7.87
   0 -10  22  197.28   28.70
   0 -10  23   -7.39    7.20
   0  10  23    5.23    5.76
   0 -10  24   16.05    8.44
   0  10  24    7.80    2.42
   0  10  25   41.05   12.78
   0 -10  25   39.00   14.00
   0  10  26   31.47   11.51
   0 -10  26   37.81   15.06
   0 -11   0    0.20    3.06
   0 -11   1   -0.50    3.60
   0 -11  -1   -1.61    1.46
   0 -11  -2    3.99    5.80
   0 -11   2    2.06    5.03
   0 -11  -3    0.87    4.41
   0 -11   3    0.20    1.93
   0 -11   4   -3.52    2.29
   0 -11  -4    0.08    2.19
   0 -11  -5    6.52    6.16
   0 -11   5    2.92    5.91
   0 -11   6   -2.27    3.57
   0 -11  -6    0.93    3.88
   0 -11  -7    1.08    1.21
   0 -11   7    7.79    5.52
   0 -11   8    0.20    1.30
   0 -11  -8   -1.21    0.94
   0 -11  -9    3.10    4.91
   0 -11   9   -1.36    2.62
   0 -11  10   -0.64    2.14
   0 -11  11    3.96    3.87
   0 -11  12    0.57    1.13
   0 -11  13   -3.64    6.70
   0 -11  14   -1.90    4.90
   0  11  14   -2.32    4.85
   0  11  15    3.40    6.75
   0 -11  15    2.31    4.46
   0  11  16    2.80    5.33
   0 -11  16   -1.65    1.97
   0  11  17    1.04    0.28
   0 -11  17    8.92    7.50
   0 -11  18    2.53    1.38
   0  11  18   -1.41    3.45
   0  11  19   -1.65    0.51
   0 -11  19   -0.48    1.12
   0 -11  20   -6.48    5.73
   0  11  20    3.39    0.95
   0 -11  21   -4.40    5.79
   0  11  21    2.04    5.42
   0  11  22   -3.09    5.00
   0 -11  22   10.72    8.89
   0  11  23    6.01    5.69
   0 -11  23    3.83    8.52
   0  11  24    3.38    6.05
   0 -11  24    3.30    3.55
   0 -12   0  126.51   19.49
   0 -12  -1   16.13    9.02
   0 -12   1    4.25    4.42
   0 -12   2    1.22    4.23
   0 -12  -2   -0.65    4.49
   0 -12   3   87.30   16.40
   0 -12  -3  115.19   18.14
   0 -12   4    0.37    2.56
   0 -12  -4   -2.31    4.28
   0 -12   5   70.18   13.66
   0 -12  -5   85.44   16.06
   0 -12  -6    9.29    5.89
   0 -12   6    8.39    5.51
   0 -12  -7    9.92    5.79
   0 -12   7   31.31   10.44
   0 -12  -8    8.72    2.98
   0 -12   8   19.03    7.77
   0 -12   9   11.99    3.36
   0 -12  -9   21.26    8.22
   0 -12 -10  190.54   24.53
   0 -12  10  186.26   25.25
   0 -12  11  101.11   17.31
   0 -12 -11  120.57   20.36
   0 -12  12   57.15   15.20
   0 -12 -12   23.96    9.08
   0 -12  13    1.46    0.90
   0 -12  14    7.36    6.70
   0 -12  15    2.43    4.80
   0 -12  16   -3.78    6.43
   0  12  17    2.96    5.01
   0 -12  17    7.80    4.15
   0 -12  18   10.22    5.34
   0  12  18   11.53    6.29
   0  12  19    0.05    4.08
   0 -12  19   -3.70    5.08
   0  12  20    3.96    5.00
   0 -12  20   10.03    6.09
   0  12  21   12.25    7.74
   0 -12  21   12.27    6.42
   0  12  22   -0.14    4.16
   0 -12  22   -0.06    4.66
   0 -13   0    2.45    1.38
   0 -13  -1   -1.67    3.87
   0 -13   1    2.19    2.70
   0 -13  -2    5.57    6.07
   0 -13   2   -1.30    4.24
   0 -13   3    3.23    2.61
   0 -13  -3    4.09    6.22
   0 -13   4   -3.70    5.10
   0 -13  -4   -4.06    7.04
   0 -13   5    0.46    4.87
   0 -13  -5    3.00    5.44
   0 -13  -6   -2.94    3.33
   0 -13   6   -0.89    4.24
   0 -13  -7   -2.02    0.28
   0 -13   7    2.30    8.47
   0 -13   8    0.60    4.79
   0 -13  -8    9.82    7.53
   0 -13  -9   -2.78    3.89
   0 -13   9    6.85    6.39
   0 -13  10   -1.42    1.81
   0 -13 -10    4.86    4.62
   0 -13 -11   -1.06    5.50
   0 -13  11    3.50    3.62
   0 -13 -12    2.94    5.85
   0 -13  12   -1.68    3.79
   0 -13 -13    4.96    6.45
   0 -13  13    2.63    6.57
   0 -13 -14    2.54    4.84
   0 -13  14    8.78    5.95
   0 -13  15   -5.58    4.23
   0 -13  16   -1.28    4.05
   0 -13  17    2.48    5.91
   0 -13  18   -0.03    4.37
   0 -13  19    2.46    5.13
   0 -13  20   -5.81    6.89
   0 -14   0   35.68   11.21
   0 -14  -1   40.68   12.39
   0 -14   1   39.52   12.63
   0 -14  -2   -1.19    3.38
   0 -14   2    0.74    4.36
   0 -14   3   10.20    7.39
   0 -14  -3   15.99    7.29
   0 -14  -4   17.11    9.73
   0 -14   4    8.36    5.73
   0 -14  -5   -2.46    5.62
   0 -14   5    3.27    0.65
   0 -14  -6   22.10    9.32
   0 -14   6   27.11    9.92
   0 -14   7   45.35   12.03
   0 -14  -7   74.16   16.57
   0 -14  -8   66.66   15.45
   0 -14   8   54.72   13.51
   0 -14  -9    5.56    6.51
   0 -14   9    1.44    5.05
   0 -14 -10   71.63   16.57
   0 -14  10   56.24   15.34
   0 -14 -11    2.73    6.16
   0 -14  11    6.96    7.15
   0 -14 -12   20.68    6.31
   0 -14  12   21.56    7.66
   0 -14 -13   42.06   12.16
   0 -14  13   47.19   12.66
   0 -14 -14   28.34   11.68
   0 -14  14   25.50    9.41
   0 -14  15    2.96    5.73
   0 -14 -15   -8.61    6.11
   0 -14  16   11.13    6.51
   0 -14 -16   12.60    7.81
   0 -14  17   13.66   10.13
   0 -14 -17   -0.68    5.99
   0 -15   0    5.50    5.15
   0 -15   1   -3.05    4.16
   0 -15  -1   -7.01    5.17
   0 -15  -2    0.79    4.44
   0 -15   2    2.33    2.48
   0 -15  -3    0.27    1.41
   0 -15   3    5.83    8.50
   0 -15  -4   -1.52    2.86
   0 -15   4    0.74    3.33
   0 -15   5    1.95    2.18
   0 -15  -5    6.67    6.41
   0 -15  -6    1.54    4.28
   0 -15   6    5.03    6.48
   0 -15  -7   -2.79    5.12
   0 -15   7    1.41    1.34
   0 -15  -8    2.19    3.38
   0 -15   8    2.79    5.94
   0 -15   9   -5.06    4.78
   0 -15  -9   -1.86    3.25
   0 -15  10    5.89    5.78
   0 -15 -10    4.30    7.77
   0 -15  11   -5.03    2.80
   0 -15 -11    8.97    9.86
   0 -15  12    4.53    4.51
   0 -15 -12    3.60    6.38
   0 -15 -13   -8.96    7.12
   0 -15  13   -1.74    5.43
   0 -15  14   14.41    9.41
   0 -15 -14    1.35    2.24
   0 -16   0   80.08   17.16
   0 -16   1    6.07    4.43
   0 -16  -1    1.66    6.48
   0 -16   2    7.61    4.29
   0 -16  -2   15.07    5.81
   0 -16  -3    3.49    4.15
   0 -16   3   14.96    9.53
   0 -16  -4  126.05   24.14
   0 -16   4  135.14   23.71
   0 -16  -5    8.88    5.90
   0 -16   5    4.66    3.45
   0 -16   6    9.34    6.81
   0 -16  -6   -0.59    4.92
   0 -16  -7   24.04   10.57
   0 -16   7   29.27   11.27
   0 -16   8   16.21    8.69
   0 -16  -8   10.57    6.03
   0 -16  -9   25.63   12.49
   0 -16   9    6.09    3.07
   1   0   1   -0.72    0.70
   1   0   2 2737.15   31.51
  -1   0   2 2625.94   25.80
   1   0   3    0.42    1.28
  -1   0   3    0.47    0.28
  -1   0   4 1826.26   32.21
   1   0   4 1850.00   34.44
  -1   0   5   -0.21    0.88
   1   0   5    1.54    1.40
   1   0   6 3423.57   57.69
  -1   0   6 3413.29   53.57
  -1   0   7   -0.08    1.90
   1   0   7   -0.62    1.77
   1   0   8 3025.90   60.87
  -1   0   8 3144.72   59.52
  -1   0   9   -1.31    1.99
   1   0   9    0.78    3.69
  -1   0  10    3.39    3.88
   1   0  10    1.57    1.73
   1   0  11   -0.44    1.26
  -1   0  11    0.25    1.45
  -1   0  12 1607.85   52.87
   1   0  12 1600.37   52.76
   1   0  13   -2.24    2.75
  -1   0  13   -0.45    2.94
  -1   0  14  629.90   35.77
   1   0  14  665.64   36.84
  -1   0  15    1.52    1.77
   1   0  15   -0.95    2.37
  -1   0  16 1854.31   67.14
   1   0  16 2013.24   69.49
  -1   0  17   -2.92    2.99
   1   0  17    1.12    4.48
  -1   0  18    2.23    3.99
   1   0  18    2.91    5.93
  -1   0  19   -0.88    3.38
   1   0  19    4.96    5.41
  -1   0  20   98.76   16.68
   1   0  20   80.84   15.87
  -1   0  21    0.61    3.31
   1   0  21   -0.24    3.55
  -1   0  22   39.60   11.27
   1   0  22   39.94   11.40
   1   0  23   -0.14    2.35
  -1   0  23    3.18    6.56
   1   0  24  269.39   31.22
  -1   0  24  238.43   29.42
  -1   0  25    1.61    5.03
   1   0  25    3.11    7.23
   1   0  26  309.66   34.31
  -1   0  26  321.46   34.85
   1   0  27   -1.50    3.24
  -1   0  27    0.88    2.31
  -1   0  28   -0.16    1.23
   1   0  28    9.06    5.03
  -1   0  29    2.49    6.09
   1   0  29    0.44    3.24
  -1   0  30   14.77    9.51
   1   0  30   10.60    4.40
  -1   0  31   -0.36    3.13
   1   0  31    6.92    9.31
  -1   0  32    8.01    6.28
   1   0  32    7.68    9.66
   1  -1   0    0.18    0.46
   1  -1   1 1032.26   20.70
   1   1   1  991.86   15.86
   1  -1   2 3223.08   40.10
   1   1   2 3201.92   36.24
   1  -1   3  512.00   17.56
  -1   1   3  488.53   16.61
  -1  -1   3  450.50   12.68
   1   1   3  548.15   17.34
  -1  -1   4  173.28    9.31
   1  -1   4  136.71    9.97
  -1   1   4  159.64   10.19
   1   1   4  166.74   10.68
  -1   1   5  596.66   21.68
  -1  -1   5  628.61   20.38
   1   1   5  611.01   22.83
   1  -1   5  591.08   22.31
   1  -1   6  123.69   10.93
   1   1   6  124.94   11.30
  -1   1   6  142.61   11.48
  -1  -1   6  124.10   10.15
  -1   1   7  342.82   19.30
   1   1   7  322.16   19.29
  -1  -1   7  369.71   18.44
   1  -1   7  381.57   20.47
  -1   1   8  363.52   20.97
   1  -1   8  361.22   20.83
  -1  -1   8  343.88   19.09
   1   1   8  347.11   21.58
   1   1   9   83.41   10.98
  -1   1   9   90.53   10.99
   1  -1   9  104.88   12.02
  -1  -1   9   97.08   10.58
  -1   1  10   41.50    8.22
   1   1  10   26.76    6.87
  -1  -1  10   23.07    6.17
   1  -1  10   31.09    7.77
  -1  -1  11  271.29   20.42
   1   1  11  272.27   22.10
  -1   1  11  292.79   22.41
   1  -1  11  248.82   21.43
   1   1  12   41.67    9.11
  -1  -1  12   41.86    8.84
  -1   1  12   48.64    9.96
   1  -1  12   36.56    8.14
   1   1  13  595.89   34.14
   1  -1  13  523.03   31.95
  -1  -1  13  648.51   34.97
  -1   1  13  636.44   35.29
   1   1  14   80.75   13.21
  -1  -1  14   83.06   12.39
  -1   1  14   88.53   13.83
   1  -1  14   70.33   11.68
   1  -1  15   62.28   11.76
  -1  -1  15   83.96   13.40
   1   1  15   73.73   12.50
  -1   1  15   91.81   14.73
   1   1  16  107.33   16.12
  -1  -1  16  141.31   17.84
   1  -1  16  168.37   19.73
  -1   1  16  168.57   20.41
   1   1  17  720.05   42.82
  -1   1  17  706.48   42.88
  -1  -1  17  679.91   40.79
   1  -1  17  648.24   39.83
   1   1  18    2.00    3.03
   1  -1  18   -1.20    2.34
  -1  -1  18    0.95    2.56
  -1   1  18    6.10    5.12
   1   1  19    0.49    3.83
   1  -1  19    6.88    3.22
  -1  -1  19    6.67    4.07
  -1   1  19   13.58    5.48
  -1  -1  20  444.80   35.39
   1  -1  20  420.07   35.01
   1   1  20  446.47   36.82
  -1   1  20  435.09   35.57
   1  -1  21   -0.86    3.28
  -1   1  21    4.52    4.22
   1   1  21    4.80    4.58
  -1  -1  21   -3.04    4.59
   1   1  22   72.57   16.50
  -1   1  22   89.65   17.37
   1  -1  22   80.53   16.39
  -1  -1  22   81.62   15.32
   1   1  23   79.77   16.85
   1  -1  23   82.48   17.17
  -1  -1  23   73.88   16.71
  -1   1  23   64.07   15.41
  -1   1  24    0.36    6.17
  -1  -1  24    3.55    7.17
   1  -1  24    0.93    7.22
   1   1  24   -1.47    3.10
  -1  -1  25   52.89   13.25
  -1   1  25   55.11   13.97
   1  -1  25   63.17   14.78
   1   1  25   80.42   16.46
  -1   1  26   45.16   12.92
  -1  -1  26   43.88   12.93
   1   1  26   53.74   15.92
   1  -1  26   59.86   14.71
  -1  -1  27    3.69    2.76
   1  -1  27    0.32    3.46
  -1   1  27    5.55    7.23
   1   1  27   -4.51    0.89
   1  -1  28   -0.22    3.92
   1   1  28    9.51    9.55
  -1   1  28    3.92    5.19
  -1  -1  28   -0.03    6.48
  -1   1  29    6.78    5.21
   1   1  29   -1.71    5.04
   1  -1  29    1.09    6.21
  -1  -1  29    4.47    7.22
   1  -1  30    1.78    3.82
   1   1  30   10.46    6.77
  -1   1  30    1.81    7.15
  -1  -1  30    0.59    4.48
   1  -1  31   19.59   10.13
  -1  -1  31    7.73    6.84
  -1   1  31    9.22    8.98
   1   1  31   14.13    7.73
  -1  -1  32   20.58    9.38
   1   1  32   14.88    9.57
  -1   1  32   36.51   13.13
   1  -1  32   16.34    8.26
   1  -2   0   -0.31    0.68
  -1  -2   1  112.89    6.53
   1  -2  -1  121.50    9.04
   1   2   1  121.72    7.29
   1  -2   1  115.68    8.94
  -1  -2   2  467.49   13.50
  -1   2   2  445.48   17.69
   1  -2   2  448.89   17.84
   1   2   2  477.65   16.14
   1  -2   3 8263.32   81.72
  -1  -2   3 8112.49   63.35
   1   2   4  315.52   15.82
  -1  -2   4  278.36   12.71
   1  -2   4  299.55   16.01
  -1   2   5 6937.71   82.92
  -1  -2   5 6870.39   69.87
   1   2   5 6852.64   80.95
  -1   2   6  880.57   30.41
   1  -2   6  901.67   30.76
   1   2   6  909.17   31.55
  -1  -2   7  308.93   17.45
  -1   2   7  336.59   19.46
   1   2   7  292.59   19.02
   1  -2   7  303.24   18.80
   1  -2   8   66.31    9.08
  -1   2   8  101.17   10.95
  -1  -2   8   76.36    9.28
   1   2   8   90.38   11.10
  -1  -2   9  491.85   24.97
  -1   2   9  540.45   27.66
   1   2   9  561.30   29.17
   1  -2   9  514.94   27.32
  -1  -2  10 2618.74   62.32
   1   2  10 2512.53   65.43
   1  -2  10 2460.14   62.91
   1  -2  11  164.58   17.31
  -1   2  11  174.77   17.59
   1   2  11  178.19   18.02
  -1  -2  11  166.61   16.32
  -1  -2  12   52.24    9.21
   1  -2  12   33.34    7.17
   1   2  12   49.12    9.44
  -1   2  12   34.25    7.95
  -1   2  13  676.04   36.42
  -1  -2  13  606.71   33.23
   1  -2  13  607.91   34.67
   1   2  13  564.43   33.92
  -1  -2  14   66.32   11.34
  -1   2  14   73.14   12.11
   1   2  14   56.58   11.76
   1  -2  14   60.74   11.42
   1  -2  15  470.95   32.82
  -1   2  15  518.24   33.96
  -1  -2  15  490.96   32.19
   1   2  15  542.44   35.50
   1   2  16  130.51   18.20
  -1  -2  16  114.19   16.33
   1  -2  16  149.03   19.44
  -1   2  16   91.83   15.21
   1   2  17   68.44   13.38
   1  -2  17   65.42   13.83
  -1  -2  17   49.96   11.32
  -1   2  17   64.20   12.99
  -1  -2  18   12.86    6.99
   1   2  18   -1.49    2.61
   1  -2  18    7.78    5.99
  -1   2  18   10.69    5.34
   1   2  19   97.14   17.33
  -1  -2  19  106.99   16.31
  -1   2  19   70.16   13.73
   1  -2  19   59.42   13.26
   1  -2  20  807.30   49.42
   1   2  20  858.78   50.89
  -1   2  20  868.46   49.88
  -1  -2  20  764.26   47.59
  -1  -2  21   42.16   11.80
   1   2  21   56.87   13.18
   1  -2  21   34.04    9.97
  -1   2  21   67.98   13.66
  -1   2  22   32.12    9.70
   1  -2  22   35.20   10.42
   1   2  22   35.98   10.62
  -1  -2  22   25.15    9.75
  -1  -2  23   66.17   14.61
   1   2  23   70.82   14.74
   1  -2  23   71.77   16.53
  -1   2  23   73.51   16.32
   1   2  24   20.82    9.49
  -1  -2  24   26.73    9.11
  -1   2  24   16.10    7.92
   1  -2  24   20.72    7.47
   1  -2  25    4.20    3.75
  -1  -2  25    9.42    7.92
  -1   2  25    6.06    3.16
   1   2  25    9.59    5.99
   1  -2  26   31.04   10.61
  -1   2  26   32.47   10.96
  -1  -2  26   40.65   11.66
   1   2  26   56.15   13.86
   1  -2  27   77.38   17.05
   1   2  27  100.47   20.27
  -1   2  27  103.81   20.42
  -1  -2  27  106.22   20.67
   1   2  28    5.07    1.90
   1  -2  28   -2.03    2.40
  -1   2  28   -3.49    5.70
  -1  -2  28    7.22    5.16
   1   2  29    6.09    2.17
  -1   2  29   19.01   12.10
  -1  -2  29   21.86   10.80
   1  -2  29   13.01    7.23
  -1  -2  30   32.86   13.35
   1   2  30   43.37   14.29
   1  -2  30   18.86    8.16
  -1   2  30   28.52   10.76
  -1  -2  31    8.80    7.34
   1  -2  31   30.85   12.74
   1   2  31   14.97    8.27
  -1   2  31   21.75   10.20
   1   2  32   -2.50    3.25
  -1   2  32    1.26    5.58
  -1  -2  32    0.22    3.81
   1  -2  32   -5.87    7.99
   1  -3   0   -0.58    1.23
  -1  -3   0    1.23    1.08
   1   3   1 1668.95   33.58
   1  -3  -1 1754.31   39.81
   1  -3   1 1800.36   41.06
   1  -3   2  446.11   20.75
  -1  -3   2  413.15   16.48
   1   3   2  389.26   17.47
   1  -3   3 2450.00   47.90
  -1  -3   3 2388.77   39.92
   1   3   4  271.36   16.05
  -1  -3   4  279.74   14.44
  -1   3   4  260.41   17.08
   1  -3   4  295.00   17.61
  -1  -3   5  783.29   25.99
   1   3   5  728.85   26.91
   1  -3   5  814.07   30.15
  -1   3   5  752.38   29.31
  -1   3   6  499.75   25.22
  -1  -3   6  506.23   21.97
   1  -3   6  473.23   24.20
   1   3   7   78.66   10.04
   1  -3   7   91.74   10.92
  -1   3   7   97.92   11.56
  -1  -3   7   83.96    9.67
  -1  -3   8 2550.40   54.55
  -1   3   8 2530.88   60.36
   1   3   8 2642.69   61.42
   1  -3   8 2527.43   59.34
  -1   3   9  243.63   19.15
   1  -3   9  264.77   19.95
  -1  -3   9  268.48   18.96
   1   3   9  242.77   19.50
   1  -3  10  542.15   30.67
  -1   3  10  577.59   30.60
   1   3  10  630.52   32.83
  -1  -3  10  515.23   27.82
  -1   3  11   60.82   10.50
   1  -3  11   70.00   11.30
   1   3  11   57.07   10.04
  -1  -3  11   65.59   10.26
  -1  -3  12  101.53   13.46
   1   3  12  104.17   14.26
   1  -3  12   95.40   13.48
  -1   3  12  121.78   15.04
  -1   3  13    3.88    2.79
   1   3  13    6.11    3.42
  -1  -3  13    6.48    4.97
   1  -3  13    5.82    3.51
   1  -3  14  106.88   15.35
  -1   3  14   94.21   14.18
  -1  -3  14   77.25   13.08
   1   3  14  104.90   15.25
  -1   3  15    0.40    3.21
  -1  -3  15   -1.48    3.40
   1  -3  15    5.95    5.60
   1   3  15   -2.00    2.31
  -1   3  16    1.26    4.67
   1  -3  16    0.21    1.31
  -1  -3  16   -0.15    1.12
   1   3  16    1.01    2.81
  -1   3  17   39.58    9.98
   1  -3  17   32.79    8.36
  -1  -3  17   45.39   11.91
   1   3  17   37.45   11.01
   1  -3  18   42.46   11.38
  -1  -3  18   57.17   13.17
   1   3  18   32.51    9.30
  -1   3  18   67.70   14.11
  -1  -3  19  561.95   40.40
  -1   3  19  526.89   39.05
   1  -3  19  563.03   40.60
   1   3  19  589.48   40.88
   1   3  20   86.28   16.24
  -1  -3  20  107.27   18.18
  -1   3  20  113.38   18.33
   1  -3  20   86.21   15.09
   1   3  21  136.18   20.47
  -1   3  21  122.77   19.70
   1  -3  21  114.28   19.29
  -1  -3  21  120.32   19.31
  -1   3  22   15.25    7.94
  -1  -3  22   11.63    7.38
   1   3  22   20.96    8.56
   1  -3  22   17.00    9.23
  -1   3  23   30.41   10.88
   1   3  23   38.53   11.39
   1  -3  23   37.63   11.05
  -1  -3  23   38.28   11.24
  -1   3  24   -3.27    4.13
   1  -3  24   -1.74    4.28
  -1  -3  24   -1.59    4.35
   1   3  24    2.93    5.09
  -1   3  25   42.58   12.71
   1  -3  25   35.48   11.40
   1   3  25   30.60   10.73
  -1  -3  25   17.39    8.04
  -1   3  26    9.28    5.53
  -1  -3  26    8.47    6.29
   1   3  26    6.95    3.75
   1  -3  26   21.10    8.16
  -1  -3  27   10.03    8.47
   1  -3  27    0.49    3.09
  -1   3  27    9.14    6.96
  -1   3  28    4.60    4.20
  -1  -3  28    5.92    4.30
   1   3  28    4.49    2.73
   1  -3  28   14.77   10.35
  -1  -3  29    2.68    1.25
   1   3  29    8.51    7.34
  -1   3  29   -3.38    6.73
   1  -3  29   -0.50    1.71
   1   3  30    3.37    7.06
  -1   3  30   -4.38    5.82
  -1  -3  30    3.51    2.23
   1  -3  30   12.53    9.14
   1   3  31   13.58    9.24
  -1   3  31   20.56    7.62
  -1  -3  31   12.49    6.94
   1  -3  31   23.78    8.36
   1   3  32   -5.37    6.97
  -1  -3  32    4.22    3.32
   1  -3  32   -1.55    5.23
  -1   3  32   -1.42    2.85
   1  -4   0    0.34    1.70
  -1  -4   0    1.41    1.44
   1  -4  -1   17.05    4.76
   1  -4   1   12.55    3.61
  -1  -4   1   17.90    4.15
   1  -4   2 1929.07   48.16
  -1  -4   2 1887.80   41.93
   1   4   2 1995.82   43.81
   1  -4   3   25.67    5.76
   1   4   3   26.68    5.13
  -1  -4   3   35.60    5.83
  -1  -4   4  672.60   25.44
  -1   4   4  647.97   28.58
   1   4   4  749.91   28.87
   1  -4   4  682.10   28.92
   1  -4   5  841.58   33.75
  -1   4   5  924.63   35.44
   1   4   5  978.19   34.61
  -1  -4   5  846.40   29.53
   1  -4   6  496.13   26.41
  -1  -4   6  495.71   23.97
   1   4   6  475.66   24.91
  -1  -4   7  974.18   34.42
   1   4   7 1074.66   38.86
   1  -4   7 1080.78   40.92
  -1   4   7 1094.90   40.92
   1  -4   8 1698.00   51.31
   1   4   8 1691.66   49.58
  -1   4   8 1761.89   54.27
   1   4   9 1520.34   49.57
   1  -4   9 1486.43   49.47
  -1   4   9 1503.34   51.08
  -1  -4   9 1495.95   46.70
  -1   4  10  432.04   28.32
   1  -4  10  407.34   26.86
  -1  -4  10  400.62   24.82
   1   4  10  467.22   28.20
  -1  -4  11    9.90    4.34
   1   4  11    1.66    2.65
   1  -4  11    7.75    3.07
  -1   4  11    4.49    2.80
  -1   4  12   66.78   11.63
   1  -4  12   62.48   11.33
  -1  -4  12   62.73   10.70
   1   4  12   52.71   10.50
   1  -4  13   75.23   12.34
  -1   4  13   67.48   12.21
   1   4  13   79.93   13.21
  -1  -4  13   71.30   12.25
  -1   4  14  330.37   27.10
  -1  -4  14  346.67   27.81
   1  -4  14  344.74   28.10
   1   4  14  324.77   28.07
   1   4  15   19.60    7.18
   1  -4  15   26.80    8.47
  -1  -4  15   12.44    5.67
  -1  -4  16   19.22    7.30
   1  -4  16   37.45    9.60
  -1   4  16   19.96    5.11
   1   4  16   27.07    7.92
  -1  -4  17  302.01   28.78
  -1   4  17  294.12   27.58
   1  -4  17  265.55   26.59
   1   4  17  251.33   26.02
   1  -4  18  152.66   20.34
   1   4  18  203.14   23.51
  -1  -4  18  158.77   20.75
  -1   4  18  142.21   19.70
  -1   4  19   76.15   15.19
   1  -4  19  141.68   20.95
   1   4  19  124.80   18.60
  -1  -4  19   83.67   15.81
   1   4  20   -1.22    2.91
  -1   4  20    1.01    2.52
   1  -4  20    1.38    7.27
  -1  -4  20    2.72    2.41
  -1   4  21   33.78   10.27
  -1  -4  21   57.98   14.01
   1  -4  21   38.28   11.99
   1   4  21   72.73   15.07
   1  -4  22   31.63   10.44
   1   4  22   36.73   11.97
  -1  -4  22   36.59   11.52
  -1   4  22   20.13    6.48
   1  -4  23  183.09   24.60
  -1   4  23  175.05   24.49
  -1  -4  23  200.65   26.54
   1   4  23  195.71   26.59
   1   4  24    6.89    4.84
  -1  -4  24    1.13    4.34
  -1   4  24    0.75    1.51
   1  -4  24    4.74    4.50
   1   4  25    5.86    6.59
   1  -4  25   -2.18    0.78
  -1  -4  25    1.50    3.69
  -1   4  25   -5.60    7.27
  -1   4  26    8.48    3.77
   1   4  26   15.15    8.76
   1  -4  26   22.80   10.37
  -1  -4  26   13.29    6.93
  -1   4  27    9.53    6.43
   1   4  27    5.69    2.96
  -1  -4  27    3.74    4.47
  -1  -4  28    2.88    3.36
   1   4  28   -5.60    7.26
   1  -4  28    1.11    3.54
  -1   4  28    0.98    1.71
  -1  -4  29    1.29    8.26
  -1   4  29    9.84    7.18
   1  -4  29   12.14    7.72
   1   4  29    1.30    2.25
  -1  -4  30   28.99   12.61
   1   4  30   14.35    7.36
   1  -4  30   26.71   10.17
  -1   4  30   28.14   11.06
   1   4  31   14.47    8.79
  -1  -4  31   14.82    9.99
  -1   4  31    0.86    4.77
   1  -4  31   27.15   13.18
   1  -5   0    0.53    1.01
  -1  -5   0   -1.40    1.15
   1  -5   1  638.07   30.45
   1  -5  -1  625.16   29.55
  -1  -5  -1  614.83   25.85
  -1  -5   1  616.85   26.48
  -1  -5   2    5.44    1.61
   1  -5   2    4.32    3.09
   1  -5  -2    1.21    2.76
  -1  -5   3   24.50    5.67
   1  -5   3   32.15    6.54
   1   5   3   26.06    5.75
   1   5   4   88.92   10.73
   1  -5   4   78.17   10.42
  -1  -5   4   69.86    8.95
  -1  -5   5   86.89   10.70
   1  -5   5   70.43   10.24
   1   5   5   84.75   11.21
  -1   5   5   80.00   10.98
  -1  -5   6   56.89    8.60
   1   5   6   61.86    9.57
   1  -5   6   66.32   10.51
   1   5   7   -0.02    2.63
  -1   5   7    4.39    3.99
   1  -5   7    2.60    1.56
  -1  -5   7   -0.22    1.37
  -1   5   8  653.20   34.97
  -1  -5   8  687.79   32.33
   1  -5   8  626.17   33.62
   1  -5   9  949.01   41.77
  -1  -5   9  938.14   38.87
   1   5   9  979.64   42.73
   1  -5  10    3.64    4.47
  -1  -5  10    0.44    2.67
   1   5  10    2.33    4.20
  -1   5  10    2.94    4.14
   1  -5  11  122.04   16.02
   1   5  11  147.85   17.85
  -1  -5  11  156.39   16.96
  -1   5  11  121.62   16.16
   1   5  12    6.81    4.01
   1  -5  12    7.48    4.81
  -1   5  12   -0.31    2.79
  -1  -5  12    5.72    4.37
   1  -5  13   33.23    9.27
   1   5  13   28.71    8.65
  -1  -5  13   50.81   11.02
  -1   5  13   41.00   10.19
   1  -5  14  175.58   20.14
   1   5  14  194.35   21.49
  -1  -5  14  184.26   20.11
  -1   5  14  157.02   20.14
  -1   5  15   95.05   16.48
  -1  -5  15   75.69   13.99
   1   5  15   71.06   12.59
   1  -5  15   56.96   12.11
  -1   5  16   63.87   13.28
   1  -5  16   82.25   15.67
   1   5  16   62.20   14.06
  -1  -5  16   70.87   12.60
   1   5  17   36.62    8.86
  -1   5  17   32.87    9.50
   1  -5  17   46.00   12.15
  -1  -5  17   36.65   10.21
   1   5  18    6.61    2.85
   1  -5  18    1.08    3.43
  -1   5  18   -1.67    0.97
  -1  -5  18    0.79    2.41
  -1  -5  19   47.50   12.58
   1   5  19   36.64   10.93
   1  -5  19   35.24   11.21
  -1   5  19   42.22   11.30
  -1   5  20   79.71   15.99
  -1  -5  20   65.91   14.14
   1   5  20   46.19   11.96
   1  -5  20   66.04   15.21
  -1  -5  21   58.74   13.73
  -1   5  21   45.13   10.73
   1  -5  21   48.32   13.08
   1   5  21   75.95   15.07
  -1   5  22   21.26    7.84
   1  -5  22    9.24    8.26
  -1  -5  22   16.83   10.11
   1  -5  23   12.50    7.32
  -1  -5  23    6.09    4.62
  -1   5  23    7.66    4.29
   1   5  23   11.42    5.63
  -1  -5  24    3.71    5.15
   1  -5  24    2.43    2.11
  -1   5  24    0.71    3.06
   1   5  24   -4.79    5.20
  -1  -5  25    7.76    2.49
   1  -5  25    7.52    2.93
   1   5  25   -2.31    2.30
  -1   5  25    0.59    3.08
  -1  -5  26   24.45    9.18
   1  -5  26   13.89    6.04
  -1   5  26   25.99    9.53
   1   5  26   11.89    8.57
  -1   5  27   -0.03    2.93
  -1  -5  27    0.46    4.42
   1   5  27   -1.24    1.82
   1  -5  27    2.13    4.80
   1  -5  28    5.84    5.23
   1   5  28   -5.77    5.57
  -1  -5  28   -0.30    4.54
  -1   5  28   -2.09    5.26
  -1   5  29   11.81    5.48
   1   5  29   14.72    7.74
  -1  -5  29    7.00    2.73
   1  -5  29   23.46    7.63
   1  -5  30   13.66    9.38
  -1  -5  30    9.95    5.30
   1   5  30    5.14    6.82
  -1   5  30   12.56    8.31
   1   5  31   16.21    9.49
  -1  -5  31   32.94   11.29
   1  -5  31   15.27    6.60
  -1   5  31   23.53   10.80
  -1  -6   0    1.53    2.65
   1  -6   0   -0.62    3.03
   1  -6  -1 1955.89   57.24
   1  -6   1 1836.14   57.00
  -1  -6   1 1791.42   50.79
  -1  -6  -1 1760.25   49.89
   1  -6   2   19.89    6.15
  -1  -6  -2   21.12    5.99
   1  -6  -2   22.73    6.64
  -1  -6   2   23.71    6.11
  -1  -6   3  462.84   26.27
   1  -6  -3  442.26   26.90
   1  -6   3  480.63   28.50
   1  -6   4   29.88    6.42
  -1  -6   4   35.41    7.53
   1   6   4   27.71    6.29
   1   6   5 1210.16   44.00
   1  -6   5 1258.12   46.41
  -1  -6   5 1231.31   42.70
  -1  -6   6   29.95    6.75
  -1   6   6   23.03    6.09
   1  -6   6   27.90    7.19
   1   6   6   38.18    7.82
  -1   6   7  210.30   19.59
   1   6   7  263.55   22.02
   1  -6   7  228.15   20.35
  -1  -6   7  230.21   18.96
   1  -6   8  106.51   14.33
   1   6   8  133.80   16.11
  -1  -6   8  152.73   16.29
   1   6   9  600.80   34.96
  -1  -6   9  564.48   31.56
   1  -6   9  625.05   35.64
  -1   6   9  587.02   35.13
  -1  -6  10  112.33   14.10
  -1   6  10  144.03   17.90
   1   6  10  125.00   16.52
   1  -6  10  118.74   15.75
  -1   6  11  354.72   27.81
   1   6  11  381.38   28.75
  -1  -6  11  380.91   27.59
   1  -6  11  404.49   29.73
   1  -6  12  340.23   27.71
  -1  -6  12  362.65   28.04
   1   6  12  365.68   28.97
  -1   6  12  385.45   29.98
  -1   6  13  197.18   22.51
  -1  -6  13  167.47   19.38
   1   6  13  200.11   22.60
   1  -6  13  175.66   20.52
  -1  -6  14   29.73    8.82
  -1   6  14   27.48    9.39
   1  -6  14   23.87    7.89
   1   6  14   22.76    7.03
   1  -6  15  173.48   21.40
   1   6  15  197.75   22.93
  -1  -6  15  135.12   18.94
  -1   6  15  167.00   21.04
   1  -6  16    0.98    3.03
  -1   6  16    7.39    6.93
   1   6  16    9.26    5.24
  -1  -6  16    9.40    7.95
  -1   6  17   -1.30    3.89
  -1  -6  17   -1.31    3.30
   1   6  17    0.12    3.10
   1  -6  17   -1.52    4.74
  -1  -6  18   11.98    5.42
  -1   6  18   16.85    7.46
   1  -6  18   11.80    4.99
   1   6  18   12.56    7.38
  -1   6  19    2.55    3.33
  -1  -6  19    9.90    5.77
   1  -6  19   -4.02    5.95
   1   6  19    2.63    0.83
   1  -6  20  139.01   21.00
  -1  -6  20  152.37   22.37
   1   6  20  135.90   20.61
  -1   6  20  104.10   18.66
   1  -6  21   -0.42    1.01
  -1  -6  21   -0.75    4.73
   1   6  21   -0.51    3.37
  -1   6  21   -0.71    2.12
  -1  -6  22  110.39   19.73
   1  -6  22   80.87   18.31
   1   6  22   92.73   17.48
  -1   6  22  109.50   19.66
  -1   6  23    6.01    4.77
  -1  -6  23   15.03    6.51
   1   6  23   26.87    9.18
   1  -6  23   10.99    5.54
   1   6  24    8.82    4.97
  -1  -6  24   16.59    6.43
  -1   6  24   23.12   11.15
  -1   6  25   -0.23    0.30
  -1  -6  25    4.35    2.35
   1  -6  25    1.71    1.05
   1   6  25   -0.84    7.10
  -1  -6  26   16.23    7.77
   1   6  26    0.66    3.45
  -1   6  26   12.05    8.06
   1  -6  26    3.87    4.12
   1   6  27   -0.31    1.94
   1  -6  27    7.07    5.37
  -1  -6  27   12.88    7.30
  -1   6  27    3.41    6.68
   1  -6  28   72.64   16.47
  -1  -6  28   71.17   15.81
  -1   6  28   61.64   15.69
   1   6  28   45.77   11.97
  -1   6  29   -3.10    6.20
  -1  -6  29    1.87    4.44
   1   6  29    1.44    3.91
   1  -6  29   -5.19    6.39
   1  -6  30   11.66    8.46
  -1  -6  30    7.97    7.73
   1   6  30   24.00   10.71
  -1   6  30   19.88    7.72
   1  -7   0   -1.40    0.59
  -1  -7   0    0.01    2.74
  -1  -7  -1  142.40   15.90
  -1  -7   1  147.03   16.33
   1  -7   1  151.52   17.12
   1  -7  -1  169.47   18.73
   1  -7  -2   13.07    3.93
   1  -7   2   14.52    6.08
  -1  -7   2   17.68    5.61
  -1  -7  -2   16.33    4.97
  -1  -7   3   15.73    5.97
  -1  -7  -3   10.75    3.81
   1  -7  -3   11.22    3.99
   1  -7   3   18.14    5.94
  -1  -7   4  161.03   16.39
   1  -7   4  178.11   18.07
   1  -7  -4  155.98   17.68
   1   7   5  525.87   31.86
  -1  -7   5  523.39   29.89
   1  -7   5  496.17   30.94
  -1  -7   6  122.41   14.61
   1  -7   6  138.26   16.59
   1   7   6  148.88   16.88
  -1   7   7   -1.86    0.56
   1  -7   7    0.22    1.04
  -1  -7   7    3.79    1.78
   1   7   7    6.83    5.06
  -1   7   8  139.04   16.95
   1   7   8  114.79   15.48
  -1  -7   8  173.63   18.42
   1  -7   8  118.13   15.46
   1  -7   9   40.08    9.48
  -1  -7   9   31.55    8.29
  -1   7   9   54.29   10.93
   1   7   9   29.46    8.06
  -1   7  10   80.04   13.80
  -1  -7  10  100.54   14.27
   1  -7  10   82.94   14.12
   1   7  10   78.72   12.77
  -1   7  11    3.29    3.43
   1   7  11    7.41    4.55
  -1  -7  11    6.19    3.23
   1  -7  11   12.06    6.15
  -1  -7  12   12.79    4.67
   1  -7  12   14.41    6.66
  -1   7  12   13.91    5.14
   1   7  12    4.01    4.16
   1   7  13  277.83   26.94
  -1  -7  13  262.23   24.93
  -1   7  13  300.67   28.67
   1  -7  13  341.40   29.37
   1  -7  14  466.58   35.34
  -1  -7  14  449.68   34.16
   1   7  14  463.85   35.70
  -1   7  14  507.31   36.99
  -1   7  15   -1.84    5.09
  -1  -7  15   -0.64    1.92
   1  -7  15    1.38    1.32
   1   7  15   -2.93    4.75
  -1   7  16    0.97    4.54
  -1  -7  16   -3.09    4.93
   1  -7  16    4.46    5.38
   1   7  16   -0.62    2.81
   1  -7  17  166.87   22.20
  -1  -7  17  165.73   21.91
   1   7  17  205.44   24.17
   1  -7  18   75.35   15.83
  -1  -7  18   49.03   12.53
  -1   7  18   40.58   11.24
   1   7  18   64.60   14.31
  -1   7  19   94.22   17.95
  -1  -7  19   87.69   16.80
   1   7  19   80.21   16.52
   1  -7  19  113.39   19.58
  -1  -7  20    4.56    7.04
  -1   7  20   10.19    5.71
   1   7  20   10.01    6.83
   1  -7  20    2.29    3.20
  -1  -7  21    3.63    1.66
  -1   7  21    7.56    4.04
   1  -7  21    2.20    1.51
   1   7  21    2.18    5.32
  -1   7  22   -2.77    5.57
  -1  -7  22    2.00    4.30
   1  -7  22    4.37    8.39
   1   7  22   -1.23    3.70
  -1   7  23   41.94   12.46
   1  -7  23   59.26   15.16
  -1  -7  23   55.72   14.92
   1   7  23   54.27   15.65
  -1   7  24    0.77    2.97
  -1  -7  24   -0.71    4.70
   1  -7  24   -2.88    6.14
   1   7  24   -4.96    4.91
  -1   7  25   -2.75    2.89
  -1  -7  25   -1.65    4.48
   1  -7  25    1.36    5.58
   1   7  25   -2.17    6.20
  -1   7  26    0.65    1.64
   1   7  26   -0.43    1.70
  -1  -7  26    4.91    6.26
   1  -7  26    3.31    3.76
   1   7  27   24.31   11.27
  -1   7  27   26.60    9.88
   1  -7  27   24.49    8.17
  -1  -7  27   34.78   12.85
   1  -7  28   38.74   14.74
  -1   7  28   18.06    8.06
   1   7  28   36.09   12.83
  -1  -7  28   18.19    8.43
   1  -7  29    6.20    3.91
   1   7  29   12.93    8.78
  -1   7  29    5.35    2.64
  -1  -7  29    3.43    4.19
  -1  -8   0    3.58    3.35
   1  -8   0   -0.42    1.39
   1  -8   1  916.65   44.95
  -1  -8  -1  971.67   43.99
   1  -8  -1  918.31   44.69
  -1  -8   1  948.18   43.91
   1  -8  -2  145.74   17.52
  -1  -8  -2  128.55   16.14
  -1  -8   2  140.68   16.55
   1  -8   2  147.67   18.09
  -1  -8   3   27.98    8.21
   1  -8   3   13.58    4.59
  -1  -8  -3   25.86    7.47
   1  -8  -3   24.51    8.05
  -1  -8   4    8.82    3.78
   1  -8   4   16.45    6.34
   1  -8  -4    9.65    3.92
  -1  -8  -4   15.21    5.19
   1  -8  -5  804.84   41.88
  -1  -8   5  765.30   39.10
   1  -8   5  879.69   43.25
  -1  -8   6   37.02    9.57
   1  -8   6   40.43   10.05
  -1  -8   7  188.42   19.46
   1   8   7  216.27   21.77
   1  -8   7  228.27   22.72
   1  -8   8   16.16    7.88
  -1  -8   8    5.05    3.32
   1   8   8   11.29    3.59
  -1  -8   9 1635.96   61.05
   1  -8   9 1571.57   61.58
  -1   8   9 1570.35   61.74
   1   8   9 1524.92   59.43
  -1  -8  10   45.11   10.96
   1  -8  10   39.37    9.83
  -1   8  10   21.66    6.10
   1   8  10   35.23    8.70
   1  -8  11   11.75    4.74
   1   8  11   21.53    8.14
  -1   8  11   28.66    8.22
  -1  -8  11   23.19    8.03
  -1   8  12  233.53   24.50
   1   8  12  230.90   25.25
  -1  -8  12  210.94   21.98
   1  -8  12  203.51   22.98
  -1   8  13  111.74   16.57
   1  -8  13   70.98   14.06
   1   8  13   85.67   16.29
  -1  -8  13  100.09   16.17
  -1   8  14   10.55    6.64
   1  -8  14   -1.62    1.81
  -1  -8  14    1.60    3.02
   1   8  14   10.99    6.86
   1   8  15   54.50   11.68
  -1  -8  15   63.29   13.39
   1  -8  15   92.37   15.79
  -1   8  15   75.62   15.28
  -1  -8  16    3.99    4.80
   1  -8  16    3.12    3.37
  -1   8  16    6.53    4.30
   1   8  16    8.46    6.11
   1   8  17  108.97   18.34
  -1   8  17  132.96   21.33
   1  -8  17  155.46   22.87
  -1  -8  17  115.64   20.38
   1   8  18   -0.52    5.65
   1  -8  18    1.97    1.22
  -1   8  18    2.98    2.08
   1   8  19  228.44   27.26
   1  -8  19  228.61   27.53
  -1   8  19  291.22   30.90
  -1  -8  19  196.10   25.57
  -1   8  20   -6.24    1.53
  -1  -8  20    1.68    5.80
   1  -8  20   -0.96    3.37
   1   8  20   -2.75    4.96
  -1   8  21   81.03   17.49
  -1  -8  21   62.56   14.32
   1   8  21   51.72   13.46
   1  -8  21   48.93   14.13
  -1  -8  22   11.94    9.29
   1  -8  22    6.94    6.51
  -1   8  22    0.59    3.88
   1   8  22    3.59    3.48
  -1   8  23   25.81   18.18
   1  -8  23   49.94   14.34
   1   8  23   83.50   18.17
  -1  -8  23   82.18   17.52
   1  -8  24    9.38    6.78
   1   8  24    1.63    1.71
  -1   8  24    1.71    1.73
  -1  -8  24   -1.28    4.82
  -1  -8  25   25.06   10.70
   1   8  25    8.42    6.27
   1  -8  25   33.73   12.65
  -1   8  25    8.58    6.08
  -1  -8  26    1.33    4.79
   1   8  26   -5.00   11.75
   1  -8  26    1.84    1.26
  -1   8  26   -3.00    5.10
  -1   8  27   53.70   13.41
  -1  -8  27   71.94   18.55
   1  -8  27   96.47   20.14
   1   8  27   81.12   17.32
   1   8  28   16.01    6.95
  -1   8  28    7.86    3.04
  -1  -8  28    8.29    7.20
   1  -8  28    0.25    5.49
  -1  -9   0    0.14    0.97
   1  -9   0   -0.05    3.05
  -1  -9  -1   15.83    6.67
   1  -9   1   26.11    8.11
   1  -9  -1   39.37    9.86
  -1  -9   1   39.05    9.60
   1  -9   2   86.28   14.99
  -1  -9   2   85.82   14.07
   1  -9  -2  103.18   16.06
  -1  -9  -2  103.46   15.64
  -1  -9  -3  139.64   17.76
   1  -9   3  154.31   19.05
   1  -9  -3  126.36   17.54
  -1  -9   3  132.47   17.27
  -1  -9   4   51.89   11.08
   1  -9   4   57.01   11.63
  -1  -9  -4   40.52   10.28
   1  -9  -4   41.79   10.08
  -1  -9  -5   13.10    5.10
  -1  -9   5   16.31    5.29
   1  -9   5   14.26    6.69
   1  -9  -5   12.39    6.50
  -1  -9   6   92.06   14.20
   1  -9  -6   97.80   15.14
   1  -9   6   83.99   14.63
   1  -9   7    0.86    2.98
  -1  -9   7    1.61    4.01
   1  -9  -7    4.88    1.79
   1  -9   8   16.62    7.12
  -1  -9   8   19.42    7.02
   1   9   9 1087.81   53.20
   1  -9   9 1065.12   52.75
  -1  -9   9 1203.83   55.11
  -1  -9  10   27.23    7.50
   1   9  10   50.67   11.22
   1  -9  10   46.96   11.84
  -1  -9  11   39.74    9.46
  -1   9  11   42.71   10.00
   1  -9  11   23.71    7.89
   1   9  11   44.63   10.60
  -1  -9  12    5.65    1.75
   1   9  12    6.75    3.17
  -1   9  12    5.33    4.37
   1  -9  12    3.17    0.79
  -1  -9  13    1.71    3.31
   1   9  13    7.86    3.38
   1  -9  13    4.68    4.22
  -1   9  13    2.54    4.28
  -1  -9  14   10.80    3.89
  -1   9  14    5.97    5.00
   1  -9  14    7.47    0.94
  -1  -9  15   29.66    9.87
   1  -9  15   45.29   10.90
  -1   9  15   43.58   11.12
   1   9  15   41.85   12.14
  -1  -9  16   71.32   13.94
  -1   9  16   75.40   15.77
   1   9  16   99.50   17.85
   1  -9  16   59.07   13.75
  -1   9  17   16.11    9.11
   1  -9  17   14.97    8.22
  -1  -9  17    7.19    6.68
   1   9  17    6.20    6.52
   1  -9  18   38.44   11.25
   1   9  18   42.09   11.54
  -1   9  18   34.93   10.19
  -1  -9  18   46.78   12.11
   1   9  19   35.28    9.62
  -1   9  19   30.31   12.99
  -1  -9  19   38.67   10.68
   1  -9  19   10.58    5.01
  -1  -9  20   16.86    8.41
   1   9  20   16.20    6.15
   1  -9  20   42.20   13.42
  -1   9  20   23.61    9.83
  -1  -9  21   40.26   11.20
   1  -9  21   25.47    9.70
   1   9  21   56.87   14.61
  -1   9  21   51.71   13.39
   1  -9  22   13.64    6.78
  -1  -9  22   15.93    9.83
  -1   9  22   14.26   10.52
   1   9  22    4.43    4.85
  -1  -9  23    3.43    5.12
  -1   9  23    1.03    6.05
   1  -9  23    3.32    1.38
   1   9  23    0.53    2.35
   1   9  24    8.37    8.32
  -1   9  24   27.85    9.31
   1  -9  24   17.27    8.47
  -1  -9  24    8.95    4.38
  -1  -9  25    2.91    4.47
   1   9  25    9.02    1.95
   1  -9  25   -0.45    3.45
  -1   9  25   -3.79    5.89
   1  -9  26    0.97    4.27
  -1  -9  26    6.25    6.53
   1   9  26    0.42    1.85
  -1   9  26    2.93    0.93
   1   9  27   25.40   11.48
  -1  -9  27   11.63    5.86
   1  -9  27   17.60    9.92
  -1   9  27   26.32    9.37
  -1 -10   0   -1.39    3.42
   1 -10   0    7.93    8.13
  -1 -10   1   81.43   14.02
   1 -10   1   94.02   16.00
   1 -10  -1   94.33   16.26
  -1 -10  -1   84.74   14.75
  -1 -10   2   54.33   11.03
   1 -10  -2   55.97   12.46
  -1 -10  -2   60.98   11.62
   1 -10   2   70.14   13.85
   1 -10   3  222.58   24.07
   1 -10  -3  217.12   23.73
  -1 -10   3  189.45   22.00
  -1 -10  -3  247.33   25.05
  -1 -10   4   10.58    5.24
  -1 -10  -4    5.99    1.73
   1 -10  -4   10.21    3.36
   1 -10   4   12.11    6.94
   1 -10   5  142.59   18.57
  -1 -10  -5  173.82   21.09
   1 -10  -5  165.93   20.94
  -1 -10   5  170.60   20.21
   1 -10  -6  159.90   20.70
   1 -10   6  176.60   21.82
  -1 -10  -6  152.64   19.53
   1 -10   7  114.01   18.33
   1 -10  -7  132.96   18.23
  -1 -10   7  131.41   18.57
  -1 -10  -7  103.27   17.04
   1 -10   8   92.81   16.61
   1 -10  -8   70.78   14.29
  -1 -10   8   83.61   14.52
   1 -10   9   53.14   12.10
  -1 -10   9   44.78   11.00
   1 -10  10  329.14   30.81
  -1 -10  10  385.02   32.77
  -1 -10  11   26.28    9.90
   1 -10  11   16.80    6.50
   1  10  11   27.07    9.64
   1  10  12   45.21   11.17
   1 -10  12   87.14   16.31
  -1 -10  12   59.32   13.96
   1  10  13   75.40   15.80
  -1 -10  13   67.69   13.81
  -1  10  13   63.58   14.55
   1 -10  13   50.94   12.46
  -1 -10  14    5.33    5.31
  -1  10  14   -4.52    5.73
   1 -10  14    6.07    5.17
   1  10  14    3.61    5.45
   1 -10  15    6.97    7.92
  -1 -10  15    1.57    4.86
  -1  10  15    7.35    4.05
   1  10  15    0.47    3.82
  -1 -10  16   64.35   15.13
   1  10  16  101.71   17.34
  -1  10  16  111.82   19.42
   1 -10  16  131.05   21.51
  -1  10  17   17.77   10.14
   1 -10  17   15.17    6.71
   1  10  17   12.36    6.11
  -1 -10  17   15.65    6.74
  -1 -10  18    5.16    1.99
  -1  10  18    8.97    7.42
   1  10  18    0.47    2.41
   1 -10  18   13.42    5.40
   1  10  19   12.50    8.09
  -1  10  19    6.47    4.05
   1 -10  19    0.18    4.23
   1  10  20  121.95   20.82
   1 -10  20  118.89   21.02
  -1  10  20  115.58   19.81
  -1 -10  20  157.23   25.12
  -1  10  21   -3.21    3.38
  -1 -10  21    0.36    3.98
   1 -10  21    4.37    2.51
   1  10  21    1.63    2.83
  -1 -10  22   12.73    5.84
   1 -10  22    8.94    6.57
   1  10  22    7.30    1.19
  -1  10  22   19.37    8.67
  -1  10  23    3.44    5.04
  -1 -10  23    5.45    3.51
   1 -10  23   14.89    8.37
   1  10  23    3.27    1.23
  -1  10  24   26.43   12.73
   1 -10  24   18.82    9.54
  -1 -10  24   33.69   13.62
   1  10  24   37.31   12.16
   1  10  25    0.09    7.30
  -1  10  25    5.04    8.23
   1 -10  25    7.98    4.78
  -1 -10  25   18.60   14.42
   1  10  26   10.86    6.08
  -1  10  26    1.68    2.21
   1 -10  26   -3.03    5.51
   1 -11   0    1.21    2.73
  -1 -11   0    1.69    2.59
   1 -11   1    2.73    6.92
   1 -11  -1    7.58    6.77
  -1 -11  -1    0.80    5.35
  -1 -11   1    1.40    1.65
   1 -11  -2   11.84    6.45
  -1 -11   2    5.94    3.53
   1 -11   2    8.99    4.37
  -1 -11  -2    1.77    1.67
  -1 -11   3   45.85   11.51
   1 -11   3   42.04   10.30
   1 -11  -3   46.54   12.18
  -1 -11  -3   57.50   13.20
   1 -11   4   37.17   10.02
  -1 -11  -4   38.41    9.89
  -1 -11   4   38.80   10.35
   1 -11  -4   24.45    7.94
   1 -11  -5    0.83    1.59
  -1 -11   5    6.42    4.73
  -1 -11  -5    6.46    4.09
   1 -11   5    0.88    3.14
  -1 -11   6    4.21    4.47
  -1 -11  -6    5.17    4.20
   1 -11   6    6.47    3.62
   1 -11  -6    2.94    0.92
  -1 -11   7   14.09    5.64
  -1 -11  -7   15.39    5.97
   1 -11  -7   34.22    8.93
   1 -11   7   23.14    8.13
   1 -11   8  120.93   18.68
  -1 -11   8  146.27   20.59
   1 -11  -8  112.22   18.55
  -1 -11  -8  157.04   21.87
   1 -11   9    5.31    3.10
  -1 -11  -9    4.12    3.73
   1 -11  -9    3.79    2.90
  -1 -11   9   11.76    3.20
   1 -11 -10  154.77   22.06
  -1 -11  10  164.41   23.19
   1 -11  10  133.21   20.38
   1 -11  11   10.87    4.33
  -1 -11  11   19.02   10.61
  -1 -11  12   43.25   11.07
   1 -11  12   43.40   12.15
   1  11  13    5.87    4.36
  -1 -11  13    3.37    4.93
   1 -11  13    5.30    2.47
  -1 -11  14    3.04    4.76
   1 -11  14    1.86    4.60
   1  11  14   -1.96    1.83
   1 -11  15    1.84    3.08
  -1 -11  15    2.36    1.79
   1  11  15    1.63    0.86
   1 -11  16   17.15    9.46
  -1 -11  16    7.26    5.80
   1  11  16    1.91    2.44
  -1  11  16    5.49    4.25
  -1 -11  17   20.98    9.44
   1 -11  17   10.02    7.49
  -1  11  17    8.10    6.91
   1  11  17    5.16    2.99
  -1 -11  18   -1.91    2.57
   1 -11  18   -2.62    4.60
  -1  11  18    2.32    2.92
   1  11  18   -7.30    4.97
  -1  11  19   18.56    8.78
   1 -11  19   10.47    8.20
  -1 -11  19   33.37   12.33
   1  11  19   16.88    7.77
   1 -11  20   14.66    7.24
   1  11  20    8.22    7.16
  -1  11  20   13.81    9.52
  -1 -11  20   10.42    6.61
   1  11  21   12.42    8.12
   1 -11  21    1.21    2.51
  -1 -11  21   17.57   10.99
  -1  11  21    1.29    1.91
   1 -11  22    7.19    5.50
  -1  11  22   -0.05    3.53
   1  11  22    7.86    7.68
   1  11  23    3.36    4.50
   1 -11  23    3.28    8.49
  -1  11  23   13.15    9.62
  -1  11  24   -1.49    2.11
   1 -11  24   -3.05    6.29
   1  11  24    2.08    6.67
   1 -12   0    4.21    6.05
  -1 -12   0    1.83    5.52
  -1 -12   1    0.83    2.05
   1 -12   1    1.73    4.14
  -1 -12  -1   -2.48    3.77
   1 -12  -1    4.34    4.86
   1 -12  -2   43.05   11.69
  -1 -12  -2   62.27   13.19
  -1 -12   2   51.48   13.20
   1 -12   2   60.56   14.83
  -1 -12   3   18.85    7.39
   1 -12  -3    5.10    4.11
   1 -12   3   12.95    7.03
  -1 -12  -3    3.92    3.16
   1 -12   4    1.26    4.30
  -1 -12  -4    5.24    4.21
   1 -12  -4   -1.70    4.53
  -1 -12   4   -1.35    5.40
  -1 -12   5   -1.85    4.95
   1 -12  -5   -1.68    5.71
   1 -12   5    4.87    5.41
  -1 -12  -5    4.14    0.81
   1 -12  -6    2.45    4.32
  -1 -12   6    2.83    4.42
  -1 -12  -6    9.26    6.26
   1 -12   6   16.58    6.56
   1 -12  -7   10.51    6.22
  -1 -12   7   12.52    4.99
  -1 -12  -7   16.03    8.27
   1 -12   7   16.19    5.98
  -1 -12   8   41.55   10.85
   1 -12  -8   28.58   10.41
   1 -12   8   28.18    9.96
  -1 -12  -8   39.40   10.88
  -1 -12  -9   63.40   14.42
   1 -12  -9   57.85   14.74
  -1 -12   9   66.62   14.81
   1 -12   9   53.73   12.50
  -1 -12  10    8.86    7.68
   1 -12 -10    9.16    5.57
  -1 -12 -10   13.72    6.54
   1 -12  10   20.43    8.15
   1 -12 -11    1.09    3.78
  -1 -12  11    1.76    2.83
   1 -12  11    3.72    4.22
  -1 -12 -11    0.85    3.27
   1 -12 -12    6.26    1.41
  -1 -12  12    9.58    7.84
  -1 -12  13   94.08   18.20
   1 -12  13   80.16   17.43
   1 -12  14    5.12    0.58
  -1 -12  14    4.45    4.58
  -1 -12  15   -1.78    0.80
   1 -12  15   -5.02    3.88
   1 -12  16   47.01   13.61
   1  12  16   33.87   11.24
  -1 -12  16   31.25    8.60
   1 -12  17   20.82    9.19
   1  12  17    1.55    2.10
  -1 -12  17   15.54    7.31
   1 -12  18    6.02    7.35
   1  12  18    6.80    7.60
  -1 -12  18    8.44    6.75
  -1 -12  19   12.34   10.79
  -1  12  19   54.32   16.69
   1 -12  19   40.17   12.71
   1  12  19   39.92   11.88
  -1  12  20    2.20    4.06
   1  12  20   -1.23    3.88
   1 -12  20   -2.59    1.24
   1  12  21    6.45    6.05
  -1  12  21   -0.44    4.22
   1 -12  21   -0.80    3.31
   1 -12  22    1.02    4.99
  -1  12  22   -3.37    3.60
  -1 -13   0    1.99    2.42
   1 -13   0    4.92    5.07
   1 -13  -1   25.26   10.26
  -1 -13  -1   30.79    9.17
  -1 -13   1   24.07    7.29
   1 -13   1   41.12   11.27
   1 -13   2    6.33    5.97
   1 -13  -2   14.97    8.08
  -1 -13  -2   10.49    6.48
  -1 -13   2   12.73    6.95
   1 -13  -3   30.22   10.19
  -1 -13   3   21.27    9.33
   1 -13   3   30.72   10.97
  -1 -13  -3   23.55    7.50
  -1 -13   4   39.93   11.84
   1 -13  -4   29.93   11.44
   1 -13   4   48.76   13.54
  -1 -13  -4   11.82    6.32
   1 -13  -5    2.16    4.06
   1 -13   5    4.03    4.10
  -1 -13   5   -0.21    0.60
  -1 -13  -5    0.38    1.02
   1 -13   6    2.36    3.62
  -1 -13   6   -0.78    0.67
   1 -13  -6   -4.70    4.76
  -1 -13  -6    1.33    5.04
  -1 -13   7    8.26    4.42
   1 -13  -7    4.31    3.43
  -1 -13  -7    9.48    9.42
   1 -13   7    5.16    6.53
  -1 -13  -8    2.33    1.79
   1 -13  -8   -1.33    2.25
   1 -13   8   -0.12    2.36
  -1 -13   8    2.85    2.35
   1 -13  -9   39.68   11.97
   1 -13   9   41.92   11.89
  -1 -13  -9   41.06   12.09
  -1 -13   9   39.72   11.55
  -1 -13  10    0.86    1.92
   1 -13 -10    7.59    8.51
   1 -13  10   -0.70    3.18
  -1 -13 -10    3.52    3.95
   1 -13  11   -3.93    2.14
  -1 -13 -11    3.95    5.87
   1 -13 -11   -2.60    6.71
  -1 -13  11    4.26    6.07
   1 -13 -12    8.30    3.14
  -1 -13 -12    9.92    6.79
  -1 -13  12    9.83    6.99
  -1 -13  13    3.05    6.93
   1 -13  13    3.65    5.88
  -1 -13 -13   -2.52    6.08
   1 -13 -13    1.26    4.61
   1 -13 -14   13.87    5.94
   1 -13  14    7.86    2.95
  -1 -13  14    4.98    3.77
  -1 -13  15   59.76   16.79
   1 -13  15   39.47   11.47
   1 -13 -15   25.15   10.24
   1 -13  16   -6.08    3.84
   1 -13 -16   -2.55    4.23
   1 -13  17   10.05    7.96
   1 -13  18    3.41    4.67
   1 -13  19    3.04    2.55
   1 -13  20    3.74    8.29
   1  13  20    4.15    4.76
  -1 -14   0   -4.55    5.94
   1 -14   0   -4.74    1.89
  -1 -14   1    5.57    3.76
  -1 -14  -1   18.92    8.91
   1 -14   1   18.94    9.99
   1 -14  -1    4.82    6.22
  -1 -14   2   20.03    8.68
   1 -14   2    9.04    8.21
   1 -14  -2   26.50   10.75
  -1 -14  -2   18.26    8.25
   1 -14   3    1.13    4.81
   1 -14  -3    3.74    4.80
  -1 -14  -3    8.27    3.63
  -1 -14   4   -4.64    6.70
  -1 -14  -4    4.03    5.75
   1 -14   4    2.17    1.24
   1 -14  -4    1.93    5.49
  -1 -14   5   35.35   13.02
   1 -14  -5   33.98   11.34
  -1 -14  -5   41.47   13.13
   1 -14   5   19.05    9.36
   1 -14  -6   47.78   13.16
  -1 -14   6   47.39   13.64
   1 -14   6   29.86   10.40
  -1 -14  -6   56.16   14.02
  -1 -14   7   -1.84    6.01
   1 -14  -7   -1.17    1.18
  -1 -14  -7    0.33    2.28
   1 -14   7   -2.44    0.61
   1 -14   8   -6.13    6.01
   1 -14  -8    1.74    1.93
  -1 -14  -8   -0.18    3.18
  -1 -14   8    3.34    4.87
   1 -14   9   12.91    7.56
  -1 -14  -9    7.02    5.16
   1 -14  -9   16.16    6.97
  -1 -14   9    4.24    0.87
  -1 -14 -10   36.86   11.77
  -1 -14  10   18.87    8.22
   1 -14  10   48.32   12.69
   1 -14 -10   29.22    9.37
  -1 -14 -11   -1.84    6.42
   1 -14  11    4.13    3.74
   1 -14 -11    2.38    3.24
   1 -14  12    6.46    2.48
   1 -14 -12    3.01    3.00
  -1 -14 -13   13.07    6.94
   1 -14 -13   15.96    8.51
   1 -14  13    9.25    6.44
   1 -14 -14   11.77    6.93
  -1 -14 -14   16.73    8.63
   1 -14  14   10.19    3.49
   1 -14  15   29.49   10.19
  -1 -14 -15   39.13   11.89
   1 -14 -15   55.85   14.16
   1 -14  16   23.46   11.42
   1 -14 -16   56.97   16.59
  -1 -14 -16   42.37   12.27
   1 -14 -17   14.64    5.65
  -1 -14 -17    4.82    3.63
   1 -15   0    8.59    6.82
  -1 -15   0    4.69    6.48
  -1 -15  -1   12.87    9.53
   1 -15  -1   -1.06    4.98
   1 -15   1    1.15    4.28
  -1 -15   1    4.78    5.72
  -1 -15   2   37.44   10.69
   1 -15   2   69.45   16.20
   1 -15  -2   41.56   13.64
  -1 -15  -2   34.84   10.46
   1 -15   3    7.56    4.84
  -1 -15   3    9.38    3.53
  -1 -15  -3    2.86    4.22
  -1 -15   4   14.05    5.74
  -1 -15  -4    8.18    6.22
   1 -15   4    0.55    2.58
   1 -15  -4    2.21    4.11
  -1 -15   5    2.08    2.11
   1 -15   5   -3.95    6.61
   1 -15  -5   -0.25    3.31
  -1 -15  -5   -2.60    4.61
   1 -15  -6   27.18   11.05
  -1 -15  -6    8.55    6.39
   1 -15   6   11.95    8.69
  -1 -15   6   39.07   16.15
   1 -15  -7   14.30    6.77
   1 -15   7   23.17   10.99
  -1 -15  -7    4.32    5.10
  -1 -15  -8   12.16    7.55
   1 -15  -8   11.81    3.89
   1 -15   8   25.85    9.82
   1 -15  -9   -2.42    4.42
   1 -15   9   18.15    8.66
  -1 -15  -9   17.10    8.82
   1 -15 -10   10.84    5.48
   1 -15  10   26.01   10.45
  -1 -15 -10   21.56    7.94
   1 -15 -11    0.45    2.20
   1 -15  11    1.81    0.96
   1 -15 -12   -1.42    4.91
   1 -15  12    5.34    5.41
  -1 -15 -12   14.43    9.59
   1 -15 -13    5.61    4.82
   1 -15  13   -1.46    5.72
  -1 -15 -13   -1.64    4.85
   1 -15 -14    6.80    4.71
   1 -15  14    2.95    0.91
  -1 -15 -14    1.81    5.75
   1 -16   0    1.83    4.16
  -1 -16   0   13.99   11.47
   1 -16   1    1.77    4.29
  -1 -16   1   -1.51    6.25
   1 -16  -1   -1.73    4.96
  -1 -16  -1    8.72    8.17
   1 -16   2   49.83   14.21
  -1 -16  -2   58.33   15.62
   1 -16  -2   73.49   17.20
   1 -16   3   -3.81    5.96
  -1 -16  -3   -3.37    3.54
   1 -16  -3    4.48    4.70
   1 -16  -4    3.34    2.35
   1 -16   4   -1.73    3.00
  -1 -16  -4    3.87    2.46
   1 -16  -5   14.03    8.18
  -1 -16  -5    9.74    5.97
   1 -16   5    7.08    6.36
   1 -16   6    1.20    4.58
  -1 -16  -6   -2.47    5.50
   1 -16  -6    3.01    2.58
   1 -16  -7   -4.90    4.92
  -1 -16  -7    1.24    3.89
   1 -16   7    6.57    4.93
   1 -16   8   13.34    7.30
   1 -16  -8   17.35    7.69
  -1 -16  -8    7.98    2.69
   2   0   0  695.00   14.92
   2   0  -1    0.22    0.57
   2   0   1   -0.49    0.45
   2   0   2 6320.97   56.76
  -2   0   2 6548.11   47.73
   2   0   3    0.92    0.58
  -2   0   3   -0.22    0.75
   2   0   4 2845.31   46.82
  -2   0   4 2988.06   39.69
  -2   0   5    0.19    0.90
   2   0   5   -1.05    0.56
  -2   0   6  511.40   20.49
   2   0   6  484.49   22.22
  -2   0   7    0.30    0.70
   2   0   7    1.30    1.74
   2   0   8 2333.64   57.11
  -2   0   8 2172.19   49.11
   2   0   9    0.59    3.46
  -2   0   9   -1.25    1.22
   2   0  10 5035.83   91.47
  -2   0  10 5436.40   88.64
  -2   0  11    3.07    2.16
   2   0  11   -0.12    1.84
   2   0  12  966.39   42.65
  -2   0  12 1014.33   42.95
  -2   0  13   -1.37    2.03
   2   0  13    1.73    4.80
   2   0  14 1292.36   52.67
  -2   0  14 1379.36   53.97
  -2   0  15    4.41    4.25
   2   0  15    2.59    1.46
  -2   0  16   64.14   12.68
   2   0  16   53.48   10.73
   2   0  17   -2.35    5.68
  -2   0  17    2.34    2.75
   2   0  18  147.04   20.28
  -2   0  18  169.91   22.22
  -2   0  19    4.97    5.94
   2   0  19    0.36    4.18
   2   0  20   35.41   10.50
  -2   0  20   48.16   12.49
  -2   0  21   -0.70    2.09
   2   0  21   -0.20    2.31
  -2   0  22    1.47    1.60
   2   0  22   -3.23    4.83
   2   0  23    2.68    4.41
  -2   0  23   -2.97    1.54
  -2   0  24    8.46    8.06
   2   0  24   13.25    0.89
   2   0  25   -2.13    4.66
  -2   0  25   -1.60    2.53
   2   0  26   44.73   12.26
  -2   0  26   38.61   13.49
  -2   0  27    4.73    5.79
   2   0  27    6.72    8.77
   2   0  28    3.65    7.27
  -2   0  28    5.84    9.56
  -2   0  29    1.40    7.63
   2   0  29   -0.72    4.58
   2   0  30   15.70    7.93
  -2   0  30   16.34    7.45
   2   0  31    1.75    6.74
  -2   0  31    5.62    5.42
   2   0  32   41.48   13.99
  -2   0  32   30.44    9.46
   2  -1   0 8509.90   71.77
   2  -1   1 6022.17   59.28
   2   1   1 5991.62   42.49
   2   1   2   67.38    5.35
   2  -1   2   55.94    6.16
  -2   1   3 2659.69   41.72
   2  -1   3 2713.13   46.75
  -2  -1   3 2623.43   27.54
   2   1   3 2650.91   39.17
  -2  -1   4 2703.78   34.74
  -2   1   4 2741.42   45.28
   2  -1   4 2620.96   47.86
   2  -1   5    7.83    2.50
  -2  -1   5   10.20    2.52
   2   1   5    6.98    2.55
   2  -1   6    5.69    2.39
  -2  -1   6    9.54    2.75
   2   1   6    8.71    3.05
  -2   1   6   11.19    2.94
   2   1   7  119.89   11.40
  -2  -1   7  104.62    9.84
   2  -1   7  106.50   11.01
  -2   1   7  103.60   10.47
  -2  -1   8 1137.56   35.35
   2  -1   8 1112.43   39.48
  -2   1   8 1076.95   35.47
   2   1   8 1218.50   39.39
  -2  -1   9    3.68    1.13
   2   1   9    6.33    2.54
   2  -1   9    5.61    4.57
  -2   1   9    6.15    3.47
   2   1  10  665.33   32.67
  -2   1  10  629.73   30.63
  -2  -1  10  618.60   29.04
   2  -1  10  647.72   32.20
   2   1  11   -1.79    3.08
   2  -1  11    0.84    3.49
  -2  -1  11    1.51    2.87
  -2   1  11    2.23    2.58
   2   1  12 1818.97   59.24
  -2  -1  12 1715.27   54.27
   2  -1  12 1689.85   57.23
  -2   1  12 1744.96   55.18
  -2  -1  13    0.75    4.10
  -2   1  13    2.58    2.19
   2  -1  13    1.06    1.91
   2   1  13    5.88    3.86
  -2  -1  14  901.87   42.92
  -2   1  14  827.62   41.55
   2  -1  14  923.01   45.25
   2   1  14  953.60   46.08
   2  -1  15  392.02   30.11
  -2   1  15  347.14   28.16
  -2  -1  15  418.50   30.02
   2   1  15  419.06   31.43
   2   1  16   71.21   14.08
   2  -1  16   76.43   13.88
  -2  -1  16   89.12   14.83
  -2   1  16   86.07   13.90
  -2   1  17   38.09    9.21
   2   1  17   40.21   10.91
  -2  -1  17   49.36   10.88
   2  -1  17   39.81   10.87
   2   1  18  966.55   51.61
  -2   1  18 1071.64   53.15
  -2  -1  19    1.07    0.39
   2   1  19    0.57    2.25
   2  -1  19    4.77    2.14
  -2   1  19    2.29    4.62
  -2  -1  20   84.08   16.17
   2   1  20   65.31   14.28
   2  -1  20   84.62   15.77
  -2   1  20   71.37   15.82
  -2   1  21   49.58   13.17
   2   1  21   58.86   12.61
  -2  -1  21   50.70   12.55
   2  -1  21   57.07   12.13
   2  -1  22  167.17   22.62
  -2  -1  22  197.97   25.48
  -2   1  22  187.72   23.96
   2   1  22  220.15   26.32
  -2  -1  23   31.48   10.63
   2   1  23   42.39   11.01
  -2   1  23   51.24   13.51
   2  -1  23   45.35   12.70
   2   1  24   26.08    9.81
  -2   1  24   17.45    8.21
  -2  -1  24   10.51    5.35
   2  -1  24   17.96    7.63
  -2  -1  25   92.09   17.44
   2  -1  25   86.90   17.85
  -2   1  25   91.09   19.19
   2   1  25   79.54   17.37
  -2  -1  26  248.15   30.61
   2  -1  26  284.70   32.76
  -2   1  26  260.11   30.98
   2   1  26  283.19   31.94
  -2  -1  27   29.64   10.30
   2   1  27   44.56   14.12
   2  -1  27   30.47    9.09
  -2   1  27   31.91    9.95
   2  -1  28  246.88   32.63
   2   1  28  210.67   28.83
  -2  -1  28  188.48   27.37
  -2   1  28  209.23   28.42
   2   1  29   98.84   19.11
   2  -1  29  105.46   20.15
  -2  -1  29  105.41   20.66
  -2   1  29  103.83   21.51
   2   1  30    6.56    4.94
  -2   1  30   11.33    7.28
  -2  -1  30    6.14    5.73
   2  -1  30    5.65    5.85
   2  -1  31   -3.27    7.21
  -2   1  31    5.24    5.14
  -2  -1  31    2.43    3.38
   2   1  31    6.26    6.80
  -2   1  32   72.94   17.36
   2  -1  32   48.83   15.40
   2   1  32   36.39   12.76
  -2  -1  32   24.69    9.99
   2   2   0 1581.21   20.34
   2  -2   0 1538.43   36.00
   2  -2  -1  211.74   13.22
   2  -2   1  224.12   14.15
   2   2   1  228.56    9.19
   2   2   2   -0.19    0.66
   2  -2   2    1.66    1.46
   2  -2  -2    0.94    1.88
   2  -2   3 3713.34   59.53
   2   2   3 3786.52   49.21
   2  -2   4 2377.95   48.89
  -2  -2   4 2417.44   32.91
   2   2   4 2222.49   43.19
  -2   2   4 2289.08   46.90
   2   2   5 1596.02   39.91
  -2   2   5 1553.68   40.29
  -2  -2   5 1684.84   32.31
   2  -2   5 1694.25   43.59
  -2  -2   6  497.53   19.54
  -2   2   6  504.45   23.89
   2  -2   6  433.72   22.64
   2   2   7  661.97   29.00
  -2   2   7  639.86   27.78
   2  -2   7  576.91   27.35
  -2  -2   7  654.72   24.52
   2  -2   8    2.15    2.60
   2   2   8   -0.02    0.53
  -2   2   8   -1.47    2.56
  -2  -2   8   -0.49    0.64
  -2  -2   9   32.57    6.27
   2  -2   9   25.86    6.43
  -2   2   9   24.89    5.99
   2   2   9   30.93    7.06
  -2  -2  10   14.75    4.49
   2  -2  10   11.79    4.00
  -2   2  10   12.26    4.60
   2   2  10    9.41    4.42
   2   2  11  473.67   29.82
  -2  -2  11  500.56   27.07
  -2   2  11  520.79   29.17
   2  -2  11  533.42   31.39
  -2   2  12    5.25    2.84
   2   2  12    2.04    1.77
  -2  -2  12    3.37    2.37
   2  -2  12    7.53    5.33
   2   2  13 1681.39   58.96
  -2  -2  13 1697.79   55.72
  -2   2  13 1646.12   56.22
   2  -2  13 1548.96   56.09
   2   2  14   13.05    4.93
  -2  -2  14    4.13    2.47
   2  -2  14   10.88    3.86
  -2   2  14    8.28    4.02
   2  -2  15   20.41    7.64
  -2   2  15   26.95    7.21
  -2  -2  15   31.93    8.08
   2   2  15   17.67    6.10
  -2  -2  16   92.90   14.40
   2  -2  16   95.99   15.90
  -2   2  16   71.77   13.16
   2   2  16  108.91   16.39
  -2   2  17   -0.81    3.55
  -2  -2  17   -1.97    2.97
   2  -2  17    9.30    7.49
   2   2  17   -0.06    2.91
  -2   2  18   36.13   10.23
   2  -2  18   47.26   10.97
   2   2  18   39.75   10.07
  -2  -2  18   33.19   10.52
   2   2  19   45.19   12.66
  -2  -2  19   52.91   12.69
   2  -2  19   49.12   11.66
  -2   2  19   14.18    5.97
  -2   2  20   -1.43    5.00
   2   2  20   -4.90    5.59
   2  -2  20   -0.51    2.14
  -2  -2  20   -2.12    4.00
  -2   2  21   69.07   14.60
  -2  -2  21   80.62   15.61
   2  -2  21   88.95   16.44
   2   2  21   79.38   15.87
  -2  -2  22   64.98   14.33
   2  -2  22   40.48   11.89
   2   2  22   55.30   13.30
  -2   2  22   43.89   11.85
  -2  -2  23    1.05    5.95
  -2   2  23   10.60    6.06
   2   2  23   12.92    7.20
   2  -2  23    3.77    6.00
  -2   2  24   -0.93    4.41
   2   2  24    0.72    1.51
  -2  -2  24    0.07    4.77
   2  -2  24    2.40    4.67
  -2   2  25   -2.32    3.16
   2   2  25    2.34    3.51
   2  -2  25    2.25    2.71
  -2  -2  25   -3.31    4.02
   2   2  26    7.60    5.89
  -2  -2  26    7.60    5.41
   2  -2  26    2.87    4.09
  -2   2  26   10.81    5.98
   2   2  27   23.62   10.19
   2  -2  27   17.88    9.54
  -2  -2  27   17.20    7.81
  -2   2  27    8.11    5.30
  -2  -2  28    4.17    8.96
   2   2  28    5.58    4.74
   2  -2  28   -3.24    4.58
  -2   2  28   -0.78    4.99
   2   2  29   42.00   12.73
   2  -2  29   36.76   12.09
  -2   2  29   25.45   10.17
  -2  -2  29   25.80    9.84
   2   2  30   -2.19    4.96
  -2  -2  30   -1.90    7.03
   2  -2  30    9.60    7.62
  -2   2  30    2.40    3.00
   2   2  31   22.98    9.62
   2  -2  31    7.43    7.43
  -2  -2  31   22.08   11.37
   2  -2  32    8.48    7.50
   2   2  32   -0.95    2.77
  -2  -2  32    0.29    5.75
  -2   2  32   -4.56    2.86
   2  -3   0  938.80   31.78
   2   3   1  434.37   15.72
  -2  -3   1  478.21   14.86
   2  -3  -1  453.03   22.03
   2  -3   1  486.54   23.22
   2  -3   2   18.88    4.43
  -2  -3   2   17.20    2.77
   2  -3  -2   15.54    4.32
   2  -3   3  107.65   10.80
   2   3   3  117.50    9.34
  -2  -3   3  128.86    8.17
   2   3   4   24.61    4.82
   2  -3   4   24.82    5.32
  -2  -3   4   23.38    3.72
  -2   3   4   15.40    3.95
  -2  -3   5  173.62   10.99
  -2   3   5  200.32   15.60
   2   3   5  153.16   12.77
   2  -3   5  167.17   14.70
   2  -3   6  280.92   19.47
  -2  -3   6  257.72   14.59
  -2   3   6  320.96   20.99
   2   3   6  274.79   18.34
  -2  -3   7   25.48    4.68
   2   3   7   24.42    4.96
  -2   3   7   17.24    4.47
   2  -3   7   13.84    4.59
  -2  -3   8  625.95   25.96
   2  -3   8  635.54   31.03
  -2   3   8  618.96   31.00
   2   3   8  639.71   30.73
   2   3   9  370.71   24.09
  -2  -3   9  319.00   19.79
  -2   3   9  328.95   23.14
   2  -3   9  321.79   23.03
   2   3  10  124.75   14.85
  -2  -3  10  134.55   13.78
   2  -3  10  133.03   15.62
  -2   3  10  118.14   14.31
  -2  -3  11  401.75   25.29
   2  -3  11  426.26   28.18
  -2   3  11  368.69   25.80
   2   3  11  355.53   25.79
   2   3  12    5.91    4.83
  -2  -3  12    2.26    3.03
   2  -3  12    3.92    3.96
  -2   3  12    2.12    0.44
  -2   3  13   76.07   12.80
  -2  -3  13  102.38   13.98
   2  -3  13   90.83   14.18
   2   3  13   62.65   12.09
  -2   3  14    5.36    3.56
   2  -3  14    7.15    4.52
  -2  -3  14    2.92    2.23
   2   3  14    4.11    4.18
   2   3  15   82.99   14.63
  -2  -3  15   98.71   14.74
   2  -3  15   93.68   15.39
  -2   3  16    0.02    2.35
   2   3  16    0.60    2.49
   2  -3  16    3.11    3.63
  -2  -3  16    1.84    2.31
   2  -3  17  252.68   25.22
  -2  -3  17  267.41   25.70
   2   3  17  266.72   26.66
  -2   3  17  231.86   24.83
  -2  -3  18   85.85   14.99
   2  -3  18  105.39   17.31
  -2   3  18   69.16   14.28
   2   3  18   81.54   14.61
  -2  -3  19  211.60   24.26
   2  -3  19  189.33   23.48
  -2   3  19  177.94   22.48
   2   3  19  208.45   24.69
  -2   3  20   43.59   11.02
   2   3  20   40.95   10.03
  -2  -3  20   32.76    8.47
   2  -3  20   34.79   10.54
   2  -3  21    3.96    5.04
   2   3  21    8.87    4.33
  -2   3  21    6.62    5.77
  -2  -3  21    4.04    4.71
  -2   3  22   54.13   12.69
   2  -3  22   72.21   15.65
   2   3  22   65.86   14.38
  -2  -3  22   42.61   13.08
   2   3  23   -0.87    0.55
  -2   3  23   -0.38    2.61
   2  -3  23    0.23    3.57
  -2  -3  23   -3.28    6.32
   2  -3  24    7.92    7.56
   2   3  24   18.74    7.75
  -2  -3  24   14.26    2.10
  -2   3  24    2.87    3.53
   2  -3  25  118.27   20.51
  -2   3  25  155.84   23.23
  -2  -3  25  168.29   25.49
   2   3  25  148.84   23.50
  -2  -3  26    3.91    3.89
   2   3  26    6.56    9.26
   2  -3  26    3.75    7.35
  -2   3  26   -1.65    3.94
   2   3  27   -2.87    3.85
  -2   3  27    6.76    4.90
  -2  -3  27   15.58   10.66
   2  -3  27   16.64    9.96
  -2   3  28   18.27    7.83
  -2  -3  28   18.80   10.42
   2  -3  28   19.03   10.84
  -2   3  29   70.67   15.84
   2   3  29   68.95   17.23
   2  -3  29   91.19   19.44
  -2  -3  29  112.56   21.48
   2   3  30   17.47   11.24
  -2   3  30   16.94   11.24
   2  -3  30   10.93    9.81
  -2  -3  30   11.60    2.33
  -2   3  31   44.87   14.31
   2  -3  31   78.02   18.07
  -2  -3  31   55.31   15.95
   2   3  31   62.20   16.81
  -2  -4   0    2.81    1.36
   2  -4   0    2.86    2.77
   2  -4   1    2.82    1.47
  -2  -4   1    5.09    2.36
   2  -4  -1    0.97    1.62
   2  -4  -2   80.56   10.16
  -2  -4   2   73.76    7.63
   2  -4   2   73.37    9.59
   2   4   2   62.87    7.67
   2  -4   3  101.12   11.50
   2   4   3   86.44    9.28
  -2  -4   3  103.23    8.73
   2  -4  -3   81.43   10.94
   2   4   4  301.06   18.50
  -2  -4   4  332.55   16.42
  -2  -4   5   38.38    6.27
   2  -4   5   32.90    6.99
  -2   4   5   30.35    6.89
   2   4   5   28.69    5.73
   2  -4   6  477.05   27.88
   2   4   6  459.70   24.08
  -2  -4   6  486.08   21.82
  -2   4   7  325.54   23.24
  -2  -4   7  344.56   19.29
   2   4   7  273.88   19.40
   2  -4   7  330.70   22.85
   2   4   8  822.27   35.32
  -2  -4   8  806.36   31.19
  -2   4   8  841.87   38.14
   2  -4   9  153.72   16.41
  -2  -4   9  178.37   15.34
   2   4   9  174.03   16.89
  -2   4   9  147.86   16.40
  -2  -4  10  335.25   22.55
   2  -4  10  315.30   24.19
   2   4  10  306.37   23.48
  -2   4  10  355.05   25.93
  -2  -4  11    2.36    3.05
  -2   4  11    0.08    2.66
   2   4  11   -2.22    4.00
   2  -4  11    0.93    2.11
  -2   4  12   11.73    5.64
   2  -4  12   24.49    7.98
   2   4  12   16.47    5.75
  -2  -4  12   22.33    6.38
  -2  -4  13    5.23    3.84
   2   4  13    4.65    2.38
  -2   4  13    5.94    4.34
   2  -4  13    7.66    4.96
  -2   4  14   83.45   14.13
  -2  -4  14  109.23   15.06
   2  -4  14   75.10   12.96
   2   4  14   92.19   14.04
  -2  -4  15  237.40   24.05
  -2   4  15  245.57   24.35
   2   4  15  268.50   25.43
  -2  -4  16   45.33   10.26
  -2   4  16   38.16   10.16
   2  -4  16   52.32   12.35
   2   4  16   67.95   12.85
  -2   4  17    2.41    3.51
   2   4  17   -1.44    2.68
   2  -4  17    2.17    5.21
  -2  -4  17    0.41    4.15
   2  -4  18    7.67    5.74
   2   4  18    8.83    7.34
  -2   4  18    5.35    2.38
  -2  -4  18    8.75    5.69
  -2   4  19    7.61    6.42
   2  -4  19   -0.94    4.98
  -2  -4  19    2.71    2.29
   2   4  19   -3.78    5.28
   2  -4  20  103.31   17.52
  -2  -4  20   84.79   15.78
  -2   4  20   88.91   16.76
   2   4  20  109.46   18.37
   2   4  21    0.31    3.43
  -2   4  21    2.19    2.21
   2  -4  21    5.98    7.56
  -2  -4  21   -2.16    3.45
   2   4  22   41.20   12.35
  -2  -4  22   35.16   10.63
   2  -4  22   43.63   13.58
  -2   4  22   39.52   11.61
   2   4  23    4.07    4.56
  -2  -4  23   12.06    6.85
   2  -4  23    4.81    1.80
  -2   4  23    0.18    2.74
   2   4  24   18.02    3.66
  -2   4  24    8.91    4.46
  -2  -4  24   21.90    8.76
   2  -4  24   21.88    9.14
  -2   4  25   18.07    8.61
   2   4  25   36.40   10.74
  -2  -4  25   42.87   13.68
   2  -4  25   34.77   12.05
   2   4  26    8.41    7.78
  -2  -4  26   -4.59    3.19
   2  -4  26    2.77    5.69
  -2   4  26   -1.94    5.51
   2   4  27   18.72    9.48
   2  -4  27   27.92   12.04
  -2   4  27    8.88    6.36
  -2  -4  27    0.90    3.66
  -2   4  28   18.16    9.33
   2  -4  28   25.12    9.77
   2   4  28    9.08    5.19
  -2  -4  28   26.08   10.39
   2   4  29   11.68    9.54
  -2  -4  29   -4.46    5.87
   2  -4  29    3.28    5.49
  -2   4  29    4.51    5.78
  -2   4  30   11.00    6.15
  -2  -4  30    1.20    3.51
   2  -4  30    0.51    4.26
   2   4  30    1.45    3.82
   2  -4  31   -2.54    5.43
   2   4  31   17.46    8.10
  -2   4  31    5.08    9.93
  -2  -4  31    2.88    4.84
  -2  -5   0 3788.75   61.76
   2  -5   0 3366.51   73.95
   2  -5   1   17.05    6.13
  -2  -5   1   20.11    4.31
  -2  -5  -1   17.97    4.54
   2  -5  -1   15.61    4.92
   2  -5   2   91.70   12.09
  -2  -5   2   97.34   10.10
   2  -5  -2  107.62   12.70
  -2  -5   3   80.72    9.07
   2  -5   3   84.97   12.06
   2  -5  -3   68.38   10.64
   2  -5   4   57.73    9.59
  -2  -5   4   68.12    8.25
   2   5   4   76.21    9.86
   2  -5   5  307.01   22.76
   2   5   5  321.21   21.34
  -2  -5   5  338.80   19.02
   2  -5   6   65.80   10.95
  -2   5   6   66.95   10.70
  -2  -5   6   60.02    8.52
   2   5   6   59.66    9.06
  -2  -5   7  441.18   23.40
   2  -5   7  384.21   26.06
  -2   5   7  381.43   26.09
   2   5   7  407.72   25.53
   2  -5   8 1271.47   48.89
  -2   5   8 1249.96   49.01
   2   5   8 1188.81   44.92
  -2  -5   8 1219.36   41.42
   2   5   9    3.51    2.95
  -2  -5   9    1.98    1.43
   2  -5   9    3.03    1.72
  -2   5   9    6.39    5.21
   2  -5  10  231.54   21.38
  -2  -5  10  227.17   19.14
  -2   5  10  225.17   22.13
   2   5  10  157.40   17.07
  -2   5  11   72.36   12.67
   2   5  11   81.20   12.67
  -2  -5  11   85.42   12.58
   2  -5  11   69.76   12.01
   2   5  12   18.54    6.05
  -2   5  12   14.11    5.61
   2  -5  12    8.41    4.34
  -2  -5  12   18.40    5.77
  -2  -5  13   71.27   11.63
   2  -5  13   60.34   12.23
  -2   5  13   64.38   12.99
   2   5  13   62.78   11.40
  -2  -5  14  488.91   32.68
   2  -5  14  487.52   34.93
  -2   5  14  442.78   33.32
   2   5  14  478.26   33.08
   2  -5  15  121.50   18.01
  -2   5  15  123.01   17.66
   2   5  15  111.41   16.95
  -2  -5  15  166.77   19.86
  -2   5  16   21.94    6.80
   2  -5  16   14.79    6.14
   2   5  16   14.28    5.51
  -2  -5  16    4.96    2.90
   2   5  17   13.93    6.45
  -2  -5  17    9.33    4.38
   2  -5  17    7.68    6.17
  -2   5  18   71.84   15.57
  -2  -5  18   80.12   15.25
   2  -5  18   67.74   14.77
   2   5  18   73.91   14.38
  -2  -5  19  105.57   17.10
   2  -5  19   99.51   17.50
  -2   5  19  119.25   19.24
   2   5  19   91.38   16.97
  -2  -5  20   44.93   12.37
   2   5  20   27.39    7.70
   2  -5  20   46.78   12.34
  -2   5  20   27.67   10.64
  -2   5  21    4.34    2.62
  -2  -5  21    5.69    3.65
   2  -5  21    2.19    3.46
   2   5  21    4.11    1.08
  -2  -5  22   92.60   17.23
   2  -5  22  134.03   22.31
  -2   5  22  105.61   18.50
   2   5  22   96.33   18.29
   2   5  23    2.92    4.30
  -2  -5  23    5.57    6.95
  -2   5  23    0.74    6.76
   2  -5  23    1.42    4.36
   2   5  24   34.26   10.62
   2  -5  24   28.50   10.23
  -2  -5  24   37.03   11.88
  -2   5  24   30.56    8.54
   2   5  25    9.21    7.81
  -2   5  25   -3.07    4.19
  -2  -5  25    1.54    3.55
   2  -5  25    1.00    6.94
  -2   5  26   33.29   11.29
   2  -5  26   24.18    8.85
  -2  -5  26   35.83   12.19
   2   5  26   25.86    8.60
  -2   5  27   16.04    7.00
   2   5  27    3.28    3.65
  -2  -5  27    3.25    4.87
   2  -5  27    9.95    7.47
   2  -5  28   31.42   11.69
   2   5  28   39.92   11.27
  -2   5  28   33.11   11.10
   2  -5  29    1.76    5.35
  -2  -5  29   -4.87    5.02
  -2   5  29    2.54    6.02
   2   5  29    3.48    5.07
   2  -5  30    7.20    7.03
  -2   5  30    0.79    3.46
  -2  -5  30    3.15    2.91
   2   5  30   18.17    8.00
  -2  -6   0  550.92   26.78
   2  -6   0  471.76   29.60
   2  -6  -1   41.82    8.89
  -2  -6   1   48.89    8.17
   2  -6   1   30.28    7.50
   2  -6  -2   15.53    5.77
   2  -6   2   20.68    6.89
  -2  -6   2   25.81    5.91
  -2  -6   3   19.29    5.37
   2  -6  -3   41.77    8.47
   2  -6   3   47.75    9.42
   2  -6  -4  207.83   19.46
   2  -6   4  161.76   17.43
   2   6   4  214.56   18.06
  -2  -6   4  194.87   16.01
   2  -6   5  142.35   15.95
   2   6   5  139.52   15.25
  -2  -6   5  147.59   14.16
   2   6   6   13.08    4.97
   2  -6   6   18.51    7.89
  -2  -6   6    9.00    3.92
   2  -6   7  194.79   19.56
  -2   6   7  194.44   19.69
   2   6   7  179.66   17.99
  -2  -6   7  167.69   16.46
  -2  -6   8    7.58    3.06
   2   6   8    2.44    1.89
   2  -6   8    8.40    5.14
  -2   6   8    8.43    5.78
  -2  -6   9    9.97    4.14
  -2   6   9   15.32    6.21
   2   6   9   21.18    7.08
   2  -6   9   10.50    6.37
   2   6  10   60.04   11.03
   2  -6  10   43.39    9.74
  -2  -6  10   51.91    9.42
  -2   6  10   30.64    7.98
   2   6  11  490.63   33.69
  -2   6  11  514.48   34.71
   2  -6  11  475.10   33.01
  -2  -6  11  500.56   30.86
   2   6  12  127.10   16.76
  -2  -6  12  133.73   16.35
  -2   6  12  123.30   17.75
   2  -6  12  116.28   15.67
   2   6  13   85.03   14.19
  -2  -6  13   68.08   12.64
   2  -6  13   88.90   14.53
  -2   6  13  100.32   15.77
   2   6  14  227.68   24.01
  -2  -6  14  219.37   22.78
  -2   6  14  267.78   26.20
   2  -6  14  253.33   25.15
  -2  -6  15  113.95   16.25
   2   6  15   80.80   14.06
   2  -6  15  101.28   16.76
  -2   6  15   94.48   16.34
   2   6  16  153.26   19.31
   2  -6  16  157.90   20.47
  -2  -6  16  117.01   18.04
   2  -6  17    3.52    0.82
   2   6  17    4.55    3.54
  -2   6  17    1.75    5.70
  -2  -6  17    0.80    2.84
   2   6  18   57.97   12.74
  -2  -6  18   50.96   13.51
  -2   6  18   80.88   15.69
   2  -6  18   44.39   12.17
   2   6  19   16.69    7.73
   2  -6  19   21.61    9.14
  -2  -6  19   20.13    6.70
  -2   6  19    7.97    4.25
   2   6  20    5.59    6.28
   2  -6  20    1.28    2.84
  -2   6  20    4.93    3.79
  -2  -6  20    9.03    4.64
   2   6  21    9.50    7.02
   2  -6  21    3.08    6.79
  -2  -6  21   10.93    6.36
  -2   6  21    7.30    3.83
   2   6  22   53.29   13.41
   2  -6  22   47.09   13.69
  -2  -6  22   55.79   14.41
  -2   6  22   51.83   13.36
   2   6  23   13.88    6.31
  -2   6  23   26.79   10.40
  -2  -6  23   20.87    9.57
   2  -6  23    6.41    3.80
   2  -6  24  109.69   20.14
  -2  -6  24   76.34   17.28
   2   6  24   76.45   15.89
  -2   6  24   63.63   15.83
  -2   6  25    4.42    5.40
  -2  -6  25    0.92    2.27
   2  -6  25    3.05    2.26
   2   6  25    5.33    8.65
   2   6  26   29.25   11.92
  -2   6  26   23.04   11.74
  -2  -6  26    4.04    3.92
   2  -6  26   45.59   13.55
  -2   6  27   -2.43    1.06
  -2  -6  27    2.19    4.89
   2   6  27   15.17    8.77
   2  -6  27    7.02    7.73
   2   6  28    9.63    6.33
  -2  -6  28    5.51    7.05
  -2   6  28    3.14    4.41
   2   6  29    5.51    3.88
  -2  -6  29   14.05    8.30
   2  -6  29   16.18    7.40
  -2   6  29   14.07    6.16
   2  -6  30    9.18    5.72
   2   6  30    0.80    3.03
  -2   6  30    8.18    1.20
   2  -7   0    1.30    3.25
  -2  -7   0   -0.32    1.65
   2  -7   1  735.72   39.10
  -2  -7   1  735.78   34.92
   2  -7  -1  734.19   38.61
  -2  -7  -1  695.38   33.31
  -2  -7  -2  214.65   18.39
   2  -7   2  268.27   23.65
  -2  -7   2  231.59   19.28
   2  -7  -2  178.72   19.39
  -2  -7   3  652.24   32.10
   2  -7   3  660.98   37.00
   2  -7  -3  661.15   36.56
   2  -7  -4  101.16   14.56
  -2  -7   4  101.66   12.80
   2  -7   4  101.51   14.15
  -2  -7   5  180.62   16.80
   2  -7   5  183.86   19.21
   2  -7  -5  167.29   19.14
   2   7   5  154.66   16.43
  -2  -7   6  205.13   18.63
   2   7   6  270.85   22.35
   2  -7   6  232.65   21.70
   2  -7   7  779.25   41.74
   2   7   7  736.58   38.50
  -2  -7   7  653.23   34.24
  -2  -7   8  103.49   13.87
   2   7   8  126.95   15.99
   2  -7   8   88.93   13.70
  -2   7   9   91.81   14.66
  -2  -7   9   83.04   12.56
   2  -7   9   90.34   14.60
   2   7   9   74.54   12.46
  -2  -7  10   47.99    8.99
   2   7  10   58.46   11.42
   2  -7  10   41.70    9.86
  -2   7  10   47.57   11.27
  -2  -7  11 1849.89   62.93
   2  -7  11 1742.67   65.13
  -2   7  11 1780.18   66.23
   2   7  11 1655.85   63.53
  -2  -7  12  267.60   24.60
   2  -7  12  261.87   26.07
   2   7  12  299.28   27.31
  -2   7  13  110.33   17.00
  -2  -7  13  122.61   16.37
   2   7  13  105.99   16.51
   2  -7  13   98.14   15.86
  -2   7  14   72.56   14.46
   2  -7  14   61.73   13.07
   2   7  14   68.32   12.98
  -2  -7  14   52.32   10.83
   2   7  15    5.92    6.55
   2  -7  15   -1.47    4.16
  -2   7  15    6.40    6.08
  -2  -7  16   89.48   15.71
  -2   7  16  125.57   19.59
   2  -7  16   96.81   17.15
   2   7  16  125.32   19.61
   2  -7  17  148.22   20.72
   2   7  17  127.92   20.10
  -2   7  17  146.10   21.27
  -2  -7  17  140.92   20.66
   2  -7  18   41.94   11.14
  -2  -7  18   35.33   10.31
   2   7  18   35.45   10.77
  -2   7  18   42.82   11.20
  -2   7  19   47.58   13.65
   2  -7  19   48.22   12.77
   2   7  19   43.14   10.72
  -2  -7  19   41.75   12.44
   2   7  20    0.23    1.97
  -2   7  20    2.83    2.69
  -2  -7  20    0.12    2.70
   2  -7  20    6.07    2.96
   2   7  21   71.57   16.16
  -2   7  21   71.13   16.36
   2  -7  21   96.22   18.60
  -2  -7  21   62.49   14.22
   2  -7  22    4.86    3.02
   2   7  22    1.10    4.54
  -2  -7  22   -5.12    5.17
  -2   7  22   -0.27    4.23
   2   7  23   -3.58    6.05
   2  -7  23   -2.19    4.16
  -2  -7  23    0.60    6.15
  -2   7  23    2.30    3.49
   2  -7  24    5.40    4.32
  -2  -7  24    1.86    2.18
   2   7  24    6.39    8.67
  -2   7  24    0.81    4.62
   2   7  25   74.42   16.24
  -2  -7  25   64.25   15.85
   2  -7  25   52.20   14.38
  -2   7  25   48.20   14.98
   2   7  26   -1.28    5.35
  -2  -7  26    6.21    7.88
  -2   7  26   -3.61    5.87
   2  -7  26   -3.91    1.18
   2   7  27    1.23    6.02
  -2   7  27    5.08    3.73
   2   7  28    7.01    7.55
   2  -7  28    5.24    3.36
  -2   7  28    9.91    7.60
   2   7  29   34.83   13.15
  -2   7  29   20.55   10.97
   2  -7  29   42.99   12.61
   2  -8   0   30.67    8.97
  -2  -8   0   16.44    5.00
  -2  -8   1   13.97    4.57
   2  -8  -1    8.53    6.14
  -2  -8  -1    2.74    1.11
  -2  -8  -2   36.26    8.47
   2  -8  -2   26.82    7.37
   2  -8   2   32.09    8.33
  -2  -8   2   25.89    7.20
   2  -8  -3  103.18   15.26
  -2  -8   3  102.54   13.40
   2  -8   3  127.23   16.83
  -2  -8  -3  126.34   15.19
   2  -8  -4  251.07   23.73
  -2  -8   4  183.71   17.97
   2  -8   4  218.37   22.02
  -2  -8  -4  201.81   20.06
   2  -8  -5  161.79   19.46
   2  -8   5  188.19   20.21
  -2  -8   5  201.44   19.48
   2  -8  -6    1.80    1.94
   2  -8   6    3.77    3.05
  -2  -8   6    4.28    3.21
   2   8   6   -1.45    1.84
   2  -8   7   79.01   14.48
  -2  -8   7   67.78   12.16
   2   8   7   73.22   12.56
   2  -8   8   -1.22    2.40
   2   8   8    1.93    1.84
  -2  -8   8   -0.01    3.79
  -2  -8   9   85.32   13.25
   2   8   9   93.91   15.77
   2  -8   9   77.27   13.24
  -2   8  10   49.65   11.21
   2   8  10   44.89    9.16
  -2  -8  10   62.64   12.40
  -2   8  11   -0.64    1.09
   2  -8  11    4.08    5.86
  -2  -8  11   -0.29    1.85
   2   8  11    0.58    4.44
  -2  -8  12   26.25    8.77
   2  -8  12   26.13   10.05
  -2   8  12   17.57    5.61
   2   8  12    4.08    2.71
  -2   8  13   -3.31    4.76
  -2  -8  13    6.87    4.77
   2  -8  13   14.68    7.49
   2   8  13    6.80    4.55
  -2  -8  14   41.99   10.08
   2  -8  14   40.69   11.73
   2   8  14   26.16    9.45
  -2   8  14   10.01    7.24
  -2  -8  15  190.81   22.80
   2  -8  15  267.02   27.81
   2   8  15  190.65   23.75
  -2   8  15  241.58   27.21
  -2   8  16   -1.21    4.75
   2  -8  16   -4.45    4.83
  -2  -8  16    0.46    0.94
   2   8  16   -0.86    1.56
  -2   8  17   52.98   13.12
  -2  -8  17   64.27   14.11
   2  -8  17   76.33   15.84
   2   8  17   75.59   16.19
  -2  -8  18   26.98   10.22
  -2   8  18   13.81    6.08
   2   8  18   27.22    7.13
   2  -8  18   12.78    6.44
   2  -8  19   86.38   16.81
   2   8  19   69.17   16.09
  -2  -8  19   45.43   11.47
  -2   8  19   58.35   15.05
   2  -8  20    1.14    5.18
  -2  -8  20   -1.92    2.15
  -2   8  20   -1.23    1.15
   2   8  20    7.33    4.66
  -2   8  21  107.48   19.31
  -2  -8  21   94.15   19.01
   2  -8  21   88.24   17.77
   2   8  21  104.65   19.35
   2   8  22    2.42    4.47
   2  -8  22    4.58    7.85
  -2  -8  22    1.10    4.80
  -2   8  22   -0.05    6.94
   2   8  23    7.62    3.49
   2  -8  23   12.46    5.34
  -2  -8  23   16.64    8.52
  -2   8  23    3.91    3.51
  -2   8  24   10.19    6.39
  -2  -8  24   14.69    8.77
   2  -8  24   13.00    8.35
   2   8  24   16.74    8.80
   2  -8  25  129.28   22.55
  -2   8  25  119.52   20.71
   2   8  25   98.34   19.30
   2  -8  26   27.62   10.59
   2   8  26   22.86    8.62
  -2   8  26   38.88   13.24
   2  -8  27    9.56    8.22
   2   8  27    3.05    2.11
  -2   8  27    7.59    7.86
   2  -8  28    4.83    6.55
   2   8  28    0.78    4.67
  -2   8  28   -7.57    7.31
   2  -9   0   38.51    9.75
  -2  -9   0   31.43    8.66
   2  -9   1  178.97   21.49
  -2  -9   1  150.38   17.95
  -2  -9  -1  168.90   19.21
   2  -9  -1  158.11   20.88
   2  -9  -2   10.77    4.75
  -2  -9  -2   16.33    6.38
   2  -9   2   14.58    5.43
  -2  -9   2   18.44    6.66
   2  -9  -3  336.01   29.01
  -2  -9   3  340.95   27.07
   2  -9   3  361.73   30.61
  -2  -9  -3  350.58   27.98
   2  -9  -4  108.32   15.72
  -2  -9  -4  108.07   15.45
  -2  -9   4  101.54   15.22
   2  -9   4   87.85   14.36
  -2  -9   5    5.74    3.14
   2  -9   5   11.56    5.76
  -2  -9  -5   13.58    6.20
   2  -9  -5   16.35    7.71
   2  -9  -6  243.52   24.87
   2  -9   6  242.18   24.62
  -2  -9   6  227.02   22.82
  -2  -9   7  933.44   45.54
   2  -9  -7  961.50   50.06
   2  -9   7 1036.43   51.65
   2   9   8  497.92   34.85
   2  -9  -8  432.30   33.92
   2  -9   8  437.00   34.54
  -2  -9   8  482.78   33.23
  -2  -9   9   38.69   10.54
   2  -9   9   21.58    7.67
   2   9   9   20.20    5.80
   2  -9  10  279.64   28.16
   2   9  10  250.47   25.64
  -2  -9  10  287.01   27.49
  -2  -9  11   66.54   12.73
   2   9  11   75.62   14.88
   2  -9  11   68.45   14.92
  -2   9  12   -6.57    3.20
   2  -9  12    1.51    2.29
   2   9  12    4.63    3.30
  -2  -9  12   -2.38    2.82
   2  -9  13  127.87   18.94
  -2  -9  13  142.92   19.63
   2   9  13  141.97   19.63
  -2   9  13  141.02   20.17
  -2   9  14   25.92    9.37
  -2  -9  14   15.38    6.85
   2  -9  14   31.14    8.42
   2   9  14   27.48    9.44
  -2  -9  15   53.39   12.65
   2   9  15   98.61   17.34
   2  -9  15  115.00   18.28
  -2   9  15  124.32   19.85
   2  -9  16   47.72   13.04
  -2  -9  16   45.13   12.91
  -2   9  16   43.52   11.51
   2   9  16   44.16   12.45
  -2   9  17  225.95   26.82
  -2  -9  17  178.31   24.26
   2   9  17  184.22   24.63
   2  -9  17  187.05   25.63
   2  -9  18   14.16    6.68
   2   9  18    8.65    6.41
  -2  -9  18    7.56    6.94
  -2   9  18   20.86    7.47
   2  -9  19   25.25    9.44
   2   9  19   20.00   10.77
  -2   9  19    9.23    2.14
  -2  -9  19   24.95    8.56
   2   9  20   -1.98    2.32
   2  -9  20    2.19    3.32
  -2  -9  20    3.35    1.56
  -2   9  20   -1.37    3.37
  -2  -9  21   31.63   11.64
  -2   9  21   32.34   10.27
   2  -9  21   26.69    9.90
   2   9  21   21.49    8.20
  -2   9  22   47.39   13.81
   2  -9  22   56.93   14.07
   2   9  22   46.84   12.99
  -2   9  23    9.93    6.48
   2  -9  23   17.69   10.55
   2   9  23   12.07    6.98
  -2   9  24    8.93    8.99
   2  -9  24   -2.81    2.49
   2   9  24   -0.06    5.18
  -2   9  25   20.41    8.23
   2  -9  25   29.04   10.71
   2   9  25   11.52    8.98
   2   9  26   15.76   10.25
   2  -9  26    0.97    4.08
  -2   9  26    6.44    6.41
   2  -9  27    6.21    4.53
  -2   9  27   -0.82    3.23
   2   9  27    3.41    8.63
   2 -10   0   73.66   14.11
  -2 -10   0   75.96   14.42
   2 -10  -1    2.98    4.35
  -2 -10   1    1.93    3.16
  -2 -10  -1   10.39    6.18
   2 -10   1    7.23    6.63
  -2 -10   2    1.99    2.62
   2 -10   2    1.44    4.96
  -2 -10  -2   -0.48    2.17
   2 -10  -2   -1.80    1.40
  -2 -10  -3    8.11    5.39
  -2 -10   3    6.45    4.41
   2 -10   3   -0.46    2.86
   2 -10  -3    3.30    4.25
  -2 -10   4   59.60   11.89
   2 -10   4   53.72   11.97
  -2 -10  -4   46.61   10.67
   2 -10  -4   83.93   14.42
  -2 -10   5   14.42    6.31
  -2 -10  -5   29.76    8.43
   2 -10   5   22.84    8.59
   2 -10  -5   24.18    7.24
   2 -10   6   86.83   15.44
   2 -10  -6   64.06   13.93
  -2 -10   6   90.54   15.34
  -2 -10  -6   77.17   14.14
   2 -10   7   -0.39    4.33
  -2 -10   7   -0.65    1.24
   2 -10  -7    0.95    2.49
   2 -10  -8    6.38    6.55
  -2 -10   8   11.04    5.97
   2 -10   8    9.82    5.93
   2 -10   9   -1.77    4.99
   2 -10  -9   -1.89    1.99
  -2 -10   9    0.74    2.50
   2  10  10   -2.93    5.37
  -2 -10  10    2.10    4.13
   2 -10 -10    4.07    4.71
   2 -10  10   -0.04    1.45
   2  10  11   78.88   15.31
   2 -10  11   84.88   16.14
  -2 -10  11   79.46   15.67
  -2 -10  12   42.09   10.07
   2  10  12   49.81   12.24
   2 -10  12   54.81   15.07
  -2 -10  13   -0.94    3.56
   2 -10  13    0.85    1.10
  -2 -10  14   13.71    5.11
   2 -10  14   18.49    7.51
   2  10  14   20.41    8.38
   2 -10  15   40.45   11.11
  -2  10  15   35.25   10.63
  -2 -10  15   16.49    4.97
   2  10  15   33.41   10.47
  -2  10  16   10.89    5.23
  -2 -10  16   22.90    8.85
   2 -10  16   28.42   10.33
   2  10  16   25.11    8.97
   2 -10  17    1.99    5.54
  -2  10  17    0.61    3.40
   2  10  17    1.14    5.93
  -2 -10  17    0.45    0.29
   2 -10  18   46.01   13.39
  -2  10  18   38.16   10.31
   2  10  18   29.94   10.79
   2 -10  19   33.40   11.31
  -2  10  19   26.33    8.44
   2  10  19   15.09    6.04
   2 -10  20   -0.16    5.73
  -2  10  20    4.06    6.56
   2  10  20    6.38    4.33
   2  10  21   29.68   11.11
  -2  10  21   10.90   10.14
   2 -10  21   16.69    9.23
   2  10  22   35.93   12.51
  -2  10  22   71.91   17.85
   2 -10  22   34.83   12.33
   2  10  23    8.25    4.45
  -2  10  23   -0.19    3.33
   2 -10  23   13.96    7.90
   2  10  24   20.47    9.39
   2 -10  24    5.83    6.58
  -2  10  24    1.59    5.87
   2 -10  25    1.20    2.21
   2  10  25   -0.85    2.52
  -2  10  25   -2.06    6.03
   2 -11   0  209.25   24.97
  -2 -11   0  187.63   22.07
  -2 -11   1    8.75    4.38
   2 -11  -1   21.26    9.21
   2 -11   1    7.03    4.99
  -2 -11  -1   10.98    4.35
   2 -11   2    5.52    3.95
  -2 -11   2    2.67    4.66
  -2 -11  -2    1.33    1.29
   2 -11  -2   -2.20    5.57
   2 -11  -3    6.60    6.49
  -2 -11   3    7.10    3.95
   2 -11   3   -0.31    2.11
  -2 -11  -3    9.57    6.26
  -2 -11   4  460.99   34.60
   2 -11  -4  455.88   36.78
   2 -11   4  496.97   37.49
  -2 -11  -4  415.78   34.57
  -2 -11   5   22.23    7.70
   2 -11   5   18.49    6.96
  -2 -11  -5   13.10    6.49
   2 -11  -5   10.68    6.07
   2 -11  -6  109.62   17.31
  -2 -11   6  113.29   17.81
  -2 -11  -6   62.91   13.54
   2 -11   6   80.43   14.88
  -2 -11   7  155.04   21.01
   2 -11   7  172.66   22.86
  -2 -11  -7  161.54   21.10
   2 -11  -7  175.57   22.83
  -2 -11  -8   14.71    8.12
  -2 -11   8    3.43    1.42
   2 -11  -8   15.88    7.84
   2 -11   8   12.62    6.37
  -2 -11   9   58.46   13.30
   2 -11   9   53.11   12.27
   2 -11  -9   39.00   10.77
   2 -11 -10  223.71   25.95
   2 -11  10  204.39   25.72
  -2 -11  10  212.49   26.09
  -2 -11  11    7.91    4.73
   2 -11 -11    6.60    6.37
   2 -11  11    1.39    4.17
   2 -11 -12   37.89   11.44
   2 -11  12   49.53   14.64
   2  11  12   56.63   14.36
  -2 -11  12   48.30   11.48
  -2 -11  13   25.61    9.16
   2 -11  13   12.12    6.01
   2  11  13    8.68    4.24
   2 -11  14   74.15   15.86
  -2 -11  14   66.17   16.72
   2  11  14   40.51   12.38
   2 -11  15    8.05    6.15
   2  11  15   19.07    9.84
   2 -11  16   23.26    9.99
   2  11  16   17.35    7.92
   2 -11  17    0.18    3.41
   2  11  17   -3.00    5.97
   2 -11  18   28.13   11.01
  -2  11  18   43.19   11.33
   2  11  18   30.14   10.07
  -2  11  19    0.87    1.06
   2  11  19    6.17    5.61
   2 -11  19    3.41    7.95
   2  11  20    2.34    3.96
   2 -11  20    5.82    4.86
  -2  11  20    3.32    4.67
   2 -11  21    9.43    5.78
  -2  11  21   13.47    6.80
   2  11  21    5.63    4.50
  -2  11  22   -2.89    5.80
   2 -11  22    5.01    5.11
   2  11  22   -0.23    2.76
  -2  11  23    5.80    5.54
   2 -11  23    2.76    4.54
   2  11  23   10.05    6.92
  -2  11  24    6.62    6.96
   2  11  24    5.77    4.70
   2 -12   0   50.54   13.54
  -2 -12   0   39.65   11.42
   2 -12  -1   19.68    5.39
  -2 -12   1   13.04    6.86
   2 -12   1   19.14    8.67
  -2 -12  -1   15.79    8.10
   2 -12  -2   15.41    6.87
  -2 -12   2   22.92    8.20
   2 -12   2   16.64    8.42
  -2 -12  -2   17.09    6.39
   2 -12  -3   19.86    8.35
  -2 -12   3   18.81    7.44
   2 -12   3   26.75    9.79
  -2 -12  -3    9.00    6.23
  -2 -12   4    7.59    5.33
   2 -12   4    8.10    5.92
   2 -12  -4   13.18    6.93
  -2 -12  -4    2.29    0.79
   2 -12   5   14.68    9.07
  -2 -12   5   16.66    8.23
   2 -12  -5   14.72    7.54
  -2 -12  -5    7.84    8.25
  -2 -12   6    0.52    3.84
  -2 -12  -6    1.74    5.71
   2 -12   6   -0.62    1.72
   2 -12  -6    1.24    5.34
  -2 -12  -7    4.40    5.06
  -2 -12   7    5.45    5.49
   2 -12  -7    3.09    4.85
   2 -12   7    3.82    7.04
  -2 -12  -8   16.19    7.14
   2 -12  -8   -4.04    4.99
  -2 -12   8    1.86    2.76
   2 -12   8   13.43    7.38
  -2 -12  -9    9.95    5.82
   2 -12   9   10.59    6.93
  -2 -12 -10    1.74    5.29
  -2 -12  10   14.36    9.91
   2 -12  10   -1.32    3.55
   2 -12 -10    3.67    4.95
   2 -12 -11   22.95    7.95
   2 -12  11   21.50    9.90
   2 -12  12   16.54   10.02
   2 -12 -12   -1.35    2.57
   2 -12 -13    6.95    4.14
   2 -12  13   -0.28    2.50
   2 -12 -14    6.85    5.11
   2 -12  14    5.69    5.53
   2 -12  15    7.88    5.43
   2  12  15   13.77    6.16
   2 -12  16    7.79    6.76
   2  12  16    4.58    2.28
   2 -12  17    4.47    4.24
   2  12  17    0.03    4.55
   2  12  18   11.47    3.74
   2 -12  18   15.65    6.46
   2 -12  19    8.18    3.34
   2  12  19   17.75    9.04
   2 -12  20   -5.13    7.24
   2  12  20   -0.33    2.62
   2 -12  21    9.47   10.41
   2  12  21   25.78   11.81
  -2  12  22    7.27    7.62
   2  12  22   -3.54    2.02
   2 -12  22   -2.60    5.62
   2 -13   0  130.71   20.91
  -2 -13   0  127.01   20.56
  -2 -13   1   35.05   11.07
   2 -13   1   44.55   12.57
   2 -13  -1   30.63    7.92
  -2 -13  -1   49.77   12.43
  -2 -13   2   -1.90    2.21
   2 -13   2   -0.05    2.46
   2 -13  -2    2.60    4.35
   2 -13  -3    6.85    5.67
  -2 -13  -3    8.75    5.52
  -2 -13   3    5.29    3.38
   2 -13   3    7.02    0.75
   2 -13  -4   33.99   11.81
   2 -13   4   26.70    9.77
  -2 -13   4   25.30   10.31
  -2 -13  -4   19.27    8.25
   2 -13   5    5.85    6.29
   2 -13  -5    7.28    9.38
  -2 -13  -5    2.77    2.08
  -2 -13   5    6.90    7.12
   2 -13  -6   11.85    6.38
   2 -13   6   20.38    7.70
  -2 -13  -6   31.45   11.38
   2 -13  -7   95.90   18.06
  -2 -13  -7   81.46   16.01
   2 -13   7   63.21   15.24
  -2 -13  -8    0.39    2.00
   2 -13  -8    0.22    4.25
   2 -13   8    4.32    2.52
   2 -13  -9   34.86   13.19
  -2 -13  -9   26.79    9.59
   2 -13   9   24.04    9.39
  -2 -13 -10    6.05    1.79
   2 -13  10   12.65    6.96
   2 -13 -11   33.95   11.61
   2 -13  11   37.56   12.05
  -2 -13 -11   46.56   12.00
  -2 -13 -12    5.25    2.89
   2 -13 -12   13.87    7.82
   2 -13  12   21.98   10.55
   2 -13 -13    0.94    6.03
   2 -13  13   -2.62    1.59
  -2 -13 -13    2.04    6.28
   2 -13  14    2.67    4.12
   2 -13 -14    9.10    6.31
   2 -13  15   26.22   10.35
   2 -13 -15   12.40    8.13
   2 -13 -16   -4.05    3.72
   2 -13  16   -1.62    2.98
   2 -13  17    2.50    5.35
   2 -13 -17   16.15   10.21
   2 -13  18   -0.23    5.89
   2 -13 -18    3.32    4.91
   2 -13  19    5.60    4.25
   2  13  19   12.37    9.99
  -2 -14   0   42.85   12.92
   2 -14   0   27.92   10.04
   2 -14   1   -1.91    4.06
   2 -14  -1   -0.16    3.81
  -2 -14  -1    0.05    9.83
   2 -14   2   -0.68    4.58
   2 -14  -2    6.69    6.52
  -2 -14  -2   -1.55    2.60
   2 -14   3   27.37   10.57
  -2 -14  -3   28.76   12.00
   2 -14  -3   23.27    9.46
  -2 -14  -4    5.81    6.74
   2 -14   4   11.20    7.65
   2 -14  -4   25.12    8.62
   2 -14   5    0.05    3.26
   2 -14  -5    1.53    2.92
  -2 -14  -5    0.18    4.36
   2 -14  -6    3.17    5.56
  -2 -14  -6   -3.27    3.25
   2 -14   6    8.58    8.49
   2 -14  -7   17.19   10.02
  -2 -14  -7   23.95    9.84
   2 -14   7   17.05    7.31
  -2 -14  -8   18.20    8.21
   2 -14   8    6.84    6.48
   2 -14  -8   17.37    8.75
  -2 -14  -9   -2.21    2.68
   2 -14  -9   -0.08    2.67
   2 -14   9   -0.76    2.71
  -2 -14 -10   -3.72    6.60
   2 -14  10   -6.08    7.90
   2 -14 -10   -1.74    1.57
   2 -14  11   11.26    7.36
  -2 -14 -11    0.11    3.39
   2 -14 -11    1.37    6.58
  -2 -14 -12   -2.19    4.60
   2 -14 -12    2.65    2.68
   2 -14  12   -1.99    3.94
  -2 -14 -13   14.17    7.71
   2 -14  13   14.27    5.35
   2 -14 -13    1.56    1.57
   2 -14  14    9.03    5.06
  -2 -14 -14   -1.79    3.53
   2 -14 -14    7.35    5.30
  -2 -14 -15   -2.75    2.92
   2 -14  15    5.64    4.91
   2 -14 -15   -7.40    6.23
   2 -14 -16   10.72    7.60
   2 -14  16    0.19    2.51
  -2 -14 -16    2.27    5.12
   2 -14  17   -2.15    3.89
   2 -14 -17    1.23    4.51
   2 -15   0   31.52   12.68
   2 -15   1    7.26    8.31
   2 -15  -1    1.45    3.07
   2 -15   2   11.28    7.52
   2 -15  -2   -2.75    6.38
   2 -15   3   13.56    8.61
   2 -15  -3   19.00   10.17
   2 -15   4   50.59   14.31
   2 -15  -4   45.26   13.95
   2 -15   5    2.47    2.49
   2 -15  -5    1.91    2.23
   2 -15  -6   20.74    8.06
  -2 -15  -6   13.53    9.28
   2 -15   6   20.18   10.48
  -2 -15  -7    8.01    4.55
   2 -15   7    5.48    1.98
   2 -15   8   77.81   18.72
   2 -15  -8   56.74   14.94
  -2 -15  -8   43.64   13.63
   2 -15  -9    3.72    6.03
   2 -15   9    7.24    5.09
  -2 -15  -9    3.94    3.11
   2 -15  10    6.84    8.37
   2 -15 -10    7.89    8.02
  -2 -15 -10   -0.75    3.25
  -2 -15 -11    5.64    3.73
   2 -15  11    7.04    6.41
   2 -15 -11    8.26    8.44
   2 -15  12    4.19    2.89
  -2 -15 -12    8.03    8.93
   2 -15 -12   -1.18    6.02
   2 -15 -13    4.66    6.08
   2 -15  13    4.63    4.80
  -2 -15 -13   -3.59    5.65
   2 -16   0    3.45    4.93
   2 -16   1   -1.16    2.58
   2 -16  -1    4.39    3.18
   2 -16   2    5.19    5.24
   2 -16  -2    0.86    7.57
   2 -16  -3   10.63    9.30
   2 -16   3    1.59    5.89
   2 -16   4    4.09    1.68
   2 -16  -4    4.44    2.37
   2 -16  -5    3.83    6.04
   2 -16   5    0.23    2.05
   2 -16   6    3.05    4.88
   2 -16  -6   15.39   11.27
   2 -16   7    7.83    7.69
   2 -16  -7   -3.16    2.64
   3   0   0    0.85    0.55
   3   0   1    0.06    1.20
   3   0  -1    1.35    1.09
   3   0  -2  669.95   17.69
   3   0   2  594.47   19.43
   3   0   3    0.38    1.54
  -3   0   4   55.99    5.88
   3   0   4   58.64    7.18
   3   0   5    0.23    0.14
  -3   0   5   -0.31    1.06
   3   0   6   32.35    5.95
  -3   0   6   48.94    6.54
  -3   0   7    2.45    2.23
   3   0   7    1.62    1.78
  -3   0   8   11.77    3.45
   3   0   8    2.21    1.62
  -3   0   9    1.18    2.18
   3   0   9    0.75    2.68
   3   0  10  116.47   14.47
  -3   0  10  123.22   13.19
  -3   0  11    0.04    2.01
   3   0  11    1.83    3.91
  -3   0  12   15.65    5.70
   3   0  12    8.08    4.17
  -3   0  13    1.72    2.02
   3   0  13    6.69    5.20
  -3   0  14    0.63    2.83
   3   0  14   -1.55    3.31
   3   0  15    4.88    6.70
  -3   0  15    2.92    4.61
  -3   0  16    4.69    1.60
   3   0  16   -0.60    2.13
  -3   0  17    0.38    2.53
   3   0  17    0.34    4.16
   3   0  18  483.57   36.16
  -3   0  18  538.14   37.30
  -3   0  19    3.88    1.29
   3   0  19    3.26    4.34
  -3   0  20    1.75    5.15
   3   0  20    2.17    5.77
  -3   0  21   -2.06    5.13
   3   0  21    1.22    1.79
  -3   0  22    2.60    6.36
   3   0  22   11.08    6.63
  -3   0  23   -2.16    1.71
   3   0  23    3.32    4.66
  -3   0  24   -0.02    3.35
   3   0  24    3.00    6.57
  -3   0  25    3.02    5.88
   3   0  25   -1.27    5.46
  -3   0  26   26.24   11.06
   3   0  26   18.91   10.94
   3   0  27   -1.99    2.81
  -3   0  27   -3.73    1.56
  -3   0  28    3.32    6.05
   3   0  28   -3.60    3.25
   3   0  29   -5.24    6.21
  -3   0  29    4.63    1.53
  -3   0  30   15.41    9.64
   3   0  30   11.17    5.88
  -3   0  31   -3.51    5.46
   3   0  31    5.04    9.68
   3   1   0    0.04    0.35
   3  -1   0    0.42    1.89
   3  -1   1  791.83   24.48
   3  -1  -1  774.98   23.97
   3  -1   2 1386.85   33.44
   3  -1  -2 1477.37   32.79
   3  -1   3 3782.61   60.58
   3   1   3 2854.07   45.82
   3  -1   4   15.80    3.62
  -3   1   4   12.98    3.10
   3   1   4   11.70    3.56
  -3  -1   4   12.86    2.34
  -3   1   5  498.15   21.82
   3   1   5  494.15   22.32
   3   1   6 2047.91   47.89
   3  -1   6 2000.35   49.81
  -3   1   6 2099.43   46.80
  -3  -1   6 1981.24   37.96
   3   1   7  259.40   18.01
  -3   1   7  293.47   18.36
   3  -1   7  300.61   20.28
  -3  -1   7  303.98   16.08
   3  -1   8  899.56   36.15
  -3   1   8  848.66   32.31
  -3  -1   8  848.51   29.41
   3   1   9  306.65   21.97
   3  -1   9  321.92   22.75
  -3  -1   9  301.59   18.97
  -3   1   9  322.52   20.75
   3  -1  10  707.45   35.19
   3   1  10  760.82   36.08
  -3  -1  11   10.00    4.15
  -3   1  11   10.49    4.63
   3   1  11    7.69    3.98
   3  -1  11   11.06    5.14
   3   1  12 1467.83   53.54
   3  -1  12 1421.99   53.28
  -3   1  12 1483.47   50.05
  -3  -1  12 1410.95   49.50
   3   1  13  372.82   28.23
  -3   1  13  340.15   24.38
   3  -1  13  343.97   27.43
  -3  -1  13  340.55   25.66
  -3  -1  14   27.16    7.75
  -3   1  14   36.00    7.88
   3   1  14   23.70    6.95
   3  -1  14   14.42    6.94
   3   1  15   93.37   14.88
   3  -1  15  139.06   18.25
  -3   1  15  107.46   15.49
  -3  -1  15  149.74   17.99
   3   1  16  925.59   48.88
  -3  -1  16  934.08   47.19
   3  -1  16  907.65   48.10
  -3   1  16  847.71   44.73
   3  -1  17  150.23   19.71
   3   1  17  146.32   19.61
  -3  -1  17  153.06   19.38
  -3   1  17  162.60   20.12
  -3  -1  18   11.11    4.57
   3   1  18   10.22    5.38
   3  -1  18    7.19    4.08
  -3   1  18   14.97    6.20
  -3   1  19    7.39    5.99
   3   1  19   16.53    7.17
   3  -1  19   25.33   10.79
  -3  -1  19   24.06    8.47
   3  -1  20  236.70   27.25
  -3   1  20  296.74   29.79
   3   1  20  323.59   31.26
  -3  -1  20  338.79   32.31
  -3   1  21   17.58    7.59
  -3  -1  21   40.84   11.50
   3  -1  21   27.33    8.89
   3   1  21   26.78   10.10
   3  -1  22   92.11   17.37
   3   1  22   98.56   18.53
  -3   1  22  107.31   18.47
  -3  -1  22  113.76   19.05
   3   1  23  202.45   26.56
   3  -1  23  186.46   25.46
  -3  -1  23  228.99   27.26
  -3   1  23  177.40   24.40
  -3   1  24   41.58   12.00
   3   1  24   60.27   14.15
   3  -1  24   64.86   15.57
  -3  -1  24   35.47   11.85
  -3   1  25    4.46    5.92
  -3  -1  25   -3.80    5.76
   3   1  25    2.89    2.67
   3  -1  25    2.60    4.81
   3   1  26   81.29   18.60
   3  -1  26  100.67   20.08
  -3   1  26   74.09   15.46
  -3  -1  26   76.78   16.61
  -3   1  27   36.77   12.44
  -3  -1  27   40.65   14.23
   3  -1  27   36.07   11.61
   3   1  27   41.75   13.99
  -3  -1  28   14.39    9.05
   3   1  28    8.57    7.59
   3  -1  28   15.48    9.49
  -3   1  28   11.87    5.89
  -3   1  29    5.87    4.16
  -3  -1  29    3.07    5.19
   3   1  29    0.06    1.90
   3  -1  29   14.02   10.03
  -3   1  30   30.79   11.56
  -3  -1  30   20.02    3.02
   3  -1  30   27.13   12.08
  -3   1  31   25.24    9.98
  -3  -1  31   38.54   13.50
   3  -1  31   32.93   12.15
   3   1  31   31.12   13.25
   3  -2   0   -1.33    0.69
   3   2   1    1.00    0.60
   3  -2  -1    3.22    2.61
   3  -2   1    3.79    2.47
   3  -2  -2  148.80   12.02
   3  -2   2  164.21   13.02
   3   2   2  167.09   10.04
   3   2   3  476.28   18.16
   3  -2   3  503.29   23.81
   3  -2   4  621.24   27.42
  -3  -2   4  642.15   14.15
   3   2   5  346.06   18.63
   3  -2   5  329.90   21.32
  -3   2   5  342.97   19.38
  -3  -2   5  372.75   13.65
  -3  -2   6    1.59    1.01
   3   2   6   -0.36    2.11
  -3   2   6    0.82    2.77
  -3  -2   7  218.82   13.61
   3   2   7  219.72   17.02
   3  -2   7  218.71   18.04
  -3   2   7  237.69   17.66
   3   2   8  396.70   23.94
   3  -2   8  352.37   23.69
  -3   2   8  329.42   22.19
  -3  -2   8  334.74   18.97
   3  -2   9    4.63    3.36
   3   2   9    1.98    1.57
  -3  -2   9    9.39    3.67
  -3   2   9    6.87    3.53
  -3  -2  10   -2.49    3.21
   3   2  10   -2.42    3.22
   3  -2  10    1.26    2.30
  -3   2  10    2.46    2.95
  -3   2  11   36.39    7.95
  -3  -2  11   33.10    7.22
   3   2  11   24.54    7.14
   3  -2  11   38.38    8.15
  -3  -2  12   67.13   10.69
   3   2  12   75.60   11.85
  -3   2  12   82.62   12.13
   3  -2  12   83.58   13.23
  -3  -2  13   41.90    8.77
  -3   2  13   40.37    8.75
   3   2  13   40.34    8.99
   3  -2  13   42.36    9.57
   3   2  14   69.26   12.77
  -3  -2  14   79.35   12.77
   3  -2  14   67.43   12.09
  -3   2  14   73.23   12.14
  -3  -2  15   55.27   11.23
   3   2  15   71.29   13.45
   3  -2  15   61.48   11.31
  -3   2  15   73.13   13.01
  -3  -2  16  125.79   16.71
   3   2  16  119.34   17.16
   3  -2  16  124.15   17.89
  -3   2  16  103.39   15.59
  -3  -2  17   59.40   12.81
   3   2  17   47.04   11.33
   3  -2  17   67.37   13.06
  -3   2  17   47.41   10.84
  -3  -2  18  109.78   17.14
   3  -2  18   95.84   15.79
   3   2  18   69.03   13.43
  -3   2  18   88.12   15.28
  -3   2  19    2.30    4.46
  -3  -2  19    2.86    3.16
   3   2  19   -1.14    3.58
   3  -2  19    3.66    5.79
  -3  -2  20   44.75   11.88
   3   2  20   41.80   11.14
   3  -2  20   27.89    5.61
  -3   2  20   26.45    7.81
  -3   2  21   29.69    9.65
  -3  -2  21   47.39   12.01
   3   2  21   46.34   12.28
   3  -2  21   57.81   12.61
  -3   2  22    6.54    2.81
   3  -2  22    8.70    2.74
  -3   2  23    5.81    6.53
  -3  -2  23    6.33    7.85
   3   2  23   -0.47    5.26
   3  -2  23   -1.48    3.96
  -3  -2  24    0.39    3.46
  -3   2  24   -1.56    2.41
   3   2  24   -6.18    7.52
   3  -2  24   -2.72    6.14
  -3  -2  25    7.48    5.69
   3   2  25   15.59    9.86
   3  -2  25   11.02    7.88
  -3   2  25    3.79    5.63
  -3  -2  26   -2.26    5.39
   3   2  26   -2.51    4.97
   3  -2  26    0.40    3.15
  -3   2  26   -0.38    3.44
  -3  -2  27   10.96    6.71
   3   2  27   11.36    5.56
  -3   2  27    7.99    4.08
   3  -2  27    7.88    5.55
  -3   2  28   -0.65    5.11
  -3  -2  28    3.50    5.89
   3   2  28   17.37   10.44
   3  -2  28    6.46    8.84
  -3   2  29    6.44    8.83
  -3  -2  29    5.15    8.23
   3   2  29   14.82    6.47
   3  -2  29    0.58    5.79
  -3   2  30    9.91    9.66
  -3  -2  30   -8.89   10.31
   3   2  30    0.64    4.58
   3  -2  30    1.16    0.35
  -3   2  31    3.78    5.46
  -3  -2  31    4.29    7.80
   3   2  31    4.54    0.77
   3  -2  31   -0.21    2.20
   3  -3   0    0.53    0.48
   3  -3   1   85.79   10.59
  -3  -3   1   90.81    5.23
   3   3   1  101.62    7.10
   3  -3  -1   90.32   10.49
   3  -3  -2  752.75   30.70
   3  -3   2  754.80   30.74
   3   3   2  680.26   20.62
   3  -3   3  100.88   11.75
  -3  -3   3  115.91    6.29
   3  -3  -3  122.08   11.91
   3   3   3  109.34    9.18
   3  -3   4  475.53   25.42
  -3  -3   4  449.04   13.49
   3   3   4  428.72   19.97
  -3  -3   5 3176.39   42.07
   3   3   5 3129.82   58.91
  -3   3   5 3108.38   65.91
   3  -3   5 3181.77   67.16
  -3  -3   6  683.92   22.36
   3  -3   6  697.86   33.16
  -3   3   6  694.48   31.36
   3   3   6  718.53   29.42
  -3  -3   7   78.71    8.65
   3  -3   7   81.19   11.81
  -3   3   7  100.97   12.70
   3   3   7   88.95   10.79
  -3  -3   8  344.07   18.51
  -3   3   8  337.11   23.34
   3   3   8  342.03   22.58
   3  -3   8  348.45   24.15
  -3  -3   9 1067.90   35.00
   3  -3   9 1156.88   45.67
  -3   3   9 1155.03   44.53
  -3  -3  10  189.69   15.80
   3  -3  10  181.92   18.75
   3   3  10  201.67   19.50
   3  -3  11   37.53    8.76
  -3  -3  11   40.07    7.43
   3   3  11   54.36    9.45
  -3   3  11   37.05    8.17
   3  -3  12    0.46    3.46
   3   3  12   -1.75    0.74
  -3  -3  12    2.36    3.33
  -3   3  12   -0.60    2.55
  -3   3  13  460.74   31.20
   3   3  13  449.69   31.54
   3  -3  13  363.95   28.95
  -3  -3  13  415.73   27.54
  -3   3  14   -0.55    2.18
   3   3  14    1.98    3.60
  -3  -3  14   -1.32    3.23
   3  -3  14    2.59    4.14
  -3  -3  15  268.61   24.35
   3  -3  15  227.90   24.04
  -3   3  15  289.14   25.59
   3   3  15  329.56   29.12
  -3   3  16    2.30    3.93
   3   3  16    1.38    5.30
  -3  -3  16    0.58    1.68
   3  -3  16    4.23    1.24
  -3  -3  17  350.71   29.97
   3  -3  17  272.71   26.92
  -3   3  17  267.42   26.49
   3   3  17  374.13   32.90
   3  -3  18  115.29   18.54
  -3   3  18  107.75   17.60
  -3  -3  18  104.92   16.79
   3   3  18  124.14   19.61
  -3  -3  19  132.78   19.66
   3  -3  19  184.97   24.82
  -3   3  19  139.16   19.56
   3   3  19  142.61   20.44
   3   3  20   12.68    6.91
  -3  -3  20   14.11    6.73
   3  -3  20   12.11    7.05
  -3   3  20    6.68    6.27
  -3   3  21   33.23   11.44
   3   3  21   28.03    8.91
  -3  -3  21   46.09   12.49
   3  -3  21   30.24    9.44
   3   3  22   14.79    6.63
  -3   3  22   21.54    7.57
  -3  -3  22   15.05    6.37
   3  -3  22   13.07    5.68
   3  -3  23  102.17   18.03
  -3   3  23  108.21   18.40
  -3  -3  23  114.91   21.02
   3   3  23   89.12   18.56
  -3   3  24   -3.12    5.45
   3   3  24   -1.01    5.76
  -3  -3  24    5.43    0.80
   3  -3  24    3.55    5.02
  -3   3  25   10.22    6.03
   3   3  25    7.16    3.33
  -3  -3  25    7.17    3.64
   3  -3  25   13.47    6.33
  -3   3  26   31.31   10.39
   3   3  26   31.09   11.60
   3  -3  26   18.21    8.90
  -3  -3  26   35.69   13.21
  -3   3  27   36.60   11.76
   3   3  27   32.58    9.23
  -3  -3  27   60.12   16.38
   3  -3  27   53.03   14.39
   3   3  28   -0.95    3.84
  -3  -3  28   29.46   10.49
   3  -3  28   32.78   11.82
  -3   3  28   16.67    7.22
  -3   3  29   10.79    8.94
   3   3  29   16.92    6.20
  -3  -3  29   11.52   10.97
   3  -3  29    6.88    2.43
   3   3  30   29.75   11.60
  -3  -3  30   30.31   12.76
   3  -3  30   24.70   10.38
  -3   3  30   30.20   13.31
  -3   3  31   43.67   14.38
   3   3  31   36.62   11.44
  -3  -3  31   52.36   17.84
   3  -3  31   23.34   10.30
   3  -4   0    2.70    3.21
  -3  -4   0    1.66    1.19
   3   4   1  249.68   13.57
   3  -4   1  283.63   20.43
  -3  -4   1  299.33   13.31
   3  -4  -1  297.93   21.00
   3  -4  -2    1.05    2.46
  -3  -4   2    0.56    0.82
   3   4   2    0.57    0.99
   3  -4   2    1.34    0.81
   3  -4   3   63.55    9.35
   3  -4  -3   61.51    9.45
   3   4   3   70.52    7.91
  -3  -4   3   72.46    6.26
   3  -4   4 1007.87   39.48
   3  -4  -4  991.71   38.80
  -3  -4   4 1048.14   25.49
   3   4   4 1064.67   33.31
  -3  -4   5   41.61    5.42
   3  -4   5   45.31    7.97
   3   4   5   38.00    6.86
   3   4   6  134.42   13.35
  -3  -4   6  136.52   11.02
  -3   4   6  175.37   17.06
   3  -4   6  160.30   16.57
  -3  -4   7  114.12   10.55
  -3   4   7  100.20   13.31
   3  -4   7  121.21   14.68
   3   4   7  104.05   12.48
  -3  -4   8   52.99    7.41
   3   4   8   62.09    9.96
  -3   4   8   40.91    8.39
   3  -4   8   43.57    8.70
  -3   4   9  722.02   37.14
  -3  -4   9  747.43   30.80
   3  -4   9  720.80   36.64
   3   4   9  802.08   36.92
  -3  -4  10    5.86    2.48
   3   4  10    7.88    4.39
   3  -4  10    2.92    2.55
  -3   4  10    0.77    1.87
   3  -4  11    4.10    4.71
   3   4  11    2.08    0.32
  -3  -4  11   -2.29    2.41
  -3   4  11   -1.81    2.39
   3  -4  12   10.66    5.09
   3   4  12   16.89    6.13
  -3  -4  12   18.01    6.38
  -3   4  12    7.69    5.64
   3  -4  13   13.27    5.72
  -3  -4  13    6.82    3.71
  -3   4  13   11.18    4.46
   3   4  13    3.69    1.50
  -3   4  14    0.66    1.91
   3   4  14    5.91    3.68
  -3  -4  14    4.08    5.67
   3  -4  14    2.43    5.12
  -3   4  15    2.54    4.67
   3   4  15   -0.56    2.76
  -3  -4  15   -0.93    1.99
   3  -4  15    1.00    2.90
  -3   4  16   13.23    7.35
  -3  -4  16    8.93    5.85
   3  -4  16   18.39    6.93
   3   4  16   19.00    7.09
  -3   4  17    8.20    4.66
   3   4  17    5.71    4.93
  -3  -4  17   14.39    4.93
   3  -4  17    7.93    5.87
   3   4  18   -1.60    5.56
  -3  -4  18   -0.13    4.58
   3  -4  18    3.59    3.41
  -3   4  18   -7.19    5.81
   3   4  19   -0.11    1.55
  -3  -4  19    1.65    0.85
  -3   4  19    4.32    3.46
  -3   4  20   53.09   13.58
   3   4  20   55.76   13.35
   3  -4  20   62.77   15.00
  -3  -4  20   34.29   10.46
  -3   4  21    5.31    4.10
   3   4  21    5.99    4.42
   3  -4  21    1.92    4.96
  -3  -4  21    2.12    5.33
  -3   4  22   -0.21    5.08
   3   4  22   -1.78    4.45
  -3  -4  22    2.60    3.71
   3  -4  22   -2.41    1.84
  -3   4  23    4.28    5.82
   3   4  23    1.85    5.13
  -3  -4  23   12.78    7.89
   3  -4  23    3.38    6.24
   3   4  24   -3.59    6.61
  -3  -4  24    0.60    0.53
   3  -4  24    2.48    2.04
  -3   4  24   -3.48    3.42
   3   4  25    2.43    5.73
  -3  -4  25    0.49    3.16
   3  -4  25   -5.00    5.96
  -3   4  25   -1.00    6.56
  -3   4  26    5.01    7.48
   3   4  26    5.06    4.89
  -3  -4  26    0.06    4.37
   3  -4  26    6.37    2.47
  -3   4  27   -0.33    1.56
   3   4  27   -1.90    4.76
  -3  -4  27   -0.93    5.56
   3  -4  27    0.99    2.70
  -3   4  28    2.39    3.24
   3   4  28    5.20    6.99
  -3  -4  28    8.17    6.47
   3  -4  28    4.91    3.18
  -3   4  29    2.83    8.11
   3   4  29    5.53    6.11
  -3  -4  29   -2.09    7.17
   3  -4  29    5.63    6.31
  -3   4  30    0.33    3.50
   3   4  30   13.40    6.54
   3  -4  30    4.97    4.74
  -3  -5   0    0.90    1.01
   3  -5   0    1.09    2.73
  -3  -5  -1  256.98   15.63
   3  -5   1  290.23   22.55
   3  -5  -1  275.54   21.55
  -3  -5   1  320.56   17.03
  -3  -5   2  507.36   22.42
   3  -5   2  583.19   32.32
   3  -5  -2  524.24   30.30
   3  -5  -3   37.78    8.26
   3  -5   3   30.69    8.63
  -3  -5   3   26.41    4.65
   3   5   3   22.56    5.01
   3  -5   4   13.52    5.05
   3  -5  -4   10.56    4.16
  -3  -5   4    9.41    2.80
   3   5   4   14.38    4.60
   3  -5  -5  294.72   23.01
  -3  -5   5  296.42   18.21
   3   5   5  303.28   20.35
   3  -5   5  346.50   24.98
   3  -5   6  274.08   22.33
   3   5   6  222.44   17.86
  -3  -5   6  285.09   16.67
  -3  -5   7  101.04   10.67
   3   5   7  103.43   12.89
  -3  -5   8  307.28   19.41
  -3   5   8  311.95   24.56
   3   5   8  295.30   22.11
   3  -5   8  323.78   25.64
   3   5   9    0.64    2.30
   3  -5   9    1.54    3.29
  -3   5   9    0.70    2.53
  -3  -5   9    0.96    1.94
   3   5  10   22.15    6.15
   3  -5  10   26.09    7.78
  -3   5  10   22.33    6.47
  -3  -5  10   23.26    6.12
  -3   5  11  471.47   33.08
   3   5  11  430.14   29.26
   3  -5  11  485.50   32.73
  -3  -5  11  433.64   27.22
   3  -5  12   30.10    8.76
  -3  -5  12   34.68    7.78
  -3   5  12   47.35   10.68
   3   5  12   43.72    9.75
   3   5  13   36.22    8.89
   3  -5  13   37.79    9.73
  -3  -5  13   40.27    9.10
  -3   5  13    6.43    8.31
   3  -5  14   13.05    5.40
   3   5  14   14.41    6.94
  -3   5  14   -0.90    4.22
  -3  -5  14   14.09    6.61
   3   5  15   50.86   11.13
   3  -5  15   56.62   12.36
  -3  -5  15   55.48   10.69
  -3   5  15   19.32    8.09
  -3  -5  16  336.47   28.37
   3  -5  16  342.00   31.00
   3   5  16  298.72   28.24
  -3  -5  17   99.38   16.05
   3  -5  17  144.38   21.06
   3   5  17  135.93   19.67
   3   5  18   10.07    5.40
  -3  -5  18   22.07    7.14
   3  -5  18   17.23    9.35
  -3   5  18    9.78    6.77
  -3   5  19   11.14    6.95
   3  -5  19   21.51    9.13
   3   5  19   14.90    7.27
  -3  -5  19   22.87    7.94
   3  -5  20   33.44    9.75
  -3  -5  20   57.40   14.37
  -3   5  20   58.66   15.15
   3   5  20   88.52   17.21
   3   5  21   70.40   15.20
  -3  -5  21   92.38   18.37
   3  -5  21   82.24   17.16
  -3   5  21   48.01   13.27
   3   5  22   72.47   15.37
  -3  -5  22   60.60   14.03
   3  -5  22   72.00   15.43
  -3   5  22   87.67   17.35
  -3  -5  23   -0.92    4.72
   3   5  23    1.35    1.88
   3  -5  23    0.16    6.72
  -3   5  23    6.10    6.82
  -3  -5  24  194.92   26.79
   3  -5  24  167.02   25.87
  -3   5  24  172.35   25.12
   3   5  24  193.54   27.45
  -3   5  25    4.98    4.58
   3   5  25   -2.96    4.53
  -3  -5  25   -0.75    2.11
   3  -5  25    3.25    3.52
  -3   5  26   34.64   12.70
   3   5  26   32.13   11.17
  -3  -5  26   58.73   18.12
   3  -5  26   32.53    9.57
  -3   5  27   14.77    9.73
   3   5  27   12.87    6.88
   3  -5  27    3.24    4.07
  -3   5  28   14.34    7.03
   3   5  28    6.35    4.90
   3  -5  28   17.69    8.88
   3   5  29   -3.71    7.28
   3  -5  29    0.91    6.06
  -3   5  29   -4.83    5.12
   3   5  30   37.39   13.75
   3  -5  30   19.82    7.25
  -3   5  30   31.42   12.18
   3  -6   0    1.25    0.87
  -3  -6   0   -1.16    2.24
  -3  -6   1   11.89    3.60
   3  -6   1   13.74    4.36
   3  -6  -1   15.80    5.74
  -3  -6  -1    9.68    4.27
  -3  -6   2  337.49   19.86
   3  -6  -2  403.85   27.61
   3  -6  -3   23.87    6.78
  -3  -6   3   21.76    5.13
   3  -6   3   28.50    7.89
   3   6   3   19.37    5.41
   3  -6   4   43.91    8.98
  -3  -6   4   41.00    7.26
   3   6   4   43.47    7.52
   3  -6  -4   36.83    9.19
   3  -6   5   61.89   11.59
   3   6   5   35.71    8.21
   3  -6  -5   36.22    8.54
  -3  -6   5   43.39    6.91
   3  -6   6  108.81   15.17
   3  -6  -6  117.30   15.69
  -3  -6   6  128.27   13.30
   3   6   6  137.75   15.49
  -3  -6   7    0.44    2.14
   3   6   7   -0.14    1.35
  -3  -6   8   56.10    8.96
   3   6   8   47.41    9.94
   3   6   9   17.85    6.37
  -3  -6   9   11.06    3.87
  -3   6   9   18.75    7.14
   3  -6   9   25.71    7.68
  -3  -6  10   13.69    5.13
   3  -6  10    7.56    4.94
   3   6  10    9.31    4.27
  -3   6  10    2.34    4.55
   3   6  11    8.36    5.07
   3  -6  11   12.00    5.16
  -3  -6  11    4.17    1.74
  -3   6  11    9.98    5.17
   3   6  12   -2.44    4.95
   3  -6  12   -1.23    3.38
  -3   6  12   -3.04    2.04
  -3  -6  12   -0.43    0.73
   3   6  13   34.57    8.47
  -3  -6  13   24.96    7.11
   3  -6  13   29.30    9.33
  -3   6  13   37.30    9.24
   3   6  14   48.98   10.00
   3  -6  14   45.62   11.36
  -3  -6  14   45.91    9.76
  -3   6  14   47.88   11.92
   3   6  15   12.49    6.96
   3  -6  15    5.92    5.59
  -3  -6  15   14.94    7.51
  -3   6  15   13.21    7.58
   3   6  16   -1.16    0.62
   3  -6  16    0.72    3.35
  -3  -6  16   -1.99    4.63
  -3   6  16   -0.59    1.62
   3  -6  17   20.12    9.65
   3   6  17    9.42    1.93
  -3  -6  17    7.32    3.67
  -3   6  17    8.23    7.51
   3   6  18    6.84    2.96
  -3  -6  18    6.53    3.71
  -3   6  18    7.43    2.09
   3  -6  18    7.74    5.80
   3   6  19    9.37    5.36
   3  -6  19   -2.91    4.62
  -3   6  19   -0.57    5.20
  -3  -6  19    3.11    2.43
   3   6  20    7.17    2.84
  -3  -6  20    6.65    1.67
   3  -6  20   -0.56    4.40
  -3   6  20   11.77    6.40
   3   6  21   -1.11    2.79
   3  -6  21    3.65    7.43
  -3  -6  21   -1.86    4.61
  -3   6  21   -0.31    3.93
   3   6  22   -0.16    3.74
  -3  -6  22   12.09    9.67
   3  -6  22    8.35    7.65
  -3   6  22   -0.52    5.12
  -3   6  23    1.50    4.18
   3  -6  23   -1.50    4.59
   3   6  23    0.67    2.12
   3   6  24   10.22    8.61
  -3   6  24   13.68    8.96
   3  -6  24    2.05    2.09
   3   6  25   -3.90    6.40
   3  -6  25    0.48    3.11
  -3   6  25   -1.36    1.41
   3   6  26   -3.22    7.96
   3  -6  26    6.11    5.09
  -3   6  26    1.62    4.86
   3   6  27   -3.14    5.08
  -3   6  27    0.37    0.82
   3  -6  27   -1.66    4.34
   3   6  28    8.97   10.58
   3  -6  28   -5.22    5.17
  -3   6  28    6.60    8.61
   3   6  29   18.88    9.67
   3  -6  29   13.02    7.08
  -3   6  29   25.14   10.39
   3  -7   0    0.51    2.54
  -3  -7   0   -0.28    1.63
  -3  -7  -1  481.25   27.10
   3  -7   1  488.16   32.49
  -3  -7   1  455.90   25.98
   3  -7  -1  448.03   31.21
  -3  -7  -2   11.13    4.47
   3  -7  -2    3.50    3.64
  -3  -7   2   11.85    4.53
  -3  -7   3  575.02   28.13
   3  -7   3  586.81   36.04
   3  -7  -3  639.64   37.00
   3  -7  -4  911.91   44.22
  -3  -7   4  862.08   35.38
   3  -7   4  858.84   42.71
  -3  -7   5  937.37   37.43
   3  -7   5  852.93   43.26
   3   7   5  941.17   40.51
  -3  -7   6  104.66   13.14
   3  -7   6  136.40   17.98
   3  -7  -6  141.64   17.37
   3   7   6  107.90   14.19
  -3  -7   7    3.43    4.11
   3  -7  -7    6.27    4.42
   3  -7   7    1.04    1.33
   3   7   7   -1.69    3.65
  -3  -7   8  222.02   19.46
   3   7   8  235.49   22.29
   3  -7   8  224.91   23.17
  -3  -7   9  400.61   27.10
   3   7   9  467.49   31.19
   3  -7   9  505.23   34.78
  -3   7  10   60.72   12.57
   3  -7  10   56.25   11.97
  -3  -7  10   50.28   10.05
   3   7  10   66.99   12.23
  -3  -7  11    1.11    1.44
   3  -7  11    4.52    4.96
   3   7  11   10.69    5.87
  -3   7  11    2.20    2.50
  -3  -7  12   76.38   12.90
   3   7  12   62.26   12.47
   3  -7  12   66.48   13.96
   3  -7  13  683.78   42.70
  -3  -7  13  649.46   38.83
   3   7  13  592.27   38.60
  -3   7  13  637.68   41.49
   3   7  14   18.84    7.17
   3  -7  14    9.00    0.74
  -3   7  14   14.39    6.76
  -3  -7  14    7.65    4.47
   3   7  15    8.40    6.01
   3  -7  15    7.07    2.75
  -3  -7  15   -1.60    0.81
  -3   7  15    0.29    2.44
   3  -7  16   14.53    6.90
   3   7  16   23.95    7.42
  -3  -7  16   19.07    7.36
  -3   7  16   22.13    6.99
  -3  -7  17  252.37   27.95
  -3   7  17  263.64   28.73
   3  -7  17  240.54   26.96
   3   7  17  251.99   27.12
   3  -7  18    3.07    2.63
   3   7  18    8.03    6.42
  -3   7  18   12.91    4.32
  -3  -7  18   13.16    5.36
  -3   7  19  174.61   24.58
  -3  -7  19  227.81   27.29
   3  -7  19  133.56   21.33
   3   7  19  168.10   23.36
   3   7  20   34.34   11.61
   3  -7  20   14.55    7.87
  -3  -7  20   10.20    8.78
  -3   7  20   20.29    8.54
   3   7  21   25.67    8.94
   3  -7  21   50.63   13.02
  -3   7  21   64.40   15.84
   3   7  22   17.28   10.48
  -3   7  22   22.34   10.18
   3  -7  22   17.08    6.10
   3   7  23  139.04   22.84
   3  -7  23  180.25   26.52
  -3   7  23  150.16   23.28
   3   7  24   -1.10    1.33
   3  -7  24    1.42    3.50
  -3   7  24    4.17    3.02
   3   7  25   16.75    7.66
   3  -7  25   13.46    6.61
  -3   7  25   20.75    9.10
   3   7  26    0.70    3.85
   3  -7  26    0.68    1.42
  -3   7  26   -5.35    4.67
   3  -7  27  192.57   29.04
  -3   7  27  101.89   20.74
   3   7  27  153.99   25.09
   3   7  28    4.52    4.49
  -3   7  28    4.12    4.24
   3  -7  28    9.99    9.23
  -3  -8   0   -0.48    3.23
   3  -8   0   -1.42    3.25
   3  -8  -1   16.19    7.57
  -3  -8   1   20.40    6.12
  -3  -8  -1   11.94    4.73
   3  -8   1   12.17    5.69
  -3  -8  -2   -0.34    0.88
   3  -8  -2   -0.86    1.12
  -3  -8   2   -0.23    1.96
   3  -8   2    0.14    0.28
  -3  -8  -3   96.26   13.58
   3  -8   3   99.95   15.62
   3  -8  -3   88.60   14.75
  -3  -8   4   36.26    8.07
   3  -8  -4   31.26    8.43
   3  -8   4   42.80    9.60
  -3  -8   5   37.37    8.71
   3  -8   5   42.62   10.68
   3  -8  -5   19.31    6.17
   3  -8  -6   28.45    7.52
   3  -8   6   51.16   12.12
   3   8   6   40.42    8.87
  -3  -8   6   40.37    8.58
   3  -8  -7   15.95    6.94
  -3  -8   7   12.55    5.66
   3   8   7   13.58    6.37
   3  -8   7   23.23    7.30
   3  -8   8  109.75   16.53
  -3  -8   8   67.86   11.36
   3  -8  -8   77.53   14.10
   3   8   8   82.53   14.21
  -3  -8   9  140.00   16.20
   3   8   9  110.30   16.72
   3  -8   9  116.62   17.17
  -3  -8  10   25.35    6.96
   3   8  10   32.56    8.48
   3  -8  10   25.12    8.66
  -3  -8  11    5.80    3.36
   3   8  11    2.16    2.63
   3  -8  11    8.40    5.98
  -3  -8  12   17.38    7.19
  -3   8  12    9.40    5.31
   3  -8  12   22.36    8.21
   3   8  12   20.85    8.82
   3  -8  13    1.12    2.84
  -3  -8  13    6.18    3.03
  -3   8  13    1.59    2.50
   3  -8  14   -1.48    5.84
  -3   8  14   -1.92    2.75
  -3  -8  14   -0.88    3.00
   3   8  14   -2.23    3.04
  -3  -8  15   45.35   11.57
   3   8  15   47.95   12.69
  -3   8  15   37.82   10.36
   3  -8  15   68.13   14.16
   3  -8  16   -1.03    4.71
   3   8  16   -1.95    0.76
  -3  -8  16    2.25    6.16
  -3   8  16    5.08    4.02
   3  -8  17   71.62   15.42
  -3   8  17   35.16   13.78
   3   8  17   44.37   12.50
   3  -8  18   -1.44    3.33
  -3   8  18   -1.16    4.30
   3   8  18    5.34    6.90
   3   8  19    5.90    4.07
   3  -8  19    0.26    3.19
  -3   8  19    2.66    2.95
   3   8  20   15.05    7.24
  -3   8  20   19.82    7.70
   3  -8  20    9.42    6.74
   3   8  21    2.17    5.86
   3  -8  21    5.75    5.87
  -3   8  21   -4.35    1.96
   3   8  22    0.20    3.26
  -3   8  22   16.29    9.96
   3  -8  22    2.43    7.29
   3  -8  23   -1.14    2.51
   3   8  23    1.28    1.80
  -3   8  23   -1.27    4.10
   3   8  24    8.40    6.82
   3  -8  24    6.32    4.89
  -3   8  24    0.77    3.99
   3   8  25    0.69    3.78
   3  -8  25    0.62    2.32
  -3   8  25    6.53    6.40
   3   8  26   -4.46    9.68
  -3   8  26    4.56    5.76
   3  -8  26    4.76    4.36
   3   8  27    1.37    4.43
   3  -8  27   -3.71    4.61
  -3   8  27   -2.46    1.14
  -3  -9   0   -0.61    0.17
   3  -9   0    1.73    1.60
   3  -9   1  554.75   38.41
  -3  -9   1  550.37   33.88
  -3  -9  -1  528.21   33.28
   3  -9  -1  532.00   37.77
  -3  -9   2   65.22   11.51
   3  -9   2   77.75   14.48
   3  -9  -2   68.63   13.58
  -3  -9  -2   59.72   10.95
  -3  -9   3   -0.07    2.58
   3  -9   3    0.02    4.35
  -3  -9  -3   -1.14    3.21
   3  -9  -3    0.31    1.98
  -3  -9  -4  146.38   17.33
  -3  -9   4  155.55   17.36
   3  -9  -4  193.26   23.19
   3  -9   4  168.38   20.75
   3  -9  -5  799.98   46.04
   3  -9   5  713.32   42.86
  -3  -9  -5  793.03   42.89
  -3  -9   5  731.73   39.71
   3  -9  -6  173.29   21.48
   3  -9   6  203.26   23.54
  -3  -9   6  156.49   17.94
   3  -9  -7  144.96   19.74
   3  -9   7  135.47   19.15
  -3  -9   7  104.25   14.42
   3  -9   8  126.75   18.63
   3  -9  -8   90.99   15.75
  -3  -9   8  108.22   16.29
   3   9   8   96.77   14.88
  -3  -9   9  284.16   25.51
   3  -9  -9  347.19   31.48
   3   9   9  281.51   26.98
   3  -9   9  372.32   32.37
  -3  -9  10  107.33   16.09
   3   9  10  142.59   19.41
   3  -9 -10  104.16   17.71
   3  -9  10  164.19   21.31
   3  -9  11   48.77   10.09
   3   9  11   57.86   12.26
  -3  -9  11   72.92   14.65
  -3  -9  12   -4.33    2.45
   3  -9  12   -0.83    3.58
   3   9  13   94.96   16.78
   3  -9  13   69.15   14.38
   3  -9  14   52.92   12.49
  -3   9  14   68.54   15.36
   3   9  14   75.29   14.98
   3  -9  15    3.79    1.91
   3   9  15    2.76    4.10
  -3   9  15    9.95    3.16
   3  -9  16  160.49   23.52
   3   9  16  167.47   22.98
  -3   9  16  200.36   25.01
   3   9  17  143.86   22.56
   3  -9  17  119.95   20.76
  -3   9  17  124.04   20.06
   3  -9  18    0.66    4.99
  -3   9  18    0.45    2.85
   3   9  18    1.58    3.91
   3  -9  19   80.58   16.93
  -3   9  19   89.95   17.74
   3   9  19   66.90   17.17
  -3   9  20   28.61   12.61
   3  -9  20   78.35   17.43
   3   9  20   52.82   14.68
  -3   9  21   24.51    8.95
   3   9  21   42.17   10.79
  -3   9  22   -2.50    2.80
   3  -9  22   -1.71    1.64
   3   9  22    3.08    3.11
   3  -9  23  163.83   25.12
   3   9  23  174.72   26.23
  -3   9  23  135.71   22.83
   3  -9  24   24.61   11.07
  -3   9  24   22.12    7.24
   3   9  24   12.71    7.69
  -3   9  25    3.17    1.03
   3   9  25    9.40    5.51
   3  -9  26    9.05    5.49
  -3   9  26   21.13    7.75
   3   9  26   14.51    7.47
  -3 -10   0   -1.54    3.72
   3 -10   0    0.90    3.67
   3 -10  -1    0.55    3.78
   3 -10   1    5.41    3.37
  -3 -10   1    7.70    6.26
  -3 -10  -1   11.41    5.11
   3 -10  -2   -0.29    1.70
  -3 -10   2    1.84    2.10
   3 -10   2   -1.87    3.16
  -3 -10  -2   -2.25    3.87
  -3 -10   3   21.40    7.92
   3 -10  -3   15.26    7.96
   3 -10   3   14.21    6.49
  -3 -10  -3   21.54    8.06
  -3 -10   4   -1.03    2.67
   3 -10   4   10.58    5.21
  -3 -10  -4    2.35    2.74
   3 -10  -4    9.05    5.29
  -3 -10  -5   -0.45    2.04
   3 -10   5    1.18    2.08
   3 -10  -5   -2.69    2.21
  -3 -10   5    2.14    2.75
   3 -10   6    1.41    3.54
  -3 -10   6    4.69    5.48
   3 -10  -6    3.75    3.06
  -3 -10  -6    5.92    3.00
   3 -10  -7   26.98    9.89
   3 -10   7   38.29   10.74
  -3 -10   7   39.52   11.30
   3 -10   8  127.92   19.73
   3 -10  -8   79.21   14.94
   3 -10  -9   49.40   12.09
   3 -10   9   57.13   12.19
   3 -10 -10   57.19   12.54
   3 -10  10   41.78   11.39
   3  10  10   61.41   13.81
   3  10  11   -2.35    2.54
   3 -10  11   -3.78    4.69
   3 -10 -11    4.90    6.61
   3 -10  12   -0.77    2.69
   3  10  12    0.08    2.79
   3 -10  13    2.77    3.78
   3  10  13   -7.78    6.14
   3 -10  14   19.23    8.25
   3  10  14   20.15    6.16
   3  10  15    0.30    3.26
   3 -10  15    3.71    0.76
   3  10  16   15.91    8.49
   3 -10  16   25.84   10.05
   3 -10  17   19.68    8.72
  -3  10  17   23.67   10.07
   3  10  17   16.93    4.22
   3 -10  18   29.72   11.65
  -3  10  18   29.15   11.64
   3  10  18   30.32   11.50
  -3  10  19   12.34    8.00
   3 -10  19    6.92    6.79
   3  10  19    3.59    6.02
   3 -10  20    8.08    5.94
  -3  10  20    7.34    5.20
   3  10  20   16.82    9.83
   3 -10  21    3.12    3.57
   3  10  21   -0.24    2.66
   3  10  22   13.86    0.45
   3 -10  22    7.15    4.91
  -3  10  23    1.33    4.24
   3 -10  23   -0.67    1.51
  -3  10  24   -1.80    4.82
   3  10  24    1.11    5.59
   3 -10  24   -0.70    2.13
  -3  10  25   11.05    7.07
   3  10  25   15.34    6.39
   3 -10  25    6.53    7.54
   3 -11   0   -1.00    6.26
  -3 -11   0   -1.47    2.79
  -3 -11   1   15.94    6.47
  -3 -11  -1   12.79    5.73
  -3 -11   2  120.48   18.11
   3 -11   2  157.57   21.95
   3 -11  -2  169.72   23.23
  -3 -11  -2  170.62   21.94
   3 -11  -3   19.34    7.48
  -3 -11   3   31.37    9.91
   3 -11   3   27.16    9.34
  -3 -11  -3   18.40    8.17
   3 -11   4   14.34    5.32
   3 -11  -4   41.36   11.34
  -3 -11  -4   28.92    8.60
   3 -11   5   23.20    9.61
  -3 -11  -5   20.26    3.57
   3 -11  -5   38.12   10.93
   3 -11   6   82.87   15.71
  -3 -11  -6   52.54   12.44
   3 -11  -6   67.77   15.22
   3 -11  -7    3.46    0.97
  -3 -11  -7    4.18    4.14
   3 -11   7    8.17    8.77
   3 -11  -8   -1.24    2.30
   3 -11   8   -0.77    4.53
  -3 -11  -8    9.52    5.36
   3 -11  -9    0.15    2.75
   3 -11   9   -1.16    1.19
   3 -11  10    9.00    5.23
   3 -11 -10   11.68    8.42
   3 -11 -11    6.66    4.04
   3 -11  11    2.56    3.52
   3  11  12  217.32   27.25
   3 -11 -12  229.85   27.44
   3 -11  12  267.05   29.92
   3 -11 -13   15.44    8.38
   3 -11  13   20.05    8.51
   3  11  13   12.65    7.63
   3 -11 -14   25.24    9.00
   3 -11  14   23.06   10.14
   3  11  14   10.43    4.70
   3 -11  15   19.91    7.37
   3  11  15   28.04    9.93
   3 -11  16   12.24    7.25
   3  11  16    4.40    7.40
   3 -11  17   -0.80    5.02
   3  11  17   -1.22    4.32
   3 -11  18   -4.04    6.21
   3  11  18   18.07   10.79
   3 -11  19   26.66   12.90
   3  11  19   18.62    8.98
   3  11  20   57.02   14.04
   3 -11  20   99.11   19.27
   3 -11  21    4.80    5.95
  -3  11  21   12.91    9.63
   3  11  21    5.70    4.57
  -3  11  22   70.45   17.41
   3  11  22   60.18   16.56
   3 -11  22   45.01   13.21
   3 -11  23   -4.74    7.65
  -3  11  23    7.99    8.71
   3  11  23   11.54    9.39
   3 -12   0   -0.16    6.46
   3 -12   1   10.75    3.15
   3 -12  -1   24.81   11.04
   3 -12   2    9.41    6.58
  -3 -12  -2    5.25    4.11
   3 -12  -2   21.25    6.73
  -3 -12  -3   -0.18    0.81
   3 -12  -3    0.97    4.73
   3 -12   3    0.62    1.62
   3 -12   4   -4.15    3.11
   3 -12  -4    0.19    5.50
  -3 -12  -4    4.20    6.63
   3 -12  -5   -1.62    3.20
   3 -12   5    4.28    6.42
  -3 -12  -5   -2.02    4.36
  -3 -12  -6    0.13    3.52
   3 -12  -6    4.73    5.79
   3 -12   6    5.64    3.97
  -3 -12  -7    4.68    4.02
   3 -12  -7    7.45    5.84
   3 -12   7    2.60    4.18
  -3 -12  -8    4.81    6.28
   3 -12   8    8.63    6.61
   3 -12  -8    2.04    1.74
   3 -12  -9   11.82    4.94
   3 -12   9   12.89    6.52
  -3 -12  -9   23.51    8.98
  -3 -12 -10   22.21    9.75
   3 -12 -10   14.36    7.28
   3 -12  10   10.33    4.57
   3 -12  11    5.10    6.81
   3 -12 -11   -1.15    1.70
   3 -12  12   23.45   11.32
   3 -12 -12   22.72    7.46
   3 -12 -13    2.61    2.45
   3 -12  13    1.00    4.09
   3 -12  14    3.29    4.43
   3 -12 -14   12.11    6.29
   3 -12 -15    7.62    4.79
   3 -12  15    5.05    6.78
   3  12  15   -0.03    5.11
   3  12  16    4.77    5.79
   3 -12 -16   -0.13    1.25
   3 -12  16   -0.38    4.57
   3 -12  17   48.87   13.15
   3 -12 -17   52.89   14.24
   3  12  17   33.65   11.13
   3 -12  18    5.53    3.69
   3  12  18   -4.63    7.01
   3 -12  19   -0.31    3.97
   3  12  19   -1.37    3.96
   3 -12  20    3.37    4.82
   3  12  20   -0.92    1.26
   3 -12  21    5.74    7.37
   3  12  21   -3.37    3.83
   3 -13   0   -4.67    6.06
   3 -13   1  102.62   19.04
   3 -13  -1   85.15   16.52
   3 -13   2   60.46   13.56
   3 -13  -2  121.02   20.12
   3 -13   3   -2.03    2.30
   3 -13  -3    6.22    3.95
   3 -13  -4   51.80   13.74
   3 -13   4   31.33    9.54
   3 -13  -5   60.83   14.71
   3 -13   5   53.91   13.05
   3 -13  -6    4.30    6.36
   3 -13   6   -0.56    3.41
   3 -13  -7   10.81    6.66
   3 -13   7    3.40    1.80
  -3 -13  -8   15.90    6.92
   3 -13  -8   20.09    8.26
   3 -13   8   11.38    7.80
   3 -13   9   67.47   14.97
  -3 -13  -9   39.79   12.00
   3 -13  -9   81.37   16.85
  -3 -13 -10    4.44    3.71
   3 -13  10   -3.21    3.26
   3 -13 -10    2.03    6.03
   3 -13 -11   34.43   10.11
   3 -13  11   19.13    6.85
  -3 -13 -11   27.36   10.26
   3 -13 -12    8.66    7.10
  -3 -13 -12    5.53    2.17
   3 -13  12    6.07    4.94
   3 -13 -13   61.41   15.03
  -3 -13 -13   70.21   15.15
   3 -13  13  101.01   19.19
   3 -13 -14   -1.33    4.57
   3 -13  14    8.87    5.79
   3 -13 -15    4.94    6.86
   3 -13  15    7.49    2.75
   3 -13  16   10.82    6.97
   3 -13 -16   -1.31    3.35
   3 -13  17   16.64    8.65
   3 -13 -17   24.58    8.89
   3 -13  18    3.47    7.79
   3 -13 -18   -3.63    1.69
   3  13  19   15.66    7.63
   3 -13  19   17.76    6.20
   3 -13 -19   10.96    7.55
   3 -14   0   -0.10    3.29
   3 -14   1    4.61    2.39
   3 -14  -1   17.53    5.55
   3 -14   2    5.66    4.49
   3 -14  -2    0.16    5.21
   3 -14   3    3.33    0.90
   3 -14  -3    1.49    6.20
   3 -14   4    0.90    1.13
   3 -14  -4   -0.45    4.84
   3 -14   5   12.64    8.81
   3 -14  -5   -1.60    6.73
   3 -14  -6   24.17   10.39
   3 -14   6   19.96    8.96
   3 -14   7    2.44    3.76
   3 -14  -7   28.04   11.46
   3 -14  -8    7.81    7.22
   3 -14   8   -4.35    7.94
   3 -14  -9    1.18    3.38
   3 -14   9   -0.55    3.77
   3 -14  10   23.37   10.83
   3 -14 -10    9.56    8.01
   3 -14  11    5.62    6.68
   3 -14 -11   -5.81    7.20
   3 -14 -12    7.92    5.50
   3 -14  12    6.25    3.27
   3 -14 -13   12.71    6.69
  -3 -14 -13   -8.00    3.72
   3 -14  13    9.06    6.74
  -3 -14 -14   12.69    9.32
   3 -14 -14   15.72    7.48
   3 -14  14    3.50    1.45
   3 -14  15    6.04    6.20
   3 -14 -15   -5.06    7.22
  -3 -14 -15   15.61   11.20
   3 -14  16    5.86    5.42
  -3 -14 -16   -4.67    5.63
   3 -14 -16    2.47    6.59
   3 -15   0   -4.06    4.86
   3 -15   1   28.36   10.78
   3 -15  -1   17.95    8.73
   3 -15   2  127.49   20.95
   3 -15  -2   94.13   19.77
   3 -15   3    9.50    6.71
   3 -15  -3   19.54    9.24
   3 -15   4   30.21   11.47
   3 -15  -4   39.52   12.56
   3 -15  -5   -1.96    3.67
   3 -15   5    5.85    5.11
   3 -15  -6   85.23   18.54
   3 -15   6   48.64   13.49
   3 -15  -7   10.12    6.69
   3 -15   7    5.75    6.96
   3 -15  -8   26.58   10.85
   3 -15   8   11.21    3.47
   3 -15  -9    6.05    7.66
   3 -15   9    6.59    3.50
   3 -15 -10   11.61    6.07
   3 -15  10   -1.40    4.17
   3 -15  11   10.75   10.11
   3 -15 -11   -2.33    2.26
   3 -15 -12   61.00   16.86
   3 -15  12   41.94   11.95
   3 -16   0    3.19    2.46
   3 -16   1   10.14    8.31
   3 -16  -1    7.34    6.65
   3 -16   2    8.11    8.01
   3 -16  -2   -6.33    5.27
   3 -16   3   -6.17    3.51
   3 -16  -3    6.99    7.13
   3 -16   4   -2.84    7.14
   3 -16  -4    7.39    6.49
   3 -16  -5   -3.95    5.46
   3 -16   5    4.50    4.90
   4   0   0 7975.89   72.73
   4   0  -1    0.73    0.86
   4   0   1   -0.31    1.17
   4   0  -2  496.62   17.49
   4   0   2  517.24   20.25
   4   0   3    0.92    0.84
   4   0  -3    0.94    1.03
   4   0  -4  355.05   15.78
   4   0   4  407.55   20.88
   4   0   5    2.00    2.79
  -4   0   5    0.69    1.27
   4   0   6   67.43    9.29
  -4   0   6   75.43    8.10
   4   0   7   -0.05    1.43
  -4   0   7    0.92    2.05
   4   0   8  402.67   24.36
  -4   0   8  381.49   21.07
  -4   0   9    1.36    1.50
   4   0   9    0.87    2.54
   4   0  10  209.35   20.11
  -4   0  10  206.21   17.01
  -4   0  11    3.28    2.17
   4   0  11    1.27    2.22
   4   0  12  210.75   20.97
  -4   0  12  170.88   17.60
  -4   0  13    4.25    4.19
   4   0  13    2.23    2.48
  -4   0  14 1598.47   55.70
   4   0  14 1850.09   65.03
  -4   0  15    0.44    2.90
   4   0  15   -4.52    5.69
   4   0  16  264.59   26.08
  -4   0  16  320.68   26.83
  -4   0  17    0.15    3.13
   4   0  17   -2.85    2.85
  -4   0  18   50.01   11.57
   4   0  18   56.08   13.04
  -4   0  19    2.62    0.45
   4   0  19    2.27    5.40
  -4   0  20   24.17    7.61
   4   0  20   40.71   11.22
  -4   0  21    2.45    4.32
   4   0  21   -0.09    3.27
  -4   0  22   58.06   13.41
   4   0  22   60.29   13.78
  -4   0  23    0.65    2.91
   4   0  23   -3.48    2.49
  -4   0  24   -3.83    5.55
   4   0  24    7.49    7.01
  -4   0  25    0.51    3.17
   4   0  25   -1.76    1.58
  -4   0  26   -0.64    2.54
   4   0  26   -3.54    4.39
  -4   0  27   -6.00    6.86
   4   0  27    0.08    2.51
  -4   0  28   41.19   11.83
   4   0  28   25.01    8.29
  -4   0  29    0.75    5.08
   4   0  29    6.89    6.78
  -4   0  30   21.85   10.26
   4   0  30   10.52    5.74
  -4   0  31   -1.27    5.06
   4   0  31   -4.64    3.60
   4  -1   0  157.96   11.95
   4   1   0  174.13    8.71
   4  -1   1  437.90   20.48
   4   1   1  465.89   15.87
   4  -1  -1  457.49   20.16
   4   1  -2  264.56    8.53
   4  -1  -2  251.74   15.48
   4  -1   2  226.06   15.08
   4   1   3   97.24    8.82
   4   1  -3   66.14    5.05
   4  -1  -3   93.93    9.53
   4  -1   3   85.66   10.04
   4   1  -4 1706.73   25.56
   4   1   4 1697.11   40.14
   4   1   5  308.56   18.54
   4  -1   5  287.73   19.32
  -4  -1   5  243.56   11.25
   4  -1   6   23.36    5.79
   4   1   6   25.46    6.12
  -4  -1   6   14.37    4.12
  -4   1   6   16.18    3.99
   4   1   7  144.75   14.38
  -4   1   7  129.31   12.35
  -4  -1   7  113.32    9.60
   4   1   8  768.05   33.98
  -4  -1   8  782.83   27.25
  -4  -1   9    4.67    3.13
   4   1   9    7.89    4.51
  -4   1   9    6.37    3.36
   4  -1   9   13.52    4.71
   4   1  10  210.63   19.22
  -4  -1  10  184.37   15.03
   4   1  11  156.78   17.47
   4  -1  11  113.78   14.97
  -4  -1  11  120.18   13.28
  -4   1  11  151.35   15.87
   4   1  12  162.52   18.19
   4  -1  12  149.60   17.76
  -4  -1  12  145.48   15.02
  -4   1  12  158.40   17.54
   4   1  13   65.99   12.18
   4  -1  13   67.81   12.42
  -4   1  13   64.64   11.23
  -4  -1  13   62.28   10.83
   4   1  14  355.86   28.97
  -4   1  14  379.64   27.80
   4  -1  14  425.25   32.10
   4   1  15 1285.33   56.84
   4  -1  15 1286.39   57.88
  -4   1  15 1115.66   48.90
  -4  -1  15 1120.91   50.48
   4   1  16  232.30   24.90
   4  -1  16  215.34   23.85
  -4  -1  16  233.90   23.13
  -4   1  17   53.99   11.13
  -4  -1  17   22.74    8.95
   4   1  17   23.72    8.03
   4  -1  17   29.41    9.27
   4   1  18  283.27   29.28
   4  -1  18  314.13   30.21
  -4   1  18  320.38   29.05
  -4  -1  18  287.21   27.69
  -4   1  19    0.81    4.70
  -4  -1  19    0.97    4.83
   4   1  19    6.44    2.26
   4  -1  19   -2.89    5.54
  -4   1  20   27.58    8.78
  -4  -1  20   18.95    7.16
   4   1  20   19.14    5.30
   4  -1  20   13.67    7.99
  -4   1  21   43.74   11.35
  -4  -1  21   53.03   12.70
   4   1  21   72.87   14.71
   4  -1  21   53.52   13.11
   4  -1  22  197.99   25.41
  -4  -1  22  257.47   28.80
   4   1  22  231.12   27.46
  -4   1  23    0.65    3.37
  -4  -1  23    4.15    5.08
   4   1  23   -5.06    8.61
   4  -1  23    2.47    6.15
  -4   1  24    4.88   10.29
  -4  -1  24    7.06    4.39
   4   1  24   31.13   11.76
   4  -1  24   19.06    9.72
  -4   1  25   70.54   16.01
   4  -1  25   89.00   17.96
  -4  -1  25   72.54   15.92
   4   1  25   65.69   17.00
   4   1  26  126.88   20.64
   4  -1  26  124.54   21.18
  -4   1  26  109.81   19.68
  -4  -1  26  147.18   24.24
  -4   1  27   -0.65    3.39
  -4  -1  27    8.41    8.15
   4   1  27    0.59    3.16
   4  -1  27    6.39    7.31
  -4   1  28   39.63   13.65
  -4  -1  28   44.19   13.79
   4   1  28   38.85   11.71
   4  -1  28   46.21   12.98
  -4   1  29   14.15    6.98
  -4  -1  29   13.02   10.82
   4   1  29   19.02   10.68
   4  -1  29    3.61    4.43
  -4  -1  30   -0.06    6.58
   4   1  30    4.01    5.83
  -4   1  30   10.17    6.73
   4  -1  30    7.50    6.22
  -4   1  31    0.15    6.74
   4   1  31   17.42    8.21
   4  -1  31   18.89    8.64
   4  -2   0  470.85   23.61
   4  -2   1    3.02    2.20
   4   2   1    5.82    1.61
   4  -2  -1    1.91    0.93
   4   2   2  419.07   15.80
   4  -2   2  438.20   22.90
   4  -2  -2  372.16   20.67
   4  -2  -3  984.97   34.59
   4  -2   3 1032.34   36.35
   4   2   4 1486.48   38.02
   4  -2  -4 1426.25   40.99
   4  -2   5  112.83   12.81
   4   2   5   93.71   10.09
   4   2   6  204.48   15.80
   4  -2   6  191.72   17.11
  -4   2   6  235.93   17.67
  -4  -2   6  217.59   10.69
   4   2   7  640.17   29.60
   4  -2   7  693.20   33.02
  -4   2   7  654.92   29.92
  -4  -2   7  630.23   20.59
   4   2   8  145.42   14.89
  -4   2   8  129.10   13.84
   4  -2   8  153.60   15.94
  -4  -2   8  110.50   10.35
   4  -2   9    4.57    3.96
  -4  -2   9    7.87    2.93
   4   2   9    6.08    2.43
  -4   2   9    0.83    1.89
   4  -2  10   11.66    4.19
  -4  -2  10   14.63    4.30
   4   2  10   21.07    6.79
  -4   2  10    5.11    2.43
   4   2  11   66.07   12.13
   4  -2  11   67.81   11.90
  -4  -2  11   81.59   10.70
   4   2  12  109.67   15.66
   4  -2  12  136.76   17.37
  -4   2  12  105.30   14.19
  -4  -2  12  113.66   13.61
   4   2  13   87.80   14.15
   4  -2  13   82.14   13.83
  -4   2  13   97.87   14.51
  -4  -2  13   87.18   12.47
   4   2  14   51.18   10.22
  -4   2  14   38.08    8.70
   4  -2  14   46.74   11.12
  -4  -2  14   46.34    9.58
   4   2  15  137.25   19.36
   4  -2  15  124.12   17.86
  -4   2  15  130.86   17.52
  -4  -2  15  136.73   16.90
   4  -2  16   68.60   13.55
   4   2  16   50.44   12.28
  -4   2  16   51.72   13.02
  -4  -2  16   93.35   14.56
   4   2  17   84.21   15.48
   4  -2  17   91.53   15.92
  -4   2  17   91.13   16.33
  -4  -2  17   68.26   13.08
  -4  -2  18  166.46   21.63
   4   2  18  161.67   21.82
   4  -2  18  174.63   23.26
  -4   2  18  129.06   18.76
  -4   2  19   -1.03    5.41
  -4  -2  19   11.42    5.26
   4   2  19   10.33    5.80
   4  -2  19    6.88    7.06
  -4   2  20    0.97    3.97
  -4  -2  20    4.48    6.14
   4   2  20    6.21    1.27
   4  -2  20   -0.79    6.46
  -4   2  21   31.86    9.34
  -4  -2  21   35.21   10.56
   4   2  21   26.26    8.60
   4  -2  21   35.62   10.57
  -4   2  22    8.28    4.35
  -4  -2  22    7.87    6.29
   4   2  22   -1.78    4.03
   4  -2  22   13.33    6.73
  -4  -2  23    3.11    3.99
  -4   2  23    8.90    6.24
   4   2  23    5.16    3.79
   4  -2  23   17.03   10.07
  -4   2  24   -2.13    3.52
  -4  -2  24   -7.43    9.25
   4   2  24   -1.82    4.28
   4  -2  24    1.94    2.87
  -4   2  25    6.45    6.76
  -4  -2  25    2.13    1.35
   4   2  25    1.58    1.53
   4  -2  25   -0.36    2.50
  -4   2  26   34.01   10.31
  -4  -2  26   19.53    8.77
   4   2  26   19.30    8.25
   4  -2  26   16.90    9.12
  -4   2  27    0.57    5.76
   4   2  27   14.21   10.52
   4  -2  27    7.84    5.94
  -4   2  28   -4.50    6.05
   4   2  28   -6.37    8.20
   4  -2  28    5.25    5.40
  -4   2  29   13.11    7.82
   4   2  29   25.37    9.85
   4  -2  29   36.98   11.39
  -4   2  30   -4.40    5.44
   4   2  30   -1.87    8.09
   4  -2  30   12.47    8.46
   4  -3   0 1332.45   43.70
   4  -3  -1   14.98    4.27
   4  -3   1   19.97    5.25
   4   3   1   22.92    3.03
   4  -3  -2   52.63    8.11
   4  -3   2   45.00    7.66
   4  -3   3  409.71   24.17
   4   3   3  423.56   18.26
   4  -3  -3  402.96   24.07
   4  -3  -4    0.46    1.32
   4   3   4    1.10    1.05
   4  -3   4    2.86    1.78
   4  -3  -5  219.32   18.24
   4   3   5  258.22   17.27
   4  -3   6  790.69   36.86
  -4  -3   6  770.00   20.26
   4   3   6  866.42   33.73
  -4   3   7  108.78   13.41
   4  -3   7  108.78   13.58
  -4  -3   7   94.54    8.92
   4   3   7  116.68   12.96
  -4   3   8  138.21   15.39
   4  -3   8  124.88   14.69
   4   3   8  157.34   15.61
  -4  -3   8  107.74   11.03
  -4  -3   9  124.65   12.08
  -4   3   9  127.68   14.93
   4  -3   9   95.54   13.64
   4   3   9  111.75   13.80
   4   3  10   36.07    7.91
  -4  -3  10   23.04    4.79
   4  -3  10   45.02   10.16
  -4   3  10   30.48    7.11
   4   3  11  211.64   20.74
  -4  -3  11  247.10   19.24
  -4   3  11  227.53   21.60
   4  -3  11  228.89   22.13
   4  -3  12   26.04    5.80
   4   3  12   24.87    8.17
  -4  -3  12   28.32    7.09
  -4   3  12   36.27    8.75
   4   3  13   21.98    7.69
  -4  -3  13   12.16    5.81
  -4   3  13   11.70    6.30
   4  -3  13   11.89    6.53
   4   3  14   -0.02    2.18
  -4  -3  14    3.33    1.82
   4  -3  14    4.69    1.58
  -4  -3  15   91.45   14.30
   4  -3  15   80.81   14.39
  -4   3  15   98.28   15.45
   4   3  15   81.76   14.09
   4   3  16    1.11    3.08
  -4  -3  16   -1.91    3.94
   4  -3  16   -0.34    3.89
  -4   3  16    2.76    2.35
  -4  -3  17  162.51   20.50
   4  -3  17  124.65   18.71
  -4   3  17  134.03   19.34
   4   3  17  154.74   22.16
  -4   3  18   63.41   12.12
   4   3  18   60.90   12.55
   4  -3  18   52.47   12.21
  -4  -3  18   72.53   14.11
   4  -3  19   86.06   16.63
  -4   3  19   83.40   16.11
   4   3  19  120.16   19.21
  -4  -3  19   99.44   17.49
  -4   3  20   42.32   11.00
   4  -3  20   51.83   13.95
  -4  -3  20   66.04   14.34
   4   3  20   49.29   12.75
   4  -3  21  435.45   38.98
  -4   3  21  411.19   36.87
  -4  -3  21  411.29   36.81
   4   3  21  393.66   36.03
  -4   3  22    0.40    4.53
  -4  -3  22   -1.77    0.75
   4   3  22   -1.30    1.07
   4  -3  22    0.89    1.90
  -4   3  23   25.44    8.47
  -4  -3  23   20.12    7.57
   4   3  23   36.56   12.30
   4  -3  23   20.21    8.76
  -4   3  24    4.27    4.02
  -4  -3  24    6.53   10.58
   4   3  24   -2.75    3.98
   4  -3  24   -2.21    1.12
  -4   3  25   37.35   12.18
   4   3  25   44.74   13.70
   4  -3  25   36.63   12.05
  -4   3  26    6.71    1.37
   4   3  26   16.47    8.74
   4   3  27    5.94    4.03
   4  -3  27    2.93    3.87
  -4   3  28   -1.87    4.95
   4   3  28   15.95    6.96
   4  -3  28   -7.17    8.55
  -4   3  29   58.37   16.65
   4   3  29   47.00   14.47
   4  -3  29   61.04   16.33
  -4   3  30   -1.77    4.02
   4   3  30    5.38    2.38
   4  -3  30   -0.39    3.06
  -4  -4   0   17.77    2.92
   4  -4   0   11.65    4.72
   4  -4  -1   27.00    6.78
  -4  -4   1   20.92    2.72
   4  -4   1   31.23    7.46
   4   4   1   27.07    3.89
   4   4   2  165.36   11.03
   4  -4  -2  167.98   16.57
   4  -4   3   38.16    7.58
   4   4   3   50.48    6.92
   4  -4  -3   55.64    9.63
   4  -4  -4  144.94   15.82
  -4  -4   4  139.60    6.75
   4   4   4  163.83   12.81
   4  -4   5  755.47   36.37
  -4  -4   5  818.48   20.03
   4  -4  -5  786.67   35.34
  -4  -4   6  122.64    8.43
   4   4   6  125.80   12.66
   4  -4   6  124.86   15.10
  -4  -4   7  202.17   12.13
   4   4   7  254.77   19.44
   4  -4   7  222.29   20.60
   4   4   8    4.07    2.77
   4  -4   8   -0.20    4.03
  -4  -4   8    1.67    1.35
  -4   4   8    4.70    4.23
  -4   4   9   -1.34    1.74
   4   4   9    1.21    1.64
   4  -4   9   -2.36    1.14
  -4  -4   9   -0.05    1.08
  -4  -4  10   42.84    7.58
   4  -4  10   34.42    8.98
  -4   4  10   64.26   11.64
   4   4  10   55.84   10.62
   4  -4  11   10.66    6.19
   4   4  11    9.63    4.49
  -4  -4  11   12.42    4.13
  -4   4  11   17.38    6.26
   4  -4  12    4.77    2.92
   4   4  12    0.84    1.71
  -4   4  12   -1.97    2.03
  -4  -4  12    1.12    1.46
   4  -4  13   10.46    4.36
   4   4  13    7.75    5.18
  -4  -4  13    4.46    3.72
  -4   4  13    6.31    5.16
  -4  -4  14   82.82   12.98
   4  -4  14   82.05   14.49
  -4   4  14   88.71   15.06
   4   4  14  117.54   17.08
   4   4  15   24.95    8.81
  -4  -4  15   36.54    9.01
   4  -4  15   41.23    9.52
  -4   4  15    6.18    8.20
   4   4  16   16.57    8.16
  -4  -4  16   15.58    6.87
   4  -4  16   28.42    7.43
  -4   4  16   14.59    7.62
   4   4  17   11.19    5.41
  -4  -4  17   26.13    8.38
   4  -4  17   27.58    9.50
  -4   4  17   15.71    7.37
   4   4  18   31.04   10.87
  -4  -4  18   50.59   11.44
   4  -4  18   43.47   11.12
  -4   4  18   39.71   13.14
  -4  -4  19  113.44   18.09
   4  -4  19  108.04   17.79
  -4   4  19  128.56   18.85
   4   4  19  121.84   19.37
   4   4  20   -3.06    3.61
  -4  -4  20    3.45    3.92
   4  -4  20    4.99    6.62
  -4   4  20   -0.41    0.95
   4   4  21   11.31    3.79
  -4  -4  21   23.54   11.83
   4  -4  21    6.22    5.57
  -4   4  21   13.43    7.59
   4  -4  22   29.78   10.07
   4   4  22   14.57    9.05
  -4   4  22   35.47   11.67
   4   4  23    0.50    1.69
  -4   4  23    1.73    1.37
   4   4  24   -4.43    6.20
  -4   4  24    0.65    5.98
   4  -4  24   -1.38    1.72
   4   4  25   -2.04    1.25
  -4   4  25   -4.71    3.31
   4   4  26   -0.59    3.42
   4  -4  26    6.96    7.28
  -4   4  26    0.85    2.58
   4   4  27    1.80    3.45
   4  -4  27   -3.56    5.05
   4   4  28    7.34    4.84
   4  -4  28   10.78    2.98
  -4   4  28   12.84    8.20
   4   4  29   -1.60    4.51
   4  -4  29   -8.15    8.48
  -4   4  29    2.41    6.61
   4   4  30    4.69    5.46
   4  -4  30   -2.38    2.70
  -4   4  30   -1.08    3.87
   4  -5   0  309.59   24.52
  -4  -5   0  299.71   15.00
   4  -5  -1    2.18    5.33
  -4  -5  -1    0.31    1.08
   4  -5   1   -0.42    2.26
  -4  -5   1   -0.26    0.53
  -4  -5   2  163.43    9.68
   4  -5   2  149.15   16.73
   4   5   2  167.49   12.80
   4  -5  -2  169.81   18.10
   4  -5   3  268.55   22.04
   4   5   3  284.61   17.81
  -4  -5   3  256.68   12.41
   4  -5  -3  225.15   20.48
   4  -5   4   98.19   13.57
   4  -5  -4  113.29   14.36
  -4  -5   4   95.34    7.69
   4   5   4  115.68   11.70
   4  -5   5  107.05   15.01
   4  -5  -5   81.29   12.91
  -4  -5   5   87.36    8.00
   4   5   5  100.89   11.67
   4   5   6   12.21    3.93
   4  -5  -6   11.00    5.48
   4  -5   6   14.67    5.38
  -4  -5   6   13.39    3.52
   4   5   7    4.67    3.02
   4  -5   7    7.49    4.10
  -4  -5   7    0.70    0.45
  -4  -5   8  197.93   15.01
   4   5   8  196.71   17.69
   4  -5   8  218.48   22.15
  -4   5   9  161.38   18.91
  -4  -5   9  163.31   14.50
   4  -5   9  148.85   18.64
   4   5   9  132.75   15.51
  -4   5  10  318.92   26.68
  -4  -5  10  331.60   21.97
   4  -5  10  317.01   26.89
   4   5  10  296.78   23.93
   4   5  11   36.42    8.98
  -4  -5  11   46.99    8.37
   4  -5  11   38.77    9.24
  -4   5  11   50.56   11.35
  -4  -5  12  113.91   13.72
   4  -5  12   96.34   15.84
   4   5  12   96.36   14.81
   4   5  13   20.11    6.25
   4  -5  13   17.60    7.84
  -4   5  13   25.10    6.24
  -4  -5  13   25.18    6.98
  -4  -5  14  450.75   30.55
   4  -5  14  415.15   33.84
  -4   5  14  451.70   34.74
   4   5  14  489.31   35.21
   4  -5  15    2.80    6.46
   4   5  15    4.60    3.22
  -4   5  15    4.81    5.19
  -4  -5  15    4.09    4.79
  -4  -5  16  155.70   19.71
   4  -5  16   96.55   16.82
  -4   5  16  117.48   19.32
   4   5  16  119.73   18.34
   4   5  17   28.45    8.13
  -4   5  17   45.08   11.59
   4  -5  17   46.91   13.87
   4  -5  18   50.76   12.57
   4   5  18   69.74   14.15
  -4   5  18   87.37   16.94
   4   5  19    1.32    5.82
  -4   5  19    2.45    3.36
   4  -5  19    5.46    3.43
   4   5  20   60.12   14.39
  -4   5  20   83.06   17.08
   4  -5  20   52.47   12.35
   4   5  21    4.31    5.07
   4  -5  21    0.07    4.93
  -4   5  21    8.21    7.80
   4  -5  22  111.67   19.37
  -4   5  22  103.18   18.93
   4   5  22  122.30   20.89
   4   5  23   18.11    8.26
   4  -5  23   17.26    6.78
  -4   5  23   13.03    8.64
   4   5  24   41.93   16.29
   4  -5  24   33.40   10.57
  -4   5  24   44.55   14.29
   4   5  25   21.02   10.13
   4  -5  25   24.63   10.64
  -4   5  25    5.75    3.72
   4   5  26    0.38    2.63
   4  -5  26   -1.44    4.71
  -4   5  26   -1.40    4.58
   4   5  27    1.30    2.04
   4  -5  27   -5.79    8.46
  -4   5  27   -2.10    1.30
   4   5  28    7.26    3.52
   4  -5  28   13.96    7.57
  -4   5  28   15.34    5.65
   4   5  29   27.81   11.68
   4  -5  29   21.42   10.93
  -4   5  29    3.98    4.17
  -4  -6   0  192.95   14.26
   4  -6   0  232.21   21.71
  -4  -6  -1   32.52    6.12
  -4  -6   1   33.08    5.47
   4  -6   1   37.63    8.81
   4  -6  -1   36.15    8.86
  -4  -6   2  118.59   10.54
   4  -6   2  143.51   17.64
   4  -6  -2  136.43   16.50
   4  -6   3    4.50    3.23
  -4  -6   3    2.48    1.79
   4  -6  -3    5.01    4.62
   4   6   3    3.61    2.07
   4  -6  -4  190.02   19.95
   4  -6   4  198.01   19.99
   4   6   4  207.67   16.90
  -4  -6   4  174.90   13.09
   4  -6  -5   34.48    8.69
  -4  -6   5   27.00    5.15
   4   6   5   26.24    6.12
   4  -6   5   23.15    6.52
   4  -6   6  203.90   21.22
   4  -6  -6  228.17   22.51
  -4  -6   6  184.22   14.38
   4   6   6  174.87   16.99
   4  -6  -7   21.30    7.15
  -4  -6   7   27.92    6.18
   4  -6   7   30.69    8.94
   4   6   7   31.14    7.37
   4  -6   8    4.09    3.46
   4   6   8    1.64    2.68
  -4  -6   8   -0.94    0.78
   4   6   9   12.42    5.68
   4  -6   9    8.42    2.93
  -4  -6   9    6.99    3.99
   4   6  10   31.38    7.27
  -4  -6  10   36.18    8.11
   4  -6  10   23.61    7.73
   4   6  11   22.31    7.89
   4  -6  11   18.79    7.66
  -4   6  11   12.14    3.98
   4  -6  12  145.72   20.25
   4   6  12  176.33   19.07
  -4   6  12  163.32   19.72
   4   6  13   -4.10    3.10
   4  -6  13    0.10    3.53
  -4   6  13    1.15    2.46
   4   6  14   25.94    8.10
   4  -6  14   19.67    8.26
  -4   6  14   18.08    7.29
   4   6  15  281.29   27.15
   4  -6  15  292.09   29.32
   4   6  16    5.10    3.19
   4  -6  16    6.82    6.81
  -4   6  16    2.82    2.39
   4   6  17   34.37   10.19
   4  -6  17   24.50    9.19
  -4   6  17   19.28    7.49
   4   6  18   42.53   11.51
  -4   6  18   59.87   14.41
   4  -6  18   25.26    9.68
   4   6  19   11.19    6.48
  -4   6  19    1.93    3.87
   4  -6  19   12.80    8.01
   4   6  20   13.08    6.60
   4  -6  20   12.01    5.56
  -4   6  20   10.62   10.48
   4   6  21   49.29   12.79
   4  -6  21   50.86   13.54
  -4   6  21   48.10   13.89
   4   6  22   11.89    6.01
   4  -6  22   21.90    7.57
  -4   6  22    6.96    5.48
   4   6  23    6.18    2.07
   4  -6  23   10.30    5.45
  -4   6  23    4.38    4.03
   4   6  24    4.46    3.71
  -4   6  24   -3.43    5.82
   4  -6  24    9.63    9.10
   4   6  25    6.78    7.87
   4  -6  25    9.35    7.24
  -4   6  25    5.60    0.84
   4   6  26   45.11   13.38
   4  -6  26   57.67   16.68
  -4   6  26   33.58   11.24
   4   6  27    7.36    7.23
   4  -6  27   16.61    9.41
  -4   6  27   19.95    9.90
   4   6  28   -0.17    3.12
   4  -6  28   -1.44    7.12
  -4   6  28    1.71    1.14
  -4  -7   0   44.26    7.62
   4  -7   0   49.83   10.63
   4  -7   1  121.21   17.30
  -4  -7   1  114.50   12.76
   4  -7  -1  129.92   16.64
  -4  -7  -1  131.74   13.86
   4  -7  -2   18.91    4.99
  -4  -7   2   19.88    5.19
   4  -7   2   20.73    6.18
  -4  -7  -2   21.38    5.71
  -4  -7   3 1245.94   39.47
   4  -7   3 1292.67   54.49
   4  -7  -3 1376.58   57.17
  -4  -7   4  306.68   20.19
   4  -7   4  353.85   27.89
   4  -7  -4  317.87   27.65
   4  -7  -5   60.72   12.13
   4  -7   5   58.16   12.40
   4   7   5   48.29    8.98
  -4  -7   5   37.11    7.44
   4  -7   6   54.23   11.94
   4  -7  -6   73.26   12.35
  -4  -7   6   63.29    9.87
   4  -7  -7  244.40   23.83
   4  -7   7  241.13   24.30
   4   7   7  203.88   19.71
   4  -7  -8   -0.62    2.72
   4  -7   8    4.33    3.52
   4   7   8    0.90    2.07
   4  -7   9   12.98    7.03
   4   7   9    8.45    4.85
   4  -7  10   16.15    6.43
   4   7  10   27.07    8.26
   4   7  11  296.05   27.02
   4  -7  11  372.33   31.84
   4   7  12   11.29    5.34
  -4   7  12   14.24    6.31
   4  -7  12   18.73    5.51
   4  -7  13  236.77   25.82
   4   7  13  184.85   22.70
  -4   7  13  195.69   22.99
   4   7  14   29.66    9.60
   4  -7  14   28.93   10.27
  -4   7  14   18.96    8.22
   4  -7  15  276.39   29.53
  -4   7  15  215.22   25.43
   4   7  15  233.23   26.55
   4   7  16   24.52    9.79
   4  -7  16   22.48    6.94
  -4   7  16   10.69    6.97
   4   7  17   11.03    5.68
   4  -7  17   10.79    8.01
  -4   7  17    7.44    4.18
   4  -7  18   19.38    8.23
   4   7  18   19.15    7.04
  -4   7  18   33.23    8.37
   4   7  19   32.51   11.66
  -4   7  19   33.59   12.23
   4  -7  19   41.06   11.38
   4   7  20    3.93    1.50
  -4   7  20    3.45    5.48
   4  -7  20    4.70    6.32
   4  -7  21  148.97   23.80
  -4   7  21  136.12   22.16
   4   7  21  124.10   20.12
   4   7  22   11.14    6.85
  -4   7  22   16.23    7.35
   4  -7  22   21.84    9.28
   4   7  23    2.56    3.80
   4  -7  23    6.18    4.28
  -4   7  23   16.84    7.90
   4   7  24   19.94    6.93
   4  -7  24   39.50   11.91
  -4   7  24   33.61   11.90
   4   7  25   50.02   13.95
   4  -7  25   67.60   16.77
  -4   7  25   45.91   14.43
   4   7  26    2.75    3.40
   4  -7  26    4.87    7.27
  -4   7  26    3.60    7.14
   4   7  27   -6.98    6.78
  -4   7  27   11.63    7.37
   4  -7  27   12.49    9.35
   4  -8   0  207.38   23.75
  -4  -8   0  171.31   17.22
   4  -8  -1    5.32    4.20
  -4  -8   1   18.44    5.49
  -4  -8  -1   12.22    5.09
   4  -8   1   12.55    5.86
  -4  -8  -2    0.40    0.86
   4  -8  -2   -2.10    2.13
   4  -8   2   -2.03    5.02
  -4  -8  -3  273.96   22.05
   4  -8   3  255.21   24.88
   4  -8  -3  305.29   27.45
   4  -8   4   78.44   13.97
   4  -8  -4   55.44   12.10
   4  -8   5   -1.07    3.95
   4  -8  -5    3.54    3.17
   4  -8  -6   68.52   13.40
   4  -8   6   76.17   14.26
   4   8   6   69.48   12.46
   4  -8   7  151.12   19.10
   4  -8  -7  154.89   20.61
   4   8   7  136.37   17.37
   4  -8   8  124.76   18.57
   4  -8  -8   98.58   15.72
   4   8   8   98.58   15.16
   4  -8  -9   35.53    8.78
   4   8   9   23.24    7.64
   4  -8   9   22.22    7.92
   4  -8  10   11.06    4.96
   4   8  10    8.68    4.59
   4  -8 -10   12.29    5.90
   4  -8  11   18.72    7.39
   4   8  11   33.28   10.71
   4  -8  12    8.99    5.47
   4   8  12    8.15    1.74
   4  -8  13   18.29    7.55
   4   8  13    6.69    5.75
   4  -8  14    7.24    4.61
  -4   8  14    4.26    3.97
   4   8  14    9.12    6.83
   4  -8  15   27.59    8.42
  -4   8  15   30.96    9.36
   4   8  15   30.71   11.57
   4  -8  16   22.66   10.29
  -4   8  16   15.46    8.02
   4   8  16    6.56    5.50
   4   8  17   55.66   13.25
  -4   8  17   86.45   17.25
   4  -8  17   80.29   16.55
   4   8  18   12.38    4.40
   4  -8  18   19.01    8.59
  -4   8  18    4.14    5.96
   4   8  19   11.40    1.23
   4  -8  19   19.99    5.73
  -4   8  19   22.24   10.80
   4   8  20    6.31    5.78
  -4   8  20    0.05    4.91
   4  -8  20    5.71    5.85
   4   8  21   49.53   13.28
  -4   8  21   77.80   16.94
   4  -8  21   48.02   14.44
   4   8  22    7.94    5.47
  -4   8  22    2.01    1.13
   4  -8  22    9.00    6.16
   4   8  23    8.06    4.74
   4  -8  23   10.87    4.58
   4   8  24    2.56    4.33
  -4   8  24    9.60    7.29
   4  -8  24    5.82    1.50
   4   8  25   30.33   11.95
   4  -8  25   33.74   11.37
  -4   8  25   50.55   15.08
   4   8  26   -2.79    5.10
   4  -8  26    3.42    3.82
  -4   8  26   -3.11    2.64
   4  -9   0  589.25   39.82
  -4  -9   0    6.93    3.63
   4  -9  -1  183.68   22.25
  -4  -9  -1  209.23   21.01
   4  -9   2  215.09   24.00
   4  -9  -2  211.83   24.22
  -4  -9  -2  166.79   18.80
  -4  -9  -3  277.91   23.92
   4  -9   3  343.13   30.20
   4  -9  -3  309.37   29.45
  -4  -9  -4  392.57   29.16
   4  -9   4  463.19   34.52
   4  -9  -4  366.69   31.54
   4  -9   5    0.47    3.50
   4  -9  -5   -0.29    1.55
  -4  -9  -5    0.43    3.39
   4  -9   6  124.73   19.07
   4  -9  -6  122.48   19.25
   4  -9  -7  488.65   37.37
   4  -9   7  513.00   38.76
   4  -9   8   57.87   13.66
   4  -9  -8   40.62    9.88
   4   9   8   56.00   12.52
   4  -9  -9   69.07   16.19
   4   9   9   62.34   12.93
   4  -9   9   65.36   14.80
   4  -9 -10   10.73    6.69
   4  -9  10   23.85    8.76
   4   9  10   17.22    6.67
   4  -9  11   60.95   13.84
   4  -9 -11   62.98   13.87
   4   9  11   76.45   13.74
   4  -9  12   14.43    8.28
   4   9  12    7.19    5.86
   4  -9  13   20.32   11.30
   4   9  13   11.44    6.50
   4  -9  14   66.42   14.72
   4   9  14   67.27   14.18
   4  -9  15   63.96   13.93
   4   9  15   59.13   13.91
   4  -9  16    6.07    6.16
   4   9  16    9.59    6.23
   4  -9  17  116.66   20.17
  -4   9  17   86.08   18.25
   4   9  17   46.81   13.09
   4  -9  18   35.35   10.83
  -4   9  18   26.74    8.69
   4   9  18   45.56   13.17
   4  -9  19    1.02    6.93
  -4   9  19   10.14    6.76
   4   9  19    7.92    3.72
   4  -9  20    4.32    4.70
  -4   9  20    7.24    2.80
   4   9  20    4.07    1.82
   4  -9  21   69.21   17.64
  -4   9  21   27.23   10.19
   4   9  21   48.32   12.19
   4   9  22   20.92    9.49
  -4   9  22   44.46   13.60
   4  -9  22   46.47   13.90
   4  -9  23    8.32    5.08
   4   9  23    2.34    3.21
   4  -9  24    5.00    7.59
  -4   9  24   14.12    6.62
   4   9  24   -2.44    6.47
   4   9  25   -0.35    3.44
   4  -9  25   13.06    5.49
  -4   9  25    8.33    6.30
   4 -10   0   29.64    9.75
   4 -10   1    3.09    4.89
   4 -10  -1    1.98    3.15
   4 -10  -2   10.76    5.88
   4 -10   2    9.69    5.09
   4 -10  -3    6.85    7.45
   4 -10   3   -0.06    3.43
   4 -10   4   -1.05    2.09
   4 -10  -4    2.96    0.99
   4 -10   5   -0.08    3.26
   4 -10  -5    1.38    2.04
  -4 -10  -5    0.25    1.62
   4 -10   6  140.81   20.69
  -4 -10  -6  124.36   18.05
   4 -10  -6  106.37   17.84
   4 -10   7    4.67    6.97
   4 -10  -7    6.14    4.67
   4 -10   8  120.24   19.03
   4 -10  -8  126.31   20.15
   4 -10  -9    1.70    3.10
   4 -10   9    3.32    6.12
   4 -10  10   -0.20    4.22
   4  10  10   -3.78    1.00
   4 -10 -10   -2.52    5.17
   4 -10 -11   85.36   16.20
   4 -10  11   60.48   14.13
   4  10  11   54.37   11.70
   4  10  12    4.40    1.75
   4 -10 -12    4.86    3.55
   4  10  13    1.84    1.37
   4 -10 -13    1.64    2.32
   4 -10 -14    3.96    1.54
   4 -10  14    1.65    2.95
   4  10  14    5.58    3.62
   4 -10  15    4.34    3.66
   4  10  15   -7.33    7.02
   4  10  16   20.79    9.19
   4 -10  16   15.09   10.46
   4 -10  17   17.79    9.09
   4  10  17    4.72    7.05
   4 -10  18   31.17   12.77
   4  10  18   34.77   10.88
   4 -10  19    6.45    6.40
   4  10  19    5.63    5.06
   4 -10  20   -1.91    4.76
  -4  10  20   12.41    6.23
   4  10  20    9.04    8.85
   4 -10  21   -2.40    3.65
  -4  10  21    0.58    4.14
   4  10  21   -5.29    3.41
  -4  10  22   46.67   13.73
   4  10  22   32.75   10.24
   4 -10  22   45.42   15.66
  -4  10  23   -1.73    4.89
   4 -10  23    8.15    6.74
   4  10  23    4.54    1.20
   4  10  24    8.50    5.53
  -4  10  24   14.40    8.29
   4 -10  24    3.62    6.08
   4 -11   0  242.24   27.94
   4 -11   1   43.05   12.74
   4 -11  -1   20.12    8.30
   4 -11   2    7.22    4.15
   4 -11  -2    4.05    6.88
   4 -11  -3   28.20   10.12
   4 -11   3   21.49    8.32
   4 -11   4  273.23   28.55
   4 -11  -4  309.96   31.36
   4 -11   5   43.71   10.47
   4 -11  -5   61.90   12.81
   4 -11   6  196.52   24.60
   4 -11  -6  216.20   26.23
   4 -11  -7   19.75    9.40
   4 -11   7   10.62    5.88
  -4 -11  -8    0.21    6.85
   4 -11   8    2.34    4.04
   4 -11  -8   10.49    8.24
   4 -11  -9    4.11    4.90
   4 -11   9   11.11    6.88
   4 -11 -10  132.77   21.27
   4 -11  10  175.04   24.59
   4 -11  11   -0.43    3.18
   4 -11 -11    7.53    5.95
   4 -11 -12   18.04    7.93
   4 -11  12   22.15    9.73
   4  11  12   25.64    8.86
   4 -11  13   14.34    7.65
   4 -11 -13   23.38    9.74
   4  11  13   14.15    9.13
   4 -11 -14   70.54   16.07
   4 -11  14   56.61   13.44
   4  11  14   36.64   11.00
   4 -11  15    0.94    0.41
   4  11  15   -0.05    2.71
   4 -11  16    1.33    4.12
   4 -11 -16   14.16    7.20
   4  11  16   -3.29    6.13
   4 -11  17    8.47    5.90
   4  11  17    9.83    7.46
   4 -11  18   15.35    8.31
   4  11  18   13.66    7.92
   4 -11  19    4.40    1.80
   4  11  19    1.77    3.25
   4 -11  20    8.80    7.07
   4  11  20   -6.48    7.15
   4 -11  21    3.42    3.45
   4  11  21   -0.52    5.71
   4  11  22   10.97    7.77
   4 -11  22    7.04    6.30
   4 -12   0   30.64   11.62
   4 -12   1    2.75    3.07
   4 -12  -1    4.16    4.73
   4 -12   2   18.42    9.43
   4 -12  -2    2.89    4.23
   4 -12   3   47.19   12.56
   4 -12  -3   61.07   16.01
   4 -12  -4    1.25    3.82
   4 -12   4    1.86    4.92
   4 -12   5   -4.37    3.68
   4 -12  -5    3.12    3.99
   4 -12  -6   43.87   13.01
   4 -12   6   13.90    5.67
   4 -12  -7   12.74    5.80
   4 -12   7    6.42    5.08
   4 -12  -8    9.51    6.37
   4 -12   8   14.03    7.69
   4 -12   9   11.77    5.26
   4 -12  -9   13.46    7.73
   4 -12 -10   11.55    6.65
   4 -12  10    7.98    7.62
   4 -12 -11   16.64    8.19
   4 -12  11   18.79    8.03
   4 -12 -12    2.88    2.50
   4 -12  12    1.24    4.78
   4 -12  13    2.92    3.89
   4 -12 -13    0.63    1.74
   4 -12 -14   17.93    8.36
   4 -12  14   20.15    8.63
   4 -12  15    3.15    5.37
   4 -12 -15   -1.40    2.72
   4  12  15   -3.49    6.69
   4 -12  16   -0.67    2.58
   4 -12 -16   -2.90    5.17
   4  12  16    7.13    8.32
   4 -12 -17    3.22    5.51
   4 -12  17    1.66    1.76
   4  12  17   -7.21    8.50
   4 -12  18   16.19   10.68
   4  12  18   16.42    6.82
   4 -12 -18    4.74    5.80
   4 -12  19    6.61    5.82
   4 -12 -19   -0.36    3.48
   4  12  19    6.07    4.77
   4 -12  20   -1.34    4.02
   4 -12 -20   12.36    9.86
   4  12  20   14.60    8.91
   4 -13   0   21.40   10.73
   4 -13   1   29.02   10.80
   4 -13  -1   35.39   10.26
   4 -13   2    2.57    1.81
   4 -13  -2    4.66    5.75
   4 -13   3  109.11   18.59
   4 -13  -3   78.56   17.37
   4 -13   4   -1.79    1.71
   4 -13  -4    6.11    4.09
   4 -13   5    5.16    6.91
   4 -13  -5   -1.75    2.98
   4 -13  -6    1.38    5.59
   4 -13   6   -3.31    2.07
   4 -13  -7   66.79   15.00
   4 -13   7   60.81   13.64
   4 -13   8   50.01   12.69
   4 -13  -8   45.88   13.37
   4 -13  -9    4.67    4.63
   4 -13   9    4.79    2.14
   4 -13  10    0.67    0.74
   4 -13 -10   -1.78    7.47
   4 -13  11    5.85    6.80
   4 -13 -11   -7.17    8.58
   4 -13 -12   26.27    9.13
   4 -13  12   37.05   11.25
   4 -13 -13   10.73    5.53
   4 -13  13    3.98    6.78
   4 -13  14    4.41    2.81
   4 -13 -14   -4.37    5.40
   4 -13  15   33.39   11.74
   4 -13 -15   25.99   10.09
   4 -13  16    0.11    5.15
   4 -13 -16    1.58    3.98
   4 -13 -17   16.89    9.04
   4 -13  17    9.61    8.22
   4 -14   0   38.39   11.33
   4 -14   1    2.89    4.83
   4 -14  -1   19.54    9.59
   4 -14   2   -0.79    2.56
   4 -14  -2    5.87    7.27
   4 -14   3    5.38    5.19
   4 -14  -3    5.90    6.91
   4 -14   4    2.52    1.49
   4 -14  -4   -2.78    3.95
   4 -14  -5    3.16    4.62
   4 -14   5    1.93    0.60
   4 -14  -6   22.08    7.45
   4 -14   6   22.48    9.73
   4 -14  -7    8.77    5.99
   4 -14   7   18.06    7.30
   4 -14  -8    5.97    6.27
   4 -14   8   -2.98    4.38
   4 -14  -9    7.63    8.05
   4 -14   9   -2.08    5.00
   4 -14 -10    8.09    7.94
   4 -14  10   -5.54    6.88
   4 -14  11   -3.33    2.99
   4 -14 -11    2.69    3.24
   4 -14  12    8.42    6.92
   4 -14 -12   -2.08    4.92
   4 -14  13   12.48    5.32
   4 -14 -13   16.76    7.64
   4 -14 -14    8.31    6.42
   4 -14  14    2.18    7.72
   4 -15   0   21.91    9.80
   4 -15   1   -0.21    1.06
   4 -15  -1    7.11    6.24
   4 -15   2    6.34    5.19
   4 -15  -2   14.31    8.32
   4 -15   3   -5.54    5.80
   4 -15  -3   -2.74    3.38
   4 -15   4   39.87   12.80
   4 -15  -4   41.80   10.68
   4 -15  -5    2.82    3.38
   4 -15   5    1.31    1.38
   4 -15   6   11.53    4.56
   4 -15  -6   20.68    8.39
   4 -15  -7   -4.52    2.52
   4 -15   7    0.46    2.77
   4 -15  -8   33.78   11.42
   4 -15   8   39.22   12.43
   4 -15  -9    1.42    1.68
   4 -15   9   -0.53    2.36
   4 -15 -10   -0.46    5.00
   4 -15  10    4.60    4.97
   5   0   0    1.37    1.44
   5   0  -1   -0.96    1.49
   5   0   1    0.11    1.87
   5   0  -2  867.33   26.04
   5   0   2  753.12   27.16
   5   0   3    0.72    1.84
   5   0  -3    0.19    1.17
   5   0   4 1504.77   42.75
   5   0  -4 1549.96   35.45
   5   0  -5   -0.27    1.33
   5   0   5    1.11    2.37
   5   0  -6 1316.80   35.05
   5   0   6 1149.08   41.06
  -5   0   7    3.24    3.22
   5   0   7    1.21    2.50
   5   0   8  300.39   21.92
  -5   0   8  326.53   20.08
   5   0   9    0.28    1.94
  -5   0   9    1.29    1.27
   5   0  10  154.26   17.60
  -5   0  10  101.10   11.98
   5   0  11   -0.72    2.50
  -5   0  11    1.63    2.99
   5   0  12  563.01   36.16
  -5   0  12  504.74   29.92
  -5   0  13    1.89    1.82
   5   0  13    2.93    4.46
   5   0  14  138.29   17.86
  -5   0  14  102.96   14.89
  -5   0  15   -3.08    4.11
   5   0  15    2.06    0.51
   5   0  16  614.73   41.43
  -5   0  16  595.85   37.41
  -5   0  17   -0.03    3.03
   5   0  17   -0.22    1.70
  -5   0  18   36.53    9.34
   5   0  18   48.30   11.21
  -5   0  19   -2.54    3.32
   5   0  19    3.65    5.94
   5   0  20   75.10   16.55
  -5   0  20  102.41   18.42
  -5   0  21   -0.78    5.59
   5   0  21    6.60    6.26
  -5   0  22   23.14   10.28
   5   0  22   25.00    8.89
  -5   0  23    0.14    1.06
   5   0  23   -0.03    4.22
   5   0  24  232.28   30.01
  -5   0  24  233.03   28.71
  -5   0  25   18.21   11.73
   5   0  25   -0.22    2.81
   5   0  26   86.75   18.50
   5   0  27   -5.66    8.21
   5   0  28   62.32   17.65
   5   0  29  -13.04   12.99
   5   0  30   63.00   16.05
   5   1   0   -0.24    0.88
   5  -1   0    1.23    1.47
   5  -1   1  140.63   12.48
   5  -1  -1  143.06   12.15
   5   1   1  164.75   10.40
   5   1  -1  161.19    8.60
   5  -1   2    3.16    1.89
   5  -1  -2    7.16    2.49
   5   1  -2   10.15    2.18
   5   1   2    3.05    2.04
   5  -1  -3   12.80    4.16
   5   1  -3   13.22    2.40
   5  -1   3    7.98    3.11
   5  -1   4   16.28    4.41
   5   1  -4   16.63    2.78
   5  -1  -4   15.70    4.39
   5   1   4   12.65    3.75
   5  -1   5    6.89    3.42
   5  -1  -5    5.36    2.79
   5   1  -5    3.33    1.54
   5   1   5    6.39    3.08
   5   1   6  282.53   20.06
   5  -1  -6  313.58   19.35
   5  -1   6  335.53   22.84
   5   1   7   45.00    8.29
   5  -1   7   43.79    7.97
   5  -1   8   20.18    5.90
   5   1   8   15.62    5.08
  -5   1   8   15.87    4.61
  -5  -1   8   20.90    4.64
   5   1   9   44.67    9.20
   5  -1   9   51.91   10.24
  -5  -1   9   70.44    8.96
   5   1  10  558.80   32.75
   5  -1  10  523.59   32.44
  -5   1  10  589.47   31.14
   5   1  11   31.88    8.51
  -5  -1  11   42.36    7.56
   5  -1  11   25.46    6.66
  -5   1  11   40.87    8.39
   5   1  12  207.34   21.16
   5  -1  12  181.49   20.48
  -5   1  12  184.64   18.72
  -5  -1  12  211.79   19.15
   5   1  13  290.80   26.09
   5  -1  13  334.53   27.93
  -5   1  13  324.29   25.64
  -5  -1  13  302.92   23.18
   5   1  14  123.18   17.68
   5  -1  14  153.74   20.16
  -5   1  14  137.03   17.72
  -5  -1  14   89.69   13.32
  -5  -1  15   13.50    6.25
   5   1  15   11.78    6.65
   5  -1  15   10.15    5.32
  -5   1  15   16.96    5.44
   5   1  16  145.77   19.62
   5  -1  16  138.18   19.91
  -5   1  16  157.58   19.62
  -5  -1  16  131.85   17.91
  -5   1  17   38.15   10.20
  -5  -1  17   34.11    9.10
   5   1  17   28.49    9.87
   5  -1  17   25.44    8.18
  -5   1  18   14.92    5.62
  -5  -1  18   23.94    8.25
   5   1  18   29.80    8.90
   5  -1  18   28.05    9.65
  -5   1  19   21.57    8.08
  -5  -1  19    7.34    5.40
   5   1  19   10.60    4.30
   5  -1  19    9.11    3.69
  -5   1  20   77.38   13.98
   5   1  20   92.22   18.26
  -5  -1  20   46.79   10.47
   5  -1  20   80.13   15.84
  -5   1  21   38.37   10.38
  -5  -1  21   35.99   10.57
   5   1  21   40.57   12.53
   5  -1  21   43.42   11.79
  -5   1  22    7.45    2.82
  -5  -1  22   11.41    9.81
   5   1  22    1.38    2.07
   5  -1  22   12.40    8.81
  -5   1  23   76.30   15.72
   5  -1  23  105.40   19.70
   5   1  23   59.85   14.63
   5   1  24  110.13   20.71
   5  -1  24   92.83   18.13
  -5   1  24  112.83   20.33
  -5   1  25    4.18    6.47
   5   1  25    9.46    5.80
   5  -1  25    5.75    5.97
  -5   1  26   24.41   10.63
   5   1  26   24.75    9.39
   5  -1  26   18.29    8.04
  -5   1  27   11.98    8.20
   5   1  27   30.99   11.57
   5  -1  27   27.60   11.95
  -5   1  28   -6.27    5.03
   5   1  28   -4.11    5.17
   5  -1  28   -4.12    4.65
   5   1  29   -5.72    4.29
   5  -1  29    6.58    6.05
   5   1  30   33.66   11.13
   5  -1  30   31.40   10.08
   5  -2   0   -1.56    2.07
   5   2   0    0.01    0.31
   5   2   1   99.78    7.25
   5  -2  -1  105.05   11.80
   5  -2   2   70.47   10.10
   5   2   2   72.73    7.42
   5  -2  -2   78.46   10.07
   5   2   3  942.50   28.44
   5  -2  -3  901.66   35.39
   5  -2   3  931.90   36.79
   5   2   4  668.52   25.86
   5  -2   4  743.99   33.80
   5  -2  -4  683.35   30.74
   5  -2  -5  768.15   32.65
   5   2   5  612.95   26.91
   5   2   6  446.14   24.84
   5  -2  -6  485.98   26.42
   5   2   7   88.77   11.36
   5  -2   7  128.51   15.26
   5  -2   8    1.10    0.40
  -5  -2   8   -0.17    1.51
   5   2   9  501.12   29.86
   5  -2   9  491.07   31.58
  -5   2   9  530.90   30.14
  -5  -2   9  486.44   21.89
   5   2  10  137.96   16.08
   5  -2  10  134.69   16.83
  -5   2  10  158.59   16.56
  -5  -2  10  146.18   12.95
   5   2  11   53.92   10.11
   5  -2  11   53.74   10.97
  -5  -2  11   51.39    8.23
  -5   2  11   44.11    9.26
   5   2  12  154.49   18.24
   5  -2  12  126.82   17.66
  -5  -2  12  129.74   13.55
   5   2  13  515.18   35.65
   5  -2  13  558.19   37.15
  -5   2  13  566.84   35.43
  -5  -2  13  512.28   28.75
  -5  -2  14   36.26    7.61
   5   2  14   23.43    9.21
  -5   2  14   37.91    9.36
   5   2  15  129.58   18.69
   5  -2  15  156.68   20.68
  -5   2  15  174.61   21.05
  -5  -2  15  151.09   17.62
   5   2  16  100.02   17.96
   5  -2  16   88.23   15.42
  -5   2  16   77.98   15.51
  -5  -2  16   93.84   14.49
   5   2  17  132.13   20.70
   5  -2  17  144.63   21.60
  -5   2  17  148.11   20.03
  -5  -2  17  141.51   18.80
   5   2  18  119.06   17.80
   5  -2  18  129.97   20.08
  -5   2  18  130.51   19.91
  -5  -2  18  123.86   18.51
   5   2  19   45.99   11.95
   5  -2  19   37.17   10.88
  -5   2  19   30.29   11.05
   5   2  20  117.48   19.85
   5  -2  20  118.84   19.55
  -5   2  20  108.32   18.06
  -5   2  21   39.43   10.77
   5   2  21   27.35    9.79
   5  -2  21   20.32    7.93
  -5   2  22   20.62    9.22
   5   2  22   16.54    8.14
   5  -2  22    5.17    4.28
  -5   2  23   22.95    7.25
   5   2  23   29.38   11.94
   5  -2  23   48.33   13.70
  -5   2  24   17.34    8.69
   5   2  24   16.17   10.01
   5  -2  24   12.53    5.19
  -5   2  25   -2.92    2.96
   5   2  25    2.07    4.31
   5  -2  25   -4.52    3.87
  -5   2  26   -0.14    5.18
   5   2  26   14.53    8.37
   5  -2  26    5.32    4.58
  -5   2  27   72.68   17.31
   5  -2  27   88.05   18.77
   5   2  27   78.56   18.37
  -5   2  28   -5.78    6.78
   5   2  28   -1.88    5.08
   5  -2  28   -6.65    7.44
  -5   2  29    4.89    3.20
   5  -2  29   -0.70    3.98
   5  -3   0    2.67    2.70
   5  -3   1    7.18    2.69
   5  -3  -1    9.37    3.72
   5   3   1    3.53    1.74
   5  -3   2  238.26   19.57
   5  -3  -2  204.66   18.50
   5   3   2  195.43   10.53
   5   3   3    0.07    0.31
   5  -3  -3   -1.00    1.46
   5   3   4    0.82    1.22
   5  -3  -4    0.46    2.63
   5  -3   4    0.62    3.23
   5  -3  -5  258.57   20.77
   5  -3   5  227.96   19.93
   5   3   5  236.03   16.92
   5  -3  -6   25.61    6.27
   5  -3   6   25.13    7.42
   5   3   6   43.47    8.07
   5  -3  -7  237.86   20.56
   5  -3   7  189.94   19.29
   5   3   7  262.37   19.72
   5  -3   8   13.63    4.68
   5   3   8   13.40    5.13
  -5  -3   8   11.60    3.32
   5   3   9   30.44    8.31
   5  -3   9   29.85    7.74
  -5   3   9   33.58    9.21
   5  -3  10    2.95    4.01
   5   3  10   21.58    6.77
  -5   3  10   11.76    5.82
  -5  -3  10   17.89    5.30
   5  -3  11    6.87    5.65
   5   3  11    5.08    4.89
  -5   3  11    0.19    2.04
   5  -3  12    1.50    2.62
  -5  -3  12   -1.86    2.28
   5   3  12    3.91    3.57
  -5   3  12    2.28    2.31
   5   3  13  137.47   18.15
   5  -3  13  126.43   18.36
  -5   3  13  159.74   19.58
   5   3  14    3.02    4.22
  -5   3  14    5.62    6.13
   5  -3  14    0.82    1.22
   5   3  15  117.81   17.50
   5  -3  15  159.38   20.77
  -5   3  15  166.66   20.56
   5   3  16   15.21    7.18
   5  -3  16   26.40    9.58
  -5   3  16   14.74    5.04
   5   3  17    4.59    4.28
   5  -3  17    3.04    5.01
  -5   3  17   -3.62    5.22
   5   3  18    1.60    2.79
   5  -3  18   -3.88    4.51
  -5   3  18    1.22    4.33
   5   3  19   24.69    9.14
   5  -3  19   41.82   10.83
  -5   3  19   12.74    8.69
   5   3  20    6.19    3.41
   5  -3  20   15.19    6.99
  -5   3  20   10.93    7.03
   5   3  21    3.44    1.75
   5  -3  21    7.20    5.34
   5   3  22   -2.18    4.77
   5  -3  22    7.26    5.76
  -5   3  22    0.35    3.71
   5   3  23   12.46    8.34
   5  -3  23   31.62   12.22
  -5   3  23   25.56   10.79
   5   3  24   67.25   16.98
   5  -3  24   51.88   13.09
  -5   3  24   60.19   14.98
  -5   3  25    4.60    3.84
   5   3  25   13.28    7.25
   5  -3  25   23.28   11.96
   5   3  26    1.45    4.92
   5  -3  26   -2.54    6.52
  -5   3  26   -0.40    2.67
   5   3  27   23.77    9.91
   5  -3  27   41.11   13.49
  -5   3  27   25.42   11.02
   5   3  28    4.65    3.30
   5  -3  28    9.70    6.84
  -5   3  28   -1.76    3.96
   5   3  29   12.33    6.57
   5  -3  29   11.79    6.11
  -5   3  29   16.36    8.97
   5  -4   0    1.19    3.23
   5  -4   1  279.75   22.23
   5  -4  -1  270.65   22.34
   5  -4  -2    2.03    2.27
   5  -4   2    5.90    4.21
   5   4   2    5.06    1.95
   5  -4   3   -1.53    3.46
   5  -4  -3    0.72    2.30
   5   4   3    2.02    1.58
   5  -4   4   64.05   10.88
   5  -4  -4   65.58   10.99
   5   4   5   24.21    5.26
   5  -4  -5   22.78    6.65
   5  -4   5   29.07    7.79
   5  -4  -6  470.18   30.03
   5   4   6  457.10   26.02
   5  -4   6  416.03   29.60
   5  -4  -7  345.04   25.64
   5  -4   7  418.35   30.39
   5   4   7  338.83   23.02
   5  -4   8   83.47   13.96
   5   4   8   68.53   10.80
   5  -4   9   61.10   11.61
   5   4   9   58.22   10.27
   5   4  10    2.16    4.37
   5  -4  10    3.98    4.40
  -5   4  10    0.77    3.14
   5  -4  11   -1.77    2.47
   5   4  11   10.28    4.98
  -5   4  11    5.91    4.65
   5  -4  12  136.22   18.76
  -5   4  12  164.04   19.59
   5   4  12  164.02   18.79
   5  -4  13   19.82    6.52
   5   4  13   15.97    4.62
  -5   4  13   11.33    4.91
   5  -4  14   44.22   10.34
   5   4  14   51.86   11.26
  -5   4  14   35.61    9.26
   5   4  15    8.79    4.07
  -5   4  15   10.22    6.53
   5  -4  15    5.92    3.25
   5  -4  16  215.14   25.00
  -5   4  16  215.09   24.95
   5   4  16  223.75   25.16
   5  -4  17   92.54   17.75
  -5   4  17  115.33   18.99
   5   4  17  109.97   17.97
   5   4  18    2.41    4.59
   5  -4  18    3.31    5.31
  -5   4  18    6.40    4.97
   5   4  19   55.73   12.93
   5  -4  19   82.16   16.82
  -5   4  19   48.50   12.07
   5   4  20   -1.05    5.51
   5  -4  20   11.26    6.28
  -5   4  20    2.82    3.67
   5   4  21    4.18    2.91
  -5   4  21   -3.25    2.47
   5   4  22   -2.55    5.23
   5  -4  22   -1.09    4.55
  -5   4  22    3.69    7.48
   5  -4  23  248.70   30.54
   5   4  23  236.65   29.64
   5   4  24    1.89    6.16
   5  -4  24    1.05    3.96
  -5   4  24    4.14    2.78
   5   4  25    1.71    3.92
   5  -4  25   -1.74    2.50
  -5   4  25    2.92    6.17
   5   4  26    9.66    8.57
   5  -4  26   18.90   10.04
  -5   4  26    9.62    7.32
   5   4  27    8.34    8.56
   5  -4  27   -2.22    5.01
  -5   4  27    0.06    3.39
   5   4  28   -3.17    4.44
   5  -4  28    5.07    6.84
  -5   4  28    4.41    6.09
   5   4  29   -0.36    1.83
   5  -4  29   -5.92    8.04
  -5   4  29   -6.05    7.82
   5  -5   0    2.00    2.76
   5  -5   1  353.89   26.58
   5  -5  -1  357.28   27.45
   5  -5   2  170.00   18.00
   5  -5  -2  193.67   20.28
   5   5   2  145.73   11.06
   5  -5   3    8.28    3.79
   5  -5  -3    4.90    2.37
   5   5   3    6.51    2.19
   5  -5  -4   21.06    6.99
   5   5   4   36.23    6.36
   5  -5   4   22.69    6.54
   5  -5  -5   54.27   10.67
   5  -5   5   83.40   13.65
   5   5   5   72.45    9.98
   5  -5  -6  166.94   18.99
   5   5   6  189.18   16.54
   5  -5   6  207.61   20.73
   5  -5  -7  166.09   19.23
   5   5   7  153.83   15.62
   5  -5   7  165.04   19.94
   5  -5  -8   79.16   13.95
   5  -5   8  102.40   16.05
   5   5   8  101.92   13.36
   5   5   9    5.24    2.91
   5  -5   9    7.60    6.24
   5   5  10   10.38    5.06
   5  -5  10   12.02    5.66
   5  -5  11   46.21   10.45
   5   5  11   45.43   10.10
   5  -5  12  225.45   24.45
  -5   5  12  229.95   23.89
   5   5  12  205.84   21.79
   5  -5  13    5.04    4.95
   5   5  13    0.68    2.87
  -5   5  13    4.82    5.42
   5  -5  14    2.08    6.13
   5   5  14    2.51    4.52
  -5   5  14    4.47    3.68
   5  -5  15   14.85    7.48
   5   5  15    5.26    3.13
  -5   5  15   14.97    7.00
   5  -5  16   19.12    8.19
   5   5  16   30.10    9.01
  -5   5  16   39.52   10.54
   5   5  17    4.54    6.82
  -5   5  17   -0.52    4.81
   5  -5  17   -3.14    3.00
   5   5  18   25.81   10.48
  -5   5  18   15.67    7.01
   5  -5  18   13.98    5.92
   5   5  19    9.10    7.20
  -5   5  19   -0.54    2.45
   5  -5  19    9.63    3.37
   5   5  20    1.21    5.86
   5  -5  20   -2.55    7.15
  -5   5  20    7.45    7.43
   5   5  21   65.84   15.49
  -5   5  21   78.77   17.54
   5  -5  21   47.34   12.15
   5   5  22    3.47    4.45
   5  -5  22    8.49    8.17
  -5   5  22   14.65    6.36
   5   5  23   22.50    8.86
   5  -5  23   34.04   11.50
  -5   5  23   33.56   12.20
   5   5  24   38.72   12.46
   5  -5  24   26.89   11.33
  -5   5  24   14.41   11.41
   5   5  25   -1.76    3.86
   5  -5  25   10.58    8.65
  -5   5  25   -3.46    5.62
   5   5  26   12.61    7.28
   5  -5  26   24.83   11.58
  -5   5  26   17.83    8.44
   5   5  27   -1.53    6.12
   5  -5  27    4.87    6.43
  -5   5  27    0.77    3.37
   5   5  28    1.02    1.22
   5  -5  28   -3.41    5.87
  -5   5  28    2.35    2.16
   5  -6   0   -0.15    4.09
   5  -6   1  507.51   33.87
   5  -6  -1  520.42   34.60
   5  -6   2  213.85   21.94
   5  -6  -2  219.16   22.18
   5  -6   3  273.77   24.12
   5  -6  -3  250.72   24.03
   5  -6   4  102.30   14.78
   5   6   4  114.65   12.19
   5  -6   5  146.76   18.36
   5   6   5  136.56   14.23
   5  -6  -5  135.92   17.68
   5  -6  -6   10.44    5.17
   5   6   6   12.29    4.45
   5  -6   6    6.73    4.31
   5  -6   7   26.94    9.24
   5  -6  -7   15.88    6.30
   5   6   7   16.85    5.93
   5  -6  -8   55.66   11.28
   5  -6   8   45.44   10.17
   5   6   8   52.05    9.76
   5  -6  -9  239.68   24.32
   5   6   9  216.74   21.48
   5  -6   9  243.57   25.23
   5   6  10    3.02    2.81
   5  -6  10   12.81    7.41
   5   6  11   45.49   10.01
   5  -6  11   37.36   11.01
   5  -6  12  170.67   20.86
   5   6  12  136.70   17.85
   5   6  13   49.41   10.63
   5  -6  13   60.95   13.21
  -5   6  13   57.50   12.59
   5   6  14    8.77    5.26
   5  -6  14   15.35    7.16
  -5   6  14    2.35    4.34
   5  -6  15  160.82   21.99
  -5   6  15  168.57   21.74
   5   6  15  145.46   20.52
   5  -6  16    5.90    5.55
   5   6  16   -0.04    3.33
  -5   6  16   -0.09    1.29
   5  -6  17    1.49    3.55
   5   6  17    0.90    1.83
  -5   6  17    3.35    3.50
   5   6  18   -1.24    1.56
  -5   6  18    0.38    3.37
   5  -6  18   -2.22    2.73
   5   6  19   16.46    7.55
  -5   6  19   13.08    7.03
   5  -6  19    9.23    5.54
   5   6  20  165.97   22.97
   5  -6  20  153.33   23.31
  -5   6  20  161.95   24.24
   5   6  21    4.12    7.23
   5  -6  21    6.44    7.61
  -5   6  21    2.44    5.82
   5   6  22  119.42   19.30
   5  -6  22   94.41   18.98
  -5   6  22  128.78   21.32
   5   6  23    3.79    3.00
   5  -6  23   18.52    7.62
  -5   6  23   14.01    7.25
  -5   6  24   26.40    9.71
   5   6  24   18.23    9.31
   5  -6  24   17.44    7.31
   5   6  25    3.27    3.88
   5  -6  25    3.98    4.07
  -5   6  25    9.20    6.71
   5   6  26    3.24    5.50
   5  -6  26   10.35    9.14
  -5   6  26   14.22    9.32
   5   6  27   18.03   10.23
   5  -6  27   21.83    7.40
  -5   6  27   22.19    9.91
   5  -7   0    2.69    2.46
   5  -7   1   37.50   10.27
   5  -7  -1   41.50   11.34
   5  -7   2  393.07   30.61
   5  -7  -2  461.76   35.26
   5  -7  -3  189.60   21.98
   5  -7   3  170.07   20.22
   5  -7   4  130.44   18.13
   5  -7  -4  130.88   18.28
   5  -7  -5   47.56   11.13
   5   7   5   36.16    7.84
   5  -7   5   54.20   11.90
   5  -7  -6    2.51    2.27
   5   7   6    2.23    1.67
   5  -7   6    1.62    2.69
   5  -7  -7    2.00    3.80
   5  -7   7    0.69    1.75
   5   7   7    3.61    2.82
   5  -7   8   51.81   11.68
   5  -7  -8   40.15    9.89
   5   7   8   35.58    8.67
   5  -7  -9  177.32   21.29
   5   7   9  194.58   20.94
   5  -7   9  155.53   20.32
   5  -7 -10    2.22    2.53
   5  -7  10   10.59    6.72
   5   7  10    5.49    3.16
   5  -7  11   82.55   16.11
   5  -7 -11   67.66   14.08
   5   7  11   64.35   11.99
   5   7  12   24.83    8.70
   5  -7  12   36.33   10.60
   5   7  13   59.99   12.92
   5  -7  13   67.65   14.08
   5  -7  14   47.95   12.78
   5   7  14   92.84   16.76
   5   7  15   18.71    8.44
   5  -7  15   23.68   10.95
  -5   7  15    8.33    5.29
   5   7  16   17.81    9.39
   5  -7  16   13.51    6.03
  -5   7  16   11.09    6.14
   5   7  17   -0.09    4.61
   5  -7  17    6.20    7.03
  -5   7  17    6.36    3.35
   5  -7  18   -3.15    4.67
   5   7  18   -0.11    1.76
  -5   7  18    0.28    4.91
   5   7  19    7.61    5.41
  -5   7  19   -2.32    4.80
   5  -7  19    2.82    3.53
   5   7  20    0.46    3.34
  -5   7  20    2.41    4.51
   5  -7  20    1.67    2.78
   5   7  21    8.17    6.74
  -5   7  21    5.62    4.45
   5  -7  21    9.76    8.65
   5   7  22    2.38    6.63
  -5   7  22    3.83    2.91
   5  -7  22   10.02    7.56
   5   7  23   -1.64    6.28
   5  -7  23   10.83    5.66
  -5   7  23   -0.27    3.06
   5   7  24    4.95    5.86
   5  -7  24   18.15   10.98
  -5   7  24    8.27    5.13
   5   7  25    9.00    1.04
  -5   7  25   13.99    8.46
   5   7  26   11.02    4.31
   5  -7  26    2.27    3.24
  -5   7  26    8.69    6.16
   5  -8   0    0.77    3.94
   5  -8   1  627.55   41.20
   5  -8  -1  634.10   41.26
   5  -8   2  135.94   18.52
   5  -8  -2  131.89   19.19
   5  -8  -3   12.02    7.24
   5  -8   3    2.46    2.94
   5  -8   4   29.41    9.65
   5  -8  -4   19.71    7.92
   5  -8   5 1082.06   53.80
   5  -8  -5  965.49   51.25
   5   8   6   17.07    5.54
   5  -8  -6   21.63    7.97
   5  -8   6   21.85    7.94
   5  -8   7   -2.06    3.25
   5  -8  -7   -2.26    4.20
   5   8   7    7.06    2.73
   5  -8  -8   23.88    9.40
   5  -8   8   28.07   11.08
   5   8   8   36.22    8.70
   5  -8  -9  567.38   40.36
   5   8   9  578.42   37.21
   5  -8   9  559.78   40.51
   5  -8 -10   74.52   14.84
   5  -8  10   75.73   13.49
   5   8  10   93.71   15.04
   5  -8  11   41.89   12.10
   5   8  11   29.73    8.34
   5  -8 -11   21.98    9.02
   5  -8  12   34.77    8.36
   5  -8 -12   31.22   10.10
   5   8  12   51.54   12.67
   5  -8  13  158.49   22.24
   5   8  13  180.44   23.47
   5  -8  14   -3.05    4.19
   5   8  14   -0.86    2.27
   5  -8  15   -1.53    2.59
   5   8  15   10.46    5.74
   5  -8  16    2.78    6.29
   5   8  16    4.18    2.12
   5  -8  17  105.03   18.73
   5   8  17  113.73   19.73
   5   8  18    2.87    6.17
   5  -8  18   -1.22    4.11
  -5   8  18   -0.45    3.77
   5  -8  19  104.96   19.73
  -5   8  19   81.88   16.39
   5   8  19  109.48   19.58
   5   8  20    5.62    6.07
  -5   8  20    5.75    6.27
   5  -8  20    7.34    5.22
   5   8  21   53.20   15.81
  -5   8  21   11.86    6.57
   5  -8  21   33.75   11.16
   5   8  22   -2.23    4.62
  -5   8  22    1.04    5.39
   5  -8  22    6.08    1.28
   5   8  23   57.44   15.36
  -5   8  23   84.26   18.28
   5  -8  23   87.23   18.04
   5   8  24   -0.40    3.99
  -5   8  24   -4.85    6.27
   5  -8  24    0.14    1.12
   5   8  25    2.44    2.93
   5  -8  25    7.81    6.64
  -5   8  25   -0.29    2.41
   5  -9   0    3.37    4.33
   5  -9   1  285.41   28.88
   5  -9  -1  268.90   28.01
   5  -9   2    5.10    5.49
   5  -9  -2   12.12    7.60
   5  -9  -3    9.09    4.04
   5  -9   3    9.57    6.85
   5  -9   4   34.35   11.78
   5  -9  -4   46.04   12.63
   5  -9   5   40.88   10.11
   5  -9  -5   71.33   14.23
   5  -9   6  120.44   19.74
   5  -9  -6  126.23   19.33
   5  -9   7   -4.62    5.88
   5  -9  -7    0.82    5.62
   5  -9  -8    8.25    6.23
   5  -9   8   13.82    6.15
   5   9   8   17.57    7.05
   5  -9  -9   37.51    9.72
   5  -9   9   16.47    7.70
   5   9   9   36.86    9.98
   5  -9  10    5.72    5.52
   5  -9 -10   14.23    7.31
   5   9  10   14.37    7.27
   5  -9 -11   18.30    9.43
   5  -9  11   19.43    7.97
   5   9  11   24.15    8.51
   5  -9 -12   92.65   16.94
   5  -9  12  105.75   19.15
   5   9  12   74.73   14.53
   5  -9 -13    3.99    3.49
   5  -9  13    0.36    3.89
   5   9  13   -5.15    6.10
   5  -9  14   -0.02    1.25
   5  -9 -14   -2.09    4.31
   5   9  14    0.70    6.21
   5  -9  15   19.80    8.87
   5   9  15   10.30    5.47
   5  -9  16   38.35   11.84
   5   9  16   25.96    8.40
   5  -9  17    7.18    7.36
   5   9  17    5.21    3.73
   5  -9  18    3.47    3.85
   5   9  18    1.57    4.69
   5  -9  19    7.31    6.90
   5   9  19    5.18    7.72
   5  -9  20   26.41    9.33
   5   9  20   20.01    8.97
   5   9  21    0.84    2.92
   5  -9  21   -0.14    2.33
  -5   9  22   -1.86    3.06
   5  -9  22    1.40    4.39
   5   9  22   -0.23    2.53
  -5   9  23    9.89   10.60
   5  -9  23    5.86    3.01
   5   9  23   -0.64    3.90
  -5   9  24    3.92    0.67
   5  -9  24    0.89    4.68
   5   9  24    6.74    8.25
   5 -10   0   -2.48    3.47
   5 -10   1   57.37   12.96
   5 -10  -1   59.77   12.32
   5 -10   2  180.09   23.12
   5 -10  -2  127.67   19.28
   5 -10   3  139.26   19.78
   5 -10  -3  129.57   20.82
   5 -10   4  293.51   29.58
   5 -10  -4  286.50   30.29
   5 -10   5  188.32   23.44
   5 -10  -5  257.44   28.22
   5 -10   6  189.62   24.52
   5 -10  -6  181.47   23.18
   5 -10  -7    4.38    2.77
   5 -10   7   -2.39    2.18
   5 -10   8   24.60   10.83
   5 -10  -8   18.85    8.69
   5 -10  -9   10.21    7.26
   5 -10   9   -2.74    3.97
   5 -10 -10    0.25    2.97
   5 -10  10    6.02    2.92
   5  10  10    3.11    1.89
   5 -10  11   34.72    9.73
   5  10  11   24.52    8.08
   5 -10  12   27.52   10.89
   5  10  12   14.48    5.34
   5 -10 -12   29.97   12.31
   5 -10 -13   53.62   13.76
   5 -10  13   82.38   17.47
   5  10  13   52.65   12.01
   5 -10  14    1.53    1.20
   5 -10 -14   -2.13    5.02
   5  10  14   -4.06    4.55
   5 -10  15    0.33    3.81
   5 -10 -15    2.89    2.10
   5  10  15    6.45    5.50
   5 -10  16   64.31   15.62
   5 -10 -16   56.65   14.34
   5  10  16   38.64   12.90
   5 -10  17    7.79    7.32
   5 -10 -17    0.39    3.37
   5  10  17    7.02    5.36
   5 -10  18   -5.64    7.30
   5  10  18    1.13    4.03
   5 -10  19    2.60    4.45
   5  10  19    7.01    5.02
   5 -10  20   20.09    9.97
   5  10  20   26.07    8.73
   5 -10  21    2.00    5.99
   5  10  21    5.89    2.38
   5  10  22   21.26   10.88
   5 -10  22   28.90   10.81
   5 -11   0    2.55    2.54
   5 -11   1    1.59    1.06
   5 -11  -1   -2.28    2.46
   5 -11   2   90.93   16.50
   5 -11  -2   92.21   17.17
   5 -11   3   27.28    7.87
   5 -11  -3   23.97    8.57
   5 -11  -4    4.45    4.72
   5 -11   4    5.36    5.20
   5 -11   5    1.68    1.71
   5 -11  -5    4.61    6.67
   5 -11  -6    4.24    3.09
   5 -11   6    5.24    6.16
   5 -11  -7   65.58   15.48
   5 -11   7   36.56    9.84
   5 -11  -8   13.98    6.20
   5 -11   8   17.06    8.61
   5 -11  -9   44.33   11.46
   5 -11   9   65.15   15.47
   5 -11  10   22.78    9.58
   5 -11 -10   41.75   11.90
   5 -11 -11   20.14    8.67
   5 -11  11   39.15   11.09
   5 -11 -12   26.79    9.01
   5 -11  12   52.53   15.04
   5 -11  13    2.30    5.13
   5 -11 -13    9.97    8.93
   5 -11  14   -1.82    1.53
   5  11  14   -1.52    4.22
   5 -11 -14   -6.20    5.15
   5 -11 -15    7.73    6.51
   5 -11  15    4.34    6.50
   5  11  15    0.49    3.89
   5 -11  16   34.06   11.24
   5 -11 -16   21.63    9.94
   5  11  16   24.53    9.25
   5 -11  17    6.90    0.82
   5  11  17    8.49    8.20
   5 -11 -17    0.16    2.13
   5 -11  18   -2.84    5.09
   5 -11 -18    5.07    6.88
   5  11  18    1.40    2.37
   5 -11  19    3.22    3.93
   5  11  19    0.58    1.74
   5 -11  20   -0.74    6.72
   5 -11 -20    9.30    5.92
   5  11  20   -2.38    3.47
   5 -11  21   -6.39    5.27
   5  11  21   -0.70    4.92
   5 -12   0    1.36    4.93
   5 -12   1   37.76   11.27
   5 -12  -1   27.03   11.06
   5 -12   2   21.45    9.36
   5 -12  -2   38.39   10.32
   5 -12   3   -0.02    5.41
   5 -12  -3    1.56    6.09
   5 -12   4    3.80    4.46
   5 -12  -4    5.92    7.02
   5 -12   5   21.90    9.26
   5 -12  -5   41.54   12.64
   5 -12  -6    5.45    5.00
   5 -12   6    3.46    3.53
   5 -12  -7    2.14    3.10
   5 -12   7    1.08    5.82
   5 -12  -8   17.28    5.96
   5 -12   8   24.24    8.87
   5 -12  -9    2.86    3.09
   5 -12   9   -1.22    3.48
   5 -12  10   36.12   11.55
   5 -12 -10    4.47    4.83
   5 -12  11   -1.02    1.25
   5 -12 -11    0.03    1.83
   5 -12 -12   50.13   13.54
   5 -12  12   63.81   15.48
   5 -12 -13   43.18   11.04
   5 -12  13   12.78    7.39
   5 -12  14    6.64    5.71
   5 -12 -14   -0.79    5.35
   5 -12  15   -2.11    4.26
   5 -12 -15   -8.52    8.37
   5 -12  16    7.76    6.75
   5 -12 -16   19.71    9.58
   5 -12 -17   20.13    9.21
   5 -12  17   15.83    9.09
   5 -12  18    6.31    7.91
   5 -12 -18    7.25    9.16
   5 -13   0   -1.51    4.45
   5 -13   1   31.24   11.85
   5 -13  -1   11.89    7.93
   5 -13   2   -0.31    1.38
   5 -13  -2   23.40   12.54
   5 -13   3   12.67    6.99
   5 -13  -3   19.10    8.35
   5 -13   4    2.81    2.22
   5 -13  -4   11.65    6.53
   5 -13  -5    1.00    6.64
   5 -13   5    1.16    4.01
   5 -13  -6    1.71    3.16
   5 -13   6    7.50    4.87
   5 -13  -7    1.34    4.18
   5 -13   7   -3.60    2.43
   5 -13  -8    7.14    5.71
   5 -13   8    6.21    5.17
   5 -13  -9   17.75    8.12
   5 -13   9   26.66   10.04
   5 -13 -10    9.14    8.20
   5 -13  10    5.17    6.52
   5 -13  11   -1.09    1.19
   5 -13 -11    8.61    7.53
   5 -13  12   19.11    8.29
   5 -13 -12   17.04    6.02
   5 -13  13    6.78    4.79
   5 -13 -13   -1.73    5.25
   5 -13 -14   11.66    9.54
   5 -13  14   34.90   11.81
   5 -13 -15    8.18    5.15
   5 -13  15    4.61    3.77
   5 -13  16   -2.48    3.08
   5 -13 -16    4.38    8.33
   5 -14   0   -4.44    4.81
   5 -14   1    9.83    7.92
   5 -14  -1   18.64   10.63
   5 -14   2   -0.78    3.84
   5 -14  -2   23.68    9.05
   5 -14   3   -0.78    2.84
   5 -14  -3    0.08    4.80
   5 -14   4   10.69    6.39
   5 -14  -4   -0.49    4.88
   5 -14  -5   31.49    9.93
   5 -14   5   27.93   10.05
   5 -14   6    0.76    3.16
   5 -14  -6   -0.41    1.40
   5 -14  -7   10.11    6.51
   5 -14   7    0.24    3.58
   5 -14  -8    3.08    3.32
   5 -14   8    6.73    8.29
   5 -14  -9    8.63    7.33
   5 -14   9    7.57    7.63
   5 -14 -10    1.93    2.57
   5 -14  10   13.98    5.76
   5 -14 -11   -1.70    2.37
   5 -14  11   -3.77    7.35
   5 -14  12   -3.06    2.58
   5 -14 -12   10.35    8.62
   5 -15   0    3.35    5.08
   5 -15   1    6.17    7.15
   5 -15  -1    4.18    4.98
   5 -15   2    6.11    3.34
   5 -15  -2    6.61    6.52
   5 -15   3   -0.35    2.91
   5 -15  -3    7.85    6.78
   5 -15  -4    7.73    6.41
   5 -15   4    4.97    3.05
   5 -15  -5    5.47    3.68
   5 -15   5   -0.28    1.34
   5 -15  -6   10.83    6.73
   5 -15   6    5.99    6.05
   6   0   0 4460.80   65.85
   6   0   1    0.14    1.88
   6   0  -1    2.34    1.96
   6   0  -2  170.50   12.36
   6   0   2  164.97   13.56
   6   0   3    1.58    2.21
   6   0  -3    0.24    1.13
   6   0  -4  813.58   28.04
   6   0   4  747.28   32.12
   6   0  -5   -0.01    0.40
   6   0   5   -0.59    2.48
   6   0   6  222.64   18.87
   6   0  -6  196.09   14.80
   6   0  -7    1.69    1.40
   6   0   7    2.61    2.05
   6   0   8 1752.54   56.77
   6   0  -8 1719.59   45.92
   6   0   9   -1.85    4.06
   6   0  10 1747.40   61.42
  -6   0  10 1653.48   49.78
   6   0  11   -1.58    3.14
  -6   0  11    5.67    4.11
   6   0  12   30.21    8.96
  -6   0  12   37.28    8.12
   6   0  13    5.89    2.91
  -6   0  13    1.01    3.03
   6   0  14  729.78   44.18
  -6   0  14  711.34   39.25
   6   0  15    1.88    1.53
   6   0  16   11.93    4.52
   6   0  17    2.36    2.81
   6   0  18   39.27   11.08
   6   0  19    2.76    3.51
   6   0  20   13.00    3.71
   6   0  21   -0.64    5.08
   6   0  22   80.40   17.13
   6   0  23    5.70    6.19
   6   0  24   64.81   16.08
   6   0  25   -3.10    4.34
   6   0  26   72.60   17.67
   6   0  27    4.44    7.28
   6   0  28    3.62    3.81
   6   0  29   -2.84    3.83
   6  -1   0   32.20    6.28
   6   1   0   37.65    5.05
   6  -1  -1   44.45    7.31
   6   1   1   33.47    5.34
   6   1  -1   39.39    4.91
   6  -1   1   49.20    8.03
   6   1  -2    1.37    1.39
   6  -1  -2   -0.17    0.16
   6  -1   2    1.74    3.19
   6   1   2   -0.07    0.55
   6  -1   3    9.67    4.08
   6   1  -3    5.05    1.59
   6  -1  -3    9.09    3.74
   6   1   3    3.45    1.11
   6   1  -4  264.66   11.67
   6   1   4  305.49   19.88
   6  -1  -4  249.43   18.16
   6  -1   4  268.24   19.84
   6  -1   5    2.41    1.76
   6  -1  -5    3.48    3.18
   6   1  -5    2.69    1.23
   6   1   5    5.77    3.78
   6   1   6  193.96   17.51
   6  -1   6  201.79   19.00
   6  -1  -6  182.49   16.03
   6  -1  -7   36.31    7.13
   6   1   7   44.33    8.66
   6  -1   7   44.56    8.82
   6   1  -7   33.08    5.12
   6   1   8   24.65    6.54
   6   1  -8   18.18    4.18
   6  -1  -8   12.76    4.70
   6  -1   8   15.93    6.14
   6   1   9   20.13    6.01
   6  -1   9   14.36    6.30
   6   1  10   -1.31    2.98
  -6   1  10    0.66    1.93
   6  -1  10   -1.71    3.07
   6   1  11    1.94    2.92
  -6   1  11    1.90    0.36
   6  -1  11    0.09    0.90
   6   1  12   37.18    9.93
   6  -1  12   41.55   10.51
  -6   1  12   45.81    9.01
   6   1  13  350.50   29.43
   6  -1  13  323.58   29.04
  -6   1  13  376.27   28.09
   6   1  14  345.67   29.90
   6  -1  14  308.93   29.35
  -6   1  14  306.13   26.02
   6   1  15   88.10   15.49
   6  -1  15   54.61   12.53
  -6   1  15   94.32   14.68
   6   1  16   10.95    7.05
   6  -1  16    3.32    2.55
  -6   1  16    2.39    5.56
   6   1  17   24.44    8.51
   6  -1  17   31.84    8.66
  -6   1  17   39.28   10.53
   6   1  18    6.03    1.26
  -6   1  18    4.20    3.01
   6   1  19  137.37   21.29
   6  -1  19  164.64   22.00
  -6   1  19  141.46   21.07
   6   1  20    3.59    7.07
   6  -1  20    0.02    2.73
   6   1  21   93.54   18.77
   6  -1  21   93.62   17.41
   6   1  22    8.57    8.83
   6  -1  22    2.22    3.10
   6   1  23   10.07    8.86
   6  -1  23    4.74    5.93
   6   1  24   11.99    8.20
   6  -1  24    7.82    4.43
   6   1  25   16.34    7.26
   6  -1  25    6.40    6.76
   6   1  26    9.35    7.22
   6  -1  26    4.50    3.99
   6   1  27   19.78   11.14
   6  -1  27    8.04    4.36
   6   1  28   -7.58    8.61
   6  -1  28   -5.78    6.01
   6   2   0  197.73    8.63
   6  -2   0  244.52   18.83
   6  -2   1  142.96   15.12
   6   2   1  162.99   10.13
   6  -2  -1  158.32   14.74
   6   2   2   10.33    3.07
   6  -2  -2   13.30    4.44
   6  -2   2   12.10    4.79
   6   2   3  426.68   20.24
   6  -2  -3  469.01   26.89
   6   2   4  649.29   27.55
   6  -2   4  712.00   35.33
   6   2   5   68.99    9.41
   6  -2   5   61.33    9.67
   6  -2  -5   61.73   10.13
   6   2   6  332.21   22.03
   6  -2   6  366.56   25.74
   6  -2  -6  363.50   24.42
   6  -2  -7  529.42   29.96
   6   2   7  553.26   29.90
   6   2  -7  514.44   13.71
   6   2   8   53.79   10.08
   6   2  -8   49.91    5.29
   6  -2   8   62.25   11.16
   6  -2   9    6.09    3.00
   6   2   9    5.40    4.67
   6   2  10  104.13   14.39
   6  -2  10  127.83   17.49
   6   2  11  767.09   41.58
  -6   2  11  735.85   39.61
   6   2  12   67.33   12.46
   6  -2  12   74.81   13.69
  -6   2  12   80.83   13.13
   6   2  13  347.66   29.78
   6  -2  13  460.98   34.64
   6   2  14   22.52    8.75
   6  -2  14   36.59   10.70
  -6   2  14   15.77    8.48
   6   2  15   13.45    8.25
   6  -2  15    0.49    2.04
  -6   2  15   14.11    6.74
   6   2  16   57.05   13.28
   6  -2  16   31.22   10.34
  -6   2  16   50.29   11.42
   6   2  17   62.51   12.86
   6  -2  17   46.07   12.54
   6  -2  18   88.58   16.60
   6   2  18   65.21   13.93
  -6   2  18   74.58   15.07
   6   2  19   55.57   14.02
   6  -2  19   41.86   12.02
  -6   2  19   38.07    9.91
   6   2  20   -2.42    3.00
   6  -2  20    1.13    3.76
  -6   2  20   -1.03    5.39
   6   2  21   89.60   18.26
   6  -2  21   74.78   16.18
  -6   2  21   71.42   15.45
   6   2  22   32.06   10.91
   6  -2  22   22.27    9.61
  -6   2  22   25.46   13.10
   6   2  23    1.58    2.61
   6  -2  23   13.28    8.71
   6   2  24    2.97    4.44
   6  -2  24    7.00    6.42
   6   2  25   31.93   11.25
   6  -2  25   81.84   16.74
   6   2  26    2.94    7.82
   6  -2  26    4.45    7.04
   6   2  27    1.09    1.27
   6  -2  27   11.45    6.84
   6   2  28    2.56    1.43
   6  -2  28   12.96    5.29
   6  -3   0    0.76    1.32
   6  -3   1   39.44    7.80
   6  -3  -1   26.35    7.19
   6   3   2   12.39    2.49
   6  -3  -2   10.19    4.26
   6  -3   2   11.46    5.61
   6   3   3    0.16    0.17
   6  -3   3    1.78    2.51
   6  -3  -3   -2.10    3.99
   6  -3  -4  529.67   31.36
   6  -3   4  524.17   31.80
   6   3   4  624.01   25.74
   6  -3  -5   48.78    9.87
   6  -3   5   67.94   12.15
   6   3   5   62.62    8.58
   6   3   6    3.09    2.73
   6  -3   6   10.75    4.48
   6  -3  -6    3.86    2.49
   6   3   7  208.21   18.46
   6  -3   7  189.40   19.65
   6   3   8  125.25   15.03
   6  -3  -8  106.49   13.92
   6  -3   8  107.24   15.25
   6  -3   9   -2.74    0.18
   6   3   9   -1.29    1.71
   6   3  10  102.95   14.54
   6  -3  10  119.35   16.49
   6  -3  11    5.36    3.39
   6   3  11   -0.87    2.43
   6   3  12  216.29   22.78
   6  -3  12  186.83   21.67
  -6   3  12  201.31   22.37
   6   3  13   16.74    7.21
  -6   3  13   18.46    7.75
   6  -3  13    8.49    5.72
   6   3  14   32.26    8.21
  -6   3  14   25.21    9.23
   6  -3  14   30.50    9.69
   6   3  15   11.51    6.12
  -6   3  15   12.08    4.63
   6  -3  15   13.83    6.16
   6   3  16  167.11   22.15
   6  -3  16  191.40   23.89
  -6   3  16  208.54   24.37
   6   3  17   14.41    6.98
   6  -3  17   21.82    9.42
  -6   3  17    6.98    6.15
   6   3  18  151.05   22.00
   6  -3  18   96.05   17.30
   6  -3  19   94.91   17.68
   6   3  19   70.15   15.61
  -6   3  19   66.50   14.61
   6   3  20    0.65    7.42
   6  -3  20   13.02    7.25
  -6   3  20   15.88    8.15
   6   3  21    3.22    5.89
   6  -3  21    7.69    6.96
  -6   3  21    2.77    4.62
   6   3  22   43.36   12.78
   6  -3  22   23.18   10.90
  -6   3  22   42.38   13.65
   6   3  23   18.04    9.04
   6  -3  23   14.03    8.24
  -6   3  23   15.40    7.06
   6   3  24    7.56    4.86
   6  -3  24    6.56    3.94
  -6   3  24    1.26    5.73
   6   3  25    2.81    2.09
   6  -3  25    0.76    5.56
   6   3  26   -2.32    5.44
   6  -3  26   -1.69    8.72
   6   3  27   -6.31    8.31
   6  -3  27   -3.20    5.81
   6   3  28    7.40    7.57
   6  -3  28    9.96    7.94
   6  -4   0   91.93   13.18
   6  -4   1  106.66   13.96
   6  -4  -1  112.51   15.06
   6  -4   2    7.39    2.41
   6  -4  -2    5.65    4.02
   6   4   2    3.81    2.06
   6  -4   3   81.29   13.47
   6  -4  -3   81.49   13.11
   6   4   3   66.99    7.58
   6   4   4   13.15    2.87
   6  -4  -4   25.42    7.66
   6  -4   4   16.96    5.92
   6   4   5    3.84    1.75
   6  -4  -5   12.71    5.58
   6  -4   5   11.94    6.22
   6   4   6    3.67    2.48
   6  -4   6   -0.60    1.17
   6  -4  -6    1.98    0.17
   6  -4  -7  249.98   22.83
   6  -4   7  248.89   24.06
   6   4   7  261.70   21.19
   6  -4  -8  611.15   36.49
   6  -4   8  557.43   36.03
   6  -4  -9  114.43   16.11
   6  -4   9  108.24   15.95
   6   4   9  106.16   15.10
   6  -4  10  202.44   22.86
   6  -4 -10  225.61   23.38
   6   4  10  248.45   22.89
   6  -4  11   11.27    6.09
   6   4  11   16.34    6.74
   6  -4  12   20.59    7.08
   6   4  12    9.58    5.20
   6  -4  13   33.40    9.25
   6   4  13   24.26    9.19
  -6   4  13   43.87   10.39
   6  -4  14   23.00    7.22
  -6   4  14   24.14    7.59
   6  -4  15  121.18   19.79
  -6   4  15  155.75   20.20
   6   4  15  131.46   19.25
   6   4  16   45.14   11.96
  -6   4  16   38.08   10.37
   6  -4  16   46.71   11.84
   6   4  17   49.05   10.24
  -6   4  17   59.66   11.54
   6  -4  17   56.18   13.42
   6  -4  18   90.53   16.72
  -6   4  18  109.80   18.55
   6   4  18  114.37   18.47
   6   4  19    5.06    2.99
   6  -4  19   25.45    9.49
  -6   4  19   21.69    8.75
   6   4  20    3.59    2.05
   6  -4  20   -4.04    6.67
  -6   4  20   -2.99    0.40
   6   4  21   18.86    9.28
   6  -4  21   20.78   10.25
  -6   4  21   36.18   11.76
   6   4  22   20.24   10.07
   6  -4  22   39.93   11.59
  -6   4  22   23.09    9.98
   6   4  23   15.67    5.95
   6  -4  23   25.59   11.00
  -6   4  23   24.32    9.63
   6   4  24   -4.86    5.21
   6  -4  24    5.01    6.22
  -6   4  24    0.03    4.23
   6   4  25   14.21    8.16
   6  -4  25   21.26    9.93
  -6   4  25   19.27    7.54
   6   4  26   12.65    6.29
   6  -4  26    8.47    4.60
  -6   4  26   11.60   10.09
   6   4  27   10.44    8.38
   6  -4  27    9.24    6.40
   6  -5   0    5.40    3.48
   6  -5   1  182.56   19.46
   6  -5  -1  154.52   18.95
   6  -5   2   24.61    7.20
   6  -5  -2   35.08    8.87
   6   5   3    2.55    1.64
   6  -5   3   -0.57    2.71
   6  -5  -3   -2.03    4.59
   6  -5  -4   -1.40    3.13
   6  -5   4   -1.37    2.63
   6   5   4    2.46    1.91
   6  -5   5  187.82   20.87
   6   5   5  191.27   15.65
   6  -5  -5  167.02   19.71
   6   5   6   89.52   12.09
   6  -5  -6   96.65   14.67
   6  -5   6  103.80   15.60
   6  -5  -7  110.97   16.07
   6   5   7  155.20   15.65
   6  -5   7  135.90   18.31
   6   5   8   11.99    4.67
   6  -5   8   13.39    5.18
   6  -5  -8   11.54    6.43
   6  -5  -9  128.86   17.94
   6  -5   9  114.56   16.44
   6   5   9   78.81   12.56
   6   5  10    5.76    4.06
   6  -5 -10    7.79    2.46
   6   5  11    3.35    2.47
   6  -5  11    8.11    4.67
   6  -5 -11    7.77    5.57
   6   5  12   25.01    7.81
   6  -5  12   23.89    8.64
   6  -5  13  133.21   19.93
   6   5  13  126.10   17.98
   6  -5  14   45.69   12.33
   6   5  14   34.22   10.47
   6  -5  15   18.93    7.33
   6   5  15   18.88    7.27
  -6   5  15   15.90    4.58
   6  -5  16   -1.02    3.30
   6   5  16    4.36    4.23
  -6   5  16    7.75    4.93
   6   5  17   -4.22    2.73
   6  -5  17    0.65    4.05
   6   5  18   77.27   16.44
   6  -5  18   94.16   18.34
  -6   5  18   89.12   17.28
  -6   5  19   -1.78    4.80
   6  -5  19   15.32    5.62
   6   5  20   -3.65    5.75
   6  -5  20   -3.06    3.85
  -6   5  20    3.40   10.33
   6   5  21   23.47    8.06
   6  -5  21   53.30   14.01
  -6   5  21   29.20   12.05
   6   5  22    2.30    2.59
   6  -5  22    1.15    1.97
  -6   5  22   -5.23    7.80
   6   5  23   22.08   10.19
   6  -5  23   16.36    8.73
  -6   5  23    7.64    7.67
   6   5  24   38.90   11.12
   6  -5  24   57.05   15.47
  -6   5  24   26.21   10.54
   6   5  25   21.62   10.59
   6  -5  25    4.65    9.91
  -6   5  25   14.44    5.46
   6   5  26   -1.67    4.67
   6  -5  26   -1.17    5.74
  -6   5  26   -6.19    7.18
   6   5  27   -3.84    2.44
   6  -5  27   -4.84    5.16
  -6   5  27   -3.25    0.96
   6  -6   0    4.64    3.30
   6  -6   1  128.56   17.72
   6  -6  -1  133.29   18.69
   6  -6   2    5.27    2.70
   6  -6  -2   16.96    6.38
   6  -6   3   15.99    7.12
   6  -6  -3   10.65    5.36
   6  -6   4  677.20   41.68
   6  -6  -4  557.78   38.12
   6  -6   5   86.24   15.52
   6   6   5   81.02   10.90
   6  -6  -5   81.95   13.60
   6  -6  -6   31.42    9.07
   6  -6   6   36.06   10.06
   6   6   6   42.23    8.04
   6   6   7  164.77   17.41
   6  -6   7  190.17   21.40
   6  -6  -7  205.93   23.04
   6  -6  -8   10.78    7.57
   6  -6   8   12.53    6.75
   6   6   8   17.86    6.22
   6   6   9    1.30    3.02
   6  -6   9    8.84    5.15
   6  -6  -9    8.00    5.03
   6  -6 -10   38.48   10.76
   6  -6  10   47.36   12.73
   6   6  10   55.50   10.90
   6  -6 -11  190.86   22.37
   6  -6  11  178.93   23.01
   6   6  11  195.68   21.32
   6  -6  12   81.57   15.83
   6   6  12   87.45   15.16
   6  -6 -12  103.47   17.19
   6   6  13    9.41    5.33
   6  -6  13   21.93    8.18
   6  -6  14  303.19   30.58
   6   6  14  223.01   24.47
   6  -6  15   75.64   15.91
   6   6  15  107.79   17.79
   6  -6  16   18.03    5.78
   6   6  16    7.00    1.09
   6  -6  17   29.94    9.38
   6   6  17   18.28    6.28
  -6   6  17   13.78    5.08
   6   6  18   41.28   11.18
  -6   6  18   44.71   11.35
   6   6  19   21.53    7.59
  -6   6  19   12.64    6.23
   6  -6  19   14.15    7.82
   6   6  20   20.89    6.67
  -6   6  20    7.53    3.08
   6  -6  20    6.76    7.17
   6   6  21   15.24    7.58
  -6   6  21   22.37   11.77
   6  -6  21   14.44    8.85
   6   6  22   21.20    9.44
   6  -6  22   45.65   12.42
  -6   6  22   40.16   12.80
   6   6  23   13.49    6.16
   6  -6  23   14.12    4.60
  -6   6  23   24.27   10.26
   6   6  24   58.34   16.69
   6  -6  24   29.05   14.02
  -6   6  24   39.08   13.26
   6   6  25   45.27   13.52
   6  -6  25   25.34   10.47
  -6   6  25   24.84    9.54
   6   6  26   22.12   10.49
   6  -6  26   24.56   10.02
  -6   6  26   24.42   11.26
   6  -7   0  178.12   21.70
   6  -7   1   86.05   15.55
   6  -7  -1   77.03   13.44
   6  -7   2  223.06   23.20
   6  -7  -2  253.59   26.37
   6  -7   3   74.76   14.29
   6  -7  -3   90.34   15.99
   6  -7  -4   -1.88    2.48
   6  -7   4   -0.96    3.24
   6  -7  -5   30.20    8.74
   6  -7   5   31.96    9.22
   6  -7  -6    6.74    6.49
   6  -7   6   -2.09    4.41
   6  -7   7    6.93    6.94
   6  -7  -7    6.40    4.55
   6  -7  -8    2.51    2.26
   6  -7   8   -1.54    3.85
   6   7   8    2.35    3.39
   6  -7  -9    4.36    4.26
   6  -7   9    0.72    5.13
   6   7   9    2.89    2.85
   6  -7  10   54.40   13.34
   6  -7 -10   25.69    9.66
   6   7  10   50.42   10.96
   6  -7 -11    1.15    4.31
   6  -7  11    0.42    6.06
   6   7  11    0.89    4.20
   6   7  12    7.68    5.27
   6  -7  12   11.35    5.92
   6  -7 -12   25.43    9.02
   6   7  13    7.84    2.61
   6  -7 -13   11.64    7.42
   6  -7  13    6.58    6.57
   6   7  14   28.87    7.61
   6  -7  14   37.44   11.13
   6   7  15    9.31    4.56
   6  -7  15   10.00    5.93
   6   7  16    3.04    3.50
   6  -7  16    1.05    3.42
   6   7  17    0.81    1.20
   6  -7  17   30.25    9.40
   6  -7  18   31.73   11.24
   6   7  18   26.29    9.61
   6   7  19    3.25    2.49
  -6   7  19    4.07    3.78
   6  -7  19   -3.03    5.89
   6   7  20    6.07    4.20
  -6   7  20    1.76    1.84
   6  -7  20    3.49    6.47
   6   7  21   -3.99    4.89
  -6   7  21   -4.46    4.29
   6  -7  21    0.46    3.77
   6   7  22   10.72    4.95
  -6   7  22    8.26    4.36
   6  -7  22   14.95    8.07
  -6   7  23    4.45    1.21
   6  -7  23   -1.01    3.14
   6   7  24    1.95    5.58
   6  -7  24    0.03    4.49
  -6   7  24   -3.90    5.14
   6   7  25    2.16    4.60
   6  -7  25    3.85    4.26
  -6   7  25   13.34    9.46
   6  -8   0   14.78    7.50
   6  -8   1    7.64    6.12
   6  -8  -1   10.04    5.40
   6  -8   2   37.88   11.04
   6  -8  -2   34.18   10.91
   6  -8   3  165.67   21.15
   6  -8  -3  157.21   21.76
   6  -8  -4   65.93   12.79
   6  -8   4   59.50   13.21
   6  -8   5  214.14   25.24
   6  -8  -5  125.42   19.48
   6  -8  -6   -0.43    3.13
   6  -8   6   -7.27    7.03
   6  -8  -7  255.81   27.45
   6  -8   7  304.58   29.93
   6  -8   8    3.25    3.38
   6  -8  -8    1.70    1.30
   6  -8  -9   19.53    8.95
   6  -8   9   12.26    6.84
   6  -8 -10    8.17    4.61
   6  -8  10   10.36    2.80
   6  -8 -11  147.60   21.35
   6   8  11  131.55   18.75
   6  -8  11  129.36   20.51
   6  -8 -12    5.62    5.95
   6  -8  12    2.07    2.23
   6   8  12   14.79    4.80
   6  -8  13    2.14    2.48
   6  -8 -13    1.27    4.29
   6   8  13    0.41    1.06
   6  -8  14    5.45    5.08
   6   8  14    5.54    0.52
   6  -8 -15  276.62   30.62
   6  -8  15  295.47   31.73
   6   8  15  308.54   31.96
   6  -8  16    8.07    7.51
   6   8  16    2.72    4.32
   6   8  17   91.36   17.30
   6  -8  17  104.18   18.27
   6   8  18   -2.50    4.24
   6  -8  18    2.93    0.42
   6   8  19   72.88   17.22
   6  -8  19   49.67   13.94
   6   8  20    7.48    3.17
   6  -8  20   11.70    5.62
   6   8  21   67.07   17.28
   6  -8  21   70.94   16.04
  -6   8  22   -0.03    0.34
   6  -8  22    5.10    2.70
   6   8  23   26.40   11.74
  -6   8  23   34.26   14.54
   6  -8  23   18.83    8.80
   6   8  24   -1.40    4.77
  -6   8  24    4.86    5.90
   6  -8  24   -2.05    4.99
   6  -9   0   64.72   13.71
   6  -9   1    8.83    4.48
   6  -9  -1    9.80    4.94
   6  -9   2   -1.90    3.20
   6  -9  -2    0.98    4.56
   6  -9   3   11.22    6.86
   6  -9  -3    3.84    2.08
   6  -9  -4    3.35    1.37
   6  -9   4    0.84    0.60
   6  -9   5  114.90   18.75
   6  -9  -5  152.57   21.83
   6  -9  -6   32.49   10.77
   6  -9   6   24.21    8.79
   6  -9  -7    0.70    3.70
   6  -9   7   -3.41    0.36
   6  -9   8   30.57    9.16
   6  -9  -8   29.06    9.86
   6  -9   9   13.37    8.12
   6  -9  -9    8.84    4.27
   6  -9 -10   10.41    5.55
   6  -9  10   11.83    7.19
   6  -9 -11    7.71    6.37
   6  -9  11    4.76    4.99
   6  -9  12    5.64    2.60
   6  -9 -12    8.95    6.01
   6  -9  13   14.18    9.72
   6  -9 -13    2.79    1.86
   6  -9  14   12.43    4.90
   6  -9 -14   16.02    6.56
   6  -9  15    3.57    6.71
   6  -9 -15    5.85    4.65
   6  -9  16    5.89    5.77
   6  -9 -16   -1.85    6.03
   6  -9  17    7.06    5.57
   6  -9 -17    1.28    2.55
   6   9  17   10.86    7.31
   6  -9  18    2.70    4.64
   6  -9 -18   -2.68    4.72
   6   9  18   -3.41    6.52
   6  -9  19   -1.34    6.63
   6   9  19   -5.47    4.75
   6  -9  20   -3.97    6.65
   6   9  20   24.98    9.90
   6   9  21   17.34    9.61
   6  -9  21   -2.05    4.01
   6  -9  22    7.34    6.84
   6   9  22   15.11    8.25
   6  -9  23   -1.88    2.34
   6   9  23   -2.69    4.08
   6 -10   0   97.84   18.10
   6 -10   1    9.57    3.74
   6 -10  -1    8.05    6.43
   6 -10   2    1.95    1.06
   6 -10  -2    4.20    0.27
   6 -10   3   38.80   10.83
   6 -10  -3   36.99   11.30
   6 -10   4  111.51   17.34
   6 -10  -4  121.59   20.28
   6 -10  -5   -2.06    0.87
   6 -10   5    5.67    6.39
   6 -10  -6   16.96    5.14
   6 -10   6   29.17    9.61
   6 -10  -7   11.48    8.00
   6 -10   7    9.04    5.91
   6 -10  -8   60.26   13.27
   6 -10   8  128.15   20.75
   6 -10   9    2.12    5.58
   6 -10  -9   -1.17    4.00
   6 -10  10   47.17   12.49
   6 -10 -10   37.74   11.06
   6 -10 -11   74.01   16.16
   6 -10  11   65.81   15.95
   6 -10 -12   45.82   13.34
   6 -10  12   51.43   13.44
   6 -10  13    2.41    7.02
   6 -10 -13   -1.39    0.96
   6 -10 -14   98.85   18.40
   6 -10  14   85.36   17.36
   6 -10 -15   19.47    7.53
   6 -10  15   34.17   11.39
   6 -10  16    5.00    2.74
   6 -10 -16    5.07    2.58
   6 -10  17   -1.59    5.76
   6 -10 -17    9.86    5.87
   6 -10 -18   70.85   15.48
   6 -10  18   64.81   16.42
   6 -10  19   25.68   11.22
   6 -10 -19    8.69    3.93
   6 -10  20   -3.99    5.10
   6 -10 -20    4.22    4.31
   6 -10 -21   52.91   14.23
   6 -10  21   43.63   13.34
   6 -11   0   10.77    5.76
   6 -11   1   10.89    4.62
   6 -11  -1   13.15    7.29
   6 -11   2   20.59    7.89
   6 -11  -2   19.08    6.13
   6 -11   3   24.56    9.20
   6 -11  -3   54.00   13.27
   6 -11   4    3.10    0.39
   6 -11  -4    2.37    3.92
   6 -11   5    3.56    5.76
   6 -11  -5    8.57    8.24
   6 -11  -6    1.39    1.95
   6 -11   6   -3.09    6.71
   6 -11  -7   -3.73    1.19
   6 -11   7   15.00    8.94
   6 -11  -8    6.53    3.51
   6 -11   8    3.72    3.86
   6 -11  -9    6.66    6.34
   6 -11   9   15.03    8.66
   6 -11  10    5.26    2.79
   6 -11 -10   -1.31    4.72
   6 -11  11    0.21    0.87
   6 -11 -11   10.62    5.66
   6 -11  12   14.13   10.88
   6 -11 -12    6.11    4.97
   6 -11 -13   15.90    7.57
   6 -11  13   28.97   11.79
   6 -11 -14    3.27    5.82
   6 -11  14    8.93    7.28
   6 -11  15    0.28    2.11
   6 -11 -15    5.90    6.93
   6 -11  16   14.19    9.07
   6 -11 -16   10.84    6.76
   6 -11  17   18.99    8.28
   6 -11 -17   11.17    5.43
   6 -11  18    7.79    5.00
   6 -11 -18    7.07    3.13
   6 -11  19    0.74    3.09
   6 -11 -19   -1.09    4.06
   6 -12   0   25.91    9.39
   6 -12   1   25.49    8.75
   6 -12  -1   33.99   11.24
   6 -12   2   31.06    9.63
   6 -12  -2   41.31   10.25
   6 -12   3   30.68   10.69
   6 -12  -3   17.23    9.80
   6 -12   4   20.76    8.92
   6 -12  -4    8.71    6.30
   6 -12  -5   20.20    8.80
   6 -12   5    2.70    5.97
   6 -12   6    9.28    8.73
   6 -12  -6    0.92    4.09
   6 -12  -7   17.93    7.75
   6 -12   7   -2.62    4.66
   6 -12  -8    7.40    5.29
   6 -12   8   17.76   10.95
   6 -12  -9    6.76    6.71
   6 -12   9   12.27    8.33
   6 -12 -10    9.48    8.46
   6 -12  10    4.28    4.45
   6 -12  11   42.50   13.61
   6 -12 -11   50.95   13.41
   6 -12  12    5.17    6.49
   6 -12 -12   -4.27    6.82
   6 -12  13   -2.64    5.87
   6 -12 -13    5.53    5.71
   6 -12  14    7.67    6.71
   6 -12 -14   13.04    6.65
   6 -12 -15   -4.49    5.43
   6 -12  15   -1.54    6.24
   6 -12  16   23.16   11.13
   6 -12 -16   16.33    8.91
   6 -12  17    4.37    5.16
   6 -12 -17    9.72    6.89
   6 -13   0    3.72    2.57
   6 -13   1    0.42    6.86
   6 -13  -1    3.78    5.36
   6 -13   2    9.46    5.81
   6 -13  -2   12.53    8.15
   6 -13   3    6.61    5.19
   6 -13  -3   -0.86    5.09
   6 -13  -4   -1.06    2.63
   6 -13   4    4.13    4.84
   6 -13  -5    5.06    3.92
   6 -13   5   -0.42    3.29
   6 -13   6   -2.50    4.11
   6 -13  -6   -2.35    4.37
   6 -13   7   11.20    8.29
   6 -13  -7   12.69    7.73
   6 -13  -8   -2.21    6.69
   6 -13   8   -1.01    3.70
   6 -13  -9   -2.03    4.88
   6 -13   9    1.39    1.32
   6 -13 -10   -4.41    5.73
   6 -13  10    4.99    5.89
   6 -13 -11   -0.93    5.45
   6 -13  11   13.64    6.31
   6 -13  12    3.17    5.05
   6 -13 -12    7.28    6.28
   6 -13  13    3.33    6.58
   6 -13 -13    4.12    4.57
   6 -14   0   25.45    9.88
   6 -14   1    2.69    2.88
   6 -14  -1   -1.11    3.49
   6 -14   2    6.88    5.43
   6 -14  -2    5.41    5.16
   6 -14   3   39.43   13.31
   6 -14  -3   32.85   12.46
   6 -14  -4   31.23   10.42
   6 -14   4    9.82    7.25
   6 -14  -5    3.87    4.85
   6 -14   5   -2.22    4.08
   6 -14  -6    0.31    2.20
   6 -14   6    9.95    4.99
   6 -14   7   22.52    9.51
   6 -14  -7   18.97    8.28
   6 -14   8   22.04    8.77
   6 -14  -8   26.01   12.14
   6 -14  -9    1.95    4.74
   6 -14   9    1.39    4.96
   7   0   0    2.72    1.47
   7   0   1   -0.49    0.53
   7   0  -1   -0.66    2.05
   7   0   2  850.05   36.06
   7   0  -2  744.84   27.91
   7   0   3   -1.72    2.30
   7   0  -3    0.41    1.06
   7   0  -4  467.98   21.70
   7   0   4  478.09   27.34
   7   0  -5    2.29    1.59
   7   0   5    0.87    1.17
   7   0   6  144.68   16.29
   7   0  -6  109.26   11.20
   7   0  -7    0.51    2.51
   7   0   7    3.10    3.26
   7   0   8  461.56   30.41
   7   0  -8  394.99   22.95
   7   0  -9    0.40    1.69
   7   0   9   -2.08    2.52
   7   0  10   71.24   12.68
   7   0  11   -3.32    5.44
   7   0  12   89.67   15.14
   7   0  13   -0.31    4.52
   7   0  14  466.44   36.91
   7   0  15   -5.41    6.08
   7   0  16  491.77   38.54
   7   0  17    0.29    4.00
   7   0  18   32.84   10.08
   7   0  19    4.12    5.86
   7   0  20   88.16   17.28
   7   0  21   -0.42    3.92
   7   0  22   28.64   10.09
   7   0  23   -1.15    2.69
   7   0  24   72.86   18.25
   7   0  25   -6.05    6.64
   7   0  26   39.88   11.26
   7   0  27   -3.49    6.66
   7  -1   0    3.08    3.33
   7   1   0   -0.38    1.27
   7   1   1  224.77   14.60
   7  -1   1  250.50   19.38
   7  -1  -1  209.99   17.27
   7  -1  -2  391.50   23.47
   7   1   2  339.85   19.87
   7  -1   2  394.82   24.53
   7  -1  -3  123.91   12.88
   7   1   3  130.04   13.20
   7  -1   3  150.71   15.30
   7   1   4   81.14   11.28
   7  -1  -4   74.13    9.99
   7  -1   4   87.01   12.38
   7  -1   5   -0.80    2.47
   7  -1  -5    0.15    2.20
   7   1   5   -0.10    1.06
   7   1   6  328.92   24.65
   7  -1   6  339.66   25.58
   7  -1  -6  343.14   22.50
   7  -1   7   14.99    6.09
   7  -1  -7    3.21    2.36
   7   1   7   10.89    3.55
   7   1   8  225.50   21.51
   7  -1   8  326.33   26.33
   7  -1  -9  174.90   17.10
   7   1   9  193.88   20.47
   7  -1   9  224.93   22.94
   7  -1 -10   17.58    6.01
   7   1  10   28.62    7.85
   7  -1  10   21.83    7.34
   7   1  11  213.84   22.68
   7  -1  11  204.42   22.34
   7  -1 -11  242.58   21.67
   7   1  12  442.38   32.92
   7  -1  12  412.42   33.10
   7   1  13    8.96    5.18
   7  -1  13    6.09    3.36
   7  -1  14   90.54   16.48
   7   1  14   64.05   12.64
   7   1  15   -0.41    2.90
   7  -1  15   -0.67    3.59
   7   1  16   -3.80    5.27
   7  -1  16    5.73    4.49
   7   1  17    5.36    4.05
   7  -1  17    7.43    3.12
   7   1  18    5.77    5.59
   7  -1  18    7.75    6.79
   7   1  19    4.59    3.06
   7  -1  19    2.62    3.23
   7   1  20    1.76    1.00
   7  -1  20   11.28    3.34
   7   1  21    1.77    7.55
   7  -1  21   -0.99    4.43
   7   1  22    7.31    6.15
   7  -1  22   -5.66    7.64
   7   1  23    1.33    3.97
   7  -1  23   -0.79    6.10
   7   1  24   -1.29    4.35
   7  -1  24    0.23    2.91
   7   1  25    1.44    3.35
   7  -1  25    6.24    5.47
   7   1  26    1.21    2.83
   7  -1  26   -3.02    2.83
   7   1  27   -1.61    5.11
   7  -1  27   12.10    9.65
   7  -2   0    2.73    2.84
   7  -2  -1  350.24   24.17
   7  -2   1  367.83   25.36
   7   2   2   74.03    8.39
   7  -2  -2   83.61   11.30
   7   2   3   54.11    7.83
   7  -2  -3   68.34   10.37
   7  -2   3   57.02   10.61
   7  -2   4    1.82    1.40
   7   2   4    2.35    2.07
   7  -2  -4    2.32    2.86
   7   2   5  894.47   35.97
   7  -2  -5  988.79   41.61
   7  -2  -6   31.87    7.48
   7  -2   6   20.68    6.54
   7   2   6   23.37    5.68
   7   2   7  206.96   19.21
   7  -2   7  148.19   17.97
   7  -2  -7  208.76   19.15
   7  -2   8   33.89    9.68
   7   2   8   27.87    7.76
   7  -2  -8   32.87    7.54
   7  -2  -9    2.06    2.64
   7   2   9    1.66    2.09
   7   2  10  247.86   23.53
   7  -2 -10  227.61   22.43
   7  -2  10  252.94   25.51
   7   2  11   75.24   13.22
   7  -2 -11   53.21   10.76
   7  -2  11   75.74   14.61
   7   2  12   19.57    6.84
   7  -2  12   21.42    6.73
   7   2  13  204.71   24.44
   7  -2  13  199.66   23.11
   7   2  14   -0.47    0.67
   7  -2  14   -0.72    5.40
   7   2  15   32.76    9.00
   7  -2  15   43.46   12.66
   7   2  16  112.57   18.96
   7  -2  16  124.15   19.55
   7   2  17   27.26    9.01
   7  -2  17   23.85    9.92
   7   2  18    0.80    6.87
   7  -2  18    3.42    6.95
   7   2  19  138.45   23.22
   7  -2  19  190.90   25.83
   7  -2  20  115.50   19.67
   7   2  20   96.64   17.69
   7   2  21    8.98    4.32
   7  -2  21    1.77    2.73
   7   2  22   -5.14    1.10
   7  -2  22   -0.34    4.90
   7  -2  23   89.98   18.51
   7   2  23   68.00   16.59
   7   2  24    5.66    6.20
   7  -2  24   -1.53    6.89
   7   2  25   -3.48    4.70
   7  -2  25   -0.80    6.30
   7   2  26    9.59    6.25
   7  -2  26    4.29    5.38
   7   2  27   23.62   11.59
   7  -2  27    0.36    8.72
   7  -3   0   -0.47    0.73
   7  -3   1   50.46    9.95
   7  -3  -1   49.35    9.70
   7  -3  -2   20.28    6.65
   7  -3   2   15.98    6.22
   7  -3  -3   10.11    5.19
   7  -3   3   12.38    5.32
   7  -3  -4   59.42   10.57
   7  -3   4   39.81    9.69
   7  -3  -5  546.61   33.53
   7  -3   5  591.00   35.86
   7   3   5  538.44   27.86
   7  -3  -6    2.22    2.92
   7   3   6    1.26    1.01
   7  -3   6    1.35    3.06
   7  -3   7   62.29   11.58
   7  -3  -7   91.82   14.15
   7   3   7   90.05   12.91
   7   3   8   68.45   11.21
   7  -3   8   57.91   11.98
   7  -3  -8   57.86   11.22
   7   3   9  131.80   16.80
   7  -3  -9   81.12   12.84
   7  -3   9  116.77   16.53
   7  -3  10    3.56    4.17
   7   3  10    5.59    5.18
   7  -3 -10    4.26    3.92
   7   3  11  142.19   17.64
   7  -3 -11  173.22   19.93
   7  -3  11  181.58   21.81
   7   3  12  105.03   16.23
   7  -3 -12   72.91   13.17
   7  -3  12   71.63   14.68
   7   3  13   15.52    8.11
   7  -3  13   31.79   10.89
   7   3  14   -0.59    3.69
   7  -3  14   12.49    6.68
   7   3  15   27.89   10.77
   7  -3  15   46.69   12.57
   7   3  16    8.03    5.15
  -7   3  16   18.98   10.93
   7  -3  16    2.62    4.11
   7   3  17    6.11    3.95
   7  -3  17    8.74    2.26
   7   3  18    4.18    7.18
   7  -3  18    6.14    6.55
   7   3  19    2.23    4.01
   7  -3  19   -4.69    4.63
   7   3  20    1.05    3.50
   7  -3  20    0.45    5.20
   7   3  21   -0.74    3.67
   7  -3  21    4.68    2.00
   7   3  22   -1.55    4.76
   7  -3  22    0.71    5.27
   7   3  23   11.13    8.00
   7  -3  23   -2.51    8.22
   7   3  24    0.75    7.09
   7  -3  24    9.17    6.43
   7   3  25    5.76    7.13
   7  -3  25    9.64    3.51
   7   3  26   -3.94    1.99
   7  -3  26   -4.53    5.97
   7  -4   0   -0.75    1.60
   7  -4   1  135.46   17.19
   7  -4  -1  138.92   17.61
   7  -4   2  527.16   34.63
   7  -4  -2  416.96   30.13
   7  -4  -3    2.50    3.97
   7  -4   3    7.81    4.96
   7  -4  -4  487.85   32.88
   7  -4   4  504.52   33.91
   7  -4  -5   97.80   15.08
   7  -4   5  115.55   16.92
   7  -4  -6   47.36   10.19
   7  -4   6   63.25   12.51
   7  -4   7   34.73    9.49
   7  -4  -7   29.59    8.16
   7  -4   8  121.68   17.07
   7   4   8  138.94   15.94
   7  -4  -8  116.63   16.54
   7  -4  -9  148.68   18.76
   7  -4   9  147.17   19.93
   7   4   9  174.48   19.13
   7  -4  10   -1.22    4.16
   7   4  10   -1.10    2.51
   7  -4 -10    2.38    2.59
   7  -4  11    4.32    6.90
   7   4  11    4.58    2.69
   7  -4 -11    7.23    5.94
   7  -4 -12    6.00    4.91
   7  -4  12    7.01    1.83
   7   4  12    4.06    5.01
   7  -4 -13  158.12   20.45
   7  -4  13  131.16   19.08
   7   4  13  137.89   19.18
   7   4  14    7.03    4.18
   7  -4  14    8.36    5.39
   7   4  15   14.40    9.00
   7  -4  15    0.25    2.18
   7   4  16   30.77   11.59
   7  -4  16   49.56   12.75
   7   4  17   40.97   10.27
  -7   4  17   59.09   13.12
   7  -4  17   37.81   12.54
   7   4  18   46.87   11.59
  -7   4  18   44.69   12.80
   7  -4  18   44.33   12.85
   7   4  19   29.95   11.58
  -7   4  19   23.79    9.97
   7  -4  19   15.12    6.36
   7   4  20   85.37   17.18
   7  -4  20   73.45   16.00
   7   4  21    7.80    6.66
   7  -4  21   -4.31    5.04
   7   4  22    2.97    5.66
   7  -4  22   11.02    6.56
   7   4  23    1.05    5.80
   7  -4  23   10.60    9.27
   7   4  24   17.94    8.45
   7  -4  24    9.00    5.84
   7   4  25    2.91    1.20
   7  -4  25   14.51    9.86
   7   4  26   13.95    9.02
   7  -4  26    0.03    3.60
   7  -5   0    2.57    2.47
   7  -5   1   -2.30    2.58
   7  -5  -1    1.24    3.06
   7  -5  -2    9.31    6.42
   7  -5   2    7.37    3.65
   7  -5  -3   48.42   11.45
   7  -5   3   29.14    8.05
   7  -5   4   11.21    1.80
   7  -5  -4    8.80    4.88
   7  -5  -5    9.81    4.66
   7  -5   5   21.69    9.08
   7  -5  -6   66.66   13.46
   7  -5   6  116.66   17.34
   7  -5  -7   68.35   13.38
   7  -5   7   85.51   15.15
   7  -5   8   -1.31    4.00
   7  -5  -8    3.37    3.03
   7  -5  -9    0.52    1.13
   7  -5   9    2.94    4.25
   7  -5  10    0.42    4.15
   7  -5 -10   -1.32    2.61
   7   5  11   36.92   10.06
   7  -5  11   20.75    7.07
   7  -5 -11   29.17    9.20
   7   5  12   13.01    5.35
   7  -5  12   20.39    7.65
   7  -5 -12   20.48    8.96
   7  -5 -13   -0.64    2.78
   7   5  13    0.97    0.51
   7  -5 -14   15.09    7.82
   7  -5  14   11.85    6.58
   7   5  14    9.52    4.51
   7  -5  15   -0.54    1.75
   7   5  15    8.59    3.36
   7   5  16   18.83    7.83
   7  -5  16   36.87   11.28
   7   5  17   -1.15    4.06
   7  -5  17    3.20    3.22
   7   5  18    2.77    1.80
   7  -5  18    7.43    7.60
   7   5  19   10.07    4.29
  -7   5  19   -0.13    3.74
   7  -5  19    3.36    7.31
   7   5  20    0.97    2.37
  -7   5  20    6.60    3.13
   7  -5  20   -2.23    3.75
   7   5  21    0.38    4.44
   7  -5  21    3.25    4.38
  -7   5  21    3.03    2.82
   7   5  22   15.52    7.97
   7  -5  22   14.48    5.90
  -7   5  22   33.98   13.56
   7   5  23    8.78    7.27
   7  -5  23   -2.16    4.30
   7   5  24   28.35   10.95
   7  -5  24   20.98   10.56
   7   5  25   16.68   11.06
   7  -5  25   -6.02    7.29
   7  -6   0   -2.35    2.93
   7  -6   1  267.85   26.07
   7  -6  -1  274.48   27.45
   7  -6   2  274.63   26.50
   7  -6  -2  231.55   24.93
   7  -6  -3    4.23    2.30
   7  -6   3    3.79    6.06
   7  -6   4   -1.93    3.46
   7  -6  -4   -3.14    4.23
   7  -6  -5  373.30   31.57
   7  -6   5  273.47   27.32
   7  -6  -6   -0.52    1.26
   7  -6   6    2.62    1.18
   7  -6  -7   81.85   15.04
   7  -6   7  110.76   17.42
   7  -6   8   10.06    8.07
   7  -6  -8    3.50    1.12
   7  -6   9   29.35   10.36
   7  -6  -9   55.87   12.65
   7  -6 -10  147.62   21.22
   7  -6  10  130.32   19.84
   7  -6  11   17.93    8.33
   7  -6 -11    7.70    3.09
   7  -6 -12  244.38   27.84
   7  -6  12  217.66   26.43
   7  -6 -13   94.04   15.60
   7  -6  13   75.06   15.44
   7  -6 -14   -1.53    1.85
   7   6  14   -0.94    3.65
   7  -6  14   -1.29    3.72
   7  -6  15    2.09    2.33
   7  -6 -15    3.89    3.05
   7   6  16   74.36   14.21
   7  -6  16   70.49   16.30
   7   6  17   14.78    6.92
   7  -6  17   14.02    7.98
   7   6  18    2.50    5.68
   7  -6  18   11.59    9.46
   7   6  19   11.19    3.89
   7  -6  19   17.86    7.71
   7   6  20   47.43   13.90
   7  -6  20   48.12   13.80
   7   6  21    0.89    4.31
   7  -6  21    6.40    7.13
   7   6  22   -1.34    6.00
   7  -6  22    3.99    4.44
   7   6  23   16.90    5.48
  -7   6  23   20.82   10.38
   7  -6  23   17.83    7.66
   7   6  24    0.46    4.07
   7  -6  24    1.27    5.89
   7  -7   0    1.88    2.77
   7  -7   1    0.53    4.07
   7  -7  -1    5.95    6.17
   7  -7   2   31.73    9.74
   7  -7  -2   49.63   11.98
   7  -7  -3  109.61   17.90
   7  -7   3   61.96   12.71
   7  -7  -4   -2.96    5.09
   7  -7   4    2.15    2.85
   7  -7  -5   26.97    8.54
   7  -7   5   15.19    5.58
   7  -7  -6    1.21    2.59
   7  -7   6   -1.88    4.10
   7  -7  -7    1.52    1.97
   7  -7   7    1.00    4.29
   7  -7   8   -1.68    5.88
   7  -7  -8   -1.22    4.56
   7  -7   9   87.86   16.61
   7  -7  -9   66.01   14.66
   7  -7  10    9.76    5.78
   7  -7 -10    5.61    5.01
   7  -7 -11   18.87    8.04
   7  -7  11    6.68    5.62
   7  -7  12    0.42    3.64
   7  -7 -12   12.23    7.12
   7  -7 -13  171.50   23.95
   7  -7  13  147.32   23.05
   7  -7  14   21.27    8.83
   7  -7 -14   30.74    9.30
   7  -7  15   -2.83    5.32
   7  -7 -15    2.37    2.83
   7  -7  16   16.17    3.19
   7  -7 -16   24.94   10.57
   7  -7  17   15.03    7.24
   7  -7 -17   14.29    4.94
   7  -7  18   -7.05    5.68
   7  -7  19   21.37   13.02
   7  -7  20   45.95   12.59
   7  -7  21   32.61   12.76
   7  -7  22   19.03    8.65
   7   7  23   11.84    6.75
   7  -7  23   26.88   10.82
   7  -8   0   -1.09    0.75
   7  -8   1  270.06   27.94
   7  -8  -1  318.43   31.09
   7  -8   2   32.89    9.90
   7  -8  -2   37.05   10.20
   7  -8   3   40.92   10.40
   7  -8  -3   58.36   13.53
   7  -8  -4   24.40    6.91
   7  -8   4   17.00    7.28
   7  -8   5   58.41   12.53
   7  -8  -5   30.14    8.95
   7  -8  -6    2.75    5.95
   7  -8   6    1.19    4.41
   7  -8   7   38.46   10.85
   7  -8  -7   69.86   15.25
   7  -8  -8    0.71    1.21
   7  -8   8   -2.89    4.04
   7  -8   9  177.27   24.61
   7  -8  -9  220.30   27.04
   7  -8  10    3.31    3.57
   7  -8 -10    9.42    4.45
   7  -8 -11   11.67    6.88
   7  -8  11   10.39    4.75
   7  -8 -12    9.94    6.45
   7  -8  12   -1.08    3.98
   7  -8  13   25.04   10.49
   7  -8 -13   31.38    8.96
   7  -8  14    2.64    2.21
   7  -8 -14   10.12    3.96
   7  -8 -15   46.42   15.13
   7  -8  15   91.35   17.69
   7  -8  16   -0.03    0.60
   7  -8 -16    6.62    6.26
   7  -8  17   42.21   12.20
   7  -8 -17   50.72   14.08
   7  -8  18   10.80    4.75
   7  -8 -18    1.90    1.92
   7  -8  19   59.42   14.98
   7  -8 -19   75.60   16.93
   7  -8  20   10.45    8.57
   7  -8  21   -3.77    8.55
   7  -8  22   47.20   13.51
   7  -9   0    0.70    3.31
   7  -9   1    0.02    1.56
   7  -9  -1    4.84    5.79
   7  -9   2    2.34    2.78
   7  -9  -2    0.51    1.94
   7  -9   3    5.14    3.23
   7  -9  -3   -1.19    3.73
   7  -9  -4   15.25    7.67
   7  -9   4   12.52    5.65
   7  -9   5   98.38   16.75
   7  -9  -5   64.16   14.61
   7  -9  -6    4.00    3.00
   7  -9   6   12.87    6.96
   7  -9  -7   41.01   13.32
   7  -9   7   37.78   10.36
   7  -9  -8    3.23    2.59
   7  -9   8   13.80    6.56
   7  -9  -9   19.21    8.50
   7  -9   9   10.20    7.33
   7  -9  10    2.82    7.91
   7  -9 -10    7.89    3.43
   7  -9  11   29.80   11.42
   7  -9 -11   39.57   10.59
   7  -9 -12   -1.73    1.80
   7  -9  12   -1.81    6.57
   7  -9 -13   46.25   15.04
   7  -9  13   46.33   13.04
   7  -9  14    2.72    4.06
   7  -9 -14   -1.45    3.46
   7  -9  15    1.39    2.26
   7  -9 -15    1.27    3.83
   7  -9  16    2.90    4.87
   7  -9 -16    2.76    6.10
   7  -9  17   69.03   16.59
   7  -9 -17   87.92   18.03
   7  -9  18    2.04    2.27
   7  -9 -18    6.73    4.99
   7  -9  19   -3.97    4.54
   7  -9 -19    9.59    6.47
   7  -9 -20   -1.35    2.79
   7  -9  20   13.71    8.28
   7  -9 -21    3.53    7.09
   7  -9  21   18.60    9.63
   7 -10   0    3.59    1.54
   7 -10   1   -1.37    2.84
   7 -10  -1    1.96    3.76
   7 -10   2   96.25   17.54
   7 -10  -2   53.77   13.65
   7 -10   3   14.31    6.17
   7 -10  -3   35.46   11.48
   7 -10  -4   -1.16    2.57
   7 -10   4   -1.11    1.85
   7 -10  -5    7.84    7.89
   7 -10   5    3.80    6.42
   7 -10   6   38.89   10.24
   7 -10  -6   38.89   11.22
   7 -10  -7   28.41    9.55
   7 -10   7   45.17   12.85
   7 -10  -8   46.03   12.79
   7 -10   8   33.25   10.54
   7 -10  -9   30.32    9.77
   7 -10   9   22.55    9.16
   7 -10 -10   52.64   13.89
   7 -10  10   75.06   16.25
   7 -10  11   -3.78    4.13
   7 -10 -11    2.42    4.77
   7 -10  12   56.95   13.55
   7 -10 -12   73.11   16.09
   7 -10  13    6.58    3.26
   7 -10 -13   -0.48    2.01
   7 -10 -14    1.70    3.30
   7 -10  14    7.46    6.76
   7 -10  15    8.83    6.27
   7 -10 -15    5.84    6.61
   7 -10  16   64.60   16.46
   7 -10 -16   72.41   16.28
   7 -10  17   -0.69    3.40
   7 -10 -17    3.16    2.37
   7 -10  18   -0.06    2.80
   7 -10 -18    7.74    7.07
   7 -10  19    3.32    1.78
   7 -10 -19    7.02    7.66
   7 -11   0   -0.53    1.91
   7 -11   1    1.06    3.81
   7 -11  -1    4.16    5.26
   7 -11   2    7.99    5.81
   7 -11  -2    4.82    5.19
   7 -11   3    9.03    7.30
   7 -11  -3    3.04    2.71
   7 -11  -4    3.98    4.66
   7 -11   4    8.47    4.48
   7 -11  -5   27.33   10.91
   7 -11   5    7.47    4.32
   7 -11   6    7.65    7.55
   7 -11  -6   -7.90    8.25
   7 -11   7    2.87    2.13
   7 -11  -7    5.46    4.49
   7 -11  -8   -4.31    3.99
   7 -11   8    1.76    4.51
   7 -11  -9    1.93    3.44
   7 -11   9   -4.59    4.80
   7 -11 -10    4.43    4.44
   7 -11  10   -5.28    5.85
   7 -11  11   -1.44    3.01
   7 -11 -11    4.12    4.84
   7 -11  12    1.17    3.03
   7 -11 -12   -3.67    5.37
   7 -11  13   13.87    9.00
   7 -11 -13   14.34    6.76
   7 -11  14   -2.16    5.17
   7 -11 -14    0.64    4.45
   7 -11  15    7.07    2.25
   7 -11 -15    5.52    5.86
   7 -11 -16   -6.60    6.54
   7 -11  16   -3.22    6.69
   7 -11  17    1.27    4.06
   7 -11 -17    5.92    2.07
   7 -12   0   -1.07    4.75
   7 -12   1    4.34    2.54
   7 -12  -1    7.12    6.95
   7 -12   2   34.34   10.99
   7 -12  -2   10.95    4.64
   7 -12   3   22.12    8.45
   7 -12  -3   39.03   13.84
   7 -12  -4    2.68    4.97
   7 -12   4   -0.26    5.53
   7 -12  -5    2.87    4.66
   7 -12   5   -4.44    5.64
   7 -12   6   14.72    7.86
   7 -12  -6    4.62    3.49
   7 -12   7    1.23    6.33
   7 -12  -7    1.37    4.29
   7 -12   8   41.07   12.53
   7 -12  -8   33.44   10.88
   7 -12  -9   39.78   12.23
   7 -12   9   61.83   15.73
   7 -12 -10   15.05    8.03
   7 -12  10   -7.81    8.21
   7 -12 -11   -1.11    3.33
   7 -12  11   -1.57    3.64
   7 -12  12    5.87    8.26
   7 -12 -12    6.15    6.07
   7 -12  13   28.31    9.66
   7 -12 -13   46.75   15.32
   7 -12  14    3.79    6.36
   7 -12 -14   -2.92    6.58
   7 -13   0    1.08    4.11
   7 -13   1   25.38    9.65
   7 -13  -1   21.66    9.72
   7 -13   2    1.46    4.07
   7 -13  -2   -9.15    6.91
   7 -13  -3    2.61    5.76
   7 -13   3   -5.22    5.63
   7 -13  -4   -4.73    4.54
   7 -13   4    5.79    4.95
   7 -13  -5   11.77    6.89
   7 -13   5    1.90    2.71
   7 -13  -6   -3.57    6.80
   7 -13   6   -0.13    3.62
   7 -13   7    7.73    6.73
   7 -13  -7   10.50    7.58
   7 -13   8   -3.54    4.90
   7 -13  -8    5.24    1.91
   7 -13   9   10.40    6.35
   7 -13  -9   15.28    7.52
   7 -13 -10    0.47    4.93
   7 -13  10    4.59    4.28
   7 -14   0   -1.41    6.38
   7 -14   1   -1.88    2.48
   7 -14  -1    3.08    5.74
   7 -14   2   14.49    9.19
   7 -14  -2    4.42    4.96
   8   0   2   11.64    5.35
   8   0   3    1.41    2.55
   8   0   4   52.72   10.44
   8   0   5   -0.71    3.06
   8   0   6   85.05   13.18
   8   0   7    4.80    3.92
   8   0   8   16.21    4.83
   8   0   9   -1.89    3.60
   8   0  10  418.89   32.91
   8   0  11    2.31    3.69
   8   0  12    3.02    1.39
   8   0  13    5.37    4.91
   8   0  14  150.97   20.76
   8   0  15   -3.54    6.60
   8   0  16   18.03    8.76
   8   0  17   -1.81    4.62
   8   0  18   18.20    5.66
   8   0  19    7.27    3.86
   8   0  20   16.06    8.62
   8   0  21   -0.61    4.83
   8   0  22   40.43   11.77
   8   0  23   -3.41    6.91
   8   0  24    4.55    8.65
   8   0  25    5.39    2.56
   8  -1   0  343.30   23.53
   8  -1   1  239.41   19.96
   8  -1  -1  251.14   20.83
   8  -1   2    0.11    0.53
   8  -1  -2   -0.78    2.39
   8  -1   3   14.65    4.87
   8  -1   4  317.24   24.72
   8  -1   5    3.36    2.92
   8   1   6   68.09   11.50
   8  -1   6   95.01   13.90
   8  -1   7   49.56   10.73
   8   1   7   33.44    8.09
   8   1   8   54.98   10.63
   8  -1   8   87.99   14.78
   8   1   9   44.86    9.91
   8  -1   9   22.09    6.76
   8   1  10    9.51    3.47
   8  -1  10   24.25    8.33
   8   1  11    3.45    3.06
   8  -1  11    7.64    6.15
   8   1  12  219.90   24.90
   8  -1  12  201.10   23.53
   8   1  13   -3.03    5.95
   8  -1  13    3.65    0.71
   8   1  14   90.71   16.44
   8  -1  14   57.23   14.43
   8   1  15   63.92   14.22
   8  -1  15   71.16   14.67
   8   1  16   26.71    8.81
   8  -1  16   16.05   10.55
   8   1  17   42.31   11.66
   8  -1  17   52.55   14.26
   8   1  18  313.74   34.45
   8  -1  18  201.68   26.29
   8   1  19   10.62    7.48
   8  -1  19    2.06    2.42
   8   1  20   10.28    7.71
   8  -1  20   -0.55    2.58
   8   1  21   21.30    9.59
   8  -1  21   31.21   14.05
   8   1  22   95.95   21.49
   8  -1  22   53.20   15.80
   8   1  23   -4.85    5.77
   8  -1  23    1.58    3.65
   8   1  24   42.31   14.54
   8  -1  24   19.52   10.42
   8   1  25   18.80   11.45
   8  -1  25   21.71   10.31
   8  -2   0   49.61    9.79
   8  -2  -1   80.85   12.66
   8  -2   1  101.13   13.92
   8  -2   2   18.79    5.63
   8  -2  -2    8.24    4.64
   8  -2  -3  224.78   21.33
   8  -2   3  272.49   23.90
   8  -2  -4    8.95    4.47
   8  -2   4   16.15    5.54
   8  -2   5   15.32    6.77
   8  -2  -5   20.96    6.17
   8  -2   6   42.80    9.98
   8  -2  -6   62.97   11.53
   8  -2   7  341.66   28.90
   8  -2  -7  367.89   27.02
   8  -2   8    6.85    3.79
   8   2   9    3.30    3.28
   8  -2   9    9.69    3.02
   8   2  10   -0.30    4.17
   8  -2  10    0.25    3.94
   8   2  11  104.38   16.32
   8  -2  11   98.13   16.71
   8   2  12   35.02   10.40
   8  -2  12   36.17   10.34
   8   2  13   40.68   10.99
   8  -2  13   17.17    4.66
   8   2  14   19.03    7.31
   8  -2  14   20.26    9.57
   8   2  15   12.84    6.77
   8  -2  15    3.45    2.27
   8   2  16    2.65    2.62
   8  -2  16    6.72    7.79
   8   2  17   -0.34    5.76
   8  -2  17   -4.92    9.23
   8   2  18   -2.10    2.04
   8  -2  18   -3.61    3.99
   8   2  19   36.04   12.11
   8  -2  19   12.17    7.02
   8   2  20   35.52   11.86
   8  -2  20   13.24    8.38
   8   2  21   94.19   18.68
   8  -2  21   64.25   15.42
   8   2  22   -2.83    4.44
   8  -2  22   -3.28    4.90
   8   2  23   -2.95    4.29
   8  -2  23   -8.27    7.29
   8   2  24    4.77    4.59
   8  -2  24    2.48    3.73
   8   2  25    4.76    5.23
   8  -2  25    0.30    1.63
   8  -3   0   52.82   10.49
   8  -3  -1   48.96   10.50
   8  -3   1   48.58   11.01
   8  -3  -2    5.06    3.58
   8  -3   2   13.44    6.12
   8  -3  -3  105.40   14.91
   8  -3   3  117.69   16.58
   8  -3  -4   88.29   14.35
   8  -3   4  106.50   16.33
   8  -3   5   30.46    9.12
   8  -3  -5   18.14    6.97
   8  -3  -6  220.60   22.57
   8  -3   6  303.27   27.30
   8  -3  -7  120.09   17.42
   8  -3   7  137.60   18.40
   8  -3   8  107.49   16.59
   8  -3  -8  131.55   18.05
   8  -3   9    2.54    3.50
   8  -3  -9    2.30    4.94
   8  -3  10    0.63    3.95
   8  -3 -10    1.33    1.57
   8  -3  11   98.92   16.81
   8  -3 -11   75.55   13.89
   8  -3 -12   -1.82    2.97
   8  -3  12    0.45    4.60
   8   3  13    2.43    1.46
   8  -3  13    3.45    1.87
   8   3  14   15.03    5.34
   8  -3  14    9.52    6.00
   8   3  15    7.39    6.14
   8  -3  15   49.33   13.89
   8   3  16   14.55    8.82
   8  -3  16   27.67    9.87
   8   3  17   48.37   14.00
   8  -3  17   95.76   17.95
   8   3  18   -1.57    5.28
   8  -3  18   10.05    5.99
   8   3  19   82.10   16.37
   8  -3  19   77.94   17.02
   8   3  20   -0.93    1.89
   8  -3  20    3.80    1.74
   8   3  21   81.08   16.74
   8  -3  21   77.35   17.37
   8   3  22    9.51    8.30
   8  -3  22   11.90    6.95
   8   3  23   -3.83    3.27
   8  -3  23    5.87    3.33
   8   3  24   -1.54    2.50
   8  -3  24   10.12    9.60
   8   3  25   21.17   11.45
   8  -3  25   15.57    8.69
   8  -4   0   36.50   10.82
   8  -4  -1   34.74    8.75
   8  -4   1   24.74    9.24
   8  -4  -2  141.71   17.55
   8  -4   2  123.42   17.37
   8  -4  -3   -1.38    1.94
   8  -4   3    1.89    2.25
   8  -4  -4   22.83    7.43
   8  -4   4   24.42    6.73
   8  -4  -5  168.61   20.66
   8  -4   5  193.08   23.15
   8  -4   6   54.54   11.35
   8  -4  -6   41.61   11.36
   8  -4  -7   41.22   11.21
   8  -4   7   55.09   11.79
   8  -4   8   90.37   16.13
   8  -4  -8   80.45   14.96
   8  -4   9   27.30    8.57
   8  -4  -9   23.99    7.72
   8  -4  10   28.56    8.53
   8  -4 -10   34.94   10.04
   8  -4  11   18.68    8.15
   8  -4 -11   19.19    7.85
   8  -4  12   15.31    7.41
   8  -4 -12    5.56    5.57
   8  -4  13    1.69    4.54
   8  -4 -13   -1.07    5.13
   8  -4 -14   13.83    6.10
   8  -4  14    3.78    1.97
   8  -4 -15   13.97    8.25
   8  -4  15   12.01    8.73
   8  -4 -16    1.95    5.33
   8  -4  16   -0.91    2.88
   8  -4  17   30.26   10.46
   8  -4  18   25.89   10.74
   8   4  19   38.97   11.92
   8  -4  19   15.86    8.26
   8   4  20    6.00    5.32
   8  -4  20   10.61    5.77
   8   4  21    3.69    5.70
   8  -4  21   -1.90    4.54
   8   4  22   -2.86    4.85
   8  -4  22    2.88    5.27
   8   4  23    0.36    1.76
   8  -4  23   -5.04    1.74
   8   4  24   11.99    7.08
   8  -4  24    7.09    5.19
   8  -5   0  801.93   45.84
   8  -5  -1   27.36    8.62
   8  -5   1   16.51    6.07
   8  -5  -2   13.59    5.49
   8  -5   2   21.05    7.81
   8  -5  -3   65.74   13.82
   8  -5   3   79.07   14.99
   8  -5  -4   70.98   14.39
   8  -5   4   85.79   15.56
   8  -5  -5   80.53   14.88
   8  -5   5   56.87   12.44
   8  -5  -6  108.83   17.34
   8  -5   6  124.25   19.39
   8  -5  -7   52.22   11.94
   8  -5   7   47.65   11.94
   8  -5  -8   36.10   10.46
   8  -5   8   50.46   12.72
   8  -5   9   14.41    7.46
   8  -5  -9   24.10   10.39
   8  -5  10   60.79   13.26
   8  -5 -10   88.39   16.69
   8  -5  11   13.49    7.00
   8  -5 -11   22.87    8.44
   8  -5  12   -1.15    4.14
   8  -5 -12    7.75    4.15
   8  -5  13   13.69    7.34
   8  -5 -13   25.94   10.76
   8  -5  14   41.59   10.89
   8  -5 -14   50.27   11.54
   8  -5 -15   -4.87    6.00
   8  -5  15    9.57    6.25
   8  -5 -16   -0.81    4.39
   8  -5  16   -3.36    4.34
   8  -5 -17    8.10    5.56
   8  -5  17   13.39    7.97
   8  -5 -18   70.56   16.06
   8  -5  18   46.31   12.12
   8  -5  19   -1.88    6.72
   8  -5  20   20.77   10.28
   8  -5  21    4.83    4.67
   8  -5  22   34.02   12.17
   8  -5  23   -5.29    5.69
   8  -6   0   -0.02    3.22
   8  -6  -1   -0.88    4.22
   8  -6   1    2.46    5.15
   8  -6   2  351.08   31.74
   8  -6  -2  334.15   30.18
   8  -6   3  114.19   18.40
   8  -6  -3   94.17   16.68
   8  -6  -4   15.37    8.50
   8  -6   4    8.23    5.82
   8  -6   5    3.08    4.26
   8  -6  -5    0.65    2.28
   8  -6   6    3.99    5.15
   8  -6  -6   -0.30    1.88
   8  -6  -7   -1.02    4.78
   8  -6   7    3.54    4.03
   8  -6  -8    1.93    2.62
   8  -6   8   -2.01    7.18
   8  -6   9    5.65    6.43
   8  -6  -9    3.85    4.41
   8  -6  10   -4.89    5.39
   8  -6 -10   19.67    7.09
   8  -6  11   15.59    9.41
   8  -6 -11    6.98    4.54
   8  -6  12   14.63    6.58
   8  -6 -12   19.35    8.31
   8  -6  13    0.33    4.70
   8  -6 -13   -3.45    6.20
   8  -6  14   29.83    9.84
   8  -6 -14   22.10   10.08
   8  -6  15    0.20    0.29
   8  -6 -15    4.23    7.02
   8  -6  16    0.13    4.52
   8  -6 -16    3.20    5.81
   8  -6 -17    8.52    5.51
   8  -6  17   13.50    8.76
   8  -6 -18   16.02    8.87
   8  -6  18   26.29    8.82
   8  -6 -19    6.26    7.86
   8  -6  19    1.46    4.46
   8  -6 -20    2.83    4.61
   8  -6  20    2.67    4.00
   8  -6  21    4.75    6.47
   8  -6  22    5.06    1.87
   8  -7   0   10.79    6.04
   8  -7   1  185.45   23.15
   8  -7  -1  183.75   22.57
   8  -7  -2    6.68    4.79
   8  -7   2   15.55    6.51
   8  -7   3  289.11   29.80
   8  -7  -3  258.74   28.23
   8  -7  -4   15.81    6.37
   8  -7   4   28.09   10.11
   8  -7   5    3.69    3.58
   8  -7  -5   -0.85    1.41
   8  -7   6    1.57    5.62
   8  -7  -6   -2.76    6.17
   8  -7  -7   63.36   13.82
   8  -7   7   77.46   15.58
   8  -7  -8   50.47   12.81
   8  -7   8   54.78   14.22
   8  -7  -9    9.05    5.89
   8  -7   9   16.37    8.32
   8  -7  10   39.24   10.75
   8  -7 -10   42.87   11.50
   8  -7  11  152.88   22.54
   8  -7 -11  130.70   21.31
   8  -7  12    7.40    9.04
   8  -7 -12   -2.77    5.20
   8  -7 -13   20.69    9.72
   8  -7  13   27.59    9.49
   8  -7  14   -1.71    3.33
   8  -7 -14    7.95    6.33
   8  -7  15   13.00    6.39
   8  -7 -15   19.69    6.72
   8  -7  16    0.52    5.09
   8  -7 -16   -4.64    5.13
   8  -7  17   31.43    8.26
   8  -7 -17   19.20    9.15
   8  -7 -18    0.41    2.72
   8  -7  18   14.21    8.60
   8  -7 -19   33.88   11.47
   8  -7  19   26.96   10.34
   8  -7 -20    3.19    5.13
   8  -7  20   -2.06    3.90
   8  -7 -21   24.58   11.11
   8  -7  21   41.42   15.05
   8  -8   0  123.90   19.45
   8  -8   1   53.83   12.69
   8  -8  -1   48.18   12.35
   8  -8  -2    0.38    3.50
   8  -8   2    7.89    7.66
   8  -8  -3    4.60    4.43
   8  -8   3   11.23    6.14
   8  -8  -4    5.60    1.50
   8  -8   4    6.43    2.05
   8  -8   5   49.32   12.49
   8  -8  -5   35.26   11.22
   8  -8   6   23.49    9.14
   8  -8  -6   19.41    8.19
   8  -8   7   29.71   10.01
   8  -8  -7   32.68   11.16
   8  -8  -8   -0.12    2.70
   8  -8   8   -1.36    5.51
   8  -8  -9    0.43    3.79
   8  -8   9    1.83    5.43
   8  -8 -10   -0.15    5.74
   8  -8  10    6.17    5.59
   8  -8  11   47.45   13.04
   8  -8 -11   58.71   16.32
   8  -8  12   10.92    5.75
   8  -8 -12    8.77    3.88
   8  -8  13    1.99    4.09
   8  -8 -13   13.09    9.07
   8  -8 -14    0.70    3.60
   8  -8  14   11.09    5.85
   8  -8  15   66.46   16.29
   8  -8 -15   43.73   12.91
   8  -8  16   -0.70    0.83
   8  -8 -16   -0.70    2.48
   8  -8  17   49.21   13.21
   8  -8 -17   28.90    8.93
   8  -8  18   -4.06    7.12
   8  -8 -18    4.01    6.75
   8  -8 -19   31.28   12.05
   8  -8  19   24.38    9.27
   8  -8 -20    2.06    3.52
   8  -8  20    1.47    2.74
   8  -9   0   90.21   16.74
   8  -9   1   39.03   12.03
   8  -9  -1   37.81   10.18
   8  -9  -2   13.92    7.93
   8  -9   2   16.74    7.82
   8  -9  -3   32.39   11.73
   8  -9   3   55.72   13.57
   8  -9  -4   10.12    8.03
   8  -9   4    3.94    3.52
   8  -9  -5   24.76    9.31
   8  -9   5   31.80    9.95
   8  -9   6   14.27    8.76
   8  -9  -6   14.37    7.88
   8  -9  -7  164.19   24.78
   8  -9   7  180.93   24.83
   8  -9  -8   32.28   10.58
   8  -9   8   52.79   13.86
   8  -9  -9    3.91    3.15
   8  -9   9    8.25    8.00
   8  -9 -10   22.05    8.90
   8  -9  10   17.22    9.57
   8  -9  11   30.96   11.91
   8  -9 -11   44.96   12.43
   8  -9  12   22.68   10.63
   8  -9 -12    8.79    9.17
   8  -9  13   43.27   11.07
   8  -9 -13   13.87    6.54
   8  -9  14   14.93    8.49
   8  -9 -14   11.51    7.89
   8  -9  15    6.30    8.10
   8  -9 -15   11.67    7.30
   8  -9  16    9.90    6.87
   8  -9 -16    7.86    4.79
   8  -9  17   35.38   12.70
   8  -9 -17   16.13    9.02
   8  -9  18   49.00   14.71
   8  -9 -18   52.12   14.75
   8 -10   0   -6.44    5.77
   8 -10   1   -4.04    5.34
   8 -10  -1   16.99    6.72
   8 -10   2    0.89    3.26
   8 -10  -2    4.41    4.72
   8 -10  -3   -3.88    6.10
   8 -10   3   19.00    8.91
   8 -10  -4   34.01   10.82
   8 -10   4   51.93   13.37
   8 -10  -5    0.85    3.81
   8 -10   5   -2.57    2.57
   8 -10   6   -0.91    3.73
   8 -10  -6   -2.94    4.71
   8 -10   7   12.51    5.38
   8 -10  -7    9.00    6.99
   8 -10   8    1.53    2.34
   8 -10  -8    8.24    3.42
   8 -10  -9   -3.35    7.62
   8 -10   9    5.20    5.37
   8 -10 -10    1.92    4.40
   8 -10  10    5.93    4.58
   8 -10 -11    5.62    2.08
   8 -10  11   -3.76    6.53
   8 -10  12    3.67    3.86
   8 -10 -12    8.54    6.11
   8 -10  13    2.95    1.42
   8 -10 -13   17.83    9.30
   8 -10  14   18.94    8.74
   8 -10 -14   42.55   13.37
   8 -10  15    1.16    4.56
   8 -10 -15   -0.63    2.41
   8 -10  16    0.67    4.46
   8 -10 -16   -3.06    6.51
   8 -11   0    8.39    8.07
   8 -11   1   -1.26    3.43
   8 -11  -1    9.57    5.92
   8 -11   2   -2.57    5.00
   8 -11  -2   -1.35    5.21
   8 -11  -3   -0.84    6.50
   8 -11   3   14.10    6.78
   8 -11   4  118.93   20.06
   8 -11  -4  120.43   21.24
   8 -11  -5  -10.13    8.39
   8 -11   5    2.60    5.99
   8 -11   6   -0.71    3.08
   8 -11  -6   -1.08    2.89
   8 -11   7   -0.16    5.91
   8 -11  -7   -3.43    5.32
   8 -11   8    1.29    3.91
   8 -11  -8    3.22    0.72
   8 -11   9   18.88    8.47
   8 -11  -9   12.24    7.00
   8 -11 -10   42.89   12.54
   8 -11  10   42.04   14.44
   8 -11 -11    0.96    2.47
   8 -11  11    3.81    6.41
   8 -11 -12   11.81    4.76
   8 -11  12   12.50    3.09
   8 -11  13   -1.01    2.85
   8 -11 -13    2.68    3.94
   8 -11  14   35.58   12.33
   8 -11 -14   21.66   11.03
   8 -12   0   33.93   12.45
   8 -12   1    7.48    4.48
   8 -12  -1   35.42   11.84
   8 -12  -2   -1.18    4.51
   8 -12   2   -0.35    3.70
   8 -12  -3    1.29    2.51
   8 -12   3    9.46    7.90
   8 -12  -4    5.23    5.34
   8 -12   4    3.28    6.97
   8 -12  -5    6.20    5.43
   8 -12   5    1.89    6.60
   8 -12  -6   15.15    8.75
   8 -12   6    6.74    6.24
   8 -12   7    0.05    2.30
   8 -12  -7   -4.46    5.41
   8 -12   8   14.27   11.00
   8 -12  -8    4.07    7.77
   8 -12   9   -0.20    3.52
   8 -12  -9    4.98    2.47
   8 -12  10    9.02    5.22
   8 -12 -10   14.57    9.23
   8 -13   0    9.20    6.18
   8 -13   1    3.83    4.64
   8 -13  -1   -6.26    5.06
   8 -13  -2    7.00    5.71
   8 -13   2    4.63    4.36
   8 -13  -3   -0.38    5.84
   8 -13   3    2.68    6.58
   8 -13  -4   -1.82    5.45
   8 -13   4    9.01    4.59
   9   0  12    4.39    5.63
   9   0  13   -0.02    2.73
   9   0  14   38.39   11.80
   9   0  15   -4.60    4.50
   9   0  16   18.28    8.12
   9   0  17   -3.71    4.42
   9   0  18   70.76   15.20
   9   0  19   -0.45    5.51
   9   0  20   27.95   10.92
   9   0  21    0.63    5.78
   9   0  22    2.29    5.10
   9   0  23    5.31    5.96
   9  -1   8  151.05   20.01
   9  -1   9   68.66   13.64
   9  -1  10  118.24   18.66
   9  -1  11   11.47    4.68
   9  -1  12  119.39   20.21
   9  -1  13   42.89   12.45
   9  -1  14   10.87    8.91
   9  -1  15    4.23    4.95
   9  -1  16   78.14   16.40
   9  -1  17    6.09    5.24
   9   1  18    9.72    4.26
   9  -1  18    2.31    1.73
   9   1  19   -0.46    5.18
   9  -1  19   -1.42    7.32
   9   1  20   35.83   12.93
   9  -1  20   23.79    1.64
   9   1  21   -0.75    6.38
   9  -1  21    0.76    0.83
   9   1  22   -4.63    5.68
   9  -1  22    7.55    8.25
   9   1  23   26.83   10.47
   9  -1  23    1.30   10.00
   9  -2   4    2.42    2.56
   9  -2   5   64.87   12.78
   9  -2   6   13.85    6.69
   9  -2   7   26.19    8.36
   9  -2   8    0.68    1.44
   9  -2   9   37.90   10.92
   9  -2  10    3.27    3.02
   9  -2  11    3.62    6.05
   9  -2  12    2.08    1.86
   9  -2  13    4.69    5.57
   9  -2  14   11.96    6.78
   9  -2  15   62.94   14.02
   9  -2  16   -3.22    5.12
   9  -2  17   51.37   15.37
   9  -2  18   -6.02    8.66
   9  -2  19    0.61    3.76
   9  -2  20    2.88    6.42
   9  -2  21    1.05    1.05
   9  -2  22   11.13    6.46
   9  -2  23   -0.79    3.87
   9  -3   0   -0.42    0.62
   9  -3   1  188.67   21.93
   9  -3   2   -0.53    2.15
   9  -3   3   39.20   10.26
   9  -3   4   18.47    7.47
   9  -3   5  123.27   17.94
   9  -3   6    0.25    3.96
   9  -3   7    0.04    3.99
   9  -3   8    7.20    5.55
   9  -3   9  217.56   24.72
   9  -3  10   34.01   10.44
   9  -3  11   -1.19    1.22
   9  -3  12   -5.82    5.47
   9  -3  13   20.64    8.50
   9  -3  14    6.38    3.44
   9  -3  15   64.91   14.22
   9  -3  16    8.66    5.88
   9  -3  17   -2.68    7.69
   9  -3  18    1.40    5.68
   9  -3  19   89.06   20.97
   9  -3  20   31.24   12.56
   9  -3  21    3.24    4.04
   9  -3  22   27.41   11.52
   9  -4   0    5.83    6.11
   9  -4   1    5.86    5.19
   9  -4  -1   -2.86    6.20
   9  -4   2   13.48    5.59
   9  -4  -2    5.08    2.43
   9  -4  -3    5.04    6.07
   9  -4   3    0.14    0.47
   9  -4  -4    2.10    2.76
   9  -4   4   -0.63    5.34
   9  -4   5   23.50    9.98
   9  -4  -5   27.87   10.05
   9  -4   6   14.81    6.34
   9  -4   7   16.84    8.68
   9  -4   8  128.86   20.23
   9  -4   9   19.57    5.48
   9  -4  10    6.10    0.59
   9  -4  11    2.95    0.71
   9  -4  12    8.30    6.68
   9  -4  13    1.34    3.48
   9  -4  14   11.77    6.11
   9  -4  15   -0.41    3.34
   9  -4  16   -0.03    1.81
   9  -4  17   -0.78    6.49
   9  -4  18   -4.25    1.92
   9  -4  19    6.57    8.09
   9  -4  20    1.11    5.25
   9  -4  21   -8.41    8.35
   9  -4  22   12.27    4.86
   9  -5   0   -3.57    2.60
   9  -5   1   -0.93    4.31
   9  -5  -1    0.93    4.83
   9  -5  -2   77.41   14.86
   9  -5   2   93.83   16.28
   9  -5  -3   26.20    9.11
   9  -5   3   12.85    5.13
   9  -5  -4   -1.76    2.65
   9  -5   4   -5.86    4.59
   9  -5   5    1.49    2.02
   9  -5  -5   -3.91    4.44
   9  -5   6   16.55    8.20
   9  -5  -6   39.45   10.05
   9  -5   7    6.67    5.05
   9  -5  -7    3.86    6.09
   9  -5  -8   73.79   15.94
   9  -5   8   71.82   15.39
   9  -5   9    5.44    0.65
   9  -5  -9    7.40    6.25
   9  -5  10   49.56   13.27
   9  -5  11   23.46   10.64
   9  -5  12   63.35   15.12
   9  -5  13   22.65   10.88
   9  -5  14   42.24   13.39
   9  -5  15   14.27    7.61
   9  -5  16  118.47   21.49
   9  -5  17    3.60    3.60
   9  -5  18    0.83    3.61
   9  -5  19   -4.47    6.67
   9  -5  20   18.99    9.06
   9  -5  21   25.40    9.81
   9  -6   0    3.34    6.76
   9  -6  -1   10.51    5.23
   9  -6   1    4.68    5.30
   9  -6  -2   13.62    5.55
   9  -6   2    4.51    3.82
   9  -6  -3   17.58    7.13
   9  -6   3    6.94    7.05
   9  -6  -4    0.49    4.35
   9  -6   4    8.42    6.38
   9  -6  -5    0.74    1.68
   9  -6   5   -2.44    8.13
   9  -6   6    2.73    5.36
   9  -6  -6   -2.71    3.28
   9  -6   7    2.46    2.04
   9  -6  -7    3.03    1.95
   9  -6   8   20.90    8.65
   9  -6  -8   22.23   10.42
   9  -6   9    0.92    3.19
   9  -6  -9    3.09    3.13
   9  -6 -10    0.65    1.62
   9  -6  10    3.22    2.56
   9  -6  11    0.05    3.69
   9  -6 -11   -1.97    3.22
   9  -6  12    2.41    3.36
   9  -6 -12   -2.19    4.35
   9  -6  13   -0.03    2.67
   9  -6  14    4.04    5.62
   9  -6  15    0.85    3.10
   9  -6  16   -2.11    2.60
   9  -6  17   18.37    9.01
   9  -6  18   24.36    8.99
   9  -6  19    6.30    3.56
   9  -6  20    9.14    7.43
   9  -7   0   -2.53    5.12
   9  -7  -1    9.81    4.39
   9  -7   1   24.93   10.03
   9  -7  -2   34.73   10.98
   9  -7   2   22.71    9.31
   9  -7  -3  108.98   18.54
   9  -7   3  104.02   19.04
   9  -7  -4   -2.27    3.41
   9  -7   4   -6.50    5.51
   9  -7  -5  105.92   18.16
   9  -7   5   65.22   14.60
   9  -7   6   10.85    6.47
   9  -7  -6   47.14   13.61
   9  -7   7    4.86    2.47
   9  -7  -7    8.94    5.44
   9  -7   8    6.65    6.84
   9  -7  -8   12.18    6.66
   9  -7   9   59.72   14.13
   9  -7  -9   69.95   15.89
   9  -7 -10   20.08    6.73
   9  -7  10   15.21    7.51
   9  -7 -11    8.98    6.10
   9  -7  11    9.62    6.63
   9  -7  12   21.65    8.77
   9  -7 -12   13.23    4.37
   9  -7 -13   68.30   16.27
   9  -7  13   92.21   18.45
   9  -7  14   -0.14    6.56
   9  -7 -14    8.85    8.43
   9  -7  15   26.55    9.26
   9  -7  16   34.01   11.08
   9  -7  17   49.98   14.49
   9  -7  18   11.98    5.56
   9  -7  19   -1.99    6.84
   9  -8   0   -6.98    4.50
   9  -8  -1    3.07    4.19
   9  -8   1    8.42    8.11
   9  -8  -2   13.68    6.92
   9  -8   2    0.90    3.08
   9  -8  -3    9.01    3.31
   9  -8   3   13.84    7.83
   9  -8  -4    2.93    4.02
   9  -8   4   12.35    8.11
   9  -8  -5   32.43   11.52
   9  -8   5   23.17    8.76
   9  -8   6    7.46    5.00
   9  -8  -6   15.61    7.68
   9  -8   7   -5.23    6.46
   9  -8  -7    2.69    4.20
   9  -8   8    1.59    2.71
   9  -8  -8    7.00    6.80
   9  -8   9   13.69    6.04
   9  -8  -9   10.39    7.03
   9  -8 -10   -3.38    3.10
   9  -8  10    2.95    3.59
   9  -8 -11    9.55    4.95
   9  -8  11   -1.19    4.65
   9  -8  12    9.63    5.40
   9  -8 -12   -2.03    4.17
   9  -8  13    5.44    5.99
   9  -8 -13   -4.70    3.66
   9  -8  14    8.78    4.69
   9  -8 -14    3.84    3.27
   9  -8  15    2.31    2.53
   9  -8 -15   11.49    9.49
   9  -8  16   -1.44    5.10
   9  -8 -16    9.52    9.76
   9  -8  17   -0.46    8.08
   9  -9   0   -3.54    4.72
   9  -9  -1   42.39   13.11
   9  -9   1   26.09   10.39
   9  -9  -2    9.64    5.27
   9  -9   2   17.73    8.73
   9  -9  -3   17.20    8.08
   9  -9   3   15.72    6.28
   9  -9  -4   -2.35    5.96
   9  -9   4    7.34    6.90
   9  -9  -5   19.69    8.93
   9  -9   5    3.07    4.71
   9  -9  -6   86.10   17.92
   9  -9   6   73.36   18.63
   9  -9   7    2.72    3.91
   9  -9  -7   13.70    9.63
   9  -9   8    2.29    4.78
   9  -9  -8    3.51    6.49
   9  -9   9   68.29   16.76
   9  -9  -9   86.08   17.69
   9  -9  10    2.69    0.88
   9  -9 -10    5.16    4.70
   9  -9 -11   -3.33    3.27
   9  -9  11    6.36    4.18
   9  -9 -12   19.05    9.06
   9  -9  12    4.03    0.71
   9  -9  13   45.45   12.81
   9  -9 -13   60.30   15.32
   9  -9  14    2.01    0.46
   9  -9 -14    1.10    2.85
   9  -9  15   11.81    9.14
   9  -9 -15    6.96    6.38
   9 -10   0   -6.07    5.10
   9 -10  -1    0.73    3.37
   9 -10   1    4.90    3.77
   9 -10  -2   -3.67    6.22
   9 -10   2    1.89    6.68
   9 -10  -3   10.49    9.15
   9 -10   3    1.50    2.00
   9 -10  -4   22.65   10.72
   9 -10   4    8.05    5.93
   9 -10  -5   13.94    9.61
   9 -10   5    5.75    6.97
   9 -10  -6    4.79    6.12
   9 -10   6    2.34    1.77
   9 -10   7   -0.55    2.36
   9 -10  -7    1.01    5.69
   9 -10   8   -2.86    3.71
   9 -10  -8    6.89    5.19
   9 -10   9   14.67    4.91
   9 -10  -9   21.39    9.52
   9 -10  10    1.75    2.32
   9 -10 -10   -2.96    8.32
   9 -10  11   12.89    9.49
   9 -10 -11   13.64    9.89
   9 -10 -12    4.94    7.35
   9 -10  12    8.40    7.61
   9 -10 -13    6.78    6.63
   9 -10  13    0.31    2.88
   9 -11   0    5.10    5.50
   9 -11  -1   -0.03    2.81
   9 -11   1    0.22    1.97
   9 -11  -2   13.01    6.89
   9 -11   2   40.06   12.97
   9 -11  -3    2.90    2.01
   9 -11   3   10.82    6.11
   9 -11  -4   -1.91    2.90
   9 -11   4   -1.81    3.85
   9 -11  -5    2.96    4.38
   9 -11   5    9.69    5.69
   9 -11  -6    8.68    6.29
   9 -11   6    4.82    3.83
   9 -11   7    9.28    6.86
   9 -11  -7    2.00    1.08
   9 -11   8   14.19    8.77
   9 -11  -8   25.96   10.65
   9 -11   9   13.52    8.50
   9 -11  -9    2.67    4.89
   9 -12   0   -8.16    6.85
   9 -12  -1    1.77    6.84
   9 -12   1    0.65    4.19
   9 -12  -2    4.11    5.15
   9 -12   2    1.62    2.18
  10  -2  19   32.11   12.38
  10  -2  20   -3.74    4.24
  10  -3  12    6.44    6.23
  10  -3  13   51.77   10.48
  10  -3  14   -1.50    4.58
  10  -3  15   46.68   14.83
  10  -3  16   -0.91    1.32
  10  -3  17    6.48    2.38
  10  -3  18   -6.04    8.30
  10  -3  19   46.32   14.58
  10  -3  20   20.06    4.75
  10  -4   7   61.52   14.28
  10  -4   8    6.17    7.16
  10  -4   9    1.23    2.95
  10  -4  10    1.88    1.97
  10  -4  11   -3.24    2.86
  10  -4  12   14.54    6.74
  10  -4  13   20.99    7.56
  10  -4  14   -7.37    4.30
  10  -4  15    1.15    1.15
  10  -4  16    5.18    2.25
  10  -4  17    9.26    7.92
  10  -4  18    9.06    8.48
  10  -4  19   -6.91    9.04
  10  -5   3   12.71    3.23
  10  -5   4   32.51   11.05
  10  -5   5    4.31    6.62
  10  -5   6    6.59    2.27
  10  -5   7    4.77    3.64
  10  -5   8   19.14    8.93
  10  -5   9    5.40    4.37
  10  -5  10   75.47   16.58
  10  -5  11   -0.94    3.70
  10  -5  12   -3.04    5.85
  10  -5  13    4.99    6.44
  10  -5  14   26.81    9.92
  10  -5  15   -4.16    6.00
  10  -5  16   -2.32    1.31
  10  -5  17    3.97    5.68
  10  -5  18    4.94    5.59
  10  -6   0   62.02   14.48
  10  -6   1    0.93    5.69
  10  -6  -1   -3.30    5.82
  10  -6   2   10.50    3.63
  10  -6   3    3.46    3.71
  10  -6   4   33.76   11.72
  10  -6   5   -0.81    4.90
  10  -6   6   10.31    7.15
  10  -6   7   -1.71    1.84
  10  -6   8   19.23    8.58
  10  -6   9    5.11    2.40
  10  -6  10   69.75   16.77
  10  -6  11   -1.66    3.81
  10  -6  12   -1.66    4.88
  10  -6  13    5.58    7.22
  10  -6  14    4.62    8.72
  10  -6  15    5.43    7.06
  10  -6  16    6.27    3.11
  10  -6  17    1.56    6.21
  10  -7   0    7.16    6.58
  10  -7   1   59.81   15.27
  10  -7  -1   67.06   15.52
  10  -7   2   13.40    6.90
  10  -7  -2   13.34    7.74
  10  -7  -3   32.66   10.74
  10  -7   3   36.42   12.36
  10  -7  -4   -0.12    4.63
  10  -7   4    7.38    3.63
  10  -7   5   -5.08    8.32
  10  -7   6    5.50    2.85
  10  -7   7   31.61   10.20
  10  -7   8   -5.84    5.05
  10  -7   9   -0.96    4.00
  10  -7  10   -7.67    8.21
  10  -7  11   72.81   15.70
  10  -7  12   18.92    8.94
  10  -7  13   12.38    6.90
  10  -7  14    2.38    2.56
  10  -7  15    7.95    4.82
  10  -8   0   37.29   11.49
  10  -8   1    1.93    5.15
  10  -8  -1    7.17    5.10
  10  -8  -2   -0.94    4.60
  10  -8   2   16.21    9.24
  10  -8  -3    6.30    3.09
  10  -8   3   -3.94    5.71
  10  -8  -4    8.89    8.55
  10  -8   4    2.63    7.63
  10  -8  -5    7.69    2.60
  10  -8   5    0.86    1.34
  10  -8  -6   10.16    8.36
  10  -8   6   10.74    4.43
  10  -8   7   69.48   18.18
  10  -8  -7   77.52   17.34
  10  -8   8    5.89    3.88
  10  -8   9   -3.93    5.70
  10  -8  10   -1.77    1.51
  10  -8  11   24.69   11.21
  10  -8  12   11.65    9.74
  10  -8  13    3.35    5.13
  10  -9   0   58.58   16.36
  10  -9   1    4.49    2.60
  10  -9  -1    6.31    4.83
  10  -9  -2    8.38    5.71
  10  -9   2   -0.49    4.00
  10  -9  -3   36.63   12.19
  10  -9   3   39.51   13.46
  10  -9  -4   20.07    8.82
  10  -9   4   35.52   12.18
  10  -9  -5   27.23   10.22
  10  -9   5   19.25    4.70
  10  -9  -6   -5.80    5.72
  10  -9   6   -8.24    4.69
  10  -9   7   29.38   13.01
  10  -9  -7   33.08   10.74
  10  -9   8    2.35    1.02
  10  -9  -8    1.48    0.60
  10  -9   9    6.90    5.93
  10  -9  -9   -3.30    2.82
  10  -9  10   -2.81    6.74
  10  -9  11    7.28    5.34
  10 -10   0    0.20    4.91
  10 -10   1   17.93    7.66
  10 -10  -1   20.93    4.26
  10 -10  -2    9.97    8.87
  10 -10   2    4.64    9.29
  10 -10  -3   11.88    6.42
  10 -10   3   10.26    5.95
  10 -10  -4    5.55    8.17
  10 -10   4   -1.93    4.04
  10 -10  -5    5.85    6.50
  10 -10   5    1.24    6.99
  10 -10  -6    0.49    3.24
  10 -10   6   -5.47    4.80
  10 -10  -7    5.66    5.68
  10 -10   7    7.65   10.11
  11  -7  11   -2.23    2.58
  11  -8   6   -0.32    4.95
  11  -8   7   -6.15    7.76
   0   0   0    0.00    0.00

TITL 033_270K_SulfamerazineF2_ in Pbca
REM Pbca (#61 in standard setting)
CELL 0.68890   9.135712  11.678164  22.883408  90.0000  90.0000  90.0000
ZERR    8.00   0.000339   0.000346   0.000562   0.0000   0.0000   0.0000
LATT  1
SYMM -x+1/2,-y, z+1/2
SYMM -x, y+1/2,-z+1/2
SYMM  x+1/2,-y+1/2,-z
SFAC C H N O S
UNIT 88.00 96.00 32.00 16.00 8.00
TREF
HKLF 4
END
_computing_structure_solution     'SHELXT 2014/5 (Sheldrick, 2014)'
;
_shelx_hkl_checksum              83173
loop_
_space_group_symop_operation_xyz
'x, y, z'
'-x+1/2, -y, z+1/2'
'-x, y+1/2, -z+1/2'
'x+1/2, -y+1/2, -z'
'-x, -y, -z'
'x-1/2, y, -z-1/2'
'x, -y-1/2, z-1/2'
'-x-1/2, y-1/2, z'
loop_
_atom_site_label
_atom_site_type_symbol
_atom_site_fract_x
_atom_site_fract_y
_atom_site_fract_z
_atom_site_U_iso_or_equiv
_atom_site_adp_type
_atom_site_occupancy
_atom_site_site_symmetry_order
_atom_site_calc_flag
_atom_site_refinement_flags_posn
_atom_site_refinement_flags_adp
_atom_site_refinement_flags_occupancy
_atom_site_disorder_assembly
_atom_site_disorder_group
S1 S 0.33288(8) 0.34652(6) 0.38980(3) 0.0367(2) Uani 1 1 d . . . . .
O2 O 0.1982(2) 0.39693(18) 0.40954(8) 0.0451(5) Uani 1 1 d . . . . .
O1 O 0.3423(2) 0.22486(15) 0.38622(8) 0.0477(5) Uani 1 1 d . . . . .
N4 N 0.6657(3) 0.42620(19) 0.48535(10) 0.0398(5) Uani 1 1 d . . . . .
N3 N 0.6551(3) 0.28611(19) 0.40909(10) 0.0411(5) Uani 1 1 d . . . . .
N2 N 0.4513(3) 0.3948(2) 0.43758(10) 0.0392(6) Uani 1 1 d . . . . .
N1 N 0.4561(4) 0.5334(3) 0.15548(12) 0.0570(8) Uani 1 1 d . . . . .
C1 C 0.3762(3) 0.4047(2) 0.32191(11) 0.0370(6) Uani 1 1 d . . . . .
C2 C 0.4486(4) 0.3383(3) 0.28057(13) 0.0485(7) Uani 1 1 d . . . . .
H2 H 0.4775 0.2641 0.2897 0.063 Uiso 1 1 calc R U . . .
C3 C 0.4775(4) 0.3827(3) 0.22607(13) 0.0516(8) Uani 1 1 d . . . . .
H3 H 0.5272 0.3382 0.1988 0.067 Uiso 1 1 calc R U . . .
C4 C 0.4337(3) 0.4932(2) 0.21098(12) 0.0427(6) Uani 1 1 d . . . . .
C5 C 0.3603(3) 0.5590(2) 0.25310(13) 0.0455(7) Uani 1 1 d . . . . .
H5 H 0.3290 0.6326 0.2439 0.059 Uiso 1 1 calc R U . . .
C6 C 0.3344(3) 0.5152(2) 0.30793(12) 0.0425(7) Uani 1 1 d . . . . .
H6 H 0.2882 0.5603 0.3359 0.055 Uiso 1 1 calc R U . . .
C7 C 0.5987(3) 0.3664(2) 0.44330(11) 0.0366(6) Uani 1 1 d . . . . .
C8 C 0.8079(3) 0.4014(3) 0.49276(13) 0.0469(7) Uani 1 1 d . . . . .
H8 H 0.8605 0.4410 0.5211 0.061 Uiso 1 1 calc R U . . .
C9 C 0.8782(3) 0.3202(3) 0.46030(12) 0.0470(7) Uani 1 1 d . . . . .
H9 H 0.9767 0.3042 0.4662 0.061 Uiso 1 1 calc R U . . .
C10 C 0.7979(3) 0.2626(3) 0.41825(13) 0.0455(7) Uani 1 1 d . . . . .
C11 C 0.8656(4) 0.1706(3) 0.38144(16) 0.0646(10) Uani 1 1 d . . . . .
H11A H 0.8233 0.0980 0.3914 0.084 Uiso 1 1 calc R U . . .
H11B H 0.9692 0.1684 0.3884 0.084 Uiso 1 1 calc R U . . .
H11C H 0.8477 0.1866 0.3409 0.084 Uiso 1 1 calc R U . . .
H1N2 H 0.420(3) 0.446(3) 0.4592(13) 0.044(8) Uiso 1 1 d . . . . .
H1N1 H 0.516(4) 0.498(3) 0.1373(15) 0.051(10) Uiso 1 1 d . . . . .
H2N1 H 0.453(4) 0.612(4) 0.1512(18) 0.095(14) Uiso 1 1 d . . . . .
loop_
_atom_site_aniso_label
_atom_site_aniso_U_11
_atom_site_aniso_U_22
_atom_site_aniso_U_33
_atom_site_aniso_U_23
_atom_site_aniso_U_13
_atom_site_aniso_U_12
S1 0.0383(4) 0.0385(3) 0.0332(3) -0.0028(2) 0.0000(3) -0.0042(3)
O2 0.0349(12) 0.0618(13) 0.0386(10) -0.0015(9) 0.0014(8) -0.0032(9)
O1 0.0649(15) 0.0360(10) 0.0422(11) -0.0016(8) -0.0008(10) -0.0099(9)
N4 0.0372(15) 0.0444(13) 0.0376(11) -0.0043(9) -0.0031(9) 0.0032(10)
N3 0.0407(15) 0.0421(12) 0.0403(12) -0.0027(9) 0.0033(10) 0.0076(10)
N2 0.0354(15) 0.0429(13) 0.0393(12) -0.0114(10) -0.0027(10) 0.0053(10)
N1 0.075(2) 0.0513(16) 0.0445(14) 0.0045(12) 0.0170(14) 0.0034(16)
C1 0.0391(16) 0.0394(13) 0.0326(12) -0.0019(10) 0.0034(11) -0.0033(11)
C2 0.057(2) 0.0419(15) 0.0462(16) 0.0011(12) 0.0081(14) 0.0105(14)
C3 0.068(2) 0.0461(16) 0.0411(15) -0.0016(12) 0.0133(15) 0.0084(15)
C4 0.0445(18) 0.0435(15) 0.0401(14) 0.0015(11) 0.0035(12) -0.0056(13)
C5 0.0575(19) 0.0341(13) 0.0448(14) 0.0008(11) 0.0055(14) -0.0009(13)
C6 0.0501(18) 0.0360(13) 0.0415(14) -0.0059(11) 0.0074(12) -0.0033(12)
C7 0.0347(16) 0.0408(13) 0.0342(12) 0.0028(10) -0.0001(11) 0.0019(12)
C8 0.0401(18) 0.0590(18) 0.0417(15) 0.0016(13) -0.0032(13) 0.0013(14)
C9 0.0332(17) 0.0626(19) 0.0453(15) 0.0090(13) 0.0006(13) 0.0088(14)
C10 0.0467(19) 0.0453(15) 0.0447(15) 0.0078(12) 0.0100(13) 0.0084(13)
C11 0.057(2) 0.063(2) 0.073(2) -0.0056(17) 0.0134(18) 0.0145(17)
loop_
_atom_type_symbol
_atom_type_description
_atom_type_scat_dispersion_real
_atom_type_scat_dispersion_imag
_atom_type_scat_source
C C 0.0033 0.0016 'International Tables Vol C Tables 4.2.6.8 and 6.1.1.4'
H H 0.0000 0.0000 'International Tables Vol C Tables 4.2.6.8 and 6.1.1.4'
N N 0.0061 0.0033 'International Tables Vol C Tables 4.2.6.8 and 6.1.1.4'
O O 0.0106 0.0060 'International Tables Vol C Tables 4.2.6.8 and 6.1.1.4'
S S 0.1246 0.1234 'International Tables Vol C Tables 4.2.6.8 and 6.1.1.4'
loop_
_geom_angle_atom_site_label_1
_geom_angle_atom_site_label_2
_geom_angle_atom_site_label_3
_geom_angle
_geom_angle_site_symmetry_1
_geom_angle_site_symmetry_3
O1 S1 O2 118.57(13) . .
O1 S1 N2 109.95(13) . .
O2 S1 N2 102.37(12) . .
O1 S1 C1 108.91(12) . .
O2 S1 C1 108.38(13) . .
N2 S1 C1 108.12(13) . .
C7 N4 C8 114.9(2) . .
C7 N3 C10 115.3(3) . .
C7 N2 S1 128.24(19) . .
C7 N2 H1N2 117(2) . .
S1 N2 H1N2 115(2) . .
C4 N1 H1N1 114(2) . .
C4 N1 H2N1 116(3) . .
H1N1 N1 H2N1 119(4) . .
C6 C1 C2 119.6(2) . .
C6 C1 S1 120.5(2) . .
C2 C1 S1 119.8(2) . .
C3 C2 C1 119.8(3) . .
C3 C2 H2 120.1 . .
C1 C2 H2 120.1 . .
C2 C3 C4 121.2(3) . .
C2 C3 H3 119.4 . .
C4 C3 H3 119.4 . .
N1 C4 C3 120.3(3) . .
N1 C4 C5 121.4(3) . .
C3 C4 C5 118.3(3) . .
C6 C5 C4 120.4(3) . .
C6 C5 H5 119.8 . .
C4 C5 H5 119.8 . .
C5 C6 C1 120.7(3) . .
C5 C6 H6 119.7 . .
C1 C6 H6 119.7 . .
N3 C7 N4 128.0(3) . .
N3 C7 N2 119.3(2) . .
N4 C7 N2 112.7(2) . .
N4 C8 C9 122.5(3) . .
N4 C8 H8 118.8 . .
C9 C8 H8 118.8 . .
C8 C9 C10 117.8(3) . .
C8 C9 H9 121.1 . .
C10 C9 H9 121.1 . .
N3 C10 C9 121.4(3) . .
N3 C10 C11 117.2(3) . .
C9 C10 C11 121.4(3) . .
C10 C11 H11A 109.5 . .
C10 C11 H11B 109.5 . .
H11A C11 H11B 109.5 . .
C10 C11 H11C 109.5 . .
H11A C11 H11C 109.5 . .
H11B C11 H11C 109.5 . .
loop_
_geom_bond_atom_site_label_1
_geom_bond_atom_site_label_2
_geom_bond_distance
_geom_bond_site_symmetry_2
S1 O1 1.4258(19) .
S1 O2 1.436(2) .
S1 N2 1.638(2) .
S1 C1 1.741(3) .
N4 C7 1.338(3) .
N4 C8 1.341(4) .
N3 C7 1.326(3) .
N3 C10 1.349(4) .
N2 C7 1.393(4) .
N2 H1N2 0.82(3) .
N1 C4 1.369(4) .
N1 H1N1 0.80(3) .
N1 H2N1 0.93(4) .
C1 C6 1.383(4) .
C1 C2 1.391(4) .
C2 C3 1.376(4) .
C2 H2 0.9300 .
C3 C4 1.395(4) .
C3 H3 0.9300 .
C4 C5 1.403(4) .
C5 C6 1.375(4) .
C5 H5 0.9300 .
C6 H6 0.9300 .
C8 C9 1.365(4) .
C8 H8 0.9300 .
C9 C10 1.384(4) .
C9 H9 0.9300 .
C10 C11 1.499(4) .
C11 H11A 0.9600 .
C11 H11B 0.9600 .
C11 H11C 0.9600 .
loop_
_geom_hbond_atom_site_label_D
_geom_hbond_atom_site_label_H
_geom_hbond_atom_site_label_A
_geom_hbond_distance_DH
_geom_hbond_distance_HA
_geom_hbond_distance_DA
_geom_hbond_angle_DHA
_geom_hbond_site_symmetry_A
C6 H6 O1 0.93 2.54 3.437(3) 162.6 8_665
C8 H8 O2 0.93 2.53 3.248(4) 134.4 5_666
C9 H9 O2 0.93 2.64 3.271(4) 126.1 1_655
N2 H1N2 N4 0.82(3) 2.11(3) 2.936(3) 178(3) 5_666
N1 H1N1 O2 0.80(3) 2.31(3) 3.106(4) 176(3) 6_656
N1 H2N1 O1 0.93(4) 2.44(4) 3.049(4) 123(3) 3_655
N1 H2N1 N3 0.93(4) 2.65(4) 3.453(4) 146(3) 3_655
loop_
_geom_torsion_atom_site_label_1
_geom_torsion_atom_site_label_2
_geom_torsion_atom_site_label_3
_geom_torsion_atom_site_label_4
_geom_torsion
_geom_torsion_site_symmetry_1
_geom_torsion_site_symmetry_2
_geom_torsion_site_symmetry_3
_geom_torsion_site_symmetry_4
O1 S1 N2 C7 47.2(3) . . . .
O2 S1 N2 C7 174.1(2) . . . .
C1 S1 N2 C7 -71.6(3) . . . .
O1 S1 C1 C6 160.5(2) . . . .
O2 S1 C1 C6 30.3(3) . . . .
N2 S1 C1 C6 -80.0(3) . . . .
O1 S1 C1 C2 -17.0(3) . . . .
O2 S1 C1 C2 -147.3(2) . . . .
N2 S1 C1 C2 102.4(3) . . . .
C6 C1 C2 C3 -0.3(5) . . . .
S1 C1 C2 C3 177.3(3) . . . .
C1 C2 C3 C4 -0.9(5) . . . .
C2 C3 C4 N1 -176.3(3) . . . .
C2 C3 C4 C5 0.6(5) . . . .
N1 C4 C5 C6 177.6(3) . . . .
C3 C4 C5 C6 0.8(5) . . . .
C4 C5 C6 C1 -1.9(5) . . . .
C2 C1 C6 C5 1.7(5) . . . .
S1 C1 C6 C5 -175.9(2) . . . .
C10 N3 C7 N4 0.0(4) . . . .
C10 N3 C7 N2 -178.9(2) . . . .
C8 N4 C7 N3 0.7(4) . . . .
C8 N4 C7 N2 179.6(2) . . . .
S1 N2 C7 N3 -4.1(4) . . . .
S1 N2 C7 N4 176.8(2) . . . .
C7 N4 C8 C9 -0.8(4) . . . .
N4 C8 C9 C10 0.2(5) . . . .
C7 N3 C10 C9 -0.6(4) . . . .
C7 N3 C10 C11 178.7(3) . . . .
C8 C9 C10 N3 0.5(4) . . . .
C8 C9 C10 C11 -178.8(3) . . . .
