#------------------------------------------------------------------------------
#$Date: 2017-09-28 16:13:46 +0300 (Thu, 28 Sep 2017) $
#$Revision: 201439 $
#$URL: file:///home/coder/svn-repositories/cod/cif/1/54/74/1547437.cif $
#------------------------------------------------------------------------------
#
# This file is available in the Crystallography Open Database (COD),
# http://www.crystallography.net/
#
# All data on this site have been placed in the public domain by the
# contributors.
#
data_1547437
loop_
_publ_author_name
'Anuradha R. Pallipurath'
'Jonathan M. Skelton'
'Mark R. Warren'
'Naghmeh Kamali'
'Patrick McArdle'
'Andrea Erxleben'
_publ_section_title
;
 Sulfamerazine: Understanding the Influence of Slip Planes in the
 Polymorphic Phase Transformation through X-Ray Crystallographic Studies
 and ab Initio Lattice Dynamics
;
_journal_name_full               'Molecular Pharmaceutics'
_journal_page_first              3735
_journal_page_last               3748
_journal_paper_doi               10.1021/acs.molpharmaceut.5b00504
_journal_volume                  12
_journal_year                    2015
_chemical_formula_moiety         'C11 H12 N4 O2 S'
_chemical_formula_sum            'C11 H12 N4 O2 S'
_chemical_formula_weight         264.31
_chemical_name_common            Sulfamerazine
_chemical_name_systematic        4-amino-N-(4-methylpyrimidin-2-yl)
_space_group_crystal_system      orthorhombic
_space_group_IT_number           61
_space_group_name_Hall           '-P 2ac 2ab'
_space_group_name_H-M_alt        'P b c a'
_symmetry_space_group_name_Hall  '-P 2ac 2ab'
_symmetry_space_group_name_H-M   'P b c a'
_atom_sites_solution_hydrogens   mixed
_cell_angle_alpha                90
_cell_angle_beta                 90
_cell_angle_gamma                90
_cell_formula_units_Z            8
_cell_length_a                   9.0881(3)
_cell_length_b                   11.5538(2)
_cell_length_c                   22.8478(3)
_cell_measurement_reflns_used    7693
_cell_measurement_temperature    160
_cell_measurement_theta_max      29.5030
_cell_measurement_theta_min      1.7350
_cell_volume                     2399.07(9)
_computing_cell_refinement
;
CrysAlisPro, Agilent Technologies,
Version 1.171.37.34 (release 22-05-2014 CrysAlis171 .NET)
(compiled May 22 2014,16:03:01)
;
_computing_data_collection
;
CrysAlisPro, Agilent Technologies,
Version 1.171.37.34 (release 22-05-2014 CrysAlis171 .NET)
(compiled May 22 2014,16:03:01)
;
_computing_data_reduction
;
CrysAlisPro, Agilent Technologies,
Version 1.171.37.34 (release 22-05-2014 CrysAlis171 .NET)
(compiled May 22 2014,16:03:01)
;
_computing_molecular_graphics    OSCAIL
_computing_structure_refinement  'SHELXL-2014/7 (Sheldrick, 2014)'
_computing_structure_solution    SHELXT
_diffrn_ambient_temperature      160
_diffrn_measured_fraction_theta_full 0.989
_diffrn_measured_fraction_theta_max 0.971
_diffrn_measurement_device       'CrystalLogic Kappa (3 circle)'
_diffrn_measurement_device_type  'Rigaku Saturn724+ (2x2 bin mode)'
_diffrn_measurement_method
;
omega rotation with 1 degree frames
;
_diffrn_measurement_specimen_support 'MiTeGen loop'
_diffrn_radiation_monochromator  'double crystal Silicon 111'
_diffrn_radiation_source         'Diamond Light Source Beamline I19'
_diffrn_radiation_type           Synchrotron
_diffrn_radiation_wavelength     0.68890
_diffrn_reflns_av_R_equivalents  0.0648
_diffrn_reflns_av_unetI/netI     0.0416
_diffrn_reflns_Laue_measured_fraction_full 0.989
_diffrn_reflns_Laue_measured_fraction_max 0.971
_diffrn_reflns_limit_h_max       10
_diffrn_reflns_limit_h_min       -12
_diffrn_reflns_limit_k_max       13
_diffrn_reflns_limit_k_min       -16
_diffrn_reflns_limit_l_max       32
_diffrn_reflns_limit_l_min       -31
_diffrn_reflns_number            21282
_diffrn_reflns_point_group_measured_fraction_full 0.989
_diffrn_reflns_point_group_measured_fraction_max 0.971
_diffrn_reflns_theta_full        24.415
_diffrn_reflns_theta_max         29.473
_diffrn_reflns_theta_min         1.728
_exptl_absorpt_coefficient_mu    0.270
_exptl_absorpt_correction_T_max  1.00000
_exptl_absorpt_correction_T_min  0.94678
_exptl_absorpt_correction_type   multi-scan
_exptl_absorpt_process_details
;
CrysAlisPro, Agilent Technologies,
Version 1.171.36.28 (release 01-02-2013 CrysAlis171 .NET)
Empirical absorption correction using spherical harmonics,
implemented in SCALE3 ABSPACK scaling algorithm.
;
_exptl_crystal_colour            Colourless
_exptl_crystal_density_diffrn    1.464
_exptl_crystal_description       Parallelepiped
_exptl_crystal_F_000             1104
_exptl_crystal_size_max          0.50
_exptl_crystal_size_mid          0.40
_exptl_crystal_size_min          0.20
_refine_diff_density_max         0.368
_refine_diff_density_min         -0.430
_refine_diff_density_rms         0.065
_refine_ls_extinction_coef       .
_refine_ls_extinction_method     none
_refine_ls_goodness_of_fit_ref   1.000
_refine_ls_hydrogen_treatment    mixed
_refine_ls_matrix_type           full
_refine_ls_number_parameters     176
_refine_ls_number_reflns         3552
_refine_ls_number_restraints     0
_refine_ls_restrained_S_all      1.000
_refine_ls_R_factor_all          0.0620
_refine_ls_R_factor_gt           0.0441
_refine_ls_shift/su_max          0.000
_refine_ls_shift/su_mean         0.000
_refine_ls_structure_factor_coef Fsqd
_refine_ls_weighting_details
'w=1/[\s^2^(Fo^2^)+(0.0463P)^2^+1.4827P] where P=(Fo^2^+2Fc^2^)/3'
_refine_ls_weighting_scheme      calc
_refine_ls_wR_factor_gt          0.1028
_refine_ls_wR_factor_ref         0.1149
_reflns_Friedel_coverage         0.000
_reflns_Friedel_fraction_full    .
_reflns_Friedel_fraction_max     .
_reflns_number_gt                2752
_reflns_number_total             3552
_reflns_threshold_expression     'I > 2\s(I)'
_cod_data_source_file            Exp_Form-II2FSynchrotron_Form-II_160K.cif
_cod_data_source_block           160k_smz-f2_a
_cod_database_code               1547437
_shelx_space_group_comment
;
The symmetry employed for this shelxl refinement is uniquely defined
by the following loop, which should always be used as a source of
symmetry information in preference to the above space-group names.
They are only intended as comments.
;
_shelx_estimated_absorpt_t_min   0.877
_shelx_estimated_absorpt_t_max   0.948
_shelx_res_file
;

    160k_smz-f2_a.res created by SHELXL-2014/7

TITL 160k_smz-f2_a.res in Pbca
REM Old TITL 046_160K_SulfamerazineF2_ in Pbca
REM SHELXT solution in Pbca
REM R1 0.107,  Rweak 0.198,  Alpha 0.023,  Orientation as input
REM Formula found by SHELXT:  C12 N3 O2 S
CELL  0.68890   9.0881  11.5538  22.8478   90.000   90.000   90.000
ZERR    8.000   0.0003   0.0002   0.0003    0.000    0.000    0.000
REM SG 61 8 8 Pbca P21/b21/c21/a PGmmm Orthorhombic
LATT 1
REM SG  ASUN  1  .5 .5 .5
REM SG  ORGN  at Inv.cen.
SYMM 0.5-X,-Y,0.5+Z
SYMM -X,0.5+Y,0.5-Z
SYMM 0.5+X,0.5-Y,-Z
SFAC C H N O S
UNIT 88 96  32  16  8
FMAP 2
PLAN -32
BOND $H
L.S. 12
SIZE    0.50  0.40  0.20
ACTA
CONF
REM Instructions for potential hydrogen bonds
EQIV $1 -x+1/2, y+1/2, z
HTAB C6 O1_$1
EQIV $2 -x+1, -y+1, -z+1
HTAB C8 O2_$2
EQIV $3 x+1, y, z
HTAB C9 O2_$3
HTAB N2 N4_$2
EQIV $4 x+1/2, y, -z+1/2
HTAB N1 O2_$4
EQIV $5 -x+1, y+1/2, -z+1/2
HTAB N1 O1_$5
HTAB N1 N3_$5
LIST 4
WGHT    0.046300    1.482700
FVAR       0.55629
S1    5    0.331479    0.345817    0.389656    11.00000    0.02194    0.02193 =
         0.01897   -0.00147   -0.00043   -0.00248
O2    4    0.196185    0.397076    0.409644    11.00000    0.01998    0.03441 =
         0.02367   -0.00091    0.00068   -0.00165
O1    4    0.341502    0.222368    0.386585    11.00000    0.03928    0.02015 =
         0.02593   -0.00098   -0.00043   -0.00465
N4    3    0.666936    0.425997    0.485480    11.00000    0.02215    0.02676 =
         0.02253   -0.00146   -0.00203    0.00190
N3    3    0.655967    0.284508    0.408566    11.00000    0.02592    0.02471 =
         0.02395   -0.00084    0.00165    0.00428
N2    3    0.451285    0.395361    0.437165    11.00000    0.02060    0.02495 =
         0.02317   -0.00684   -0.00171    0.00208
N1    3    0.453771    0.532329    0.154310    11.00000    0.04447    0.02823 =
         0.02644    0.00363    0.00962    0.00196
C1    1    0.374082    0.403279    0.321385    11.00000    0.02352    0.02288 =
         0.01864   -0.00085    0.00098   -0.00185
C2    1    0.447855    0.336151    0.280108    11.00000    0.03451    0.02417 =
         0.02568   -0.00003    0.00427    0.00520
AFIX  43
H2    2    0.477746    0.261476    0.289569    11.00000   -1.30000
AFIX   0
C3    1    0.476551    0.380317    0.225288    11.00000    0.03594    0.02578 =
         0.02582   -0.00267    0.00837    0.00555
AFIX  43
H3    2    0.526958    0.335288    0.198153    11.00000   -1.30000
AFIX   0
C4    1    0.430812    0.492447    0.209711    11.00000    0.02704    0.02543 =
         0.02376    0.00027    0.00259   -0.00461
C5    1    0.357201    0.559204    0.252124    11.00000    0.03182    0.01971 =
         0.02771    0.00089    0.00375    0.00149
AFIX  43
H5    2    0.326239    0.633685    0.242819    11.00000   -1.30000
AFIX   0
C6    1    0.330324    0.515499    0.307434    11.00000    0.02566    0.02169 =
         0.02463   -0.00369    0.00344   -0.00152
AFIX  43
H6    2    0.283101    0.560951    0.335286    11.00000   -1.30000
AFIX   0
C7    1    0.598041    0.365649    0.443038    11.00000    0.02407    0.02194 =
         0.01894    0.00204    0.00039    0.00059
C8    1    0.808773    0.400495    0.493162    11.00000    0.02432    0.03412 =
         0.02413    0.00152   -0.00314    0.00107
AFIX  43
H8    2    0.861314    0.439934    0.521837    11.00000   -1.30000
AFIX   0
C9    1    0.880458    0.317984    0.460257    11.00000    0.02126    0.03586 =
         0.02722    0.00561    0.00049    0.00386
AFIX  43
H9    2    0.979539    0.301638    0.466197    11.00000   -1.30000
AFIX   0
C10   1    0.799378    0.260248    0.417969    11.00000    0.02632    0.02654 =
         0.02633    0.00537    0.00579    0.00550
C11   1    0.866958    0.167004    0.381339    11.00000    0.03612    0.03602 =
         0.04028   -0.00326    0.00810    0.01156
AFIX 137
H11A  2    0.821886    0.094118    0.390589    11.00000   -1.30000
H11B  2    0.970570    0.162859    0.389245    11.00000   -1.30000
H11C  2    0.851782    0.184203    0.340677    11.00000   -1.30000
AFIX   0
H1N2  2    0.418337    0.446084    0.457994    11.00000    0.04144
H1N1  2    0.508954    0.492801    0.133404    11.00000    0.03363
H2N1  2    0.448636    0.604128    0.147332    11.00000    0.04609
HKLF 4

REM  160k_smz-f2_a.res in Pbca
REM R1 =  0.0441 for    2752 Fo > 4sig(Fo)  and  0.0620 for all    3552 data
REM    176 parameters refined using      0 restraints

END

WGHT      0.0450      1.0926

REM Highest difference peak  0.368,  deepest hole -0.430,  1-sigma level  0.065
Q1    1   0.3611  0.3739  0.3537  11.00000  0.05    0.37
Q2    1   0.8304  0.2921  0.4377  11.00000  0.05    0.37
Q3    1   0.3641  0.5399  0.2815  11.00000  0.05    0.35
Q4    1   0.3596  0.4578  0.3196  11.00000  0.05    0.35
Q5    1   0.3848  0.3722  0.2981  11.00000  0.05    0.30
Q6    1   0.8479  0.3716  0.4669  11.00000  0.05    0.30
Q7    1   0.4509  0.4351  0.2202  11.00000  0.05    0.29
Q8    1   0.3928  0.3706  0.4211  11.00000  0.05    0.28
Q9    1   0.3775  0.5220  0.2301  11.00000  0.05    0.28
Q10   1   0.4800  0.3675  0.2571  11.00000  0.05    0.25
Q11   1   0.6092  0.4626  0.5079  11.00000  0.05    0.24
Q12   1   0.6512  0.4070  0.4610  11.00000  0.05    0.23
Q13   1   0.2988  0.1400  0.3963  11.00000  0.05    0.22
Q14   1   0.4460  0.3681  0.3083  11.00000  0.05    0.22
Q15   1   0.4051  0.2425  0.2919  11.00000  0.05    0.21
Q16   1   0.6006  0.2638  0.3795  11.00000  0.05    0.21
Q17   1   0.8224  0.2058  0.4090  11.00000  0.05    0.21
Q18   1   0.7260  0.2702  0.4161  11.00000  0.05    0.20
Q19   1   0.5001  0.1979  0.2391  11.00000  0.05    0.20
Q20   1   0.1740  0.4369  0.3904  11.00000  0.05    0.20
Q21   1   0.8565  0.1261  0.3567  11.00000  0.05    0.20
Q22   1   0.6807  0.3037  0.2590  11.00000  0.05    0.19
Q23   1   0.1817  0.3718  0.4443  11.00000  0.05    0.19
Q24   1   0.1826  0.2974  0.4846  11.00000  0.05    0.19
Q25   1   0.1405  0.4086  0.4403  11.00000  0.05    0.19
Q26   1   0.2422  0.3753  0.3993  11.00000  0.05    0.18
Q27   1   0.8161  0.4199  0.4013  11.00000  0.05    0.18
Q28   1   0.4889  0.3591  0.2130  11.00000  0.05    0.18
Q29   1   0.4366  0.5374  0.2400  11.00000  0.05    0.18
Q30   1   0.3715  0.6748  0.2683  11.00000  0.05    0.18
Q31   1   0.7438  0.2952  0.4016  11.00000  0.05    0.18
Q32   1   0.4773  0.5602  0.3280  11.00000  0.05    0.18
;
_shelx_res_checksum              63632
_shelx_hkl_file
;
   0   0   2  681.22   13.62
   0   0   2   18.68    3.61
   0   0   3   -0.12    0.64
   0   0   3    1.51    0.67
   0   0   4 2889.50   38.85
   0   0   4 3021.05   39.83
   0   0   5   -1.37    1.26
   0   0   5   -1.10    1.32
   0   0   6 8061.04   78.78
   0   0   6 7944.36   79.16
   0   0   7    1.71    2.38
   0   0   7   -0.26    1.75
   0   0   8 1227.74   35.40
   0   0   8 1144.60   34.74
   0   0   9   -0.15    1.41
   0   0   9    7.07    4.62
   0   0  10 6050.66   87.74
   0   0  10 6328.44   91.02
   0   0  11   -2.26    4.26
   0   0  11    1.58    2.04
   0   0  12   -1.96    3.56
   0   0  12   -2.33    1.34
   0   0  13    1.27    1.71
   0   0  13   -2.78    3.67
   0   0  14  905.74   39.88
   0   0  14  920.55   40.94
   0   0  15   -4.56    3.40
   0   0  15    3.45    5.33
   0   0  16   13.44    5.21
   0   0  16    6.61    5.36
   0   0  17    2.29    4.54
   0   0  17    5.35    6.36
   0   0  18 1726.76   63.95
   0   0  18 1664.40   61.53
   0   0  19   -0.25    4.08
   0   0  19    3.13    3.47
   0   0  20  175.40   21.28
   0   0  20  218.10   24.01
   0   0  21   -0.48    5.55
   0   0  21   -2.58    4.28
   0   0  22  310.47   30.34
   0   0  22  278.93   27.57
   0   0  23    2.32    3.35
   0   0  23   -2.08    3.64
   0   0  24   87.17   15.24
   0   0  24  102.21   18.58
   0   0  25    1.86    5.72
   0   0  25   -1.39    6.99
   0   0  26   99.60   18.09
   0   0  26   87.15   16.71
   0   0  27   -1.59    3.29
   0   0  27   -8.91    5.85
   0   0  28  117.68   19.43
   0   0  28   99.12   20.12
   0   0  29   11.17    7.83
   0   0  29   -4.06    7.57
   0   0  30  420.70   40.72
   0   0  30  522.49   41.78
   0   0  31   15.53    6.96
   0   0  31   12.05    5.64
   0   0  32    8.03    7.84
   0   0  32    5.83    5.82
   0  -1   0   -0.70    0.29
   0  -1   0    0.73    0.91
   0   1   1   -0.51    0.45
   0  -1   1    0.17    0.49
   0  -1   1    0.44    0.53
   0  -1  -1   -0.28    0.60
   0  -1   2    0.21    0.89
   0  -1   2   -0.10    0.85
   0   1   2    0.91    1.01
   0   1   2   -0.07    0.77
   0   1   3    0.30    1.16
   0   1   3   -0.83    0.78
   0  -1   3    0.44    1.76
   0  -1   3   -0.52    0.87
   0   1   4    0.67    0.90
   0  -1   4    0.83    1.82
   0  -1   4   -0.21    1.31
   0  -1   4    1.16    1.31
   0   1   4    0.91    1.47
   0   1   5    0.71    1.67
   0  -1   5    1.10    2.41
   0   1   5   -1.32    0.88
   0  -1   5    0.82    0.96
   0  -1   5   -1.70    2.74
   0  -1   6    1.40    2.83
   0   1   6    0.24    2.08
   0   1   6    0.04    1.24
   0  -1   6    3.62    1.63
   0   1   7    1.61    2.62
   0  -1   7   -0.07    1.79
   0   1   7    0.07    2.52
   0  -1   7    2.14    3.49
   0   1   8    0.31    1.56
   0   1   8    1.59    3.38
   0  -1   8    0.27    1.83
   0  -1   8   -1.06    1.54
   0  -1   9    0.20    3.09
   0   1   9   -1.95    2.68
   0  -1   9    0.12    1.89
   0   1   9    1.85    1.99
   0  -1  10    2.42    1.57
   0   1  10   -0.58    2.95
   0  -1  10   -0.15    1.51
   0   1  10    2.77    2.52
   0  -1  11    1.13    1.82
   0   1  11    2.12    2.30
   0  -1  11   -1.01    2.23
   0   1  11    2.14    3.68
   0  -1  12   -1.61    4.30
   0   1  12   -0.43    1.84
   0  -1  12    2.31    2.61
   0   1  12   -0.85    2.51
   0   1  13    1.03    3.21
   0   1  13    0.89    3.79
   0  -1  13    0.51    4.63
   0  -1  13   -0.89    2.12
   0  -1  14    0.91    2.94
   0   1  14    0.92    3.15
   0   1  14   -1.52    1.58
   0  -1  14   -1.08    2.95
   0   1  15   -2.22    5.14
   0  -1  15   -0.38    2.70
   0   1  15   -2.95    3.22
   0  -1  15   -2.09    4.65
   0   1  16    4.32    5.39
   0  -1  16   -2.51    4.06
   0  -1  16   -0.16    3.05
   0   1  16    2.93    4.24
   0  -1  17    1.49    2.96
   0  -1  17    0.94    2.86
   0   1  17   -0.43    2.49
   0   1  17    2.87    5.51
   0  -1  18   -1.83    3.57
   0   1  18    1.25    5.48
   0  -1  18   -3.05    4.90
   0   1  18    2.54    6.10
   0  -1  19   -2.77    2.60
   0   1  19    0.06    4.37
   0   1  19    1.85    5.24
   0  -1  19   -3.96    5.79
   0   1  20    1.96    5.02
   0   1  20   -1.42    3.54
   0  -1  20    2.18    4.68
   0  -1  20    1.82    4.03
   0  -1  21    2.64    6.68
   0   1  21    7.26    3.28
   0   1  21   -1.77    3.46
   0  -1  21    1.31    3.17
   0   1  22   -2.77    4.70
   0  -1  22    3.14    5.28
   0   1  22   -2.57    3.59
   0  -1  22    5.96    7.39
   0   1  23   -2.29    6.68
   0  -1  23   -3.31    3.87
   0   1  23   -2.81    6.13
   0  -1  23   -1.82    3.64
   0   1  24   -0.83    6.02
   0   1  24    5.67    9.35
   0  -1  24    1.88    2.64
   0  -1  24    5.44   10.43
   0  -1  25    0.94    6.40
   0   1  25   -4.11    5.59
   0   1  25    3.32    5.99
   0   1  26   -2.35    3.57
   0   1  26   -3.05    8.23
   0  -1  26    6.65    4.35
   0  -1  26   -3.93    5.29
   0   1  27   -6.49   11.09
   0  -1  27    3.36    3.78
   0   1  27   -0.25    3.40
   0  -1  27    4.37    7.63
   0  -1  28    4.80    7.20
   0   1  28    0.69    4.37
   0   1  28   -6.47    5.71
   0  -1  28   -3.04    7.00
   0   1  29   -2.65    7.42
   0  -1  29    5.27    8.35
   0   1  29    2.88    5.64
   0  -1  29   -1.26    3.81
   0   1  30   -0.09    4.19
   0  -1  30    0.23    7.05
   0  -1  30    0.25    7.12
   0   1  30    5.00    7.24
   0   1  31   -0.32    6.56
   0  -1  31   -0.06    5.17
   0  -1  31    3.68    3.56
   0   1  31   -5.35    7.05
   0   1  32   -1.63    6.71
   0   1  32    8.03    9.99
   0  -1  32   -3.21    6.02
   0  -1  32   -8.27    6.07
   0  -2   0    9.32    2.26
   0  -2   0   11.87    3.12
   0  -2   1 8430.86   69.51
   0  -2  -1 8295.51   69.33
   0  -2   1 8350.21   65.79
   0  -2   2 4264.30   51.28
   0  -2  -2 4221.65   50.74
   0   2   2 4209.84   47.77
   0   2   3 9885.60   66.97
   0  -2   3 9666.22   78.92
   0  -2  -3 9714.57   82.19
   0   2   3 9754.04   78.09
   0  -2   3 9999.00   81.33
   0  -2   4 7808.41   74.75
   0  -2  -4 7827.46   78.19
   0   2   4 8111.55   68.95
   0   2   4 7946.04   75.26
   0  -2   4 7842.37   74.78
   0   2   5 8658.84   83.33
   0   2   5 8811.06   77.88
   0  -2   6 8225.61   84.08
   0  -2   6 8289.53   85.10
   0   2   6 8345.03   83.62
   0   2   6 8212.48   86.60
   0   2   7   95.29    9.49
   0   2   7  111.86   10.87
   0  -2   7   83.81    9.06
   0  -2   7   94.84   10.60
   0  -2   7  100.91   10.39
   0  -2   8  509.00   24.22
   0  -2   8  609.24   25.76
   0   2   8  559.20   25.08
   0  -2   8  537.94   24.57
   0   2   8  563.97   24.69
   0  -2   9 2097.38   50.06
   0  -2   9 2163.11   52.27
   0  -2   9 2010.37   49.16
   0   2   9 2092.02   50.28
   0   2   9 2015.62   49.81
   0   2  10 1084.13   37.79
   0  -2  10  995.29   37.19
   0  -2  10  986.98   35.83
   0   2  10  978.44   36.37
   0  -2  11 1377.71   44.33
   0   2  11 1299.06   43.57
   0   2  11 1349.03   44.54
   0  -2  11 1284.91   44.21
   0   2  12  619.18   31.06
   0   2  12  617.89   31.44
   0  -2  12  569.20   30.99
   0  -2  12  565.11   29.57
   0   2  13  149.83   15.86
   0   2  13  125.86   15.25
   0  -2  13  159.17   16.06
   0  -2  13  131.28   15.54
   0  -2  14  988.25   42.17
   0   2  14  898.85   40.23
   0  -2  14  946.10   41.93
   0   2  14  844.71   39.97
   0  -2  15   28.05    7.44
   0   2  15   28.45    7.23
   0  -2  15   40.70    9.42
   0   2  15   48.90   10.17
   0  -2  16  127.74   16.41
   0   2  16  107.85   14.68
   0  -2  16  116.96   15.78
   0   2  16   84.75   14.02
   0   2  17  594.33   35.70
   0   2  17  624.36   38.37
   0  -2  17  608.47   36.27
   0   2  18  383.11   30.58
   0  -2  18  343.38   28.70
   0  -2  18  379.12   29.83
   0   2  18  404.10   30.22
   0   2  19  882.14   45.68
   0  -2  19  859.01   45.20
   0   2  19  841.33   46.41
   0  -2  19  950.51   49.66
   0   2  20  160.00   20.01
   0  -2  20  165.25   20.00
   0  -2  20  142.34   20.51
   0   2  20  124.72   18.66
   0  -2  21   65.61   15.26
   0   2  21   52.02   11.20
   0  -2  21   91.22   16.21
   0   2  21   64.81   13.42
   0  -2  22    8.56    2.75
   0  -2  22   -2.83    3.50
   0   2  22    2.20    7.66
   0   2  23  748.30   45.53
   0  -2  23  697.52   46.36
   0  -2  23  710.49   44.88
   0   2  23  642.87   45.95
   0  -2  24    9.88    5.89
   0   2  24   12.42    4.95
   0  -2  24    5.01    4.74
   0   2  24    5.68    9.35
   0   2  25   18.32    8.35
   0   2  25   11.00    4.71
   0  -2  25   15.07    8.22
   0  -2  25   21.04   10.34
   0   2  26  137.33   21.20
   0   2  26  134.63   22.48
   0  -2  26  202.40   25.33
   0  -2  26  142.29   21.87
   0  -2  27    6.79    5.24
   0  -2  27   14.03    7.84
   0   2  27   15.98    8.86
   0   2  27   23.30    9.55
   0   2  28   24.99    9.61
   0  -2  28   15.59   10.77
   0   2  28    8.93    6.32
   0  -2  28   15.34    6.61
   0  -2  29  118.52   21.79
   0  -2  29   96.17   22.82
   0   2  29  103.62   19.62
   0   2  29   91.61   20.24
   0   2  30   22.64    8.28
   0  -2  30   10.53   10.38
   0  -2  30   -2.21    6.12
   0   2  30    4.81    8.72
   0   2  31    5.71    6.26
   0  -2  31    4.35    4.72
   0   2  31   14.49    7.60
   0  -2  31   13.17    9.14
   0   2  32   64.78   15.47
   0  -2  32   46.43   17.87
   0   2  32   94.70   20.32
   0  -2  32   87.26   19.52
   0  -3   0   -0.31    1.67
   0  -3   0   -0.65    1.78
   0  -3  -1    0.01    3.18
   0  -3   1   -2.09    1.88
   0   3   1   -0.05    1.47
   0  -3   1    0.45    1.62
   0  -3   2    2.65    2.77
   0   3   2   -0.27    0.78
   0  -3   2    0.23    2.87
   0  -3  -2   -0.45    2.59
   0   3   2   -1.58    2.18
   0  -3  -3    1.64    2.38
   0   3   3    0.96    1.53
   0  -3   3    0.15    1.79
   0  -3   3   -0.01    1.44
   0   3   3   -0.45    1.32
   0  -3   4   -1.08    1.88
   0   3   4    1.04    2.00
   0  -3   4   -2.26    1.27
   0   3   4    0.53    1.61
   0  -3  -4    2.04    2.45
   0  -3  -5   -2.48    2.85
   0  -3   5    0.64    1.29
   0   3   5   -0.43    1.80
   0   3   5   -0.99    1.77
   0  -3   5    3.69    2.36
   0  -3   6    0.02    2.58
   0  -3  -6    0.85    3.30
   0   3   6    4.92    3.76
   0  -3   6    0.05    2.17
   0   3   6   -1.06    1.32
   0  -3   7    0.70    2.44
   0  -3   7   -1.71    3.12
   0   3   7    1.16    3.18
   0   3   7    0.18    3.01
   0  -3   8   -0.38    2.53
   0   3   8   -1.04    2.26
   0   3   8   -0.47    1.71
   0  -3   8   -0.04    1.90
   0  -3   8    1.40    2.43
   0  -3   9    0.26    4.03
   0   3   9   -0.82    2.82
   0   3   9   -0.80    1.65
   0  -3   9    1.21    1.47
   0  -3   9    3.42    3.58
   0   3  10   -0.19    2.63
   0   3  10   -1.65    2.28
   0  -3  10    1.43    4.12
   0  -3  10    4.81    2.24
   0  -3  10    2.04    3.83
   0  -3  11    1.50    5.05
   0  -3  11   -0.83    2.34
   0  -3  11   -2.33    3.53
   0   3  11   -2.12    3.18
   0   3  11    0.31    2.74
   0  -3  12    7.16    6.53
   0   3  12    3.09    4.46
   0  -3  12   -0.19    2.06
   0  -3  12   -1.16    1.69
   0   3  12    3.34    4.10
   0  -3  13    5.36    6.16
   0   3  13    1.05    5.16
   0  -3  13    3.34    2.99
   0   3  13   -1.73    4.59
   0   3  14    4.64    4.80
   0  -3  14   -1.18    3.78
   0   3  14    1.48    4.91
   0  -3  14   -1.25    4.01
   0   3  15   -2.54    2.88
   0  -3  15    0.15    3.13
   0   3  15   -0.67    3.83
   0  -3  15    0.14    3.39
   0  -3  16    6.52    5.89
   0   3  16   -1.12    4.27
   0  -3  16    1.75    3.37
   0   3  16   -3.28    5.69
   0  -3  17    1.69    2.57
   0   3  17    2.77    6.43
   0   3  17   -0.17    4.49
   0  -3  17   -2.31    2.14
   0   3  18    1.01    4.93
   0   3  18    1.17    4.17
   0  -3  18   -0.08    2.65
   0  -3  18    2.17    5.85
   0   3  19    6.12    5.89
   0  -3  19    1.39    5.58
   0  -3  19    1.12    4.29
   0   3  19    0.31    3.25
   0  -3  20    3.62    4.70
   0   3  20   -1.89    3.90
   0   3  20    1.83    6.50
   0  -3  20   -4.54    5.73
   0  -3  21   -0.33    5.55
   0   3  21    3.40    6.88
   0   3  21    3.44    6.41
   0  -3  21   -1.70    3.38
   0   3  22    5.28    6.86
   0  -3  22    4.05    6.30
   0   3  22   -3.69    4.87
   0  -3  22   10.96    6.30
   0   3  23    0.62    3.30
   0  -3  23   -0.09    3.33
   0  -3  23   -0.88    4.67
   0   3  23    0.46    3.90
   0   3  24    7.98    7.45
   0  -3  24    2.23    6.45
   0   3  24    3.42    5.68
   0  -3  24    4.58    6.11
   0  -3  25    0.99    2.83
   0  -3  25    9.10    9.25
   0   3  25    9.16    6.10
   0   3  25    2.39    5.57
   0   3  26    1.56    2.53
   0  -3  26    2.41    5.94
   0  -3  26   -1.99    5.02
   0   3  26    1.09    5.27
   0  -3  27    5.73    5.73
   0  -3  27    0.05    4.92
   0   3  27    8.10    9.30
   0   3  27    8.49    9.04
   0  -3  28   -4.58    6.84
   0   3  28    2.22    5.84
   0   3  28    3.24    8.31
   0  -3  28    2.66    5.40
   0  -3  29    5.26    2.98
   0  -3  29   -4.64    7.79
   0   3  29    5.01    5.71
   0   3  29    5.52    9.04
   0  -3  30    4.01    5.65
   0   3  30   -5.59    6.31
   0  -3  30    2.32    8.47
   0   3  30   -4.32    4.85
   0   3  31    2.57    6.04
   0   3  31    9.03   11.44
   0  -3  31    1.29    4.91
   0  -3  31    3.89    4.82
   0  -3  32    9.10    7.16
   0   3  32   11.43    8.95
   0   3  32   -4.58    9.79
   0  -3  32   -5.81    6.32
   0  -4   0 4445.32   67.35
   0  -4   0 4521.08   71.34
   0  -4   1 1599.88   42.70
   0   4   1 1637.69   31.15
   0  -4  -1 1625.09   40.75
   0  -4  -1 1607.10   42.37
   0  -4   1 1509.58   39.57
   0  -4  -2 1857.43   45.41
   0   4   2 1836.89   32.53
   0   4   3  154.71    9.73
   0  -4   3  139.50   12.29
   0  -4   3  119.80   12.31
   0  -4  -3  136.56   12.78
   0   4   3  164.65   12.81
   0  -4   4  213.97   16.16
   0  -4  -4  204.44   16.02
   0  -4   4  195.65   15.03
   0   4   4  205.61   14.88
   0   4   4  206.24   12.17
   0   4   5  259.71   17.36
   0  -4  -5  261.05   18.41
   0  -4   5  263.30   17.89
   0  -4   5  275.10   18.40
   0   4   5  262.83   15.00
   0  -4   6  754.78   31.38
   0  -4  -6  759.87   31.71
   0   4   6  737.97   26.66
   0  -4   6  812.07   31.93
   0   4   6  851.59   32.92
   0   4   7  287.24   17.52
   0   4   7  386.09   22.30
   0  -4   7  378.08   21.87
   0  -4  -7  358.23   22.96
   0  -4   7  321.59   20.60
   0  -4   8  305.88   20.17
   0  -4  -8  353.91   22.95
   0   4   8  302.44   20.82
   0   4   8  294.79   18.65
   0  -4   8  331.93   21.12
   0  -4   9   42.06    7.86
   0  -4   9   38.28    7.89
   0   4   9   34.38    7.27
   0  -4  -9   47.39    9.44
   0   4   9   35.05    6.94
   0  -4  10    0.45    3.62
   0   4  10   -0.28    3.02
   0  -4  10    2.08    2.51
   0  -4 -10   -2.99    3.24
   0   4  10    5.38    4.91
   0  -4  10   -0.19    2.63
   0  -4  11   91.32   13.07
   0   4  11  113.70   14.42
   0  -4  11   89.91   11.81
   0  -4  11  104.02   13.52
   0   4  11  128.64   14.38
   0   4  12    0.63    2.56
   0  -4  12   -1.81    2.98
   0   4  12    2.43    4.93
   0  -4  12   -0.56    2.97
   0  -4  12   -5.11    4.31
   0  -4  13   -0.40    3.34
   0   4  13    9.24    5.70
   0  -4  13    3.93    3.26
   0  -4  13    1.90    2.76
   0   4  13    8.13    2.13
   0   4  14  178.40   19.10
   0  -4  14  198.41   19.91
   0   4  14  163.55   17.89
   0  -4  14  207.73   19.92
   0  -4  15  113.75   16.95
   0  -4  15   77.36   12.72
   0   4  15  115.53   15.51
   0   4  15  107.22   15.17
   0  -4  16  215.72   21.63
   0   4  16  216.84   21.74
   0   4  16  248.92   23.10
   0  -4  16  271.11   24.75
   0   4  17  725.49   40.53
   0   4  17  736.56   41.25
   0  -4  17  764.01   41.70
   0   4  18 1851.00   67.16
   0  -4  18 1955.60   67.57
   0  -4  18 1917.91   69.53
   0   4  18 1834.76   66.28
   0  -4  19  493.30   36.16
   0   4  19  520.36   36.20
   0   4  19  541.32   37.20
   0  -4  19  536.23   36.46
   0  -4  20   28.10    9.09
   0   4  20   31.85   10.29
   0  -4  20   26.79   11.06
   0   4  20   12.52    8.00
   0  -4  21   58.61   17.83
   0  -4  21   73.68   14.75
   0   4  21   78.18   15.58
   0   4  21   54.59   12.15
   0  -4  22   12.12    8.95
   0   4  22   -2.64    4.65
   0   4  22   -1.44    3.32
   0  -4  22    1.04    3.74
   0  -4  23  134.75   19.52
   0   4  23  109.00   17.18
   0   4  23  110.45   18.76
   0  -4  23  102.74   16.96
   0   4  24  397.12   35.54
   0  -4  24  387.05   35.71
   0  -4  24  361.31   32.69
   0   4  24  407.27   34.77
   0   4  25  167.35   23.34
   0  -4  25  123.94   23.39
   0   4  25  179.08   23.55
   0  -4  25  173.90   23.15
   0   4  26    8.08    6.35
   0  -4  26   21.48   11.31
   0  -4  26   20.08    8.30
   0   4  26    7.86    3.70
   0  -4  27    9.82    6.49
   0   4  27   17.10    6.48
   0  -4  27   10.21    3.52
   0   4  28   85.80   17.01
   0  -4  28   59.92   16.10
   0  -4  28   65.86   15.88
   0   4  28   65.63   15.81
   0  -4  29   28.29   13.01
   0  -4  29   81.52   17.84
   0   4  29   53.21   13.95
   0   4  29   62.37   18.49
   0  -4  30   -0.30    6.94
   0   4  30    7.24    6.52
   0   4  30    0.95    6.32
   0  -4  30   -0.26    6.23
   0  -4  31    1.47    5.33
   0  -4  31    0.12    3.88
   0   4  31   13.68    8.44
   0   4  31   13.95    8.52
   0  -5   0    2.58    3.73
   0  -5   0   -0.23    3.16
   0  -5   1    1.01    1.89
   0  -5   1    0.29    2.91
   0  -5  -1    2.37    3.27
   0  -5  -1   -1.12    2.04
   0  -5  -2    0.68    3.89
   0  -5   2   -3.82    4.82
   0  -5  -2    0.60    3.62
   0   5   2    0.46    1.28
   0  -5   2   -1.08    3.13
   0  -5   3    2.27    1.73
   0  -5  -3    3.17    3.85
   0  -5   3   -1.53    3.67
   0   5   3    1.28    1.56
   0   5   4    2.35    1.09
   0  -5  -4   -1.33    2.40
   0  -5   4   -0.10    2.80
   0   5   4    3.01    3.37
   0  -5   4   -2.18    3.87
   0  -5   5    0.12    3.04
   0  -5   5    4.45    4.22
   0   5   5    2.46    3.05
   0  -5  -5    1.24    3.09
   0   5   5    0.86    1.87
   0  -5  -6    0.69    2.50
   0  -5   6    3.97    4.01
   0   5   6    0.79    2.93
   0   5   6   -1.12    1.30
   0  -5   6    2.69    3.65
   0  -5  -7   -2.06    1.60
   0   5   7    0.16    3.62
   0   5   7   -1.00    2.13
   0  -5   7   -1.40    2.40
   0  -5   7   -2.26    1.73
   0  -5   8    0.65    4.48
   0  -5  -8    1.15    3.39
   0   5   8    0.11    3.04
   0  -5   8   -1.98    1.44
   0   5   8    1.88    4.52
   0   5   9   -4.50    3.53
   0  -5  -9    1.15    4.23
   0  -5   9    1.77    1.96
   0   5   9   -1.55    2.22
   0  -5   9    0.88    3.91
   0  -5 -10    0.85    3.44
   0   5  10   -0.20    1.65
   0   5  10   -0.99    3.21
   0  -5  10   -0.22    2.24
   0  -5  10    0.37    5.04
   0  -5  11   -0.27    2.98
   0  -5 -11   -2.03    2.12
   0  -5  11   -0.36    1.78
   0   5  11    6.22    5.03
   0  -5  11    0.58    3.50
   0   5  11    3.59    2.77
   0  -5  12   -2.66    1.97
   0  -5  12    0.56    4.48
   0   5  12    3.25    3.08
   0  -5 -12    7.57    5.99
   0   5  12   -0.98    3.19
   0  -5  12    5.20    4.05
   0  -5  13    0.84    3.15
   0  -5  13    6.39    5.21
   0   5  13    1.16    1.75
   0  -5 -13    1.57    5.03
   0  -5  13   -1.66    1.86
   0   5  13   -3.86    4.47
   0  -5  14    2.02    3.25
   0  -5  14   -3.71    5.24
   0  -5 -14   -0.14    4.53
   0   5  14   -2.30    2.12
   0   5  14    0.65    2.51
   0  -5  14   -3.01    4.55
   0   5  15   -0.96    3.44
   0  -5  15    2.13    6.28
   0   5  15    3.41    2.98
   0  -5  15   -0.35    2.78
   0  -5 -15    2.75    3.80
   0  -5  15    2.06    2.74
   0  -5  16   -2.96    3.87
   0  -5  16    7.73    5.05
   0   5  16   -0.54    4.76
   0  -5  16   -1.50    4.81
   0   5  16    3.45    3.38
   0  -5  17    3.64    3.26
   0   5  17   -1.50    5.30
   0  -5  17   -0.51    2.32
   0   5  17    1.87    4.91
   0   5  18    4.05    4.65
   0  -5  18    0.36    4.03
   0  -5  18   -0.61    7.79
   0   5  18   -1.54    3.47
   0  -5  19    1.63    4.84
   0   5  19    3.73    3.21
   0  -5  19    0.08    3.32
   0   5  19   -4.88    5.68
   0  -5  20    5.25    8.16
   0  -5  20   -3.20    6.18
   0   5  20   -3.71    4.38
   0   5  20    5.72    8.36
   0   5  21    1.94    6.80
   0   5  21   -9.12    5.45
   0  -5  21   -6.93    7.19
   0  -5  21   11.98    9.12
   0   5  22    7.39   10.98
   0  -5  22    1.94    2.85
   0   5  22   -1.63    5.67
   0  -5  22   -2.67    3.25
   0   5  23    3.97    5.75
   0   5  23   -0.84    3.89
   0  -5  23    2.64    2.75
   0  -5  23    4.61    6.74
   0   5  24    7.57    5.79
   0  -5  24    1.82    5.34
   0   5  24   10.27    5.95
   0  -5  24    0.39    3.92
   0  -5  25    4.10    6.61
   0   5  25   -2.32    2.84
   0  -5  25    2.40    8.84
   0   5  25   -2.42    5.94
   0  -5  26    3.86    7.06
   0  -5  26   -0.26    3.72
   0   5  26   -4.53    6.60
   0   5  26   -5.78   12.01
   0  -5  27    0.71    7.91
   0   5  27    3.55   10.38
   0  -5  27   -5.47    6.30
   0   5  27    2.97    4.01
   0  -5  28    3.64    5.68
   0   5  28    7.68    7.15
   0  -5  28   -3.47    4.22
   0   5  28  -12.64   12.15
   0  -5  29    1.58    8.21
   0   5  29    5.53    7.89
   0   5  29   -4.32    5.81
   0  -5  29   -2.20    6.88
   0   5  30   -7.95    6.73
   0  -5  30   -3.82    5.41
   0  -5  30    6.40    6.22
   0  -5  31   -1.75    4.16
   0   5  31   -4.85   11.34
   0  -5  31    7.29    6.72
   0   5  31    6.77    5.90
   0  -6   0   27.02    6.84
   0  -6   0   38.17    7.68
   0  -6   1 4259.98   84.45
   0  -6   1 4134.07   79.59
   0  -6  -1 4291.67   80.70
   0  -6  -1 4351.22   84.02
   0  -6  -2 1586.50   49.65
   0   6   2 1542.84   37.00
   0  -6  -2 1608.62   52.14
   0  -6   2 1614.24   51.67
   0  -6   2 1550.28   48.87
   0  -6  -3  271.68   21.06
   0  -6   3  281.89   21.68
   0  -6   3  259.19   20.40
   0   6   3  284.71   16.16
   0  -6   4  701.29   33.82
   0   6   4  776.52   26.64
   0  -6   4  807.79   36.76
   0  -6  -4  723.70   35.08
   0  -6   5   28.57    7.06
   0  -6   5   17.52    5.77
   0  -6  -5   23.71    7.37
   0   6   5   30.82    6.61
   0   6   5   25.96    5.45
   0  -6  -6    5.87    6.14
   0   6   6   -0.29    1.50
   0  -6   6    6.72    3.83
   0   6   6    6.60    3.09
   0  -6   6    2.40    4.84
   0   6   7  344.69   23.99
   0  -6   7  377.73   26.23
   0   6   7  387.52   21.42
   0  -6  -7  345.40   25.79
   0  -6   7  404.39   26.33
   0  -6  -8   73.28   11.91
   0  -6   8   80.82   11.66
   0   6   8   78.85   10.35
   0   6   8  114.00   13.62
   0  -6   8   95.46   13.23
   0  -6   9   34.95    8.03
   0   6   9   26.00    8.64
   0  -6  -9   23.08    7.67
   0   6   9   26.98    6.94
   0  -6   9   44.04    9.85
   0  -6  10   47.56    9.03
   0  -6 -10   67.50   12.41
   0   6  10   56.23    9.47
   0   6  10   50.71    9.43
   0  -6  10   49.91   10.35
   0   6  11   -0.62    4.34
   0  -6  11    0.35    2.92
   0   6  11    3.42    4.80
   0  -6  11    6.14    5.65
   0  -6 -11    7.71    2.48
   0   6  12 4282.40   94.34
   0  -6  12 4090.29   89.40
   0   6  12 4379.53   87.26
   0  -6  12 4052.62   91.06
   0  -6  12 4322.99   93.57
   0  -6 -12 4003.14   95.10
   0  -6  13    4.62    5.00
   0  -6  13    2.81    2.56
   0  -6  13    3.55    2.80
   0  -6 -13    2.28    4.40
   0   6  13    3.85    2.81
   0   6  13    3.06    3.19
   0  -6  14  381.94   28.14
   0  -6  14  354.33   27.82
   0   6  14  349.52   26.12
   0  -6  14  391.26   29.52
   0   6  14  413.02   30.69
   0  -6 -14  397.80   31.63
   0  -6  15  645.51   38.96
   0  -6  15  568.79   37.37
   0   6  15  617.82   36.59
   0   6  15  609.48   37.97
   0  -6 -15  553.59   36.99
   0  -6  15  558.43   34.95
   0  -6  16   87.96   14.06
   0   6  16   71.76   12.39
   0  -6  16   59.50   12.16
   0   6  16   69.68   12.68
   0  -6 -16   70.31   14.59
   0  -6  16   62.16   14.21
   0  -6  17   99.74   16.74
   0   6  17   88.58   14.94
   0  -6  17   95.13   15.48
   0  -6 -17   77.54   14.90
   0  -6  17   88.36   15.54
   0   6  17   78.74   16.32
   0  -6  18  739.88   44.73
   0   6  18  664.59   41.37
   0  -6  18  649.94   40.11
   0  -6 -18  692.23   43.34
   0   6  18  630.34   40.40
   0  -6  18  714.04   41.77
   0  -6 -19  365.53   32.41
   0   6  19  413.05   33.16
   0   6  19  381.01   32.75
   0  -6  19  424.31   33.21
   0  -6  19  345.97   31.84
   0   6  20   79.41   16.51
   0   6  20   76.12   13.60
   0  -6 -20   78.45   13.39
   0  -6  20   71.44   14.65
   0  -6  20   80.49   14.73
   0  -6 -21  493.23   38.29
   0  -6  21  546.98   39.58
   0   6  21  574.16   40.78
   0  -6  21  457.97   37.50
   0   6  21  620.20   42.49
   0   6  22  430.23   37.72
   0  -6 -22  348.47   33.81
   0  -6  22  420.73   34.76
   0   6  22  406.85   35.30
   0  -6  22  396.59   35.23
   0  -6  23   16.69    7.19
   0  -6 -23   22.39    9.48
   0   6  23    6.29    4.69
   0  -6  23   21.42    8.93
   0   6  23   14.70    5.39
   0  -6 -24  109.58   18.33
   0  -6  24   73.75   15.96
   0  -6  24   60.74   14.40
   0   6  24   51.06   14.14
   0   6  24   71.90   14.58
   0   6  25  222.04   27.18
   0  -6  25  178.87   25.07
   0  -6 -25  188.57   26.05
   0  -6  25  217.42   27.73
   0   6  25  195.85   25.11
   0  -6 -26  323.55   34.38
   0  -6  26  284.57   31.16
   0   6  26  290.76   31.30
   0   6  26  301.66   34.77
   0  -6  26  338.18   36.20
   0   6  27    0.63    2.77
   0  -6  27   -3.76    4.82
   0   6  27   -4.78    7.54
   0  -6  27    1.39    6.27
   0  -6 -27   -0.77    3.23
   0   6  28  128.55   23.56
   0  -6 -28  135.76   21.83
   0   6  28  161.30   23.61
   0  -6  28  129.98   22.55
   0  -6  28  101.19   19.46
   0   6  29   37.38   13.52
   0   6  29   39.48   12.94
   0  -6 -29   29.92   12.42
   0  -6  29   41.03   13.05
   0  -6  29   15.54   10.30
   0  -6  30    3.77    5.73
   0  -6  30   -2.93    4.67
   0  -6 -30    0.30    6.41
   0   6  30   -5.62   10.72
   0   6  30    2.99    5.90
   0  -7   0    2.34    3.16
   0  -7   0   -0.85    1.94
   0  -7   1   -1.73    1.74
   0  -7  -1   -0.35    2.47
   0  -7  -1   -2.13    3.32
   0  -7   1   -0.39    3.79
   0  -7   2    1.92    3.35
   0  -7  -2   -1.52    3.78
   0  -7   2    0.98    2.61
   0  -7  -2   -1.18    3.37
   0  -7  -3    1.42    5.81
   0  -7   3   -0.31    3.68
   0  -7   3    0.41    1.77
   0  -7  -3   -1.09    2.62
   0   7   3    1.14    1.92
   0  -7   4    3.44    4.62
   0  -7   4   -0.63    2.10
   0  -7  -4    0.42    3.78
   0   7   4    2.96    3.24
   0   7   5   -1.42    2.80
   0  -7  -5    3.45    4.55
   0  -7   5   -1.28    1.74
   0  -7   5   -1.76    2.26
   0  -7   6    1.95    1.68
   0   7   6    4.12    3.38
   0   7   6    4.37    4.86
   0  -7  -6    0.41    2.09
   0  -7   6    3.88    5.64
   0  -7   7   -0.09    3.55
   0   7   7    3.85    5.13
   0   7   7    2.91    3.29
   0  -7   7    0.57    4.22
   0  -7  -7    1.11    3.77
   0  -7   8   -1.07    3.55
   0  -7  -8    3.90    3.52
   0   7   8    2.09    4.83
   0  -7   8    0.78    3.90
   0   7   8   -1.23    3.70
   0   7   9   -0.43    2.23
   0   7   9   -3.75    6.99
   0  -7   9   -5.39    5.63
   0  -7   9    0.98    4.61
   0  -7  -9    0.24    4.52
   0  -7  10   -1.03    1.90
   0   7  10    3.82    3.14
   0  -7 -10   -2.75    4.79
   0  -7  10    1.51    5.68
   0   7  10    0.15    2.43
   0  -7  11   -0.19    6.15
   0  -7 -11   -0.48    5.58
   0   7  11    3.09    4.64
   0   7  11    0.11    2.70
   0  -7  11   -0.34    5.25
   0  -7  12   -3.32    3.55
   0  -7  12    4.14    2.08
   0  -7 -12    0.24    4.73
   0   7  12    0.70    2.36
   0   7  12   -0.38    3.60
   0  -7 -13    6.44    9.47
   0  -7  13    6.57    3.51
   0   7  13   -2.08    2.81
   0   7  13    0.30    2.52
   0  -7  13   -0.50    2.39
   0  -7  13   -0.38    4.96
   0  -7  14    1.75    2.28
   0  -7  14    0.98    2.91
   0   7  14   -2.25    2.13
   0  -7  14    1.92    6.02
   0  -7 -14   -2.44    2.77
   0   7  14    7.95    5.88
   0   7  15   -2.07    2.28
   0  -7  15    0.04    5.97
   0  -7  15    1.51    5.23
   0  -7  15    0.91    4.50
   0   7  15    3.13    4.35
   0  -7 -15   -1.04    3.29
   0  -7 -16    0.63    5.68
   0   7  16    0.48    5.64
   0  -7  16   -5.23    5.07
   0  -7  16    3.47    5.54
   0  -7  16    5.58    5.48
   0   7  16   -0.65    5.48
   0  -7 -17    6.91   10.22
   0  -7  17    0.14    6.56
   0   7  17   -1.12    4.31
   0   7  17    1.15    4.35
   0  -7  17   -4.34    7.39
   0  -7  17    0.53    3.66
   0  -7  18    1.91    6.04
   0  -7  18   -0.38    2.93
   0  -7 -18    8.53    6.63
   0  -7  18   -4.36    8.49
   0   7  18   -1.69    5.09
   0   7  18    4.62    7.21
   0  -7  19    0.39    4.73
   0  -7 -19   -5.35    4.02
   0  -7  19   -2.21    4.09
   0   7  19   -0.19    4.73
   0   7  19    0.89    6.49
   0  -7  19   -4.77    3.55
   0  -7 -20   -0.36    4.27
   0   7  20   -2.30    3.20
   0  -7  20   -0.22    4.96
   0  -7  20   -4.36    4.11
   0   7  20    1.76    3.54
   0  -7  21    5.64    3.45
   0  -7 -21   -0.17    3.39
   0   7  21    9.67    8.72
   0   7  21   -1.65    4.27
   0  -7  21   -0.84    4.07
   0  -7  22    2.50    5.68
   0   7  22    3.19    6.07
   0  -7 -22    1.96    8.64
   0   7  22    5.35    4.19
   0  -7  22   -2.87    5.02
   0  -7  23    1.39    4.49
   0  -7  23    1.41    5.35
   0   7  23   -5.68    4.20
   0  -7 -23   -4.82    3.92
   0   7  23   -1.53    4.76
   0  -7  24   -5.89    3.40
   0   7  24  -12.09    8.06
   0  -7  24    1.77    3.84
   0  -7 -24    2.38    7.98
   0   7  24   -1.82    7.69
   0  -7  25    3.26    4.69
   0  -7 -25   -2.38    4.63
   0   7  25   -3.47    5.94
   0  -7  25    4.72    3.91
   0   7  25   -4.55    4.32
   0  -7  26   10.57   10.39
   0   7  26    2.15    7.52
   0  -7 -26    4.21    5.64
   0   7  26  -13.11   10.39
   0  -7  26    7.07    8.24
   0  -7  27    0.74    4.03
   0   7  27    5.79    6.60
   0  -7 -27    4.14    5.36
   0   7  27   -7.20    8.07
   0  -7  27    2.23    7.27
   0  -7  28   10.55    7.58
   0  -7 -28    4.56    5.96
   0   7  28   10.33    7.49
   0  -7  28    1.53    4.46
   0   7  28    0.68    5.42
   0   7  29   -2.58    5.59
   0  -7  29    5.59    5.97
   0  -7 -29   -3.48    5.38
   0   7  29   -0.42    5.37
   0  -7  29    2.81    8.33
   0  -8   0  474.57   33.12
   0  -8   0  514.54   31.92
   0  -8   1   19.16    9.73
   0  -8  -1   28.30    7.67
   0  -8  -1   16.23    6.25
   0  -8   1   14.67    5.83
   0  -8  -2   41.86    9.61
   0  -8  -2   57.03   11.14
   0  -8   2   65.20   12.60
   0  -8   2   51.92   11.88
   0  -8  -3    3.77    2.64
   0  -8   3   -0.44    2.44
   0  -8   3    3.68    3.00
   0  -8  -3   -0.70    2.51
   0  -8  -4  231.24   22.62
   0  -8   4  228.85   22.34
   0   8   4  230.54   17.50
   0  -8   4  204.23   20.90
   0  -8  -4  200.78   20.66
   0  -8   5   80.22   13.14
   0  -8  -5   89.65   13.64
   0  -8  -5   78.63   12.40
   0  -8   5   79.09   15.04
   0   8   5   92.42   11.40
   0  -8  -6  305.63   26.63
   0   8   6  281.93   19.44
   0  -8   6  313.56   26.82
   0  -8   6  251.36   24.03
   0   8   7 1345.81   43.19
   0  -8   7 1370.90   56.27
   0  -8  -7 1369.55   56.77
   0  -8   7 1414.83   55.71
   0  -8  -8  546.83   36.29
   0   8   8  665.50   38.31
   0   8   8  647.86   30.86
   0  -8   8  592.04   36.68
   0  -8   8  528.48   34.16
   0  -8   9  227.57   22.93
   0   8   9  200.26   21.46
   0  -8   9  187.40   20.36
   0  -8  -9  186.04   22.55
   0   8   9  231.84   19.72
   0   8  10  211.32   19.81
   0  -8 -10  225.40   23.93
   0  -8  10  236.23   23.03
   0  -8  10  197.45   21.23
   0   8  10  216.79   21.89
   0  -8 -11 1650.81   64.97
   0   8  11 1692.47   63.21
   0  -8  11 1687.20   63.76
   0  -8  11 1703.26   62.19
   0   8  11 1665.45   55.05
   0   8  12   24.16    8.18
   0  -8  12   16.07    8.84
   0  -8  12   29.22    8.14
   0   8  12   26.26    5.55
   0  -8 -12   37.08   12.31
   0  -8  12   19.45    7.57
   0  -8 -13  230.50   25.85
   0  -8  13  218.75   23.36
   0   8  13  196.75   20.30
   0  -8  13  197.38   21.97
   0   8  13  216.96   23.38
   0  -8  13  193.62   21.82
   0   8  14  303.65   27.68
   0  -8 -14  308.67   28.82
   0  -8  14  308.78   27.81
   0   8  14  313.19   26.64
   0  -8  15 1053.82   51.31
   0   8  15 1069.73   52.67
   0  -8  15 1081.47   53.88
   0  -8 -15 1058.08   54.87
   0  -8  15  995.53   49.88
   0   8  15 1010.05   48.36
   0  -8  16    2.06    4.50
   0   8  16    5.30    6.85
   0  -8  16    1.88    5.25
   0  -8 -16    7.77    8.64
   0   8  16   -4.40    3.40
   0  -8  16    3.14    3.49
   0   8  17  881.77   50.23
   0  -8  17  980.50   50.85
   0  -8 -17 1064.56   56.61
   0  -8  17  930.15   50.97
   0   8  17  894.82   49.77
   0  -8  18   44.15   11.46
   0   8  18   77.62   14.31
   0  -8  18   64.74   12.65
   0  -8 -18   73.73   16.02
   0  -8  18   75.21   13.82
   0   8  18   74.98   15.13
   0   8  19  260.04   27.86
   0  -8  19  310.73   30.69
   0  -8  19  298.58   28.93
   0  -8 -19  292.40   30.21
   0  -8  19  316.62   31.75
   0   8  19  266.60   29.02
   0   8  20   11.08    6.01
   0  -8  20   -2.59    3.34
   0  -8  20   -1.91    5.16
   0  -8 -20   -1.08    3.07
   0  -8  20   14.08    8.82
   0   8  20    3.39    4.90
   0  -8  21  290.97   30.21
   0  -8  21  257.39   29.23
   0  -8 -21  274.53   29.65
   0   8  21  258.48   29.72
   0   8  21  286.53   31.18
   0  -8  21  287.66   28.84
   0   8  22   22.20   11.49
   0  -8 -22   14.91    4.62
   0  -8  22   15.28    7.94
   0   8  22   11.05    6.43
   0  -8  22    4.51    4.04
   0   8  23  193.57   25.91
   0   8  23  193.20   25.47
   0  -8  23  212.21   25.73
   0  -8 -23  216.86   27.74
   0  -8  23  201.68   25.93
   0   8  24   56.72   12.46
   0   8  24   29.05   10.61
   0  -8  24   48.13   14.54
   0  -8 -24   77.71   17.41
   0  -8  24   43.65   14.42
   0  -8 -25  489.36   41.19
   0  -8  25  433.41   38.75
   0   8  25  405.21   38.02
   0   8  25  462.27   39.45
   0  -8  26    8.69   13.11
   0  -8  26    8.69    5.97
   0   8  26   -2.46    4.25
   0  -8 -26   -2.58    6.63
   0   8  26   10.61   10.39
   0  -8  27   50.18   15.33
   0   8  27   66.34   18.19
   0  -8  27   80.98   19.34
   0   8  27   76.27   17.56
   0  -8 -27   65.04   16.65
   0  -8  28   19.70   12.47
   0  -8 -28   14.69    7.33
   0  -8  28   33.91   13.40
   0   8  28   25.34   12.09
   0   8  28   17.04    8.14
   0  -9   0    4.59    5.88
   0  -9   0    2.03    3.05
   0  -9  -1    1.44    5.51
   0  -9   1   -2.29    5.20
   0  -9  -1   -0.52    2.00
   0  -9   1   -3.98    4.86
   0  -9  -2    7.54    7.53
   0  -9  -2   -0.69    3.87
   0  -9   2    1.55    4.66
   0  -9   2    7.22    6.52
   0  -9   3    5.68    6.03
   0  -9  -3    2.29    7.92
   0  -9   3    0.53    2.98
   0  -9  -3    0.81    3.88
   0  -9  -4    2.10    5.06
   0  -9   4    3.76    4.56
   0  -9  -4    1.92    3.22
   0  -9   4   -1.02    2.77
   0  -9  -5   -1.58    4.41
   0   9   5   -1.00    1.67
   0  -9   5   -1.24    5.68
   0  -9   5   -0.90    3.71
   0  -9  -5    0.54    4.28
   0  -9  -6   -5.93    8.81
   0   9   6   -2.67    3.84
   0  -9   6   -0.97    6.49
   0  -9   6    5.56    5.04
   0  -9  -6   -3.22    5.18
   0   9   7    1.98    4.14
   0  -9   7    5.19    6.64
   0  -9  -7   -1.51    7.08
   0  -9   7   -0.95    3.97
   0   9   8    0.99    2.27
   0  -9   8    6.23    5.70
   0  -9  -8    4.15    3.09
   0  -9   8    2.08    4.09
   0  -9   9    0.63    4.04
   0  -9   9    4.86    4.71
   0   9   9    3.63    4.17
   0  -9  -9   -0.10    6.35
   0   9  10   -2.86    5.78
   0  -9  10    2.12    4.64
   0  -9  10   -0.57    2.16
   0  -9 -10    3.95    6.77
   0   9  10   -0.73    1.85
   0  -9  11   -5.62    5.78
   0  -9  11   -3.77    4.34
   0   9  11   -2.07    3.99
   0  -9 -11   -2.25    3.89
   0   9  11   -3.84    2.85
   0   9  12    2.29    4.71
   0  -9  12   -1.39    6.96
   0  -9 -12    2.42    7.40
   0  -9  12   -0.33    5.79
   0   9  12   -1.36    2.07
   0  -9  12   -0.06    3.78
   0  -9 -13   -7.58    8.07
   0   9  13   -0.67    3.82
   0  -9  13    0.27    5.06
   0  -9  13    3.27    7.14
   0  -9  13    3.88    4.09
   0   9  13    0.53    3.76
   0  -9  14    1.39    4.63
   0  -9  14    0.29    4.60
   0  -9 -14    2.52    8.00
   0   9  14    3.97    4.24
   0   9  14   -2.24    6.09
   0  -9  14   -4.41    7.04
   0   9  15    0.72    2.97
   0  -9  15   -6.79    4.46
   0  -9 -15   -0.12    4.17
   0  -9  15    3.78    3.88
   0   9  15   -7.63    5.38
   0  -9  15    1.30    5.52
   0  -9 -16   -5.24    4.25
   0  -9  16    3.65    5.46
   0  -9  16   -6.32    7.94
   0   9  16   -9.17    7.89
   0   9  16    1.11    5.06
   0  -9  16   -4.21    6.87
   0   9  17   -8.48    3.98
   0  -9 -17    4.26    5.02
   0  -9  17   -2.88    7.88
   0  -9  17   10.00    6.45
   0   9  17   -0.02    5.37
   0  -9  17    4.09    7.21
   0  -9 -18    5.24    5.50
   0  -9  18   -6.79    9.18
   0   9  18   -6.96    5.13
   0  -9  18    0.74    6.07
   0  -9  18    1.29   11.56
   0   9  18    4.35    6.99
   0  -9  19   -2.24    5.36
   0  -9 -19    3.19    4.02
   0   9  19    0.81    5.38
   0   9  19    4.62    7.69
   0  -9  19    2.50    3.00
   0  -9  19   -9.36    9.03
   0   9  20    4.26    4.77
   0  -9  20   -5.00    4.58
   0  -9 -20   -5.06    4.39
   0  -9  20    3.38    3.99
   0  -9  20    2.20    6.06
   0   9  20   -1.22    4.32
   0   9  21  -10.24    7.33
   0  -9  21   -1.14    4.94
   0  -9 -21   -5.20    5.40
   0  -9  21   -5.41    5.10
   0  -9  21    0.75    3.67
   0   9  21    3.84    6.20
   0  -9  22   -5.07    5.82
   0  -9  22   -0.10    5.21
   0   9  22   -1.62    5.49
   0  -9  22   -7.91    9.61
   0  -9 -22   -2.50    7.11
   0  -9  23   -8.45    8.63
   0  -9 -23   -1.61    6.66
   0  -9  23    6.58    5.85
   0   9  23   -3.57    5.91
   0  -9  24    2.73    6.92
   0  -9  24   -4.57    4.47
   0  -9 -24   -0.37    3.61
   0   9  24   -2.21    5.27
   0  -9  25   -2.22    6.01
   0   9  25   10.35    8.11
   0  -9  25    1.86    4.57
   0  -9 -25   -6.31    8.71
   0  -9  26   -4.45    5.52
   0  -9  26  -10.58    7.67
   0  -9 -26    0.47    5.16
   0   9  26    4.07    5.60
   0   9  27   -3.02    6.08
   0  -9 -27    1.94    3.84
   0  -9  27    6.08    7.45
   0  -9  27   -0.52    7.16
   0 -10   0   40.30   11.76
   0 -10   0   13.32    8.67
   0 -10   1   18.05    8.93
   0 -10  -1   16.54    3.04
   0 -10  -1   14.57    6.10
   0 -10   1   20.38    8.56
   0 -10  -2   27.37    9.16
   0 -10  -2   25.17    9.12
   0 -10   2   25.49    8.90
   0 -10   2   22.67    7.58
   0 -10  -3    2.06    5.40
   0 -10   3    5.16    4.94
   0 -10   3    6.87    5.62
   0 -10  -3    5.26    9.01
   0 -10   4  366.22   31.11
   0 -10   4  360.82   31.03
   0 -10  -4  361.27   31.70
   0 -10  -4  313.35   28.05
   0 -10   5  338.50   29.74
   0 -10  -5  331.44   28.89
   0 -10  -5  311.13   29.97
   0 -10   5  313.48   28.73
   0 -10   6  362.07   30.52
   0  10   6  298.60   22.41
   0 -10  -6  325.55   29.83
   0 -10   6  324.52   30.37
   0 -10   7   88.96   15.17
   0 -10  -7  121.65   17.83
   0 -10   7  115.29   18.09
   0  10   7  123.70   15.09
   0 -10  -7  100.41   17.08
   0 -10  -8  753.40   46.93
   0 -10   8  897.59   48.89
   0 -10   8  916.32   49.31
   0 -10  -8  902.30   48.88
   0  10   8  901.82   41.41
   0 -10   9   81.12   14.66
   0 -10  -9   89.42   16.15
   0 -10   9  119.10   18.28
   0  10   9  108.66   14.20
   0 -10 -10   12.35    5.88
   0 -10  10   15.24    9.53
   0 -10  10    7.66    2.91
   0 -10  11  446.28   35.29
   0 -10  11  474.30   36.10
   0 -10 -11  451.60   36.72
   0 -10  12   95.41   16.67
   0 -10  12   83.52   15.44
   0 -10  12   91.60   16.54
   0 -10 -12  112.93   19.50
   0  10  12  102.76   16.41
   0 -10  13   91.41   15.93
   0  10  13   66.24   13.70
   0 -10  13   49.15   11.90
   0 -10  13   54.09   13.16
   0 -10 -13   57.24   14.93
   0 -10  14  390.69   33.93
   0 -10  14  356.95   31.49
   0  10  14  378.22   32.64
   0 -10  14  308.21   31.48
   0 -10 -14  402.88   36.35
   0 -10  15   12.64    5.66
   0 -10 -15   14.19    8.86
   0  10  15    7.07    4.21
   0 -10  15    6.17    6.95
   0 -10  15   16.59    9.12
   0 -10  16   -1.27    3.88
   0  10  16   -1.20    5.06
   0 -10  16   -0.05    5.21
   0 -10 -16    3.52    6.00
   0 -10  16    1.23    3.90
   0 -10  17   21.94    6.61
   0 -10 -17    7.38    3.43
   0 -10  17   10.99    7.27
   0  10  17   27.55   10.64
   0 -10  17   26.93   11.18
   0 -10  18  213.22   25.81
   0 -10 -18  177.38   24.14
   0  10  18  197.56   24.82
   0 -10  18  210.29   24.86
   0 -10  18  208.18   26.13
   0 -10  19    5.26    3.71
   0 -10  19   15.41    6.26
   0  10  19   15.94   10.63
   0 -10  19   25.61    9.65
   0 -10 -19   36.67   12.46
   0 -10  20   14.36    7.93
   0  10  20    7.39    6.34
   0 -10  20   12.65    7.29
   0 -10 -20   18.75    7.44
   0 -10  20   11.97    4.37
   0 -10  21   84.78   16.04
   0 -10 -21   96.96   19.75
   0 -10  21   65.90   16.53
   0 -10  21  102.04   17.73
   0  10  21  100.04   17.52
   0 -10 -22  501.81   42.35
   0 -10  22  462.13   41.91
   0  10  22  509.82   40.93
   0 -10  22  445.00   37.61
   0 -10  22  483.83   40.38
   0 -10  23    5.41    4.97
   0  10  23   -2.28    7.82
   0 -10 -23   -4.78    6.31
   0 -10  23   -5.97    8.18
   0 -10  23    5.92    4.06
   0  10  24   28.12    9.91
   0 -10  24   22.79   11.56
   0 -10 -24   42.55   12.63
   0 -10  24   24.59   11.05
   0 -10  25  200.85   26.59
   0 -10 -25  171.58   25.06
   0  10  25  141.66   22.41
   0 -10  25  129.36   26.46
   0 -11   0   -0.09    2.07
   0 -11   0    9.28    7.48
   0 -11   1   -0.51    4.31
   0 -11  -1   -3.33    3.75
   0 -11  -1   -4.28    4.41
   0 -11   1    2.07    6.00
   0 -11   2   -2.72    6.29
   0 -11   2    2.29    2.52
   0 -11  -2   -5.70    7.39
   0 -11  -2   -2.83    7.48
   0 -11   3   -0.80    3.50
   0 -11   3    1.28    2.44
   0 -11  -3   -1.72    2.98
   0 -11  -3    1.63    3.69
   0 -11  -4   -5.35    5.61
   0 -11   4    5.00    5.55
   0 -11  -4    8.09   10.44
   0 -11   4    5.27    4.51
   0 -11   5   -8.04    7.39
   0 -11   5    0.02    4.38
   0 -11  -5   -4.32    3.31
   0 -11   6    8.16    7.55
   0 -11   6    5.87    4.91
   0 -11  -6   16.17   11.24
   0 -11  -6   -0.70    2.98
   0 -11   7    3.00    6.01
   0 -11  -7   -2.12    4.19
   0 -11   7    1.30    4.28
   0 -11  -7    4.50    8.35
   0 -11   8   -0.07    3.04
   0 -11   8   11.65    7.32
   0 -11  -8    5.93    3.68
   0 -11  -8    4.74    6.45
   0 -11   9   -2.30    5.26
   0 -11  -9   -2.68    8.64
   0 -11   9    5.39    9.80
   0 -11  -9    3.53    4.71
   0 -11  10    4.40    8.28
   0 -11 -10    2.15    3.37
   0 -11 -10   -2.36    4.07
   0 -11  10    1.86    4.70
   0 -11  11   -5.45    7.45
   0 -11 -11   -5.22    7.18
   0 -11  11    5.94    5.78
   0 -11  12    0.96    4.99
   0 -11 -12    1.65    3.44
   0 -11  12   -2.30    3.54
   0 -11  13    5.28    4.81
   0 -11  13    0.45    3.92
   0 -11 -13   -4.48    7.00
   0 -11  14    3.47    3.74
   0 -11 -14    0.94    8.18
   0 -11  14   -2.70    4.99
   0 -11  14   -3.33    2.44
   0 -11  15   -8.79    8.05
   0 -11  15   -4.13   10.19
   0  11  15    0.34    8.00
   0 -11  15    2.05    4.34
   0 -11 -15    5.75    7.60
   0 -11  16    5.16    6.62
   0 -11  16    8.98    6.71
   0  11  16   -1.66    6.42
   0 -11  16   22.03   16.20
   0 -11 -16    9.42   11.59
   0 -11 -17    0.35    7.40
   0  11  17    3.70    6.86
   0 -11  17   -1.58    4.82
   0 -11  17   11.46   10.03
   0 -11  18   -4.71    6.02
   0 -11 -18    1.24    6.19
   0 -11  18   -0.80    7.39
   0  11  18   -1.95    5.12
   0 -11 -19   -4.73    4.34
   0 -11  19    2.85    7.46
   0 -11  19    4.13    8.40
   0 -11  19   13.90    7.85
   0  11  19    0.03    3.62
   0  11  20    9.90    7.57
   0 -11  20    5.52    4.17
   0 -11  20    8.36    5.06
   0 -11  20   11.82    9.89
   0 -11 -20   -2.36    7.23
   0 -11  21   10.87   10.51
   0 -11  21  -10.20    5.74
   0 -11 -21    2.40    9.21
   0 -11  21    7.55    6.98
   0  11  21   -5.59    8.28
   0 -11  22    0.85    6.46
   0 -11  22    8.01    5.24
   0 -11  22    4.66    5.17
   0 -11 -22    0.41    7.20
   0  11  22   -1.82    4.50
   0 -11 -23    6.06    8.61
   0 -11  23   15.14   13.89
   0  11  23   13.10    7.07
   0 -11  23   13.09   10.62
   0 -11  23    1.20    8.27
   0 -11 -24   -4.39   10.08
   0  11  24   -2.68    8.19
   0 -11  24   20.27   17.05
   0 -11  24   13.14    9.90
   0 -12   0  264.66   28.55
   0 -12   0  260.08   28.71
   0 -12  -1   -4.30    3.48
   0 -12   1    0.82    5.61
   0 -12   1    4.94    6.64
   0 -12   2    3.93    7.31
   0 -12  -2    2.92    4.63
   0 -12   2    2.52    5.73
   0 -12  -2    4.79    7.39
   0 -12   3  156.62   24.06
   0 -12  -3  120.99   19.44
   0 -12  -3  142.25   22.91
   0 -12   3  135.30   21.46
   0 -12  -4    0.67    6.74
   0 -12   4    7.79    6.32
   0 -12   4    0.87    5.04
   0 -12  -4   10.29    4.72
   0 -12  -5  129.57   19.96
   0 -12  -5  164.60   23.58
   0 -12   5  185.14   25.65
   0 -12   5  200.82   25.32
   0 -12  -6   19.17    9.61
   0 -12   6   10.57    7.34
   0 -12  -6    2.86    3.98
   0 -12   6    6.16    3.43
   0 -12   7   57.26   13.34
   0 -12  -7   82.13   18.29
   0 -12   7   40.07   12.43
   0 -12  -7   63.74   14.63
   0 -12   8   39.74   10.81
   0 -12   8   33.15   10.85
   0 -12  -8   32.51   10.84
   0 -12  -8   69.41   16.52
   0 -12   9   25.88   10.06
   0 -12  -9   22.24   10.71
   0 -12   9   12.47    7.98
   0 -12  -9   20.42    6.54
   0 -12 -10  478.23   40.24
   0 -12  10  453.71   37.69
   0 -12 -10  478.37   39.05
   0 -12  10  468.02   38.19
   0 -12 -11  195.38   25.74
   0 -12  11  171.39   23.58
   0 -12  11  189.50   25.11
   0 -12 -11  191.40   25.07
   0 -12 -12   56.48   16.91
   0 -12  12   47.51   12.29
   0 -12 -12   62.41   15.31
   0 -12  12   85.04   16.92
   0 -12 -13    4.53    7.68
   0 -12  13    4.80    6.21
   0 -12  13    3.69    7.37
   0 -12  14   38.93   12.88
   0 -12 -14   18.49    8.77
   0 -12  14   26.50    9.18
   0 -12  15    0.74    7.05
   0 -12  15   -1.86    3.84
   0 -12 -15    6.24    9.22
   0 -12  16   10.22    8.57
   0 -12 -16    9.89    6.36
   0 -12  16   11.89    6.21
   0 -12  17   13.69    7.41
   0 -12 -17   25.70    9.46
   0 -12  17   10.27    4.75
   0 -12  18    8.95    7.68
   0  12  18   11.64    9.38
   0 -12 -18   18.27   11.11
   0 -12  18    4.52    7.35
   0 -12  19    6.99    4.67
   0 -12 -19    8.56    5.32
   0 -12  19    2.10    6.40
   0  12  19    6.79   10.50
   0 -12  20   32.86   10.52
   0 -12 -20   30.08   13.15
   0 -12  20   16.64    8.78
   0  12  20   22.58    8.57
   0 -12  21   49.95   12.93
   0 -12 -21  100.58   19.61
   0 -12  21   57.99   12.38
   0  12  21   69.11   14.19
   0  12  22   16.31    8.55
   0 -12  22   26.30    9.44
   0 -12 -22   36.04   13.23
   0 -12  22   26.87    9.20
   0 -13   0    2.41    6.63
   0 -13   0   -0.83    2.99
   0 -13   1    5.64    6.03
   0 -13  -1   -4.21    5.20
   0 -13   1   -2.39    3.95
   0 -13  -1   -2.70    5.09
   0 -13  -2   -1.64    3.77
   0 -13   2   -3.77    4.79
   0 -13  -2    4.34    7.26
   0 -13   2   -1.52    5.97
   0 -13   3   -3.40    3.47
   0 -13  -3    1.96    7.35
   0 -13  -3   -0.72    3.90
   0 -13   3    1.92    9.74
   0 -13   4    7.73    8.52
   0 -13  -4   -8.72   12.33
   0 -13   4   -0.03    6.72
   0 -13  -4    7.38    6.34
   0 -13   5   -4.98    4.46
   0 -13  -5    5.86    6.60
   0 -13  -5   -2.28    8.28
   0 -13   5   -2.90    6.54
   0 -13  -6   -6.48    6.25
   0 -13   6   -3.52    4.24
   0 -13  -6   -2.81    6.34
   0 -13   6   -4.91    7.57
   0 -13   7   -6.43    7.01
   0 -13   7    1.69    5.65
   0 -13  -7    5.41    6.70
   0 -13  -7    3.18    7.47
   0 -13  -8   -1.01    4.97
   0 -13  -8    1.03    6.13
   0 -13   8    1.11    5.19
   0 -13   8   -6.50    6.72
   0 -13  -9    6.12    9.56
   0 -13  -9   -1.21    5.25
   0 -13   9    7.08    6.92
   0 -13   9   -4.67    6.43
   0 -13  10   -1.61    5.91
   0 -13 -10    1.39    4.71
   0 -13 -10    5.59    4.89
   0 -13  10   -1.47    7.70
   0 -13  11   -0.03    5.00
   0 -13 -11    8.39    8.21
   0 -13 -11   -4.13    8.25
   0 -13  11   -1.77    3.85
   0 -13  12    2.55    4.66
   0 -13 -12   12.28   10.01
   0 -13  12    3.57    6.00
   0 -13 -12   -1.83    5.04
   0 -13 -13   -4.63    5.44
   0 -13 -13    1.96    6.84
   0 -13  13   -7.78    7.91
   0 -13  13    3.45    6.56
   0 -13 -14    4.87   10.57
   0 -13  14    0.97    3.93
   0 -13  14    8.17    9.35
   0 -13 -14    4.68    7.37
   0 -13  15    8.79    6.47
   0 -13  15   -1.59    4.70
   0 -13 -15   -9.83    7.58
   0 -13 -15   -5.99    8.87
   0 -13 -16   -0.98    5.20
   0 -13  16  -16.61   10.75
   0 -13 -17    9.29   12.32
   0 -13  17   11.20    9.32
   0 -13  17   -2.45    3.95
   0 -13  18    5.39    6.35
   0 -13  18    2.94    5.36
   0 -13 -18    6.27    9.43
   0 -13 -19   12.31    9.46
   0 -13  19   16.49    8.31
   0 -13  19    2.72    7.84
   0 -13 -20    0.39    4.05
   0 -13  20    5.84    6.65
   0 -14   0   38.33   12.64
   0 -14   0   21.31    8.28
   0 -14  -1  126.70   22.02
   0 -14  -1  118.39   21.02
   0 -14   1  109.52   19.75
   0 -14   1  106.43   20.63
   0 -14   2   -0.35    8.06
   0 -14   2   -3.88    4.50
   0 -14  -2    7.99    9.48
   0 -14  -2    2.79    6.63
   0 -14  -3    0.94    3.53
   0 -14   3   21.56    9.97
   0 -14   3   20.58   10.39
   0 -14  -3   31.87   10.72
   0 -14  -4   26.79    7.04
   0 -14  -4   38.52   13.06
   0 -14   4   41.59   11.79
   0 -14   4   19.71    9.16
   0 -14   5    9.33    9.88
   0 -14  -5    3.75    6.51
   0 -14  -5   10.49    7.23
   0 -14   5   -1.12    6.44
   0 -14  -6   79.82   18.55
   0 -14   6   50.04   13.99
   0 -14  -6   34.69   11.96
   0 -14   6   69.53   17.50
   0 -14  -7  170.53   25.33
   0 -14   7  155.07   24.67
   0 -14   7  129.79   21.33
   0 -14  -7  162.67   24.22
   0 -14  -8  188.05   27.54
   0 -14   8  182.37   25.93
   0 -14   8  115.35   22.07
   0 -14  -8  188.29   26.04
   0 -14  -9   16.38    7.86
   0 -14  -9   19.46    8.06
   0 -14   9   -4.35    5.47
   0 -14   9   11.24    8.55
   0 -14 -10  177.93   25.98
   0 -14 -10  158.22   23.46
   0 -14  10  134.84   22.77
   0 -14  10  150.27   22.45
   0 -14  11   10.39    3.88
   0 -14  11    1.95    4.31
   0 -14 -12   44.83   11.72
   0 -14  12   80.08   17.25
   0 -14 -12   31.01    7.38
   0 -14  12   63.33   16.08
   0 -14 -13  134.61   20.78
   0 -14  13  132.23   21.09
   0 -14 -13  150.69   24.93
   0 -14  13  118.63   20.00
   0 -14  14  109.54   19.65
   0 -14 -14   92.59   18.89
   0 -14 -14  138.22   24.13
   0 -14  14  129.76   20.99
   0 -14  15   -2.93    4.58
   0 -14 -15   -9.17    8.45
   0 -14 -15   -2.22    6.44
   0 -14  15    7.33    7.39
   0 -14  16    9.68    4.35
   0 -14  16   12.61    8.53
   0 -14 -16   18.83    7.68
   0 -14 -16    4.91    5.93
   0 -14  17    8.50    5.28
   0 -14 -17    3.51    5.77
   0 -14 -17    5.74    7.93
   0 -14  17   -3.74    5.91
   0 -15   0   10.13    4.49
   0 -15   0    1.56    4.56
   0 -15   1   -4.47    6.94
   0 -15   1    1.86    5.88
   0 -15  -1    3.22    4.93
   0 -15  -1   -1.25    5.48
   0 -15  -2    6.75    7.92
   0 -15   2    5.91    5.45
   0 -15   2   11.99    7.95
   0 -15  -2   -1.96    7.59
   0 -15  -3    7.93    7.60
   0 -15   3    3.93    6.35
   0 -15   3    1.83    7.29
   0 -15  -3    4.71    7.99
   0 -15   4   23.30   11.48
   0 -15  -4   -3.67    4.37
   0 -15  -4  -11.16    8.25
   0 -15   4   10.89    7.72
   0 -15  -5    1.69    6.17
   0 -15   5    8.02    5.15
   0 -15  -5    5.04    9.46
   0 -15   5   11.67    7.85
   0 -15   6    0.28    3.67
   0 -15  -6    0.91    4.69
   0 -15   6    6.33    8.73
   0 -15  -6   -5.49    6.08
   0 -15  -7   -4.02    7.06
   0 -15   7    0.18    5.38
   0 -15   7    4.72    9.34
   0 -15  -7   -4.84   10.54
   0 -15   8    2.56    4.87
   0 -15   8    6.19    9.63
   0 -15  -8   -4.48    8.58
   0 -15  -8   -2.65    5.20
   0 -15  -9   11.67    9.70
   0 -15  -9    9.42    9.83
   0 -15   9   -5.76    5.61
   0 -15   9    3.59    5.66
   0 -15  10   -2.02    5.56
   0 -15 -10    0.92    7.23
   0 -15  10   -6.38    4.07
   0 -15 -10    3.75    6.01
   0 -15  11    1.15    8.06
   0 -15  11   -1.43    7.12
   0 -15 -11   -8.34    6.82
   0 -15 -11   -2.92    7.83
   0 -15  12   10.50    8.36
   0 -15 -12    2.53    9.78
   0 -15  12  -11.55    9.62
   0 -15 -12   -5.80    5.89
   0 -15 -13   -5.04    4.69
   0 -15 -13    6.54   11.12
   0 -15  13  -10.45    7.56
   0 -15  13   -2.01    4.63
   0 -16   0  254.59   31.99
   0 -16   0  247.90   34.01
   0 -16  -1    5.09    7.21
   0 -16   1   -8.65    5.94
   0 -16   1   11.61   10.06
   0 -16  -1   18.27   12.87
   0 -16   2   24.71   11.72
   0 -16   2   14.51   11.19
   0 -16  -2   17.26    9.90
   0 -16  -2   14.32    7.72
   0 -16  -3    0.29    5.10
   0 -16   3   -4.82    7.02
   0 -16  -3   20.41   11.34
   0 -16   3   12.33    6.53
   0 -16  -4  586.99   47.66
   0 -16  -4  509.82   46.26
   0 -16   4  419.74   41.34
   0 -16   4  492.71   44.19
   0 -16   5  -10.68   11.19
   0 -16  -5   19.65    9.09
   0 -16   5   14.72    7.36
   0 -16  -5    9.39    9.91
   0 -16  -6   -0.66    6.90
   0 -16  -6   -1.35    5.43
   0 -16   6   -5.19    5.33
   0 -16   7    0.61    5.68
   0 -16  -7   17.82   11.72
   0 -16   7   23.53   10.87
   0 -16  -8   32.92   12.46
   0 -16  -8   63.32   16.71
   0 -16   8   49.30   12.63
   0 -16   8   56.44   15.61
  -1   0   0    0.49    0.79
   1   0   1    0.05    0.60
  -1   0   1   -0.22    0.95
   1   0   2 2606.68   28.89
  -1   0   2 2711.66   25.29
   1   0   3   -1.00    1.35
  -1   0   3   -0.01    0.76
  -1   0   3   -0.72    1.61
   1   0   4 1638.22   30.59
  -1   0   4 1752.03   29.01
  -1   0   5   -0.98    0.76
   1   0   5    0.52    1.27
  -1   0   5   -2.77    0.97
   1   0   6 3192.89   51.43
  -1   0   6 3268.32   48.90
  -1   0   6 3201.04   53.43
  -1   0   7   -1.15    2.80
   1   0   7   -0.26    1.66
  -1   0   7    0.42    0.99
   1   0   7   -1.15    1.68
   1   0   8 3359.05   60.89
  -1   0   8 3297.73   57.14
   1   0   8 3333.36   60.05
   1   0   9    2.02    2.65
   1   0   9   -0.28    2.51
  -1   0   9    0.08    1.32
  -1   0   9    4.20    2.80
   1   0  10    8.11    2.65
  -1   0  10   11.10    6.00
  -1   0  10   15.60    5.27
   1   0  10    8.12    2.94
  -1   0  11    0.73    2.44
   1   0  11   -0.23    2.20
  -1   0  11    1.62    4.13
   1   0  11    4.79    5.72
  -1   0  12 1870.05   54.03
   1   0  12 1928.86   54.78
  -1   0  12 1743.51   54.65
   1   0  12 1882.19   55.17
   1   0  13    3.08    2.88
  -1   0  13    2.43    4.85
   1   0  13   -3.24    4.80
  -1   0  13   -0.24    2.82
  -1   0  14  831.28   38.38
   1   0  14  802.47   38.09
  -1   0  14  938.44   42.18
   1   0  14  884.71   40.54
   1   0  15    1.92    4.37
   1   0  15    3.04    6.07
  -1   0  15    2.10    3.97
  -1   0  15   -1.34    2.53
   1   0  16 2408.16   71.93
  -1   0  16 2310.66   70.53
   1   0  16 2264.44   68.70
  -1   0  16 2287.68   67.45
  -1   0  17   -0.25    3.87
   1   0  17   -1.00    1.94
   1   0  17   -2.31    2.70
  -1   0  17   -1.62    1.76
   1   0  18    2.46    5.75
   1   0  18   -4.07    6.90
  -1   0  18   -0.87    3.56
  -1   0  18   -2.57    3.98
   1   0  19    2.98    5.22
   1   0  19   -1.39    3.07
  -1   0  19   -2.83    3.08
  -1   0  19    2.45    5.36
  -1   0  20  115.19   17.50
   1   0  20  141.46   19.04
   1   0  20  113.46   18.06
  -1   0  20  113.76   19.08
   1   0  21    1.34    5.15
  -1   0  21   -0.22    4.05
   1   0  21   -1.51    3.31
  -1   0  21   -2.15    2.82
  -1   0  22   61.43   15.01
   1   0  22   65.48   14.01
  -1   0  22   83.83   15.54
   1   0  22  106.52   16.43
   1   0  23   -0.16    6.24
   1   0  23    0.78    4.04
  -1   0  23    1.49    3.46
  -1   0  23    1.21    8.14
   1   0  24  461.00   38.67
  -1   0  24  485.96   37.65
  -1   0  24  436.71   37.55
   1   0  24  458.41   36.50
   1   0  25    1.63    5.98
  -1   0  25    8.65    9.27
  -1   0  25   -1.63    6.29
   1   0  25   -5.85    4.92
  -1   0  26  629.18   43.99
   1   0  26  579.21   45.19
  -1   0  26  696.95   48.62
   1   0  26  679.16   45.63
   1   0  27   -1.92    5.89
  -1   0  27    2.64    8.80
   1   0  27   -2.07    5.59
  -1   0  27    0.65    4.76
   1   0  28    9.37    5.10
  -1   0  28    1.51    2.84
   1   0  28    3.34    8.54
  -1   0  28    1.99    9.45
   1   0  29   -2.23    4.72
  -1   0  29   -0.56    4.48
  -1   0  29    1.90    5.17
   1   0  29   -0.29    3.49
  -1   0  30   65.06   15.14
  -1   0  30   62.83   13.22
   1   0  30   59.32   14.25
   1   0  30   38.01   12.44
  -1   0  31    2.42    6.28
   1   0  31    7.04   12.15
   1   0  31   -2.99    5.56
  -1   0  31    4.28    8.32
  -1   0  32   22.48   10.74
   1   0  32   28.25   13.80
   1   0  32    4.09    6.20
  -1   0  32   14.84    6.88
  -1   1   0    0.83    1.48
   1  -1   0    0.73    0.65
   1  -1   0   -0.31    0.61
  -1  -1   0    0.48    0.88
  -1   1   1  962.58   20.29
  -1  -1  -1  880.27   16.84
   1  -1   1  666.95   17.19
   1  -1   1  931.70   14.91
   1   1   1 1000.04   14.90
   1  -1  -1  902.01   16.59
  -1  -1   1  710.57   13.05
  -1  -1   1  882.86   18.45
   1   1   2 2700.08   30.18
  -1  -1   2 2850.58   35.08
  -1   1   2 2744.66   37.40
   1  -1   2 2873.77   37.91
  -1   1   2 2910.64   34.52
   1  -1   2 2905.53   28.77
  -1  -1   2 2862.90   31.40
  -1  -1  -2 3001.68   33.26
  -1  -1   3  524.48   16.64
  -1   1   3  594.53   18.79
  -1  -1   3  552.51   13.33
   1  -1   3  517.40   17.10
   1   1   3  580.81   16.28
  -1   1   3  559.10   16.55
  -1  -1   3  561.80   16.73
   1  -1   3  532.74   14.08
  -1  -1   4  171.34    8.84
   1   1   4  175.46   10.01
   1   1   4  189.80    9.84
  -1   1   4  173.32   10.98
  -1  -1   4  173.19   10.16
  -1  -1   4  173.14   10.69
   1  -1   4  158.01   10.13
  -1   1   4  161.51    9.60
   1  -1   4  168.05    8.97
   1   1   5  620.17   20.25
  -1   1   5  679.76   23.28
   1  -1   5  697.44   22.57
  -1  -1   5  640.63   19.26
  -1  -1   5  649.38   22.05
  -1  -1   5  653.54   21.74
   1  -1   5  672.02   19.96
   1   1   5  668.00   22.14
  -1   1   5  679.08   21.70
   1   1   6  154.90   11.50
   1  -1   6  147.12   11.22
  -1   1   6  147.33   11.45
  -1  -1   6  126.84   10.51
   1   1   6  133.80   10.41
  -1  -1   6  121.45   10.06
  -1  -1   6  139.86   10.09
  -1   1   6  149.39   11.23
   1   1   7  377.78   19.16
   1   1   7  339.06   18.22
  -1  -1   7  361.00   17.80
  -1   1   7  356.84   19.61
  -1   1   7  335.33   17.68
   1  -1   7  362.67   19.13
  -1   1   8  424.77   20.90
   1  -1   8  408.24   21.09
  -1   1   8  378.75   20.71
   1   1   8  476.49   21.82
   1   1   8  415.12   21.48
  -1  -1   8  422.04   20.20
  -1  -1   8  392.10   21.72
  -1  -1   9   99.75   10.62
   1  -1   9  110.31   12.12
  -1  -1   9   93.17   10.99
   1   1   9   96.92   10.54
   1  -1   9  112.45   11.68
  -1   1   9   94.22   10.46
   1   1   9  114.77   11.68
  -1   1   9   82.33   10.66
   1  -1  10   32.08    7.05
   1   1  10   40.65    8.69
  -1   1  10   38.83    7.78
   1   1  10   27.62    6.64
   1  -1  10   35.45    6.94
  -1  -1  10   15.30    6.02
  -1  -1  10   25.75    5.86
  -1   1  10   38.13    7.70
  -1   1  11  274.47   20.33
  -1  -1  11  287.86   21.54
   1   1  11  313.57   20.76
   1  -1  11  317.15   21.99
   1   1  11  319.28   21.73
   1  -1  11  320.59   21.54
  -1   1  11  287.96   20.26
  -1  -1  11  310.47   20.72
  -1  -1  12   38.06    7.78
   1  -1  12   37.83    8.11
  -1  -1  12   35.78    7.94
   1   1  12   30.12    6.47
  -1   1  12   20.04    5.79
   1  -1  12   25.20    5.18
   1   1  12   29.54    7.25
  -1   1  12   34.24    7.67
  -1  -1  13  672.63   33.30
   1   1  13  763.48   36.37
   1   1  13  684.32   33.79
  -1   1  13  712.86   34.34
  -1   1  13  719.87   35.79
   1  -1  13  616.79   32.77
   1  -1  13  693.67   34.73
  -1  -1  13  713.85   35.57
  -1  -1  14   65.98   11.42
   1   1  14   82.36   12.67
  -1   1  14   69.58   11.92
   1   1  14   88.61   13.11
   1  -1  14   61.77   10.75
  -1  -1  14  101.41   13.61
   1  -1  14   42.09    8.27
  -1   1  14   71.66   10.27
  -1  -1  15   95.73   13.71
  -1   1  15   86.16   12.56
   1   1  15   71.85   12.16
   1  -1  15   77.86   12.63
  -1  -1  15   91.75   14.21
   1   1  15  104.06   14.37
   1  -1  15   71.22   12.39
  -1   1  15   92.19   13.98
   1   1  16  139.13   16.58
   1  -1  16  169.75   18.29
  -1   1  16  206.56   19.99
   1  -1  16  168.63   18.29
  -1   1  16  182.80   19.48
   1   1  16  213.70   21.14
  -1  -1  16  180.50   18.69
  -1  -1  16  159.91   19.91
   1   1  17 1074.38   48.23
   1  -1  17 1072.70   49.05
  -1   1  17 1094.87   50.06
  -1   1  17 1069.45   47.40
   1   1  17 1038.73   46.94
  -1  -1  17  971.93   47.24
  -1  -1  17 1060.32   47.17
   1  -1  17 1021.35   46.71
   1   1  18    9.71    5.96
   1   1  18    5.77    5.06
   1  -1  18    9.92    5.29
  -1  -1  18   12.31    8.58
  -1   1  18    5.28    2.71
  -1  -1  18    0.42    2.47
   1  -1  18    5.28    5.97
  -1   1  18    3.28    5.35
  -1  -1  19   12.19    6.55
   1  -1  19   23.73    9.24
  -1   1  19   12.43    7.69
  -1  -1  19   16.14    6.72
  -1   1  19    6.76    2.47
   1   1  19   14.08    6.75
   1   1  19    6.85    2.61
   1  -1  19    7.41    5.19
  -1  -1  20  661.54   40.61
   1  -1  20  679.03   41.39
  -1   1  20  594.75   40.04
   1   1  20  658.72   40.09
   1  -1  20  636.34   41.28
   1   1  20  663.18   41.75
  -1   1  20  695.41   41.38
   1   1  21    9.83    7.40
   1  -1  21   11.55    6.51
  -1  -1  21    1.38    5.16
  -1   1  21    7.89    6.50
   1  -1  21   18.09    7.72
   1   1  21   11.29    3.97
  -1   1  21   12.59    8.39
  -1  -1  21   12.56    4.45
   1   1  22  137.38   19.78
  -1   1  22  143.77   19.82
  -1  -1  22  138.86   19.60
   1  -1  22  163.25   21.81
   1   1  22  147.84   21.88
   1  -1  22  147.58   21.09
  -1   1  22  160.23   21.56
  -1  -1  22  160.45   22.23
   1   1  23  143.51   20.68
   1   1  23  108.19   19.25
  -1   1  23  114.12   19.42
  -1   1  23  108.78   16.91
  -1  -1  23  138.21   21.87
   1  -1  23  126.10   19.53
   1  -1  23  124.10   20.67
  -1  -1  23  133.44   18.71
   1  -1  24   -0.39    4.66
  -1   1  24   -0.31    5.44
   1  -1  24    1.67    4.90
  -1  -1  24    6.07    2.56
   1   1  24   -1.23    7.04
  -1   1  24   -3.25    5.03
  -1  -1  24    1.46    3.87
   1   1  24    4.84    6.60
  -1  -1  25   87.52   17.61
  -1  -1  25  109.14   19.42
  -1   1  25  126.63   20.27
   1   1  25  141.86   22.39
   1  -1  25  139.76   21.01
   1  -1  25  150.42   22.55
   1   1  25  147.90   21.28
  -1   1  25  117.58   19.20
   1  -1  26  138.08   20.81
  -1   1  26  135.51   22.44
   1  -1  26  128.84   21.66
   1   1  26  114.25   19.21
  -1  -1  26  135.81   20.12
   1   1  26  158.63   21.99
  -1  -1  26  102.90   19.22
  -1   1  26  108.04   19.47
  -1   1  27   -1.05    9.00
  -1  -1  27   -2.60    7.53
   1  -1  27   -0.25    4.99
  -1  -1  27   -1.71    8.94
   1   1  27    4.18    7.59
  -1   1  27   -5.49    8.72
   1  -1  27   -1.15    5.50
   1   1  27    3.92    4.48
  -1   1  28    1.44    3.96
   1  -1  28    0.77    7.30
   1   1  28   -4.80    5.05
   1  -1  28   -0.65    6.32
   1   1  28   -1.60    3.64
  -1  -1  28   -0.76    5.82
  -1  -1  28    0.80    6.04
  -1   1  28    5.07    2.72
   1  -1  29    2.42    4.34
  -1   1  29    1.51    9.41
   1   1  29   -1.46    7.30
   1   1  29   -4.83    5.43
   1  -1  29    6.11    8.05
  -1  -1  29   -0.80    5.95
  -1  -1  29   -1.24    6.69
  -1   1  29    0.80    5.52
  -1  -1  30   -9.85   10.40
   1   1  30   14.17   10.08
  -1   1  30   -4.30    8.92
  -1   1  30   -2.18    6.07
   1   1  30   -2.76    7.23
   1  -1  30   -6.57    7.58
   1  -1  30   -0.65    4.80
  -1  -1  30    1.41    4.33
  -1  -1  31    8.78    8.34
   1   1  31    9.81    7.13
  -1  -1  31   18.95   11.26
  -1   1  31   21.07    6.90
   1  -1  31   18.80   12.32
   1   1  31    3.39    3.77
   1  -1  31    7.84    3.66
  -1   1  31    5.91   10.49
   1   1  32   35.86   11.98
   1   1  32   26.22   13.69
   1  -1  32   51.57   13.44
  -1   1  32   68.35   16.39
  -1   1  32   42.27   13.82
  -1  -1  32   31.88   11.26
  -1  -1  32   32.31   10.63
   1  -1  32   55.37   14.44
  -1   2   0    0.08    0.98
  -1  -2   0    0.23    1.29
   1  -2   0    0.98    1.27
   1  -2   0    0.78    0.92
  -1   2   1  133.04    8.61
  -1  -2   1  142.05    7.30
   1   2   1  123.75    6.80
   1  -2  -1  137.21    9.64
   1  -2  -1  134.94    8.67
  -1  -2  -1  132.73    9.04
   1  -2   1  138.82    9.95
   1  -2   1  148.53    8.74
  -1  -2   1  143.92    9.35
   1   2   2  428.36   14.25
   1  -2   2  412.75   15.02
   1  -2  -2  416.44   15.85
  -1  -2  -2  394.73   16.02
  -1  -2   2  414.04   11.88
   1  -2   2  450.69   18.20
  -1   2   2  421.30   15.98
  -1   2   2  448.95   16.95
  -1  -2   2  405.87   17.09
  -1  -2   2  424.08   13.41
   1  -2  -3 8475.63   75.84
  -1  -2   3 8520.85   78.87
   1   2   3 8499.95   69.12
   1  -2   3 8459.11   70.63
  -1   2   3 8481.99   76.12
  -1  -2  -3 8247.18   76.15
  -1  -2   3 8536.05   63.80
  -1   2   3 8696.42   77.71
  -1  -2   3 8505.00   63.48
   1   2   3 8366.73   52.68
   1  -2   3 8274.43   81.49
  -1   2   4  361.18   16.74
  -1  -2   4  364.61   14.11
   1  -2   4  353.79   15.10
  -1  -2   4  389.97   15.51
  -1   2   4  374.78   16.93
   1   2   4  396.37   16.32
  -1  -2   4  336.50   16.14
  -1  -2  -4  369.70   16.79
   1  -2   4  347.29   17.48
   1  -2   5 7510.01   73.71
   1   2   5 6930.44   74.54
  -1   2   5 7572.80   79.97
   1  -2   5 7365.87   81.03
  -1  -2   5 7497.88   69.05
  -1  -2   5 7827.36   81.28
   1   2   5 7535.82   66.81
  -1  -2   5 7709.22   75.27
  -1   2   5 7632.92   81.43
  -1  -2  -5 6967.92   76.77
  -1  -2   6 1104.97   29.24
   1   2   6 1043.75   27.76
  -1   2   6 1155.76   33.88
  -1  -2   6 1004.67   31.52
  -1   2   6 1092.72   31.98
   1  -2   6 1054.96   31.75
   1   2   6 1153.19   32.27
   1  -2   6 1013.42   29.37
  -1  -2   7  386.33   18.66
  -1  -2   7  399.28   19.75
  -1   2   7  376.03   19.74
   1  -2   7  389.80   19.39
  -1   2   7  426.21   21.85
  -1  -2   7  401.12   21.12
   1  -2   7  401.20   20.28
   1   2   7  399.92   18.66
   1   2   7  412.25   20.34
  -1  -2   8   95.11    9.64
  -1  -2   8   83.77   10.05
  -1  -2   8   89.49   10.69
  -1   2   8   83.10    9.37
   1  -2   8   95.40   10.44
   1   2   8  102.92   10.90
   1  -2   8   87.58   10.16
  -1   2   8  100.23   11.06
   1   2   8   93.93    9.52
   1  -2   9  540.86   24.45
   1   2   9  572.73   26.74
  -1  -2   9  564.96   27.23
  -1  -2   9  534.73   24.59
  -1   2   9  542.31   26.37
   1   2   9  582.64   25.81
   1  -2   9  559.41   26.71
  -1   2   9  587.74   27.20
  -1  -2   9  587.84   26.92
   1   2  10 2831.47   62.49
  -1  -2  10 2769.60   58.61
   1  -2  10 2866.50   63.00
  -1   2  10 2945.85   64.58
  -1   2  10 2844.24   62.13
  -1  -2  10 2895.50   64.76
   1   2  11  181.37   15.83
  -1   2  11  165.51   15.74
  -1  -2  11  194.04   17.04
   1  -2  11  177.14   16.10
   1   2  11  177.86   16.80
   1  -2  11  177.09   17.19
  -1  -2  11  184.93   15.96
  -1   2  11  189.64   17.45
  -1   2  12   38.46    6.93
   1  -2  12   55.30   11.07
   1   2  12   57.48    9.81
   1   2  12   48.07    8.85
  -1  -2  12   34.66    6.83
  -1   2  12   43.25    8.32
   1  -2  12   33.93    7.56
  -1  -2  12   43.41    8.19
   1  -2  13  743.24   37.05
   1  -2  13  746.83   36.28
  -1  -2  13  733.69   34.77
   1   2  13  733.96   35.99
  -1   2  13  779.48   36.12
  -1  -2  13  793.07   37.61
   1   2  13  811.55   37.64
  -1   2  13  742.84   35.90
   1   2  14   66.97   10.94
  -1  -2  14   76.56   12.12
   1  -2  14   74.98   12.08
  -1  -2  14   81.29   13.33
  -1   2  14   75.43   11.92
  -1   2  14   82.68   12.57
   1   2  14   92.23   13.31
   1  -2  14   63.64   11.57
   1   2  15  600.95   34.18
  -1  -2  15  629.73   34.58
  -1   2  15  601.84   34.62
  -1  -2  15  628.11   36.79
  -1   2  15  571.40   33.20
   1  -2  15  605.75   34.74
   1  -2  15  595.04   37.08
   1   2  15  625.91   34.90
   1  -2  16  198.38   21.17
   1   2  16  188.00   19.80
  -1   2  16  187.19   19.07
   1  -2  16  194.45   20.52
   1   2  16  201.88   20.76
  -1  -2  16  163.23   17.94
  -1  -2  16  177.71   20.02
  -1   2  16  209.64   20.95
  -1   2  17  112.49   15.44
   1  -2  17  123.05   17.29
   1   2  17  105.12   15.20
  -1   2  17  144.56   18.61
  -1  -2  17  107.42   15.39
  -1  -2  17  113.04   15.57
   1  -2  17  102.32   15.36
   1   2  17   84.75   14.45
  -1   2  18   16.67    4.81
   1   2  18   25.16    7.46
  -1  -2  18   30.57    9.48
   1  -2  18   12.37    7.40
  -1   2  18   17.24    5.83
   1   2  18   21.14    9.67
  -1  -2  18   17.55    8.91
   1  -2  18   36.90    9.57
   1   2  19  101.49   16.00
  -1   2  19  108.39   15.87
  -1  -2  19  110.21   17.11
   1  -2  19   98.38   16.37
   1   2  19   93.56   15.98
  -1   2  19  103.62   16.68
  -1  -2  19  102.29   16.05
   1  -2  19   85.42   14.23
  -1   2  20 1438.64   62.28
   1   2  20 1463.09   61.95
  -1   2  20 1384.12   58.85
   1   2  20 1429.95   59.56
  -1  -2  20 1465.68   63.59
   1  -2  20 1290.13   59.04
   1  -2  20 1379.73   59.84
  -1  -2  20 1403.94   59.49
   1  -2  21   98.28   17.18
  -1  -2  21   72.97   16.31
  -1   2  21  126.45   18.23
   1   2  21   89.23   16.45
  -1  -2  21   94.74   16.63
  -1   2  21   98.84   17.12
   1   2  21   93.06   16.67
   1  -2  21  110.45   17.45
  -1  -2  22   68.53   14.46
  -1   2  22   59.42   14.65
   1  -2  22   53.91   12.30
  -1   2  22   82.87   15.42
   1   2  22   67.65   13.41
   1   2  22   68.00   13.66
   1  -2  22   66.30   12.80
  -1  -2  22   61.75   16.23
  -1   2  23  123.66   19.35
   1   2  23  137.67   20.31
  -1  -2  23  121.28   20.52
   1  -2  23  114.48   18.43
  -1  -2  23  123.89   19.70
   1  -2  23   90.47   17.28
  -1   2  23  127.60   19.15
   1   2  23  121.57   19.04
  -1   2  24   44.14   12.59
   1   2  24   48.51   12.57
  -1  -2  24   31.33   10.12
   1  -2  24   66.42   14.08
   1   2  24   29.75   10.28
  -1   2  24   32.31   10.33
   1  -2  24   53.81   13.18
  -1  -2  24   40.25   13.28
   1  -2  25   13.41    7.73
   1  -2  25    3.81    8.43
   1   2  25   11.14    9.55
  -1   2  25   -2.19    7.41
  -1  -2  25    8.03    8.19
  -1   2  25    4.01    5.90
  -1  -2  25   31.41   10.88
   1   2  25   11.15    6.92
   1   2  26   75.96   16.81
  -1  -2  26   80.25   15.50
  -1   2  26   77.78   15.79
   1  -2  26  116.76   18.90
  -1   2  26  106.12   18.28
   1  -2  26   71.77   15.92
  -1  -2  26   60.08   16.21
   1   2  26   87.71   16.39
  -1  -2  27  193.10   25.93
  -1   2  27  202.70   27.32
  -1  -2  27  215.07   26.43
   1  -2  27  191.09   27.50
  -1   2  27  188.32   24.70
   1   2  27  209.64   27.13
   1   2  27  218.38   26.24
   1  -2  27  184.89   25.17
  -1   2  28    7.82    6.45
   1  -2  28    5.03    7.93
  -1   2  28    3.34    6.82
   1  -2  28   12.43    7.50
   1   2  28    5.32    7.07
  -1  -2  28   11.25    6.59
   1   2  28   17.02    7.96
  -1  -2  28   17.43    5.76
   1  -2  29   12.77    6.77
  -1   2  29   17.25   10.01
   1   2  29   12.01    6.23
   1   2  29    6.44    5.72
  -1   2  29   10.01    5.39
  -1  -2  29   16.98   13.12
  -1  -2  29    7.90    3.79
   1  -2  29   10.24    5.50
  -1  -2  30  135.57   21.36
  -1   2  30  138.86   23.58
   1  -2  30  122.82   21.55
  -1  -2  30   89.11   18.70
   1  -2  30  173.25   24.85
   1   2  30   98.11   19.71
   1   2  30  126.51   20.98
  -1   2  30   81.40   19.47
   1   2  31   84.33   16.48
   1   2  31   65.25   18.21
  -1   2  31   68.23   15.41
  -1  -2  31   69.53   17.73
  -1  -2  31   50.29   14.60
   1  -2  31   50.16   13.88
  -1   2  31   63.24   15.05
   1  -2  31   67.94   18.12
  -1  -2  32   -0.76    4.74
   1  -2  32    0.43    5.83
   1  -2  32   -4.54    6.77
  -1   2  32   -3.08    7.06
  -1   2  32   -4.27    8.83
   1   2  32    5.04    4.50
   1   2  32   -6.84    7.96
  -1  -2  32   11.63    5.78
   1  -3   0    2.88    3.29
   1  -3   0    1.49    1.04
  -1  -3   0   -0.52    1.33
  -1   3   0    0.10    1.15
  -1  -3   0   -1.25    1.14
   1  -3   1 1982.65   39.90
   1  -3   1 1916.88   41.45
  -1  -3   1 1915.64   41.67
  -1  -3  -1 1916.31   41.25
   1  -3  -1 1874.85   38.85
  -1   3   1 1907.92   36.81
  -1  -3   1 1909.86   34.97
   1  -3  -1 1861.90   41.48
  -1  -3   2  374.18   18.58
   1   3   2  377.62   16.08
  -1  -3   2  407.08   16.30
   1  -3  -2  391.00   18.37
   1  -3   2  391.25   19.19
   1  -3   2  397.20   17.77
  -1  -3  -2  355.73   17.89
  -1   3   2  381.06   16.81
  -1  -3   2  377.81   12.27
   1  -3   3 2798.34   53.04
   1   3   3 2737.45   46.13
  -1  -3  -3 2712.61   50.99
  -1  -3   3 2659.84   38.24
   1  -3  -3 2732.51   50.39
  -1   3   3 2758.39   50.04
  -1  -3   3 2709.84   51.49
  -1   3   3 2665.47   45.98
   1  -3   3 2751.19   48.62
   1   3   3 2909.85   30.90
  -1  -3   3 2734.50   44.19
   1   3   4  311.07   16.29
   1  -3  -4  320.18   17.79
  -1  -3  -4  320.51   17.87
   1  -3   4  325.32   17.00
  -1  -3   4  333.36   18.66
  -1  -3   4  330.37   15.03
  -1   3   4  317.31   16.53
   1   3   4  325.82   12.31
  -1   3   4  339.43   17.80
   1  -3   4  301.59   18.11
  -1  -3   4  330.79   15.75
  -1  -3   5  890.70   30.88
  -1  -3  -5  864.59   30.22
  -1   3   5  803.63   28.92
  -1   3   5  872.25   29.10
  -1  -3   5  841.41   26.89
   1  -3  -5  867.97   30.27
  -1  -3   5  921.83   27.35
   1  -3   5  850.48   31.14
   1  -3   5  869.18   28.23
   1   3   5  884.87   22.91
   1   3   5  903.18   28.99
   1  -3   6  529.70   22.83
  -1   3   6  509.20   23.31
  -1  -3   6  506.09   24.17
  -1   3   6  565.25   25.45
  -1  -3  -6  528.00   24.79
   1   3   6  555.50   20.27
  -1  -3   6  515.90   21.63
   1  -3   6  544.00   25.11
   1   3   6  442.08   21.24
   1   3   7   42.73    6.63
  -1  -3   7   52.39    7.60
   1   3   7   64.54    8.01
   1  -3   7   63.59    8.57
  -1  -3  -7   57.09    8.47
  -1   3   7   77.05    9.99
  -1  -3   7   52.19    6.76
   1  -3   7   67.96    9.30
  -1  -3   7   58.34    8.69
  -1   3   7   42.48    6.98
  -1  -3   8 2888.90   58.30
  -1  -3   8 2987.73   62.04
  -1   3   8 3005.82   61.56
   1  -3   8 2868.55   60.75
  -1   3   8 3017.41   62.24
   1   3   8 2883.22   59.55
  -1  -3  -8 3017.06   63.23
  -1  -3   8 2950.95   56.53
   1  -3   8 3096.66   59.25
   1   3   9  290.03   18.43
   1  -3   9  258.18   18.05
   1  -3   9  253.16   18.81
  -1   3   9  257.44   19.38
  -1   3   9  254.61   19.11
   1   3   9  263.94   18.87
  -1  -3   9  236.28   16.63
  -1  -3   9  258.37   18.23
  -1  -3   9  262.64   19.21
  -1  -3  10  672.29   29.69
  -1   3  10  661.65   31.57
  -1   3  10  712.06   33.11
   1   3  10  706.12   32.13
  -1  -3  10  588.60   29.32
   1  -3  10  678.31   30.48
   1  -3  10  650.70   30.47
  -1  -3  10  659.21   31.76
   1   3  10  651.21   28.88
  -1   3  11   85.31   12.05
   1   3  11   90.38   11.71
  -1  -3  11   62.00   10.00
   1  -3  11   83.60   12.14
   1  -3  11   57.76    9.27
   1   3  11   64.20    9.92
  -1   3  11   89.83   12.11
  -1  -3  11   78.55   10.74
  -1  -3  11   80.38   11.52
   1   3  12  179.98   16.93
  -1  -3  12  141.05   14.97
   1  -3  12  163.05   17.90
   1  -3  12  191.91   17.99
  -1   3  12  180.20   17.79
  -1   3  12  170.98   17.10
  -1  -3  12  162.17   16.77
   1   3  12  154.69   16.21
   1  -3  12  158.28   16.17
  -1  -3  12  165.90   16.82
   1  -3  13    4.43    2.25
  -1   3  13    1.75    1.68
   1   3  13    7.31    4.99
  -1   3  13    8.40    5.75
  -1  -3  13    4.38    2.46
   1   3  13    9.56    3.99
  -1  -3  13    6.86    5.38
   1  -3  13    5.38    5.21
   1  -3  14  110.51   15.75
   1   3  14  128.03   15.71
  -1   3  14  103.64   14.67
  -1  -3  14   93.70   12.93
   1   3  14  105.74   14.68
   1  -3  14  110.38   14.29
  -1   3  14  100.35   13.79
  -1  -3  14  104.67   13.47
  -1  -3  15    1.15    2.65
  -1  -3  15   -0.10    4.93
  -1   3  15    4.19    3.84
   1  -3  15    3.40    7.06
   1   3  15   -4.31    4.67
   1   3  15    6.63    3.32
  -1   3  15    1.69    3.59
   1  -3  15    7.71    4.93
  -1   3  16    3.91    5.79
   1   3  16    3.06    4.17
   1   3  16   -0.62    3.94
  -1  -3  16    0.86    4.45
   1  -3  16   -3.85    7.39
   1  -3  16   -1.16    2.97
  -1   3  16    7.49    5.60
  -1  -3  16   -4.08    4.02
   1   3  17   50.94   10.71
   1  -3  17   62.75   12.85
  -1  -3  17   42.45    9.79
  -1  -3  17   43.80   11.06
   1   3  17   80.09   15.15
  -1   3  17   92.66   15.64
  -1   3  17   93.97   15.15
   1  -3  17   61.41   11.65
  -1   3  18  102.39   16.38
   1  -3  18  102.79   15.81
  -1  -3  18   73.05   14.08
   1  -3  18   64.15   13.39
   1   3  18   57.70   12.75
   1   3  18   75.70   13.62
  -1   3  18   95.60   15.29
  -1  -3  18   62.09   12.28
   1  -3  19  790.02   44.48
  -1   3  19  725.83   42.46
  -1  -3  19  685.53   43.10
   1   3  19  779.73   43.30
   1  -3  19  714.45   43.21
  -1   3  19  715.42   42.63
   1   3  19  791.77   44.41
  -1  -3  19  755.14   43.12
   1   3  20  101.69   16.94
   1  -3  20   62.91   13.03
  -1  -3  20  108.35   16.37
  -1   3  20  112.94   17.49
   1  -3  20   97.90   16.23
   1   3  20   95.41   16.69
  -1   3  20  116.72   17.96
  -1  -3  20   90.39   17.41
  -1  -3  21  235.68   25.00
   1   3  21  200.12   23.75
   1  -3  21  219.84   24.33
  -1   3  21  206.54   23.46
   1  -3  21  244.85   25.85
   1   3  21  218.70   24.85
  -1  -3  21  205.59   24.87
  -1   3  21  240.82   25.94
  -1   3  22   57.51   13.67
  -1   3  22   55.14   12.20
   1  -3  22   49.29   12.84
   1   3  22   40.54   11.91
   1  -3  22   43.18   12.55
   1   3  22   38.40   11.12
  -1  -3  22   36.27   10.99
  -1  -3  22   34.61   10.87
  -1  -3  23   89.07   16.14
  -1  -3  23   74.52   17.41
   1   3  23  118.78   17.82
   1   3  23   97.31   19.01
  -1   3  23   84.95   17.42
   1  -3  23   75.66   14.98
   1  -3  23   79.74   14.54
  -1   3  23  116.31   18.26
  -1   3  24    7.38    3.67
   1   3  24   -3.14    3.97
   1  -3  24   -3.66    8.06
  -1  -3  24   -0.94    2.78
  -1  -3  24    9.56    9.40
   1   3  24   -0.22    5.51
  -1   3  24    5.49    4.79
   1  -3  24    3.12    3.97
  -1  -3  25   47.01   11.50
   1   3  25   60.89   15.00
  -1  -3  25  102.03   19.28
   1  -3  25   54.70   13.11
  -1   3  25   53.58   14.18
   1  -3  25   69.07   15.66
   1   3  25   36.77   12.51
  -1   3  25   49.12   13.15
   1   3  26   28.50   11.87
   1  -3  26   27.18    9.05
  -1   3  26   21.76    8.84
   1  -3  26   25.02    9.51
   1   3  26   12.88    4.18
  -1  -3  26   17.39    6.79
  -1  -3  26   18.48    9.49
  -1   3  26   37.24   12.21
  -1   3  27   13.17    6.98
   1   3  27   12.31    8.84
  -1  -3  27    7.62    5.34
   1   3  27   16.87    9.86
   1  -3  27   11.95    7.48
  -1  -3  27    5.79    7.31
  -1   3  27    7.44    5.76
   1  -3  27   10.73    8.19
  -1  -3  28    2.11    5.47
  -1   3  28    6.04    6.35
   1  -3  28    0.94    6.64
   1   3  28   -5.31    5.33
  -1   3  28    7.58    7.17
   1   3  28   -6.30    7.88
   1  -3  28    1.18    3.81
  -1  -3  28    1.30    5.20
  -1  -3  29   -0.87    9.79
   1  -3  29    5.01    5.00
  -1   3  29   -0.06    5.44
  -1  -3  29   -1.41    3.25
   1  -3  29    7.83    8.61
   1   3  29    1.78    6.97
  -1   3  29    1.09    3.88
   1   3  29    4.38    4.34
  -1   3  30    5.67   10.95
  -1  -3  30    2.67    5.83
  -1   3  30    2.90    3.72
   1  -3  30    7.87    5.55
   1   3  30    4.49    7.60
   1   3  30    7.29    7.17
  -1  -3  30    8.09    5.76
   1  -3  30    0.89    5.60
  -1   3  31   69.37   16.50
   1  -3  31   48.37   14.46
  -1  -3  31   57.31   14.85
   1  -3  31   42.39   14.70
   1   3  31   38.90   13.84
  -1   3  31   40.40   14.07
  -1  -3  31   65.48   17.93
   1   3  31   74.86   16.43
  -1   4   0    0.93    1.08
   1  -4   0   -2.68    3.39
  -1  -4   0   -1.07    2.36
  -1  -4   0    0.38    1.26
   1  -4   0   -0.36    1.81
   1  -4   1   11.50    3.36
  -1   4   1   13.26    4.12
  -1  -4   1   11.39    4.14
  -1  -4   1    9.48    2.95
  -1  -4  -1    2.67    2.16
   1  -4   1   19.97    5.05
   1  -4  -1   13.44    3.21
   1  -4  -1   17.20    4.56
   1  -4  -2 2196.90   49.79
   1   4   2 2301.45   26.15
   1  -4   2 2209.87   50.83
  -1  -4  -2 2227.13   51.36
  -1   4   2 2242.08   43.82
   1   4   2 2316.70   45.32
   1  -4   2 2166.34   48.33
  -1  -4   2 2164.29   50.90
   1  -4  -2 2179.64   50.68
  -1  -4   2 2179.20   44.63
  -1  -4   3   31.64    6.94
   1  -4   3   45.98    8.42
   1  -4   3   40.66    6.89
  -1  -4   3   33.97    5.73
  -1  -4  -3   28.10    5.92
  -1   4   3   38.07    5.88
   1  -4  -3   31.30    6.12
   1   4   3   41.97    6.39
   1   4   3   36.89    3.75
   1  -4   4  725.90   28.76
   1  -4   4  726.77   30.78
   1   4   4  743.69   27.49
  -1  -4   4  761.47   24.23
   1   4   4  725.93   19.35
  -1  -4   4  809.47   31.99
  -1  -4  -4  778.21   31.42
  -1   4   4  734.08   26.61
  -1   4   4  776.86   30.35
   1  -4  -4  776.10   30.87
  -1  -4   4  720.11   27.39
   1  -4   5 1047.77   37.28
   1  -4  -5  940.48   35.02
   1  -4   5  974.75   34.36
  -1   4   5 1000.95   32.24
  -1  -4   5  962.79   35.61
  -1   4   5  996.02   34.69
  -1  -4   5  991.50   32.10
   1   4   5  946.28   32.64
  -1  -4  -5  983.83   35.61
  -1  -4   5 1020.85   30.26
   1   4   5  936.59   24.35
  -1  -4   6  496.68   25.85
  -1   4   6  551.20   26.51
  -1  -4   6  519.68   24.41
   1   4   6  541.44   25.42
   1  -4   6  542.69   26.84
  -1  -4  -6  482.09   25.96
   1   4   6  467.23   19.59
  -1   4   6  492.19   23.72
   1  -4   6  462.82   24.05
   1  -4  -6  517.08   26.67
  -1  -4   6  513.21   23.01
   1   4   7 1175.82   32.26
   1  -4   7 1106.89   37.64
  -1  -4   7 1178.34   41.22
  -1  -4   7 1125.89   36.19
   1   4   7 1141.53   38.17
   1  -4  -7 1155.16   40.60
   1  -4   7 1193.98   40.81
  -1  -4   7 1222.68   36.92
  -1  -4  -7 1135.30   40.26
  -1   4   7 1148.38   38.02
  -1   4   7 1116.36   39.59
   1  -4   8 2006.55   52.22
   1   4   8 2030.89   52.54
  -1   4   8 2076.57   52.43
  -1  -4   8 2068.41   50.03
  -1  -4  -8 1895.35   53.98
   1  -4   8 2092.38   55.49
  -1  -4   8 1929.58   53.46
  -1   4   8 1937.88   54.08
   1   4   8 1847.05   43.46
   1  -4  -8 2019.33   55.27
  -1  -4  -9 1657.73   51.54
   1   4   9 1953.97   46.92
   1  -4   9 1808.07   52.26
  -1   4   9 1680.05   49.94
  -1  -4   9 1701.87   51.46
  -1   4   9 1755.47   52.19
   1  -4   9 1762.76   49.55
   1   4   9 1845.07   52.13
   1  -4  -9 1680.14   52.55
  -1  -4  10  593.49   30.68
  -1  -4  10  660.05   30.15
   1  -4  10  576.57   29.50
  -1   4  10  593.74   30.61
   1   4  10  591.27   30.38
   1   4  10  569.22   27.41
  -1  -4 -10  566.25   30.75
  -1  -4  10  565.65   29.50
  -1   4  10  571.72   30.52
   1  -4  10  567.10   29.50
   1  -4  11   -1.84    3.52
   1   4  11    5.30    4.23
  -1  -4  11    7.10    3.84
   1   4  11    2.05    2.57
  -1   4  11   -0.66    4.31
  -1  -4  11   -0.08    2.50
  -1  -4  11    2.52    2.35
  -1  -4 -11    5.41    3.23
  -1   4  11    3.99    4.54
   1  -4  11    1.59    3.64
  -1  -4  12   87.05   12.42
  -1  -4 -12   94.99   14.21
  -1   4  12  111.17   14.59
   1  -4  12   81.13   11.78
  -1  -4  12   87.86   12.37
   1   4  12   74.06   10.88
  -1   4  12   86.41   12.44
   1  -4  12   89.92   12.65
   1   4  12   90.10   12.86
  -1  -4  12  111.53   14.54
   1   4  13   79.65   12.25
  -1  -4  13   84.02   11.75
   1   4  13   75.72   11.94
  -1   4  13   70.32   11.72
  -1  -4  13   75.04   12.16
  -1  -4  13   68.54   12.41
   1  -4  13   67.16   11.26
   1  -4  13  100.15   13.68
  -1   4  13  106.09   14.44
   1  -4  13   86.31   12.81
   1  -4  14  527.05   32.12
  -1  -4  14  517.86   31.01
   1   4  14  495.83   30.45
  -1  -4  14  413.56   28.35
  -1   4  14  486.15   32.24
  -1   4  14  474.38   31.29
  -1  -4  14  512.26   32.87
   1   4  14  471.95   30.37
   1  -4  14  512.70   30.60
   1  -4  14  540.28   33.37
  -1  -4  15   52.96   10.55
  -1   4  15   39.37    9.41
  -1   4  15   52.08   11.25
  -1  -4  15   48.06   10.94
   1  -4  15   72.27   13.19
   1  -4  15   42.78   10.12
  -1  -4  15   48.92   10.77
   1   4  15   57.50   10.76
   1   4  15   56.66   10.99
  -1   4  16   48.97   10.59
  -1  -4  16   37.86    8.38
  -1   4  16   28.56    7.94
   1  -4  16   38.97   11.07
   1   4  16   52.78   11.11
  -1  -4  16   23.43    6.69
   1   4  16   33.14    8.52
   1  -4  16   42.13    9.87
   1   4  17  288.14   25.41
  -1   4  17  381.92   29.96
  -1  -4  17  378.29   29.28
   1  -4  17  397.39   30.07
  -1  -4  17  391.06   31.39
  -1   4  17  385.11   30.24
   1   4  17  397.75   30.89
   1  -4  17  396.42   30.44
  -1  -4  18  291.68   25.93
  -1   4  18  299.42   27.68
  -1   4  18  302.48   26.96
   1   4  18  325.75   28.08
   1  -4  18  345.87   29.54
   1   4  18  337.89   28.15
  -1  -4  18  300.62   28.08
   1  -4  18  287.45   26.18
   1  -4  19  155.81   22.27
  -1   4  19  175.05   21.80
   1   4  19  147.43   19.88
   1  -4  19  169.45   20.76
  -1  -4  19  170.34   21.45
   1   4  19  170.18   20.49
  -1  -4  19  188.14   21.62
  -1   4  19  163.00   20.23
   1  -4  20    1.52    3.57
   1   4  20    3.44    8.77
   1   4  20    9.02    4.16
  -1  -4  20    6.62    7.65
   1  -4  20    6.02    4.81
  -1  -4  20    7.49    5.07
  -1   4  20   10.15    5.59
  -1   4  20    4.89    5.64
   1  -4  21  105.34   18.43
   1  -4  21  111.25   18.51
  -1   4  21  117.03   18.80
  -1  -4  21  116.16   18.19
  -1   4  21  142.10   19.13
   1   4  21  157.48   21.37
   1   4  21  121.54   18.14
  -1  -4  21   94.05   17.45
  -1   4  22   84.05   15.45
  -1  -4  22   77.15   15.19
   1   4  22   58.95   13.83
  -1   4  22   54.60   14.25
   1  -4  22   69.90   14.58
  -1  -4  22   48.63   12.80
   1  -4  22   78.00   16.17
   1   4  22   97.92   16.59
   1   4  23  290.31   28.14
  -1   4  23  333.37   32.76
  -1   4  23  338.55   31.76
   1   4  23  322.98   31.66
   1  -4  23  372.45   33.17
   1  -4  23  348.35   32.00
  -1  -4  23  368.31   32.75
  -1   4  24   -4.30    5.91
   1   4  24   -0.49    6.31
   1  -4  24   -1.29    5.25
  -1  -4  24   -2.14    5.78
  -1   4  24    8.08    7.78
   1   4  24    0.73    7.17
  -1  -4  24   -0.41    6.60
   1  -4  24    5.08    7.28
  -1  -4  25   -5.48    5.64
  -1   4  25   -0.74    5.14
   1  -4  25    6.46   10.32
  -1   4  25   -3.69    5.49
   1   4  25   -2.65    3.98
   1   4  25   -4.28   10.83
   1  -4  25    4.42    9.97
  -1  -4  25    4.24    8.12
  -1  -4  26   54.98   15.40
  -1  -4  26   36.94   11.45
   1  -4  26   31.20   12.72
   1   4  26   41.00   12.14
  -1   4  26   28.15   13.37
  -1   4  26   26.69   12.09
   1  -4  26   43.98   12.61
   1   4  26   35.76   11.90
  -1  -4  27   45.64   12.20
  -1  -4  27   48.95   15.37
   1  -4  27   38.30   11.22
   1  -4  27   29.33    9.71
  -1   4  27   39.00   12.72
  -1   4  27   22.93    9.41
   1   4  27   62.20   15.43
   1   4  27   51.58   14.64
  -1  -4  28   -0.53    4.25
  -1   4  28    1.55    7.46
  -1  -4  28   -0.68    6.50
   1  -4  28    4.19    6.38
   1  -4  28   -4.56    4.63
   1   4  28   -2.69    6.59
  -1   4  28    0.63    4.01
   1   4  28   13.94    9.97
  -1   4  29    9.55    4.68
  -1  -4  29    6.57    5.20
   1  -4  29   12.72   12.05
  -1  -4  29    4.16    6.96
   1   4  29   -3.94    5.12
   1   4  29    3.61    7.78
   1  -4  29   -4.40    3.11
  -1   4  29    2.14    4.36
  -1  -4  30   21.65    5.75
   1  -4  30   64.10   15.87
   1  -4  30   48.71   15.81
  -1   4  30   46.46   15.23
  -1   4  30   49.57   14.49
   1   4  30   39.51   12.34
  -1  -4  30   28.02   13.35
   1   4  30   27.34    9.94
  -1   4  31   25.91   10.22
   1   4  31   45.81   14.31
   1  -4  31   46.68   13.08
  -1  -4  31   39.27   12.79
   1   4  31   45.65   12.43
   1  -4  31   30.26   12.13
  -1  -4  31   53.42   18.09
  -1   4  31   34.62   14.05
  -1  -5   0    0.23    1.80
   1  -5   0   -1.44    2.82
   1  -5   0   -1.35    1.96
  -1  -5   0    4.23    4.86
  -1  -5  -1  769.36   29.97
   1  -5   1  782.21   33.20
   1  -5  -1  811.80   32.93
  -1  -5   1  808.37   30.58
  -1  -5  -1  743.29   32.78
   1  -5   1  789.39   32.59
   1  -5  -1  801.76   33.32
  -1  -5   1  795.32   33.95
  -1   5   1  845.81   29.56
  -1  -5   2   11.78    2.91
  -1  -5   2   15.98    5.45
   1  -5   2   17.95    4.80
  -1  -5  -2   15.71    4.50
   1  -5  -2   18.58    5.19
   1  -5   2   13.22    4.62
  -1   5   2    8.00    2.29
   1  -5  -2   11.07    5.74
   1  -5   3   26.73    5.43
   1   5   3   32.15    6.10
  -1  -5   3   31.10    6.70
   1   5   3   28.01    3.83
   1  -5  -3   20.48    5.60
  -1  -5  -3   29.46    7.34
   1  -5   3   35.00    6.90
  -1   5   3   28.51    5.69
  -1  -5   3   31.30    7.29
  -1  -5  -4   88.77   11.31
  -1  -5   4   86.18   11.30
  -1   5   4   85.76    9.53
   1  -5  -4   97.81   11.47
   1   5   4   91.55   10.71
   1  -5   4   88.31   11.91
   1  -5   4   71.10   10.60
   1   5   4  110.54    7.94
  -1  -5   4  103.71   11.86
   1   5   5   60.93    6.57
  -1   5   5   70.96   10.78
  -1  -5   5   74.28    9.67
  -1   5   5   78.60    9.52
   1  -5   5   82.19   10.99
   1  -5  -5   65.62    9.84
   1   5   5   84.85   10.66
   1  -5   5   86.98   11.71
  -1  -5  -5   78.50   11.51
  -1  -5   5   79.41   11.05
   1  -5  -6   82.48   11.49
   1  -5   6   85.24   11.73
  -1  -5   6   87.41   11.12
  -1  -5   6   83.94   12.02
  -1  -5  -6   87.07   11.59
  -1  -5   6   83.15    9.68
  -1   5   6   88.93   10.59
   1   5   6   95.98    9.09
   1   5   6   92.55   11.28
  -1   5   6   80.00   11.27
   1  -5   6   80.68   12.03
  -1   5   7    2.64    1.47
  -1  -5   7    0.99    5.26
   1   5   7   -0.91    1.90
   1  -5  -7   -0.62    4.46
  -1  -5  -7   -0.80    3.22
  -1   5   7    2.92    3.29
   1  -5   7    0.70    3.05
  -1  -5   7    1.23    2.00
   1  -5   7    7.65    5.47
   1   5   7    1.94    3.19
  -1  -5   7    0.25    3.12
   1  -5   8  778.30   34.35
  -1   5   8  699.26   31.62
  -1   5   8  754.41   34.94
  -1  -5   8  725.24   31.60
   1  -5   8  712.29   35.19
  -1  -5  -8  746.74   36.26
   1  -5  -8  700.76   34.73
  -1  -5   8  662.05   33.46
   1   5   8  729.46   33.56
  -1  -5   8  735.23   32.31
   1   5   8  646.14   26.63
  -1  -5   9 1226.46   46.74
   1  -5   9 1238.15   44.30
   1  -5  -9 1311.97   48.57
  -1  -5  -9 1218.37   47.11
  -1   5   9 1279.56   46.29
   1  -5   9 1309.85   47.35
  -1  -5   9 1324.62   44.69
   1   5   9 1343.24   46.71
  -1  -5   9 1285.45   43.14
  -1   5   9 1265.91   43.86
   1  -5  10    1.66    2.72
   1   5  10    5.26    2.46
  -1  -5  10   15.83    6.03
   1  -5  10    7.50    2.72
   1  -5 -10    6.27    5.85
  -1   5  10    0.81    2.11
  -1  -5 -10    8.91    3.57
  -1   5  10    2.28    2.65
   1   5  10    5.36    3.70
  -1  -5  10    1.33    2.46
  -1  -5  10    6.15    4.77
  -1  -5  11  132.63   15.06
   1  -5  11  133.80   15.48
  -1   5  11  156.04   17.24
   1   5  11  132.66   16.37
   1  -5  11  150.29   16.80
  -1  -5  11  143.45   17.08
  -1   5  11  143.80   15.58
   1   5  11  115.40   14.08
   1  -5 -11  159.96   17.44
  -1  -5 -11  141.29   18.09
  -1  -5 -12    2.09    3.00
  -1   5  12    1.65    1.94
   1  -5  12    1.40    1.96
   1  -5  12   -0.43    3.52
  -1  -5  12    0.62    3.49
   1   5  12   -2.32    3.58
  -1  -5  12    2.04    3.03
   1  -5 -12    1.59    2.16
  -1   5  12    3.47    2.69
  -1  -5  12    4.64    3.77
   1   5  12    2.52    2.91
   1  -5  13   83.37   13.28
  -1  -5 -13   90.92   13.21
  -1  -5  13   90.66   13.27
  -1   5  13   62.28   11.95
   1   5  13   68.53   10.42
  -1  -5  13   65.65   12.68
  -1   5  13   90.96   13.23
   1   5  13   87.78   12.38
   1  -5  13   95.76   13.50
  -1  -5  13   92.96   14.70
   1  -5 -13   85.89   13.42
  -1   5  14  239.23   22.83
  -1  -5  14  249.89   22.63
  -1  -5 -14  247.26   23.46
   1  -5  14  232.46   21.44
  -1  -5  14  226.62   22.98
   1   5  14  277.92   23.02
  -1  -5  14  269.48   23.17
   1  -5  14  225.90   22.01
   1   5  14  245.89   23.41
   1  -5  14  226.73   22.57
  -1   5  14  228.22   22.17
   1  -5  15  161.05   17.60
  -1  -5  15  122.35   17.89
  -1   5  15  126.15   18.47
  -1   5  15  114.03   15.27
   1   5  15  111.12   14.66
  -1  -5  15  127.71   16.18
  -1  -5 -15  111.63   16.24
   1  -5  15  140.16   19.05
   1   5  15  164.38   18.87
   1  -5  15  153.14   17.95
  -1  -5  15   88.35   15.65
  -1  -5  16   69.64   12.89
   1  -5  16  115.20   16.12
  -1  -5 -16   80.89   15.60
  -1  -5  16   73.00   12.60
  -1  -5  16   56.70   10.48
   1  -5  16  107.83   16.31
  -1   5  16   91.92   15.71
   1   5  16   81.35   14.02
   1  -5  16   55.27   13.96
   1   5  16   81.90   15.24
  -1   5  16   60.37   12.16
   1   5  17   52.61   10.68
   1  -5  17   68.77   12.53
   1   5  17   55.90   12.26
  -1   5  17   43.56    9.55
  -1   5  17   44.42    8.86
   1  -5  17   53.06   12.98
  -1  -5 -17   51.90   12.11
  -1  -5  17   40.65   11.63
  -1  -5  17   45.83   11.13
  -1   5  18    4.39    4.96
   1  -5  18    1.46    6.84
  -1  -5  18    0.93    4.76
   1   5  18    2.92    5.23
   1   5  18    4.46    2.92
   1  -5  18    6.96    6.36
  -1   5  18   -1.71    4.85
  -1  -5 -18    4.03    8.48
  -1  -5  18   -1.14    3.65
   1   5  19   44.69   11.15
   1  -5  19   45.37   12.69
  -1   5  19   52.15   12.44
   1   5  19   33.21    9.09
  -1  -5  19   48.29   10.85
   1  -5  19   25.05    8.27
  -1   5  19   43.26   12.18
  -1  -5  19   29.88   10.65
  -1   5  20  104.73   17.74
   1   5  20  101.91   16.25
   1  -5  20   90.84   15.87
  -1  -5  20  121.22   20.24
  -1  -5  20  111.45   17.03
   1   5  20   88.64   15.14
  -1   5  20   91.20   15.85
   1  -5  20  126.95   19.79
  -1   5  21   74.16   14.87
  -1  -5  21   57.42   13.63
   1  -5  21   70.30   15.46
   1   5  21   61.67   12.28
   1   5  21   64.53   12.91
  -1  -5  21   64.70   12.80
   1  -5  21   70.00   14.19
  -1   5  21   97.00   17.70
  -1  -5  22   13.26    5.14
  -1  -5  22   10.67   10.21
   1  -5  22   33.94   11.20
  -1   5  22   26.44    8.52
  -1   5  22   15.93    5.97
   1  -5  22   27.31    8.26
   1   5  22   13.18    6.84
   1   5  22   18.62    6.16
   1  -5  23   64.94   17.39
  -1   5  23   39.77   10.58
  -1  -5  23   67.68   14.12
   1  -5  23   61.26   14.66
  -1   5  23   65.17   15.31
   1   5  23   48.49   12.82
  -1  -5  23   62.21   13.73
   1   5  23   27.11    8.62
  -1  -5  24    5.46    6.25
  -1   5  24    2.49    7.18
   1   5  24    3.41    7.19
   1  -5  24   -2.04    5.12
   1  -5  24    1.01    4.19
  -1   5  24   -0.14    3.17
  -1  -5  24   -3.86    6.58
   1   5  24    8.94    6.08
  -1   5  25    5.91    6.93
  -1   5  25    4.30    5.22
   1  -5  25    6.32    6.43
   1   5  25    2.80    3.28
  -1  -5  25    1.24    8.03
  -1  -5  25    0.25    5.45
   1  -5  25   15.78    8.98
   1   5  25   10.30    9.62
   1   5  26   40.00   11.68
  -1  -5  26   31.21    9.83
  -1  -5  26   20.13    8.61
   1  -5  26   67.57   16.83
  -1   5  26   60.06   16.56
   1  -5  26   37.20   15.28
  -1   5  26   45.11   14.28
   1   5  26   49.39   14.26
   1   5  27   18.93    8.80
   1  -5  27    3.51    2.78
  -1  -5  27    0.49    6.91
  -1   5  27   18.63    9.77
  -1  -5  27   12.92    7.09
  -1   5  27    4.93    4.28
   1  -5  27   -8.04    8.64
   1   5  27   19.38   11.93
  -1  -5  28   14.08    8.06
   1  -5  28    7.54    9.39
  -1   5  28    6.50    5.70
   1   5  28    4.51    8.37
   1   5  28    0.58    7.35
   1  -5  28   31.58   12.48
  -1   5  28   20.08    9.84
  -1  -5  28    8.46    7.68
  -1   5  29   58.08   13.81
  -1   5  29   75.13   18.16
   1  -5  29   41.26   14.31
  -1  -5  29   45.35   13.93
   1   5  29   37.14   10.51
   1   5  29   65.22   14.71
   1  -5  29   74.41   17.33
  -1  -5  29   47.89   16.54
  -1  -5  30   14.69    8.51
   1  -5  30   21.26    7.95
  -1  -5  30   36.95   12.22
  -1  -5 -30   11.52    8.32
   1   5  30   19.66    7.98
   1   5  30   40.24   17.14
  -1   5  30    6.16    7.96
  -1   5  30   30.31   10.53
   1  -5  30   24.57   11.62
   1   5  31   53.35   13.68
   1   5  31   81.27   19.93
  -1  -5  31   60.77   16.84
  -1  -5 -31   50.96   14.01
   1  -5  31   88.48   21.05
   1  -5  31   37.01   10.51
  -1   5  31   54.74   13.31
  -1  -5  31   45.94   17.47
  -1   5  31   66.04   15.21
  -1  -6   0    0.50    3.22
  -1  -6   0    0.97    4.29
   1  -6   0   -1.75    3.42
   1  -6   0    1.28    4.00
  -1  -6  -1 2193.95   55.99
   1  -6  -1 2225.29   60.48
  -1  -6   1 2224.81   56.59
  -1   6   1 2234.14   50.25
   1  -6  -1 2252.76   60.30
   1  -6   1 2315.42   61.73
   1  -6   1 2284.97   61.04
  -1  -6   1 2335.28   62.63
  -1  -6  -1 2321.47   62.94
   1  -6   2   39.97    9.17
  -1  -6   2   45.80   10.28
  -1  -6   2   39.18    7.52
  -1  -6  -2   41.24    8.92
   1  -6  -2   55.95    9.49
   1  -6  -2   50.01    9.50
   1  -6   2   51.22    9.56
  -1  -6  -2   46.05    7.82
  -1   6   2   56.88    8.44
  -1  -6  -3  563.78   31.46
   1  -6   3  579.62   30.92
   1  -6   3  533.43   29.76
   1  -6  -3  590.03   31.34
  -1   6   3  576.68   26.07
  -1  -6   3  558.29   30.76
  -1  -6   3  621.26   30.01
   1   6   3  620.77   19.29
   1  -6  -3  575.32   31.28
   1  -6   4   51.65    9.49
   1   6   4   46.84    5.47
   1  -6  -4   52.97    8.64
  -1  -6  -4   49.20   10.28
  -1   6   4   42.85    7.31
   1  -6   4   58.71   10.22
   1   6   4   52.01    8.68
  -1  -6   4   59.08    9.07
  -1  -6   4   49.40    9.84
  -1  -6   5 1539.30   48.37
   1   6   5 1506.41   47.81
   1   6   5 1577.87   33.64
   1  -6  -5 1485.86   51.49
   1  -6   5 1515.54   51.90
  -1  -6  -5 1418.33   50.66
  -1   6   5 1607.80   44.86
  -1  -6   5 1483.33   52.27
   1  -6   5 1481.56   50.71
   1  -6   6   58.29   10.81
   1  -6  -6   58.63   11.11
   1   6   6   73.14    8.20
  -1  -6  -6   63.06   11.30
  -1   6   6   56.91    8.68
   1  -6   6   55.04   10.08
  -1  -6   6   52.73   10.40
  -1   6   6   61.10   10.53
   1   6   6   54.39    9.12
  -1  -6   6   60.57   10.50
   1  -6   7  268.10   22.13
   1  -6  -7  275.36   22.52
  -1   6   7  259.66   19.19
  -1  -6   7  318.30   20.46
   1   6   7  259.14   16.71
  -1  -6  -7  282.38   23.52
  -1   6   7  305.10   23.21
   1   6   7  230.74   19.57
  -1  -6   7  283.30   21.35
  -1  -6   7  329.42   24.78
   1  -6   7  301.78   23.40
  -1  -6   8  209.01   18.24
   1   6   8  207.29   18.76
  -1   6   8  219.70   20.14
  -1  -6   8  239.43   20.67
   1   6   8  223.08   15.81
   1  -6   8  213.45   19.57
   1  -6  -8  210.84   19.86
   1  -6   8  231.75   20.92
  -1  -6   8  227.50   18.61
  -1   6   8  221.46   18.56
  -1  -6  -8  194.61   19.65
  -1  -6  -9  758.34   39.16
   1  -6   9  849.97   39.97
   1  -6  -9  744.99   38.84
  -1   6   9  764.07   37.57
  -1  -6   9  796.95   36.21
  -1  -6   9  729.26   37.77
   1   6   9  731.74   30.15
  -1  -6   9  747.21   34.43
  -1   6   9  759.52   35.37
   1   6   9  815.74   38.43
   1  -6   9  818.91   38.38
  -1  -6  10  185.45   19.23
  -1   6  10  194.08   18.38
  -1  -6  10  227.71   19.38
  -1  -6 -10  215.91   21.34
   1  -6 -10  215.63   21.49
   1   6  10  195.52   16.76
   1   6  10  182.02   18.47
  -1   6  10  222.56   20.54
  -1  -6  10  194.34   19.15
   1  -6  10  199.30   19.88
   1  -6  10  229.39   20.72
   1  -6 -11  426.64   30.46
  -1  -6  11  506.04   30.01
   1  -6  11  551.73   32.75
  -1  -6 -11  538.10   33.86
  -1   6  11  556.89   33.42
   1  -6  11  532.94   31.77
  -1   6  11  486.54   30.25
   1   6  11  522.66   28.36
   1   6  11  518.34   31.58
  -1  -6  11  468.58   31.13
  -1   6  12  575.13   33.91
   1   6  12  584.97   31.35
   1  -6  12  600.35   34.59
  -1  -6 -12  560.66   35.02
  -1  -6  12  488.49   32.58
  -1  -6  12  528.89   31.97
   1  -6  12  605.23   34.98
   1  -6 -12  600.65   36.96
  -1   6  12  556.39   34.57
   1   6  12  624.22   36.50
   1   6  13  365.30   27.91
  -1   6  13  371.80   28.84
  -1   6  13  375.29   28.33
   1  -6  13  336.00   26.67
  -1  -6 -13  338.23   27.91
  -1  -6  13  378.53   27.41
  -1  -6  13  309.93   26.21
   1   6  13  340.52   24.89
   1  -6 -13  322.77   27.09
  -1  -6 -14   63.17   12.73
  -1  -6  14   47.38    9.69
  -1  -6  14   50.00   11.63
   1   6  14   40.24   10.48
   1  -6  14   50.58   11.58
  -1   6  14   52.87   11.63
  -1   6  14   57.16   11.53
  -1  -6  14   54.91   12.67
   1  -6 -14   70.23   12.81
   1   6  14   35.23    9.20
   1  -6  14   50.21   11.33
   1  -6  15  278.95   24.80
   1   6  15  241.97   23.61
   1  -6 -15  260.42   25.56
  -1   6  15  283.53   25.29
  -1  -6  15  256.77   24.40
   1  -6  15  281.22   24.85
   1   6  15  276.25   25.59
   1  -6  15  314.10   27.91
  -1  -6  15  243.12   23.29
  -1  -6 -15  280.62   27.20
  -1   6  15  261.27   25.44
   1  -6  16   16.81    8.45
   1  -6  16    8.85    6.02
  -1   6  16   -4.12    3.90
  -1  -6  16    4.60    6.73
  -1  -6 -16    8.31    2.78
  -1  -6  16   17.38    6.02
   1   6  16    3.62    4.28
  -1   6  16    1.11    3.24
  -1  -6  16    8.64    6.97
   1  -6 -16    8.31    6.61
   1   6  16   -1.32    6.31
   1  -6  16   10.29    7.15
  -1   6  17    6.50    7.28
   1  -6  17    0.94    5.59
  -1  -6  17    2.42    3.55
  -1  -6  17   -2.66    5.57
  -1  -6 -17   -3.72    3.06
   1   6  17    7.11    8.47
   1  -6 -17    2.25    4.73
   1  -6  17    0.18    4.13
  -1  -6  17    0.99    5.54
   1  -6  17   -0.53    4.20
  -1   6  17    4.45    4.49
   1   6  17    0.39    2.45
   1  -6  18   43.67   13.43
  -1   6  18   46.23   12.77
   1   6  18   17.44    5.59
  -1  -6  18   46.61   12.66
  -1  -6  18    6.52    2.83
   1   6  18   18.84    8.40
  -1  -6  18   32.20    7.61
   1  -6  18   14.84    7.37
  -1  -6 -18   35.60   10.95
   1  -6 -18   33.49   10.29
  -1   6  18   41.70   10.72
   1  -6  18   19.21    5.69
   1   6  19    1.39    4.92
   1   6  19   -2.10    8.97
  -1  -6  19    3.77    4.12
   1  -6 -19    2.72    7.40
  -1   6  19    1.86    5.20
   1  -6  19   -4.97    8.35
  -1   6  19    1.11    4.92
  -1  -6 -19   -0.33    5.75
  -1  -6  19   -4.32    7.79
   1  -6  19    0.89    4.12
  -1  -6 -20  265.48   27.67
   1   6  20  314.22   29.85
   1  -6 -20  241.51   26.12
   1  -6  20  282.92   27.86
  -1  -6  20  235.11   25.77
  -1   6  20  227.15   25.18
  -1  -6  20  224.76   26.60
  -1   6  20  208.73   24.67
   1   6  20  250.97   26.54
   1  -6  21   -2.27    2.98
   1   6  21    3.93    4.38
  -1  -6  21   -0.88    3.15
  -1   6  21   12.94    9.99
   1  -6 -21    4.31    4.48
   1  -6  21    2.67    4.32
  -1   6  21    4.07    2.57
  -1  -6  21    7.25    9.44
  -1  -6 -21    9.99    6.57
   1   6  21    0.97    3.68
  -1   6  22  250.53   27.98
  -1  -6  22  157.08   22.28
   1   6  22  176.67   23.24
  -1  -6  22  201.47   24.37
   1  -6 -22  202.03   25.86
   1  -6  22  219.43   26.24
  -1  -6 -22  172.00   23.17
  -1   6  22  259.41   27.95
   1   6  22  222.73   25.15
   1  -6 -23   19.61    5.56
   1   6  23   32.68   10.86
   1  -6  23   23.61    9.79
   1  -6  23   20.09    5.65
  -1  -6  23   10.87    9.42
  -1   6  23    4.02    6.39
  -1   6  23   16.56    8.69
   1   6  23   30.21    8.63
  -1  -6  23   16.35    8.95
  -1  -6 -23   32.08    9.17
   1   6  24   52.60   14.92
   1   6  24   28.08    9.95
  -1   6  24   56.17   14.85
   1  -6  24   42.66   11.89
   1  -6 -24   37.39   13.61
   1  -6  24   45.16   13.91
  -1   6  24   41.08   12.30
  -1  -6  24   49.92   13.43
  -1  -6 -24   59.86   13.60
  -1  -6  24   57.31   14.11
  -1   6  25    7.75    6.95
   1  -6  25    5.99    5.92
  -1  -6  25   13.41    4.71
   1  -6 -25    4.15    5.40
   1   6  25   16.03    4.89
   1  -6  25   -2.62    6.88
   1   6  25   13.02    5.12
  -1   6  25    3.07    5.05
  -1  -6 -25   20.51   11.50
  -1  -6  25    2.69    4.55
   1  -6 -26   16.21    8.49
   1  -6  26   14.40    7.45
   1   6  26    7.08    6.86
  -1  -6 -26   12.03    9.87
  -1  -6  26   25.06    9.04
  -1   6  26   11.80   10.90
   1   6  26   18.59    9.71
   1  -6  26   15.44   11.06
  -1  -6  26    9.35    5.46
  -1   6  26   22.48    7.92
  -1  -6 -27   15.38   11.77
   1   6  27   20.63    7.69
   1  -6  27   20.81    9.10
   1  -6  27   19.39    8.56
   1  -6 -27   20.90   11.05
  -1  -6  27   16.99   10.22
  -1   6  27   17.18    7.12
  -1   6  27   12.97    9.20
  -1  -6  27  -10.61    8.58
   1   6  27    3.58    4.74
  -1  -6 -28  122.17   21.80
   1  -6  28   99.91   21.16
  -1  -6  28  183.95   25.90
  -1  -6  28   89.93   23.98
   1  -6  28  148.66   23.70
  -1   6  28  158.99   26.05
  -1   6  28  167.61   24.28
   1   6  28  179.78   24.51
   1  -6 -28  130.92   22.28
   1   6  28  117.96   25.49
  -1   6  29   13.91    9.37
   1  -6  29    0.52    6.00
   1   6  29   12.38   10.09
  -1  -6 -29   -0.06    5.25
  -1  -6  29    0.34    4.20
   1  -6 -29    6.94    6.70
   1  -6  29    4.99    8.06
  -1   6  29   -8.27    9.85
   1   6  29    2.39    3.98
  -1  -6  29   -3.21    3.89
   1  -6  30   20.76   11.62
  -1   6  30   62.15   17.75
  -1  -6 -30   53.84   15.87
  -1  -6  30   27.81   14.40
   1   6  30   60.29   14.28
   1  -6  30   49.74   16.46
   1   6  30   46.47   11.42
  -1  -6  30   46.18   13.83
  -1   6  30   58.02   14.85
   1  -6 -30   37.29   10.32
  -1  -7   0    3.45    5.41
  -1  -7   0    0.46    6.20
   1  -7   0   -1.56    1.80
   1  -7   0   -0.28    3.30
  -1  -7  -1  225.09   19.68
  -1  -7  -1  221.38   21.23
   1  -7  -1  201.86   20.16
   1  -7  -1  200.04   19.04
  -1  -7   1  227.68   19.55
   1  -7   1  194.02   19.00
  -1  -7   1  247.44   22.34
   1  -7   1  218.39   20.47
  -1  -7   2    8.43    2.54
  -1  -7  -2   15.66    4.81
   1  -7  -2   19.03    7.69
  -1  -7  -2    5.21    4.77
  -1  -7   2    2.32    3.25
   1  -7   2    8.72    4.36
   1  -7  -2   13.77    2.75
  -1   7   2   12.99    3.82
   1  -7   2    9.31    3.69
  -1   7   3   16.30    4.87
  -1  -7  -3   14.58    5.59
  -1  -7   3   20.25    6.25
   1  -7   3   14.84    5.02
   1  -7  -3   26.86    8.43
  -1  -7  -3    8.91    5.14
  -1  -7   3   23.21    5.91
   1  -7   3   10.93    5.51
   1  -7  -3   22.40    6.61
  -1  -7   4  185.93   17.52
   1  -7   4  220.68   20.49
  -1  -7  -4  196.19   20.49
  -1   7   4  156.36   14.90
   1  -7   4  200.52   19.88
   1  -7  -4  176.80   18.27
   1   7   4  189.20   12.11
   1  -7  -4  190.02   19.25
  -1  -7   4  172.30   19.28
   1  -7  -5  720.61   37.97
   1  -7   5  720.39   37.34
  -1   7   5  781.74   33.10
  -1  -7  -5  723.17   38.52
  -1  -7   5  760.47   37.10
   1  -7   5  762.90   38.74
  -1  -7   5  702.52   38.26
   1   7   5  753.66   25.08
  -1  -7   6  254.33   23.40
  -1  -7   6  224.26   19.97
   1  -7   6  267.52   23.61
  -1  -7  -6  207.26   20.79
   1   7   6  236.62   14.82
   1   7   6  239.35   20.66
  -1   7   6  226.42   17.91
   1  -7  -6  246.07   22.33
   1  -7   6  228.50   21.67
  -1   7   7   10.63    4.29
  -1   7   7    1.33    3.13
   1  -7   7    8.52    5.49
  -1  -7  -7    2.39    2.21
   1  -7  -7   17.66    8.04
   1   7   7    9.07    3.69
   1   7   7    7.33    4.46
   1  -7   7   11.27    7.19
  -1  -7   7    9.83    6.33
  -1  -7   7    3.22    3.47
   1   7   8  203.78   15.58
  -1  -7  -8  191.76   20.84
   1  -7   8  209.91   20.97
   1  -7  -8  179.72   19.90
  -1  -7   8  210.05   18.71
  -1  -7   8  185.02   19.72
   1   7   8  197.87   19.52
   1  -7   8  184.41   19.01
  -1  -7   8  201.60   18.89
  -1   7   8  201.89   18.40
  -1   7   8  187.80   19.45
   1   7   9   61.36    9.73
  -1  -7   9   79.50   11.10
  -1  -7   9   51.48   10.21
  -1  -7  -9   58.28   11.20
  -1   7   9   46.54    8.45
   1  -7  -9   60.73   12.24
   1  -7   9   61.94   11.61
   1  -7   9   57.90   10.43
  -1   7   9   44.64   10.17
   1   7   9   57.10   10.34
  -1  -7   9   62.78   10.29
  -1   7  10  121.40   15.59
   1  -7  10  120.40   16.02
  -1   7  10  126.13   15.70
   1  -7 -10  148.34   17.69
  -1  -7  10  124.27   15.54
   1   7  10  144.39   17.49
  -1  -7 -10  130.79   16.33
  -1  -7  10  137.68   15.60
   1   7  10  121.72   13.80
   1  -7  10  146.82   17.69
  -1  -7  10  114.76   15.45
   1   7  11   17.09    5.70
   1   7  11   19.87    6.82
  -1  -7  11   15.85    6.68
  -1  -7  11   13.55    6.52
  -1   7  11   11.34    8.28
   1  -7  11   28.84    9.05
   1  -7  11   13.32    4.49
  -1  -7 -11   11.92    7.10
  -1  -7  11    7.28    6.25
   1  -7 -11   10.90    6.76
  -1   7  11   11.88    6.07
   1   7  12   20.19    6.66
  -1   7  12   11.75    5.52
   1  -7  12   16.32    5.53
  -1  -7 -12   15.01    8.94
  -1  -7  12   14.04    5.01
   1  -7 -12   17.27    6.96
   1  -7  12   25.79    9.36
  -1   7  12   14.71    4.81
  -1  -7  12   27.87   10.58
  -1  -7  12    9.30    6.65
   1   7  12   16.79    6.78
   1   7  13  475.27   29.56
  -1   7  13  493.04   33.45
  -1  -7 -13  488.49   35.22
  -1  -7  13  469.36   31.68
  -1  -7  13  461.07   33.62
   1  -7  13  496.56   33.18
  -1   7  13  453.82   31.70
   1   7  13  476.49   33.71
  -1  -7  13  424.64   32.07
   1  -7 -13  545.17   36.21
   1  -7  13  515.07   34.49
   1  -7  14  787.97   42.67
   1   7  14  730.02   41.99
   1  -7 -14  670.27   41.88
  -1   7  14  661.81   38.32
  -1  -7  14  737.44   42.23
  -1  -7  14  821.85   44.45
   1  -7  14  743.33   41.01
  -1  -7  14  747.35   40.70
  -1  -7 -14  758.37   44.41
  -1   7  14  721.55   41.98
   1   7  14  672.85   36.67
  -1  -7 -15   -2.47    4.58
  -1  -7  15    5.68    4.92
   1  -7  15    6.51    6.36
  -1  -7  15    9.17    3.06
  -1  -7  15    6.88    3.48
   1   7  15    1.47    3.68
   1  -7  15    9.42    4.43
   1   7  15    9.88    5.86
   1  -7 -15   -0.53    7.28
  -1   7  15   12.37    6.33
  -1   7  15    1.63    4.55
   1  -7  15   10.88    8.03
  -1   7  16    0.64    5.84
   1  -7 -16   -1.71    3.01
  -1   7  16    0.76    4.81
  -1  -7  16   -1.19    2.39
   1  -7  16    5.08    7.04
   1   7  16   -3.75    5.79
   1   7  16    9.70    9.09
   1  -7  16    7.51    2.90
  -1  -7  16    6.13    8.06
  -1  -7 -16    1.01    6.05
   1  -7  16   -1.43    3.16
  -1  -7  16    1.39    3.74
   1   7  17  357.48   29.54
  -1   7  17  340.65   30.45
   1  -7  17  321.11   30.59
  -1  -7  17  227.49   26.41
   1  -7 -17  321.73   30.71
  -1   7  17  333.15   30.56
   1   7  17  343.10   30.63
  -1  -7  17  336.52   30.14
   1  -7  17  348.99   30.08
  -1  -7  17  371.75   30.80
  -1  -7 -17  301.70   28.58
   1  -7  17  311.07   28.80
  -1  -7 -18  138.97   20.42
  -1  -7  18   71.16   15.43
   1   7  18  144.51   20.21
   1  -7 -18   95.90   16.76
   1  -7  18   93.96   16.02
  -1   7  18   80.76   15.44
   1   7  18  110.33   16.44
  -1  -7  18   96.22   16.95
   1  -7  18  126.18   17.76
   1  -7  18  121.00   18.50
  -1   7  18   86.06   16.07
  -1  -7  18  115.17   19.08
  -1  -7  19  143.64   19.76
   1   7  19  150.23   18.99
   1  -7  19  153.78   20.58
  -1  -7 -19  130.74   19.36
   1  -7  19  147.84   21.15
  -1  -7  19  115.34   17.84
  -1  -7  19  101.93   17.80
   1   7  19  139.70   19.69
   1  -7 -19  133.17   19.96
   1  -7  19  119.78   17.91
  -1   7  19  156.99   21.32
  -1   7  19  137.63   20.28
   1  -7  20   15.11    9.59
  -1  -7  20   11.26   10.46
  -1  -7  20    7.51    5.46
  -1   7  20   14.53    8.16
  -1   7  20    1.53    6.73
   1  -7  20    7.24    6.08
   1   7  20    2.13    6.39
   1   7  20    7.38    8.81
   1  -7 -20    9.82    4.06
  -1  -7 -20   20.90   10.87
  -1  -7  20    6.67    6.64
   1  -7  21   16.71    9.16
  -1  -7  21    0.30    7.82
   1  -7  21   -0.83    5.58
  -1  -7  21   17.58    9.01
   1   7  21   18.27    8.16
   1  -7 -21   16.03    7.86
   1   7  21    4.72    3.95
  -1   7  21    1.83    7.64
  -1  -7 -21   12.27    5.80
  -1   7  21   11.28    7.85
   1  -7  22    2.51    5.15
  -1  -7  22    1.34    6.49
   1   7  22    0.12    6.09
  -1   7  22   -2.74    6.28
   1  -7 -22    1.40    4.19
   1   7  22    5.37    5.71
  -1  -7  22   -1.55    6.20
  -1   7  22   -3.50    5.04
  -1  -7 -22   -5.99    8.05
   1  -7  22    4.06    6.03
  -1   7  23  117.03   18.99
  -1  -7  23  135.18   22.70
   1  -7  23  124.73   19.70
  -1  -7 -23  109.78   19.28
  -1  -7  23  118.11   21.09
   1   7  23   94.77   19.08
  -1   7  23  109.26   20.13
   1   7  23  138.82   20.80
   1  -7 -23  105.22   18.72
   1  -7  23  104.09   18.86
   1   7  24   -2.58    4.15
  -1  -7 -24    2.68    8.26
   1  -7 -24    0.63    5.74
  -1   7  24   -8.70    6.55
  -1  -7  24   -5.47    8.17
  -1   7  24    1.05    4.26
  -1  -7  24    7.07    3.80
   1  -7  24    1.20    2.68
   1   7  24   -1.27    4.99
   1  -7  24   -4.15    8.52
  -1   7  25    6.71    6.76
   1  -7  25    0.64    7.80
  -1  -7  25    1.69    4.58
   1   7  25    7.07    4.35
  -1  -7  25    4.34    6.75
   1  -7  25   -1.68    5.49
   1   7  25   -0.85    5.56
   1  -7 -25    7.63    8.72
  -1  -7 -25    8.55    5.57
  -1   7  25    4.10    8.67
  -1   7  26   12.07    5.80
   1   7  26    4.56    7.50
   1   7  26    9.54    7.51
   1  -7 -26   -3.62    7.60
   1  -7  26    8.91    5.27
  -1   7  26   -3.49    6.45
  -1  -7  26   10.86    8.77
  -1  -7 -26    7.69    7.27
  -1  -7  26    2.85    8.63
   1  -7  26    2.38    3.81
  -1   7  27   77.63   17.16
   1   7  27  127.51   20.53
   1  -7 -27  132.03   22.21
  -1  -7 -27  156.57   24.06
  -1  -7  27   62.99   16.26
   1  -7  27   80.65   17.46
   1   7  27   84.22   17.90
  -1   7  27   84.00   15.97
  -1  -7  27   64.94   18.08
   1  -7  27  103.91   19.87
   1  -7  28  107.79   20.38
  -1  -7 -28  113.52   21.49
   1  -7 -28  115.30   22.40
   1  -7  28   75.37   17.32
  -1   7  28  100.19   19.71
   1   7  28   68.26   14.82
   1   7  28  108.86   21.92
  -1  -7  28   46.37   18.15
  -1   7  28  130.03   21.82
  -1  -7  28   86.90   18.45
  -1  -7  29    5.15    7.82
  -1   7  29   28.12   11.95
   1  -7  29   11.25    7.83
   1  -7  29    7.19    4.53
   1   7  29   13.29    9.15
  -1  -7 -29    8.19    3.95
  -1   7  29   11.76   10.35
   1   7  29   13.19    7.29
  -1  -7  29    8.53    7.76
   1  -7 -29    0.47    4.01
  -1  -8   0   -3.80    5.50
   1  -8   0   -0.74    5.56
   1  -8   0    2.07    4.20
  -1  -8   0   -1.96    2.74
   1  -8   1 1409.03   54.83
   1  -8  -1 1287.17   51.88
  -1  -8  -1 1330.95   54.22
  -1  -8   1 1271.90   49.45
  -1  -8  -1 1381.07   51.43
   1  -8  -1 1321.48   54.19
  -1  -8   1 1431.50   55.96
   1  -8   1 1322.29   52.42
  -1  -8  -2  124.70   16.86
  -1  -8   2  118.68   17.01
   1  -8   2  108.22   15.43
   1  -8  -2  105.36   15.22
  -1  -8   2  124.30   15.68
   1  -8   2  131.79   16.93
  -1  -8  -2  104.73   14.26
   1  -8  -2  124.14   17.61
   1  -8   3   27.30    8.90
  -1  -8   3   42.40   10.55
  -1  -8  -3   24.46    7.99
  -1  -8   3   26.99    9.40
  -1   8   3   37.95    7.21
   1  -8   3   30.48    8.10
   1  -8  -3   27.09    7.25
  -1  -8  -3   38.55    8.49
   1  -8  -3   36.51    8.58
   1  -8  -4    4.81    3.25
  -1  -8   4    5.72    6.96
  -1  -8   4   13.72    6.82
  -1  -8  -4   -4.44    4.36
   1  -8   4   14.91    7.13
   1  -8  -4    1.48    2.83
  -1   8   4    4.96    2.78
  -1  -8  -4    2.71    2.50
   1  -8   4   16.00    6.83
  -1  -8   5 1226.40   53.18
  -1  -8  -5 1200.02   52.68
   1  -8   5 1123.25   50.27
   1   8   5 1107.55   33.14
   1  -8  -5 1147.69   51.04
  -1  -8   5 1201.37   49.67
   1  -8   5 1250.82   51.92
   1  -8  -5 1131.51   50.60
  -1   8   5 1231.43   44.06
  -1  -8   6   18.21    7.60
   1  -8   6   18.45    7.32
   1  -8  -6   28.64    6.22
  -1   8   6   19.39    5.75
  -1  -8   6   37.06   10.29
   1   8   6   21.39    5.21
  -1  -8  -6   24.40    7.66
   1  -8   6   21.90    5.95
  -1  -8  -7  482.30   33.32
   1  -8   7  390.96   29.91
  -1   8   7  420.52   26.30
  -1  -8   7  400.74   30.71
   1   8   7  431.48   21.58
   1  -8  -7  391.80   29.58
  -1  -8   7  422.36   29.91
   1   8   7  483.86   31.26
   1  -8   7  423.26   31.33
  -1   8   8   29.14    7.19
  -1  -8   8   31.57    8.05
  -1  -8   8   34.73    8.81
   1   8   8   54.52   11.75
   1   8   8   38.09    6.75
  -1  -8  -8   29.96    5.70
   1  -8   8   37.91   10.33
   1  -8  -8   49.53   11.17
   1  -8   8   26.07    7.81
  -1  -8   8   17.92    6.60
   1   8   9 2293.64   70.59
  -1  -8   9 2473.86   68.72
  -1   8   9 2361.68   74.14
  -1   8   9 2357.94   64.76
   1  -8   9 2215.99   71.55
   1  -8   9 2355.54   74.06
   1  -8  -9 2228.41   74.65
   1   8   9 2198.68   54.93
  -1  -8   9 2324.75   73.43
  -1  -8   9 2303.80   71.37
  -1  -8  -9 2326.37   76.25
   1  -8  10   36.33    8.88
  -1  -8 -10   27.76   10.06
   1  -8 -10   45.00    9.63
  -1   8  10   33.40    7.99
  -1  -8  10   29.16    8.75
  -1   8  10   41.62   10.93
   1   8  10   39.36    7.49
   1  -8  10   26.11    8.60
  -1  -8  10   56.83   11.18
   1   8  10   49.93   10.65
  -1  -8  10   46.74   10.48
   1  -8 -11   36.58    9.39
  -1   8  11   23.39    7.18
   1   8  11   13.78    3.92
  -1  -8  11   16.60    4.51
   1   8  11   22.96    8.59
   1  -8  11   16.12    6.57
  -1  -8 -11   11.88    7.29
  -1  -8  11    9.79    5.32
  -1  -8  11   21.85    8.64
   1  -8  11   26.02    6.74
  -1   8  11   15.29    6.54
  -1   8  12  337.06   28.87
   1   8  12  322.55   24.75
  -1  -8  12  291.73   26.04
  -1  -8 -12  278.50   26.23
   1  -8 -12  325.93   29.45
  -1  -8  12  327.16   28.15
   1  -8  12  314.12   27.64
   1   8  12  259.71   25.18
  -1   8  12  243.07   23.10
  -1  -8  12  281.47   25.18
   1  -8  12  295.01   26.18
  -1   8  13  160.85   18.83
   1  -8 -13  230.97   24.65
  -1   8  13  187.26   21.65
   1   8  13  182.20   19.00
   1   8  13  151.23   19.45
  -1  -8 -13  132.79   19.58
  -1  -8  13  173.07   19.85
   1  -8  13  170.63   20.55
   1  -8  13  169.40   20.99
  -1  -8  13  156.18   19.59
   1  -8  14    9.65    5.63
  -1  -8  14    9.95    7.87
   1  -8  14   -3.56    6.21
  -1   8  14   15.56   10.74
  -1  -8 -14   11.40    5.85
  -1  -8  14    6.05    6.38
  -1  -8  14    7.44    5.44
   1   8  14    0.34    2.75
   1  -8 -14    7.23    4.84
  -1   8  14    1.04    3.36
   1   8  14    9.46    6.53
   1  -8  15  116.09   17.92
   1   8  15  151.44   18.95
  -1   8  15  104.36   16.75
  -1  -8 -15  141.49   21.52
  -1   8  15  175.59   21.48
   1  -8 -15  114.33   21.16
   1   8  15  116.95   16.68
  -1  -8  15  117.87   18.14
  -1  -8  15  129.65   18.26
   1  -8  15  130.92   18.68
  -1  -8  15  169.03   21.21
   1  -8  15  157.11   20.51
   1  -8  16   13.99    8.00
  -1   8  16    1.59    6.27
  -1  -8  16    4.09    2.91
  -1  -8  16   -3.58    4.33
   1  -8 -16    5.61    6.61
  -1   8  16    8.85    7.75
   1   8  16    3.14    3.11
  -1  -8 -16   -1.12    6.70
   1   8  16    0.71    3.31
  -1  -8  16    7.27    4.53
   1  -8  16   23.98   12.49
   1  -8  16    2.94    2.67
   1   8  17  242.46   25.86
   1  -8  17  289.92   28.01
   1   8  17  268.60   25.95
   1  -8 -17  264.56   27.52
  -1  -8 -17  231.48   27.38
   1  -8  17  304.39   29.89
   1  -8  17  262.14   27.19
  -1   8  17  281.01   28.00
  -1  -8  17  284.89   27.76
  -1  -8  17  259.51   27.63
  -1   8  17  282.88   28.28
  -1  -8  17  336.20   31.17
  -1   8  18    3.63    4.12
   1   8  18   -1.98    5.01
   1  -8  18    3.31    3.69
   1  -8  18    3.49    8.39
   1  -8  18    1.70    5.06
  -1  -8  18    2.20    5.77
  -1  -8  18    1.47    3.18
  -1  -8  18    1.79    3.01
  -1   8  18    8.01    3.80
   1  -8 -18    2.01    5.87
  -1  -8 -18    3.92   10.35
   1   8  18    2.27    6.08
  -1   8  19  391.46   34.73
  -1  -8  19  387.63   33.57
  -1   8  19  414.08   35.29
  -1  -8  19  385.32   35.02
   1   8  19  398.25   34.68
   1  -8  19  451.75   36.12
   1  -8  19  425.34   37.80
  -1  -8  19  404.15   34.46
   1  -8  19  408.53   34.27
  -1  -8 -19  396.52   34.83
   1   8  19  452.89   35.29
   1  -8 -19  408.04   36.32
  -1  -8  20    0.30    3.71
   1  -8  20   -2.54    7.23
  -1   8  20   -0.38    4.33
   1  -8  20    6.98    7.19
  -1   8  20    2.00    4.04
  -1  -8  20   -3.52    8.70
   1  -8 -20    5.79    6.18
   1  -8  20    2.66    5.35
   1   8  20    5.17    6.23
  -1  -8 -20    4.20    5.37
  -1  -8  20    0.09    4.64
   1   8  20   -2.65    5.30
   1   8  21  185.59   23.32
   1   8  21  130.46   19.27
  -1  -8  21  123.31   20.89
  -1   8  21  140.55   21.44
   1  -8  21  119.91   21.40
  -1  -8  21  151.21   22.28
  -1  -8 -21  151.82   22.59
   1  -8 -21  140.70   21.40
  -1   8  21  146.60   20.81
  -1  -8  21  120.37   19.52
   1  -8  21  166.34   22.65
  -1   8  22   25.81   10.57
   1  -8  22   20.39    9.45
   1  -8 -22    5.25    8.48
  -1  -8  22    6.08    5.72
  -1  -8 -22   18.99   10.34
   1   8  22    4.33    7.04
   1  -8  22   24.80   11.38
  -1  -8  22   13.37    4.38
   1   8  22    9.01    9.11
  -1   8  22    6.63    6.05
  -1  -8  23  207.06   27.97
  -1   8  23  180.84   24.09
   1  -8 -23  213.75   27.52
  -1  -8 -23  172.85   25.36
   1  -8  23  197.35   25.63
  -1   8  23  180.25   24.78
  -1  -8  23  230.04   27.38
   1   8  23  211.93   26.41
   1   8  23  164.99   25.92
   1  -8  23  178.27   24.14
  -1  -8 -24    2.75    7.18
   1  -8 -24   12.72    9.89
   1  -8  24   -8.11    7.68
   1   8  24   -2.45    3.61
  -1  -8  24    5.54    4.90
  -1  -8  24   10.24   11.77
   1  -8  24    5.39    5.97
  -1   8  24   10.09    3.64
  -1   8  24    0.82    6.97
  -1  -8  25   48.55   15.50
   1  -8 -25   53.41   13.80
   1   8  25   47.30   13.77
  -1  -8  25   29.67   11.86
  -1  -8 -25   43.51   12.38
  -1   8  25   43.75   14.79
   1  -8  25   46.91   16.90
   1  -8  25   53.46   14.46
  -1   8  25   55.20   14.42
   1   8  26    3.96    3.72
   1  -8  26   -1.81    4.13
   1  -8 -26   -5.20    6.89
  -1  -8  26   -8.24    9.07
  -1  -8 -26    1.01    3.96
   1  -8  26    2.65    4.48
  -1  -8  26    6.29    7.30
  -1   8  26  -17.27   12.16
  -1   8  26    2.66    7.74
  -1   8  27  257.10   30.19
  -1  -8 -27  249.82   31.05
  -1  -8  27  204.69   27.44
   1  -8  27  179.23   26.69
  -1   8  27  208.58   29.16
   1   8  27  215.74   28.72
   1  -8 -27  236.09   29.98
   1  -8  27  202.30   27.48
  -1  -8  27  198.03   27.30
  -1  -8  28    6.48    4.16
  -1  -8 -28    7.24    6.13
  -1   8  28    4.98    6.90
   1  -8  28    1.57    8.55
   1   8  28   -1.74    5.49
  -1  -8  28    6.56    7.43
  -1   8  28   -1.89    4.54
   1  -8 -28    3.27    7.63
   1  -8  28    4.54    7.01
   1  -9   0   -3.95    3.52
  -1  -9   0   -4.90    7.08
   1  -9   0   -2.77    4.44
  -1  -9   0   -0.52    3.56
   1  -9   1   55.94   12.43
  -1  -9   1   70.34   14.71
   1  -9  -1   75.12   12.68
  -1  -9  -1   66.13   14.18
   1  -9  -1   83.54   14.17
  -1  -9  -1   91.55   14.63
  -1  -9   1   61.28   12.06
   1  -9   1   68.85   13.84
  -1  -9  -2  104.75   17.06
  -1  -9   2  103.98   16.53
   1  -9  -2  124.76   17.37
  -1  -9  -2  147.46   17.54
   1  -9   2  132.28   18.52
   1  -9   2  146.80   18.68
   1  -9  -2  106.74   15.99
  -1  -9   2  140.86   17.56
  -1  -9   3  217.94   23.56
   1  -9   3  228.22   24.16
   1  -9   3  222.16   23.26
   1  -9  -3  214.33   22.12
  -1  -9  -3  199.37   22.82
   1  -9  -3  254.79   25.61
  -1  -9   3  203.77   21.41
  -1  -9  -3  204.90   21.58
  -1  -9  -4   93.39   15.71
   1  -9  -4   81.57   13.92
   1  -9   4   72.75   12.67
   1  -9  -4   73.88   13.30
  -1  -9  -4   93.67   14.93
  -1  -9   4   74.95   15.70
  -1   9   4   82.71   12.42
  -1  -9   4   90.88   15.19
   1  -9   4  105.52   15.79
  -1  -9   5   16.25    6.42
  -1   9   5   13.93    6.12
   1  -9   5   26.07   10.13
  -1  -9  -5    7.56    2.32
   1  -9   5   28.32   10.34
   1  -9  -5    2.13    3.80
  -1  -9  -5   10.91    4.07
  -1  -9   5   13.17    5.51
   1  -9  -5   15.99    8.21
  -1  -9   6  139.43   20.61
  -1   9   6  127.42   15.31
  -1  -9  -6  112.63   17.09
   1  -9  -6  146.17   19.54
   1  -9   6  120.37   18.26
   1   9   6  115.57   11.98
   1  -9   6  144.51   18.30
   1  -9  -6  106.57   16.85
  -1  -9   6  114.73   16.09
  -1  -9   7   -5.54    6.97
  -1   9   7    4.08    2.63
   1  -9  -7    0.55    3.12
   1  -9   7    6.63    4.45
   1   9   7   -0.35    3.45
  -1  -9   7   -2.46    3.35
  -1  -9  -7    6.41    7.96
   1  -9   7    0.19    5.90
   1  -9  -7    9.38    6.62
   1  -9  -8   71.75   13.12
  -1  -9  -8   46.29   10.47
  -1  -9   8   40.55    8.72
   1  -9   8   73.07   13.82
  -1  -9   8   60.80   12.72
  -1   9   8   52.24    9.91
   1   9   8   52.31    8.50
   1  -9   8   50.85   10.82
  -1  -9   8   59.30   10.99
   1   9   9 1848.38   51.42
   1  -9   9 1828.77   67.33
  -1  -9  -9 1940.43   71.13
   1  -9  -9 1942.86   72.12
  -1  -9   9 1965.93   63.09
  -1   9   9 1795.58   59.26
   1   9   9 1844.70   67.38
  -1  -9   9 1890.68   69.15
   1  -9   9 1935.62   69.86
  -1  -9   9 1960.00   68.19
   1   9  10   29.45    7.76
   1  -9 -10   43.73   11.15
  -1  -9  10   37.45    8.98
   1  -9  10   27.56    8.35
  -1  -9  10   21.60    8.53
   1  -9  10   26.54    7.58
   1   9  10   29.30    7.20
  -1   9  10   33.97    9.59
  -1  -9 -10   28.66   10.87
  -1  -9  10   46.22   11.27
  -1  -9  11   60.59   13.69
  -1   9  11   68.41   12.03
  -1  -9 -11   28.29   11.46
  -1  -9  11   52.93   10.99
  -1  -9  11   47.70   11.62
   1  -9  11   62.54   13.52
   1   9  11   59.22   12.72
   1  -9 -11   34.58   10.61
  -1   9  11   65.54   12.96
   1  -9  11   58.59   12.33
   1   9  11   56.33    9.71
  -1   9  12   20.09    8.50
  -1  -9 -12   18.79    8.47
  -1  -9  12   14.64    6.92
   1  -9 -12    8.14    3.47
  -1  -9  12   12.86    3.12
   1   9  12    9.15    7.64
   1  -9  12   14.06    7.38
   1  -9  12    5.71    6.06
  -1   9  12   10.59    4.79
  -1  -9  12    4.94    4.53
  -1   9  13   26.63    9.96
  -1  -9  13   17.15    5.96
  -1   9  13   14.50    6.97
   1  -9  13   15.71    7.84
   1  -9 -13    8.56    7.08
  -1  -9 -13    2.92    5.21
  -1  -9  13    0.98    5.97
  -1  -9  13   19.75   10.12
   1   9  13   19.47    7.88
   1  -9  13   24.51   11.35
   1  -9 -14   19.57    7.06
   1  -9  14    9.12    6.84
  -1  -9  14   18.40    8.14
  -1  -9  14    2.34    5.27
  -1   9  14   12.26    8.46
  -1   9  14   10.16    8.47
  -1  -9 -14   10.79    5.28
  -1  -9  14    7.26    5.54
   1  -9  14    8.11    3.50
   1   9  14   10.30    5.05
  -1  -9  15   61.28   12.09
   1  -9  15   86.00   14.77
  -1  -9  15   47.82   14.58
   1  -9 -15   33.73   11.64
   1  -9  15   71.83   13.15
   1   9  15   56.12   13.03
  -1   9  15   75.21   16.31
  -1   9  15   76.21   14.92
  -1  -9 -15   59.33   12.96
  -1  -9  15   84.17   14.75
   1  -9  16  141.93   20.60
   1  -9  16  132.22   20.35
  -1  -9  16  116.58   16.82
   1  -9 -16  147.72   21.60
  -1  -9 -16  132.86   21.13
  -1  -9  16  145.94   20.46
   1  -9  16  128.08   19.04
  -1   9  16  141.78   20.10
   1   9  16  126.73   18.54
  -1  -9  16  116.22   19.96
  -1   9  16  119.77   18.35
  -1  -9 -17   17.10    9.59
   1  -9  17   22.31    7.24
   1  -9  17   29.16   10.76
  -1  -9  17   31.52   12.42
  -1   9  17   19.41    7.79
  -1  -9  17   11.90    8.39
  -1   9  17   22.80    9.28
   1  -9  17   16.27    7.79
   1  -9 -17   18.93    8.88
  -1  -9  17   13.35    6.13
   1   9  17   29.78    8.84
   1  -9 -18   94.29   17.02
   1  -9  18   87.87   17.59
  -1   9  18   91.73   16.55
   1  -9  18   86.32   17.08
  -1  -9 -18   93.85   16.64
  -1   9  18  103.54   17.86
  -1  -9  18   80.31   15.87
   1   9  18   97.08   16.74
  -1  -9  18  130.54   20.28
   1  -9  18   95.26   17.46
  -1  -9  18   62.86   15.51
   1  -9  19  104.34   17.41
  -1   9  19  102.08   19.35
  -1  -9 -19   83.44   17.25
  -1  -9  19   65.16   16.25
   1  -9 -19   75.01   13.56
  -1  -9  19   75.07   13.83
   1   9  19  116.11   19.59
   1  -9  19   95.06   18.72
  -1   9  19   81.00   15.05
   1  -9  19   96.85   17.55
  -1  -9  19  112.22   18.41
   1  -9  20   37.43   11.29
  -1   9  20   31.60    9.57
   1  -9  20   48.76   12.46
  -1  -9 -20   46.02   13.81
  -1  -9  20   45.38   11.72
   1  -9 -20   51.10   13.92
   1  -9  20   41.13   14.28
  -1  -9  20   24.84   10.72
  -1  -9  20   36.84   10.76
   1   9  20   41.08   11.66
  -1   9  20   44.54   14.03
   1  -9 -21  138.17   21.13
  -1   9  21  133.41   20.36
  -1  -9  21  138.22   21.02
  -1  -9  21  128.21   20.76
   1  -9  21  118.54   17.72
  -1   9  21  110.01   18.88
   1  -9  21  144.40   21.37
  -1  -9  21  106.19   21.92
   1  -9  21   83.89   18.03
  -1  -9 -21  125.47   19.48
   1   9  21  125.98   19.86
  -1  -9 -22   13.49    3.97
  -1  -9  22   12.16    3.66
   1   9  22   26.24   10.13
  -1   9  22   27.17   10.08
  -1  -9  22   18.76   10.18
   1  -9  22   27.89    9.93
   1  -9  22   28.25    7.81
  -1   9  22   18.23    6.54
  -1  -9  22   30.36   11.42
   1  -9 -22   20.23    9.00
   1  -9  23   -6.56    6.68
   1  -9  23    9.16    6.62
  -1   9  23    0.62    5.14
  -1  -9  23    1.59    6.33
   1  -9 -23   17.96   10.11
  -1   9  23    6.25    3.52
  -1  -9  23    8.48    8.03
  -1  -9 -23   -2.81    3.65
   1   9  23    0.39    4.43
   1   9  24   50.39   15.08
  -1  -9  24   30.09   13.15
   1  -9 -24   33.77   12.57
  -1   9  24   40.62   14.54
  -1   9  24   30.90   12.15
  -1  -9  24   41.92   12.33
   1  -9  24   53.65   14.84
  -1  -9 -24   60.70   15.19
   1  -9  24   15.41   10.16
   1  -9 -25    3.87    6.54
  -1  -9  25    2.98    6.08
  -1  -9 -25    9.16   13.53
  -1   9  25   -5.49    6.02
   1  -9  25    9.26    6.39
  -1   9  25    2.53    6.63
   1   9  25   14.40    9.52
  -1  -9  25   11.46   10.55
   1  -9  25   -7.27    8.71
  -1  -9 -26    4.82    3.88
  -1  -9  26   -3.00    6.72
   1  -9  26    0.37    7.57
   1   9  26    1.69    7.25
   1  -9  26   -1.51    7.86
   1  -9 -26    4.24    5.99
  -1   9  26   -6.37    5.84
  -1   9  26   -3.67    5.90
  -1  -9  26   -2.74    7.72
   1   9  27   64.60   16.63
  -1  -9  27   93.47   19.08
  -1   9  27   88.90   17.56
   1  -9 -27   66.75   17.92
  -1  -9 -27   83.46   19.99
  -1  -9  27   25.80   14.16
   1  -9  27   73.43   15.60
   1  -9  27   89.24   18.31
   1 -10   0    0.97    3.07
   1 -10   0    8.09    8.59
  -1 -10   0    1.66    3.21
  -1 -10   0   -0.97    4.29
  -1 -10  -1  163.87   20.11
   1 -10  -1  142.30   18.89
   1 -10   1  101.26   18.28
  -1 -10   1  145.64   19.71
  -1 -10  -1  142.63   19.41
  -1 -10   1  169.39   21.09
   1 -10   1  162.75   20.89
   1 -10  -1  131.12   18.88
   1 -10   2   38.73   10.28
   1 -10   2   38.18   10.07
   1 -10  -2   46.65   11.94
  -1 -10   2   47.44   10.97
  -1 -10   2   36.20   10.17
   1 -10  -2   69.84   13.85
  -1 -10  -2   40.75   11.20
  -1 -10  -2   41.97   12.20
  -1 -10  -3  398.21   31.46
  -1 -10  -3  373.87   32.36
   1 -10  -3  353.65   30.94
   1 -10  -3  385.26   31.92
  -1 -10   3  399.87   33.05
   1 -10   3  366.52   32.26
  -1 -10   3  318.98   28.34
   1 -10   3  430.37   33.86
   1 -10   4   -0.72    4.07
  -1 -10  -4   15.90    8.51
   1 -10  -4   11.04    6.30
   1 -10   4   -0.44    5.08
   1 -10  -4   -0.31    4.20
  -1 -10   4   -0.26    3.86
  -1 -10   4    7.83    6.46
  -1 -10  -4   10.46    6.08
  -1 -10  -5  330.54   30.53
   1 -10  -5  315.72   29.32
  -1 -10   5  372.12   31.24
   1 -10  -5  369.27   31.03
   1 -10   5  334.42   30.30
   1 -10   5  337.93   30.30
  -1 -10  -5  335.85   29.43
  -1 -10   5  383.98   32.91
  -1  10   5  354.45   26.50
  -1 -10   6  189.98   23.15
   1 -10   6  225.06   25.19
   1 -10  -6  201.34   24.03
  -1 -10   6  206.66   23.07
  -1 -10  -6  189.68   23.46
   1 -10  -6  184.82   22.08
   1 -10   6  175.48   21.09
  -1  10   6  173.91   19.10
  -1 -10  -6  187.39   22.31
  -1 -10  -7  145.54   18.96
   1 -10   7  132.48   19.84
   1 -10   7  186.58   22.14
  -1 -10   7  183.13   21.93
   1 -10  -7  197.92   22.97
  -1  10   7  163.56   18.48
  -1 -10  -7  156.36   22.54
  -1 -10   7  103.30   16.66
   1 -10  -7  172.19   20.90
  -1 -10   8   56.48   12.94
  -1 -10   8   91.89   17.29
   1 -10  -8   75.48   14.56
   1 -10   8   81.80   15.18
  -1 -10  -8   85.20   15.90
   1 -10  -8   74.15   15.30
   1 -10   8   67.46   14.10
  -1  10   8   61.79   12.68
  -1 -10   9  154.99   20.80
   1 -10   9  145.52   19.63
   1 -10   9  166.01   21.33
   1 -10  -9  118.66   17.90
   1 -10  -9  176.76   22.32
  -1  10   9  162.93   18.57
  -1 -10   9  162.84   20.51
  -1 -10  -9  191.04   23.22
   1 -10 -10  630.00   43.16
  -1 -10 -10  636.10   42.73
  -1  10  10  642.68   37.46
  -1 -10  10  643.13   41.35
   1 -10  10  651.94   42.95
  -1 -10  10  695.98   43.18
   1 -10  10  675.52   42.22
   1 -10  11   26.20    9.58
   1  10  11   46.51   11.19
   1 -10 -11   24.02   10.10
  -1 -10  11   36.44   10.78
  -1  10  11   27.36    6.25
   1 -10  11   28.68   10.55
  -1 -10  11   34.99   11.41
  -1 -10 -11   22.48    8.92
  -1 -10  12  131.83   18.97
  -1 -10 -12  130.19   19.54
   1 -10 -12  128.88   20.15
  -1  10  12  101.13   16.69
   1 -10  12  160.11   21.95
   1 -10  12  130.65   19.46
   1  10  12  127.69   19.78
  -1 -10  12  127.12   18.10
   1 -10  13  133.41   18.93
  -1  10  13  160.01   22.72
  -1  10  13  159.99   20.69
   1  10  13  137.70   20.98
  -1 -10  13  149.49   22.91
  -1 -10 -13  163.95   24.22
   1 -10  13  140.44   20.44
   1 -10 -13  162.05   22.28
  -1 -10  13  127.62   18.68
  -1 -10  13  126.52   20.02
  -1 -10  14    4.88    3.51
  -1 -10  14    7.95    3.83
  -1  10  14   11.13    9.11
   1 -10 -14   20.91    9.95
   1 -10  14   11.80    6.62
  -1 -10  14    7.38    6.69
   1 -10  14   14.72    8.43
   1  10  14    0.51    4.65
  -1 -10 -14   17.47    9.76
  -1  10  14   14.73    7.47
  -1 -10  15   -3.97    7.23
  -1 -10  15    2.07    5.63
   1 -10  15   -4.20    6.30
  -1 -10  15    1.07    4.08
   1 -10  15   -9.93    8.18
   1  10  15   -0.75    5.10
  -1 -10 -15   -4.72    3.75
   1 -10 -15    1.29    5.85
  -1  10  15    2.19    3.69
   1 -10  15   -0.77    7.43
  -1  10  15   -1.30    4.95
   1  10  16  210.14   25.48
  -1 -10  16  167.56   22.06
  -1  10  16  165.58   22.93
   1 -10  16  188.64   22.24
   1 -10  16  168.42   23.70
   1 -10 -16  176.54   24.46
   1 -10  16  164.65   24.57
  -1 -10  16  192.51   24.00
  -1 -10  16  185.82   23.01
  -1 -10 -16  180.44   25.46
  -1  10  16  223.97   26.75
   1 -10  17   40.57   12.34
  -1 -10  17   49.36   11.91
   1 -10 -17   52.51   15.14
   1 -10  17   25.73   11.06
   1 -10  17   67.88   14.67
  -1  10  17   31.16    9.67
  -1 -10 -17   38.10   13.81
   1  10  17   34.27   11.40
  -1 -10  17   52.53   15.18
  -1 -10  17   24.58    9.01
  -1  10  17   46.43   13.47
  -1 -10  18   18.61    8.45
  -1 -10  18   18.06    9.29
  -1  10  18   26.17    9.97
   1 -10 -18   31.89   11.25
   1 -10  18   22.63    9.27
   1 -10  18   24.56    9.24
  -1  10  18   35.19    7.87
  -1 -10  18   19.69   11.39
   1 -10  18   31.21    9.54
  -1 -10 -18   27.40   12.15
   1  10  18   39.25   10.10
   1 -10  19   17.79    9.34
  -1 -10  19   15.33    9.09
  -1  10  19   21.15   10.43
  -1  10  19   22.75   12.16
   1 -10 -19   21.18    9.80
  -1 -10 -19   14.82    5.44
  -1 -10  19   25.17   10.44
   1 -10  19   10.53    6.69
   1  10  19   17.34    8.58
   1 -10  19   16.27    2.76
  -1 -10  19   10.11    5.53
   1 -10  20  309.70   31.57
  -1 -10  20  290.86   30.84
  -1 -10  20  255.89   29.38
   1 -10  20  328.14   32.70
  -1 -10 -20  278.29   30.98
   1  10  20  304.75   31.03
   1 -10  20  326.41   35.09
  -1  10  20  296.52   31.14
  -1 -10  20  273.15   32.15
   1 -10 -20  319.22   33.67
  -1 -10  21    7.59    7.81
   1 -10  21    8.50    8.95
  -1 -10  21    3.67    4.68
   1 -10  21    6.63    7.68
  -1  10  21   -0.41    3.57
  -1 -10 -21   21.11    7.94
  -1 -10  21   -3.60    6.55
   1 -10 -21    7.61    8.45
   1 -10  21    5.54    2.86
   1  10  21    4.90    3.74
   1 -10  22   50.87   13.73
   1 -10  22   31.51    8.25
   1 -10  22   25.32   10.18
   1 -10 -22   29.76   11.46
  -1  10  22   40.11   12.44
  -1 -10  22   16.22   10.78
  -1 -10 -22   42.78   14.11
  -1 -10  22   19.01    8.88
  -1 -10  22   49.77   12.84
   1  10  22   40.71    8.67
   1 -10  23    9.45   10.57
   1  10  23   10.11    7.25
  -1 -10  23   -4.92    6.41
  -1 -10  23    7.56    9.19
  -1 -10 -23   17.29    7.65
   1 -10  23   -1.67    6.40
  -1  10  23    9.76    8.27
  -1 -10  23    8.73    4.21
   1 -10 -23    8.60    5.65
  -1 -10  24   53.77   15.64
   1 -10  24   78.60   16.04
  -1  10  24   64.63   12.88
  -1 -10 -24   60.49   15.04
   1 -10 -24   66.47   16.99
   1  10  24   65.43   16.06
  -1 -10  24   61.88   13.40
   1 -10  24   52.87   14.94
  -1 -10 -25   10.47    8.30
  -1 -10  25    1.71    7.46
   1 -10  25    9.24   10.81
  -1 -10  25    4.30    5.95
   1 -10  25   19.03    8.65
   1 -10 -25   14.35    7.58
   1  10  25   -1.86    7.13
  -1  10  25    1.10    4.71
  -1 -11   0   -1.62    2.76
   1 -11   0   -1.47    4.28
  -1 -11   0    7.05    4.71
   1 -11   0   -3.86    7.20
   1 -11  -1    2.90    5.10
  -1 -11  -1    6.51    4.67
   1 -11   1   12.23    4.18
  -1 -11   1    8.34    5.95
   1 -11  -1    4.46    5.55
  -1 -11   1   14.32    6.28
   1 -11   1    8.39    4.00
  -1 -11  -1    3.80    7.92
  -1 -11   2    4.79    6.78
  -1 -11  -2   12.19    8.19
   1 -11  -2   -4.72    6.99
   1 -11  -2    8.02    5.45
   1 -11   2    0.67    5.26
  -1 -11  -2   -0.20    4.86
   1 -11   2    6.07    5.80
  -1 -11   2    3.79    2.72
  -1 -11  -3   91.55   16.90
  -1 -11   3  103.65   17.03
   1 -11   3   97.76   17.60
   1 -11  -3   72.65   14.42
  -1 -11   3  116.48   19.74
   1 -11  -3   97.74   18.57
   1 -11   3  117.13   18.82
  -1 -11  -3   71.88   12.95
   1 -11   4   49.26   12.92
   1 -11   4   33.29    9.81
  -1 -11   4   61.48   13.75
  -1 -11  -4   52.32   12.69
  -1 -11   4   46.21   13.43
   1 -11  -4   46.19   12.80
  -1 -11  -4   37.66    9.68
   1 -11  -4   44.92   12.13
  -1 -11   5   17.24    9.10
  -1 -11   5   11.03    4.66
   1 -11   5    0.46    4.44
  -1 -11  -5    5.97    2.95
  -1 -11  -5    1.80    5.95
   1 -11  -5   13.61   10.74
   1 -11  -5    8.41    5.46
   1 -11   5    8.06    7.54
  -1 -11   6   20.75    8.96
   1 -11  -6   31.23    9.21
  -1 -11   6   54.55   12.33
   1 -11   6   26.16    8.52
  -1 -11  -6   31.11   10.90
  -1 -11  -6   13.13    7.86
   1 -11  -6   38.60    9.80
   1 -11   6   30.82    8.93
   1 -11  -7   21.14    7.80
  -1 -11   7   33.55   12.38
  -1 -11  -7   43.16   12.11
  -1 -11  -7   22.19   11.04
   1 -11  -7   36.48   11.36
  -1 -11   7   26.72    9.09
  -1  11   7   12.99    4.08
   1 -11   7   19.92    9.14
   1 -11   7   28.53    8.11
   1 -11  -8  276.14   30.56
  -1 -11   8  285.51   29.13
   1 -11   8  267.01   29.17
  -1 -11  -8  270.43   28.03
  -1 -11   8  232.93   25.53
   1 -11   8  269.46   28.11
   1 -11  -8  248.69   27.28
  -1 -11  -8  297.25   31.38
  -1 -11  -9   -0.65    5.68
  -1 -11   9   16.50    6.71
  -1 -11   9   10.82    8.25
  -1 -11  -9    1.97    5.31
   1 -11  -9   -1.96    4.60
   1 -11   9    1.52    5.57
   1 -11   9    7.36    5.29
   1 -11  -9   14.40    9.98
  -1 -11  10  331.53   31.08
   1 -11  10  344.02   31.71
   1 -11 -10  341.00   33.05
   1 -11 -10  310.85   30.61
  -1 -11  10  291.22   29.92
  -1 -11 -10  362.55   34.42
   1 -11  10  304.93   29.00
  -1 -11  11    5.53    8.03
   1 -11  11    9.23    5.93
  -1 -11 -11   -0.39    6.10
   1 -11  11    3.23    3.13
   1 -11 -11   -6.30    5.42
  -1 -11  11    8.16    7.34
   1 -11 -11    7.34    6.47
   1 -11  12   93.57   18.58
  -1 -11  12   90.39   15.25
  -1 -11 -12   59.23   13.71
   1 -11 -12   57.44   14.05
   1 -11  12   82.96   15.95
  -1 -11  13   34.31   11.23
   1 -11  13   11.50    7.20
   1 -11  13   15.78    6.54
  -1 -11  13   34.41   12.68
   1 -11 -13   25.80   12.53
  -1 -11 -13    8.64    3.42
  -1 -11  14    2.98    5.23
   1 -11  14    9.84    6.33
   1 -11  14   12.38    7.33
  -1 -11 -14   22.94   11.94
   1  11  14    5.75    6.71
   1 -11 -14   15.41    6.18
  -1 -11  14    8.46    7.43
  -1 -11 -15   -3.00    5.37
   1 -11 -15    3.75    7.29
   1 -11  15   -9.05    4.51
  -1 -11  15    1.84    4.05
   1  11  15   -7.23    8.06
   1 -11  15    2.31    4.50
   1 -11  15   -0.10    6.84
  -1 -11  15   -7.07    5.74
   1 -11 -16   10.49    9.27
  -1 -11 -16   27.71   10.19
   1 -11  16    8.96    7.84
   1  11  16   12.56    6.84
  -1 -11  16   10.20    7.18
   1 -11  16   13.11    6.95
  -1 -11  16   -0.47    2.71
  -1  11  16   20.55   10.82
   1 -11  16   23.69   10.26
   1 -11 -17   22.73   12.68
   1 -11  17   42.87   12.51
  -1 -11  17   40.21   13.04
   1 -11  17   35.95   12.71
   1  11  17   45.81   12.48
  -1 -11  17   18.90    6.18
   1 -11  17   31.34   13.72
  -1 -11 -17   23.96    9.12
  -1  11  17   22.98    8.33
   1 -11  18    5.03    4.32
  -1 -11  18   -1.56    4.71
  -1 -11  18    9.48    9.34
   1 -11  18    4.30    6.59
   1 -11 -18    7.15    7.33
  -1  11  18    9.84    8.09
   1  11  18    6.84    4.37
  -1 -11 -18    4.94    5.28
  -1  11  19   40.36   13.71
   1 -11 -19   47.43   13.92
   1 -11  19   35.60   12.11
   1 -11  19   63.08   14.40
   1 -11  19   36.49   15.17
  -1 -11 -19   64.58   14.73
  -1 -11  19   36.27   11.01
  -1 -11  19   61.33   15.79
   1  11  19   51.72   14.89
   1 -11  20   19.30    7.64
  -1 -11  20   24.29   10.43
   1 -11  20   11.10    9.83
   1 -11  20   26.01   11.97
   1 -11 -20   40.81   14.89
  -1  11  20   41.95   12.93
   1  11  20   47.16   12.28
  -1 -11 -20   51.32   12.83
  -1 -11  20   35.31   10.80
   1 -11  21   37.42   11.17
   1  11  21   31.03   11.36
   1 -11 -21   28.93   12.84
  -1 -11  21   22.89   10.94
  -1 -11 -21   36.65   11.81
   1 -11  21   17.56    7.57
  -1  11  21   37.00   12.29
   1 -11  21   17.68   12.45
  -1 -11  21   30.23   10.50
   1 -11  22    1.21    6.49
   1 -11  22    2.74    7.66
  -1 -11  22   18.21   11.49
   1  11  22    8.80    6.48
  -1 -11  22    4.64    7.12
  -1 -11 -22    8.53    8.54
  -1  11  22    4.59    8.96
   1 -11  22   15.29   10.91
   1 -11 -22    3.19    6.48
   1 -11 -23   17.44   11.29
   1  11  23   24.18    9.84
  -1  11  23   18.60    8.87
  -1 -11 -23    9.13    7.70
  -1 -11  23   15.32    6.06
   1 -11  23   23.49   10.69
  -1 -11  23   15.25   10.47
   1 -11  23    6.68    9.62
   1 -11  23    6.46    4.89
   1  11  24    6.40    4.91
   1 -11 -24    9.32    9.32
  -1 -11  24    7.62    6.49
  -1 -11 -24   -2.81    7.77
  -1 -11  24   -1.34    6.12
  -1  11  24    4.96    9.21
   1 -11  24    2.72    6.00
   1 -11  24    7.25    5.63
  -1 -12   0   -1.43    3.19
   1 -12   0   -1.32    9.56
   1 -12   0    2.37    5.81
  -1 -12   0   -3.50    2.80
  -1 -12   1   -0.80    4.46
   1 -12  -1   -1.21    5.02
  -1 -12  -1   12.85    8.18
  -1 -12  -1   -0.24    5.20
   1 -12  -1    0.43    8.43
   1 -12   1    7.74    8.34
   1 -12   1   -2.30    6.45
  -1 -12   1    0.98    5.10
   1 -12  -2   86.12   15.90
  -1 -12  -2   73.12   16.01
   1 -12  -2   84.14   17.57
  -1 -12   2   71.53   15.18
  -1 -12  -2   69.41   15.37
   1 -12   2   67.84   17.38
   1 -12   2   92.76   17.12
  -1 -12   2   96.27   17.45
  -1 -12   3    2.15    4.95
  -1 -12   3    9.86    4.21
   1 -12  -3   23.23   10.77
   1 -12  -3    1.59    3.91
   1 -12   3    7.59    2.94
  -1 -12  -3   10.01    4.23
  -1 -12  -3    2.62    4.82
   1 -12   3    5.87    7.02
   1 -12   4   14.24   10.82
  -1 -12   4   10.89    8.29
  -1 -12  -4    0.02    4.87
   1 -12  -4    1.86    5.99
  -1 -12  -4    5.48    7.93
   1 -12   4    5.87    6.91
  -1 -12   4  -11.61    7.67
   1 -12  -4   -1.89    4.58
  -1 -12  -5   23.01    9.81
   1 -12   5   13.26    9.05
  -1 -12   5   14.72    9.42
  -1 -12  -5    2.81    5.42
   1 -12  -5    3.10    5.85
   1 -12  -5   20.96   10.24
   1 -12   5   17.68    5.87
  -1 -12   5    6.87    4.94
  -1 -12   6   20.60    7.96
  -1 -12   6   20.35   11.80
   1 -12   6   12.26    6.22
  -1 -12  -6   21.95    8.98
   1 -12  -6   17.70    9.29
  -1 -12  -6   25.50    9.06
   1 -12  -6   11.64    4.53
   1 -12   6   16.39    7.14
   1 -12   7   48.45   15.35
   1 -12  -7   33.20   10.00
  -1 -12  -7   17.59   10.82
  -1 -12  -7   37.81   10.53
   1 -12  -7   26.59    7.45
   1 -12   7   33.22    9.34
  -1 -12   7   36.94   11.10
  -1 -12   7   58.49   14.94
   1 -12  -8   63.94   16.46
   1 -12   8   54.93   12.84
   1 -12   8   52.71   13.48
  -1 -12   8   81.01   16.19
   1 -12  -8   30.46   11.86
  -1 -12  -8   38.68   12.88
  -1 -12  -8   34.87   11.20
  -1 -12   8   78.40   15.50
   1 -12  -9  166.33   22.78
  -1 -12   9  186.55   23.88
   1 -12   9  140.28   20.36
  -1 -12  -9  155.36   21.03
  -1 -12   9  180.53   23.58
   1 -12  -9  174.43   23.55
   1 -12   9  167.65   22.99
  -1 -12  -9  145.62   22.30
  -1 -12  10    6.09    6.78
   1 -12 -10    7.10    6.68
  -1 -12 -10    0.47    7.19
   1 -12 -10    1.52    5.82
   1 -12  10   12.41    5.38
  -1 -12 -10   14.99    7.25
  -1 -12  10   11.60    5.93
   1 -12  10   16.26    8.89
  -1 -12  11    1.74    6.78
  -1 -12 -11   15.20    9.93
  -1 -12 -11   26.46    8.68
   1 -12 -11   18.58   10.31
  -1 -12  11   16.27    9.20
   1 -12  11   12.81   10.75
   1 -12 -11   12.40    6.61
   1 -12  11   15.04    7.25
  -1 -12  12    7.49    3.80
   1 -12  12   -2.25    5.97
   1 -12 -12    1.92    4.13
  -1 -12  12   16.31    9.72
   1 -12 -12    9.02    6.78
   1 -12  12    4.87    4.74
  -1 -12 -12   16.14    9.02
   1 -12  13  261.12   29.06
  -1 -12 -13  226.99   29.04
  -1 -12  13  241.65   28.06
  -1 -12  13  227.32   26.95
   1 -12  13  255.33   28.80
   1 -12 -13  279.30   30.81
   1 -12 -13  218.36   27.76
  -1 -12  14   -1.65    2.99
   1 -12  14    0.73    2.44
  -1 -12 -14    4.99    3.30
   1 -12  14   -2.07    3.53
   1 -12 -14   -4.76    6.52
  -1 -12  15    1.69    7.58
   1 -12  15   -6.39    5.93
  -1 -12 -15    9.71    6.73
   1 -12  15   -9.76    9.24
  -1 -12  15   -5.13    3.76
   1 -12 -15   -1.82    5.24
  -1 -12  16  132.87   22.33
   1 -12  16  130.55   21.11
   1 -12 -16   97.82   19.60
  -1 -12  16  134.53   21.44
  -1 -12 -16  105.35   19.74
   1 -12  16  147.98   23.00
  -1 -12  17   27.12    9.02
   1  12  17   51.81   14.55
   1 -12  17   39.95   11.07
  -1 -12  17   30.65   10.54
   1 -12  17   23.44    8.50
  -1 -12 -17   47.17   12.86
   1 -12 -17   58.73   17.77
  -1 -12  18   18.33    8.75
   1  12  18    3.09    4.26
  -1 -12  18   33.13   10.06
   1 -12  18    2.80    5.63
   1 -12  18   10.17    4.86
   1 -12 -18   12.92    7.10
  -1 -12 -18   38.44   11.69
  -1 -12  19   66.46   15.55
   1 -12  19   87.30   17.62
   1 -12  19   95.06   18.78
   1  12  19   72.48   15.81
  -1 -12 -19   86.63   19.69
   1 -12 -19  101.11   18.75
  -1 -12  19  107.53   19.51
  -1 -12  20   11.95    6.10
   1 -12  20   10.81    7.86
  -1 -12  20    0.37    5.67
  -1 -12 -20   -2.54    6.13
   1 -12  20    0.45    3.04
  -1  12  20    7.94    8.66
   1 -12 -20  -12.15    9.70
   1  12  20    3.19    7.59
   1 -12  21   10.85    7.62
  -1 -12 -21   -1.14    5.87
   1 -12 -21    6.71   10.35
  -1 -12  21   -9.02    5.45
  -1 -12  21    0.21    3.30
   1  12  21   -2.41    9.76
  -1  12  21    0.28    5.27
   1 -12  21   15.78    9.58
   1  12  22   18.49   10.25
   1 -12  22   35.84   13.15
  -1  12  22    0.93    6.95
  -1 -12  22   -2.57    8.99
   1 -12 -22   27.39   12.89
  -1 -12  22  -10.01    6.37
  -1 -12 -22   21.84   11.23
   1 -12  22   60.56   14.69
   1 -13   0    5.25    5.12
  -1 -13   0   -0.80    4.84
   1 -13   0    1.85    8.29
  -1 -13   0    3.22    6.44
  -1 -13   1  108.92   20.65
   1 -13   1   71.49   16.11
  -1 -13  -1  102.90   19.84
  -1 -13   1   88.49   17.99
   1 -13   1   64.87   15.47
   1 -13  -1   71.71   16.97
  -1 -13  -1   57.66   13.95
   1 -13  -1   74.13   14.63
   1 -13  -2   15.74    7.21
   1 -13  -2   24.19   10.62
  -1 -13  -2   16.53   10.40
  -1 -13   2   25.78   11.17
  -1 -13   2   13.56    6.12
  -1 -13  -2   25.69    9.33
   1 -13   2   15.17    7.31
   1 -13   2   12.94    8.98
   1 -13  -3   51.43   12.94
  -1 -13   3    9.67    5.43
   1 -13   3   21.59   10.99
  -1 -13  -3   22.83    8.17
  -1 -13  -3   39.06   13.06
   1 -13  -3   22.57   10.61
   1 -13   3   37.83   11.54
  -1 -13   3   30.47   10.47
   1 -13   4   97.67   17.94
   1 -13  -4  101.67   18.92
   1 -13  -4   81.25   17.30
  -1 -13   4   60.86   14.41
  -1 -13   4   91.64   18.21
  -1 -13  -4   72.37   14.95
  -1 -13  -4   48.58   11.24
   1 -13   4   68.44   16.08
   1 -13   5   -2.85    5.56
  -1 -13  -5    4.80    5.35
   1 -13  -5    2.98    6.62
   1 -13  -5   -1.76    5.78
   1 -13   5    3.85    5.24
  -1 -13   5    0.89    6.42
  -1 -13   5    6.66    7.38
  -1 -13  -5    0.71    6.04
   1 -13   6    1.13    5.73
   1 -13  -6    4.33    4.94
   1 -13   6    3.44    6.21
  -1 -13  -6   20.68   10.86
  -1 -13   6    1.21    3.80
   1 -13  -6    8.39    5.47
  -1 -13   6   10.75   10.05
  -1 -13  -6   -4.61    3.83
  -1 -13  -7   17.38    7.85
   1 -13   7   19.05    7.63
   1 -13  -7    8.91    9.83
  -1 -13  -7   10.63    4.43
   1 -13  -7   32.19    9.84
   1 -13   7    4.83    4.52
  -1 -13   7    5.88    3.93
  -1 -13   7   23.81   10.12
   1 -13  -8    8.79    6.32
  -1 -13   8    8.71    6.02
  -1 -13  -8   -2.22    3.33
  -1 -13  -8    3.01    6.28
  -1 -13   8    2.41    4.85
   1 -13  -8    8.03    3.95
   1 -13   8    9.78    4.82
   1 -13   8   17.36   10.65
  -1 -13   9  122.03   19.01
  -1 -13  -9  122.48   20.16
   1 -13  -9  109.08   19.57
   1 -13   9  135.64   22.32
  -1 -13  -9  130.98   21.70
   1 -13   9   99.82   17.39
   1 -13  -9  149.68   22.77
  -1 -13   9  117.45   20.74
  -1 -13 -10    8.87    8.48
  -1 -13  10   11.48    5.21
   1 -13  10   15.18    9.68
  -1 -13  10    4.81    3.58
   1 -13 -10    9.36    3.76
  -1 -13 -10   -4.46    6.04
   1 -13 -10    1.07    3.83
   1 -13  10    3.17    5.01
  -1 -13  11   -1.49    7.30
   1 -13  11    9.53    8.70
  -1 -13  11   12.54    6.82
   1 -13  11    1.35    6.17
  -1 -13 -11    7.30    5.52
  -1 -13 -11    0.69    3.69
   1 -13 -11    4.66    2.99
   1 -13 -11    0.41    7.80
   1 -13  12   81.67   17.95
  -1 -13  12   64.05   15.73
   1 -13  12   93.05   17.83
  -1 -13  12   63.36   15.32
  -1 -13 -12   71.96   16.77
   1 -13 -12   47.51   12.16
   1 -13 -12   75.85   18.37
  -1 -13 -12   79.98   16.90
   1 -13  13    2.35    2.80
  -1 -13 -13   -2.25    5.32
  -1 -13  13   -2.49    4.62
  -1 -13 -13    6.90   12.08
   1 -13  13   -0.37    6.98
   1 -13 -13    1.21    5.55
   1 -13 -13    1.60    8.50
  -1 -13  13   -2.36    4.96
  -1 -13 -14   35.77   12.57
  -1 -13  14   44.79   11.85
   1 -13 -14   30.31   12.43
   1 -13  14   37.85   12.23
  -1 -13 -14   36.47   10.95
   1 -13 -14   14.76    7.17
   1 -13  14   40.39   12.77
  -1 -13  14   17.70    6.57
   1 -13 -15  115.16   22.17
  -1 -13  15  143.90   22.37
  -1 -13 -15  133.88   24.21
   1 -13  15  114.52   19.97
  -1 -13  15   83.31   17.55
   1 -13 -15  131.63   21.17
   1 -13  15  126.71   19.80
   1 -13  16    1.46    4.35
   1 -13 -16    5.28    7.66
   1 -13  16   10.33    8.95
  -1 -13  16    5.27    9.01
  -1 -13 -16    2.22    8.08
   1 -13 -16   -0.12    8.11
  -1 -13  16   14.36    9.70
  -1 -13 -17    6.50    6.18
  -1 -13  17    8.13    8.21
   1 -13  17    7.38    7.53
   1 -13  17    0.22    7.25
  -1 -13  17    2.03    5.56
   1 -13 -17    7.72    7.27
  -1 -13  18    3.66    8.12
   1 -13  18   11.13    6.00
   1 -13  18   26.66   11.31
  -1 -13 -18   32.36   12.82
   1 -13 -18    1.84    4.85
   1 -13 -19   32.83   13.21
  -1 -13  19   14.91    7.21
  -1 -13 -19    7.72    6.55
   1 -13  19   11.24    6.34
   1 -13  19    8.34    8.62
  -1 -14   0   -9.65   10.34
   1 -14   0   -7.11    4.82
   1 -14   0    6.94    8.58
   1 -14  -1   42.23   14.43
  -1 -14   1   21.28    9.14
   1 -14   1   45.71   13.22
  -1 -14  -1   36.35   12.68
  -1 -14  -1   40.41   14.13
   1 -14   1   34.90   12.50
   1 -14  -1   28.79   11.19
  -1 -14   1   37.17   11.53
  -1 -14  -2   29.85   11.09
   1 -14   2   17.09    7.48
   1 -14  -2   37.08   12.10
  -1 -14   2   25.26   11.44
  -1 -14   2   24.58    9.35
  -1 -14  -2   31.30   13.18
   1 -14   2   18.44    7.64
   1 -14  -2   31.29   11.39
  -1 -14  -3   27.81   12.07
  -1 -14   3   28.22    8.69
  -1 -14  -3   28.36    8.02
   1 -14   3   12.36    7.87
   1 -14  -3   31.87   10.84
   1 -14  -3   34.75   10.07
   1 -14   3   31.83    9.71
  -1 -14   3   20.62   12.26
  -1 -14   4   -1.21    4.07
  -1 -14  -4   -0.81    4.44
   1 -14  -4   -0.53    3.23
   1 -14   4   -3.35    5.75
  -1 -14   4   -6.78    8.14
   1 -14  -4    2.23    9.08
   1 -14   4    0.83    6.69
  -1 -14  -4    3.19    4.25
  -1 -14   5  129.87   22.30
   1 -14  -5  138.09   22.30
   1 -14   5  108.91   19.60
  -1 -14   5  168.74   24.10
   1 -14   5  109.24   19.07
   1 -14  -5  109.08   19.53
  -1 -14  -5  156.68   23.79
  -1 -14  -5  129.97   20.85
  -1 -14   6  164.24   23.26
   1 -14  -6  138.47   22.92
   1 -14   6  160.87   25.15
   1 -14   6  122.61   21.54
  -1 -14  -6  119.95   20.49
  -1 -14   6  128.34   21.03
   1 -14  -6  132.80   22.78
  -1 -14  -6  133.02   21.20
  -1 -14   7   -6.16    9.67
  -1 -14  -7   -8.37    6.56
  -1 -14  -7  -10.84   10.37
   1 -14   7    7.75    9.29
   1 -14  -7    0.09    8.61
   1 -14   7  -11.78    9.46
  -1 -14   7    1.60    4.71
   1 -14  -7    9.06    8.76
  -1 -14   8    9.36    9.24
  -1 -14  -8   -5.56    6.48
  -1 -14   8   -3.28    7.50
  -1 -14  -8    7.98    8.85
   1 -14  -8    1.47    6.85
   1 -14   8    4.64    6.23
   1 -14  -8   -1.36    4.99
   1 -14   8   -1.96    5.44
  -1 -14  -9   41.03   14.00
  -1 -14  -9   14.75    5.68
   1 -14   9   29.92   11.17
  -1 -14   9   37.01   12.36
   1 -14  -9   28.43    7.19
  -1 -14   9   55.85   15.62
   1 -14   9   12.43    5.95
   1 -14  -9   17.95   10.42
  -1 -14 -10   87.03   19.81
   1 -14 -10   80.60   18.71
  -1 -14  10   81.53   16.67
   1 -14  10   80.83   17.46
   1 -14 -10   77.99   16.57
  -1 -14 -10   90.21   18.53
  -1 -14  10  102.38   18.96
   1 -14  10   59.92   14.55
   1 -14  11   23.36    8.68
  -1 -14 -11   24.25   10.72
  -1 -14  11    8.69    6.38
  -1 -14 -11    6.63    4.49
   1 -14 -11    3.06    7.00
   1 -14  11   16.54    7.01
  -1 -14  11    0.39    4.06
   1 -14 -11   20.44    8.84
  -1 -14 -12   12.05   10.73
  -1 -14  12   15.17   11.29
  -1 -14  12   20.34    8.30
   1 -14  12   26.45   10.06
   1 -14 -12   18.06    8.23
   1 -14  12   40.89   14.26
  -1 -14 -12   25.80    8.08
   1 -14 -12   35.05   12.05
   1 -14  13   68.78   15.36
  -1 -14 -13   76.25   17.84
  -1 -14  13   58.49   13.59
   1 -14  13   40.01   12.89
  -1 -14 -13   38.38    9.92
  -1 -14  13   39.80   13.52
   1 -14 -13   58.95   15.72
   1 -14 -13   44.36   13.67
   1 -14 -14   29.08   11.74
   1 -14  14   53.73   14.50
  -1 -14  14   57.44   16.91
   1 -14  14   25.72    8.91
  -1 -14 -14   35.48   13.79
   1 -14 -14   63.31   17.04
  -1 -14 -14   28.12    9.42
  -1 -14  14   53.21   13.38
   1 -14  15  125.84   22.46
  -1 -14 -15  140.06   23.54
  -1 -14  15   76.79   18.58
   1 -14 -15   84.21   18.48
   1 -14  15   84.01   16.55
   1 -14 -15  104.99   20.85
  -1 -14 -15   67.36   17.75
  -1 -14  16   80.17   17.92
   1 -14  16   79.73   16.52
   1 -14  16   82.36   18.57
  -1 -14 -16   73.90   18.60
   1 -14 -16  108.81   21.59
  -1 -14 -16   61.33   15.30
   1 -14 -16   60.30   15.37
   1 -14  17   72.05   16.62
   1 -14 -17   60.90   14.84
   1 -14  17   47.09   15.45
  -1 -14  17   50.14   14.02
  -1 -14 -17   93.73   19.20
   1 -14 -17   76.07   18.16
  -1 -14 -17   51.68   17.14
   1 -15   0    0.39    3.79
  -1 -15   0    4.69    6.71
   1 -15   0    1.65    3.92
  -1 -15   0   -9.50    7.23
  -1 -15  -1   -5.68    5.89
   1 -15   1   -0.81    6.18
  -1 -15  -1    3.12    8.70
   1 -15  -1   -5.53    6.29
  -1 -15   1   -2.42    4.13
   1 -15   1   -1.80    3.07
  -1 -15   1    7.70    9.64
   1 -15  -1   -2.25    4.49
  -1 -15   2  114.95   22.42
   1 -15  -2   96.68   18.24
   1 -15   2   67.05   16.16
  -1 -15  -2  127.83   20.82
  -1 -15   2   95.29   20.67
   1 -15   2  108.83   21.08
  -1 -15  -2   62.32   15.65
   1 -15  -2  105.37   20.36
  -1 -15   3   35.33   10.66
   1 -15   3   55.65   14.61
  -1 -15  -3   26.51   12.21
   1 -15  -3   50.16   12.12
  -1 -15  -3   26.00   11.91
   1 -15  -3   22.91   11.27
  -1 -15   3   55.67   14.86
   1 -15   3   50.20   13.51
  -1 -15   4   30.24   10.31
   1 -15   4   34.63   12.71
   1 -15  -4   39.23   11.88
   1 -15   4   44.27   13.50
  -1 -15   4   19.35    7.61
  -1 -15  -4   31.18   10.34
  -1 -15  -4   28.15   13.14
   1 -15  -4   18.14    9.41
  -1 -15   5   -5.37    8.21
   1 -15  -5    6.10    5.44
  -1 -15   5    5.24    7.87
  -1 -15  -5   15.80    9.17
   1 -15   5   20.80   10.79
  -1 -15  -5   -6.10    6.59
   1 -15  -5    0.26    4.44
   1 -15   5   -4.81    4.73
  -1 -15   6   27.25   10.53
   1 -15  -6   25.08    8.95
  -1 -15  -6   51.60   14.09
  -1 -15  -6   40.22   11.78
   1 -15   6   23.96    6.58
   1 -15   6   26.12   13.51
   1 -15  -6   50.40   11.72
  -1 -15   6   40.48   13.07
   1 -15   7   33.48   10.94
  -1 -15   7   76.01   17.25
   1 -15   7   83.02   17.34
  -1 -15  -7   72.71   18.08
  -1 -15  -7   62.00   15.28
   1 -15  -7   36.89   11.32
  -1 -15   7   34.22   13.04
   1 -15  -7   27.26   10.54
   1 -15  -8    9.72    7.42
  -1 -15   8   38.19   11.36
   1 -15   8    8.79    5.72
  -1 -15  -8    8.48    7.09
   1 -15  -8   44.93   12.16
  -1 -15   8   19.81   10.28
   1 -15   8   34.81   11.32
  -1 -15  -8   40.94   13.54
   1 -15  -9   58.03   15.69
  -1 -15  -9   47.19   11.51
  -1 -15   9   40.74   13.51
   1 -15   9   31.59   12.04
   1 -15  -9   22.82   12.13
  -1 -15   9   30.65   11.80
   1 -15   9   38.73   11.87
  -1 -15  -9   35.65   11.64
  -1 -15  10   44.98   13.22
   1 -15 -10   44.29   11.78
   1 -15  10   51.21   13.66
  -1 -15 -10   52.65   16.44
   1 -15 -10   41.72   13.17
   1 -15  10   84.29   18.83
  -1 -15 -10   50.65   13.66
   1 -15 -11    6.85    4.55
  -1 -15 -11    5.63    7.29
  -1 -15  11   -2.62    6.85
   1 -15  11   -2.89    6.27
  -1 -15 -11   12.64    8.45
   1 -15  11   -1.45    6.74
   1 -15 -11    0.52    5.58
  -1 -15 -12   21.14   12.67
   1 -15  12   39.17   13.59
  -1 -15  12   24.49   10.54
  -1 -15 -12   25.10    9.13
   1 -15 -12   12.53    9.12
   1 -15 -12   -2.18    3.82
   1 -15  12   31.15   11.60
   1 -15  13   15.82    9.89
   1 -15  13   -1.06    6.51
   1 -15 -13    7.53    4.91
  -1 -15 -13    6.56    4.73
   1 -15 -13   10.22    8.97
  -1 -15  13   28.79   10.21
  -1 -15 -13   30.07   11.82
  -1 -16   0    7.40    8.83
   1 -16   0   -5.42    5.69
  -1 -16   0   -2.42    4.68
   1 -16   0   11.81    8.96
   1 -16  -1   14.20    8.79
  -1 -16   1    7.02    7.22
   1 -16  -1    5.04    5.62
   1 -16   1   12.85   10.65
   1 -16   1   16.14    6.04
  -1 -16  -1   21.34   12.15
  -1 -16  -1   13.36   10.74
  -1 -16   1    5.20    9.08
  -1 -16   2  181.49   29.30
   1 -16   2  214.78   29.55
  -1 -16   2  259.39   31.85
   1 -16   2  230.68   31.21
  -1 -16  -2  209.11   28.46
   1 -16  -2  233.47   30.42
   1 -16  -2  158.12   26.37
  -1 -16  -2  201.81   28.37
   1 -16   3    2.64    5.23
  -1 -16   3   -0.30    6.27
  -1 -16  -3    3.70    4.63
   1 -16  -3   17.00    9.80
   1 -16  -3   20.01   12.27
  -1 -16  -3   -3.78    7.57
  -1 -16   3    1.02    3.53
   1 -16   3   -0.45    5.19
   1 -16   4   32.06   11.11
  -1 -16   4   15.00   12.83
   1 -16  -4   24.66   12.58
   1 -16   4   28.66   12.63
  -1 -16   4   20.82    8.41
   1 -16  -4   20.84   10.09
  -1 -16  -4   26.08   12.68
  -1 -16  -4   22.26   13.17
  -1 -16  -5   19.72    8.33
  -1 -16  -5   26.03   10.62
   1 -16  -5   40.43   12.36
   1 -16   5   16.39    8.17
   1 -16   5   24.65    9.10
  -1 -16   5   33.47   11.54
   1 -16  -5    7.91    7.68
  -1 -16  -6   12.18   10.05
   1 -16   6   19.80    6.64
  -1 -16  -6   17.60    7.91
   1 -16  -6   35.53   14.13
   1 -16  -6   12.37    7.15
   1 -16   6   19.42   10.53
  -1 -16   6   19.15   11.20
   1 -16  -7   24.16   11.82
  -1 -16  -7    7.72    7.53
   1 -16  -7   19.60   11.55
  -1 -16   7   27.77   14.90
   1 -16   7    5.58    5.74
   1 -16   7    8.79    6.83
  -1 -16  -7   25.13    9.70
  -2   0   0  857.34   22.37
   2   0   0  784.47   15.25
   2   0  -1    0.68    0.66
  -2   0  -1    0.57    1.18
   2   0   1    0.87    1.23
  -2   0   1   -0.11    1.34
  -2   0   2 6241.56   42.12
   2   0   2 6383.07   52.47
  -2   0   3   -0.21    1.67
   2   0   3    0.35    1.03
  -2   0   3   -0.39    1.19
  -2   0   4 3186.24   38.63
   2   0   4 3163.20   45.69
  -2   0   4 3081.66   50.84
   2   0   5    3.39    1.87
  -2   0   5    2.09    1.52
  -2   0   5    2.05    1.54
   2   0   6  516.20   21.55
  -2   0   6  552.67   24.54
  -2   0   6  499.69   18.91
  -2   0   7    0.15    1.35
   2   0   7    0.47    1.60
  -2   0   7   -0.51    3.24
  -2   0   8 2149.24   45.29
  -2   0   8 2290.93   52.93
   2   0   8 2165.93   49.03
  -2   0   9    0.56    2.69
   2   0   9    3.45    4.61
  -2   0   9   -3.01    5.39
  -2   0  10 5403.58   89.27
   2   0  10 5560.04   88.76
  -2   0  11   -1.74    2.36
   2   0  11   -2.57    3.78
  -2   0  11   -0.86    3.76
   2   0  11    0.05    3.28
  -2   0  12 1333.83   44.57
   2   0  12 1291.38   45.72
  -2   0  12 1272.87   46.13
   2   0  12 1274.16   45.91
  -2   0  13    3.53    4.33
  -2   0  13   -0.36    4.27
   2   0  13   -0.14    2.25
   2   0  13   -0.85    2.67
  -2   0  14 1894.84   57.76
  -2   0  14 1892.61   60.48
   2   0  14 1936.17   60.33
   2   0  15    2.08    3.86
   2   0  15    1.41    2.23
  -2   0  15    2.40    3.65
  -2   0  15   -0.53    3.62
  -2   0  16   81.30   13.31
   2   0  16  117.69   16.39
  -2   0  16  115.43   15.61
   2   0  16   89.85   14.20
  -2   0  17   -2.27    3.14
   2   0  17   -5.02    3.44
   2   0  17    5.20    7.05
  -2   0  17    2.87    6.27
  -2   0  18  174.23   19.97
   2   0  18  104.09   15.18
   2   0  18  160.50   20.16
  -2   0  18  168.56   20.39
  -2   0  19   -0.05    4.54
   2   0  19   -1.04    5.65
  -2   0  19   -1.09    3.14
   2   0  19    0.73    2.80
  -2   0  20   99.26   16.24
   2   0  20   81.10   14.05
  -2   0  20   89.27   15.87
   2   0  20   43.52   11.23
  -2   0  21    2.47    2.33
   2   0  21   -0.62    5.50
  -2   0  21   -0.13    3.01
   2   0  21    3.50    5.18
   2   0  22   -0.11    8.21
  -2   0  22    2.95    5.02
   2   0  22    6.01    6.01
  -2   0  22    2.41    8.09
  -2   0  23   -3.33    3.57
  -2   0  23    2.42    7.67
   2   0  23   -1.04    4.18
   2   0  23    3.97    3.69
   2   0  24   39.93   11.39
  -2   0  24   52.86   11.89
  -2   0  24   18.91    6.42
   2   0  24   30.77    9.22
   2   0  25   -2.15    5.58
  -2   0  25    1.31    4.42
   2   0  25   -8.92    7.61
  -2   0  25    1.23    3.58
  -2   0  26   91.37   15.95
   2   0  26   78.98   17.37
  -2   0  26   69.62   15.36
   2   0  26   74.99   16.86
  -2   0  27   -2.64    5.15
   2   0  27    4.37    7.52
  -2   0  27   -0.05    3.82
   2   0  27    4.51    7.19
  -2   0  28    6.16    9.78
   2   0  28    8.13    8.82
  -2   0  28   -0.03    3.55
   2   0  28    2.73    9.94
  -2   0  29   -4.78    4.79
   2   0  29   -1.18    4.94
  -2   0  29   -3.22    5.67
   2   0  29   -3.79    4.42
   2   0  30   23.02    8.73
   2   0  30   19.93    9.48
  -2   0  30   23.04    5.13
  -2   0  30   18.53   10.27
  -2   0  31    3.06    6.55
   2   0  31   -0.86    3.86
  -2   0  31  -13.58    9.54
   2   0  31    2.94   10.57
   2   0  32  116.38   20.77
  -2   0  32  153.63   24.22
  -2   0  32  111.02   21.44
   2   0  32  129.33   23.01
  -2  -1   0 8812.77   59.88
   2  -1   0 9064.94   69.06
  -2   1   0 8931.76   79.88
  -2  -1  -1 7898.26   54.77
   2  -1   1 7185.93   65.89
  -2   1   1 7055.71   71.84
  -2   1  -1 7494.33   74.20
   2  -1  -1 7319.89   63.02
  -2  -1   1 7427.08   58.14
  -2  -1   1 7866.26   58.44
   2  -1   2   42.34    5.52
   2   1   2   40.54    3.87
  -2  -1  -2   37.12    4.07
  -2  -1   2   36.76    4.42
  -2   1   2   40.60    5.91
  -2  -1   3 2920.68   27.08
  -2  -1   3 2954.33   43.49
   2  -1   3 2835.34   44.82
  -2   1   3 2848.77   48.54
  -2  -1  -3 2891.31   36.47
  -2  -1   3 2950.03   42.11
  -2   1   3 2994.04   40.88
   2   1   3 2927.73   38.85
   2  -1   3 2981.03   29.50
  -2  -1   4 2837.76   33.84
  -2  -1  -4 2788.79   38.60
  -2   1   4 2564.54   48.75
  -2   1   4 2678.12   41.95
  -2  -1   4 2470.23   44.60
   2   1   4 2674.95   41.70
  -2  -1   4 2683.03   43.96
   2  -1   4 2740.77   46.09
   2  -1   5   10.11    2.89
  -2  -1   5   16.34    3.77
  -2  -1   5    7.04    2.79
   2   1   5    9.13    3.06
  -2   1   5   11.47    4.00
  -2  -1   5    9.84    2.45
  -2   1   5    7.55    2.27
   2  -1   6   11.50    3.41
   2   1   6   10.29    2.61
  -2   1   6   14.48    3.80
  -2  -1   6    4.48    1.81
  -2   1   6   13.53    3.29
  -2  -1   6    5.41    3.43
  -2   1   7  146.02   11.59
  -2  -1   7  141.05   10.81
   2  -1   7  151.20   12.64
  -2  -1   7  146.17   12.62
  -2   1   7  163.50   14.07
   2   1   7  129.57   11.53
  -2  -1   8 1211.05   33.80
   2   1   8 1319.15   38.75
   2  -1   8 1250.27   38.26
  -2  -1   8 1226.66   38.75
  -2   1   8 1265.47   41.36
  -2   1   8 1257.45   36.73
   2   1   9   11.15    4.48
   2   1   9   10.67    3.93
  -2  -1   9    2.89    3.62
  -2   1   9    5.15    1.84
  -2  -1   9    0.72    2.29
  -2   1   9    1.22    4.75
   2  -1   9    1.01    3.05
   2   1  10  745.22   32.26
  -2  -1  10  742.02   33.24
  -2  -1  10  763.32   30.56
   2   1  10  711.69   31.11
  -2   1  10  728.96   33.67
   2  -1  10  740.65   32.18
  -2   1  10  760.90   31.41
   2   1  11   10.51    4.85
   2   1  11    0.62    3.08
  -2   1  11   -0.03    2.16
  -2  -1  11   -0.06    3.21
   2  -1  11    6.30    4.41
  -2  -1  11    0.60    4.01
  -2   1  11   -0.60    2.45
  -2  -1  12 2078.47   59.69
   2   1  12 2298.55   60.66
   2  -1  12 2298.98   61.40
  -2   1  12 2119.98   57.00
  -2  -1  12 2174.84   57.20
  -2   1  12 2294.62   62.74
   2   1  12 2301.27   60.38
   2  -1  13   16.46    5.29
  -2   1  13    6.90    3.94
   2   1  13   10.93    4.68
  -2  -1  13    5.72    2.34
  -2   1  13    4.23    5.80
  -2  -1  13    8.65    4.02
   2   1  13    5.55    5.25
   2  -1  13    7.62    4.92
   2   1  14 1104.13   45.65
   2  -1  14 1149.66   47.38
  -2   1  14 1187.26   48.57
  -2  -1  14 1073.40   46.50
  -2   1  14 1156.11   45.12
  -2  -1  14 1103.82   43.88
   2   1  14 1100.07   45.29
  -2   1  15  468.06   29.71
  -2  -1  15  456.11   28.95
   2   1  15  464.58   30.78
   2  -1  15  491.07   31.74
  -2   1  15  459.11   31.18
  -2  -1  15  473.01   31.02
   2   1  15  447.01   30.16
   2  -1  15  448.85   30.62
  -2  -1  16  115.82   16.42
  -2   1  16  129.52   15.56
   2   1  16  129.74   17.07
   2  -1  16  120.02   15.69
  -2  -1  16  104.16   14.32
   2   1  16  111.17   16.20
  -2   1  16  108.95   16.02
   2  -1  16  104.80   15.31
   2  -1  17   35.59    9.63
  -2   1  17   58.17   11.58
  -2  -1  17   48.31   10.53
   2   1  17   24.70    9.11
  -2  -1  17   31.62   10.84
  -2   1  17   51.38   11.96
   2   1  17   47.57   10.53
   2  -1  17   61.47   12.78
  -2   1  18 1515.65   58.58
  -2  -1  18 1608.85   59.43
   2  -1  18 1509.99   59.15
   2   1  18 1426.29   57.97
  -2   1  18 1454.80   60.30
   2   1  18 1445.24   58.55
  -2  -1  18 1530.92   61.71
   2   1  19    6.63    4.79
  -2  -1  19    2.83    4.98
  -2  -1  19    2.79    6.85
   2  -1  19    0.97    5.09
   2   1  19    4.55    4.10
   2  -1  19   -1.68    5.57
  -2   1  19   -6.50    5.61
  -2   1  19   10.35    6.41
  -2  -1  20  163.33   20.08
   2   1  20  165.22   20.56
  -2  -1  20  126.77   18.53
   2  -1  20  171.93   20.90
   2  -1  20  146.79   20.12
   2   1  20  143.09   20.01
  -2   1  20   94.71   16.78
  -2   1  20  128.13   17.56
  -2   1  21  110.68   17.42
   2  -1  21   92.58   15.39
  -2  -1  21  100.90   15.62
  -2  -1  21  106.44   19.60
  -2   1  21   81.33   16.66
   2   1  21  123.77   19.11
   2   1  21  126.68   19.10
   2   1  22  310.18   29.09
   2  -1  22  335.41   30.40
  -2  -1  22  362.87   30.98
  -2   1  22  325.63   31.50
   2   1  22  309.69   30.23
  -2  -1  22  342.24   32.32
  -2   1  22  320.30   29.62
   2  -1  22  325.88   30.60
  -2   1  23   80.46   15.09
  -2   1  23   62.19   13.51
   2  -1  23   98.27   16.99
   2   1  23   57.93   15.90
  -2  -1  23   72.74   15.27
   2   1  23   74.64   13.37
  -2  -1  23   82.63   16.30
   2  -1  23   74.20   14.52
   2   1  24   42.17   13.20
   2  -1  24   28.33   12.44
  -2  -1  24   20.55   10.03
   2   1  24   18.90    6.56
  -2   1  24   13.44    7.26
  -2   1  24   42.66   13.11
   2  -1  24   29.68   10.68
  -2  -1  24    9.00    7.60
   2   1  25  153.57   22.87
   2   1  25  177.75   23.44
   2  -1  25  168.47   24.16
   2  -1  25  201.74   24.26
  -2   1  25  160.93   22.27
  -2   1  25  175.07   24.59
  -2  -1  25  194.07   25.06
  -2  -1  25  166.65   24.44
   2  -1  26  687.26   49.04
   2   1  26  615.29   43.68
  -2  -1  26  560.82   42.60
   2   1  26  594.87   45.40
   2  -1  26  648.00   45.21
  -2   1  26  614.01   45.65
  -2  -1  26  625.18   47.07
  -2   1  26  554.01   41.96
   2  -1  27   57.41   16.57
  -2  -1  27   58.59   13.17
  -2   1  27   67.96   15.71
   2  -1  27   84.01   15.93
  -2  -1  27   68.99   14.38
   2   1  27   70.39   15.26
  -2   1  27   72.57   17.25
   2   1  27   44.27   13.63
  -2  -1  28  451.04   38.68
  -2  -1  28  552.12   44.98
   2  -1  28  497.85   40.26
  -2   1  28  480.61   42.20
   2   1  28  477.18   40.05
   2   1  28  431.65   40.30
  -2   1  28  512.96   40.56
  -2  -1  29  257.23   29.77
   2  -1  29  272.79   30.67
  -2   1  29  244.03   29.55
   2  -1  29  256.48   30.49
  -2  -1  29  220.19   27.57
   2   1  29  222.69   29.67
   2   1  29  285.91   29.70
  -2   1  29  225.38   28.18
  -2  -1  30   22.03   10.50
  -2  -1  30   43.54   12.40
  -2   1  30   31.61   11.65
   2  -1  30   20.97    9.62
   2   1  30   19.09    9.81
   2  -1  30   40.28   13.58
  -2   1  30   14.45   10.19
   2   1  30   31.73   11.55
  -2   1  31   14.33    6.41
  -2   1  31    7.32    6.08
  -2  -1  31   16.90    7.32
   2   1  31   13.20    9.32
   2   1  31    8.73    9.00
   2  -1  31   16.29    7.79
   2  -1  31    7.11    6.71
  -2  -1  31   29.20   10.41
  -2   1  32  150.65   23.24
   2  -1  32  174.50   25.73
  -2  -1  32  131.00   23.01
   2  -1  32  115.96   23.28
   2   1  32  139.11   24.12
  -2   1  32  169.68   26.21
  -2  -1  32  132.22   22.12
   2   1  32  152.30   23.57
   2   2   0 1220.16   17.44
   2  -2   0 1301.99   32.32
  -2   2   0 1260.07   33.02
  -2  -2   0 1345.27   19.20
  -2  -2   0 1243.87   30.12
   2  -2   0 1302.55   24.85
  -2  -2   1  240.41   13.66
   2   2   1  260.59    9.38
   2  -2  -1  257.87   14.46
   2  -2  -1  271.55   12.16
  -2   2  -1  270.69   15.18
   2  -2   1  261.49   15.00
   2  -2   1  290.28   11.72
  -2  -2  -1  260.39   13.12
  -2   2   1  269.71   15.02
  -2  -2  -2   18.36    4.01
   2   2   2    9.66    2.11
  -2  -2   2   11.30    3.17
   2  -2   2   11.04    2.91
  -2  -2   2    9.43    1.85
  -2   2   2   13.76    3.27
   2  -2   2    4.96    2.60
   2  -2  -2   17.17    3.87
   2  -2  -2   13.94    3.29
  -2  -2   2   11.04    1.68
  -2  -2   3 3603.20   53.25
   2  -2   3 3593.01   58.25
  -2  -2  -3 3630.98   51.39
  -2   2   3 3590.54   57.52
  -2  -2   3 3732.12   34.14
   2   2   3 3583.62   45.25
   2  -2   3 3631.66   43.14
   2  -2   4 2992.82   41.29
   2  -2   4 2882.47   53.36
  -2  -2   4 2827.51   44.44
  -2  -2   4 2940.02   35.43
  -2  -2  -4 3130.28   49.64
   2   2   4 3119.75   45.22
  -2   2   4 2911.88   49.47
  -2  -2   4 2968.62   50.87
  -2   2   4 3032.78   55.39
  -2   2   5 1960.57   46.51
  -2  -2   5 1813.41   31.58
  -2  -2  -5 1858.72   39.67
   2   2   5 1756.14   37.05
  -2  -2   5 1803.89   38.70
  -2  -2   5 1718.84   40.86
  -2   2   5 1886.54   41.50
   2  -2   5 1958.35   35.84
   2  -2   5 1846.23   43.88
   2  -2   6  449.35   18.75
  -2  -2   6  451.16   22.01
  -2  -2   6  469.05   20.98
  -2  -2   6  499.81   18.57
   2   2   6  537.51   22.15
  -2  -2  -6  492.67   21.41
   2  -2   6  532.24   23.86
  -2   2   6  507.02   22.47
  -2   2   6  476.30   23.85
   2   2   6  468.26   18.91
   2  -2   7  644.22   23.28
  -2  -2   7  602.64   22.35
  -2   2   7  515.17   25.21
  -2   2   7  659.68   27.10
   2   2   7  665.39   26.19
   2  -2   7  624.46   27.07
   2   2   7  670.05   25.17
  -2  -2   7  675.57   28.21
  -2  -2   7  500.31   24.49
  -2  -2   8    1.09    1.71
  -2   2   8    5.56    2.77
   2  -2   8    4.02    2.80
   2   2   8    2.03    2.15
  -2  -2   8    1.52    1.58
  -2  -2   8    3.88    2.88
  -2   2   8    5.69    1.63
   2  -2   8    3.71    2.51
   2   2   8    6.68    3.42
  -2  -2   9   13.18    4.60
   2   2   9   26.65    6.29
  -2   2   9   24.86    6.36
  -2  -2   9   34.74    7.70
   2   2   9   21.84    5.12
  -2  -2   9   22.19    4.84
  -2   2   9   18.04    5.66
   2  -2   9   17.26    4.81
  -2   2  10    3.01    2.77
   2   2  10    7.20    2.01
   2  -2  10   13.57    5.46
   2   2  10    6.15    2.80
  -2   2  10    7.63    4.46
  -2  -2  10    9.67    3.40
  -2  -2  10    5.93    2.24
  -2   2  11  595.93   30.19
  -2  -2  11  606.05   28.49
   2  -2  11  624.40   31.66
  -2   2  11  591.54   32.40
   2   2  11  657.67   31.73
   2   2  11  637.41   29.55
  -2  -2  11  686.17   33.32
  -2   2  12    3.90    2.91
  -2   2  12    7.43    3.11
   2   2  12    3.36    1.75
  -2  -2  12   11.14    5.17
  -2  -2  12    2.57    1.30
   2  -2  12    8.50    4.99
   2   2  12    6.23    5.63
  -2  -2  13 2255.98   64.57
  -2  -2  13 2087.15   57.71
   2  -2  13 2013.86   60.12
   2   2  13 2108.13   60.63
  -2   2  13 2049.67   62.89
  -2   2  13 2043.53   59.34
   2   2  13 2070.06   58.58
  -2   2  14    5.87    4.30
   2   2  14    5.19    3.40
  -2   2  14    2.65    3.22
   2  -2  14   15.02    7.05
  -2  -2  14    9.57    3.85
  -2  -2  14   14.91    3.71
   2  -2  14   12.75    5.91
   2   2  14    9.87    3.99
   2  -2  15   23.31    5.35
  -2   2  15   35.44    9.15
  -2  -2  15   24.92    7.49
   2   2  15   24.69    6.57
  -2  -2  15   26.58    7.67
   2  -2  15   34.57    8.50
  -2   2  15   22.43    4.25
   2   2  15   28.32    7.15
   2   2  16  115.47   16.04
   2   2  16  124.84   16.29
  -2  -2  16  137.65   16.80
   2  -2  16  120.37   17.13
  -2  -2  16  115.15   17.32
  -2   2  16   96.25   15.73
  -2   2  16  102.16   14.44
   2  -2  16  119.83   15.83
   2  -2  17    6.35    8.22
  -2   2  17    3.66    4.87
   2   2  17   -1.37    5.69
   2   2  17    4.18    8.48
  -2  -2  17   -0.13    2.59
  -2  -2  17   -2.42    3.74
   2  -2  17    0.34    5.03
  -2   2  17    1.94    6.23
   2  -2  18   55.18   12.48
  -2   2  18   55.71   11.54
   2   2  18   46.50   10.40
  -2  -2  18   45.60    9.73
  -2  -2  18   44.55   12.83
  -2   2  18   82.55   14.52
   2   2  18   55.53   11.32
   2  -2  18   74.35   13.83
   2   2  19  102.76   16.67
   2  -2  19  104.79   17.18
  -2   2  19   87.09   15.61
   2   2  19   98.24   15.74
  -2  -2  19   62.12   12.82
  -2  -2  19  101.29   15.04
   2  -2  19   77.08   15.06
  -2   2  19   69.63   12.83
   2   2  20    5.34    6.22
  -2  -2  20    2.35    5.53
   2   2  20    4.33    3.85
   2  -2  20    1.49    3.65
   2  -2  20    7.18    4.00
  -2   2  20    3.20    4.49
  -2  -2  20    1.31    7.73
  -2   2  20    9.34    6.88
   2   2  21  116.20   17.88
  -2  -2  21  171.87   20.77
   2   2  21  183.06   22.28
  -2   2  21  166.02   20.89
   2  -2  21  167.93   21.03
   2  -2  21  154.31   21.08
  -2   2  21  166.06   21.32
   2   2  22  119.08   17.94
  -2   2  22   47.32   11.53
   2  -2  22   80.29   16.43
  -2   2  22   89.27   15.27
  -2  -2  22   93.26   15.68
   2  -2  22   70.15   14.96
  -2  -2  22   86.93   15.78
   2   2  22   78.76   16.21
  -2   2  23   14.96    9.53
  -2   2  23    1.33    4.73
   2  -2  23   -2.03    7.64
   2   2  23    2.48    5.96
  -2  -2  23    0.69    5.05
   2  -2  23   17.48   10.12
  -2  -2  23    2.55    5.63
   2   2  23   -1.81    3.90
  -2   2  24    4.29    7.09
   2   2  24    1.07    5.50
  -2  -2  24    5.02    5.98
   2  -2  24   10.15    5.91
  -2   2  24    7.17    5.52
  -2  -2  24    5.40    6.62
   2   2  24    2.59    5.60
   2  -2  24   18.76   10.48
  -2   2  25    8.26    6.27
   2   2  25   -1.13    4.47
  -2  -2  25   -4.45    5.27
  -2   2  25    5.56   10.14
   2  -2  25   -4.01    4.63
   2   2  25   -4.57    7.88
  -2  -2  25    4.96    5.78
   2  -2  25    2.67    5.95
   2   2  26   17.43   10.15
  -2   2  26   14.04    8.57
   2   2  26   28.65   11.35
  -2  -2  26   22.80    8.71
   2  -2  26   20.80    9.23
  -2  -2  26   11.54    4.19
  -2   2  26   44.12   12.41
   2  -2  26   13.48    7.65
  -2   2  27   42.72   10.52
  -2  -2  27   66.24   14.93
   2  -2  27   68.04   14.71
  -2   2  27   32.08   10.61
  -2  -2  27   49.77   16.67
   2   2  27   41.17   12.52
   2   2  27   45.29   13.22
   2  -2  27   74.24   14.92
  -2   2  28    9.28    4.63
   2   2  28   14.97    4.03
  -2  -2  28   20.87   13.30
   2  -2  28   11.41    8.56
   2   2  28    5.33    6.00
  -2  -2  28   11.30    8.08
  -2   2  28   13.38   10.83
   2  -2  28   18.69   11.05
  -2  -2  29   88.90   18.49
  -2   2  29   84.56   15.57
   2  -2  29   81.32   15.87
   2  -2  29   69.80   14.92
   2   2  29   62.42   17.04
  -2  -2  29   45.05   13.70
  -2   2  29   80.76   18.70
   2   2  29   56.31   14.37
  -2   2  30    0.28    4.57
   2   2  30   22.92    9.38
  -2  -2  30   10.83    6.94
   2  -2  30    8.00    6.71
  -2   2  30   19.26    7.17
   2   2  30   -0.39    7.58
  -2  -2  30   14.87    9.38
   2  -2  30    8.00    9.86
  -2   2  31   24.01   11.28
  -2   2  31   14.71    6.97
   2  -2  31   35.00   13.70
  -2  -2  31   17.42   10.84
   2  -2  31   35.61   12.10
  -2  -2  31   23.99   12.86
   2   2  31   32.27    9.25
   2   2  31   16.46    6.93
   2   2  32    2.28   10.05
   2   2  32    9.99    7.87
  -2  -2  32   17.58   12.61
   2  -2  32    8.20    9.10
   2  -2  32    6.73    6.59
  -2   2  32    4.72    5.20
  -2   2  32   24.26   14.12
  -2  -2  32   17.46   11.12
   2  -3   0 1069.83   33.29
  -2  -3   0 1039.51   31.49
  -2   3   0 1057.18   32.89
  -2  -3   0 1111.81   23.73
   2  -3   0 1048.36   28.21
   2  -3  -1  571.01   24.23
  -2  -3   1  613.15   24.49
   2  -3   1  580.09   21.15
  -2  -3  -1  596.15   23.93
  -2  -3   1  603.09   17.20
  -2   3   1  571.17   23.87
   2  -3  -1  598.99   21.80
   2  -3   1  606.94   25.41
   2   3   1  609.06   18.15
  -2  -3   2   27.45    5.87
  -2   3   2   38.18    6.11
   2  -3  -2   35.28    5.17
  -2  -3   2   33.90    4.24
   2  -3  -2   24.02    4.54
  -2  -3   2   18.20    2.96
   2  -3   2   35.58    5.52
   2  -3   2   33.08    6.65
   2   3   2   24.74    3.83
  -2  -3  -2   35.17    6.00
  -2  -3   3   73.20    8.58
   2  -3  -3   71.08    7.81
  -2  -3  -3   79.78    8.91
   2  -3   3   92.45   10.56
   2  -3   3   86.05    7.98
  -2   3   3   75.38    8.75
  -2  -3   3   64.49    6.26
   2   3   3   62.30    4.02
  -2  -3   3   77.30    6.63
   2   3   3   78.66    7.14
  -2   3   4   26.08    5.08
   2  -3   4   29.68    5.26
  -2  -3   4   28.37    4.92
   2  -3   4   19.14    5.08
  -2  -3   4   25.11    4.49
   2   3   4   33.09    5.34
  -2  -3   4   18.87    3.39
   2  -3  -4   28.14    6.21
   2   3   4   33.65    3.76
  -2  -3  -4   34.58    6.22
  -2   3   4   16.00    4.09
  -2  -3   5  210.38   15.74
   2  -3   5  161.75   13.73
  -2  -3  -5  219.35   15.21
   2   3   5  184.74   13.09
   2  -3  -5  203.17   14.92
  -2  -3   5  220.57   12.15
  -2   3   5  240.08   16.18
   2   3   5  172.77    9.81
  -2   3   5  199.87   15.45
   2  -3   5  234.83   13.92
  -2  -3   5  231.81   14.46
  -2   3   6  353.86   20.17
   2   3   6  348.63   18.79
   2   3   6  371.59   15.92
  -2   3   6  351.19   21.26
   2  -3   6  352.56   17.96
  -2  -3  -6  345.29   20.16
  -2  -3   6  315.91   20.17
  -2  -3   6  368.05   16.76
   2  -3   6  353.99   20.97
   2  -3   7   13.42    4.91
  -2  -3   7   21.10    5.39
   2   3   7   19.54    5.24
   2  -3   7   11.77    3.65
  -2   3   7   16.25    4.08
   2   3   7   16.58    4.09
  -2  -3   7    9.59    3.80
  -2   3   7   19.06    4.49
  -2  -3  -7   14.10    5.52
  -2  -3   7   19.59    4.11
  -2  -3   8  637.50   29.41
   2  -3   8  569.86   25.44
  -2   3   8  632.47   29.62
  -2  -3  -8  617.10   28.69
   2  -3   8  678.62   30.86
   2   3   8  578.50   23.78
  -2   3   8  657.25   30.96
  -2  -3   8  682.77   25.82
   2   3   8  723.53   30.10
  -2  -3   9  387.60   23.90
  -2  -3  -9  358.94   22.90
  -2  -3   9  356.03   22.54
   2  -3   9  345.12   23.06
  -2  -3   9  367.57   20.10
   2  -3   9  394.29   21.96
  -2   3   9  355.93   23.46
  -2   3   9  352.98   22.86
   2   3   9  409.49   23.47
   2   3   9  313.41   18.38
   2  -3  10  183.99   15.48
  -2  -3  10  175.84   16.47
  -2   3  10  146.32   16.23
  -2  -3  10  178.60   14.89
  -2   3  10  164.05   15.86
  -2  -3 -10  153.60   15.41
   2  -3  10  174.99   16.05
   2   3  10  152.34   14.93
   2   3  10  151.89   13.40
   2   3  11  375.98   24.52
  -2  -3  11  423.15   26.17
  -2  -3  11  439.02   26.93
  -2  -3  11  416.05   23.88
   2   3  11  436.31   24.68
   2  -3  11  467.61   27.64
  -2   3  11  440.04   27.76
  -2   3  11  418.44   26.43
   2  -3  11  422.03   24.16
   2  -3  12    5.37    2.32
  -2  -3  12    4.73    2.12
  -2   3  12   12.87    5.30
   2   3  12    6.43    5.12
  -2  -3  12    5.20    3.14
  -2  -3  12    6.56    5.38
  -2   3  12    3.68    4.74
   2   3  12    5.35    3.79
   2   3  13  106.34   14.19
  -2  -3  13  110.31   13.57
  -2   3  13  114.26   14.40
   2  -3  13  121.65   14.77
  -2   3  13  107.85   14.90
  -2  -3  13  136.07   16.36
   2   3  13  112.58   13.35
  -2   3  14   12.14    4.53
   2   3  14    9.00    4.05
  -2   3  14    3.01    3.46
  -2  -3  14   14.75    7.22
   2   3  14    9.63    4.53
  -2  -3  14   22.67    8.58
   2  -3  14   15.68    5.92
   2  -3  15  117.44   16.03
   2   3  15   96.57   14.07
  -2   3  15  102.45   16.94
   2   3  15  104.22   14.96
  -2  -3  15   95.71   13.73
   2  -3  15  120.26   15.93
  -2  -3  15   82.30   14.54
  -2   3  15   81.46   12.66
   2   3  16    6.41    5.70
   2   3  16    5.47    5.15
  -2  -3  16    2.93    1.92
  -2   3  16   -0.08    3.62
  -2   3  16   -1.09    4.50
   2  -3  16   -2.89    2.73
  -2  -3  16   -0.27    5.39
   2  -3  16    4.27    7.74
   2   3  17  421.48   30.76
  -2  -3  17  359.58   31.05
  -2  -3  17  403.55   29.74
   2  -3  17  414.75   30.71
  -2   3  17  396.93   31.85
   2   3  17  370.55   28.67
   2  -3  17  383.64   31.76
  -2   3  17  393.85   30.04
   2   3  18  151.73   18.96
  -2   3  18  141.96   18.51
  -2  -3  18  154.31   18.90
   2   3  18  133.68   18.14
   2  -3  18  159.23   19.31
   2  -3  18  164.12   20.08
  -2   3  18  154.07   19.78
  -2  -3  18  150.97   20.41
   2   3  19  300.63   26.80
  -2  -3  19  358.40   29.67
   2  -3  19  322.42   29.18
   2   3  19  296.10   26.96
   2  -3  19  363.17   30.29
  -2   3  19  296.26   26.50
  -2  -3  19  283.86   26.80
  -2   3  19  311.36   30.14
  -2   3  20   59.93   12.75
  -2   3  20   73.36   15.72
  -2  -3  20   43.90   10.40
   2  -3  20   63.39   12.62
   2  -3  20   30.49   12.04
   2   3  20   54.28   13.12
  -2  -3  20   49.60   13.21
   2   3  20   60.00   12.96
  -2   3  21    2.21    5.43
  -2   3  21   -5.35    4.63
   2   3  21    1.77    4.87
   2  -3  21    1.37    4.76
  -2  -3  21   -2.80    3.47
  -2  -3  21   -0.25    5.53
   2   3  21   -2.49    3.53
   2  -3  21    4.13    4.44
  -2  -3  22  108.00   18.77
  -2   3  22   82.80   16.89
   2  -3  22   87.78   15.62
  -2  -3  22  105.55   17.65
  -2   3  22   98.55   16.66
   2   3  22   95.25   15.61
   2   3  22  117.10   19.87
   2  -3  22   88.27   17.42
  -2   3  23   -0.32    5.08
   2   3  23    2.53    5.51
   2   3  23   -0.31    5.53
  -2  -3  23   -0.90    3.19
  -2  -3  23    6.62    8.16
   2  -3  23    4.68    7.25
   2  -3  23   -0.45    3.05
  -2   3  23   -1.87    5.63
  -2   3  24   36.73   10.80
   2   3  24   26.91    9.65
   2  -3  24   33.76   10.88
  -2  -3  24   16.18    7.90
   2   3  24   34.44   11.29
   2  -3  24   52.07   12.37
  -2   3  24   38.77   13.23
  -2  -3  24   23.39   10.10
   2   3  25  268.81   29.80
   2   3  25  314.84   30.64
  -2  -3  25  291.87   30.38
   2  -3  25  312.58   31.55
  -2   3  25  247.80   30.04
  -2  -3  25  243.69   30.99
   2  -3  25  290.76   30.94
  -2   3  25  321.19   31.53
  -2   3  26    2.91    6.93
  -2  -3  26    2.39    7.65
   2   3  26    6.99    8.04
  -2  -3  26    5.76    7.50
   2   3  26    2.94    5.10
   2  -3  26   -1.20    8.97
  -2   3  26   -2.76    7.69
   2  -3  26   -4.72    6.62
  -2  -3  27   15.68   10.65
   2   3  27   14.31    8.51
  -2   3  27   12.17    5.57
  -2   3  27   31.31   10.53
  -2  -3  27    8.73   10.32
   2  -3  27    9.37    6.94
   2   3  27    7.90    8.09
   2  -3  27    3.97    4.92
  -2   3  28   39.60   11.25
  -2   3  28   68.66   17.11
   2   3  28   84.04   18.18
  -2  -3  28   67.37   15.50
   2  -3  28   75.93   18.60
   2  -3  28   62.14   14.98
   2   3  28   55.92   16.03
  -2  -3  28   97.15   21.76
  -2  -3  29  273.55   31.35
   2  -3  29  262.62   33.75
  -2   3  29  283.17   34.92
   2   3  29  284.07   32.76
  -2   3  29  290.14   31.91
   2   3  29  323.00   33.53
   2  -3  29  269.92   30.93
  -2  -3  30   46.06   15.24
   2  -3  30   55.98   15.74
  -2   3  30   64.39   14.90
  -2  -3  30   53.06   14.20
   2   3  30   66.55   16.65
   2  -3  30   64.88   17.66
  -2   3  30   42.10   10.40
   2   3  30   67.82   15.39
  -2   3  31  174.32   26.26
  -2  -3  31  144.03   23.95
  -2   3  31  185.44   27.32
   2  -3  31  205.74   27.90
   2   3  31  171.12   25.88
   2   3  31  208.31   27.64
   2  -3  31  178.93   25.82
  -2  -3  31  163.76   25.71
  -2  -4   0    3.13    1.81
  -2  -4   0   -0.82    2.31
   2  -4   0    3.17    1.34
  -2   4   0    3.16    2.74
   2  -4   0    3.94    3.76
  -2   4   1   13.19    4.80
   2  -4   1    6.66    4.13
   2  -4  -1    8.69    4.33
   2  -4  -1    4.27    2.69
  -2  -4   1    8.46    4.34
  -2  -4   1    4.47    2.11
  -2  -4  -1    6.41    1.80
  -2  -4   1    2.89    1.02
   2  -4   1    6.57    2.29
  -2  -4   2  123.29   12.53
  -2   4   2  112.40   11.43
   2  -4   2  104.99   10.58
  -2  -4   2   98.46    8.87
   2  -4  -2  100.08   10.61
   2   4   2   83.32    8.42
   2  -4  -2   93.34   10.97
  -2  -4  -2  105.08   11.73
   2  -4   2   82.46   10.41
   2  -4   3  100.23   10.13
   2  -4  -3   95.29   10.96
  -2  -4  -3  118.00   11.90
  -2   4   3  103.05   11.50
  -2  -4   3  101.31   11.51
  -2  -4   3  116.51    9.65
   2  -4  -3  119.26   11.78
   2   4   3  111.13    9.83
   2  -4   3   99.36   12.24
  -2  -4  -4  344.99   21.23
  -2  -4   4  342.37   21.43
   2  -4   4  358.86   19.70
   2   4   4  364.75   18.96
  -2  -4   4  376.03   17.82
   2  -4   4  354.94   22.45
   2  -4  -4  344.27   20.54
  -2  -4   4  400.18   16.87
  -2   4   4  352.94   20.41
   2   4   5   24.29    3.59
  -2  -4   5   20.01    5.34
  -2  -4   5   16.66    4.17
   2  -4  -5   24.54    6.08
  -2  -4   5   26.91    4.70
  -2   4   5   21.17    4.83
  -2  -4  -5   14.51    5.56
   2  -4   5   22.72    7.04
   2   4   5   18.52    4.46
   2  -4   5   15.90    4.53
  -2   4   5   29.50    5.78
  -2  -4  -6  684.31   31.02
  -2  -4   6  690.55   31.45
  -2   4   6  678.27   30.56
   2   4   6  683.56   21.25
   2  -4  -6  655.72   30.17
   2  -4   6  712.71   28.68
  -2   4   6  677.22   30.31
   2   4   6  695.46   28.46
  -2  -4   6  728.26   26.02
   2  -4   6  710.54   32.69
  -2  -4   7  361.51   22.96
   2  -4   7  377.73   21.08
   2  -4   7  363.68   23.63
  -2   4   7  373.91   23.13
   2   4   7  368.55   17.07
  -2  -4  -7  345.22   22.54
   2  -4  -7  346.25   22.26
  -2   4   7  355.78   22.90
  -2  -4   7  342.41   18.77
  -2  -4   7  342.96   20.04
   2   4   7  367.67   21.53
   2  -4   8  977.10   34.89
  -2  -4   8 1064.62   39.96
  -2  -4   8 1197.32   38.69
  -2   4   8 1041.41   39.77
   2   4   8  859.61   28.49
  -2  -4  -8 1036.71   39.86
  -2   4   8  956.62   38.55
   2   4   8 1007.75   37.19
  -2  -4   8  942.51   32.27
   2  -4   8 1053.11   40.52
   2  -4  -8 1036.79   39.95
   2  -4   9  213.21   16.99
   2   4   9  183.12   16.32
  -2   4   9  183.86   17.27
   2  -4   9  209.26   18.06
  -2   4   9  212.05   18.75
  -2  -4   9  223.03   19.01
  -2  -4   9  163.33   15.88
  -2  -4  -9  185.56   17.36
  -2  -4   9  213.05   16.07
   2   4   9  172.20   13.96
   2  -4  10  301.52   21.07
  -2  -4  10  336.44   21.12
  -2  -4 -10  324.75   23.89
  -2  -4  10  335.66   24.04
  -2   4  10  368.04   25.46
  -2   4  10  336.55   23.76
   2  -4  10  363.50   25.35
   2   4  10  307.07   22.52
  -2  -4  11    7.10    5.26
   2  -4  11    5.38    4.22
  -2   4  11   -0.16    2.09
   2   4  11   -2.86    2.25
  -2   4  11    0.52    2.64
  -2  -4 -11   -0.25    2.64
   2  -4  11    2.86    3.12
   2   4  11    0.97    3.05
  -2  -4  11   -0.15    1.70
  -2  -4  11    0.09    1.94
  -2   4  12   19.82    7.00
  -2  -4  12   17.74    6.98
   2   4  12   19.48    5.17
  -2   4  12   11.55    5.48
  -2  -4 -12   24.85    7.27
  -2  -4  12   16.46    7.68
  -2  -4  12   16.47    5.14
   2  -4  12    7.36    4.22
   2   4  12   11.39    4.20
   2  -4  12   11.39    4.28
  -2   4  13    6.19    2.25
   2  -4  13   13.53    6.36
   2   4  13    7.15    5.29
  -2  -4 -13    6.48    2.20
  -2  -4  13    8.96    3.05
   2  -4  13   12.46    6.36
  -2   4  13    1.75    2.11
   2   4  13    2.40    2.65
  -2  -4  13    4.20    2.61
  -2  -4  13    5.09    3.35
  -2  -4 -14  111.37   15.46
   2   4  14  150.00   16.90
  -2  -4  14  110.55   14.67
   2  -4  14  138.88   16.95
  -2   4  14  117.02   15.84
  -2   4  14  135.41   16.48
   2   4  14  120.63   14.32
  -2  -4  14  143.05   17.88
   2   4  15  422.62   29.56
  -2  -4  15  456.59   29.93
   2   4  15  440.32   30.62
   2  -4  15  492.92   32.81
  -2   4  15  458.82   33.09
  -2  -4  15  395.28   30.08
  -2   4  15  393.52   29.40
   2  -4  16   69.72   12.53
   2   4  16   72.34   12.28
  -2   4  16   58.46   11.38
  -2   4  16   86.66   14.69
  -2  -4  16   64.29   13.82
  -2  -4  16   76.81   12.46
   2   4  16   76.10   12.70
   2  -4  16   80.75   14.65
  -2  -4  17   -1.31    3.18
   2   4  17    5.20    4.48
  -2   4  17   -0.85    2.95
  -2  -4  17    2.13    4.98
  -2   4  17    1.00    8.26
   2   4  17    5.18    6.00
   2  -4  17    1.24    3.33
   2  -4  17   -2.03    6.16
  -2  -4  18    6.97    5.76
  -2  -4  18   22.00    7.91
   2  -4  18   12.95    7.70
  -2   4  18    9.40    7.92
   2  -4  18   10.12    5.08
   2   4  18    7.40    3.74
  -2   4  18    6.09    5.12
   2   4  18    3.68    4.93
   2   4  19    4.09    7.28
  -2   4  19   -1.85    2.68
  -2  -4  19   -0.32    5.80
   2   4  19   -3.22    6.70
  -2   4  19    3.01    5.95
  -2  -4  19    0.52    5.35
   2  -4  19    2.56    8.78
   2  -4  19   -0.56    2.71
   2  -4  20  208.76   23.16
  -2  -4  20  233.96   24.57
  -2   4  20  171.10   21.16
  -2   4  20  230.76   25.23
   2  -4  20  197.57   24.73
   2   4  20  182.50   21.64
   2   4  20  214.78   24.84
   2   4  21   15.04    6.55
  -2  -4  21   20.44   10.91
   2   4  21   14.41    6.11
  -2   4  21   19.08    6.78
   2  -4  21   13.11    5.82
  -2   4  21    9.27    8.12
  -2  -4  21   -2.94    4.58
   2  -4  21   14.08   10.08
   2  -4  22   77.56   16.66
   2  -4  22   63.27   14.53
  -2  -4  22   91.01   16.53
  -2   4  22   96.99   17.72
   2   4  22  112.02   18.78
   2   4  22   91.62   15.87
  -2   4  22   85.88   14.81
  -2  -4  22   69.78   16.88
   2   4  23   24.02    7.56
  -2   4  23   19.59    5.48
   2  -4  23   44.55   12.23
  -2  -4  23   33.77    8.09
   2   4  23   13.09    9.52
  -2   4  23   46.01   15.01
  -2  -4  23   16.70    8.75
   2  -4  23   15.25    5.12
  -2   4  24   16.58    7.46
  -2  -4  24   49.90   12.35
   2   4  24   32.94   10.77
   2   4  24   26.77   11.14
   2  -4  24   41.17   11.58
  -2   4  24   42.20   14.43
  -2  -4  24   53.90   15.33
   2  -4  24   47.03   12.81
  -2  -4  25   83.17   17.08
  -2   4  25   40.13    9.68
   2   4  25   81.28   15.77
   2  -4  25   50.77   14.13
  -2   4  25   68.30   14.77
   2   4  25   61.81   13.45
  -2  -4  25   59.44   14.42
   2  -4  25   92.79   17.93
   2   4  26   -0.92    4.07
  -2   4  26    2.34    7.18
  -2  -4  26   -4.17    7.54
   2  -4  26   -1.33    6.90
  -2   4  26    2.88    4.52
   2   4  26    0.78    5.17
  -2  -4  26   -6.37    8.13
   2  -4  26   -3.80    4.66
  -2   4  27   26.50    9.55
  -2   4  27   31.55   11.43
   2   4  27   45.02   14.36
  -2  -4  27   26.72   10.65
   2  -4  27   69.38   16.70
   2  -4  27   29.01   10.40
  -2  -4  27   16.75   10.96
   2   4  27   34.74   14.37
  -2   4  28   13.34    8.16
   2   4  28   50.27   14.15
  -2   4  28   26.78    8.96
  -2  -4  28   41.28   13.39
   2   4  28   31.52   11.40
   2  -4  28   35.26   11.81
   2  -4  28   29.60   13.30
  -2  -4  28   52.20   16.39
  -2   4  29    2.97    8.61
  -2  -4  29   -2.15    3.61
   2  -4  29    1.53    7.39
   2   4  29   -0.27    5.12
  -2   4  29   -0.15    7.06
   2  -4  29    1.16    5.21
   2   4  29   11.40   10.31
  -2  -4  29    5.67    8.00
   2   4  30    2.68    3.89
  -2  -4  30   10.10    8.54
   2   4  30   11.23    5.44
   2  -4  30   -7.67    8.00
  -2   4  30   -1.15    6.39
  -2   4  30   17.22   12.62
  -2  -4  30   -4.25    5.01
   2  -4  30   -1.95    5.47
   2  -4  31    8.55   11.74
   2   4  31    8.51    3.48
   2   4  31    0.47    8.41
   2  -4  31    9.14    8.55
  -2   4  31    0.86    3.94
  -2   4  31   32.73   14.27
  -2  -4  31   17.07   10.74
  -2  -4  31   13.78    4.78
   2  -5   0 4397.55   77.07
  -2   5   0 4398.69   74.60
  -2  -5   0 4293.21   80.88
  -2  -5   0 4447.96   68.15
   2  -5   0 4284.69   81.01
   2  -5  -1    9.87    5.51
   2  -5   1   11.59    5.38
  -2  -5   1    6.36    4.02
  -2  -5   1    5.49    1.26
   2  -5   1   19.13    5.23
  -2  -5  -1   10.53    4.81
  -2  -5   1   15.45    4.97
   2  -5  -1    8.54    4.44
  -2   5   1    6.35    3.05
  -2  -5  -1    9.30    3.33
  -2  -5   2  142.33   15.36
  -2  -5   2  148.82   12.50
  -2  -5   2  151.49    7.98
   2  -5  -2  147.81   14.96
   2  -5   2  125.30   12.67
  -2  -5  -2  123.77   13.97
   2  -5   2  128.02   14.50
   2  -5  -2  116.10   12.61
  -2   5   2  123.55   12.68
  -2  -5   3   67.81    6.31
  -2  -5   3   79.39   11.09
   2  -5   3   87.75   10.61
   2  -5  -3   62.76   10.02
   2  -5  -3   63.37    9.32
  -2  -5  -3   64.08    9.53
  -2  -5   3   83.33    9.46
   2   5   3   65.14    8.40
   2  -5   3   67.17   10.29
  -2   5   3   85.68   10.76
   2   5   4  119.09    5.93
   2  -5   4  127.91   13.35
  -2  -5   4  150.54   16.41
  -2  -5   4  123.31   11.51
  -2  -5  -4  132.32   14.82
   2  -5  -4  122.16   13.14
   2  -5   4  106.51   13.58
  -2  -5   4  170.68   11.29
   2   5   4  116.36   11.66
  -2   5   4  122.59   13.57
   2  -5   5  391.55   23.20
  -2  -5   5  377.41   24.67
  -2  -5   5  372.91   20.72
   2   5   5  381.94   13.48
   2  -5   5  429.59   26.69
   2   5   5  420.22   23.17
  -2  -5  -5  359.42   24.05
   2  -5  -5  350.57   22.87
  -2   5   5  373.61   22.85
  -2  -5   5  391.46   18.65
  -2  -5   6   62.02    8.29
  -2  -5   6   55.08   10.12
   2  -5   6   58.53    8.75
  -2   5   6   59.27    9.64
   2   5   6   40.91    5.10
  -2  -5   6   61.86    8.13
  -2  -5  -6   61.53   10.06
   2   5   6   57.50    9.27
   2  -5  -6   61.14   10.98
   2  -5   6   52.94    9.46
  -2   5   6   59.95   10.12
  -2  -5   7  475.68   28.22
  -2  -5   7  548.23   25.88
  -2  -5   7  542.60   25.48
  -2   5   7  502.95   27.89
   2  -5   7  505.40   29.37
  -2  -5  -7  533.88   29.94
   2  -5   7  503.21   26.70
  -2   5   7  529.67   29.08
   2   5   7  567.12   21.23
   2  -5  -7  562.25   30.61
   2   5   7  533.81   27.19
   2  -5   8 1866.40   57.50
  -2  -5   8 1805.37   55.76
  -2  -5   8 1916.47   50.39
  -2   5   8 1872.65   54.89
  -2  -5  -8 1752.26   56.26
  -2  -5   8 1890.15   49.36
   2  -5  -8 1930.65   58.24
   2  -5   8 1879.99   52.33
   2   5   8 1998.68   43.33
  -2   5   8 1820.85   55.47
   2   5   8 1849.73   52.95
   2   5   9    2.21    2.62
   2   5   9    4.34    2.36
   2  -5  -9    6.69    6.22
  -2  -5   9    0.66    1.40
   2  -5   9    5.13    3.78
   2  -5   9    2.06    4.42
  -2  -5  -9   -1.06    5.66
  -2  -5   9    2.02    3.50
  -2   5   9    0.69    2.54
  -2  -5   9    0.32    2.56
  -2   5   9    3.34    3.44
   2   5  10  285.48   18.67
  -2  -5  10  300.15   20.77
  -2  -5 -10  283.64   23.43
   2   5  10  289.99   22.58
  -2   5  10  294.77   23.25
   2  -5 -10  331.90   25.13
  -2  -5  10  268.65   21.04
  -2   5  10  299.16   23.57
   2  -5  10  267.61   21.40
  -2  -5  10  302.14   23.48
   2  -5  10  327.67   24.09
   2  -5  11  137.49   15.25
   2  -5 -11  116.95   15.10
  -2  -5  11  110.15   13.47
  -2   5  11  113.52   15.17
  -2  -5  11  100.31   14.20
  -2  -5  11   91.55   12.43
  -2   5  11  145.02   16.38
   2   5  11  122.25   12.98
  -2  -5 -11  125.04   15.69
   2   5  11  110.72   13.99
   2  -5  12   23.93    5.94
  -2  -5  12   14.65    5.42
  -2   5  12   20.22    6.15
   2  -5  12   12.37    7.09
   2  -5 -12   26.78    6.81
  -2  -5 -12   24.76    7.02
  -2  -5  12   31.13    7.37
  -2  -5  12   42.53    9.28
  -2   5  12   26.66    7.96
   2   5  12   23.21    6.70
   2   5  12   25.89    6.95
   2  -5  13  121.22   14.81
  -2  -5  13  108.70   15.55
  -2   5  13  127.66   16.28
   2   5  13  110.03   14.14
  -2  -5 -13   97.42   14.92
  -2  -5  13   94.63   12.95
   2  -5  13  107.72   15.61
   2   5  13   79.39   11.06
  -2  -5  13   98.14   14.87
  -2   5  13   94.90   14.38
   2  -5  14  709.59   37.51
  -2  -5  14  696.70   39.00
  -2  -5  14  744.93   37.84
  -2  -5  14  643.99   39.79
   2  -5  14  685.55   37.92
  -2   5  14  683.61   40.10
  -2   5  14  655.82   38.43
   2   5  14  727.19   39.04
   2   5  14  695.99   36.21
  -2  -5 -14  697.68   39.90
  -2  -5  15  213.67   22.05
  -2   5  15  207.48   21.53
  -2  -5  15  198.45   20.60
  -2  -5 -15  249.94   24.22
   2   5  15  198.08   20.15
  -2   5  15  207.41   22.45
   2  -5  15  243.07   23.09
  -2  -5  15  247.48   24.05
   2  -5  15  199.64   21.31
   2   5  15  226.38   22.38
   2  -5  16   10.94    4.68
  -2   5  16   24.55    8.95
  -2  -5  16   21.96    7.61
  -2  -5  16   15.11    8.59
   2   5  16    9.88    2.92
  -2   5  16    9.70    3.09
   2   5  16   19.91    7.14
  -2  -5 -16   18.91    8.75
  -2  -5  16   18.79    7.00
  -2   5  17   40.83   11.77
  -2  -5  17   18.24    7.42
  -2  -5 -17   32.84    9.50
   2   5  17   18.12    7.79
   2   5  17   23.94    8.06
  -2   5  17   17.49   11.37
  -2  -5  17   42.94   11.97
   2  -5  17   20.86    7.88
   2  -5  17   34.74    9.27
   2  -5  18  174.07   21.82
   2  -5  18  133.80   19.05
   2   5  18  138.46   19.06
  -2  -5  18  135.27   17.82
  -2  -5 -18  138.39   19.24
  -2   5  18  163.42   21.71
  -2   5  18  152.50   20.06
  -2  -5  18  145.88   21.40
   2   5  18  150.55   20.25
  -2  -5  19  229.92   24.60
  -2  -5 -19  167.65   22.36
   2  -5  19  202.67   23.48
   2  -5  19  229.92   24.44
  -2   5  19  186.03   22.69
   2   5  19  207.73   24.35
  -2  -5  19  189.03   24.33
  -2   5  19  203.66   23.53
   2   5  19  186.96   21.84
   2   5  20   75.75   14.34
  -2   5  20   48.23   13.00
  -2   5  20   47.18   12.56
  -2  -5 -20   61.52   13.34
   2  -5  20   48.04   12.29
  -2  -5  20   34.18   10.01
   2   5  20   62.74   14.22
  -2  -5  20   56.18   11.53
   2  -5  20   59.52   15.91
  -2   5  21   15.09    8.83
  -2   5  21    5.90    6.85
   2   5  21   10.21    5.83
  -2  -5  21    9.83    5.09
  -2  -5  21    3.02    4.39
   2   5  21   11.92    8.83
  -2  -5 -21   12.25    9.54
   2  -5  21    7.44    6.99
   2  -5  21   12.55   10.72
  -2   5  22  248.16   26.70
  -2  -5  22  218.33   25.10
   2  -5  22  247.60   28.36
   2  -5  22  262.24   27.87
   2   5  22  293.50   29.21
  -2  -5 -22  278.60   30.04
   2   5  22  285.79   30.78
  -2  -5  22  242.59   30.54
  -2   5  22  256.83   27.64
  -2  -5 -23   -0.07    4.59
  -2   5  23    1.04    4.89
  -2  -5  23    6.52    4.24
   2   5  23    2.87    7.14
  -2   5  23    6.34    9.21
   2  -5  23   -1.62    2.68
  -2  -5  23    6.10    8.90
   2   5  23   -4.23    8.45
   2  -5  23    2.11    4.80
   2  -5  24   43.15   14.25
  -2  -5  24   42.21   12.57
   2  -5  24   25.25   10.90
  -2  -5 -24   40.31   12.18
  -2   5  24   16.35    8.22
   2   5  24   44.37   11.75
  -2  -5  24   -1.02    6.83
  -2   5  24   27.64    7.17
   2   5  24   55.85   13.49
  -2   5  25   -2.45    6.01
   2  -5  25   -0.28    6.78
   2   5  25    1.25    4.60
  -2  -5 -25    2.37    5.32
  -2  -5  25   -8.03    6.84
  -2   5  25    4.91    4.64
  -2  -5  25   -5.11    5.95
   2   5  25    3.19    8.22
   2  -5  25   -2.24    3.62
  -2  -5  26  114.29   20.44
   2  -5  26  113.83   19.76
  -2   5  26  104.74   18.26
  -2  -5 -26   89.20   19.40
   2   5  26   77.63   17.68
  -2  -5  26   58.64   14.62
  -2   5  26   95.68   19.48
   2   5  26  110.17   18.98
   2  -5  26   95.82   18.96
  -2   5  27   39.36   11.42
   2   5  27   27.34    8.17
   2   5  27   22.10   12.31
   2  -5  27   23.20    9.59
  -2  -5  27   45.97   13.63
  -2  -5 -27    7.93    6.24
  -2  -5  27   24.69    6.92
  -2   5  27   13.15    5.47
   2  -5  27   42.99   10.46
   2   5  28   81.70   19.22
   2   5  28  104.36   17.95
  -2  -5  28  105.06   23.64
   2  -5  28   93.08   18.33
  -2   5  28   76.06   17.03
  -2  -5  28  131.46   23.26
  -2  -5 -28   94.25   18.81
  -2   5  28   86.47   19.02
   2  -5  28  156.07   24.32
  -2   5  29    3.20    6.46
   2   5  29    4.63    5.09
   2  -5  29    2.17    4.39
   2  -5  29    8.19    8.69
  -2  -5  29    3.24    4.09
  -2  -5 -29    0.59    3.69
  -2   5  29   -3.44    9.70
   2   5  29   -3.54    7.47
  -2  -5  29    1.21    7.91
  -2   5  30   29.55   12.15
   2   5  30   51.34   13.32
  -2  -5  30   37.85   13.08
   2  -5  30   48.15   12.96
  -2  -5 -30   37.21   13.04
  -2   5  30   31.15   10.83
   2   5  30   55.31   16.54
   2  -5  30   30.44   11.28
  -2  -5  30   12.72    9.69
  -2  -6   0  753.26   31.40
  -2  -6   0  711.11   35.90
   2  -6   0  765.33   34.74
   2  -6   0  745.13   36.08
  -2  -6   1   26.40    3.08
  -2  -6   1   26.26    5.86
  -2  -6   1   21.37    5.39
   2  -6   1   28.26    7.29
  -2  -6  -1   35.87    7.77
   2  -6  -1   40.16    8.16
  -2   6   1   24.50    6.19
   2  -6  -1   39.71    8.34
  -2  -6  -1   33.42    6.44
   2  -6   1   16.88    6.17
   2  -6  -2   26.18    6.83
   2  -6   2   24.18    6.48
  -2  -6  -2   25.12    6.93
   2  -6  -2    8.99    2.89
  -2   6   2   23.71    7.08
  -2  -6   2   34.09    7.87
   2  -6   2   22.04    6.11
  -2  -6   2   17.33    2.91
  -2  -6   2   19.20    5.75
  -2  -6  -2   23.60    5.63
   2  -6   3   44.50    8.42
  -2  -6   3   41.73    5.29
   2  -6   3   69.64   11.27
  -2  -6   3   56.22   10.66
  -2   6   3   47.78    8.42
  -2  -6  -3   44.30    9.35
   2  -6  -3   49.72    8.73
  -2  -6   3   51.02    8.11
   2  -6  -3   52.98    9.39
  -2  -6   4  316.65   24.25
   2  -6   4  278.78   20.99
  -2  -6  -4  304.50   24.15
   2  -6  -4  278.18   21.67
  -2  -6   4  285.45   20.41
   2  -6   4  250.39   21.85
   2   6   4  335.94   21.86
   2   6   4  249.59    8.60
  -2  -6   4  312.77   15.87
  -2   6   4  293.22   20.79
   2  -6  -4  258.38   21.35
   2   6   5  154.60   14.95
  -2  -6   5  125.71   16.02
  -2  -6  -5  136.48   15.58
  -2   6   5  142.36   14.86
  -2  -6   5  148.66   14.46
   2  -6   5  137.89   15.25
   2   6   5  132.00    7.55
   2  -6   5  143.46   17.25
   2  -6  -5  146.79   16.02
  -2  -6   5  144.32   11.62
  -2   6   6   16.63    4.46
  -2  -6   6   18.13    6.76
   2  -6  -6    5.23    2.68
   2  -6   6    9.74    5.64
  -2  -6   6   13.66    3.94
  -2  -6   6   15.18    4.59
  -2  -6  -6   14.57    6.22
   2  -6   6   18.71    6.88
   2   6   6   18.67    5.79
   2   6   6   10.31    2.74
   2  -6   7  163.96   16.91
  -2  -6  -7  167.51   17.63
   2  -6  -7  208.21   19.89
  -2  -6   7  214.30   20.58
  -2  -6   7  209.71   17.72
  -2  -6   7  197.90   15.88
   2  -6   7  201.18   19.57
  -2   6   7  197.66   19.19
  -2   6   7  195.17   17.79
   2   6   7  218.17   18.72
   2   6   7  214.41   12.97
  -2   6   8    7.17    2.38
   2  -6   8    8.95    3.37
  -2  -6   8    4.85    3.49
  -2  -6   8    8.34    3.35
   2  -6   8    9.03    5.47
   2  -6  -8    7.80    4.65
   2   6   8    4.96    2.84
  -2  -6  -8    6.77    6.77
  -2   6   8    7.53    4.03
  -2  -6   8   -0.32    2.33
   2   6   8    7.26    4.17
  -2  -6   9   24.18    7.06
   2  -6   9   14.45    5.92
  -2   6   9   22.16    7.41
  -2  -6   9   21.93    6.13
   2  -6   9   15.94    6.97
  -2  -6  -9    9.50    3.78
   2  -6  -9   17.93    6.49
   2   6   9   21.66    5.35
  -2   6   9   33.11    8.49
  -2  -6   9   21.01    5.25
   2   6   9   16.24    4.36
  -2  -6  10   49.94   12.34
   2  -6  10   68.33   11.88
   2   6  10   47.74    7.93
  -2  -6  10   38.88    8.76
  -2  -6 -10   65.80   12.80
   2  -6 -10   64.49   12.41
   2  -6  10   52.22   11.99
  -2   6  10   59.90   11.12
   2   6  10   57.43   10.00
  -2   6  10   72.12   11.38
  -2  -6  10   51.67    9.45
   2  -6  11  625.74   34.44
  -2  -6  11  708.51   38.59
  -2  -6 -11  656.31   37.66
   2   6  11  686.55   36.47
  -2   6  11  653.76   35.92
  -2  -6  11  684.12   34.02
  -2   6  11  634.58   36.39
   2   6  11  688.49   31.79
  -2  -6  11  679.54   35.26
   2  -6 -11  632.44   37.32
   2  -6  11  639.56   36.39
  -2  -6  12  202.90   20.83
   2   6  12  210.07   18.05
  -2  -6  12  183.42   19.08
  -2  -6 -12  190.93   20.63
   2  -6  12  177.52   18.23
   2   6  12  162.93   18.60
  -2  -6  12  219.03   20.18
   2  -6 -12  237.36   23.15
  -2   6  12  201.34   20.60
   2  -6  12  237.56   22.56
  -2   6  12  209.89   21.43
   2  -6  13  133.19   15.69
  -2  -6  13  133.33   17.63
   2   6  13  158.31   18.07
  -2  -6  13  130.08   16.67
  -2   6  13  105.57   13.99
  -2  -6 -13  174.92   20.44
   2  -6 -13  177.17   20.29
   2   6  13  133.77   15.88
   2  -6  13  182.29   20.43
  -2   6  13  149.94   18.31
  -2  -6  13  143.78   17.71
  -2  -6  14  357.93   27.45
   2  -6  14  378.10   29.36
  -2  -6  14  365.67   29.84
   2  -6 -14  394.67   31.40
   2  -6  14  342.70   28.61
  -2   6  14  363.45   29.60
   2   6  14  410.50   27.48
  -2  -6  14  390.78   29.59
  -2   6  14  391.50   30.37
  -2  -6 -14  384.74   30.46
   2   6  14  343.45   27.64
  -2  -6  15  168.79   21.10
  -2   6  15  163.88   20.37
   2  -6 -15  166.00   20.75
  -2  -6  15  143.29   17.38
  -2  -6 -15  149.65   20.18
   2   6  15  166.64   18.29
   2   6  15  150.88   18.44
  -2  -6  15  171.91   20.71
  -2   6  15  162.04   19.72
   2  -6  15  130.49   18.26
   2  -6  16  245.49   23.30
  -2  -6  16  200.27   22.60
   2   6  16  250.23   24.40
   2  -6 -16  244.85   24.36
  -2  -6 -16  244.83   25.65
  -2  -6  16  246.26   23.81
  -2   6  16  234.44   25.20
   2  -6  16  240.99   24.41
  -2   6  16  207.02   23.16
   2   6  16  238.00   22.74
  -2  -6  16  237.37   24.42
   2  -6  17    2.74    3.22
  -2  -6 -17    0.02    4.41
   2   6  17   -0.95    3.98
  -2   6  17    0.33    4.16
   2  -6  17    8.73    2.85
  -2  -6  17   10.15    6.97
  -2  -6  17    5.28    6.00
   2  -6 -17    4.02    5.49
  -2  -6  17   -0.98    2.70
  -2   6  17    8.55    6.89
   2   6  17   11.21    6.00
   2  -6  18  114.96   17.49
  -2  -6  18  135.51   18.11
  -2  -6  18   88.86   15.95
   2   6  18  120.52   17.31
   2  -6  18  142.91   21.39
  -2   6  18   99.27   17.32
  -2  -6 -18  120.53   17.53
  -2   6  18  115.24   18.59
   2   6  18  107.03   16.72
   2  -6 -18  120.78   18.43
  -2  -6  18   92.85   16.44
  -2   6  19   16.42    9.32
   2   6  19   21.83    7.12
   2   6  19   27.63   10.42
   2  -6  19   19.89    8.49
  -2  -6 -19   25.22   10.46
   2  -6 -19   20.46    9.36
  -2   6  19   25.76    8.22
  -2  -6  19   29.63    9.57
  -2  -6  19   46.63   13.57
   2  -6  19   10.26    4.42
   2   6  20   -2.22    2.59
   2  -6  20    3.97    6.50
   2  -6 -20    7.14    6.56
  -2   6  20   12.60    7.86
  -2  -6  20    4.30    5.87
  -2  -6 -20   -1.11    6.26
   2   6  20    8.12    5.71
  -2   6  20    0.48    6.14
  -2  -6  20   -2.98    3.24
   2  -6  20    0.91    3.18
   2   6  21   26.95    8.80
  -2   6  21   12.65    3.47
  -2  -6 -21   19.56    8.64
   2  -6 -21   15.23    7.95
   2  -6  21   11.96    3.13
  -2   6  21   16.11   11.85
  -2  -6  21    7.65    5.95
   2  -6  21   21.66    7.45
  -2  -6  21   17.82    8.85
   2   6  21   10.14    8.09
  -2  -6  22  127.35   20.18
   2   6  22  126.59   19.93
  -2  -6 -22  116.79   19.23
   2  -6 -22  124.71   21.68
   2  -6  22  144.25   22.12
  -2   6  22  138.02   20.55
  -2  -6  22  120.90   21.28
   2   6  22  141.34   20.57
   2  -6  22  147.65   22.23
  -2   6  22  129.33   19.34
   2   6  23   42.25   12.79
  -2   6  23   37.55   12.94
  -2  -6  23   32.62   11.24
  -2  -6 -23   33.99   11.20
   2   6  23   41.76   13.25
   2  -6  23   29.83    9.89
  -2  -6  23   28.45   14.18
   2  -6 -23   23.27   11.14
  -2   6  23   41.36   10.86
   2  -6  23   37.27    9.66
   2  -6 -24  162.60   24.20
  -2  -6  24  187.38   25.30
   2   6  24  175.38   25.18
   2  -6  24  204.13   25.01
  -2  -6 -24  194.14   25.88
  -2   6  24  196.43   26.07
  -2   6  24  195.75   24.31
  -2  -6  24  164.70   24.85
   2  -6  24  182.84   26.27
   2   6  24  183.12   23.03
  -2   6  25   -3.69    5.78
  -2  -6 -25    3.02    5.63
   2   6  25    6.33    5.44
   2  -6  25   -4.89    9.03
  -2   6  25   -7.20    7.90
  -2  -6  25    0.21    3.70
   2  -6  25    1.00    3.73
   2  -6 -25    1.68    7.95
  -2  -6  25    8.41   10.73
   2   6  25    5.46   10.41
  -2   6  26   42.54   12.57
   2   6  26   59.24   14.88
   2   6  26   50.55   13.15
   2  -6 -26   56.71   17.00
  -2  -6 -26   46.36   14.54
  -2  -6  26   53.84   13.09
   2  -6  26   57.16   14.72
  -2   6  26   59.29   13.40
  -2  -6  26   26.81   11.85
   2  -6  26   37.65   12.44
   2   6  27    4.58    8.77
   2  -6 -27  -13.57    6.26
  -2  -6  27   -9.24    8.24
  -2  -6 -27   -1.85    5.94
  -2   6  27   -6.64   12.08
   2   6  27    5.99    9.36
  -2  -6  27    0.98    7.17
   2  -6  27   -1.43    3.04
   2  -6  27    6.36    6.49
  -2   6  27   -4.00    4.66
  -2   6  28   23.76    9.30
  -2  -6  28   11.54    6.04
   2   6  28   21.25   10.27
   2  -6  28   32.81   12.01
  -2  -6 -28   34.90   12.31
   2  -6 -28   24.86    7.12
  -2   6  28   25.02   10.20
  -2  -6  28    8.13    7.41
   2   6  28   19.55    4.82
   2  -6  28   13.95   11.02
  -2   6  29   71.74   16.76
   2   6  29   45.92   13.44
  -2  -6 -29   51.47   13.39
   2  -6  29   57.24   16.18
   2  -6 -29   35.66   12.35
  -2  -6  29   55.36   16.05
  -2  -6  29   73.12   19.78
   2   6  29   30.44    9.38
  -2   6  29   24.63    7.45
   2  -6  29   48.45   12.06
  -2  -7   0    3.89    1.22
   2  -7   0   10.57    5.34
   2  -7   0    4.49    2.80
  -2  -7   0   16.27    5.12
  -2  -7   0   11.18    7.03
  -2  -7   1  935.54   43.39
   2  -7   1  921.20   41.69
  -2  -7  -1  917.22   43.39
   2  -7  -1  916.65   41.45
  -2  -7  -1  988.58   39.64
   2  -7  -1  945.44   43.26
  -2  -7   1  943.96   22.15
   2  -7   1  929.68   42.52
  -2  -7   1  919.32   38.14
  -2  -7   2  287.26   24.50
   2  -7  -2  270.98   23.05
   2  -7   2  290.22   22.93
  -2  -7  -2  263.75   23.30
   2  -7   2  274.01   23.49
  -2  -7  -2  295.24   22.01
  -2   7   2  298.28   21.91
  -2  -7   2  282.36   13.36
  -2  -7   2  264.29   20.31
   2  -7  -2  319.16   24.40
  -2  -7   3  824.90   41.01
   2  -7   3  788.04   38.30
  -2  -7  -3  766.71   39.79
  -2  -7  -3  814.72   37.08
   2  -7  -3  742.38   38.66
  -2  -7   3  836.14   36.30
   2  -7   3  777.97   39.64
  -2   7   3  817.13   36.43
   2  -7  -3  797.46   38.83
  -2  -7   3  708.40   23.60
   2  -7   4  221.81   21.74
  -2  -7   4  215.67   21.39
  -2   7   4  174.75   16.30
   2  -7  -4  164.35   18.61
  -2  -7   4  206.57   18.16
  -2  -7   4  188.34   13.26
   2  -7  -4  201.44   19.50
  -2  -7  -4  195.06   20.40
   2  -7   4  213.10   19.90
  -2  -7   5  223.35   21.45
   2  -7   5  220.15   20.95
  -2  -7  -5  259.19   23.95
  -2  -7   5  241.59   20.18
   2  -7  -5  229.70   21.41
   2  -7   5  247.08   22.87
   2   7   5  219.50   10.20
  -2   7   5  235.41   19.48
   2   7   5  242.94   20.68
   2  -7  -5  223.69   21.12
  -2  -7   5  267.07   16.90
   2  -7   6  323.77   24.88
  -2  -7   6  382.03   28.35
   2   7   6  335.71   14.48
  -2  -7   6  403.83   26.19
   2  -7   6  353.58   27.74
  -2  -7  -6  353.73   27.16
  -2   7   6  361.74   24.63
   2  -7  -6  386.95   28.19
   2   7   6  381.13   25.72
  -2  -7   6  303.32   19.28
  -2  -7   7  931.50   44.55
   2  -7   7  887.92   44.75
  -2  -7  -7  896.37   43.92
  -2  -7   7  942.72   35.40
   2  -7  -7  894.32   43.95
  -2  -7   7  973.80   40.58
  -2   7   7  921.20   40.22
   2   7   7  876.24   25.74
   2   7   7 1044.05   43.28
   2  -7   7  933.50   42.29
  -2  -7   8  172.47   18.86
   2  -7   8  167.19   18.12
   2  -7   8  164.40   18.83
   2   7   8  170.96   12.74
  -2  -7  -8  182.56   20.16
   2  -7  -8  190.05   19.74
  -2  -7   8  193.92   16.94
  -2   7   8  127.97   16.18
  -2  -7   8  194.86   19.00
   2   7   8  174.29   17.92
   2  -7   9  146.95   17.30
  -2   7   9  117.61   15.51
  -2  -7  -9  131.39   17.20
   2  -7  -9  132.74   17.47
   2  -7   9  138.25   17.46
  -2   7   9  131.68   16.06
  -2  -7   9  121.85   15.09
   2   7   9  171.78   18.07
  -2  -7   9  121.56   14.35
  -2  -7   9  136.89   17.63
   2   7   9  131.36   12.33
   2  -7  10   82.24   13.58
  -2  -7  10   83.59   13.85
   2  -7  10   98.00   14.46
   2   7  10   89.92   10.83
  -2   7  10   93.68   13.91
   2  -7 -10  101.76   15.36
  -2  -7  10  103.87   14.01
  -2  -7 -10   75.09   13.09
  -2   7  10   79.01   13.66
   2   7  10   69.69   11.86
  -2  -7  10   68.02   11.68
  -2  -7  11 2558.70   76.47
  -2  -7 -11 2587.98   79.79
   2   7  11 2902.74   63.23
   2  -7 -11 2722.77   79.85
  -2   7  11 2522.87   71.88
  -2   7  11 2595.16   75.94
   2  -7  11 2714.55   74.72
   2   7  11 2272.82   71.34
  -2  -7  11 2551.52   69.50
  -2  -7  11 2753.77   72.42
   2  -7  11 2549.26   75.83
   2  -7  12  572.29   35.21
   2   7  12  531.25   34.49
   2  -7  12  549.35   34.80
  -2  -7 -12  545.63   37.66
  -2   7  12  505.25   33.51
  -2   7  12  604.41   37.16
   2  -7 -12  557.29   37.16
  -2  -7  12  599.01   36.88
   2   7  12  504.16   28.44
  -2  -7  12  602.43   34.93
  -2  -7  12  506.76   32.68
   2  -7  13  211.98   21.96
  -2  -7  13  237.60   23.51
  -2   7  13  190.24   21.71
  -2  -7 -13  182.97   20.89
   2  -7 -13  234.06   24.87
  -2  -7  13  237.42   22.18
   2   7  13  184.67   17.97
   2   7  13  230.56   23.35
  -2  -7  13  203.23   21.32
  -2   7  13  183.33   20.82
   2  -7  13  212.74   22.71
  -2  -7  14  188.20   22.12
  -2  -7  14  188.69   19.94
   2   7  14  152.50   19.87
  -2  -7 -14  202.74   22.18
   2  -7 -14  160.64   20.13
   2   7  14  164.21   18.29
   2  -7  14  117.06   16.51
  -2   7  14  163.48   19.84
   2  -7  14  161.17   20.27
  -2  -7  14  161.62   18.98
  -2   7  14  153.09   18.98
   2   7  15    7.95    3.37
   2  -7  15    6.67    6.39
  -2  -7  15   29.18    9.63
  -2   7  15    9.81    5.90
   2  -7  15   15.40    7.44
  -2   7  15   10.12    6.65
  -2  -7 -15   18.65    9.45
   2  -7 -15   11.97    5.48
  -2  -7  15   23.07    6.95
   2   7  15   11.80    4.82
  -2  -7  15   10.81    7.24
   2  -7  16  208.80   23.50
  -2  -7  16  227.90   24.45
   2  -7  16  223.18   23.64
  -2  -7 -16  261.13   27.09
  -2  -7  16  216.26   23.10
  -2   7  16  201.88   24.16
   2  -7 -16  267.07   27.77
   2   7  16  244.14   23.58
  -2   7  16  226.87   23.86
   2   7  16  207.44   23.50
  -2  -7  16  209.36   24.51
   2  -7  17  249.62   26.47
  -2  -7  17  240.80   25.60
  -2  -7  17  238.49   24.31
  -2   7  17  261.74   26.61
  -2  -7 -17  248.69   26.37
   2  -7 -17  255.22   26.51
  -2   7  17  245.31   25.43
   2   7  17  266.42   27.05
   2   7  17  246.48   24.44
  -2  -7  17  263.26   26.92
   2  -7  17  214.33   23.63
   2  -7  18   60.51   13.65
   2  -7  18   79.35   15.89
  -2  -7 -18  103.76   18.69
  -2  -7  18   99.49   16.51
   2  -7 -18   70.29   15.59
   2   7  18  113.50   17.62
   2   7  18  142.24   18.77
  -2   7  18   59.19   13.68
  -2  -7  18   74.41   13.86
  -2  -7  18   91.00   15.85
   2  -7  18   89.18   15.85
  -2   7  18  126.45   19.73
  -2  -7  19   70.27   14.13
  -2   7  19   45.54   12.84
  -2  -7  19   59.08   12.39
  -2  -7 -19   96.99   17.67
   2  -7  19   89.70   15.58
  -2   7  19   99.57   16.34
   2   7  19   81.74   16.04
   2   7  19   71.66   15.23
  -2  -7  19   65.20   13.62
   2  -7  19   74.48   15.92
   2  -7 -19   50.51   13.42
   2  -7  19   71.18   14.70
  -2   7  20   10.04    9.73
  -2  -7  20   -0.59    2.96
   2   7  20   14.55    9.82
   2   7  20    0.97    4.06
  -2  -7 -20    4.81    6.61
   2  -7 -20    3.91    4.60
  -2   7  20    3.79    5.00
  -2  -7  20    4.18    5.29
   2  -7  20    2.00    6.76
   2  -7  20   11.38    4.87
  -2   7  21  164.90   23.44
   2   7  21  179.82   23.93
  -2   7  21  165.30   21.58
  -2  -7  21  211.55   24.79
  -2  -7 -21  177.63   24.62
   2  -7 -21  185.67   24.23
   2  -7  21  206.94   24.35
   2   7  21  176.49   24.37
   2  -7  21  163.09   23.39
   2   7  22   -4.31    6.62
   2  -7 -22    3.43    7.68
   2  -7  22   -3.32    5.51
  -2   7  22    2.24    3.84
   2   7  22    3.90    6.50
  -2  -7  22    3.37    5.20
  -2  -7  22    1.72    6.02
   2  -7  22    2.43    7.49
  -2  -7 -22    9.26    6.53
  -2   7  22   12.55    9.16
   2   7  23   10.14   10.41
   2  -7 -23   -0.52    6.64
  -2   7  23    0.53    4.12
  -2   7  23    5.43    8.15
   2  -7  23   -2.25    5.50
   2   7  23   -0.64    3.61
  -2  -7 -23    0.95    5.66
   2  -7  23    3.61    4.10
  -2  -7  23    5.59    5.97
  -2  -7  23   -3.22    5.33
   2   7  24    4.50    4.31
  -2  -7 -24   -5.19    6.93
   2  -7  24    4.03    5.35
   2  -7  24   -4.13    5.09
   2  -7 -24    2.23    6.87
  -2   7  24    2.94    9.33
  -2  -7  24    5.24    6.97
  -2   7  24    4.95    4.35
   2   7  24    0.45    4.87
  -2  -7  24   -0.90    5.20
   2  -7  25  179.16   23.77
  -2  -7 -25  165.02   25.70
   2   7  25  150.74   22.27
  -2   7  25  186.56   27.14
   2   7  25  244.26   30.64
  -2  -7  25  130.84   24.97
  -2   7  25  163.63   23.34
  -2  -7  25  154.81   24.92
   2  -7 -25  146.03   22.93
   2   7  26   -7.43    8.34
  -2  -7  26    9.97    8.39
   2  -7 -26    5.15    3.63
   2  -7  26   13.94   11.61
  -2  -7 -26   -3.63    6.16
   2  -7  26    7.09    6.42
  -2  -7  26    4.50    4.80
  -2   7  26   11.53    4.26
  -2   7  26   14.16    7.22
  -2  -7 -27   23.14    9.26
  -2  -7  27   18.60    9.50
   2  -7  27   38.39   12.47
  -2   7  27   14.33    7.46
  -2   7  27   15.50   10.13
   2   7  27   19.80    6.82
  -2  -7  27    5.45    6.37
   2  -7 -27   20.00   11.12
   2  -7  27   28.05   12.89
   2   7  28   -0.28    3.41
  -2  -7  28   -1.13    6.61
  -2  -7 -28    0.39    7.93
  -2   7  28    6.60    6.53
  -2  -7  28   -5.20   10.59
   2  -7  28   -4.00    6.34
   2  -7  28   -3.35    4.01
   2  -7 -28   -3.49    4.83
  -2   7  28    2.41    5.46
   2   7  29   40.75   12.17
   2  -7 -29   36.82   13.06
  -2  -7  29   66.47   18.53
   2  -7  29   56.47   14.43
  -2   7  29   77.96   17.26
  -2  -7  29   24.56   11.72
  -2  -7 -29   54.99   15.55
   2  -7  29   33.73   12.25
  -2   7  29   39.95   12.18
  -2  -8   0   21.36    6.71
   2  -8   0   24.49    8.19
  -2  -8   0   18.13    7.52
   2  -8   0   26.13    7.12
  -2  -8   1    8.27    6.57
  -2  -8   1    7.91    3.60
   2  -8   1    8.53    6.69
  -2  -8  -1   20.34    7.74
   2  -8  -1   12.35    7.02
  -2  -8  -1   19.93    6.91
   2  -8  -1   16.44    6.10
   2  -8   1   18.61    7.14
  -2  -8  -2   31.30    8.20
  -2  -8  -2   40.67    9.80
  -2  -8   2   47.35    9.57
  -2  -8   2   56.03   10.42
   2  -8  -2   40.18    8.86
   2  -8  -2   47.78   10.73
   2  -8   2   41.45    9.70
   2  -8   2   42.57    8.93
  -2  -8   3  223.50   22.55
   2  -8   3  205.36   21.30
   2  -8  -3  217.32   21.54
  -2  -8  -3  234.78   23.11
   2  -8  -3  236.91   23.58
   2  -8   3  193.81   20.83
  -2  -8  -3  196.19   19.57
  -2   8   3  226.40   20.40
  -2  -8   3  211.35   20.25
   2  -8   4  243.11   23.23
  -2  -8   4  279.57   25.99
  -2  -8  -4  258.35   24.50
   2  -8  -4  249.43   23.47
   2  -8  -4  240.09   23.39
  -2  -8   4  217.87   20.78
   2  -8   4  255.53   24.61
  -2   8   4  245.96   21.42
  -2  -8   4  191.39   14.47
  -2  -8  -4  228.81   21.24
  -2  -8   5  260.09   25.45
  -2  -8  -5  302.01   27.08
   2  -8  -5  268.08   24.44
  -2  -8   5  266.36   23.15
   2  -8   5  302.79   26.43
   2  -8  -5  308.75   26.10
  -2   8   5  288.89   22.87
   2  -8   5  256.70   23.64
  -2  -8   5  248.08   17.21
   2  -8   6    4.79    5.66
   2  -8  -6    5.61    4.79
  -2  -8   6   -0.53    2.87
   2  -8  -6    2.98    2.53
   2  -8   6    3.16    4.44
  -2  -8  -6    6.32    6.39
   2   8   6    0.51    0.91
  -2   8   6    0.63    4.29
  -2  -8   6    1.60    2.14
  -2  -8   6    8.25    4.08
  -2  -8   7   88.63   14.06
  -2  -8   7  107.52   14.94
   2  -8   7  114.56   17.07
  -2  -8  -7  109.14   16.13
   2  -8  -7   90.40   14.04
  -2   8   7  104.65   13.97
   2   8   7   98.99    8.98
   2   8   7   95.35   14.15
   2  -8   7  102.92   15.30
   2  -8   8    4.64    4.26
   2  -8  -8   -1.97    4.09
   2   8   8    2.12    2.45
  -2  -8   8   -8.38    4.92
  -2  -8  -8    6.06    2.80
  -2   8   8   -0.69    4.21
  -2  -8   8    0.25    5.08
   2   8   8   -2.06    5.43
   2  -8   8    7.27    5.80
  -2  -8   8    0.13    2.55
  -2  -8   9  107.80   17.11
   2  -8   9  127.81   16.87
   2  -8   9  142.98   18.37
  -2  -8  -9  119.20   18.48
   2  -8  -9  163.57   20.47
  -2   8   9  131.52   16.81
   2   8   9  108.08   11.03
   2   8   9  140.35   17.17
  -2  -8   9  159.17   17.23
  -2  -8   9  133.85   16.40
  -2   8  10   67.21   12.24
  -2  -8  10   89.48   15.27
   2   8  10   81.76   10.26
   2  -8  10   95.55   14.90
  -2  -8 -10   84.18   15.71
   2  -8  10   77.02   14.07
  -2  -8  10  103.21   14.34
   2   8  10  106.58   15.11
  -2  -8  10   97.70   13.24
   2  -8 -10   85.42   14.80
  -2  -8  11    2.36    2.51
   2  -8  11   -0.91    3.07
  -2   8  11    2.37    5.30
   2   8  11    3.25    3.34
  -2  -8 -11   -0.63    3.78
   2  -8  11   -0.47    4.19
   2  -8 -11    2.31    4.28
  -2   8  11    7.49    8.01
  -2  -8  11    1.91    2.48
   2   8  11    3.45    3.88
  -2  -8  11    0.99    4.68
   2  -8 -12   29.96   10.46
  -2  -8  12   35.11    9.57
   2  -8  12   40.76   10.75
  -2  -8  12   28.78    8.03
   2   8  12   38.72    9.82
   2  -8  12   46.66   11.01
  -2  -8 -12   34.70   10.80
  -2   8  12   40.73   10.48
   2   8  12   32.77    6.93
  -2   8  12   53.39   11.34
  -2  -8  12   39.47    9.68
   2  -8  13    6.15    6.63
  -2  -8  13    0.38    5.30
  -2  -8  13    8.36    4.61
   2  -8  13    8.00    5.62
  -2   8  13   16.99    6.69
   2   8  13   15.28    6.49
  -2  -8  13   17.88    5.95
   2   8  13   23.42    7.86
  -2   8  13   10.27    7.69
   2  -8 -13   22.47    6.39
  -2  -8 -13   17.99    7.25
   2  -8 -14   53.14   13.03
   2  -8  14   38.35    9.03
  -2  -8  14   44.46   11.06
  -2  -8  14   45.44   10.27
  -2   8  14   49.25   11.05
   2  -8  14   54.44   12.63
  -2  -8 -14   30.57   12.15
   2   8  14   32.77    9.92
  -2   8  14   51.97   11.83
  -2  -8  14   43.04   13.08
   2  -8  15  403.51   32.10
  -2  -8  15  331.95   29.47
  -2  -8 -15  401.43   34.50
   2  -8 -15  416.82   34.69
   2  -8  15  424.80   33.20
  -2   8  15  432.31   34.61
   2   8  15  391.51   32.79
  -2  -8  15  429.23   32.08
  -2  -8  15  414.87   33.67
  -2   8  15  467.60   35.22
   2  -8  16    7.86    5.70
  -2  -8  16   12.03    8.63
  -2  -8  16    0.24    2.88
  -2  -8 -16   -0.05    3.84
   2  -8 -16   -4.89    6.15
  -2   8  16   -0.19    5.45
  -2   8  16    4.97    6.16
   2  -8  16    4.92    6.99
   2   8  16    2.10    2.57
  -2  -8  16    7.06    6.35
  -2  -8  17  141.53   20.22
  -2  -8 -17  156.03   21.74
   2  -8 -17  180.28   24.03
  -2   8  17  116.05   19.40
  -2  -8  17  116.76   17.13
   2  -8  17  156.42   20.42
  -2   8  17  126.18   19.09
  -2  -8  17  137.52   20.58
   2  -8  17  117.67   18.71
   2   8  17  113.00   17.13
   2  -8  18   69.98   13.23
  -2  -8  18   48.13   11.10
  -2   8  18   34.88   10.11
   2  -8  18   48.08   12.50
  -2   8  18   65.72   14.17
  -2  -8 -18   50.04   13.50
   2  -8 -18   42.69   13.57
   2  -8  18   48.11   14.51
  -2  -8  18   46.34   12.24
  -2  -8  18   48.62   11.71
   2   8  18   46.27   11.62
  -2  -8  19  106.84   17.74
   2   8  19   88.51   16.50
   2  -8  19  107.24   17.57
   2  -8 -19  141.69   20.52
  -2   8  19  105.02   18.32
  -2  -8 -19  101.85   18.74
   2  -8  19  121.17   18.72
  -2  -8  19  142.49   20.14
   2  -8  19  114.09   19.53
  -2  -8  19  112.52   18.76
  -2   8  19   90.65   17.03
   2   8  20    4.91    5.72
   2  -8 -20    2.41    4.77
   2  -8  20   -3.37    6.52
  -2   8  20    5.06    7.55
  -2  -8 -20    2.48    6.59
   2  -8  20   -0.12    5.66
  -2  -8  20    0.28    5.58
  -2  -8  20   -0.02    5.10
  -2  -8  20    2.44    4.24
  -2   8  20    7.14    2.85
   2  -8  20    4.49    9.87
  -2  -8  21  260.25   30.58
  -2  -8  21  207.43   25.78
   2  -8  21  246.13   30.01
  -2  -8 -21  215.48   26.30
   2  -8 -21  261.50   29.59
   2  -8  21  263.97   28.57
  -2   8  21  226.02   25.86
   2   8  21  205.75   24.71
  -2   8  21  223.96   27.58
  -2  -8  21  210.33   24.15
  -2  -8  22   12.23    9.25
   2  -8 -22   -2.24    5.02
  -2   8  22    6.07    6.14
  -2  -8 -22    2.99    3.23
  -2  -8  22   13.45    8.44
   2   8  22   -0.84    6.73
   2  -8  22    4.28    3.92
  -2   8  22   11.61    7.25
   2  -8  22    0.95    9.80
   2   8  23   32.02   10.36
  -2  -8  23   50.28   14.15
  -2  -8 -23   40.19   11.87
   2  -8 -23   51.02   14.93
  -2   8  23   42.05   12.77
   2  -8  23   46.68   12.60
  -2  -8  23   25.53   10.54
   2  -8  23   46.73   13.87
  -2   8  23   56.70   14.05
  -2  -8  24   19.79   10.86
   2   8  24   11.14    4.91
  -2  -8 -24   14.63    5.41
  -2   8  24   31.73   10.16
  -2  -8  24   21.44    8.24
  -2   8  24   18.57    6.76
   2  -8  24   29.49   11.68
   2  -8 -24   33.52    9.20
   2  -8  24   17.05    9.57
   2   8  25  367.90   36.03
  -2  -8  25  302.80   33.09
  -2   8  25  387.15   37.44
   2  -8  25  357.95   35.55
  -2  -8 -25  330.96   35.69
   2  -8 -25  320.33   34.17
  -2  -8  25  308.32   35.19
  -2   8  25  308.97   32.43
   2  -8  25  352.64   36.54
   2   8  26   70.98   15.93
  -2  -8  26   26.05    9.23
  -2  -8 -26   73.18   18.64
   2  -8 -26   86.52   18.15
  -2   8  26   54.10   15.95
   2  -8  26   48.41   13.81
  -2  -8  26   63.33   17.35
   2  -8  26   76.99   17.19
  -2   8  26   92.61   18.36
   2   8  27   16.88    8.78
   2  -8  27   15.90    8.83
  -2  -8  27   22.23   12.84
   2  -8  27    2.33    5.58
   2  -8 -27    5.46    5.03
  -2  -8  27   -3.92    8.57
  -2  -8 -27   28.94   10.51
  -2   8  27   16.56   11.33
  -2   8  27   16.23   10.52
   2   8  28    0.40    6.32
   2  -8 -28    9.64    8.76
  -2   8  28   -4.50    7.94
  -2  -8 -28    8.16    9.10
   2  -8  28    3.37    6.31
  -2  -8  28    3.86    6.47
   2  -8  28    3.67    6.20
  -2   8  28   10.97    5.91
   2  -9   0   38.37    9.18
   2  -9   0   19.77    8.44
  -2  -9   0   19.86    6.84
  -2  -9   0   20.52   10.10
  -2  -9  -1  263.98   24.07
   2  -9   1  212.35   23.18
  -2  -9  -1  298.77   27.15
   2  -9  -1  212.01   23.67
   2  -9   1  228.24   23.45
  -2  -9   1  261.59   23.30
   2  -9  -1  225.91   23.48
  -2  -9   1  196.33   22.72
  -2  -9  -2    9.84    7.02
  -2  -9   2   21.73    7.63
   2  -9   2    1.40    5.23
   2  -9   2   10.83    2.71
   2  -9  -2    8.10    6.20
   2  -9  -2    8.09    2.11
  -2  -9  -2    3.40    5.26
  -2  -9   2   12.89    8.10
  -2  -9   3  529.90   36.64
  -2  -9  -3  598.47   40.58
   2  -9  -3  610.34   38.52
  -2  -9   3  622.18   36.35
   2  -9   3  546.41   37.32
   2  -9  -3  604.49   38.59
  -2  -9  -3  525.63   33.99
   2  -9   3  530.58   35.93
  -2  -9   4  142.18   19.09
  -2  -9  -4  180.70   22.05
   2  -9  -4  145.80   19.16
   2  -9   4  139.34   18.87
  -2  -9   4  132.43   16.39
  -2  -9  -4  145.37   17.48
  -2   9   4  135.01   16.07
   2  -9   4  141.25   19.15
   2  -9  -4  139.89   18.75
  -2  -9   5   17.61    6.71
   2  -9   5   18.08    5.85
  -2  -9   5   21.77    6.12
   2  -9   5    9.21    3.08
  -2  -9  -5   15.26    6.73
  -2  -9  -5   11.35    6.29
   2  -9  -5   11.31    5.43
  -2   9   5   25.58    7.34
   2  -9  -5   27.59    9.38
  -2  -9   6  322.35   29.07
  -2  -9  -6  321.10   28.90
   2  -9  -6  318.02   27.57
   2  -9   6  304.76   27.51
   2  -9   6  364.30   30.20
  -2   9   6  356.43   27.25
   2  -9  -6  362.86   30.01
  -2  -9   6  364.45   28.31
  -2  -9   7 1605.56   64.17
   2  -9   7 1597.08   62.66
  -2  -9   7 1638.47   60.63
  -2   9   7 1547.45   57.09
   2  -9   7 1594.03   64.69
  -2  -9  -7 1652.06   66.54
   2  -9  -7 1638.15   64.09
   2  -9  -7 1598.80   63.48
  -2  -9   8  594.08   36.09
   2  -9  -8  617.48   39.93
   2  -9  -8  569.27   38.40
  -2  -9  -8  677.71   42.26
   2  -9   8  677.64   42.52
  -2  -9   8  671.00   41.95
  -2   9   8  673.86   37.83
   2  -9   8  618.57   39.29
   2  -9   9   37.27   10.27
  -2   9   9   11.76    5.21
  -2  -9   9   25.27    7.11
   2  -9  -9   25.30   10.40
  -2  -9  -9   23.19    6.71
   2  -9   9   46.33   11.59
   2   9   9   27.14    8.91
  -2  -9   9   26.84    9.57
  -2  -9  10  443.87   34.65
   2  -9  10  551.69   37.64
   2   9  10  520.05   35.54
  -2  -9 -10  536.80   39.21
   2  -9 -10  523.53   38.18
   2  -9  10  535.82   35.77
  -2  -9  10  518.68   34.42
  -2  -9 -11  106.82   17.80
  -2  -9  11  116.38   18.65
  -2   9  11   78.94   14.11
   2  -9  11   93.05   15.52
   2  -9 -11  107.63   18.15
   2   9  11  118.36   17.72
  -2  -9  11  103.64   17.46
  -2  -9  11   93.63   15.69
   2  -9  11   97.51   16.80
  -2  -9 -12   -3.24    2.63
  -2  -9  12    3.03    6.10
  -2  -9  12    1.08    4.07
   2   9  12    5.28    2.98
   2  -9  12    2.94    6.61
  -2  -9  12   16.20    8.14
  -2   9  12    2.13    5.79
   2  -9 -12    4.36    3.63
   2  -9  12    0.02    5.00
  -2  -9  13  243.21   25.20
   2  -9  13  214.82   24.62
  -2  -9 -13  272.82   28.66
   2  -9 -13  255.25   27.76
   2  -9  13  289.73   27.66
  -2   9  13  251.14   26.19
  -2   9  13  245.56   25.61
  -2  -9  13  258.65   25.00
   2   9  13  299.74   27.61
   2  -9 -14   41.14   11.48
   2  -9  14   41.83   12.29
  -2  -9  14   25.84    8.16
   2  -9  14   53.95   11.69
  -2   9  14   35.96   11.53
  -2  -9  14   23.83    6.70
   2   9  14   32.78   10.36
  -2  -9 -14   29.07   10.22
  -2   9  14   31.89   10.72
  -2  -9  14   34.62    9.28
   2  -9  15  219.96   22.65
  -2  -9  15  173.53   22.61
  -2  -9  15  164.64   21.48
  -2  -9 -15  161.48   23.02
   2  -9 -15  137.46   20.61
  -2   9  15  165.78   21.88
  -2  -9  15  188.39   22.81
   2   9  15  195.38   23.28
   2  -9  15  177.04   22.03
  -2   9  15  170.86   22.29
   2  -9  16   63.39   12.55
  -2  -9  16   92.90   15.83
   2  -9 -16   93.25   17.43
  -2   9  16   70.48   14.82
  -2  -9 -16   63.93   12.49
  -2   9  16  101.57   17.81
  -2  -9  16   76.85   15.48
   2  -9  16  115.75   18.19
  -2  -9  16   53.36   11.77
   2   9  16   66.64   13.84
   2  -9  17  397.98   33.42
  -2  -9  17  474.42   36.78
  -2  -9 -17  457.98   38.74
   2  -9 -17  440.25   37.45
  -2   9  17  400.91   34.05
   2  -9  17  448.00   36.79
  -2   9  17  403.52   34.00
  -2  -9  17  433.03   36.01
  -2  -9  17  367.33   32.75
   2   9  17  454.27   36.37
   2  -9  18   18.20    8.88
  -2  -9 -18   21.47    9.78
   2  -9 -18    8.64    5.98
   2  -9  18   12.28    5.70
  -2   9  18   19.38    9.89
  -2  -9  18   11.37    9.41
  -2   9  18   23.98    9.62
  -2  -9  18    7.40    8.75
  -2  -9  18    2.85    3.07
   2   9  18    7.06    4.51
   2  -9  18    6.22    8.32
   2   9  19   52.53   12.72
   2  -9  19   42.12   11.18
  -2  -9  19   65.65   15.21
   2  -9  19   38.75   10.88
   2  -9 -19   68.41   16.80
   2  -9  19   50.88   13.24
  -2   9  19   48.07   11.12
  -2   9  19   44.96   12.40
  -2  -9  19   42.62   11.39
  -2  -9  19   30.01   10.02
  -2  -9 -19   42.87   10.86
   2  -9 -20   12.58    3.92
   2  -9  20    4.77    8.10
  -2  -9 -20    0.29    6.21
  -2  -9  20   -0.37    8.39
  -2   9  20   12.03    5.81
  -2  -9  20    2.92    4.83
   2  -9  20   10.69    5.65
   2   9  20    1.96    4.99
  -2  -9  20   11.85    6.05
  -2   9  20   -2.00    4.78
   2  -9  20    4.50    3.53
   2  -9  21   65.02   14.63
   2  -9 -21   56.43   15.61
   2  -9  21   58.48   13.73
  -2  -9 -21   84.85   17.97
  -2  -9  21   59.83   16.85
  -2   9  21   73.29   15.89
  -2  -9  21   56.53   14.76
  -2  -9  21   53.23   14.70
  -2   9  21   38.27   13.93
   2   9  21   86.80   17.19
   2  -9  21   57.09   14.13
  -2  -9  22   73.41   15.67
  -2  -9  22   85.79   18.26
  -2  -9 -22  119.33   20.46
   2  -9  22  121.92   20.40
   2  -9  22  140.31   21.18
  -2  -9  22   97.86   17.92
   2  -9 -22  107.70   20.14
  -2   9  22  100.10   20.75
  -2   9  22   83.53   16.56
   2   9  22   83.93   17.26
  -2  -9  23   18.98    7.61
  -2  -9 -23   17.61   10.66
   2  -9 -23   20.53    6.64
  -2   9  23   29.05   12.10
  -2  -9  23   19.42    8.45
  -2   9  23   16.66    7.39
   2  -9  23    3.89    4.43
   2  -9  23   28.51   11.82
   2   9  23   28.53   13.27
   2  -9 -24    9.34   12.35
   2  -9  24   -4.40    4.67
  -2  -9 -24    2.19    4.52
  -2   9  24   -1.34    7.60
   2  -9  24    0.30    6.12
  -2  -9  24    2.91    5.82
  -2   9  24   -7.55    5.24
   2   9  24   -0.03    4.84
  -2   9  25   22.82   10.60
   2  -9  25   34.34   13.30
  -2  -9 -25   71.83   16.44
   2  -9 -25   40.84   14.96
   2  -9  25   16.35    8.99
  -2  -9  25   44.76   16.25
  -2   9  25   37.80   11.30
   2   9  25   19.47    9.05
   2   9  26   10.06    8.06
   2  -9  26    6.86    6.19
  -2  -9 -26   -2.70    6.50
   2  -9 -26    5.14   11.21
  -2   9  26   -6.13    9.56
   2  -9  26    2.58    5.45
  -2   9  26    4.50    4.72
  -2  -9  26   -5.51    5.94
   2 -10   0   85.02   16.15
  -2 -10   0   89.55   16.79
   2 -10   0   84.28   14.88
  -2 -10   0   72.03   13.96
   2 -10  -1   12.25    7.17
  -2 -10   1   13.35    8.71
   2 -10   1    4.50    4.92
  -2 -10  -1   27.03   12.38
   2 -10  -1   15.82    8.39
  -2 -10  -1   14.84    6.88
   2 -10   1   11.32    6.64
  -2 -10   1   13.41    5.84
  -2 -10   2   -4.13    4.37
  -2 -10   2    0.15    5.79
   2 -10   2   -1.71    4.21
  -2 -10  -2    5.51    8.27
   2 -10  -2   -2.95    3.48
   2 -10  -2   -3.43    4.39
  -2 -10  -2    0.10    3.44
   2 -10   2   -1.15    2.37
  -2 -10  -3    0.12    2.16
  -2 -10   3    8.41    6.03
   2 -10   3    0.59    7.19
  -2 -10  -3   10.31    8.10
   2 -10  -3    9.07    9.45
  -2 -10   3   -4.17    2.74
   2 -10   3    3.84    4.15
   2 -10  -3    4.05    4.90
   2 -10   4  114.29   17.81
  -2 -10   4   95.64   17.45
   2 -10  -4  112.25   18.14
   2 -10   4   93.26   16.78
  -2 -10  -4  118.29   17.07
  -2 -10  -4   56.25   13.74
   2 -10  -4   81.22   14.84
  -2 -10   4   91.53   15.55
  -2 -10  -5   42.69   11.60
  -2 -10   5   17.21    7.42
  -2 -10   5   30.93   10.91
   2 -10  -5   23.53    7.05
   2 -10   5   21.49    6.87
  -2 -10  -5   24.85    8.99
   2 -10  -5   23.38    5.94
  -2  10   5   32.13    8.89
   2 -10   5   18.37    6.67
   2 -10  -6  128.88   18.74
  -2 -10   6  182.87   22.43
   2 -10   6  150.76   20.73
  -2 -10  -6  169.14   21.87
  -2 -10   6  161.94   20.91
   2 -10   6  132.97   19.72
   2 -10  -6  152.23   21.38
  -2  10   6  148.17   18.17
  -2 -10  -6  152.07   20.01
   2 -10  -7   -1.51    2.85
  -2 -10   7   -0.57    5.49
   2 -10   7    8.77    7.55
  -2 -10  -7    3.19    6.49
   2 -10  -7    6.41    8.32
  -2 -10  -7   -0.07    3.07
  -2  10   7    2.18    8.82
  -2 -10   7    9.88    8.18
   2 -10   7    0.49    3.29
  -2 -10   8   23.75   10.94
   2 -10   8    3.94    3.37
  -2 -10  -8   14.63    5.52
  -2 -10   8   12.26    6.65
   2 -10  -8   19.44    7.48
   2 -10  -8   10.47    3.57
   2 -10   8    8.21    8.49
  -2  10   8   20.17    7.44
  -2 -10   9   -4.03    5.04
   2 -10   9    0.98    5.24
   2 -10  -9    2.47    6.66
  -2 -10  -9   14.06    8.15
  -2  10   9    5.98    3.05
  -2 -10   9   -2.40    2.32
   2 -10   9    2.17    3.32
   2 -10  -9    3.78    4.47
   2 -10  10   -3.18    3.54
  -2 -10 -10   -2.10    5.74
   2 -10 -10    0.05    2.65
  -2 -10  10    1.68    7.06
  -2 -10  10   -2.13    7.37
   2 -10 -10    0.45    5.16
  -2  10  10   -3.63    4.41
   2 -10  10   -2.60    2.91
   2 -10  11  194.94   22.92
  -2 -10  11  215.65   24.87
  -2 -10 -11  148.41   21.11
   2 -10 -11  139.36   21.19
  -2  10  11  126.95   18.53
   2 -10  11  167.64   21.45
   2  10  11  191.80   21.86
  -2 -10  11  191.55   21.88
  -2 -10  12   81.13   15.39
   2 -10  12   64.51   13.90
  -2  10  12   77.27   15.23
  -2 -10 -12   96.52   16.72
  -2 -10  12   86.88   15.32
   2  10  12   89.24   16.85
   2 -10 -12   64.72   17.16
   2 -10  12   91.17   16.91
   2 -10  13    4.50    5.79
  -2 -10  13    5.52    6.40
  -2 -10  13    6.98    5.02
   2 -10  13   11.34    5.31
  -2  10  13   11.34    7.84
  -2 -10 -13    9.06    4.01
   2 -10 -13   11.03    7.37
   2  10  13   11.04    2.66
   2 -10  14   55.42   14.71
  -2 -10  14   58.45   13.65
  -2 -10 -14   61.45   14.32
   2 -10 -14   55.03   13.27
  -2 -10  14   55.46   15.10
  -2  10  14   20.83    7.04
   2  10  14   35.05   11.22
   2 -10  14   28.01    9.68
   2 -10  15   76.25   15.35
  -2 -10  15   62.64   14.02
   2 -10  15   82.02   14.93
   2 -10 -15   95.49   17.27
  -2  10  15  107.93   18.61
  -2 -10 -15   80.10   16.68
  -2  10  15   83.97   16.66
   2  10  15   87.40   16.21
  -2 -10  15   94.77   17.37
  -2 -10  16   23.58    7.57
  -2 -10  16   14.12    6.33
   2 -10  16   21.24   10.42
   2 -10 -16   27.23    7.63
   2 -10  16   34.19   11.40
  -2 -10 -16   20.19    9.68
  -2  10  16   19.90    9.55
  -2  10  16   40.46   11.37
   2  10  16   19.58    4.40
  -2 -10  17   -2.41    2.70
   2 -10  17    0.32    4.94
  -2 -10  17   -1.18    6.95
   2 -10  17   -1.30    3.97
   2 -10 -17    0.23    6.87
  -2 -10 -17    4.38    6.88
  -2  10  17    0.26    5.58
  -2  10  17    6.87    4.88
   2  10  17    7.66    2.84
   2  10  18   42.37   10.87
  -2 -10  18   53.86   13.51
  -2 -10 -18   41.26   14.79
   2 -10  18   90.03   16.75
   2 -10  18   30.32   10.31
  -2  10  18   28.17    8.51
   2 -10 -18   50.19   13.41
  -2  10  18   42.77   11.77
   2 -10  18   32.08   11.07
  -2 -10  18   64.55   14.96
   2 -10  19   68.42   14.91
  -2 -10  19   51.18   13.59
   2 -10  19   74.04   16.05
  -2  10  19   75.08   15.82
  -2 -10 -19   79.59   16.55
   2 -10 -19   74.28   17.43
   2 -10  19   70.99   16.82
  -2  10  19   64.57   14.99
   2  10  19   92.30   17.03
  -2 -10  19   75.92   15.15
  -2 -10  20    4.63    4.92
   2 -10  20    5.78    5.55
  -2 -10 -20    5.08    6.39
   2 -10  20   17.22    7.53
   2 -10 -20   22.74   11.93
   2 -10  20   13.71   10.61
  -2  10  20   19.98   10.67
  -2 -10  20    5.45    8.54
   2  10  20   12.52    6.68
  -2  10  20   13.20    5.76
   2 -10  21   20.39   10.24
   2 -10  21   24.12    8.90
  -2 -10  21   20.98   12.37
   2 -10 -21   47.07   12.68
  -2 -10 -21   20.31   10.63
  -2  10  21   53.01   15.14
  -2 -10  21   -4.90    6.00
  -2  10  21   32.41   11.20
   2  10  21   28.50   10.09
   2 -10  21   33.36   14.69
  -2  10  22  135.34   21.20
   2  10  22  160.70   23.45
   2 -10 -22  181.47   26.19
  -2 -10 -22  148.98   24.79
  -2  10  22  170.73   24.82
   2 -10  22  161.56   23.31
   2 -10  22  176.61   26.26
   2 -10  22  157.45   22.81
  -2 -10  22  167.24   23.51
  -2 -10 -23   16.45    7.63
  -2  10  23   28.04    9.70
   2 -10 -23   26.76   12.57
  -2 -10  23   17.66    8.77
  -2  10  23   11.69    9.89
   2 -10  23   23.93    7.84
   2  10  23   19.04    9.64
   2 -10  23   17.50    7.74
  -2  10  24   14.41   10.06
  -2  10  24   13.63    7.54
   2 -10 -24   18.49   10.29
  -2 -10 -24   11.35    9.08
   2 -10  24   -0.98    8.32
   2 -10  24    8.01    7.08
   2  10  24   13.97    7.80
  -2 -10 -25    7.47   10.40
   2 -10 -25   20.06   10.01
   2  10  25    0.71    7.97
   2 -10  25   15.64    9.65
  -2  10  25    9.88    8.58
   2 -10  25    5.02    7.01
  -2 -11   0  352.60   32.14
   2 -11   0  310.94   31.47
   2 -11   0  387.04   33.04
  -2 -11   0  370.85   31.13
   2 -11  -1   31.85    9.31
  -2 -11  -1   45.13   11.87
  -2 -11   1   43.74   13.81
  -2 -11   1   34.76    9.72
   2 -11   1   16.66   10.07
   2 -11  -1   46.50   14.12
   2 -11   1   46.36   13.47
  -2 -11  -1   42.60   11.89
   2 -11   2   10.11    8.76
  -2 -11   2   12.19    9.15
   2 -11  -2    9.13    9.79
   2 -11   2   12.19    9.85
  -2 -11  -2   11.48    7.62
   2 -11  -2  -11.69    8.68
  -2 -11  -2    0.87    4.36
  -2 -11   2   -4.85    4.75
  -2 -11   3   30.17    9.31
   2 -11   3   20.39   11.34
  -2 -11  -3    3.98    7.10
  -2 -11   3   19.60    7.15
   2 -11  -3    2.04    4.31
   2 -11   3    1.94    4.82
   2 -11  -3    7.81    5.62
  -2 -11  -3    4.49    5.27
   2 -11   4  970.33   53.43
  -2 -11  -4  988.47   51.67
   2 -11  -4  943.11   53.66
   2 -11  -4  997.54   53.59
  -2 -11   4  943.90   51.62
  -2 -11   4  999.95   54.83
  -2 -11  -4  963.77   53.81
   2 -11   4  973.64   53.60
  -2 -11   5   25.16    7.38
   2 -11   5   21.30    8.71
  -2 -11   5   24.80    8.32
   2 -11   5   19.81   10.74
  -2 -11  -5   28.24    8.73
   2 -11  -5   50.34   13.20
  -2 -11  -5   22.46    6.30
   2 -11  -5   24.21    8.54
  -2 -11   6  185.66   22.88
   2 -11   6  172.65   24.52
  -2  11   6  197.53   22.79
   2 -11  -6  185.24   23.41
  -2 -11  -6  176.64   24.70
  -2 -11   6  205.39   23.94
   2 -11   6  202.76   23.40
  -2 -11  -6  189.55   23.62
   2 -11  -6  183.05   24.10
  -2 -11   7  262.25   27.44
  -2 -11   7  278.13   27.98
  -2 -11  -7  272.91   29.94
   2 -11  -7  285.57   29.96
   2 -11  -7  243.61   27.00
   2 -11   7  304.59   31.39
   2 -11   7  293.65   30.30
  -2  11   7  276.57   26.57
  -2 -11  -7  273.39   28.16
  -2 -11   8   31.92    9.54
   2 -11   8   52.96   13.09
  -2 -11  -8   39.28   10.85
  -2 -11   8   15.58    6.76
  -2 -11  -8   30.81   10.71
   2 -11  -8   27.08   10.83
  -2  11   8   21.81    7.60
   2 -11  -8   30.44   10.50
   2 -11   8   16.40    7.07
   2 -11   9   71.04   13.49
   2 -11  -9   72.54   14.40
  -2 -11  -9   69.31   17.32
   2 -11  -9   51.22   12.33
  -2 -11   9   53.52   13.36
  -2 -11  -9   80.97   15.17
  -2  11   9   81.63   14.59
   2 -11   9   70.01   15.25
  -2 -11   9   77.48   16.31
  -2 -11  10  395.67   34.36
   2 -11  10  419.33   34.32
   2 -11  10  338.28   31.51
  -2  11  10  393.95   32.71
  -2 -11 -10  413.34   36.91
   2 -11 -10  340.50   32.20
   2 -11 -10  331.41   31.75
  -2 -11  10  327.07   30.81
   2 -11 -11   -1.06    3.39
  -2  11  11    9.05    5.77
  -2 -11  11    7.91    6.49
   2 -11  11    9.73    3.98
   2 -11 -11    9.26    4.66
  -2 -11  11    5.24    4.85
  -2 -11 -11   -4.45    7.69
   2 -11  11   14.24    7.62
   2 -11 -12   61.04   13.57
  -2 -11  12   78.61   14.76
   2 -11  12   75.74   16.05
   2 -11  12   77.42   14.38
  -2 -11 -12   72.49   14.89
  -2  11  12   83.73   15.82
  -2 -11  12   75.50   14.69
   2 -11 -12   60.79   12.89
  -2  11  13   57.43   13.63
  -2 -11  13   73.02   15.80
   2 -11  13   61.98   12.66
  -2 -11  13   59.85   15.20
   2 -11  13   54.63   13.29
   2  11  13   49.77   12.63
  -2 -11 -13   47.41   12.50
   2 -11 -13   61.27   15.24
  -2 -11  14  143.56   21.44
   2 -11  14  148.44   21.05
  -2  11  14  115.39   19.18
  -2 -11 -14  142.51   22.91
   2 -11 -14  122.02   20.66
   2 -11  14  139.78   21.06
   2  11  14  127.53   19.69
  -2 -11  14   97.51   19.60
   2 -11  15   34.62   11.48
  -2 -11  15   32.27    8.84
  -2 -11  15   28.06   12.47
  -2  11  15   15.02    9.17
   2 -11  15   41.36   12.64
  -2 -11 -15   41.65   13.71
   2 -11 -15   23.60   12.26
   2  11  15   34.36    8.74
   2 -11  16   62.63   12.14
  -2 -11  16   64.22   13.24
  -2 -11  16   45.30   13.21
  -2  11  16   57.78   17.19
  -2 -11 -16   43.77   11.48
   2 -11  16   86.69   17.05
   2  11  16   78.25   17.09
   2 -11 -16   69.83   15.63
   2 -11  17    4.46    8.92
  -2 -11  17   -2.12    8.27
   2 -11  17    8.31    5.45
   2 -11 -17    6.09    7.39
  -2 -11 -17   17.27    5.63
   2  11  17   11.75    5.90
  -2 -11  18   53.84   13.12
   2 -11  18   56.57   13.62
   2 -11  18   49.50   12.95
   2 -11 -18   71.46   13.51
  -2 -11 -18   50.68   16.15
   2  11  18   61.97   14.89
   2 -11  18   60.14   16.02
   2 -11  19   22.19   10.20
  -2 -11  19    9.12   10.01
   2 -11  19   15.45    8.06
   2  11  19    1.47    4.00
  -2  11  19   12.69    8.28
  -2 -11 -19   13.62    6.65
   2 -11 -19    7.31    5.16
   2 -11  19    3.70    6.55
   2 -11  20   15.16    9.19
   2 -11  20   12.71    8.79
  -2 -11 -20   28.86   10.86
   2 -11 -20    7.30    9.00
   2  11  20    5.12    4.99
  -2  11  20   12.85    7.53
  -2 -11  20   -0.03    7.71
   2 -11  20   19.44    8.89
  -2 -11 -21   -3.86    8.31
   2 -11  21    8.01    7.76
   2 -11  21   17.88   10.91
  -2 -11  21    5.15    4.71
   2 -11 -21    7.35    6.40
  -2  11  21    4.86    5.13
   2  11  21   19.50   10.57
   2 -11  21   -2.49    7.97
   2 -11  22    7.26    8.66
  -2 -11  22   14.49   11.20
  -2  11  22   13.59    7.07
   2 -11  22    3.21    5.65
   2 -11 -22   11.28    9.74
   2  11  22    7.37    7.62
  -2 -11 -22   -3.42    6.41
   2 -11  22    5.26    7.55
  -2 -11  23   13.63    7.59
   2 -11 -23   22.33    7.85
  -2 -11 -23   54.46   14.03
   2  11  23   21.74   10.73
  -2  11  23   42.53   13.01
   2 -11  23    6.25    5.11
   2 -11  23   40.34   13.72
   2 -11  23   28.70   10.10
  -2 -12   0  108.85   18.85
   2 -12   0   91.24   17.85
   2 -12   0   77.17   14.98
  -2 -12   0  141.49   20.67
   2 -12  -1   26.16    9.23
  -2 -12  -1   15.21    7.09
   2 -12   1    9.47    6.03
  -2 -12   1   46.41   14.30
   2 -12   1   40.35   13.45
  -2 -12  -1   20.69    9.92
   2 -12  -1   40.46   11.36
  -2 -12   1   24.50    7.67
  -2 -12   2   17.45    8.08
   2 -12   2   30.52    9.36
   2 -12  -2    8.30    4.49
  -2 -12  -2   13.12    8.23
  -2 -12  -2   25.23   10.38
  -2 -12   2   46.69   14.82
   2 -12   2   25.82   11.40
   2 -12  -2   22.32    7.62
  -2 -12   3   51.13   15.10
   2 -12   3   29.41   10.45
   2 -12  -3   31.53   10.23
  -2 -12   3   41.18   11.68
  -2 -12  -3   22.18    8.04
   2 -12  -3   25.17    9.96
   2 -12   3   34.18   10.24
  -2 -12  -3   23.29    8.42
   2 -12  -4    9.15    3.81
  -2 -12   4   16.29    8.32
  -2 -12   4   23.77    9.60
   2 -12   4   21.54    8.06
   2 -12   4   33.55   12.24
  -2 -12  -4   25.59    9.48
   2 -12  -4   25.76    7.48
  -2 -12  -4   11.62    9.00
  -2 -12   5   25.63   11.04
   2 -12   5    4.78    6.27
   2 -12   5    4.97    6.22
  -2 -12  -5    8.87    6.75
   2 -12  -5    9.38    5.87
  -2 -12   5   12.03    8.25
   2 -12  -5    8.84    7.51
  -2 -12  -5   24.24    9.90
   2 -12   6   -4.09    5.11
  -2 -12   6   -3.02    6.51
   2 -12   6    6.63   10.44
  -2 -12  -6   -1.58    3.55
   2 -12  -6    9.23   11.28
  -2 -12  -6   -7.73    6.09
   2 -12  -6    0.52    2.94
  -2 -12   6    5.96    4.04
   2 -12  -7    6.62    5.35
  -2 -12   7   -2.46    4.99
   2 -12   7   12.70    5.35
  -2 -12  -7   11.86    4.25
   2 -12  -7   -1.37    7.64
  -2 -12  -7    3.22    2.64
  -2 -12   7    4.34    3.37
   2 -12   7    2.16    4.07
  -2 -12  -8   10.71    5.75
  -2 -12   8   -3.62    6.07
   2 -12   8   10.20    9.74
   2 -12  -8   22.97   10.64
  -2 -12  -8   14.68    7.77
   2 -12  -8   19.26    9.84
  -2 -12   8    5.87    7.74
   2 -12   8   20.00    8.88
  -2 -12   9   28.96    7.26
   2 -12   9   58.57   15.02
  -2 -12  -9   48.06   14.10
   2 -12  -9   38.36   12.51
  -2 -12  -9   40.19   12.47
  -2 -12   9   35.06   12.54
   2 -12  -9   33.45   11.58
   2 -12   9   36.52   10.16
  -2 -12  10   -6.07    7.98
   2 -12  10    7.00    6.58
  -2 -12 -10    9.45   10.18
   2 -12 -10   -5.96    4.60
  -2 -12  10    0.60    3.31
  -2 -12 -10   -1.06    6.75
   2 -12 -10   -1.37    4.91
   2 -12  10    1.09    7.54
   2 -12  11   63.29   13.55
   2 -12 -11   52.17   13.96
  -2 -12 -11   47.63   13.10
  -2 -12  11   43.25   11.49
  -2 -12 -11   44.01   14.57
   2 -12  11   44.01   13.31
  -2 -12  11   42.56   10.39
   2 -12 -11   56.56   13.34
  -2 -12  12   25.81   10.23
   2 -12  12   15.29    8.65
   2 -12 -12    9.37    7.39
  -2 -12  12   30.27   10.49
   2 -12 -12   14.22    4.50
  -2 -12 -12   24.88   10.79
   2 -12  12   12.72    9.73
  -2 -12  13   17.99   10.02
   2 -12  13   16.64    9.82
   2 -12 -13    8.37    6.46
   2 -12  13   16.53    7.63
  -2 -12 -13    2.05    5.64
   2 -12 -13   15.26    9.60
   2 -12  14   12.42    8.75
  -2 -12  14    0.44    6.96
  -2 -12 -14    8.68    8.22
   2 -12 -14    7.29    5.31
   2 -12  14   -5.96    7.19
   2 -12 -14   24.95   13.53
  -2 -12  15    4.30    5.89
   2 -12  15    3.32    5.61
   2 -12 -15   32.19   12.02
   2 -12  15   19.18    9.37
   2 -12 -15    5.38    7.89
  -2 -12 -15   22.13   11.91
   2 -12  16   -5.36    4.06
  -2 -12  16   -7.45    9.37
   2 -12 -16   -1.08    6.81
   2 -12  16   12.68    7.69
   2  12  16   -2.56    7.34
  -2 -12 -16    7.48   10.42
   2 -12  17   -2.64    6.66
  -2 -12  17   14.82   11.08
   2 -12  17    9.48    7.62
  -2 -12 -17   -0.26    6.31
   2 -12 -17   -6.27    8.44
   2 -12  17    3.93    9.72
   2  12  17   -2.93    8.87
   2 -12  18   26.14   10.82
   2 -12  18   13.14    6.56
  -2 -12  18   31.48   11.84
  -2 -12 -18   26.32   11.83
   2 -12 -18   16.58    9.57
   2  12  18   18.51    4.55
   2 -12  18    6.52    4.52
   2 -12  19   20.58    9.66
  -2 -12  19   19.86   10.74
   2 -12  19   38.09   11.91
   2 -12 -19   40.08   13.00
   2  12  19   25.60   10.07
  -2 -12 -19   18.34   10.80
   2 -12  19   18.30    5.50
  -2 -12  20    5.29    6.45
   2 -12  20   -6.15   10.37
   2 -12 -20   -2.15    8.93
   2 -12  20    5.56    9.21
   2 -12  20   -4.79    6.10
  -2 -12 -20    3.39    5.86
   2  12  20    5.09    9.20
   2 -12  21    5.64    4.05
  -2 -12 -21   18.35    9.94
  -2 -12  21   -1.59    7.48
   2 -12 -21   11.81    9.62
   2 -12  21   -2.41    8.07
   2  12  21   14.35    3.72
   2 -12  21    3.93    9.62
  -2 -13   0  379.76   37.16
   2 -13   0  367.11   34.82
  -2 -13   0  340.69   34.35
   2 -13   0  316.39   33.44
   2 -13  -1   65.89   14.44
  -2 -13  -1   91.57   20.80
   2 -13   1   78.61   16.13
  -2 -13   1   49.22   13.35
   2 -13   1   62.65   14.70
   2 -13  -1   74.93   16.46
  -2 -13   1   60.35   13.67
  -2 -13  -1   69.07   16.28
   2 -13  -2    4.92    2.53
  -2 -13  -2   23.05    9.02
  -2 -13   2    8.10    6.54
   2 -13   2    6.86    5.58
   2 -13  -2    5.30    8.52
  -2 -13   2    7.61    5.07
   2 -13   2   27.59   11.25
  -2 -13  -2   23.55    8.68
   2 -13   3   10.72    8.24
   2 -13  -3    5.44    6.87
  -2 -13   3   27.44   10.91
  -2 -13  -3   -2.17    4.18
  -2 -13   3   -1.77    6.59
   2 -13   3    9.23    4.99
  -2 -13  -3   11.03    7.37
   2 -13  -3   11.47    8.25
  -2 -13   4   61.56   15.35
  -2 -13   4   47.59   12.66
   2 -13   4   71.83   17.48
   2 -13   4   65.70   15.88
   2 -13  -4   55.42   13.53
  -2 -13  -4   57.21   14.70
   2 -13  -4   38.86   15.32
  -2 -13  -4   60.10   14.72
  -2 -13   5    9.92    7.51
   2 -13   5    8.09    6.83
  -2 -13   5    8.85    7.05
   2 -13   5   -1.72    8.13
  -2 -13  -5    6.31    4.92
   2 -13  -5   13.52   12.61
  -2 -13  -5   11.92    6.82
   2 -13  -5    9.81    6.55
   2 -13   6   32.63   11.76
   2 -13   6   51.27   16.12
   2 -13  -6   33.29   12.43
  -2 -13  -6   26.49   10.17
   2 -13  -6   35.06   11.16
  -2 -13   6   43.16   13.53
  -2 -13  -6   40.48   12.24
  -2 -13   6   68.15   15.02
  -2 -13   7  212.51   26.92
   2 -13   7  178.49   24.96
   2 -13  -7  215.03   26.55
  -2 -13  -7  143.99   22.01
  -2 -13  -7  243.43   30.56
   2 -13  -7  219.68   27.42
   2 -13   7  223.52   27.54
  -2 -13   7  208.48   27.05
  -2 -13   8    0.95   11.01
   2 -13   8   11.57    8.75
  -2 -13  -8    3.57    4.37
  -2 -13  -8   16.22   10.16
   2 -13  -8   13.74    7.84
  -2 -13   8   20.68    9.48
   2 -13   8    5.11    3.99
   2 -13  -8   15.94    8.26
   2 -13   9   66.31   15.78
  -2 -13  -9   74.80   17.79
  -2 -13   9   78.68   15.44
   2 -13  -9   47.31   12.93
   2 -13   9   46.26   12.87
  -2 -13  -9   66.35   13.67
   2 -13  -9   64.77   14.61
  -2 -13 -10   19.74    7.06
  -2 -13  10   35.02    8.89
   2 -13  10   21.41   11.13
   2 -13 -10   32.59   11.16
  -2 -13 -10   48.71   14.26
   2 -13 -10   42.30   12.40
   2 -13  10   20.94    7.45
   2 -13  11   84.43   18.43
  -2 -13  11  108.97   19.51
   2 -13  11   94.96   18.33
  -2 -13 -11   68.67   16.81
   2 -13 -11   59.02   14.29
   2 -13 -11   84.78   17.83
  -2 -13 -11   99.59   18.43
  -2 -13 -12   19.28    8.98
  -2 -13  12   29.46   11.36
   2 -13 -12   19.91   10.75
  -2 -13 -12   20.98    7.61
   2 -13 -12   47.32   13.85
   2 -13  12   19.74    8.81
   2 -13  12    7.38    5.93
  -2 -13 -13   -1.62    5.42
  -2 -13  13    9.29    8.19
   2 -13 -13    2.42    4.72
  -2 -13 -13   11.50    7.45
   2 -13  13    9.89    7.71
   2 -13 -13   -0.96    4.10
   2 -13  13   -2.48    4.45
  -2 -13  14    0.11    5.25
   2 -13  14   14.87    9.44
  -2 -13 -14    7.55    7.15
   2 -13 -14    2.83    3.18
   2 -13 -14    6.70    5.72
  -2 -13 -14   -5.30    5.04
   2 -13  14  -11.69    9.43
   2 -13  15   34.40    9.02
  -2 -13  15   22.60    6.88
   2 -13  15   51.68   14.13
  -2 -13 -15   50.20   14.73
   2 -13 -15   32.09   12.26
   2 -13 -15   11.95    7.97
   2 -13  16    1.57    5.86
  -2 -13 -16    7.05    7.70
   2 -13 -16   23.33   12.68
   2 -13 -16   -7.89    4.73
  -2 -13  16   12.36    9.50
   2 -13  16   22.40    9.27
   2 -13 -17   50.51   17.31
   2 -13  17   23.59   12.56
  -2 -13  17   35.07   10.22
   2 -13  17   25.70    8.81
   2 -13 -17   38.59   11.21
  -2 -13 -17   31.94   12.29
   2 -13  18   -0.87    6.16
   2 -13  18   18.91    9.71
  -2 -13  18   16.26    4.77
   2 -13 -18   14.86    9.62
  -2 -13 -18   -2.16    7.56
   2 -13 -18    5.38    5.24
   2 -13  19    5.63    6.31
  -2 -13  19    7.65    8.21
   2 -13  19    1.46    6.09
  -2 -13 -19    1.50    6.01
   2 -13 -19   11.10   10.58
  -2 -14   0   72.08   15.42
  -2 -14   0   81.88   16.23
   2 -14   0   72.54   16.44
   2 -14   0   72.96   18.39
   2 -14   1    6.60    6.33
  -2 -14   1    9.33    4.70
   2 -14   1   13.39    9.80
  -2 -14  -1    7.39    8.07
   2 -14  -1    5.04    5.04
  -2 -14   1   14.05    7.23
   2 -14  -1   16.38    8.80
  -2 -14  -1    9.59    9.17
  -2 -14   2   -0.11    6.25
   2 -14   2   -0.64    6.58
  -2 -14  -2   -1.39    3.53
  -2 -14   2    4.13    5.57
   2 -14  -2    0.72    7.28
   2 -14   2    0.54    7.34
  -2 -14  -2    1.22    4.29
   2 -14  -2    1.68    3.88
   2 -14  -3   68.53   16.99
  -2 -14   3   48.69   14.01
  -2 -14   3   60.20   14.68
   2 -14   3   96.45   20.35
   2 -14   3   48.74   13.52
  -2 -14  -3   75.65   17.32
   2 -14  -3   71.20   17.19
  -2 -14  -3   86.18   18.26
   2 -14  -4   16.17    7.09
   2 -14   4   27.13    8.36
  -2 -14  -4   30.07   12.28
  -2 -14   4   30.11   11.65
   2 -14   4    8.18    8.11
  -2 -14  -4   26.11   12.54
  -2 -14   4   44.00   14.20
   2 -14  -4   27.69   11.07
   2 -14   5    1.04    4.02
  -2 -14   5    8.51    6.88
   2 -14   5   -0.79    4.15
   2 -14  -5    1.88    3.31
  -2 -14  -5    9.17    8.64
   2 -14  -5   -2.62    3.96
  -2 -14  -5    6.04    9.44
  -2 -14   5   -9.17    5.79
   2 -14   6    3.09    7.56
  -2 -14   6   -3.09    5.95
   2 -14   6   -8.39    7.69
  -2 -14  -6    1.46    7.34
   2 -14  -6   -4.54    6.45
   2 -14  -6   -4.52    4.64
  -2 -14  -6   -2.95    5.13
  -2 -14   7   39.31   10.15
   2 -14   7   53.94   16.30
  -2 -14  -7   50.57   16.73
   2 -14  -7   56.03   14.32
  -2 -14  -7   55.34   15.67
   2 -14  -7   47.40   14.11
   2 -14   7   65.36   15.01
  -2 -14   8   25.96   10.38
   2 -14   8    8.89    7.61
  -2 -14  -8   30.55   10.93
   2 -14  -8   28.84   13.37
   2 -14  -8   12.15    6.11
  -2 -14  -8   22.36   12.50
   2 -14   8   17.26    9.41
  -2 -14   9   19.91    8.24
   2 -14   9   22.43   10.98
  -2 -14  -9    8.53   10.27
   2 -14  -9   14.12    7.80
  -2 -14  -9    4.83    6.32
   2 -14   9   -0.77    3.15
   2 -14  -9   17.58    8.12
   2 -14 -10    7.15    6.11
  -2 -14  10   21.64   10.35
   2 -14  10   23.00   11.06
   2 -14  10   -6.71    7.03
  -2 -14 -10    4.03    5.02
  -2 -14 -10    5.12    8.63
   2 -14 -10   -3.13    3.86
   2 -14  11    2.83    9.38
   2 -14 -11   -5.09    6.56
   2 -14  11   -4.70    5.20
  -2 -14 -11   -2.04    6.70
   2 -14 -11   -4.24    7.09
  -2 -14 -11   11.63    9.01
  -2 -14  11   12.27   10.11
  -2 -14  12   11.30    4.05
   2 -14  12    5.85    9.24
   2 -14 -12    4.07    6.33
  -2 -14 -12   17.54    9.10
   2 -14 -12    9.40    8.87
   2 -14  12   29.98   12.30
  -2 -14 -12   -0.06    5.03
  -2 -14  13   21.50   11.82
   2 -14  13   31.55   13.02
  -2 -14 -13   52.46   14.64
  -2 -14 -13   45.76   15.42
   2 -14  13   41.03   13.63
   2 -14 -13   29.74   13.19
   2 -14 -13   30.06   12.26
  -2 -14  14   28.38    9.07
   2 -14 -14   18.41   11.32
   2 -14  14   24.34   12.12
   2 -14  14    6.55    6.10
  -2 -14 -14   22.47    9.09
  -2 -14 -14   23.67   12.13
   2 -14 -14   27.53   10.56
   2 -14  15   -2.12    5.33
  -2 -14  15    9.90   11.94
   2 -14 -15   -3.40    5.50
  -2 -14 -15    2.10    4.92
   2 -14  15   -4.45    4.79
  -2 -14 -15   -0.98    7.50
   2 -14 -15   -5.78    7.86
   2 -14  16   -8.70   10.78
  -2 -14 -16   -0.98    6.10
  -2 -14  16   -2.81    7.73
   2 -14  16    3.55    3.40
   2 -14 -16   11.27    6.46
  -2 -14 -16   -2.33    5.33
   2 -14 -16    0.91    4.38
  -2 -15   0   31.80   14.94
   2 -15   0   52.08   13.39
   2 -15   0   33.85   12.82
  -2 -15   1    1.40    8.33
   2 -15   1   -1.69    4.18
  -2 -15  -1   19.63   11.03
   2 -15  -1   10.38    8.32
   2 -15  -1   16.19   10.56
   2 -15   1   25.61    8.73
  -2 -15  -1   -8.80    7.92
  -2 -15   2   25.05   11.07
   2 -15   2   21.76   11.44
  -2 -15  -2   20.54   12.70
   2 -15  -2   20.49   10.41
   2 -15  -2   18.25   11.29
  -2 -15  -2   56.37   17.02
   2 -15   2   31.50   11.64
  -2 -15   3   51.87   15.73
  -2 -15  -3   69.26   15.45
   2 -15   3   49.96   12.63
  -2 -15  -3   62.56   17.03
   2 -15  -3   43.95   13.26
   2 -15   3   58.01   15.39
   2 -15  -3   54.53   16.75
   2 -15  -4   98.44   19.11
  -2 -15  -4   86.31   17.37
   2 -15  -4  132.79   23.58
   2 -15   4   88.40   19.42
  -2 -15  -4  115.39   19.54
   2 -15   4  131.33   21.38
  -2 -15   4  119.76   21.24
   2 -15  -5    0.38    6.07
  -2 -15  -5   19.81   11.54
  -2 -15  -5    0.12    6.04
  -2 -15   5   -4.32    7.17
   2 -15  -5    9.36    9.29
   2 -15   5    7.96    7.70
   2 -15   5   14.27   10.25
  -2 -15   6   44.30   14.62
  -2 -15  -6   24.25   10.64
  -2 -15  -6   35.27   11.51
   2 -15  -6   45.89   16.41
   2 -15   6   43.11   14.15
   2 -15  -6   44.85   12.67
   2 -15   6   47.60   14.43
  -2 -15   7   74.65   17.36
   2 -15   7   48.79   15.77
   2 -15   7   50.48   15.98
   2 -15  -7   43.87   12.20
  -2 -15  -7  107.08   22.07
   2 -15  -7   58.33   16.89
  -2 -15  -7   51.19   15.23
  -2 -15  -8  134.57   23.37
   2 -15   8  203.12   28.57
   2 -15   8  143.18   23.80
  -2 -15  -8  165.17   25.81
   2 -15  -8  175.38   26.62
   2 -15  -8  179.46   26.72
  -2 -15   8  162.05   24.53
  -2 -15   9    8.84    5.57
   2 -15   9    9.83    6.68
  -2 -15  -9    0.15    7.45
   2 -15  -9   10.53    8.87
   2 -15  -9    5.17    5.65
   2 -15   9    5.78    6.86
  -2 -15  -9   22.04    9.22
  -2 -15  10   17.44    8.72
   2 -15  10   17.27    9.47
  -2 -15 -10   33.97   12.57
   2 -15  10   45.51   13.77
  -2 -15 -10   41.12   16.70
   2 -15 -10   41.85   13.20
   2 -15 -10   19.08   11.12
  -2 -15  11   -9.27   11.18
   2 -15  11   12.52    7.98
  -2 -15 -11   10.74    6.44
   2 -15 -11   -1.49    5.02
  -2 -15 -11   13.48   10.75
   2 -15 -11    5.76    5.12
   2 -15  11   15.10    7.73
  -2 -15 -12   15.39   11.10
  -2 -15  12   11.20    8.01
   2 -15  12    1.80    7.57
  -2 -15 -12   27.70   13.94
   2 -15 -12   21.45   11.01
   2 -15  12   18.82    5.71
   2 -15 -12   27.31    9.92
  -2 -16   0   68.43   16.96
   2 -16   0   30.48   12.70
   2 -16   0   35.72   12.11
  -2 -16   1   -3.00    7.89
   2 -16   1   -2.03    4.81
  -2 -16  -1    2.16    5.62
   2 -16  -1   -1.76    8.12
   2 -16   1   15.22    8.41
   2 -16  -1   -7.06    9.89
   2 -16   2    8.19    3.48
  -2 -16   2   -1.29    6.72
   2 -16   2    2.39    5.48
  -2 -16  -2   -0.61    7.56
   2 -16  -2   -2.50    6.09
   2 -16  -2    6.85    8.28
   2 -16   3   -7.99    5.48
  -2 -16   3    5.39    6.33
  -2 -16  -3    1.72    4.45
   2 -16  -3   13.63    7.12
   2 -16   3    7.63   11.90
   2 -16  -3    2.98    3.22
   2 -16   4   13.14    7.69
  -2 -16   4    4.93    7.73
  -2 -16  -4   21.91   11.47
   2 -16  -4   29.21   10.54
   2 -16  -4   33.89   12.24
   2 -16   4   29.32   13.89
  -2 -16   5    0.61    9.76
   2 -16   5    3.01    9.63
   2 -16  -5   -1.25    7.74
   2 -16   5    5.59    5.16
  -2 -16  -5   -0.89    4.41
   2 -16  -5   -1.38    4.00
   2 -16  -6    5.18    5.82
  -2 -16   6   34.46   11.70
  -2 -16  -6   32.09   13.40
   2 -16  -6    9.63    5.34
   2 -16   6    7.58    7.05
   2 -16   6   16.92    5.04
   3   0   0    1.42    1.15
  -3   0   0   -1.39    2.33
   3   0  -1    0.12    0.62
   3   0   1    0.46    0.64
  -3   0   1    1.45    1.15
   3   0  -2 1026.73   20.51
  -3   0   2 1055.60   30.54
   3   0   3    0.80    1.42
  -3   0   3    1.49    2.52
   3   0   4   21.83    3.53
  -3   0   4   20.22    3.26
  -3   0   4   31.04    6.28
  -3   0   5    0.64    0.75
  -3   0   5   -0.61    2.95
   3   0   5    0.71    1.64
   3   0   6   68.97    7.99
  -3   0   6   62.75    6.70
  -3   0   6   73.61    9.54
  -3   0   7   -0.01    1.78
  -3   0   7   -1.92    3.16
   3   0   7   -1.83    2.10
  -3   0   8   24.09    6.21
   3   0   8   24.23    5.62
  -3   0   8   24.74    5.10
  -3   0   9    2.31    3.29
   3   0   9    1.39    1.16
  -3   0   9    3.12    6.16
   3   0  10  190.24   16.57
  -3   0  10  210.18   19.23
  -3   0  10  182.90   15.15
  -3   0  11    1.40    2.38
   3   0  11   -2.57    2.89
  -3   0  11   -0.83    3.30
  -3   0  12   13.27    4.05
  -3   0  12   10.25    5.92
   3   0  12   11.49    4.03
  -3   0  13   -1.67    3.31
  -3   0  13   -1.62    2.64
   3   0  13   -2.91    5.15
  -3   0  14    1.24    2.41
   3   0  14    4.89    2.63
  -3   0  14    4.35    5.70
   3   0  14    8.99    6.15
  -3   0  15    1.27    2.55
   3   0  15    0.24    4.95
  -3   0  15   -1.29    3.21
   3   0  15    2.92    4.85
  -3   0  16    9.44    5.48
   3   0  16   19.24    7.36
  -3   0  16   10.71    8.46
   3   0  16    8.07    2.52
  -3   0  17   -2.39    3.12
   3   0  17    0.02    4.18
  -3   0  17   -5.19    5.40
   3   0  17    2.42    3.58
  -3   0  18  752.90   41.13
   3   0  18  748.58   42.64
  -3   0  18  730.31   43.33
  -3   0  19   -4.61    5.43
  -3   0  19    6.21    8.29
   3   0  19   -0.60    4.64
   3   0  19   -5.82    7.24
  -3   0  20   -0.04    2.80
   3   0  20    4.17    5.76
  -3   0  20    0.52    4.98
   3   0  20   -5.27    6.68
   3   0  21   -3.42    4.48
  -3   0  21   -2.51    6.77
  -3   0  21   -0.02    8.89
   3   0  21   -4.24    4.23
  -3   0  22   10.30    4.84
   3   0  22   11.24    8.55
  -3   0  22    3.57    4.00
   3   0  22    4.62    3.13
  -3   0  23   -3.05    6.06
   3   0  23   10.16    5.81
  -3   0  23   -2.69    4.04
   3   0  23   -4.17    5.46
  -3   0  24   22.95    7.86
  -3   0  24   22.04    8.81
   3   0  24   20.72    7.37
   3   0  24    9.89    5.02
   3   0  25   -3.37    8.07
   3   0  25    5.71    4.76
  -3   0  25    1.12    4.71
  -3   0  25    8.81    7.89
   3   0  26   31.11   13.07
  -3   0  26   41.78   13.99
   3   0  26   57.88   15.68
  -3   0  26   66.68   17.10
  -3   0  27    2.43    6.55
   3   0  27   -0.46    4.58
  -3   0  27    4.88    9.99
   3   0  27   -0.99    9.22
   3   0  28  -10.45   10.39
  -3   0  28   -1.89    5.57
   3   0  28   -6.17    3.57
  -3   0  28    4.50    9.77
  -3   0  29    4.06    4.97
   3   0  29    6.74    5.19
  -3   0  29   -3.32    6.03
   3   0  29   -9.82    5.29
  -3   0  30   11.14    8.31
   3   0  30   13.86    7.12
  -3   0  30   14.49    4.36
   3   0  30   15.73    7.63
   3   0  31  -11.62    6.93
  -3   0  31    0.47    6.70
  -3   0  31   -3.12    5.44
  -3  -1   0    1.34    0.71
   3  -1   0    0.58    0.93
  -3   1   0    2.19    2.94
  -3  -1   0   -1.03    2.38
  -3  -1   1  760.45   19.64
  -3  -1   1  850.07   25.07
   3  -1  -1  850.95   23.68
   3  -1   1  850.04   25.02
   3   1   1  935.09   16.99
  -3  -1  -1  853.46   24.85
  -3   1  -1  854.31   29.80
  -3   1   1  826.30   28.42
  -3  -1  -1  864.59   18.91
  -3  -1   2 1758.54   32.12
  -3  -1   2 1699.98   36.44
   3  -1   2 1810.97   37.27
   3  -1  -2 1717.26   34.39
   3   1   2 1625.30   26.56
  -3   1   2 1655.82   40.85
  -3  -1  -3 3821.29   41.72
  -3   1   3 3525.61   62.00
   3  -1   3 3702.30   55.83
  -3  -1   3 3417.02   49.68
  -3  -1   4    8.28    1.60
  -3  -1  -4   10.96    2.77
  -3   1   4    9.55    4.20
  -3  -1   4    8.79    3.58
   3  -1   4    8.09    2.87
   3   1   4    8.55    2.76
  -3   1   4    6.72    1.99
  -3  -1   4    9.85    2.76
   3   1   5  573.47   21.76
  -3   1   5  552.31   25.74
  -3  -1   5  626.64   25.71
   3  -1   5  518.94   22.41
  -3   1   5  538.27   20.79
  -3  -1  -5  565.33   18.92
  -3  -1   5  514.32   15.76
  -3  -1   5  494.63   21.16
   3   1   6 2277.78   46.54
  -3   1   6 2233.23   54.28
  -3  -1   6 2402.68   52.70
  -3  -1  -6 2126.08   40.62
  -3   1   6 2177.09   44.31
  -3  -1   6 2220.20   37.30
   3  -1   6 2077.38   46.72
  -3  -1   7  324.09   15.53
   3   1   7  410.54   21.09
  -3   1   7  342.19   22.28
  -3  -1   7  374.59   21.84
   3  -1   7  363.79   20.59
  -3   1   7  333.77   18.06
  -3   1   8  900.26   31.14
  -3  -1   8  987.10   29.30
   3   1   8  855.24   32.17
  -3  -1   8  899.93   35.93
  -3   1   8  861.64   35.63
   3  -1   8  993.95   35.71
  -3  -1   9  371.58   19.54
   3   1   9  410.78   23.38
  -3   1   9  372.04   24.78
  -3  -1   9  326.04   22.57
  -3   1   9  361.11   20.71
   3  -1   9  335.98   21.30
  -3  -1  10 1010.75   40.14
   3   1  10 1136.74   40.49
  -3  -1  10 1081.47   35.44
   3  -1  10 1070.83   39.81
  -3   1  10  964.24   40.76
  -3   1  10 1007.99   36.23
   3   1  11   -0.01    2.81
  -3   1  11    4.68    3.46
  -3  -1  11    2.43    3.31
  -3   1  11    4.96    2.31
  -3  -1  11    5.05    4.26
   3  -1  11    4.53    4.37
  -3  -1  12 1947.93   52.91
   3   1  12 2136.76   60.35
  -3   1  12 2014.88   55.83
  -3  -1  12 1972.90   59.55
   3  -1  12 1830.71   56.73
  -3   1  12 2145.31   64.29
   3   1  12 1913.63   56.10
  -3  -1  13  496.65   28.18
   3   1  13  432.27   28.04
   3  -1  13  545.25   31.55
  -3   1  13  595.46   35.21
  -3  -1  13  474.68   30.79
  -3   1  13  513.91   29.07
   3   1  13  490.30   29.78
  -3   1  14   41.05    9.56
  -3  -1  14   30.33    6.92
   3   1  14   21.65    6.66
   3  -1  14   38.09    9.32
  -3   1  14   26.14    8.95
  -3  -1  14   22.56    7.13
   3   1  14   38.99    8.51
  -3  -1  15  112.98   14.46
  -3   1  15  105.12   14.65
   3   1  15  100.10   13.95
   3  -1  15  103.08   15.28
  -3   1  15  137.97   18.68
  -3  -1  15  116.24   15.60
   3   1  15   98.38   13.28
   3  -1  15  105.62   16.71
  -3  -1  16 1319.12   51.04
   3   1  16 1281.80   53.34
  -3   1  16 1324.97   55.73
   3  -1  16 1269.56   52.48
  -3   1  16 1319.73   51.94
  -3  -1  16 1210.12   52.86
   3   1  16 1289.73   52.21
   3  -1  16 1283.74   53.92
  -3  -1  17  187.50   20.09
   3   1  17  195.63   21.76
   3  -1  17  152.41   19.12
   3  -1  17  147.56   18.74
  -3   1  17  153.45   20.68
  -3  -1  17  143.80   18.82
   3   1  17  177.47   20.75
  -3   1  17  153.42   18.38
  -3  -1  18    7.07    8.94
  -3   1  18   -0.14    2.66
  -3  -1  18   11.42    6.25
   3  -1  18    3.61    2.67
   3   1  18   16.80    6.85
  -3   1  18    3.67    3.63
   3   1  18    1.96    3.77
   3  -1  18    3.85    4.57
  -3  -1  19   32.69   10.48
  -3   1  19   29.62    9.90
  -3   1  19   18.78    8.10
  -3  -1  19   19.17    6.97
   3  -1  19   44.49   10.60
   3   1  19   40.69   10.40
   3   1  19   19.77   10.29
   3  -1  19   19.87    9.64
  -3  -1  20  499.30   35.20
   3   1  20  547.41   37.82
   3  -1  20  502.53   36.29
  -3   1  20  549.44   39.07
  -3   1  20  521.40   36.70
   3   1  20  550.51   38.28
   3  -1  20  600.28   40.42
  -3   1  21   12.53    7.03
  -3  -1  21   33.14    9.56
   3  -1  21   44.98   12.35
   3   1  21   45.57   12.12
  -3   1  21   47.99   12.59
   3   1  21   28.20    9.69
  -3  -1  21   31.97    9.45
   3  -1  21   23.73   10.64
  -3  -1  22  188.12   22.74
   3   1  22  192.65   23.38
   3   1  22  234.71   25.92
   3  -1  22  184.33   23.35
  -3   1  22  176.30   24.13
   3  -1  22  206.03   25.43
  -3   1  22  157.70   21.56
  -3  -1  23  400.73   33.96
   3   1  23  443.65   37.34
  -3   1  23  414.82   37.09
   3   1  23  408.44   34.66
  -3  -1  23  384.74   34.67
   3  -1  23  359.46   32.65
   3  -1  23  382.63   32.94
  -3   1  23  413.22   35.14
  -3  -1  24  110.02   17.75
   3   1  24   93.28   17.80
   3  -1  24   89.66   17.48
  -3   1  24   81.39   16.65
  -3   1  24   98.33   19.03
  -3  -1  24   88.91   16.74
   3   1  24  105.15   18.24
   3  -1  24  111.24   18.43
  -3   1  25   -0.07    3.72
   3   1  25    0.05    6.13
   3  -1  25    1.64    6.45
  -3  -1  25   -0.98    5.99
  -3  -1  25    5.96    2.60
  -3   1  25    0.13    6.50
   3   1  25    9.77    9.95
   3  -1  25    9.77    7.64
  -3  -1  26  245.43   28.03
   3  -1  26  239.87   28.05
   3   1  26  278.84   29.45
  -3   1  26  195.98   25.84
  -3  -1  26  271.72   30.52
   3   1  26  224.65   30.10
   3  -1  26  248.51   28.80
  -3   1  26  219.67   27.00
   3   1  27   74.63   18.16
   3  -1  27   84.26   17.90
   3  -1  27   90.78   17.86
  -3  -1  27   73.68   16.38
   3   1  27   69.50   15.03
  -3   1  27  109.69   18.30
  -3  -1  27   84.86   18.31
  -3   1  27   98.90   18.16
  -3   1  28   29.30   13.08
  -3  -1  28   15.57    9.85
   3   1  28   18.95   10.50
   3   1  28   38.68    9.34
   3  -1  28   10.81    5.82
  -3   1  28   21.71    8.63
  -3  -1  28   33.48   11.85
   3  -1  28   35.66   13.03
  -3   1  29   19.29   11.35
   3   1  29   32.91   10.12
   3  -1  29   16.66    6.11
  -3  -1  29   32.75   11.93
  -3  -1  29   44.22   12.09
  -3   1  29   15.34    5.12
   3   1  29   36.40   11.19
   3  -1  29    5.01    7.71
   3  -1  30   93.41   18.56
  -3   1  30   62.29   15.82
  -3  -1  30   77.78   16.96
  -3   1  30   77.65   20.90
   3   1  30  101.07   19.26
   3   1  30   75.96   17.65
   3  -1  30   81.25   17.04
  -3  -1  30   68.17   17.15
  -3   1  31   96.11   19.23
  -3  -1  31   70.93   16.32
   3   1  31   93.68   20.14
   3   1  31   94.79   18.59
   3  -1  31   93.10   18.09
  -3   1  31  103.26   23.49
  -3  -1  31   67.50   17.70
   3  -1  31   84.64   19.62
  -3  -2   0   -0.43    2.05
   3  -2   0   -0.38    1.23
  -3   2   0    2.82    3.54
   3  -2   0   -1.06    1.15
  -3  -2   0    0.33    0.88
   3   2   1    3.04    1.28
  -3  -2   1    5.37    2.29
  -3  -2  -1    3.33    1.29
   3  -2   1    3.12    1.72
   3  -2   1    1.01    2.05
  -3   2  -1    6.19    3.74
   3  -2  -1    3.41    2.03
  -3  -2   1    2.84    1.14
  -3   2   1    1.14    2.98
   3  -2  -1    0.93    0.84
   3   2   2  276.17   11.02
   3  -2   2  262.38   10.32
  -3   2   2  252.53   16.93
  -3  -2  -2  238.21   13.77
   3  -2  -2  261.68   15.82
   3  -2   2  236.28   15.57
  -3  -2   2  267.04   15.02
   3  -2  -2  272.22   13.04
  -3  -2   3  554.83   22.16
   3  -2   3  612.99   15.95
   3   2   3  551.91   17.63
   3  -2   3  549.58   24.35
  -3   2   3  601.10   26.27
   3  -2  -3  567.09   23.41
   3  -2   4  866.11   20.28
  -3  -2   4  934.96   29.49
  -3  -2   4  895.88   16.82
  -3  -2  -4  955.58   27.95
   3  -2   4  832.46   30.17
  -3   2   4  953.08   33.93
   3  -2   5  375.46   20.85
  -3  -2   5  339.68   18.85
   3   2   5  323.89   16.69
  -3  -2   5  352.44   12.63
  -3   2   5  395.60   19.66
  -3  -2  -5  345.65   17.66
  -3   2   5  334.11   20.88
   3  -2   5  340.37   14.28
  -3  -2   6    5.46    4.30
  -3  -2   6    6.44    3.61
  -3  -2  -6    2.14    2.15
  -3   2   6    1.35    2.04
   3  -2   6    1.88    3.11
   3   2   6    1.66    1.29
  -3  -2   6    4.01    2.07
   3  -2   6    2.33    1.38
  -3   2   6   -0.83    1.94
  -3  -2   7  275.48   18.41
   3   2   7  298.62   18.18
  -3  -2   7  257.99   13.93
  -3   2   7  285.46   20.27
  -3  -2  -7  286.77   17.03
  -3  -2   7  219.93   16.46
  -3   2   7  282.41   17.80
   3  -2   7  252.62   18.16
  -3  -2   8  406.29   23.07
   3   2   8  405.77   22.00
  -3  -2   8  420.80   19.37
  -3   2   8  365.67   23.98
  -3  -2   8  425.33   23.89
  -3  -2  -8  431.23   22.03
   3  -2   8  395.91   22.79
  -3   2   8  442.20   23.40
  -3   2   9    6.54    4.34
   3  -2   9    8.56    3.02
   3   2   9    5.03    4.60
  -3  -2   9    7.43    2.89
  -3   2   9    8.56    5.68
  -3  -2   9    2.82    2.25
  -3  -2   9   -1.49    2.86
  -3   2  10    0.29    1.57
   3  -2  10   -1.24    2.01
   3   2  10   -1.09    3.10
  -3  -2  10    0.88    1.80
  -3   2  10    4.07    3.93
  -3  -2  10    3.49    2.39
   3   2  10   -0.13    2.78
  -3   2  11   23.90    6.40
  -3  -2  11   35.10    7.53
   3   2  11   30.52    6.38
  -3   2  11   22.37    5.78
  -3  -2  11   27.17    7.70
   3  -2  11   35.41    8.23
   3   2  11   33.50    7.82
   3   2  12   91.57   12.44
  -3  -2  12  108.32   12.72
   3  -2  12  114.80   14.64
  -3   2  12   92.90   12.41
   3   2  12   93.88   13.10
  -3   2  12  118.25   13.91
   3   2  13   63.89   11.06
   3  -2  13   46.93    9.68
   3   2  13   55.52    9.82
  -3  -2  13   63.83   10.56
  -3   2  13   63.63   12.26
  -3  -2  13   46.21   10.69
  -3   2  13   64.39   10.84
  -3   2  14  110.12   15.11
   3   2  14   92.45   13.34
  -3  -2  14  116.05   14.17
   3  -2  14  101.56   14.13
   3   2  14  131.37   16.01
  -3   2  14  136.32   15.97
   3   2  15   89.49   13.25
   3   2  15  116.16   16.31
  -3  -2  15  123.75   15.13
   3  -2  15   98.24   14.39
  -3   2  15  118.00   15.64
  -3  -2  15   96.23   14.65
  -3   2  15  120.20   16.06
   3   2  16  177.17   19.50
  -3  -2  16  206.80   20.64
   3   2  16  182.35   19.62
  -3   2  16  208.33   22.20
  -3  -2  16  198.34   21.78
   3  -2  16  217.85   22.79
  -3   2  16  199.89   19.99
   3   2  17  127.76   17.83
  -3  -2  17  103.28   14.76
   3  -2  17   98.49   15.19
  -3   2  17   91.81   17.31
  -3  -2  17  102.42   17.16
   3   2  17  101.65   15.52
  -3   2  17   84.20   14.48
   3  -2  17   81.71   14.65
  -3  -2  18  135.00   17.81
   3  -2  18  129.91   19.02
   3  -2  18  136.24   18.06
  -3   2  18  117.07   17.36
   3   2  18  137.17   17.60
  -3  -2  18  121.71   18.72
   3   2  18  177.88   19.93
  -3   2  18  133.61   17.14
  -3   2  19    1.27    2.74
   3  -2  19   -1.82    2.50
   3   2  19   -5.98    5.56
  -3  -2  19   -2.26    4.47
  -3   2  19    0.39   10.37
   3   2  19    3.85    4.94
  -3  -2  19   -0.31    7.32
   3  -2  19    0.99    5.07
  -3  -2  20   40.15   12.18
  -3   2  20   29.27    8.83
   3   2  20   31.26    8.57
  -3  -2  20   27.86    9.94
   3  -2  20   40.92   11.56
  -3   2  20   45.43   15.56
   3   2  20   50.99   13.44
   3  -2  20   29.29    9.04
  -3   2  21   58.03   11.66
   3   2  21   85.18   15.32
  -3  -2  21   79.65   14.62
   3  -2  21  107.37   16.48
  -3   2  21   71.85   16.64
  -3  -2  21   93.94   17.24
   3   2  21   49.36   10.52
   3  -2  21   84.56   15.83
  -3   2  22   11.13    6.47
   3   2  22   17.03    6.19
  -3  -2  22   17.68    8.53
   3  -2  22   19.77    9.92
   3   2  22    6.29    6.00
  -3   2  22    9.47    6.22
  -3  -2  22   15.77    7.95
   3  -2  22    9.84    6.96
  -3   2  23    7.75    6.96
  -3  -2  23    6.52    5.93
   3   2  23   17.54   10.45
  -3   2  23    8.54    5.99
   3  -2  23    5.61    7.51
  -3  -2  23    7.84    3.65
   3   2  23    3.33    7.06
   3  -2  23   -0.89    6.71
  -3   2  24    3.83    2.71
   3   2  24    3.27    7.29
  -3  -2  24   -1.97    2.97
   3   2  24   13.03    6.16
   3  -2  24   -3.64    5.73
   3  -2  24    6.27    6.30
  -3  -2  24   -2.67    5.28
  -3   2  24    3.44    7.93
  -3   2  25   10.00    6.88
  -3  -2  25    8.43    3.13
   3   2  25    3.01    4.93
   3   2  25    8.00    4.81
   3  -2  25    3.58    5.96
  -3  -2  25   20.63   10.60
  -3   2  25   -2.34    6.01
   3  -2  25    6.87    6.80
  -3  -2  26   -2.25    8.71
  -3  -2  26    0.81    5.27
  -3   2  26    6.94    3.56
  -3   2  26   -7.10    6.73
   3  -2  26    3.11    2.83
   3   2  26   -8.77    6.31
   3   2  26   -2.18    4.76
   3  -2  26    1.49    3.70
  -3   2  27   32.22   11.80
  -3  -2  27   39.16   11.46
   3   2  27   45.97   13.52
  -3  -2  27   33.26   11.98
  -3   2  27   40.11   12.49
   3  -2  27   43.02   12.13
   3   2  27   21.20    9.09
   3  -2  27   29.62   12.23
  -3   2  28    5.63    3.27
  -3   2  28   20.67   11.74
  -3  -2  28    4.52    6.45
   3   2  28   15.68    9.10
   3  -2  28   -3.66    7.80
   3   2  28    7.55    6.95
   3  -2  28   25.40   10.36
  -3  -2  28    1.10    7.84
  -3   2  29    8.86    4.34
   3   2  29    3.37    4.40
  -3  -2  29    2.50    5.11
   3   2  29    1.30    4.79
   3  -2  29    7.45    6.38
  -3   2  29   11.17    6.89
  -3  -2  29   12.85    9.68
   3  -2  29    9.04    7.97
  -3   2  30    3.21    7.54
   3   2  30   -0.30    8.64
  -3  -2  30    3.00    5.38
   3   2  30   -1.01    5.10
   3  -2  30    1.99    4.19
   3  -2  30    0.98    7.23
  -3   2  30   -6.26    5.13
  -3  -2  30   -6.43    6.90
  -3   2  31    6.12    6.39
  -3  -2  31   -4.78    7.03
  -3   2  31   11.39    8.78
   3   2  31   20.32    9.57
   3  -2  31   -0.26    4.71
   3   2  31   -2.25    7.01
  -3  -2  31    6.62    7.52
   3  -2  31    9.29    8.60
   3  -3   0    1.88    1.38
  -3  -3   0   -1.05    2.09
   3  -3   0    0.84    1.63
  -3   3   0    0.10    2.93
  -3  -3   0    0.40    0.84
  -3  -3   0   -0.15    0.63
   3  -3  -1  103.69   11.08
  -3   3   1   81.02   10.12
  -3  -3   1  100.71    9.95
  -3  -3  -1   90.19    9.71
   3  -3   1   97.37    8.43
   3  -3  -1   94.86    8.50
  -3  -3   1  103.57    6.89
   3  -3   1   95.75   10.98
  -3  -3   1   88.64    5.41
   3   3   1   86.28    6.24
  -3   3  -1  104.02   11.51
  -3  -3   2  941.93   32.71
  -3  -3   2  908.32   16.96
   3  -3   2  903.19   25.12
  -3  -3  -2  944.79   31.17
   3  -3  -2  973.73   33.77
  -3   3   2  958.00   34.43
   3  -3  -2 1009.25   29.24
   3  -3   2  912.48   34.03
   3   3   2 1002.12   23.50
  -3  -3   3  179.01   13.95
   3  -3  -3  173.63   14.34
  -3  -3  -3  197.88   14.27
  -3  -3   3  160.63    7.38
   3  -3   3  166.44   14.98
  -3   3   3  147.50   14.64
   3  -3   3  154.23   10.68
   3  -3  -3  176.31   13.02
   3   3   3  160.78   10.29
  -3  -3   4  564.69   25.81
   3  -3   4  575.59   20.77
   3  -3   4  553.62   27.24
  -3  -3  -4  551.73   24.18
  -3  -3   4  583.79   15.64
   3  -3  -4  558.32   23.72
   3   3   4  585.44   21.15
  -3  -3   5 3330.38   63.29
   3  -3   5 3526.93   51.98
  -3  -3   5 3040.72   55.89
  -3  -3  -5 3293.12   62.05
   3  -3   5 3284.95   66.96
  -3  -3   5 3526.94   42.87
  -3   3   5 3279.65   67.06
   3  -3  -5 3468.41   62.65
  -3   3   5 3612.82   66.43
   3   3   5 3318.84   54.80
  -3  -3   6  922.42   34.75
  -3  -3   6  844.95   30.26
  -3  -3  -6 1030.58   35.06
  -3   3   6  984.07   35.13
  -3  -3   6  965.79   25.24
  -3   3   6 1015.37   38.28
   3  -3   6  981.08   36.91
   3  -3   6  967.52   28.34
   3   3   6  857.15   29.97
   3   3   7   65.26    8.86
   3  -3   7   51.14    7.10
  -3  -3   7   80.50   11.23
  -3  -3   7   79.19    7.89
  -3  -3  -7   81.65   10.74
  -3   3   7   87.56   11.67
  -3  -3   7   49.95    7.63
  -3   3   7   55.06    8.18
   3   3   7   62.90    7.44
   3  -3   7   64.04    9.32
   3  -3   8  430.25   21.41
  -3  -3   8  462.93   26.25
   3   3   8  438.41   23.37
   3   3   8  396.30   20.08
  -3  -3   8  391.21   19.00
  -3   3   8  404.82   25.71
  -3   3   8  465.18   25.39
   3  -3   8  399.26   24.45
  -3  -3  -8  386.50   22.57
   3   3   9 1249.29   41.37
   3  -3   9 1339.81   38.60
  -3  -3   9 1295.82   37.09
  -3  -3  -9 1272.05   42.83
   3  -3   9 1364.89   46.38
  -3   3   9 1269.39   47.29
  -3  -3   9 1127.94   40.76
  -3  -3   9 1320.43   45.69
  -3   3   9 1258.76   43.98
   3   3   9 1142.23   37.55
  -3  -3  10  202.12   18.03
   3   3  10  225.14   18.44
  -3  -3 -10  181.97   16.62
  -3   3  10  216.30   19.83
  -3  -3  10  228.13   16.17
  -3  -3  10  212.88   19.10
   3  -3  10  245.97   20.02
  -3   3  10  166.44   16.34
   3   3  10  214.27   17.19
  -3   3  11   32.16    8.01
  -3  -3  11   35.57    8.40
  -3  -3  11   46.83    8.09
   3   3  11   39.05    7.99
  -3   3  11   22.45    7.28
  -3  -3 -11   47.05    9.25
   3  -3  11   53.88    9.37
  -3  -3  11   21.90    8.06
   3   3  11   16.11    4.82
  -3   3  12    1.76    3.91
  -3  -3  12    2.52    1.69
   3   3  12    0.97    3.45
  -3  -3 -12    2.23    2.91
  -3   3  12    1.87    2.42
  -3  -3  12    0.74    3.31
   3  -3  12    1.96    2.04
   3   3  12    2.43    2.95
  -3  -3  12    1.64    4.13
   3   3  13  563.06   32.10
  -3  -3  13  554.27   29.90
   3  -3  13  541.64   32.65
  -3   3  13  529.84   33.64
  -3  -3  13  618.96   35.16
   3   3  13  568.47   30.43
  -3   3  13  585.41   33.58
  -3   3  14   -2.98    3.98
   3   3  14   -3.65    4.32
  -3   3  14   -1.50    5.17
  -3  -3  14   -1.80    5.58
  -3  -3  14    3.08    3.13
   3   3  14   -0.27    3.05
   3  -3  14    3.30    2.39
   3   3  15  421.90   29.36
  -3  -3  15  401.64   27.40
  -3   3  15  447.07   32.12
  -3   3  15  439.62   30.26
   3  -3  15  421.37   30.27
  -3  -3  15  370.08   28.51
   3   3  15  385.59   27.01
  -3   3  16    3.08    4.62
   3   3  16    2.86    4.39
  -3  -3  16    3.19    4.39
  -3   3  16    6.86    6.04
   3  -3  16   -3.84    5.76
  -3  -3  16    0.72    5.67
   3   3  16    0.67    2.21
  -3  -3  17  510.66   33.10
   3  -3  17  528.56   35.23
   3   3  17  512.40   34.86
  -3   3  17  505.26   36.65
  -3  -3  17  501.71   35.27
   3   3  17  441.36   31.75
  -3   3  17  508.00   34.15
   3   3  18  166.31   20.38
  -3  -3  18  182.72   20.63
   3  -3  18  154.70   19.75
   3  -3  18  157.62   19.80
  -3  -3  18  165.67   20.67
  -3   3  18  159.48   21.21
   3   3  18  179.28   20.24
  -3   3  18  204.06   22.83
  -3  -3  19  209.68   23.79
   3  -3  19  197.05   23.58
   3  -3  19  150.96   19.64
  -3  -3  19  160.56   21.75
  -3   3  19  229.98   25.31
   3   3  19  198.47   22.25
   3   3  19  192.90   21.87
  -3   3  19  188.51   21.66
  -3   3  20    3.64    5.33
   3   3  20   10.05    5.72
  -3  -3  20   15.08    6.67
   3  -3  20   10.15    5.83
  -3   3  20   14.37    7.96
  -3  -3  20    7.79    7.76
   3   3  20   -1.72    3.53
   3  -3  20   19.92    9.43
   3   3  21   93.27   16.29
  -3  -3  21  116.32   18.63
   3  -3  21  102.73   16.90
  -3  -3  21  120.90   19.19
  -3   3  21   87.14   16.35
  -3   3  21  118.98   19.01
   3   3  21   72.36   15.76
   3  -3  21   61.98   15.37
  -3   3  22   31.30    8.26
   3   3  22   31.63   10.15
  -3  -3  22   27.29    9.37
   3  -3  22   40.40   10.15
  -3   3  22   49.91   14.08
   3   3  22   32.79   10.65
  -3  -3  22   39.31    8.56
   3  -3  22   36.96   12.77
   3   3  23  179.43   22.76
  -3  -3  23  151.39   21.05
  -3   3  23  148.74   21.93
   3  -3  23  216.70   25.53
  -3  -3  23  159.24   23.91
   3   3  23  176.70   24.04
   3  -3  23  194.04   23.98
  -3   3  23  141.63   20.80
  -3   3  24   10.13   11.23
   3   3  24    3.15    4.68
  -3  -3  24    1.80    5.00
  -3   3  24    9.59    6.90
   3   3  24    5.82    4.15
   3  -3  24    3.59    7.53
  -3  -3  24    4.99    6.89
   3  -3  24    2.48    7.72
  -3   3  25    6.18    3.23
  -3  -3  25   19.54    8.11
   3  -3  25   10.72    6.56
   3   3  25   23.97    9.07
  -3  -3  25   -1.73    5.97
  -3   3  25   14.68    4.97
   3   3  25   20.31   11.90
   3  -3  25   12.28    5.55
  -3   3  26   50.47   11.94
   3   3  26   57.81   14.48
  -3  -3  26   69.73   17.05
  -3   3  26   51.31   10.89
  -3  -3  26   50.10   16.02
   3  -3  26   91.25   18.58
   3  -3  26   61.35   14.69
   3   3  26   80.67   18.00
   3   3  27  102.18   19.14
   3   3  27  116.84   20.02
  -3  -3  27   86.16   19.22
  -3  -3  27   73.58   16.07
   3  -3  27   68.82   16.75
  -3   3  27   95.51   18.11
  -3   3  27  107.05   18.55
   3  -3  27   92.72   18.89
   3  -3  28   31.79   10.03
  -3   3  28   31.61   10.55
  -3   3  28   46.45   13.40
   3  -3  28   27.82   10.63
   3   3  28   40.00   12.81
  -3  -3  28   34.74   11.14
  -3  -3  28   42.33   14.15
   3   3  28   21.33   10.29
  -3   3  29   13.75    8.82
  -3   3  29   20.57   10.48
  -3  -3  29   22.92    8.27
   3  -3  29   17.25    9.99
   3   3  29   36.10   11.35
   3   3  29   39.39   13.60
  -3  -3  29   23.95    6.94
   3  -3  29   29.26   10.49
  -3   3  30   54.17   14.66
   3   3  30   71.92   16.99
  -3  -3  30   61.92   15.92
   3  -3  30   50.56   14.80
   3   3  30   39.72   13.96
  -3   3  30   64.32   16.04
  -3  -3  30   61.21   15.21
   3  -3  30   44.63   15.87
   3   3  31   75.66   17.65
  -3  -3  31  107.69   21.06
   3  -3  31   83.02   18.19
  -3   3  31   89.06   19.89
  -3  -3  31  102.61   20.84
   3   3  31   78.92   19.12
  -3   3  31  105.23   20.17
   3  -3  31  111.36   21.18
   3  -4   0   -0.61    3.60
  -3  -4   0    0.85    2.07
  -3  -4   0    0.50    1.40
   3  -4   0   -1.39    1.59
  -3   4   0    0.01    2.95
   3  -4  -1  437.76   24.49
  -3  -4   1  413.26   23.25
  -3  -4  -1  415.22   23.23
   3  -4   1  427.34   20.82
   3  -4  -1  406.55   20.62
  -3  -4   1  416.43   15.84
  -3  -4   1  418.79   11.96
  -3   4   1  401.51   23.92
   3  -4   1  414.52   24.41
  -3   4   2    0.70    2.58
   3  -4  -2   -0.87    2.88
  -3  -4   2    1.72    2.47
  -3  -4   2    1.15    1.56
   3  -4   2    3.13    1.69
  -3  -4  -2    0.37    2.45
   3  -4  -2    4.88    3.22
   3  -4   2    1.95    3.35
  -3  -4   2    1.01    1.26
   3   4   2   -0.15    0.80
  -3  -4   3   72.21    9.77
  -3   4   3   85.69   11.39
   3  -4   3   65.60    7.91
  -3  -4   3   75.54    6.80
   3   4   3   67.98    7.36
  -3  -4  -3   79.11   10.73
   3  -4  -3   80.29    9.87
   3  -4   3   68.71   10.16
   3  -4  -3   79.50   11.19
  -3  -4   4 1276.65   42.24
  -3   4   4 1271.59   42.46
  -3  -4  -4 1222.02   40.47
   3  -4   4 1239.80   44.21
   3  -4   4 1161.40   35.14
   3  -4  -4 1281.44   39.89
  -3  -4   4 1163.57   31.08
   3   4   4 1063.45   19.76
   3   4   4 1220.42   33.48
   3  -4  -4 1305.54   44.19
  -3  -4   4 1279.61   28.61
  -3  -4   5   22.26    4.82
   3   4   5   27.56    5.33
  -3  -4   5   36.93    7.29
   3  -4   5   30.29    5.57
  -3  -4  -5   20.79    4.11
   3  -4  -5   32.80    6.10
  -3  -4   5   29.82    4.77
   3   4   5   34.44    4.19
   3  -4   5   19.90    6.22
  -3   4   5   35.12    7.78
  -3  -4   6  238.39   18.93
   3  -4   6  220.76   15.76
  -3  -4   6  270.15   14.45
   3  -4   6  235.13   19.42
  -3   4   6  247.02   20.34
  -3  -4   6  194.82   14.56
   3   4   6  249.24   17.01
  -3  -4  -6  204.17   17.24
   3  -4  -6  251.11   18.74
  -3   4   6  249.26   19.76
   3   4   6  166.61   10.53
  -3  -4   7  166.46   16.19
   3  -4   7  139.46   12.64
   3  -4   7  159.18   16.36
  -3  -4  -7  134.72   14.17
  -3   4   7  146.15   15.64
   3  -4  -7  127.40   13.94
  -3  -4   7  143.19   11.16
  -3   4   7  134.02   14.17
   3   4   7  121.70    9.73
   3   4   7  134.22   12.78
   3  -4   8   71.84    9.55
  -3  -4   8   76.29   11.32
  -3  -4   8   92.76    9.41
  -3  -4  -8  100.87   12.59
   3  -4  -8   83.90   11.71
   3  -4   8   75.73   11.86
  -3   4   8   65.31   10.75
  -3   4   8   75.20   10.89
   3   4   8   72.29    7.95
   3   4   8   60.55    9.59
   3  -4   9  853.64   33.87
  -3  -4   9  858.37   38.03
  -3  -4  -9  986.65   40.64
  -3  -4   9  880.38   31.33
  -3   4   9  933.34   41.22
  -3  -4   9  999.33   38.47
   3  -4   9  844.13   38.24
  -3   4   9  909.39   39.28
   3   4   9  839.56   30.04
   3   4   9  929.19   37.34
   3  -4  10   -1.29    1.38
  -3  -4  10   -0.28    3.29
   3   4  10    1.57    3.78
   3  -4  10    0.24    1.52
   3   4  10    2.89    3.70
  -3  -4 -10    3.90    1.96
  -3   4  10   -1.42    5.23
  -3  -4  10    1.11    2.42
  -3  -4  10    0.93    3.28
  -3   4  10   -2.34    4.19
   3   4  11   -0.88    2.62
   3  -4  11   -3.10    2.81
  -3  -4  11   -1.02    2.43
   3   4  11   -0.50    3.74
   3  -4  11    0.26    2.90
  -3  -4  11   -0.35    2.29
  -3  -4 -11    0.72    2.29
  -3   4  11   -4.85    5.83
  -3  -4  11    0.32    2.57
  -3   4  11   -2.98    3.98
   3  -4  12   15.30    5.54
  -3  -4  12   12.72    6.12
   3  -4  12    7.80    3.01
   3   4  12   18.20    5.47
  -3   4  12   19.51    8.03
  -3  -4 -12   10.00    4.46
  -3  -4  12   14.24    5.27
  -3  -4  12   12.64    5.75
   3   4  12   14.17    5.64
  -3   4  12   16.18    6.27
  -3  -4  13   11.46    5.54
   3  -4  13   13.39    7.02
   3   4  13    8.19    4.72
  -3  -4 -13    9.75    7.11
  -3  -4  13   16.69    5.82
  -3   4  13    9.37    5.62
  -3  -4  13    9.70    3.10
   3   4  13    3.33    3.11
  -3   4  13   11.80    4.97
  -3   4  14   -1.58    4.81
  -3  -4  14    5.70    5.83
   3  -4  14    7.15    6.03
   3   4  14    5.07    5.00
  -3   4  14   11.13    6.41
  -3  -4 -14    1.58    4.17
  -3  -4  14    4.89    5.20
   3   4  14    1.47    2.58
  -3  -4  14   -2.03    2.90
   3  -4  15   -1.00    6.09
  -3   4  15    4.26    5.67
   3   4  15    4.69    4.74
   3   4  15    3.83    5.44
  -3  -4 -15    1.36    6.16
  -3   4  15    3.14    4.43
  -3  -4  15   -3.27    4.99
  -3  -4  15   -0.54    2.78
  -3   4  16   53.18   12.01
   3  -4  16   35.94    8.95
   3   4  16   46.20   10.19
   3   4  16   45.79   10.79
  -3   4  16   42.02   10.38
  -3  -4  16   57.82   10.88
  -3  -4 -16   44.06    9.50
  -3  -4  16   30.13    9.77
   3   4  17   14.54    4.53
   3   4  17    7.55    5.04
  -3   4  17   11.64    5.21
  -3  -4  17   15.27    7.30
  -3  -4 -17   11.86    8.76
  -3   4  17    3.46    3.47
  -3  -4  17   11.68    5.38
   3  -4  17   16.84    4.10
  -3   4  18    0.60    5.47
  -3  -4  18   -1.61    2.82
   3   4  18    0.65    4.98
  -3  -4 -18    0.54    3.47
  -3   4  18   -0.73    5.53
  -3  -4  18    5.61    5.38
   3  -4  18    3.09    4.50
   3   4  18   -3.69    5.26
   3   4  19    4.49    4.11
  -3   4  19    5.39    6.10
  -3  -4 -19   21.62    8.30
  -3  -4  19   15.82    7.55
   3   4  19    5.26    6.38
  -3   4  19   15.57    6.75
   3  -4  19   14.00    7.34
  -3  -4  19    0.44    4.98
   3  -4  19   11.12    7.52
  -3   4  20   68.07   14.23
  -3   4  20  100.07   17.17
   3   4  20   71.51   13.32
   3  -4  20   94.88   15.84
  -3  -4  20   69.34   13.42
  -3  -4  20   61.24   12.86
   3   4  20   85.01   15.96
   3  -4  20   91.22   16.16
  -3   4  21   18.94    7.57
  -3   4  21   46.77   13.41
   3   4  21   21.66    9.71
  -3  -4  21   48.23   11.95
   3  -4  21   33.79   10.66
  -3  -4  21   25.00    6.92
   3   4  21   36.06   11.14
   3  -4  21   43.80   11.84
  -3   4  22   -1.98    5.12
   3  -4  22   -2.91    7.94
   3   4  22   -3.78    6.60
  -3  -4  22   -3.91    6.05
  -3  -4  22   -1.20    5.29
   3  -4  22    1.84    6.13
  -3   4  22   -0.53    3.97
   3   4  22    0.65    3.68
  -3   4  23   11.22    6.92
   3   4  23   28.48   10.00
  -3   4  23   26.91   10.16
  -3  -4  23   12.94    4.89
   3  -4  23    8.56    5.73
   3  -4  23   10.54    6.23
  -3  -4  23   22.93    8.55
   3   4  23   20.03   10.30
  -3   4  24   -6.06    7.81
   3   4  24   -1.77    4.45
  -3   4  24    4.46    4.62
  -3  -4  24    0.05    4.19
   3  -4  24   -3.80    3.46
   3  -4  24   -1.11    4.61
  -3  -4  24    4.87    5.33
   3   4  24    6.31    4.78
  -3   4  25    3.44    4.13
   3   4  25    1.16    5.86
  -3  -4  25    1.10    5.78
   3  -4  25    1.77    5.20
  -3   4  25   -4.86    9.14
  -3  -4  25    4.54    6.70
   3   4  25   13.66    7.10
   3  -4  25   -4.87    6.65
  -3   4  26   15.38    9.09
   3   4  26    9.20    6.85
  -3   4  26    9.10    8.24
  -3  -4  26    8.17    7.72
   3  -4  26   22.92   10.25
  -3  -4  26   10.77    5.96
   3   4  26    3.52    6.44
   3  -4  26   27.47   12.65
  -3   4  27    2.69    4.03
  -3   4  27   18.02   11.97
   3   4  27   -0.73    5.80
  -3  -4  27    2.23    5.72
   3  -4  27   15.02    7.67
  -3  -4  27    3.12    5.11
   3   4  27   -4.99    6.45
   3  -4  27    0.30    3.67
   3   4  28    3.95    7.16
   3  -4  28   -3.04    6.83
  -3  -4  28    8.12    5.92
  -3   4  28    5.42    5.06
   3  -4  28    7.67    7.92
  -3  -4  28   20.77   11.00
   3   4  28   24.79   12.56
  -3   4  28    0.99    4.67
  -3   4  29   13.75    7.74
   3   4  29   10.04    8.18
  -3  -4  29   10.49    8.31
   3  -4  29    2.10    3.68
   3  -4  29   18.00   13.46
  -3  -4 -29    4.74    8.27
  -3   4  29    7.66    9.06
   3   4  29    1.52    8.87
  -3  -4  29    2.82    8.19
  -3   4  30   18.13    5.75
   3  -4  30   39.73   10.99
   3   4  30   24.58   10.54
  -3  -4  30   59.61   18.56
  -3  -4 -30   33.70   10.16
  -3   4  30   24.47   10.56
  -3  -4  30   28.11   12.21
   3   4  30   14.92    6.70
   3  -4  30   67.66   19.41
  -3  -5   0   -1.22    2.80
  -3   5   0    1.53    1.76
  -3  -5   0    3.29    2.95
   3  -5   0    0.35    3.55
   3  -5   0    1.13    4.83
   3  -5  -1  413.99   26.09
  -3  -5   1  412.31   25.67
  -3  -5  -1  401.62   25.04
   3  -5   1  427.76   23.54
   3  -5  -1  414.97   23.43
  -3   5   1  359.39   23.80
   3  -5   1  411.05   26.13
  -3  -5  -1  425.92   20.23
  -3  -5   1  376.02   18.62
  -3  -5   2  667.11   33.01
  -3  -5   2  651.76   16.55
   3  -5  -2  737.77   34.97
   3  -5   2  713.55   30.37
  -3  -5  -2  702.62   33.89
   3  -5   2  710.36   34.60
   3  -5  -2  729.06   31.04
  -3   5   2  705.35   33.40
  -3  -5   2  717.83   25.51
   3  -5  -3   15.46    5.00
  -3  -5   3   28.05    5.31
  -3  -5   3   27.97    7.42
   3  -5   3   21.71    5.91
   3  -5   3    9.94    6.12
   3  -5  -3   16.39    4.71
  -3  -5  -3   26.08    6.67
  -3   5   3   30.97    7.15
  -3  -5   3   30.10    3.86
   3   5   3   18.63    4.88
  -3  -5   4   20.50    3.85
   3  -5   4    8.97    3.17
  -3  -5   4   25.92    6.93
   3  -5   4   17.16    5.03
  -3  -5  -4   19.70    6.00
   3  -5  -4   16.92    4.89
  -3   5   4   16.75    5.12
   3  -5  -4   14.69    6.71
  -3  -5   4   18.71    3.94
  -3  -5   5  441.01   26.99
   3  -5   5  448.17   24.84
   3  -5   5  435.03   27.98
  -3  -5  -5  450.54   27.56
   3  -5  -5  415.78   25.38
  -3   5   5  426.55   26.82
   3   5   5  436.99   23.23
  -3  -5   5  424.32   19.97
  -3  -5   5  432.11   20.35
   3  -5   6  311.72   20.66
   3  -5   6  334.49   24.62
   3   5   6  281.98   12.48
  -3  -5  -6  275.42   21.54
   3  -5  -6  354.16   23.54
  -3  -5   6  347.30   19.18
  -3   5   6  302.25   22.70
  -3  -5   6  306.46   22.75
   3   5   6  261.65   18.90
  -3  -5   6  325.05   18.02
  -3  -5   7  145.36   16.16
  -3   5   7  161.18   16.86
   3  -5   7  136.20   13.78
   3  -5   7  139.98   15.99
   3   5   7  151.83   10.47
   3  -5  -7  151.89   16.70
  -3   5   7  149.11   16.56
  -3  -5  -7  121.81   14.25
  -3  -5   7  136.98   13.26
  -3  -5   7  157.82   12.69
   3   5   7  147.95   14.77
  -3  -5   8  452.53   29.41
   3  -5   8  444.87   25.25
   3  -5   8  455.69   29.41
   3   5   8  362.44   17.83
  -3   5   8  422.36   27.76
   3  -5  -8  408.22   26.64
  -3  -5   8  423.29   22.01
  -3  -5   8  445.27   24.88
  -3   5   8  404.22   26.84
  -3  -5  -8  414.91   27.78
   3   5   8  418.06   25.04
   3   5   9   -0.72    1.39
   3  -5   9   -0.68    3.80
  -3  -5   9   -2.14    4.86
  -3  -5   9    0.89    1.80
  -3  -5  -9    0.99    2.93
  -3   5   9   -0.36    2.40
   3  -5  -9   -3.37    4.04
   3  -5   9   -0.53    1.79
  -3  -5   9   -0.80    1.72
  -3   5   9    1.55    3.23
   3   5   9    2.37    1.34
   3   5  10   23.63    6.72
  -3  -5  10   27.11    7.14
   3  -5  10   20.09    6.74
   3  -5  10   15.99    6.52
  -3  -5 -10   13.57    5.84
   3  -5 -10   24.66    8.17
  -3   5  10   18.43    7.88
  -3  -5  10   12.32    5.03
   3   5  10   14.21    4.73
  -3   5  10    9.65    5.53
  -3  -5  10   21.08    6.02
   3  -5  11  649.73   33.03
  -3  -5  11  651.55   36.42
   3  -5 -11  641.41   35.77
  -3   5  11  590.45   34.44
  -3  -5 -11  657.46   36.35
  -3  -5  11  615.86   30.26
  -3   5  11  638.93   36.13
   3   5  11  688.82   30.32
  -3  -5  11  697.45   35.55
   3  -5  11  606.98   34.91
   3   5  11  632.49   33.89
   3  -5  12   17.13    5.97
  -3  -5  12   44.88    8.77
   3   5  12   41.21    8.49
   3  -5  12   37.48    8.76
   3   5  12   36.42    7.71
  -3  -5 -12   34.82    9.09
  -3   5  12   33.46   11.30
   3  -5 -12   21.49    4.22
  -3  -5  12   27.23    6.89
  -3  -5  12   16.06    5.30
  -3   5  12   34.96    9.52
   3  -5  13   55.09   10.36
  -3  -5 -13   69.20   11.67
  -3  -5  13   56.49   12.05
   3   5  13   40.43    7.69
   3  -5  13   59.18   11.18
  -3   5  13   73.22   13.38
   3   5  13   47.56   10.19
  -3  -5  13   50.19    9.29
  -3  -5  13   56.22   11.83
  -3   5  13   57.55   11.44
   3  -5  14    9.85    3.19
  -3  -5  14   28.83   11.05
  -3  -5  14   25.77    6.79
   3  -5  14    7.02    5.40
   3   5  14   21.64   10.29
  -3  -5 -14   20.18    7.56
  -3   5  14   40.70   10.53
   3   5  14   34.06    7.48
  -3  -5  14   20.50    8.62
  -3   5  14   12.33    3.94
  -3  -5  15   69.07   12.97
   3  -5  15   84.52   14.83
  -3  -5  15   78.92   12.96
  -3   5  15   74.34   14.31
  -3  -5 -15   78.26   13.46
  -3  -5  15   67.94   14.15
  -3   5  15   61.40   13.16
   3   5  15   73.49   11.52
   3   5  15   76.05   12.81
  -3   5  16  402.94   32.35
  -3  -5  16  402.55   29.29
  -3  -5 -16  405.15   32.42
  -3  -5  16  466.46   33.13
   3  -5  16  427.34   31.98
  -3  -5  16  355.00   31.23
  -3   5  16  379.10   31.55
   3   5  16  479.18   33.88
   3   5  16  346.20   28.01
  -3   5  17  194.75   23.72
  -3  -5  17  182.87   20.38
  -3  -5 -17  219.43   24.02
   3  -5  17  199.17   22.38
  -3   5  17  172.27   21.01
   3   5  17  203.53   22.36
   3   5  17  199.70   21.66
  -3  -5 -18   19.59    8.01
   3   5  18   39.28   10.35
  -3  -5  18   27.54    7.94
  -3   5  18   37.71    9.10
  -3   5  18   41.25   13.27
  -3  -5  18   21.17    8.38
   3   5  18   27.85    8.73
   3  -5  18   44.74   12.61
  -3   5  19   34.72   10.62
  -3  -5  19   34.57   10.10
  -3  -5 -19   41.87   12.27
   3   5  19   41.00   12.48
  -3  -5  19   20.82    8.84
   3   5  19   39.71   11.18
   3  -5  19   19.29    6.58
  -3   5  19   30.76    9.54
   3  -5  19   55.89   13.99
  -3  -5  20  104.53   17.07
   3   5  20  101.61   16.97
   3  -5  20   83.08   15.56
  -3   5  20  107.19   16.40
  -3  -5  20  113.73   19.44
   3  -5  20  104.43   16.37
  -3  -5 -20  110.20   19.06
   3   5  20  109.74   17.73
  -3   5  20   72.84   15.41
  -3  -5 -21  144.58   20.36
  -3   5  21  185.78   24.45
  -3  -5  21  182.69   22.98
   3  -5  21  143.85   20.20
  -3  -5  21  120.44   20.26
   3   5  21  191.96   24.37
  -3   5  21  167.04   21.85
   3  -5  21  158.93   23.95
   3   5  21  178.98   21.94
  -3  -5 -22  128.29   20.38
   3   5  22  102.09   16.28
  -3  -5  22  113.98   18.16
   3  -5  22  110.31   18.45
  -3   5  22  130.85   21.32
  -3  -5  22  112.73   20.83
   3   5  22  131.43   21.07
  -3   5  22  129.93   20.36
   3  -5  22  138.59   22.42
  -3   5  23   -0.26    3.57
   3   5  23   16.04    9.16
   3  -5  23    2.30    5.01
  -3  -5  23    7.01    5.73
  -3  -5 -23    8.69    5.60
  -3   5  23    5.21    7.25
  -3  -5  23    0.73    5.70
   3   5  23   10.34    9.06
   3  -5  23   12.58    6.20
  -3  -5  24  349.09   33.03
   3  -5  24  384.71   35.97
  -3  -5 -24  342.50   34.75
  -3   5  24  390.09   35.54
  -3  -5  24  292.80   33.96
   3   5  24  367.10   35.60
  -3   5  24  325.19   32.14
   3  -5  24  318.35   33.20
   3   5  24  356.43   33.42
  -3   5  25   13.11    5.34
   3   5  25    3.86    3.84
  -3  -5  25   26.97    9.07
  -3   5  25   11.79    5.22
   3  -5  25   27.67   10.19
   3   5  25   26.17   13.39
  -3  -5  25   13.73    8.65
  -3  -5 -25   11.98    9.51
   3  -5  25    9.85   10.55
   3  -5  26  106.24   19.32
  -3  -5  26  101.89   20.14
  -3   5  26  118.20   19.32
   3  -5  26  107.77   19.61
  -3  -5 -26  110.26   20.58
   3   5  26  119.02   20.36
  -3   5  26  128.63   20.63
   3   5  26   98.32   19.36
  -3  -5  26   78.63   19.66
  -3   5  27   44.30   12.79
  -3   5  27   48.79    9.69
  -3  -5  27   47.06   16.73
   3   5  27   59.44   15.76
  -3  -5  27   50.34   12.97
  -3  -5 -27   39.22   11.36
   3   5  27   39.59   11.90
   3  -5  27   56.10   14.00
   3  -5  27   47.43   10.08
  -3   5  28   41.34   12.65
   3   5  28   44.46   12.20
  -3   5  28   16.47    9.50
  -3  -5  28   28.46    9.94
   3  -5  28   30.08    9.82
  -3  -5 -28   54.55   14.58
   3   5  28   41.50   14.21
   3  -5  28   54.06   16.57
  -3   5  29    2.90    7.21
   3   5  29  -13.19   10.00
   3  -5  29    3.83    8.75
  -3  -5 -29    9.35    5.49
  -3   5  29    1.95    7.05
   3   5  29    1.20    5.43
  -3  -5  29    3.26    3.96
   3  -5  29   -1.23    6.76
  -3   5  30   66.21   15.68
   3  -5  30   57.59   15.58
   3   5  30   59.18   14.39
  -3  -5 -30   34.49   11.50
  -3   5  30   61.79   19.28
   3   5  30   62.40   20.50
  -3  -5  30   63.28   16.84
   3  -5  30   67.34   15.59
   3  -6   0    0.85    4.86
  -3  -6   0    5.06    3.06
   3  -6   0    2.25    3.14
  -3  -6   0   -0.40    3.25
   3  -6   1   15.12    4.70
  -3  -6   1   11.98    4.72
  -3  -6   1    6.19    2.23
  -3  -6  -1   -0.21    1.91
   3  -6   1   13.78    4.56
   3  -6  -1   14.57    7.17
   3  -6  -1    6.12    2.01
  -3   6   1   13.69    6.81
  -3  -6  -1   11.53    3.98
  -3  -6   2  551.56   13.79
   3  -6  -2  549.32   31.80
  -3  -6   2  607.59   33.64
   3  -6   2  547.47   29.59
  -3  -6  -2  569.64   32.65
  -3   6   2  546.22   30.32
   3  -6  -2  529.43   29.02
  -3  -6  -2  518.91   25.99
  -3  -6   2  602.76   26.89
   3  -6   2  548.25   32.24
  -3  -6   3   53.26   10.60
   3  -6  -3   68.03   11.26
   3  -6   3   51.86    8.86
   3  -6  -3   51.12    9.23
  -3  -6  -3   51.77   10.43
  -3  -6   3   63.07    8.72
  -3   6   3   54.16    9.96
  -3  -6   3   46.87    5.12
   3  -6   3   56.89   10.82
   3  -6   4   62.82   10.37
  -3  -6   4   49.07    8.05
   3  -6   4   52.62   10.60
  -3  -6  -4   54.05   10.53
   3  -6  -4   57.71   10.39
   3  -6  -4   53.13    8.79
  -3  -6   4   44.99    5.60
   3   6   4   61.85    9.19
  -3  -6   4   49.33   10.02
  -3   6   4   50.65    9.09
  -3  -6   5   65.18   10.90
   3  -6   5   33.97    8.22
  -3  -6   5   52.05    7.38
   3  -6   5   54.79    9.15
   3  -6  -5   66.54   11.07
  -3  -6  -5   47.74   10.23
  -3   6   5   53.15   10.43
   3  -6  -5   57.37   10.68
   3   6   5   46.28    7.89
  -3  -6   5   44.14    6.03
  -3  -6   6  155.76   17.33
   3  -6   6  119.04   13.98
   3   6   6  134.13   13.91
   3  -6   6  154.92   18.45
  -3  -6  -6  129.99   15.95
   3  -6  -6  137.46   16.93
  -3   6   6  110.27   14.33
   3   6   6  100.50    6.40
  -3  -6   6   76.75    8.91
  -3  -6   6  128.60   12.96
  -3  -6   7   -1.12    4.47
   3  -6   7   -0.35    2.15
  -3  -6   7   -1.82    1.34
  -3  -6  -7   -1.92    4.32
   3  -6  -7   -1.88    2.13
   3   6   7    1.03    2.12
   3  -6   7   -3.09    2.65
  -3   6   7   -2.47    4.10
  -3  -6   7    0.84    2.38
   3   6   7    2.69    5.07
   3  -6   8   65.83   10.43
   3  -6   8   74.28   12.12
  -3  -6  -8   69.08   11.43
  -3  -6   8   60.63   11.39
   3  -6  -8   77.31   12.38
  -3   6   8   86.60   13.55
  -3  -6   8   84.11   11.32
   3   6   8   79.19   11.24
  -3  -6   8   65.26    9.34
   3   6   9   19.76    6.35
  -3  -6   9   17.00    6.10
   3  -6   9   19.61    7.09
  -3  -6   9   21.93    5.56
  -3   6   9   14.26    6.34
   3   6   9   28.55    5.04
  -3  -6  -9   27.57    7.68
   3  -6   9   18.41    7.10
   3  -6  -9   16.95    6.57
  -3   6   9    7.59    4.98
  -3  -6   9   30.20    7.84
   3   6  10   12.36    5.17
  -3  -6  10   11.35    4.50
   3  -6  10    7.14    5.32
  -3  -6  10   12.44    5.95
  -3  -6  10    7.87    5.91
  -3  -6 -10   11.92    5.19
   3  -6  10   17.39    7.99
  -3   6  10    2.13    3.56
   3  -6 -10    6.16    4.11
   3   6  10   10.34    2.76
  -3   6  10    8.94    5.78
  -3  -6  11   21.50    6.04
   3   6  11   18.97    7.40
   3  -6  11   13.64    7.26
  -3  -6  11    9.80    4.56
   3  -6  11   15.11    4.33
   3  -6 -11   11.09    4.32
  -3   6  11   14.78    8.04
   3   6  11   11.91    4.31
  -3  -6 -11   16.16    6.69
  -3   6  11   20.31    6.60
  -3  -6  11   16.54    7.36
   3  -6  12   15.30    6.57
  -3  -6  12    0.54    4.08
   3  -6  12    6.31    6.13
   3  -6 -12    5.65    4.48
  -3  -6 -12    5.04    3.75
   3   6  12   -3.27    7.13
  -3   6  12    6.93    5.51
   3   6  12    0.85    3.98
  -3  -6  12    4.32    4.24
  -3   6  12    0.79    4.26
  -3  -6  12    0.32    2.48
   3  -6  13  112.12   15.21
  -3  -6  13   58.95   11.89
  -3  -6  13   67.77   13.39
  -3  -6 -13   84.32   14.45
  -3  -6  13   76.23   11.60
  -3   6  13   86.74   15.02
   3  -6 -13   76.13   12.49
   3   6  13   84.12   12.94
   3   6  13   81.30   11.56
  -3   6  13   71.75   13.12
   3  -6  13   90.71   14.55
   3  -6  14  100.66   15.22
  -3  -6  14  123.59   18.44
  -3  -6  14   83.93   12.57
  -3  -6 -14  101.44   15.46
  -3   6  14  127.00   17.76
   3  -6 -14  125.04   18.09
   3   6  14  115.54   15.64
  -3   6  14  105.83   15.58
   3  -6  14  116.59   16.54
   3   6  14  111.74   15.78
   3  -6  15    8.53    5.58
  -3  -6  15   12.73    4.75
   3   6  15   19.57    6.86
  -3  -6 -15   15.78    5.40
   3  -6  15    3.04    6.57
  -3   6  15    6.15    5.88
   3  -6 -15   10.60    6.60
  -3  -6  15   19.66    7.61
   3   6  15   16.73    6.54
  -3  -6  15    7.14    6.57
  -3   6  15   16.30    8.08
  -3  -6  16    0.28    6.32
   3  -6  16   -0.77    4.31
   3   6  16    0.85    5.06
   3  -6 -16   -3.59    7.99
  -3  -6  16    1.43    2.95
  -3  -6 -16    2.61    5.25
  -3   6  16    4.83    3.80
   3   6  16    4.35    4.31
  -3  -6  16   -0.12    4.64
  -3   6  16    5.22    5.16
   3  -6  16   10.29    7.82
  -3  -6  17   10.65    4.22
   3  -6  17   12.31    5.49
   3   6  17    9.25    4.92
  -3  -6 -17   24.06    9.65
   3  -6 -17   11.92    7.64
  -3   6  17   13.61    3.30
  -3  -6  17   20.33    7.56
   3   6  17   20.19    7.66
  -3  -6  17    8.62    5.08
  -3   6  17   18.90    9.10
   3  -6  18   21.67    9.73
   3   6  18   10.28    4.03
  -3  -6 -18   15.39    5.98
  -3   6  18   12.28    8.61
  -3  -6  18    9.59    6.80
   3  -6 -18   21.33   10.12
   3   6  18   10.51    8.59
  -3  -6  18    5.16    6.03
  -3   6  18    1.03    7.81
  -3  -6  18    3.98    5.99
   3   6  19    7.78    6.68
   3  -6  19   14.00    8.05
  -3  -6  19    7.71    6.53
  -3  -6 -19   15.50    6.82
  -3   6  19    9.90    5.57
   3  -6 -19    7.58    9.55
   3   6  19    4.70    6.13
  -3  -6  19   18.30    8.12
  -3   6  19    8.20    4.84
   3  -6  20   45.10   14.54
   3   6  20   20.68    8.09
  -3  -6  20   18.17    6.56
   3   6  20   32.07    9.04
  -3  -6 -20   32.44    8.48
  -3   6  20    5.32    5.83
   3  -6 -20   17.67    8.69
  -3  -6  20   28.87   10.43
   3  -6  20   21.93    9.46
  -3   6  20   27.70    9.12
   3   6  21    6.45    7.54
  -3  -6  21   -3.57    6.39
  -3  -6 -21    1.01    3.50
  -3   6  21    1.41    4.64
   3  -6 -21   -3.65    7.96
   3   6  21   -6.08    7.75
  -3  -6  21   -2.04    5.71
   3  -6  21    5.75    4.58
  -3   6  21   13.68    7.63
   3  -6  21   -1.94    4.51
   3   6  22   -2.95    3.87
  -3   6  22    2.35    6.65
  -3  -6  22   -1.14    3.83
  -3  -6 -22   -0.23    7.68
  -3  -6  22   -2.50    7.10
   3   6  22    7.31    6.82
   3  -6  22    2.49    6.28
   3  -6  22    4.38    6.47
  -3   6  22   -1.04    5.39
  -3   6  23    6.20    7.60
   3   6  23    6.28    5.27
  -3   6  23   10.44    9.34
  -3  -6  23   12.00    6.18
   3  -6  23    3.55    6.97
  -3  -6 -23   13.94   11.12
   3  -6  23   10.93    8.44
   3   6  23    8.93    4.13
  -3  -6  23    4.05    5.72
   3   6  24   17.95    9.05
  -3  -6  24   14.61    9.57
  -3  -6 -24   30.18   11.09
  -3   6  24   19.28   11.59
   3  -6  24   10.32    6.29
   3   6  24   30.79   12.09
  -3  -6  24   20.26   12.92
   3  -6  24   26.08   12.15
  -3   6  24   10.64    6.01
   3   6  25    4.11    3.68
  -3  -6  25   21.81   13.61
  -3  -6 -25  -11.64    9.60
   3  -6  25   -3.09    6.92
  -3   6  25    7.29    9.70
   3  -6  25   -2.42    7.00
   3   6  25   -0.99    5.73
  -3  -6  25    5.63    6.34
  -3   6  25    0.08    4.61
   3   6  26   -0.78    6.27
  -3  -6 -26    4.56    7.89
   3  -6  26    6.63    5.04
  -3   6  26   15.71    9.76
   3   6  26    3.51    7.40
  -3  -6  26   22.28   10.61
   3  -6  26    9.49    4.75
  -3   6  26    7.96    5.25
   3   6  27    8.00    3.13
   3  -6  27   -2.32    4.40
  -3  -6 -27    3.51    5.25
  -3   6  27   -0.30    6.66
   3  -6 -27    9.01    7.39
  -3   6  27   20.44   12.14
  -3  -6  27    3.74    7.99
   3  -6  27   -6.43    8.71
   3  -6  28    1.85    4.20
   3   6  28    1.18    5.09
  -3  -6 -28    1.51    3.73
  -3   6  28   13.10   10.07
   3  -6 -28    0.41    5.24
  -3  -6  28   11.13    4.87
   3  -6  28    5.09    9.31
  -3   6  28    4.11    7.34
   3   6  29   61.06   15.06
   3  -6  29   45.80   13.64
  -3  -6 -29   54.08   15.51
  -3   6  29   52.89   16.69
   3  -6 -29   69.56   14.70
  -3  -6  29   36.61   13.12
   3  -6  29   51.82   16.81
  -3   6  29   52.37   13.59
   3  -7   0   -1.56    2.83
  -3  -7   0   -0.26    6.35
   3  -7   0    0.75    4.21
  -3  -7   0   -0.01    2.26
  -3  -7   1  638.43   36.86
  -3  -7  -1  677.83   37.67
   3  -7   1  602.61   33.88
  -3  -7  -1  637.24   31.31
   3  -7  -1  718.30   36.68
  -3   7   1  668.36   34.58
  -3  -7   1  616.24   30.35
   3  -7  -1  654.13   36.85
  -3  -7   2   44.44   10.18
   3  -7   2   51.68    9.66
  -3  -7  -2   48.16   10.90
  -3  -7  -2   40.26    7.64
   3  -7  -2   53.26   10.57
  -3   7   2   28.17    7.96
  -3  -7   2   44.42    8.51
   3  -7   2   27.93    8.84
   3  -7  -2   56.87   10.82
  -3  -7   3  956.86   45.41
   3  -7   3  882.62   40.89
   3  -7  -3  928.14   44.23
  -3  -7  -3  847.04   43.22
   3  -7  -3  913.05   42.12
   3  -7   3  817.01   42.96
  -3   7   3  906.27   41.30
  -3  -7   3  952.05   37.76
  -3  -7  -3  872.52   37.23
   3  -7   4 1337.79   50.15
  -3  -7  -4 1227.98   51.70
   3  -7  -4 1253.16   49.21
  -3  -7   4 1299.61   44.42
   3  -7  -4 1249.76   51.45
   3  -7   4 1117.79   49.49
  -3  -7   4 1322.28   53.36
  -3   7   4 1336.49   50.18
  -3  -7   5 1097.83   48.82
   3  -7   5 1124.84   45.89
  -3  -7   5 1175.21   43.01
  -3  -7  -5 1086.21   48.70
   3  -7  -5 1099.00   46.52
   3  -7   5 1167.27   51.72
   3  -7  -5 1156.13   50.58
  -3   7   5 1120.57   45.41
   3   7   5 1129.23   42.86
  -3  -7   5 1080.12   32.44
  -3  -7   6  222.53   22.91
   3  -7   6  301.15   24.32
  -3  -7  -6  225.21   22.30
   3  -7   6  226.37   22.83
   3  -7  -6  204.26   20.63
  -3   7   6  216.97   20.54
   3  -7  -6  277.45   24.56
  -3  -7   6  216.55   18.33
   3   7   6  215.76   18.71
  -3  -7   7    6.53    7.31
   3  -7   7   -0.13    4.45
   3  -7  -7   -5.22    6.07
  -3  -7   7    5.77    4.18
   3  -7  -7   10.80    5.66
  -3   7   7    2.59    2.75
   3   7   7   -0.32    0.99
  -3  -7   7    1.49    2.30
   3   7   7    0.26    2.55
   3  -7   7    4.90    2.99
  -3  -7  -7    2.32    3.11
  -3  -7   8  388.30   28.94
   3  -7   8  353.19   26.13
   3  -7   8  435.25   31.47
   3   7   8  329.80   15.47
  -3  -7  -8  438.85   31.07
  -3   7   8  398.23   28.97
   3  -7  -8  409.62   29.47
   3   7   8  405.46   27.00
  -3  -7   8  356.13   23.58
  -3  -7   8  394.26   24.84
  -3  -7   9  768.28   41.52
   3  -7   9  683.87   36.76
   3  -7   9  764.67   41.93
  -3  -7  -9  774.77   41.76
  -3   7   9  723.33   38.70
   3  -7  -9  777.42   41.62
   3   7   9  702.02   25.04
   3   7   9  722.85   37.38
  -3  -7   9  686.91   33.66
   3  -7  10   78.07   12.91
  -3  -7  10   67.32   12.14
  -3   7  10   71.97   13.11
   3  -7 -10   79.65   15.14
   3  -7  10   91.55   14.07
  -3  -7 -10   76.70   13.03
  -3   7  10   83.45   14.19
   3   7  10   78.51    8.68
  -3  -7  10   71.48   11.67
   3   7  10   71.33   12.90
  -3  -7  10   63.42   11.17
  -3  -7  11   12.65    5.52
   3  -7  11   11.49    5.58
  -3  -7  11   22.87    8.54
  -3   7  11    7.63    5.84
   3  -7  11   12.58    7.37
  -3  -7 -11   11.76    8.14
   3  -7 -11   12.25    4.65
   3   7  11    5.94    2.01
  -3   7  11   16.33    5.47
  -3  -7  11   16.57    8.01
   3   7  11    8.83    5.75
   3  -7  12  143.96   18.03
  -3  -7  12  195.03   21.69
  -3  -7 -12  126.74   17.78
   3  -7 -12  149.12   18.90
  -3   7  12  148.00   18.28
  -3  -7  12  136.49   15.66
   3   7  12  137.69   15.25
  -3   7  12  141.28   18.70
   3   7  12  141.31   17.62
   3  -7  12  144.59   18.25
   3  -7  13 1110.15   49.34
  -3  -7  13 1047.17   50.71
  -3   7  13  976.39   49.41
  -3  -7  13 1140.30   47.96
   3   7  13 1171.76   44.51
  -3  -7 -13 1035.76   52.03
  -3   7  13  983.55   49.74
   3   7  13 1082.00   49.83
   3  -7  13 1054.52   51.12
   3  -7 -13  985.18   51.44
   3   7  14   21.91    7.13
   3  -7  14   36.97    8.95
  -3  -7  14   24.55    8.63
   3  -7  14   31.55    9.44
   3  -7 -14   18.19    8.31
  -3  -7 -14   23.72    7.86
  -3   7  14   28.30    8.48
   3   7  14   17.05    4.28
  -3   7  14   31.60   10.90
  -3  -7  14   23.77    8.91
  -3  -7  14   35.13    9.38
   3   7  15    5.62    4.98
   3   7  15   -2.15    4.13
   3  -7  15    0.08    3.08
  -3  -7  15    6.80    8.54
   3  -7  15   12.88    7.22
  -3  -7 -15    4.85    4.84
  -3   7  15   12.88    9.25
   3  -7 -15    0.66    6.15
  -3  -7  15    7.52    6.77
  -3  -7  15   13.92    6.13
  -3   7  15    6.70    2.60
   3  -7  16   23.78    8.65
  -3  -7  16   39.84    9.08
   3  -7  16   27.67    8.00
   3   7  16   29.05    8.77
  -3  -7 -16   29.35   11.29
   3  -7 -16   37.77    9.02
   3   7  16   24.54    9.05
  -3   7  16   23.32   10.63
  -3  -7  16   35.05   10.86
  -3  -7  16   31.32   10.42
  -3   7  16   40.06   10.57
   3  -7  17  492.31   34.88
  -3  -7  17  483.54   36.39
  -3  -7  17  434.21   35.43
  -3  -7  17  467.77   34.18
  -3  -7 -17  452.15   36.44
   3  -7 -17  492.31   38.17
  -3   7  17  436.16   36.08
  -3   7  17  507.74   37.25
   3   7  17  494.21   36.06
   3  -7  17  528.87   37.53
  -3  -7  18   17.63    8.30
   3  -7  18    2.32    3.23
   3   7  18   -0.63    4.19
  -3   7  18    1.48    5.57
  -3  -7  18    9.74    6.30
  -3  -7 -18   -0.47    3.60
   3  -7 -18    4.74    5.19
  -3  -7  18    4.47    5.98
  -3   7  18   13.46    6.40
   3  -7  18    4.74    5.96
  -3  -7  19  290.15   29.64
  -3  -7 -19  321.75   31.97
   3  -7 -19  311.30   31.29
   3  -7  19  369.97   32.67
  -3   7  19  313.20   32.45
  -3  -7  19  295.30   31.80
  -3   7  19  315.69   30.23
   3   7  19  326.55   30.57
  -3  -7  19  259.32   27.41
   3   7  20   62.28   14.04
  -3  -7 -20   53.42   14.22
  -3  -7  20   66.78   13.81
   3  -7 -20   43.98   11.41
  -3  -7  20   53.62   13.60
  -3   7  20   68.01   15.79
  -3   7  20   60.32   12.19
   3  -7  20   72.15   15.45
   3  -7  20   39.69   14.35
   3   7  21   69.18   14.48
  -3  -7 -21   83.58   19.04
   3  -7  21  124.11   18.52
  -3   7  21   91.78   16.11
  -3  -7  21   70.82   16.51
   3  -7 -21   79.98   16.73
  -3   7  21   90.06   18.11
  -3  -7  21   94.85   18.24
   3  -7  21   85.07   16.32
  -3  -7 -22   52.70   14.87
   3   7  22   19.12    8.18
  -3  -7  22   79.57   18.00
   3  -7 -22   46.28   10.20
  -3   7  22   45.55   13.68
  -3  -7  22   39.69   14.69
   3  -7  22   17.85    7.57
  -3   7  22   49.15   13.74
   3  -7  22   64.67   16.08
  -3   7  23  341.57   33.79
   3  -7  23  389.82   35.41
  -3  -7 -23  352.19   34.02
  -3  -7  23  295.52   32.79
   3  -7 -23  388.17   34.81
   3  -7  23  287.87   33.23
   3   7  23  436.36   38.01
  -3   7  23  368.79   36.06
   3   7  24   -4.65    3.29
  -3  -7 -24   -1.79    6.95
  -3   7  24    3.06    8.04
   3  -7 -24    4.74    6.79
   3  -7  24    0.26    5.85
  -3  -7  24   -2.16    5.44
  -3   7  24    7.77    8.82
   3  -7  24   -2.38    5.18
   3   7  25   95.53   18.87
  -3  -7 -25   95.01   18.84
   3  -7  25   54.73   14.50
  -3   7  25   64.41   17.24
   3  -7 -25   75.26   17.57
   3  -7  25   74.70   16.98
  -3  -7  25   75.77   17.15
  -3   7  25   75.53   16.17
   3   7  26   -0.27    7.67
  -3  -7 -26    8.48   10.51
   3  -7 -26    6.60    8.55
  -3   7  26    3.19    6.50
   3  -7  26    5.12    8.81
   3  -7  26   -2.30    4.98
  -3  -7  26   -1.54    7.65
  -3   7  26    7.33    7.91
   3  -7  27  421.47   38.87
  -3   7  27  455.95   42.17
   3  -7 -27  424.83   40.40
  -3  -7  27  330.60   38.05
  -3  -7 -27  367.03   37.83
  -3   7  27  386.32   38.16
   3  -7  27  405.96   38.58
   3   7  27  349.91   35.46
   3   7  28   15.78    5.46
   3  -7  28   32.69   13.75
   3  -7 -28   20.20   13.96
  -3   7  28   15.39   11.17
  -3  -7 -28   19.57   11.05
  -3  -7  28   16.41   12.64
   3  -7  28    2.78    5.38
  -3   7  28    9.79    8.27
   3  -8   0    2.72    2.16
  -3  -8   0   -1.99    4.50
  -3  -8   0    2.03    5.63
   3  -8   0    2.77    3.56
  -3  -8   1    2.91    3.92
  -3  -8   1    5.41    5.41
   3  -8  -1   16.66    7.32
  -3  -8  -1    4.08    4.61
   3  -8   1   12.86    6.11
   3  -8  -1   19.56    7.11
  -3  -8  -1    9.83    4.31
   3  -8   1   18.57    7.68
  -3  -8   2   -3.67    3.18
   3  -8   2   -0.44    4.47
  -3  -8  -2    6.27    3.74
  -3  -8  -2   -1.55    5.65
   3  -8  -2   -3.26    5.99
   3  -8   2    7.73    5.14
  -3   8   2    3.05    5.05
   3  -8  -2   -2.06    2.36
  -3  -8   2    3.81    4.64
   3  -8  -3  133.26   17.62
  -3  -8   3  206.05   22.39
   3  -8   3  170.33   19.68
  -3  -8  -3  181.73   21.46
   3  -8  -3  196.36   20.66
  -3  -8  -3  155.11   17.17
  -3   8   3  164.47   18.60
  -3  -8   3  198.03   19.19
   3  -8   3  167.91   20.27
  -3  -8   4  119.58   16.59
   3  -8  -4   72.10   12.13
  -3  -8  -4   91.12   15.24
  -3   8   4   79.55   13.13
   3  -8   4   68.29   11.83
  -3  -8   4   75.07   12.08
   3  -8  -4   69.51   11.35
   3  -8   4   97.45   14.94
  -3  -8  -4   99.07   14.03
   3  -8   5   53.79   11.90
  -3  -8   5   50.97   11.45
   3  -8   5   42.91   10.38
  -3  -8  -5   47.49   11.31
  -3   8   5   43.89    9.56
   3  -8  -5   46.69   11.02
   3  -8  -5   48.98   12.60
  -3  -8   5   50.58    9.51
   3  -8   6   75.46   12.77
  -3  -8   6   74.45   11.25
  -3  -8   6   68.57   12.39
   3  -8  -6   61.52   13.19
   3  -8   6   66.34   13.82
  -3  -8  -6   64.38   12.33
  -3   8   6   88.23   14.06
   3  -8  -6   75.81   13.91
  -3  -8   7   24.22    9.27
   3  -8   7   27.47    9.36
  -3  -8  -7   21.43    8.24
  -3   8   7    7.61    3.68
  -3  -8   7   26.45    7.58
   3  -8  -7   34.57    9.59
   3   8   7   15.28    6.14
   3  -8   7   45.67   11.36
   3  -8  -7   32.72   10.68
  -3  -8   8  121.17   17.56
   3  -8   8  127.71   18.45
  -3   8   8  107.20   16.41
   3  -8   8   89.24   12.90
  -3  -8  -8  125.96   18.92
   3  -8  -8  137.23   18.47
   3   8   8  151.34   17.86
   3  -8  -8  157.78   19.66
  -3  -8   8  140.33   16.10
  -3  -8   9  169.90   19.93
  -3  -8  -9  151.93   19.53
   3  -8   9  192.73   21.74
   3  -8  -9  178.20   20.87
   3  -8   9  180.40   20.01
   3   8   9  169.15   18.89
  -3  -8   9  161.46   16.92
  -3  -8  10   54.01   10.89
   3  -8  10   34.94    8.67
  -3  -8  10   44.72    9.34
  -3  -8 -10   39.81    8.78
   3  -8 -10   64.77   12.22
  -3   8  10   31.55    9.34
  -3  -8  10   31.64   10.88
   3   8  10   30.54    7.75
   3  -8  10   45.90   10.56
  -3  -8  11    2.55    5.59
   3  -8  11   16.46    5.41
  -3  -8  11   15.61    5.67
   3  -8  11   18.81    8.34
  -3  -8 -11    8.41    5.72
   3  -8 -11    1.60    5.00
  -3   8  11   15.82    8.54
  -3  -8  11    3.71    6.29
   3   8  11   19.89    6.90
  -3   8  12   26.32    9.18
   3  -8  12   22.87    9.51
  -3  -8  12   26.00    8.44
  -3  -8 -12   20.86    5.57
   3  -8  12   31.16    7.31
  -3  -8  12   29.87    8.47
  -3   8  12   35.55    8.97
  -3  -8  12   15.37    7.72
   3   8  12   23.58    5.18
   3  -8 -12   20.83    7.17
   3  -8 -13   17.90    6.84
  -3  -8  13   14.87    6.78
   3  -8  13   11.12    7.24
  -3  -8  13   11.40    8.54
   3  -8  13   14.40    7.55
  -3  -8 -13    1.78    4.20
  -3   8  13   -0.90    5.37
  -3   8  13   11.73    8.65
  -3  -8  13   11.97    6.74
   3   8  13   17.77    6.99
  -3  -8  14   -0.78    3.82
   3  -8  14    2.29    5.26
  -3  -8  14    3.32    6.21
   3  -8  14   -0.27    2.69
  -3   8  14    6.66    3.49
   3  -8 -14    0.84    3.17
  -3  -8 -14    2.67    5.45
  -3   8  14    3.60    4.25
  -3  -8  14   -0.02    4.33
   3   8  14   -4.56    5.40
   3  -8  15   95.23   16.53
  -3  -8  15   81.96   15.83
   3  -8 -15   78.61   15.89
   3   8  15   89.37   15.38
  -3  -8 -15   94.56   17.79
  -3  -8  15  110.12   16.01
  -3   8  15  101.91   15.75
  -3   8  15  136.52   19.62
   3  -8  15   86.25   15.22
  -3  -8  15   59.86   14.55
  -3   8  16    0.17    7.52
   3  -8  16    1.42    3.17
  -3  -8  16    4.52    3.33
   3  -8  16    3.56    5.50
  -3  -8 -16    5.49    5.34
   3  -8 -16   -2.46    4.38
  -3   8  16    6.57    7.46
  -3  -8  16    1.83    3.41
  -3  -8  16    1.24    4.13
   3   8  16    6.34    8.65
  -3  -8  17  120.68   18.92
   3  -8  17   97.55   16.01
   3  -8 -17  127.58   20.38
  -3  -8 -17  117.95   18.97
   3  -8  17   93.99   16.45
  -3  -8  17  104.81   16.50
  -3   8  17  141.87   21.16
  -3  -8  17  101.82   20.04
  -3   8  17  125.47   19.53
   3   8  17  106.52   17.69
   3   8  18   10.25    6.41
   3  -8  18   18.20    9.01
  -3  -8  18    6.15    7.10
  -3  -8 -18   11.91    5.92
   3  -8  18   14.04    6.77
   3  -8 -18   16.57    4.83
  -3   8  18    7.44    3.62
  -3  -8  18    9.01    6.95
  -3   8  18   17.90    6.80
   3   8  19   22.85   11.90
  -3  -8  19   16.76   10.13
  -3  -8  19   -6.63    4.61
  -3  -8 -19   12.15    6.18
   3  -8 -19    2.47    4.20
  -3   8  19    1.49    8.84
  -3  -8  19    8.76    7.63
  -3   8  19    7.13    2.60
   3  -8  19    5.78    6.45
   3  -8  19   17.36    9.72
   3  -8  20   68.09   15.16
   3   8  20   33.17   10.23
  -3  -8  20   45.60   11.25
  -3   8  20   53.56   14.42
  -3  -8 -20   26.15    6.24
   3  -8  20   38.42   11.44
   3  -8 -20   34.65   12.76
  -3  -8  20   44.38   13.54
  -3   8  20   44.85   13.79
   3   8  21   -1.21    5.74
  -3  -8 -21    9.43    7.96
   3  -8 -21   -1.31    5.20
  -3   8  21    3.80    7.74
  -3  -8  21    9.02    9.83
  -3   8  21   14.40    8.48
   3  -8  21    1.15    3.33
   3  -8  21    1.31    9.52
   3   8  22   10.20    7.55
   3  -8 -22   -9.09    8.81
  -3  -8 -22   11.61    6.36
  -3   8  22   -2.73    7.78
  -3  -8  22   -2.33    7.14
  -3   8  22    4.69    6.96
   3  -8  22    6.15    3.36
   3  -8  22    2.54    4.10
   3   8  23    5.92    8.15
   3  -8 -23    3.21    6.27
  -3  -8 -23    2.89    8.99
  -3   8  23    3.12    7.45
  -3  -8  23    0.67    7.93
   3  -8  23    8.06    9.23
  -3   8  23    5.38    6.14
   3  -8  23    3.06    6.34
   3   8  24   29.41   11.62
  -3  -8 -24   27.31   10.85
   3  -8 -24   36.46   11.75
  -3   8  24   53.92   16.50
  -3  -8  24    7.98    6.33
   3  -8  24   38.51   12.46
  -3   8  24   17.39    9.21
   3  -8  24   14.51    9.58
   3   8  25    4.06    6.79
  -3   8  25   22.75   10.96
  -3  -8 -25    1.00    7.55
   3  -8 -25   17.47    9.78
   3  -8  25   12.91    6.40
  -3  -8  25   13.47   12.63
  -3   8  25   13.70    8.74
   3  -8  25   19.29   10.06
   3   8  26    1.02    5.81
  -3  -8 -26    1.45    7.06
   3  -8 -26    2.46    4.04
   3  -8  26    4.87    5.07
  -3  -8  26    9.94    4.91
   3  -8  26   -0.39    8.62
  -3   8  26   -1.18    3.14
  -3   8  26   20.26   12.52
   3   8  27   -0.06    5.00
   3  -8  27    9.07    4.61
  -3   8  27   -5.47    7.56
  -3  -8 -27    1.11    4.09
   3  -8 -27    5.72    5.45
  -3  -8  27   -1.38    8.12
  -3   8  27   13.70    9.96
   3  -8  27   17.84    9.55
   3  -9   0    0.57    3.18
  -3  -9   0    0.31    2.17
  -3  -9   0   -2.23    6.00
   3  -9   0   -2.74    5.25
  -3  -9  -1  979.48   45.49
  -3  -9   1  886.71   48.28
  -3  -9  -1  925.80   49.27
   3  -9   1  980.79   48.75
   3  -9  -1  908.60   47.95
   3  -9   1  944.09   49.30
  -3  -9   1  845.23   42.40
   3  -9  -1  957.68   49.22
  -3  -9  -2   68.66   12.45
  -3  -9   2   78.44   13.21
  -3  -9   2   55.29   12.31
   3  -9   2   53.58    9.83
  -3  -9  -2   63.47   13.59
   3  -9  -2   83.11   14.86
   3  -9   2   68.86   14.99
   3  -9  -2  107.11   16.25
  -3  -9   3    1.65    6.52
   3  -9   3   -4.74    6.68
  -3  -9   3   -4.99    4.02
  -3  -9  -3    1.68    5.91
  -3  -9  -3   -2.46    2.16
   3  -9  -3   -3.03    4.27
   3  -9   3   -0.31    4.21
  -3   9   3    5.69    8.90
   3  -9  -3    4.78    7.68
  -3  -9   4  210.90   24.12
   3  -9  -4  220.58   24.03
   3  -9   4  194.43   22.52
  -3  -9  -4  254.88   26.45
   3  -9  -4  257.53   24.84
  -3  -9   4  224.19   21.56
  -3   9   4  234.05   22.68
   3  -9   4  243.08   23.98
  -3  -9  -4  232.20   22.47
  -3  -9   5 1291.02   59.14
   3  -9   5 1312.63   57.72
  -3  -9  -5 1205.39   57.42
   3  -9  -5 1382.30   59.85
  -3  -9   5 1233.22   51.20
   3  -9  -5 1321.72   57.38
   3  -9   5 1320.49   59.31
  -3  -9  -5 1258.45   53.28
  -3   9   5 1279.99   54.22
  -3  -9   6  204.18   23.55
   3  -9   6  181.80   21.11
  -3  -9   6  193.35   20.74
  -3  -9  -6  170.28   22.18
   3  -9  -6  186.59   22.40
   3  -9   6  188.14   22.91
   3  -9  -6  240.26   24.76
  -3   9   6  194.53   21.36
  -3  -9   7  230.51   24.36
   3  -9   7  211.97   22.16
  -3  -9   7  253.81   22.98
   3  -9   7  264.11   27.03
  -3  -9  -7  234.92   26.09
   3  -9  -7  251.69   25.80
   3  -9  -7  219.31   23.68
  -3  -9   8  191.68   20.00
   3  -9   8  206.55   22.93
   3  -9   8  175.79   22.00
  -3  -9  -8  188.00   23.32
   3  -9  -8  163.72   21.19
  -3  -9   8  196.48   23.23
  -3   9   8  176.62   21.52
   3  -9  -8  212.07   24.42
   3   9   8  201.42   21.30
  -3   9   9  542.82   36.58
  -3  -9   9  544.30   38.21
   3  -9   9  578.03   39.81
  -3  -9  -9  558.06   39.94
   3  -9   9  549.46   37.22
   3  -9  -9  560.65   39.11
   3   9   9  580.09   37.37
   3  -9  -9  576.31   40.95
  -3  -9   9  583.35   35.58
  -3  -9  10  202.39   23.46
   3  -9  10  240.55   23.90
   3  -9  10  222.14   24.34
  -3  -9 -10  235.51   25.88
   3  -9 -10  198.44   23.71
   3   9  10  231.35   24.25
  -3  -9  10  219.35   22.21
   3  -9  11  102.14   16.14
  -3  -9  11   88.16   16.16
   3   9  11  119.56   17.98
   3  -9  11   97.73   14.95
  -3  -9 -11   89.42   16.63
  -3   9  11   91.80   16.40
   3  -9 -11   88.74   16.71
  -3  -9  11   87.19   13.55
  -3  -9  12    6.36    5.19
   3  -9  12    7.99    5.96
  -3  -9  12    4.28    2.88
   3  -9  12    9.39    7.66
   3  -9 -12    1.37    6.41
  -3   9  12   -5.07    6.99
  -3  -9 -12    3.88    6.81
   3   9  12    0.89    3.08
   3  -9  13  199.74   22.96
  -3  -9  13  215.40   25.26
  -3   9  13  205.84   23.13
  -3  -9 -13  181.71   24.75
   3  -9 -13  181.84   23.35
  -3  -9  13  151.08   18.88
   3   9  13  188.42   22.56
   3  -9  13  207.45   23.63
   3  -9  14   78.39   14.73
  -3  -9  14   66.26   15.49
  -3   9  14   57.15   13.37
   3  -9  14   78.07   14.65
  -3  -9 -14   87.68   15.62
   3  -9 -14   70.12   16.12
  -3  -9  14  103.31   16.96
   3   9  14   84.58   15.38
  -3  -9  15   -4.56    2.95
   3  -9  15   12.82    4.57
  -3  -9  15   11.92    3.65
   3  -9  15    2.09    4.25
  -3   9  15    1.02    5.45
  -3  -9 -15   -6.21    4.77
   3  -9 -15    4.92    5.88
  -3   9  15    2.77    3.85
   3   9  15    5.31    5.63
   3  -9  16  380.85   32.70
  -3  -9  16  397.03   34.79
  -3  -9 -16  361.61   34.44
   3  -9 -16  340.02   31.76
  -3   9  16  370.73   33.61
  -3   9  16  419.42   34.85
   3   9  16  367.81   32.65
   3  -9  17  324.56   30.96
  -3  -9  17  310.30   30.61
  -3  -9 -17  360.24   34.10
   3  -9 -17  284.58   30.61
  -3   9  17  262.73   29.57
   3   9  17  343.47   32.39
   3  -9  17  299.84   28.88
  -3   9  17  342.04   32.05
   3  -9  18   10.84    7.95
  -3  -9  18    9.15    3.84
   3  -9  18   11.10    5.68
  -3   9  18   18.30    9.24
   3  -9 -18   10.11    8.96
  -3  -9 -18   -0.89    3.56
  -3   9  18   15.84   10.73
   3   9  18    7.01    6.08
   3  -9  19  213.35   25.16
  -3  -9  19  165.70   22.68
  -3  -9 -19  196.47   25.50
   3  -9 -19  226.76   27.45
   3  -9  19  199.68   25.01
  -3   9  19  217.69   26.82
  -3   9  19  230.09   26.84
   3   9  19  245.85   28.56
  -3  -9  20  132.09   21.41
  -3   9  20  125.85   22.72
   3  -9 -20  145.99   22.67
   3  -9  20  130.59   20.75
  -3  -9 -20  123.40   18.97
  -3   9  20  122.75   20.34
   3   9  20  109.39   19.26
   3  -9  20   98.88   19.64
   3  -9  20  136.29   20.57
  -3  -9  21   84.21   17.17
   3  -9 -21   89.24   17.25
   3  -9  21   99.25   18.27
  -3  -9 -21  129.43   18.97
  -3   9  21  112.57   19.16
  -3   9  21   91.60   18.15
   3   9  21  119.07   21.05
   3  -9  21   92.80   20.00
   3   9  22    8.44    6.80
  -3  -9 -22   -5.34    7.50
   3  -9 -22    0.61    9.89
  -3   9  22    0.27    4.19
  -3   9  22   -3.83    7.58
   3  -9  22    1.93    4.78
   3  -9  22  -11.04    7.10
  -3   9  23  348.04   35.98
  -3  -9 -23  309.26   33.16
   3  -9 -23  313.47   35.51
  -3   9  23  340.20   34.04
   3  -9  23  329.07   34.97
   3  -9  23  373.12   35.16
   3   9  23  331.29   33.70
  -3   9  24   28.80   13.41
  -3  -9 -24   29.67   12.00
   3  -9 -24   36.43   13.09
  -3   9  24   24.32    7.33
   3  -9  24   32.29    8.40
   3  -9  24    1.91    4.58
   3   9  24   40.84    9.23
  -3  -9 -25   36.78   14.11
   3  -9 -25   56.30   17.59
  -3   9  25   30.82   12.48
   3  -9  25   22.39    7.61
  -3   9  25   52.73   14.67
   3  -9  25   50.66   13.83
   3   9  25   31.17    9.92
   3  -9 -26   38.07   14.17
  -3  -9 -26   46.30   16.34
  -3   9  26   32.15   13.07
   3  -9  26   51.28   14.37
  -3   9  26   55.48   15.36
   3  -9  26   25.59    8.64
   3   9  26   43.55   12.52
   3 -10   0   -2.40    5.95
  -3 -10   0   -1.94    4.48
  -3 -10   0   -2.26    5.26
   3 -10   0   -2.23    5.29
   3 -10  -1    4.03    7.30
  -3 -10   1    2.42    5.47
  -3 -10  -1    6.63    3.60
  -3 -10  -1    3.64    4.29
   3 -10   1    6.32    4.40
   3 -10  -1   -2.11    6.68
   3 -10   1    0.26    3.48
  -3 -10   1   11.90    6.83
   3 -10   2   13.53    8.18
  -3 -10   2    6.40    5.72
   3 -10  -2    6.88    3.86
   3 -10   2    3.73    8.95
  -3 -10  -2   14.26    7.98
   3 -10  -2    0.81    5.61
  -3 -10   2    9.69    3.47
  -3 -10  -2    7.53    5.70
  -3 -10  -3   10.27    5.00
  -3 -10   3   14.47    6.61
   3 -10   3   21.23    8.13
  -3 -10   3   18.38    6.63
  -3 -10  -3   22.06    6.64
   3 -10  -3   28.90   10.31
   3 -10   3   24.56    8.35
   3 -10  -3   23.32    7.45
  -3 -10   4    6.42    4.97
  -3 -10   4   16.15    9.06
   3 -10   4   13.58    7.65
   3 -10   4    4.66    5.41
  -3 -10  -4    9.01    5.88
  -3 -10  -4   23.94    7.38
   3 -10  -4   16.97    9.23
  -3  10   4   12.66    3.62
   3 -10  -4   16.75    5.89
  -3 -10   5    5.86    5.19
   3 -10   5    0.23    5.32
  -3 -10   5    2.09    2.87
   3 -10   5    6.26    6.53
  -3 -10  -5    0.05    7.79
   3 -10  -5   -0.11    7.12
  -3  10   5   -6.45    5.57
   3 -10  -5    1.21    4.71
  -3 -10  -5    0.78    2.77
   3 -10   6   24.19    9.44
  -3 -10   6   17.21    7.89
   3 -10  -6   22.08    8.60
   3 -10   6   17.16    6.08
  -3 -10  -6   13.58    9.99
   3 -10  -6   22.19    6.94
  -3 -10  -6   11.09    5.74
  -3 -10   6   12.96    6.81
  -3  10   6   28.96    8.76
  -3 -10   7   68.78   13.73
  -3 -10   7   80.69   15.74
   3 -10   7   87.46   16.19
   3 -10   7  126.55   19.24
  -3  10   7   89.10   15.72
   3 -10  -7   91.67   16.21
  -3 -10  -7   61.22   15.72
   3 -10  -7   62.89   14.46
  -3 -10  -7   76.87   14.00
  -3 -10   8  165.05   19.92
  -3 -10   8  208.92   23.97
   3 -10   8  193.27   22.29
   3 -10   8  181.79   24.25
  -3 -10  -8  185.45   22.84
   3 -10  -8  211.62   24.27
   3 -10  -8  181.16   22.07
  -3  10   8  144.69   19.11
  -3 -10   9  142.94   20.40
   3 -10   9  111.58   16.91
   3 -10   9  107.15   16.72
  -3 -10  -9  157.57   21.65
  -3  10   9  121.59   18.01
   3 -10  -9  123.30   19.64
  -3 -10   9  105.08   16.23
   3 -10 -10   49.18   10.65
  -3 -10  10   47.77   11.85
   3 -10  10   70.26   14.57
  -3 -10 -10   47.84   11.83
   3 -10 -10   62.74   14.15
   3 -10  10   68.03   14.14
   3  10  10   60.09   12.66
  -3  10  10   45.20   11.43
  -3 -10  10   61.53   14.38
   3 -10 -11   -0.75    4.04
   3 -10 -11    9.71    7.84
  -3 -10  11   22.02   10.29
   3 -10  11    0.89    7.61
  -3 -10  11   -8.05    4.55
  -3 -10 -11   14.21    7.76
  -3  10  11   -3.86    8.31
   3 -10  11   15.13    8.64
   3  10  11   14.87    7.99
  -3 -10  12    7.29    3.69
   3 -10  12    4.96    4.93
   3 -10  12    6.97    5.54
  -3  10  12    2.45    7.39
  -3 -10 -12    4.18    5.99
   3  10  12   -4.72    6.42
   3 -10 -12   -1.11    8.06
  -3 -10  13    7.31    9.28
   3 -10  13    9.64    7.51
  -3 -10 -13   -3.53    6.61
   3 -10  13   -0.65    2.96
   3 -10 -13    3.03    3.93
  -3  10  13    2.83    7.27
   3  10  13    5.67    5.70
   3 -10  14   52.29   11.39
  -3 -10  14   65.23   15.23
   3 -10  14   39.75   11.63
   3 -10 -14   34.86   10.66
  -3  10  14   54.40   13.66
  -3 -10 -14   37.72   11.40
   3  10  14   43.96   10.79
   3 -10  15    1.40    6.25
  -3 -10  15    1.17    3.89
  -3  10  15   13.09    8.51
   3 -10  15   12.05    6.29
   3 -10 -15    7.66    7.20
  -3 -10 -15    5.10    8.89
   3  10  15    0.99    3.63
   3 -10  16   21.23   11.28
  -3 -10  16   58.93   14.66
   3 -10  16   58.35   13.32
   3 -10 -16   42.62   14.45
  -3 -10 -16   61.81   13.26
  -3  10  16   94.83   16.05
   3  10  16   46.29   11.48
  -3 -10 -17   45.76   14.06
   3 -10  17   39.47   10.94
  -3 -10  17   45.05   12.75
   3 -10  17   29.45    9.93
   3 -10 -17   40.38   12.68
   3  10  17   46.62   10.42
  -3  10  17   33.32   11.68
   3 -10  18   69.72   15.71
  -3 -10  18   94.53   16.99
  -3 -10 -18   82.89   16.60
   3 -10  18  115.46   19.20
  -3  10  18  113.27   18.46
   3 -10 -18  128.36   20.76
  -3  10  18  103.87   20.04
   3  10  18  114.20   19.62
   3 -10  19    8.54    5.68
  -3 -10  19   22.36    9.44
   3 -10  19   21.27   10.32
  -3 -10 -19   13.44    7.83
   3 -10 -19   18.80   12.45
  -3  10  19   30.19   11.87
  -3  10  19   20.48   11.01
   3  10  19   16.24    9.45
   3 -10  20   45.90   11.89
  -3 -10  20   56.52   14.69
   3 -10  20   53.04   13.89
  -3  10  20   50.96   14.11
   3 -10 -20   78.53   17.34
  -3  10  20   47.21   12.28
   3  10  20   45.39   12.55
  -3 -10 -20   45.09   12.93
   3 -10  20   38.73   10.65
   3 -10  21    9.44    6.09
  -3 -10  21   25.91   10.69
  -3  10  21   32.11   12.86
   3 -10 -21    8.85    6.98
  -3  10  21   23.59   10.52
   3  10  21   25.98   10.29
  -3 -10 -21   12.88   11.33
   3 -10  21   33.25    8.96
   3 -10  21   18.23    8.09
  -3 -10  22   74.77   14.78
   3 -10 -22   55.10   14.66
  -3  10  22   67.04   14.18
  -3  10  22   46.50   13.63
   3  10  22   65.68   16.01
  -3 -10 -22   75.80   16.74
   3 -10  22   48.67   12.59
   3 -10  22   67.51   15.07
   3 -10 -23   16.67   11.98
  -3  10  23   14.92   11.37
  -3  10  23    7.31    5.86
   3  10  23    8.61    4.93
   3 -10  23   17.34    9.11
  -3 -10 -23  -10.98    9.53
   3 -10  23   -0.88    8.42
  -3 -10 -24   -1.40    4.57
   3 -10 -24    1.94    4.96
  -3  10  24    9.56   10.61
  -3  10  24    5.11    5.37
   3 -10  24   15.32    9.61
   3  10  24   -7.05    7.55
   3 -10  24   -0.43    5.11
  -3 -11   0   -1.60    7.31
   3 -11   0    0.73    4.17
   3 -11   0   -0.12    3.98
  -3 -11   0   -5.02    3.29
   3 -11  -1   59.87   12.66
  -3 -11  -1   67.52   13.63
  -3 -11   1   86.38   16.24
  -3 -11  -1   61.91   13.85
   3 -11   1   88.33   15.73
   3 -11  -1   67.36   14.51
   3 -11   1   73.46   14.66
  -3 -11   1   51.29   11.47
  -3 -11   2  219.12   25.39
  -3 -11   2  253.76   28.51
   3 -11   2  208.93   26.77
  -3 -11  -2  247.90   26.77
   3 -11  -2  248.88   28.93
   3 -11   2  265.86   28.81
   3 -11  -2  254.14   28.16
  -3 -11  -2  261.47   26.81
  -3 -11  -3   60.24   17.46
  -3 -11   3   33.67   10.52
  -3 -11   3   37.18   10.00
   3 -11   3   47.24   12.52
   3 -11  -3   37.44   10.33
   3 -11  -3   39.55   12.95
   3 -11   3   40.66   10.64
  -3 -11  -3   21.47    7.36
  -3 -11   4   53.63   12.50
  -3 -11   4   54.64   14.10
   3 -11   4   62.35   13.70
   3 -11   4   63.10   14.18
  -3 -11  -4   72.29   16.59
   3 -11  -4   64.08   15.79
   3 -11  -4   61.14   12.96
  -3 -11  -4   51.17   12.34
  -3 -11   5   29.31    9.36
   3 -11   5   48.55   12.20
  -3 -11   5   56.38   13.42
   3 -11   5   62.14   14.00
  -3 -11  -5   48.49   11.55
  -3 -11  -5   35.87   11.35
   3 -11  -5   48.01   13.13
   3 -11  -5   63.61   15.19
  -3 -11   6  112.61   20.38
   3 -11   6  101.69   18.60
   3 -11  -6  126.43   19.59
  -3 -11   6  119.27   19.71
  -3 -11  -6  109.18   18.28
   3 -11  -6  132.77   20.02
   3 -11   6  107.16   18.60
  -3 -11  -6  126.78   18.88
  -3  11   6   98.82   16.29
   3 -11  -7    5.47    5.21
  -3 -11   7   18.44    7.44
   3 -11   7   15.74    7.03
  -3 -11  -7   27.18    9.13
  -3 -11  -7   11.34    9.13
   3 -11  -7    7.66    3.77
  -3  11   7    2.64    8.67
   3 -11   7   19.31    5.28
  -3  11   8    8.29    7.93
  -3 -11   8   18.72    9.42
   3 -11   8    6.03    5.68
  -3 -11  -8   -1.17    5.00
   3 -11  -8   10.76    3.28
  -3 -11  -8    7.32    6.27
   3 -11  -8    6.32    9.58
   3 -11   8    7.19    8.03
  -3  11   9   11.36    6.60
  -3 -11  -9   14.95    8.54
  -3 -11   9    9.17    4.00
   3 -11   9   -1.94    3.93
  -3 -11  -9    0.53    3.77
   3 -11  -9    8.35    6.24
   3 -11   9    9.79    5.89
   3 -11  -9    4.45    4.57
   3 -11  10   31.63    9.80
   3 -11 -10   30.58    9.61
  -3 -11  10   16.46    9.75
   3 -11  10   21.08    6.92
  -3 -11 -10   12.46    9.93
  -3  11  10   19.08   10.62
   3 -11 -10   11.57    7.01
   3 -11 -11    7.49    8.37
  -3 -11  11    3.03    6.53
   3 -11  11   11.07    6.37
  -3 -11 -11    3.09    6.65
   3 -11 -11    1.56    5.17
  -3  11  11   -2.81    3.87
   3 -11  11    6.22    8.42
   3 -11  12  407.75   36.61
  -3 -11 -12  394.61   36.62
   3 -11 -12  392.51   36.32
  -3  11  12  361.33   32.86
   3 -11 -12  401.72   35.54
   3 -11  12  421.96   36.10
  -3 -11  13   48.45   16.43
   3 -11  13   48.86   13.45
  -3 -11 -13   36.98   14.28
   3 -11 -13   68.56   17.18
   3 -11  13   43.69   11.22
  -3  11  13   57.66   14.75
   3  11  13   43.15   12.84
   3 -11 -13   58.92   14.18
   3 -11  14   43.83   13.12
  -3 -11  14   54.86   13.62
   3 -11 -14   46.41   10.77
   3 -11 -14   30.86   11.54
  -3 -11 -14   45.39   11.55
   3 -11  14   29.15    9.58
  -3  11  14   46.11   14.26
   3  11  14   37.05   11.22
   3 -11  15   29.84   13.61
  -3 -11  15   40.22   12.39
   3 -11  15   56.35   13.08
  -3 -11 -15   17.88   11.60
   3 -11 -15   37.96   12.24
  -3  11  15   28.12   10.20
   3  11  15   31.60   10.65
   3 -11  16   28.72    9.28
  -3 -11  16   21.66   11.68
   3 -11  16   29.45   11.32
   3 -11 -16   17.40    9.34
  -3  11  16   22.24    9.28
   3  11  16   10.47    3.78
  -3 -11 -16   22.08   11.17
   3 -11  17   17.38    7.70
  -3 -11  17   -1.16    5.68
   3 -11  17    6.79    8.09
  -3 -11 -17    0.25    3.64
   3  11  17    3.46    4.65
  -3  11  17   -2.14    6.12
   3 -11 -17   10.19    9.50
   3 -11  18    7.77    8.65
  -3 -11  18    2.16    6.63
   3 -11  18    3.38    6.32
  -3  11  18    5.07    7.21
   3 -11 -18    2.20    8.60
  -3 -11 -18    5.26    4.89
   3  11  18   -1.55    4.66
   3 -11  19   56.33   14.32
  -3 -11  19   43.16   13.39
   3 -11  19   66.17   14.90
  -3 -11 -19   54.60   13.17
   3 -11 -19   69.06   16.34
  -3  11  19   69.38   18.75
   3  11  19   47.26   12.63
  -3 -11  20  216.04   26.96
   3 -11  20  142.36   21.29
  -3 -11 -20  143.35   24.07
   3 -11 -20  185.86   26.65
   3 -11  20  195.19   25.56
   3  11  20  214.85   26.72
  -3  11  20  183.50   26.29
   3 -11  20  165.03   26.56
   3 -11  21   13.52    7.86
  -3 -11  21   15.08    7.66
   3 -11  21   20.17    8.96
   3 -11 -21   18.80   10.42
  -3 -11 -21    5.70    5.13
  -3  11  21   10.37    7.04
   3  11  21   20.19    8.41
   3 -11  21   12.13    5.43
  -3 -11  22  211.07   26.81
  -3 -11 -22  245.91   32.04
   3 -11 -22  306.17   33.72
  -3  11  22  255.02   30.22
   3 -11  22  287.22   31.74
  -3  11  22  282.52   31.35
   3  11  22  289.55   31.75
   3 -11  22  213.11   30.14
   3 -11  22  167.38   23.73
  -3 -11 -23   15.10   10.21
  -3 -11  23   -6.26    4.54
   3 -11 -23   -6.45    7.51
  -3  11  23    2.43    7.39
   3  11  23   -1.94    4.41
   3 -11  23   -0.51    6.19
   3 -11  23   -5.40    7.84
  -3 -12   0    5.27    5.75
   3 -12   0    7.53    9.31
   3 -12   0    1.31    3.82
  -3 -12   0   -4.93    5.08
  -3 -12  -1   21.94    6.25
  -3 -12   1   11.86    4.73
  -3 -12  -1   36.41   10.04
   3 -12   1   19.02    7.71
   3 -12  -1   47.09   13.68
   3 -12   1   35.25   11.08
  -3 -12   1   50.08   14.82
   3 -12  -1   34.88   13.15
   3 -12  -2    9.50   10.09
  -3 -12  -2   21.55   10.41
  -3 -12   2   11.13    6.27
   3 -12   2   16.28    9.31
  -3 -12  -2    6.85    7.17
   3 -12  -2   19.32    8.71
  -3 -12   2   11.37    8.39
   3 -12   2   11.15    8.41
   3 -12  -3    2.87    4.85
  -3 -12   3    6.17    3.59
   3 -12   3    2.06    6.41
  -3 -12  -3   -2.80    4.21
   3 -12   3    7.80    6.32
   3 -12  -3   -2.65    4.00
  -3 -12  -3    3.60    3.00
  -3 -12   4    1.02    3.47
   3 -12   4    7.09    5.13
   3 -12   4    0.49    6.56
  -3 -12  -4    3.21    5.54
   3 -12  -4   -0.40    6.14
   3 -12  -4   -0.87    6.09
  -3 -12  -4    9.70    8.03
   3 -12   5   -1.71    5.85
  -3 -12   5   13.10    7.96
   3 -12   5   -0.53    6.51
  -3 -12  -5    4.63    6.00
   3 -12  -5   -1.92   10.52
   3 -12  -5   13.70    8.74
  -3 -12  -5    8.17    6.42
   3 -12   6   13.46    8.08
  -3 -12  -6   16.46    5.54
  -3 -12   6   15.52    8.89
   3 -12   6    6.89    3.54
  -3 -12  -6   22.08   11.70
   3 -12  -6   20.03   10.53
   3 -12  -6   24.71    9.35
  -3 -12   7   10.06    6.69
   3 -12   7   12.26    9.14
  -3 -12  -7    4.05    6.07
  -3 -12  -7   19.76   12.36
   3 -12  -7   16.56   10.19
   3 -12  -7   25.35   10.62
   3 -12   7   10.34    6.57
   3 -12  -8    4.15    6.01
  -3 -12   8    5.52    8.81
   3 -12   8    3.85    5.51
  -3 -12  -8    6.02   12.57
   3 -12  -8    6.55    9.71
  -3  12   8    3.43    5.61
   3 -12   8    6.57    7.39
  -3 -12  -8    1.50    3.96
  -3 -12   9   48.42   12.25
   3 -12   9   50.14   13.02
   3 -12  -9   47.44   12.96
   3 -12   9   48.49   14.40
  -3 -12  -9   13.33    8.93
   3 -12  -9   42.41   13.42
  -3 -12  -9   46.81   11.99
  -3  12   9   32.80    9.10
   3 -12 -10   24.88    8.87
  -3 -12  10   20.05    9.06
   3 -12  10   21.04    8.87
  -3 -12 -10   32.40   12.54
  -3 -12 -10   24.63   12.52
   3 -12 -10   20.68   10.07
  -3  12  10   29.75   10.93
   3 -12  10   26.23   10.13
   3 -12 -11   -3.48    7.30
  -3 -12  11   -1.18    4.50
   3 -12  11   14.42    9.85
  -3 -12 -11    6.58    6.46
  -3 -12 -11   -2.49    6.02
  -3  12  11   -1.47    4.08
   3 -12  11   -4.32    4.71
   3 -12 -11    2.37    4.24
   3 -12 -12   46.41   13.30
  -3 -12  12   61.29   15.83
   3 -12  12   67.58   13.95
   3 -12 -12   33.84   11.27
  -3  12  12   41.94   11.71
  -3 -12 -12   35.82   11.51
   3 -12  12   33.02   12.15
   3 -12 -13    6.90    6.29
  -3 -12  13   -1.54    6.12
   3 -12  13   10.51    8.52
   3 -12 -13   -2.73    4.81
  -3 -12 -13    4.73    9.32
   3 -12  13    3.53    6.04
  -3  12  13    1.09    6.47
   3 -12 -14   48.39   12.77
   3 -12  14   27.45   11.65
  -3 -12  14   37.00   14.48
   3 -12  14   42.73   10.62
  -3 -12 -14   42.56   11.42
   3 -12 -14   41.08   14.44
   3 -12  15   31.97    9.43
  -3 -12  15    6.42    4.76
   3 -12  15   13.70    7.02
  -3 -12 -15   26.49   10.68
   3 -12 -15    8.17    4.16
   3 -12 -15   23.25   11.90
   3 -12 -16    0.42    5.42
   3 -12  16    5.46    5.85
  -3 -12  16    3.60    8.44
   3 -12  16    1.06    5.19
   3 -12 -16   -4.15    6.22
  -3 -12 -16   -6.25    7.34
   3  12  16   -1.43    4.97
  -3 -12  17  128.04   21.52
   3 -12  17   93.00   16.87
  -3 -12 -17  142.73   24.00
   3 -12 -17  143.21   25.48
   3 -12 -17  121.94   21.33
   3  12  17  137.18   21.57
   3 -12  17  111.50   18.53
   3 -12  18   13.18    9.19
  -3 -12  18   11.44    6.66
   3 -12  18    7.50    4.84
   3 -12 -18   11.79    7.29
  -3 -12 -18    3.17    6.34
   3  12  18   -2.41    7.70
   3 -12  19    6.90   10.83
  -3 -12  19    8.54    7.47
   3 -12  19   12.90    3.23
  -3 -12 -19   11.95   11.67
   3 -12 -19    6.76   11.26
   3  12  19    4.96    8.16
   3 -12  19   -6.92    6.82
   3 -12 -20    0.55    6.15
   3 -12  20    6.19    7.41
  -3 -12  20    2.18    9.64
   3 -12  20  -10.87    7.52
  -3 -12 -20   -0.79    4.39
   3  12  20    5.12    6.81
   3 -12  20   -1.31    4.62
  -3 -12  21   -7.67    7.27
   3 -12  21   -3.37    6.51
   3 -12  21    3.61    3.40
   3  12  21   -0.56    6.62
  -3 -12 -21   -1.32    6.93
   3 -12 -21   -1.33    6.14
   3 -12  21    1.47    9.08
  -3 -13   0    6.57   10.56
   3 -13   0   10.84    9.39
   3 -13   0    0.83    6.52
   3 -13   1  225.68   27.85
  -3 -13   1  263.10   30.40
  -3 -13  -1  247.60   28.80
   3 -13   1  235.97   29.63
   3 -13  -1  255.38   28.87
   3 -13  -1  283.28   31.88
  -3 -13   2  354.75   34.20
   3 -13   2  279.07   30.33
  -3 -13  -2  292.68   32.06
   3 -13  -2  248.73   29.98
   3 -13   2  333.07   33.55
   3 -13  -2  269.01   30.08
   3 -13  -3    5.88    8.29
  -3 -13  -3    5.45    7.77
  -3 -13   3   -5.56    8.11
   3 -13   3    3.28    7.27
   3 -13   3    2.63    4.25
  -3 -13  -3   -4.94    9.35
   3 -13  -3   -3.37    5.62
   3 -13  -4   54.67   14.07
   3 -13   4   73.65   16.36
  -3 -13   4   90.83   19.01
   3 -13   4   62.26   14.00
  -3 -13  -4   47.69   11.05
   3 -13  -4   94.88   20.29
  -3 -13  -4  103.73   21.32
  -3 -13  -5  136.83   21.60
  -3 -13   5  141.47   21.96
  -3 -13  -5  108.49   20.92
   3 -13  -5  159.28   24.78
   3 -13   5  119.94   20.38
   3 -13   5  148.29   23.19
   3 -13  -5  125.81   21.59
   3 -13   6   12.82    9.51
  -3 -13   6   -1.12   10.78
   3 -13   6    6.04    5.57
  -3 -13  -6    1.44    5.30
   3 -13  -6   -2.27   10.13
   3 -13  -6    4.79    5.52
  -3 -13  -6   -3.31    4.23
  -3 -13  -7    5.81    7.82
  -3 -13   7   28.34    7.47
   3 -13   7   16.65    8.27
  -3 -13  -7    8.87    7.02
   3 -13  -7   10.13    6.58
   3 -13  -7    9.71    4.17
   3 -13   7   36.18   10.16
  -3 -13   8   91.81   17.95
   3 -13   8   40.86   11.71
  -3 -13  -8   66.74   15.02
  -3 -13  -8   59.63   14.38
   3 -13  -8   60.72   15.35
   3 -13  -8   63.13   15.07
   3 -13   8   79.02   17.59
  -3 -13   9  137.66   22.28
   3 -13   9  148.62   23.42
   3 -13   9  171.07   24.12
   3 -13  -9  145.39   22.61
  -3 -13  -9  130.78   23.09
   3 -13  -9  131.15   22.15
  -3 -13  -9  160.06   23.81
  -3 -13 -10   -1.67    5.15
   3 -13 -10   -4.00    7.80
  -3 -13  10   10.46    5.55
   3 -13  10   13.44   10.64
  -3 -13 -10   -8.61    8.40
   3 -13 -10   -3.41    6.77
   3 -13  10   10.23    5.71
   3 -13  11   82.01   18.12
  -3 -13  11  108.34   18.98
   3 -13  11   68.54   15.80
   3 -13 -11   55.86   14.98
  -3 -13 -11   69.60   17.41
   3 -13 -11   67.39   16.04
  -3 -13 -11  100.97   17.33
  -3 -13 -12   12.57    8.14
  -3 -13  12   15.89    8.13
   3 -13  12   18.34    7.15
  -3 -13 -12   11.80    6.95
   3 -13 -12   23.38   11.33
   3 -13 -12   26.51    8.87
   3 -13  12   17.01    6.45
  -3 -13  13  227.12   27.59
   3 -13  13  221.39   27.66
  -3 -13 -13  240.24   29.06
  -3 -13 -13  236.80   30.18
   3 -13 -13  211.28   29.10
   3 -13 -13  229.83   28.69
   3 -13  13  257.33   30.00
   3 -13 -14   12.23    3.56
  -3 -13  14   11.49    7.98
   3 -13  14   -4.19    7.21
   3 -13  14    5.42    6.95
  -3 -13 -14   -3.10   10.96
   3 -13 -14    4.97    6.82
   3 -13  15    2.47    5.60
  -3 -13  15    9.49    7.68
   3 -13 -15    5.49    4.02
   3 -13  15    6.69    5.04
  -3 -13 -15    4.91    4.23
   3 -13 -15    6.95    8.16
   3 -13  16   12.12    9.80
  -3 -13  16   27.80   10.88
   3 -13  16    6.02    5.76
  -3 -13 -16   26.53   13.22
   3 -13 -16    9.50    8.26
   3 -13 -16   12.89    4.16
   3 -13  17   23.77    8.95
  -3 -13  17   32.41   12.59
   3 -13  17   49.91   14.89
  -3 -13 -17   42.72   13.01
   3 -13 -17   46.53   13.55
   3 -13 -17   54.31   14.28
   3 -13  18    6.51    9.38
  -3 -13  18    8.00    3.71
   3 -13  18   10.96    8.85
   3 -13 -18    1.66    4.80
  -3 -13 -18   -3.50    4.94
   3 -13 -18   -1.02    4.78
  -3 -14   0   11.86    8.44
   3 -14   0    7.62    8.66
   3 -14   0   -0.40    5.35
  -3 -14   1   44.49   14.83
  -3 -14  -1   40.15    9.93
   3 -14   1   15.45    8.89
   3 -14  -1   24.27    7.74
   3 -14   1   49.05   13.70
   3 -14  -1   41.55   12.73
  -3 -14   2   12.05    9.94
   3 -14   2   -9.93   10.68
  -3 -14  -2    9.97    5.31
   3 -14   2   -5.06    3.99
   3 -14  -2   -3.32   10.71
   3 -14  -2   11.99    9.31
   3 -14   3    1.21    5.33
  -3 -14   3   11.22    6.57
   3 -14   3    2.04    6.59
  -3 -14  -3    0.94    7.56
   3 -14  -3   11.66    6.70
   3 -14  -3    8.66    7.22
   3 -14  -4    1.48    7.70
   3 -14   4   -4.37    5.34
  -3 -14   4   10.46    7.97
   3 -14   4   -3.03    5.70
  -3 -14  -4    7.34    5.05
   3 -14  -4   -0.78    7.98
   3 -14   5   -2.84    4.75
   3 -14  -5    0.59    5.44
  -3 -14   5   -7.31    5.04
   3 -14   5    5.28    5.75
  -3 -14  -5    7.80    6.85
   3 -14  -5    4.07    5.44
  -3 -14   6   78.21   16.30
   3 -14   6   70.00   14.18
   3 -14  -6   69.96   15.43
  -3 -14  -6   30.55    9.43
   3 -14  -6   80.52   14.82
   3 -14   6   21.08    8.92
  -3 -14   7    3.16    7.06
   3 -14   7    9.92    4.52
  -3 -14  -7   13.61    8.86
   3 -14  -7   28.30   12.38
   3 -14  -7    9.88    4.35
   3 -14   7    3.29    6.44
  -3 -14   8   23.49   10.13
   3 -14   8    9.72    7.97
  -3 -14  -8   12.87    9.33
   3 -14  -8   21.14    9.79
   3 -14  -8   25.12    9.52
   3 -14   8   10.83    9.60
  -3 -14  -9  -12.72    6.91
  -3 -14   9    4.81    5.59
   3 -14   9   12.37    9.83
  -3 -14  -9    2.40    6.48
   3 -14  -9    1.25    7.31
   3 -14  -9    1.53    5.92
   3 -14   9    4.62    4.76
  -3 -14  10   24.43   11.07
   3 -14  10   24.90    9.95
  -3 -14 -10   29.97   12.81
  -3 -14 -10   27.79   12.23
   3 -14 -10   10.35    8.20
   3 -14  10    4.88    6.33
   3 -14 -10   17.33    5.50
  -3 -14  11   14.85    4.57
   3 -14  11    4.13    7.07
  -3 -14 -11   16.71   11.29
   3 -14 -11    6.82    6.57
   3 -14  11    0.23    5.03
   3 -14 -11    5.19    3.55
   3 -14 -12    0.68    3.02
  -3 -14  12   20.35   10.25
   3 -14  12    2.04    6.02
  -3 -14 -12   17.90    9.15
   3 -14 -12   17.51    8.92
   3 -14  12   -0.29    6.19
  -3 -14 -12   19.06    9.40
  -3 -14  13   -4.14    4.34
   3 -14  13    4.53    9.66
   3 -14 -13    6.55    9.22
  -3 -14 -13   15.14    8.89
  -3 -14 -13   16.55   10.48
   3 -14 -13    7.98    4.97
   3 -14  13   12.21    6.99
  -3 -14  14   14.53   10.69
   3 -14  14    5.98    4.42
   3 -14  14   19.13    8.00
  -3 -14 -14   24.84   11.29
   3 -14 -14   21.64   11.19
   3 -14 -14   15.37    9.18
  -3 -14 -14    0.92    3.65
   3 -14  15   -2.16    5.48
  -3 -14  15   -1.97    3.70
  -3 -14 -15    9.51    8.86
   3 -14  15   19.26    9.37
  -3 -14 -15   14.71   10.36
   3 -14 -15    0.56    5.32
   3 -14 -15   -3.55    8.62
  -3 -15   0    3.94    7.15
   3 -15   0   10.69    8.76
   3 -15   0    5.43    3.53
  -3 -15   1   27.12   13.82
   3 -15   1   22.65   12.87
  -3 -15  -1   18.91   11.85
   3 -15  -1    8.60   10.59
   3 -15   1   36.24   13.65
   3 -15  -1   19.31    7.27
  -3 -15   2  297.72   35.20
   3 -15   2  291.69   34.77
  -3 -15  -2  274.78   32.79
   3 -15  -2  268.83   32.51
   3 -15   2  361.03   37.01
   3 -15  -2  231.45   29.87
   3 -15   3   62.88   17.09
  -3 -15   3   78.66   18.61
   3 -15   3   56.06   15.80
  -3 -15  -3   65.93   14.85
   3 -15  -3   65.37   16.35
   3 -15  -3   73.68   19.18
  -3 -15   4  194.95   28.35
   3 -15   4  242.02   31.06
  -3 -15  -4  181.20   26.62
   3 -15  -4  154.66   25.31
   3 -15   4  206.42   28.26
   3 -15  -4  209.89   27.66
   3 -15   5    8.63    6.67
   3 -15  -5   11.53    8.80
   3 -15   5   24.11    8.74
  -3 -15  -5    5.39    5.25
   3 -15  -5   -3.77    5.92
  -3 -15   6  178.53   25.65
   3 -15   6  172.06   26.30
  -3 -15  -6  186.24   28.69
   3 -15  -6  206.60   29.35
   3 -15   6  196.79   28.05
   3 -15  -6  206.15   28.10
  -3 -15   7   34.03   11.31
   3 -15   7   35.98   13.57
   3 -15  -7   31.78    9.52
  -3 -15  -7   52.92   16.21
   3 -15  -7    7.39    5.99
   3 -15   7   38.85   13.08
  -3 -15   8   66.77   15.73
   3 -15   8   41.70   12.52
   3 -15  -8   38.13   10.90
  -3 -15  -8   53.93   16.64
   3 -15  -8   43.10   14.71
   3 -15   8   57.70   13.90
  -3 -15   9    4.64    6.86
   3 -15   9    2.29    5.86
  -3 -15  -9    9.23    9.01
   3 -15  -9   -5.06   11.89
   3 -15  -9    8.81    6.25
   3 -15   9   11.61    8.35
  -3 -15  10   32.50   12.81
   3 -15  10   34.46   13.02
  -3 -15 -10   12.38   11.42
   3 -15 -10   39.80   14.62
   3 -15 -10   24.38   11.58
   3 -15  10   69.40   16.45
  -3 -15  11    0.64    5.32
   3 -15  11    8.54    5.55
  -3 -15 -11   -4.13    5.33
   3 -15 -11   -6.92   11.22
   3 -15  11    5.98    7.85
   3 -15 -11    6.75    5.04
  -3 -16   0    5.35    6.92
   3 -16   0   -6.45    9.54
   3 -16   0   -0.73    7.96
  -3 -16   1   34.74   11.29
   3 -16   1   23.71    6.58
  -3 -16  -1   26.47   10.93
   3 -16   1   13.05    4.34
   3 -16  -1   46.43   18.75
   3 -16  -1   -5.19    8.37
   3 -16   2   -4.51    3.04
  -3 -16   2   13.60   11.05
   3 -16  -2   10.06    5.16
   3 -16   2    1.21    6.23
  -3 -16  -2    4.58    8.59
   3 -16  -2   18.02   12.56
   4   0   0 8030.49   66.51
  -4   0   0 7487.07   94.08
   4   0  -1    1.40    1.15
   4   0   1   -1.04    0.81
  -4   0  -1    1.07    2.66
  -4   0   1    2.20    2.42
  -4   0   2  528.96   24.87
   4   0  -2  580.38   17.71
   4   0   2  540.57   18.92
   4   0   3   -0.75    1.60
  -4   0   3    1.92    2.92
   4   0  -3    0.05    1.19
   4   0   4  518.65   21.31
  -4   0   4  517.12   25.58
  -4   0  -5    0.28    0.94
  -4   0   5   -0.39    1.59
  -4   0   5   -0.93    1.24
   4   0   5   -0.27    1.49
   4   0   6   93.56    9.62
  -4   0   6   87.98   11.13
  -4   0   6   88.98    8.05
  -4   0   7    2.92    4.54
  -4   0   7   -0.46    1.82
   4   0   7    0.55    1.14
  -4   0   8  438.74   26.74
   4   0   8  392.65   22.80
  -4   0   8  411.30   20.16
  -4   0   9   -0.91    1.65
  -4   0   9    2.50    3.56
   4   0   9    0.36    2.93
  -4   0  10  270.57   22.38
  -4   0  10  271.03   18.12
   4   0  10  270.37   20.32
  -4   0  11    0.29    1.54
   4   0  11   -2.18    2.91
  -4   0  11    0.95    3.43
   4   0  12  266.07   21.50
  -4   0  12  210.79   20.90
  -4   0  12  201.26   17.52
  -4   0  13    4.32    3.20
   4   0  13   -1.52    2.70
  -4   0  13    2.82    2.86
   4   0  14 2287.65   68.15
  -4   0  14 2374.07   64.52
   4   0  15   -0.58    5.60
  -4   0  15   -1.00    3.96
  -4   0  15   -4.80    4.53
   4   0  16  474.65   33.09
  -4   0  16  444.99   33.37
   4   0  16  558.97   35.84
  -4   0  16  439.87   29.74
  -4   0  17    0.78    6.05
   4   0  17    1.84    3.07
  -4   0  17   -1.98    2.90
   4   0  17    1.21    4.48
   4   0  18   63.76   13.93
  -4   0  18   73.36   15.50
  -4   0  18   83.00   14.05
   4   0  18   43.53   10.54
  -4   0  19   -2.17    3.14
   4   0  19   -0.82    5.63
  -4   0  19   -2.07    9.61
   4   0  19    0.95    6.34
  -4   0  20   71.92   13.48
   4   0  20   73.69   14.18
  -4   0  20   97.50   17.63
   4   0  20   95.17   17.51
  -4   0  21   -1.44    4.53
   4   0  21   -3.96    3.85
  -4   0  21    8.48   10.16
   4   0  21    2.16    4.26
   4   0  22  140.03   20.22
  -4   0  22  128.61   20.69
   4   0  22  111.21   20.57
  -4   0  22   96.44   16.18
  -4   0  23   -0.41    3.01
   4   0  23   -3.87    4.66
   4   0  23   -5.73    6.43
  -4   0  23    1.81    5.79
  -4   0  24    1.94    3.97
   4   0  24   -0.44    5.45
  -4   0  24    5.48    7.13
   4   0  24   -1.82    5.36
  -4   0  25   -6.22    4.84
   4   0  25   -3.72    2.85
  -4   0  25    5.39    9.80
   4   0  25   -3.39    5.77
  -4   0  26    6.34    6.73
   4   0  26   -0.94    6.16
  -4   0  26    0.48    7.50
   4   0  26   -3.14    4.58
  -4   0  27    5.77    4.21
   4   0  27   -1.61    4.44
  -4   0  27   -0.47    7.90
   4   0  27    4.26    7.69
   4   0  28  107.52   19.76
  -4   0  28   85.65   18.40
  -4   0  28   96.75   16.98
   4   0  28   85.98   16.65
  -4   0  29    0.03    5.49
   4   0  29    5.09    4.26
  -4   0  29   13.69   10.22
   4   0  29   -8.97    9.95
  -4   0  30   69.67   17.38
   4   0  30   88.70   17.92
  -4   0  30   91.30   19.35
   4   0  30   95.71   19.17
  -4   0  31   -8.61    8.43
   4   0  31    6.34    8.21
  -4   0  31    5.92    8.27
   4   0  31   -0.78    4.97
  -4  -1   0  220.49   10.33
   4  -1   0  219.10   13.76
   4   1   0  174.51    7.43
  -4   1   0  187.47   15.52
  -4  -1   1  495.23   16.56
  -4  -1  -1  407.59   13.15
   4  -1   1  471.72   20.90
   4   1   1  478.50   13.87
  -4   1  -1  460.54   24.19
  -4  -1  -1  475.95   21.86
  -4  -1   1  506.15   22.38
  -4   1   1  511.76   25.41
   4  -1  -1  432.34   19.08
  -4  -1   2  311.10   14.33
   4  -1   2  308.80   16.87
  -4  -1  -2  321.25   11.67
  -4  -1   2  314.29   17.91
   4   1   2  335.51   13.33
  -4   1   2  330.46   20.44
   4  -1  -2  319.42   16.07
  -4  -1  -3  131.67    7.96
   4  -1  -3  135.14   10.40
  -4  -1   3  158.38   13.62
   4   1   3  149.22    9.74
   4   1  -3  139.28    5.91
  -4   1   3  144.79   13.71
   4  -1   3  151.24   12.29
  -4  -1   3  126.56    9.96
  -4   1   4 2653.32   59.85
   4  -1  -4 2539.05   47.22
   4  -1   4 2561.50   50.64
  -4   1   5  230.21   18.36
   4   1   5  227.75   14.31
  -4  -1  -5  265.16   12.76
  -4  -1   5  264.06   18.94
  -4  -1   5  246.02   10.45
   4  -1   5  256.07   16.76
   4   1   6   35.06    5.97
  -4  -1  -6   36.63    5.08
  -4   1   6   33.26    7.20
  -4  -1   6   44.98    8.36
   4  -1   6   40.90    7.01
  -4  -1   6   41.53    4.79
  -4   1   6   47.28    6.49
  -4  -1  -7  154.57   11.66
   4   1   7  140.09   12.76
  -4  -1   7  146.93   14.88
   4  -1   7  150.48   13.64
  -4   1   7  164.11   12.87
  -4  -1   7  129.91    9.54
  -4   1   7  152.67   15.43
   4   1   8 1065.85   37.11
  -4   1   8  921.71   38.96
  -4  -1   8  950.05   38.82
  -4  -1  -8  984.88   30.67
  -4   1   8  977.55   33.75
  -4  -1   8  942.88   28.04
   4  -1   8  967.47   36.42
  -4  -1   9    8.39    3.36
   4   1   9   18.95    5.31
  -4   1   9    7.46    5.77
  -4  -1   9    5.61    4.70
   4  -1   9   15.36    4.66
  -4   1   9    5.58    1.28
   4   1  10  276.32   20.46
   4  -1  10  267.25   20.70
  -4  -1  10  279.77   17.85
  -4   1  10  315.28   24.70
  -4  -1  10  287.99   22.78
  -4   1  10  290.09   20.01
   4   1  11  143.81   15.38
   4  -1  11  156.34   16.00
  -4   1  11  144.31   17.15
  -4  -1  11  178.20   18.31
  -4   1  11  160.87   15.48
  -4  -1  11  155.63   13.94
   4   1  12  215.63   19.04
   4  -1  12  196.21   19.29
  -4   1  12  204.77   21.13
  -4  -1  12  213.46   21.50
  -4   1  12  216.54   19.06
  -4  -1  12  216.35   17.46
   4   1  13   77.54   12.40
   4  -1  13  110.16   14.26
  -4   1  13  143.62   18.49
  -4  -1  13  139.92   16.00
  -4   1  13  123.86   15.16
  -4  -1  13  118.58   13.71
   4   1  14  770.48   39.26
   4  -1  14  552.22   33.71
  -4   1  14  682.04   39.38
  -4  -1  14  815.80   42.94
  -4   1  14  615.83   33.40
   4   1  14  608.32   35.07
  -4  -1  14  578.39   31.54
  -4  -1  15 1829.27   57.69
   4   1  15 1989.18   64.76
   4  -1  15 1761.47   61.86
  -4   1  15 1639.14   62.59
  -4  -1  15 1837.11   67.62
   4   1  15 1738.56   61.92
  -4   1  15 1800.49   59.10
  -4  -1  16  336.54   25.84
  -4   1  16  421.10   31.99
   4   1  16  371.26   29.00
   4  -1  16  381.89   29.38
  -4  -1  16  397.43   31.52
   4   1  16  360.08   29.15
  -4   1  16  343.69   26.85
  -4   1  17   56.09   10.87
  -4  -1  17   41.28   10.16
   4   1  17   42.83   10.32
   4  -1  17   56.31   12.05
  -4   1  17   49.53   13.05
  -4  -1  17   44.60   10.35
   4   1  17   59.79   12.42
   4  -1  17   49.64   12.64
  -4  -1  18  483.92   33.18
   4   1  18  507.27   35.64
   4  -1  18  561.36   36.85
  -4  -1  18  544.06   38.07
  -4   1  18  508.70   37.23
   4   1  18  517.89   36.26
   4  -1  18  497.44   36.13
  -4   1  18  477.85   33.52
  -4   1  19   10.00    6.69
   4  -1  19   -0.85    3.28
  -4  -1  19   -1.75    5.00
   4   1  19    1.96    8.01
  -4   1  19   -1.05    6.26
  -4  -1  19   -2.71    4.17
   4   1  19    2.43    6.69
   4  -1  19    7.37    7.20
  -4   1  20   23.93    8.00
  -4  -1  20   41.59   10.41
   4   1  20   43.39   11.78
   4  -1  20   25.69   11.47
  -4   1  20   42.77   12.61
  -4  -1  20   21.65    8.82
   4   1  20   29.49   10.16
   4  -1  20   13.63    6.76
  -4   1  21   57.65   11.19
   4   1  21   81.47   16.14
   4  -1  21   95.64   15.90
  -4   1  21   91.49   16.99
  -4  -1  21   87.25   16.21
   4   1  21   85.76   16.07
   4  -1  21   65.12   14.59
  -4  -1  21  102.01   17.25
   4   1  22  442.95   35.92
   4  -1  22  507.05   38.26
  -4  -1  22  364.25   33.93
   4   1  22  441.38   35.59
  -4   1  22  477.95   38.75
   4  -1  22  428.09   35.80
  -4   1  22  534.65   38.18
  -4  -1  22  488.32   37.56
  -4   1  23   -3.96    4.91
  -4  -1  23   10.95    7.19
   4   1  23    2.73    5.16
   4  -1  23    0.49    2.94
  -4   1  23   -3.36    5.62
  -4  -1  23    3.21    6.38
   4   1  23   -8.25    5.75
   4  -1  23   11.30    8.25
  -4   1  24   23.02    7.87
  -4  -1  24   16.26    9.60
  -4  -1  24   14.73    8.27
   4   1  24   17.55    5.39
   4  -1  24   14.97    7.12
  -4   1  24   12.76    9.29
   4   1  24   14.56    8.54
   4  -1  24    7.72    5.90
   4   1  25  132.50   20.71
   4  -1  25  133.80   19.33
  -4   1  25  150.46   24.01
  -4  -1  25  133.05   22.34
   4   1  25  157.87   23.06
   4  -1  25  140.87   22.43
  -4   1  25  142.10   22.06
  -4  -1  25  130.38   19.76
   4   1  26  349.18   33.96
   4  -1  26  416.23   35.83
  -4  -1  26  309.11   34.39
  -4   1  26  365.94   35.71
   4   1  26  317.97   34.37
   4  -1  26  324.77   32.86
  -4   1  26  293.86   30.88
  -4  -1  26  278.15   30.70
  -4   1  27   -6.31    4.30
  -4  -1  27    4.30    6.74
   4   1  27   18.03    7.60
   4  -1  27    0.91    5.68
  -4   1  27    0.42    4.60
  -4  -1  27   -8.65    6.26
   4   1  27   -1.29    5.95
   4  -1  27   -6.10    6.06
   4   1  28  137.89   22.41
   4  -1  28  151.30   22.91
  -4   1  28  138.33   23.13
  -4  -1  28  123.62   22.37
   4  -1  28  153.78   25.36
  -4   1  28  128.85   20.87
   4   1  28  134.50   21.36
  -4  -1  28  117.51   20.93
  -4   1  29   38.84   12.45
  -4  -1  29   40.01   14.97
   4   1  29   57.00   15.94
   4  -1  29   44.91   11.99
  -4  -1  29   38.85   14.23
   4   1  29   43.84   11.72
   4  -1  29   32.83   13.31
  -4   1  29   47.00   10.92
  -4   1  30   23.95    5.94
  -4  -1  30   27.41   13.95
   4   1  30   18.27    6.09
   4  -1  30   22.44   10.14
  -4   1  30   13.49    8.88
  -4  -1  30   39.68   17.60
   4   1  30   15.84    7.47
   4  -1  30   25.35    5.76
  -4  -2   0  518.83   19.82
  -4   2   0  465.39   25.87
   4  -2   0  473.25   14.18
   4  -2   0  460.15   22.73
  -4  -2   0  443.59   19.97
   4  -2  -1    8.15    2.87
  -4  -2   1   10.25    3.84
   4  -2   1   15.46    2.46
   4   2   1    6.94    1.53
   4  -2   1    2.36    1.95
  -4  -2  -1    8.27    2.47
  -4   2  -1   10.51    4.19
  -4  -2   1   13.13    3.76
  -4   2   1   11.21    3.88
   4  -2  -1   13.32    2.03
   4  -2  -2  544.97   24.40
  -4  -2   2  522.57   21.78
   4   2   2  532.71   16.08
  -4  -2  -2  535.06   20.04
   4  -2   2  559.45   25.71
  -4  -2   2  486.01   20.93
   4  -2  -2  526.33   18.48
  -4   2   2  551.43   27.54
  -4  -2   3 1119.67   32.49
  -4   2   3  950.25   37.74
   4   2   3 1153.11   26.44
   4  -2   3 1116.23   36.41
  -4  -2  -3 1014.16   28.43
   4  -2   3 1137.54   18.20
   4  -2  -3 1050.84   34.07
  -4  -2   3 1169.26   34.35
  -4  -2   4 2077.60   46.03
   4  -2   4 2030.54   50.26
   4   2   4 2052.78   39.55
  -4  -2  -4 1973.38   40.87
  -4   2   4 2083.45   54.85
  -4  -2   4 2017.69   47.97
   4  -2  -4 2021.31   47.44
   4  -2   4 2131.33   27.54
  -4  -2   5   99.88   10.77
   4   2   5   97.98    9.25
  -4  -2  -5  110.55   10.12
  -4   2   5   72.69   11.11
  -4  -2   5   90.45    5.37
   4  -2   5   82.66   10.59
  -4  -2   6  203.85   16.24
   4   2   6  214.91   14.74
  -4  -2   6  211.26   16.68
  -4  -2  -6  196.26   13.82
  -4   2   6  203.85   18.22
  -4   2   6  217.18   15.90
   4  -2   6  212.44   16.83
  -4  -2   6  192.57    9.50
  -4  -2   7  808.73   32.55
   4   2   7  829.41   31.14
  -4  -2  -7  823.54   29.69
  -4   2   7  831.65   37.59
  -4  -2   7  855.08   34.71
  -4   2   7  842.84   32.34
   4  -2   7  812.59   33.88
  -4  -2   7  826.64   22.78
  -4  -2   8  138.95   10.37
  -4   2   8  168.63   17.10
   4   2   8  170.83   15.02
   4  -2   8  137.34   14.33
  -4  -2  -8  150.18   13.12
  -4  -2   8  138.46   15.12
  -4   2   8  155.26   14.37
  -4  -2   8  148.77   15.10
   4  -2   9    9.98    3.38
  -4  -2   9   16.14    4.13
   4   2   9   24.59    6.07
  -4  -2  -9   21.19    5.74
  -4   2   9   18.30    7.55
  -4  -2   9   25.42    7.30
  -4   2   9   25.73    5.81
   4  -2  10   15.63    4.94
  -4  -2  10    9.12    3.30
   4   2  10   12.22    5.08
  -4  -2 -10    9.16    4.75
  -4   2  10    8.36    4.30
  -4  -2  10   15.03    4.48
  -4   2  10    7.27    4.63
  -4  -2  11   74.34    9.73
   4   2  11   47.36    9.05
  -4   2  11   61.33   11.31
  -4  -2 -11   54.02    8.65
   4  -2  11   57.12   10.13
  -4  -2  11   54.73   11.57
  -4   2  11   65.21   10.00
  -4  -2  12  152.18   14.69
   4   2  12  191.17   18.31
   4  -2  12  128.69   15.32
  -4   2  12  168.44   19.71
  -4  -2  12  141.99   17.19
  -4   2  12  170.00   16.78
   4   2  12  161.29   16.78
  -4  -2  13  100.25   12.22
   4   2  13  115.08   14.45
  -4   2  13  107.30   16.52
   4  -2  13  105.31   13.50
  -4  -2  13  110.97   16.71
  -4   2  13  136.06   15.90
   4   2  13  119.14   14.96
  -4  -2  14   83.39   11.88
   4   2  14   78.29   13.10
   4  -2  14   88.16   13.25
  -4   2  14   83.21   14.29
  -4   2  14   88.62   13.36
   4   2  14   94.88   14.03
  -4  -2  14   68.47   11.16
  -4  -2  15  138.61   16.29
   4   2  15  143.56   17.44
   4  -2  15  165.90   18.82
  -4  -2  15  140.63   17.43
  -4   2  15  116.48   15.42
   4   2  15  144.45   17.03
  -4   2  15  142.29   18.31
  -4  -2  16   60.76   12.16
   4   2  16   66.80   12.11
   4  -2  16   91.11   14.93
  -4  -2  16   51.40   12.80
  -4   2  16   92.78   13.86
  -4   2  16   75.21   14.98
   4   2  16   79.50   13.94
  -4  -2  17  100.28   14.83
   4  -2  17   80.01   13.01
   4   2  17   89.08   14.13
  -4   2  17   77.97   14.04
  -4  -2  17   59.19   12.46
  -4   2  17   87.93   14.77
   4   2  17   76.74   12.80
  -4  -2  18  214.80   22.66
   4   2  18  227.14   23.84
   4  -2  18  237.63   24.70
  -4  -2  18  196.53   22.84
  -4   2  18  252.77   26.59
   4   2  18  221.10   22.66
  -4   2  18  206.08   22.36
  -4   2  19   -1.44    4.56
  -4  -2  19    3.47    5.14
   4   2  19    5.76    5.34
   4  -2  19   -3.26    6.31
  -4   2  19    0.50    7.18
  -4  -2  19    6.10    5.05
   4   2  19    3.30    5.28
   4  -2  19   11.15    5.25
  -4   2  20   -1.08    3.98
  -4  -2  20    4.21    2.93
   4   2  20    4.40    3.65
   4  -2  20    8.63    6.29
  -4   2  20    4.11    4.19
  -4  -2  20    3.09    5.45
   4   2  20    8.29    8.66
   4  -2  20   -2.36    4.70
  -4   2  21   18.55    6.69
  -4  -2  21   26.19    8.59
   4   2  21   29.66    9.32
   4  -2  21   30.95    8.75
  -4   2  21   50.32   13.21
  -4  -2  21   40.30   11.88
   4   2  21   25.87    9.40
   4  -2  21   28.91    8.01
  -4   2  22   14.90    5.37
  -4  -2  22    7.54    4.21
   4   2  22    4.26    2.71
   4  -2  22    7.77    4.88
  -4   2  22   15.84    7.13
  -4  -2  22   21.20   10.15
   4   2  22    0.99    3.31
   4  -2  22    6.25    7.47
  -4   2  23   28.57    9.35
   4   2  23   36.48   10.51
  -4  -2  23   31.15   10.48
   4   2  23   16.62    5.62
   4  -2  23   17.61    7.29
  -4   2  23   14.31    8.15
  -4  -2  23   36.42   12.57
   4  -2  23   10.43    9.03
  -4   2  24    3.52    4.60
   4  -2  24    1.80    7.15
  -4  -2  24    0.17    3.33
   4   2  24   -0.50    5.38
  -4   2  24    0.31    3.80
  -4  -2  24    5.80    6.90
   4   2  24    8.82   10.42
   4  -2  24   -2.24    5.28
   4  -2  25   -1.13    5.01
  -4   2  25    9.78    6.23
  -4  -2  25    5.69    4.23
   4   2  25    4.69    6.06
  -4   2  25    1.22    3.91
  -4  -2  25    5.36    4.30
   4   2  25   -0.40    7.34
   4  -2  25    9.56    7.53
  -4   2  26   75.21   15.56
  -4  -2  26   74.76   15.06
   4   2  26   64.84   12.84
   4  -2  26   34.67   11.95
  -4   2  26   59.92   15.72
  -4  -2  26   62.04   17.05
   4   2  26   87.70   16.58
   4  -2  26   75.92   16.42
  -4   2  27    6.67    2.90
  -4  -2  27   -6.43    7.15
   4   2  27    5.41    8.41
   4  -2  27    2.81    5.95
  -4   2  27    4.68    5.41
  -4  -2  27    1.56    7.62
   4   2  27    2.85    8.56
   4  -2  27   10.57    6.91
  -4   2  28    0.19    4.91
   4   2  28    0.88    7.26
   4  -2  28   10.96    9.86
  -4   2  28   10.23   10.93
  -4  -2  28   -2.64    7.24
   4   2  28    4.66   10.96
   4  -2  28    6.85    5.02
  -4   2  29   32.13   10.94
   4   2  29   38.59   11.99
   4  -2  29   48.42   12.81
  -4   2  29   25.25   11.60
  -4  -2  29   32.93   11.75
   4   2  29   54.87   18.69
   4  -2  29   42.96   14.43
  -4   2  30    6.53    7.05
  -4   2  30    7.82    6.92
   4   2  30   10.93    9.99
   4  -2  30    5.03    5.32
  -4  -2  30    0.60    5.17
   4   2  30   10.63    8.97
   4  -2  30   19.67   13.97
  -4  -3   0 1577.22   41.49
  -4  -3   0 1660.81   34.73
   4  -3   0 1631.10   34.20
  -4   3   0 1529.11   48.90
   4  -3   0 1578.21   46.25
   4  -3  -1   10.18    4.31
  -4  -3   1   10.93    3.98
  -4  -3  -1   20.42    4.47
   4  -3   1   14.57    2.96
  -4   3  -1   13.82    6.30
   4  -3   1    9.25    3.50
  -4   3   1   10.05    5.67
   4  -3  -1    9.90    2.82
  -4  -3   1   18.83    3.80
   4   3   1   10.23    1.67
   4  -3  -2   45.72    7.65
  -4  -3   2   52.00    7.71
   4  -3   2   50.91    5.79
  -4  -3  -2   54.57    7.17
   4  -3   2   30.40    6.04
   4  -3  -2   53.23    7.15
  -4   3   2   37.64    8.35
   4   3   2   35.61    4.45
  -4  -3   2   57.01    6.57
  -4  -3   3  544.48   25.38
  -4  -3  -3  478.11   23.62
   4  -3  -3  583.89   27.71
  -4  -3   3  643.57   24.27
   4  -3   3  560.95   28.68
   4  -3  -3  562.64   22.88
  -4   3   3  587.19   30.01
   4  -3   3  525.01   18.23
   4   3   3  683.10   20.75
  -4  -3   4    4.17    1.96
   4  -3   4    9.56    2.68
   4   3   4   11.07    3.18
   4  -3  -4   17.01    4.61
  -4  -3  -4    3.32    2.27
  -4   3   4   13.84    6.51
  -4  -3   4    8.64    2.79
   4  -3  -4    6.91    1.72
   4  -3   4   12.70    5.46
   4  -3   5  342.57   15.27
  -4  -3   5  377.45   22.22
   4  -3   5  390.40   24.25
  -4  -3   5  329.45   10.33
   4  -3  -5  376.02   22.97
  -4  -3  -5  371.85   20.62
  -4   3   5  364.82   24.27
   4  -3  -5  395.16   21.52
   4   3   5  386.07   19.23
   4  -3   6 1046.37   28.60
   4   3   6 1082.80   33.56
  -4  -3   6 1183.05   40.13
  -4  -3   6 1166.76   24.58
  -4   3   6 1187.88   44.97
  -4  -3   6 1087.97   36.99
   4  -3   6 1132.38   42.04
   4  -3   7   94.12    9.13
  -4  -3   7  133.62   14.05
   4   3   7   92.98   10.42
  -4  -3   7  133.57    9.31
  -4  -3  -7  116.70   12.59
  -4   3   7   88.19   12.55
  -4  -3   7   95.28   11.53
  -4   3   7  112.81   13.07
   4  -3   7   95.34   12.26
  -4  -3   8  138.50   15.39
   4   3   8  117.42   12.67
  -4   3   8  139.14   14.73
  -4  -3   8  126.96   10.17
  -4  -3  -8  130.72   13.45
  -4   3   8  119.84   16.08
  -4  -3   8  135.14   15.34
   4  -3   8  125.14   14.63
   4  -3   8  153.53   12.21
  -4  -3   9  179.77   17.09
   4   3   9  160.40   15.42
  -4  -3   9  166.03   12.88
  -4  -3  -9  147.64   15.26
  -4   3   9  181.54   18.29
  -4  -3   9  205.82   19.18
  -4   3   9  145.28   15.12
   4  -3   9  164.08   16.66
  -4  -3  10   71.05   11.95
   4   3  10   53.57    9.69
  -4  -3  10   59.95    8.67
   4  -3  10   42.18    8.39
  -4  -3 -10   63.07   10.53
  -4   3  10   58.07   11.11
  -4  -3  10   60.28    9.65
  -4   3  10   52.97    9.19
   4   3  10   47.31    8.10
   4   3  11  285.11   21.97
  -4  -3  11  298.45   19.46
   4   3  11  290.34   21.15
  -4  -3 -11  226.66   19.96
  -4   3  11  281.23   24.20
   4  -3  11  296.18   23.66
  -4   3  11  222.85   19.59
  -4  -3  11  282.57   23.26
   4  -3  12   56.10    9.44
   4   3  12   44.61    9.85
  -4  -3  12   45.60    8.03
  -4  -3 -12   52.95   10.22
  -4   3  12   48.39   11.62
  -4  -3  12   36.03    9.67
  -4   3  12   57.02   11.64
   4   3  12   48.34    9.10
   4  -3  13   12.34    4.94
   4   3  13    5.58    4.25
  -4  -3  13    4.47    2.49
  -4  -3 -13   16.74    6.58
  -4   3  13   17.96    2.69
  -4  -3  13   18.65    4.19
   4   3  13   17.99    6.20
  -4   3  13   17.28    6.33
   4   3  14    2.50    4.95
  -4  -3  14    4.61    4.26
  -4  -3 -14    3.50    3.93
  -4   3  14    6.04    3.40
  -4  -3  14   13.72    5.61
   4   3  14    5.84    3.18
   4  -3  14    5.14    2.85
  -4   3  14    1.08    3.69
   4   3  15  127.46   17.69
  -4  -3  15  110.08   14.37
   4  -3  15  108.12   15.43
  -4  -3 -15  129.18   15.77
  -4   3  15   96.50   15.42
  -4  -3  15  123.78   18.04
  -4   3  15  123.89   16.64
   4   3  15  118.58   15.76
  -4   3  16    1.65    5.32
   4   3  16   -2.28    4.69
   4  -3  16    2.97    5.27
  -4  -3  16   -1.27    5.29
  -4   3  16   13.63    8.71
  -4  -3 -16   -1.52    4.44
  -4  -3  16   -2.51    3.81
   4   3  16   -0.07    4.68
   4   3  17  193.31   21.36
  -4  -3  17  202.04   20.75
   4  -3  17  192.02   20.66
  -4   3  17  226.67   25.68
  -4  -3 -17  212.34   22.64
  -4  -3  17  176.23   21.06
  -4   3  17  198.29   21.55
   4   3  17  182.72   20.78
   4   3  18  116.91   17.33
  -4  -3  18  123.73   16.45
   4  -3  18  137.97   19.23
  -4   3  18  109.10   18.09
  -4  -3  18  106.90   17.81
   4   3  18  116.75   16.84
  -4   3  18  130.09   18.16
   4   3  19  123.46   17.55
  -4  -3  19  143.79   18.60
   4  -3  19  131.90   17.78
  -4   3  19  136.93   19.72
  -4  -3  19  121.34   19.69
   4   3  19  154.20   19.66
  -4   3  19  170.52   21.54
   4   3  20   98.66   16.90
  -4  -3  20   85.98   14.97
   4  -3  20  124.16   18.07
  -4   3  20   96.19   17.95
  -4  -3  20   91.76   17.06
  -4   3  20   92.78   15.30
   4   3  20   78.93   14.97
   4  -3  20   94.78   15.95
   4   3  21  847.23   48.43
  -4  -3  21  782.99   45.92
   4  -3  21  834.74   48.65
  -4  -3  21  758.86   48.37
   4   3  21  726.84   46.78
  -4   3  21  733.83   45.97
   4  -3  21  802.18   48.98
  -4   3  21  747.29   47.11
  -4   3  22   -0.18    5.29
   4   3  22    4.88    6.50
  -4  -3  22    1.56    6.54
   4  -3  22   -0.77    4.79
  -4   3  22   -2.80    7.77
  -4  -3  22   10.40    4.28
   4   3  22    9.36    4.36
   4  -3  22   -2.23    7.01
  -4   3  23   62.24   13.94
   4   3  23   71.78   13.91
  -4  -3  23   65.92   14.45
   4  -3  23   61.56   12.80
  -4   3  23   75.83   18.11
  -4  -3  23   66.56   13.70
   4   3  23   88.49   18.03
   4  -3  23   72.35   16.92
  -4   3  24    8.04    7.85
  -4   3  24   -2.45    8.07
   4   3  24   -5.32    6.63
  -4  -3  24   -1.66    3.32
  -4  -3  24    4.42    8.91
   4   3  24   -1.19    4.82
   4  -3  24    1.58    4.65
   4  -3  24    0.89    4.69
  -4  -3  25  104.34   17.80
  -4   3  25   81.90   18.82
   4   3  25   92.86   16.36
   4  -3  25   85.01   17.57
  -4  -3  25   71.59   17.33
   4  -3  25  127.79   22.67
  -4   3  25  102.89   18.66
   4   3  25   87.73   17.66
  -4   3  26   48.49   13.33
   4   3  26   51.55   13.37
  -4  -3  26   -4.35    4.18
   4  -3  26   32.05   11.27
  -4   3  26   27.33   11.98
  -4  -3  26   20.37   13.26
   4   3  26   30.72    9.50
   4  -3  26   18.14    7.77
  -4   3  27   31.51   12.47
   4  -3  27   24.19   10.50
   4   3  27   15.01    4.80
  -4   3  27    7.64   10.41
  -4  -3  27   22.88   12.95
   4   3  27   13.62    8.56
   4  -3  27    8.87    8.52
  -4   3  28   27.62   11.00
   4   3  28   22.08    6.20
   4  -3  28   38.75   11.88
  -4   3  28   24.00    9.49
  -4  -3  28   24.08   10.89
   4   3  28   14.82    8.51
   4  -3  28   30.69   14.48
   4   3  29  167.61   23.54
   4  -3  29  181.11   24.63
   4   3  29  167.56   29.90
  -4  -3  29  158.86   26.45
  -4   3  29  170.31   26.13
   4  -3  29  166.17   24.78
  -4   3  29  146.07   23.40
   4  -3  30    4.29    6.86
  -4   3  30    4.01    5.77
   4   3  30   20.62    9.39
  -4   3  30   23.34   10.56
  -4  -3  30   11.28   12.37
   4   3  30   27.79   11.47
   4  -3  30   13.87   10.13
   4  -4   0   29.01    6.80
  -4  -4   0   27.95    3.76
  -4  -4   0   39.37    7.74
   4  -4   0   26.48    5.46
  -4  -4   0   23.34    3.47
  -4   4   0   36.86    7.74
  -4  -4   1   17.98    6.30
   4  -4  -1   22.22    6.00
  -4  -4  -1   28.05    7.36
   4  -4   1   18.57    4.71
   4  -4  -1   20.10    5.08
  -4   4   1    6.06    2.55
  -4  -4   1   14.88    2.73
   4  -4   1   16.64    5.07
  -4  -4   1   13.34    2.93
  -4  -4   2  137.95    7.01
   4  -4  -2  160.79   15.98
  -4  -4   2  177.94   15.80
   4  -4   2  140.40   11.39
  -4  -4  -2  135.47   13.68
   4  -4  -2  155.49   12.62
   4  -4   2  162.83   15.93
  -4   4   2  144.98   15.62
  -4  -4   2  151.01   10.15
   4   4   2  157.46   10.20
  -4  -4   3   83.78   11.40
   4  -4   3   52.72    7.28
   4  -4  -3   56.19    9.75
   4  -4   3   55.01    9.37
  -4  -4  -3   41.78    8.11
   4  -4  -3   63.61    8.98
  -4   4   3   58.97    9.92
  -4  -4   3   48.42    4.17
   4   4   3   46.32    6.27
  -4  -4   4  198.61   17.13
   4  -4   4  191.36   13.69
   4  -4   4  166.28   17.27
   4  -4  -4  186.80   17.56
   4  -4  -4  183.14   15.28
  -4   4   4  207.88   18.60
  -4  -4   4  172.06    8.35
   4   4   4  171.83   12.61
  -4  -4   5 1025.53   39.87
   4  -4   5  949.97   30.28
   4  -4  -5 1033.33   40.89
   4  -4   5 1026.39   42.14
   4  -4  -5  967.28   36.30
  -4  -4  -5  875.48   35.72
  -4  -4   5  951.64   21.97
  -4   4   5  962.17   40.14
   4   4   5  914.89   31.03
  -4  -4   6  179.84   17.79
   4  -4   6  198.54   14.17
   4  -4   6  183.69   18.20
  -4  -4  -6  183.18   16.91
  -4  -4   6  183.34   10.45
   4  -4  -6  172.54   16.24
  -4  -4   6  137.98   13.30
  -4   4   6  191.18   18.66
   4   4   6  190.96   14.71
   4  -4   7  250.72   21.11
   4  -4   7  247.97   16.31
  -4  -4   7  242.87   13.51
  -4  -4  -7  216.37   18.28
  -4   4   7  212.53   19.68
  -4  -4   7  221.26   17.51
  -4  -4   7  256.39   20.07
   4  -4  -7  250.74   19.79
   4   4   7  242.56   14.67
   4   4   7  225.75   16.93
  -4   4   8    4.91    4.26
   4  -4   8    5.17    1.97
  -4  -4   8    3.00    3.23
   4   4   8    1.72    1.89
   4  -4   8    2.97    2.84
  -4  -4  -8    1.44    2.85
  -4  -4   8    1.91    1.09
  -4   4   8    2.95    3.86
  -4  -4   8   -0.21    2.52
   4  -4  -8    2.59    2.09
   4   4   8    0.47    2.37
   4  -4   9    5.05    5.17
  -4  -4   9    1.14    3.09
   4   4   9   -0.21    2.63
   4  -4   9    1.39    5.12
  -4  -4  -9   -1.72    4.13
  -4  -4   9    2.88    2.52
  -4   4   9    1.31    5.66
  -4  -4   9   -2.60    4.71
  -4   4   9    0.25    1.90
   4   4   9    4.01    4.85
   4  -4  10   57.01    8.94
  -4  -4  10   44.74    9.00
  -4   4  10   43.83    8.98
  -4  -4  10   59.06    8.39
  -4  -4 -10   78.59   11.47
  -4  -4  10   35.91    8.68
   4  -4  10   63.80   10.76
   4   4  10   51.09    8.74
  -4   4  10   45.77    9.43
   4   4  10   65.46   10.52
  -4  -4  11   22.33    6.76
   4  -4  11   16.11    6.55
   4   4  11   25.33    7.33
  -4  -4  11   37.88    6.85
  -4  -4 -11   19.26    6.01
  -4   4  11   39.97    9.91
  -4  -4  11   34.45    8.45
  -4   4  11   31.59    8.61
   4   4  11   41.65    8.14
   4  -4  11   19.04    6.03
  -4  -4  12    1.73    2.09
   4  -4  12    6.56    4.79
   4   4  12    5.01    3.46
  -4  -4  12    1.72    3.13
  -4   4  12    2.02    2.77
  -4  -4 -12    2.82    4.21
  -4  -4  12   -1.85    4.35
  -4   4  12    0.15    1.95
   4   4  12    0.19    4.00
  -4  -4  13   14.72    2.53
   4  -4  13   17.08    8.36
   4   4  13    3.71    2.37
  -4  -4  13   12.95    6.13
  -4   4  13   10.20    2.90
  -4  -4 -13   25.91    8.47
  -4  -4  13    7.07    4.21
   4   4  13    7.15    4.04
  -4   4  13   13.51    6.84
   4   4  14  137.01   17.07
  -4  -4  14  131.48   14.87
  -4  -4 -14  110.10   16.08
  -4   4  14  143.40   18.74
   4  -4  14  125.33   16.85
  -4  -4  14  123.26   17.75
  -4   4  14  116.96   16.65
   4   4  14  151.32   16.44
   4  -4  15   53.41   11.76
   4   4  15   42.96    9.96
  -4  -4  15   41.63    9.28
  -4  -4 -15   39.66   10.81
  -4   4  15   56.17   12.89
  -4  -4  15   45.66   11.59
   4   4  15   27.22    6.92
  -4   4  15   51.46   10.81
   4   4  16   69.87   13.76
  -4  -4 -16   51.38   11.84
  -4  -4  16   46.16    9.78
  -4   4  16   52.50   12.25
  -4   4  16   79.83   14.64
  -4  -4  16   36.08   10.21
   4   4  16   65.54   11.06
   4  -4  16   62.59   12.94
   4   4  17   39.04    9.88
  -4   4  17   25.73    8.83
  -4  -4  17   20.24    6.37
  -4  -4  17   34.46   11.41
  -4  -4 -17   27.27    7.50
   4   4  17   38.73    9.75
   4  -4  17   34.07    8.74
  -4   4  17   44.26   11.27
  -4  -4  18   62.92   14.44
   4   4  18   56.73   10.92
  -4  -4  18   40.59   10.17
  -4  -4 -18   44.73   10.92
   4  -4  18   60.04   12.33
   4   4  18   41.63   12.27
  -4   4  18   61.79   13.99
  -4   4  18   46.10   10.89
   4   4  19  251.91   25.65
  -4  -4 -19  221.01   24.35
  -4  -4  19  231.35   24.41
   4  -4  19  245.33   26.16
  -4   4  19  266.49   28.41
  -4  -4  19  300.45   30.15
   4   4  19  225.67   24.44
  -4   4  19  215.78   23.87
  -4   4  20   -3.31    4.29
   4   4  20    1.01    5.56
  -4  -4  20    1.33    6.08
  -4  -4 -20    6.87    8.83
  -4   4  20    2.26    6.93
   4  -4  20    5.72    7.46
  -4  -4  20   -3.83    6.17
   4   4  20    2.34    3.84
   4  -4  20    8.16    9.48
  -4   4  21   13.11    7.16
   4   4  21   14.51    6.67
  -4  -4  21   11.85    3.52
  -4  -4 -21   29.96   10.47
  -4   4  21    2.72    6.60
   4  -4  21   24.39   10.56
  -4  -4  21   30.22    9.74
   4   4  21   25.54    8.88
   4  -4  21   31.46   13.49
  -4   4  22   30.10    9.56
   4  -4  22   71.90   14.76
   4   4  22   47.81   13.76
  -4  -4  22   47.15   12.64
  -4  -4 -22   35.11    9.55
  -4   4  22   38.28   11.20
  -4  -4  22   22.30    8.74
   4   4  22   57.17   13.14
   4  -4  22   48.45   14.19
  -4   4  23    2.91    4.15
   4   4  23    4.79    4.11
  -4  -4  23   10.50    5.65
   4  -4  23    9.23    9.20
  -4  -4 -23    9.33    6.40
  -4   4  23   -2.27    5.36
  -4  -4  23    7.60    8.07
   4   4  23   -1.09    5.56
   4  -4  23   -2.39    3.76
  -4   4  24    7.63    5.97
   4   4  24    1.01    3.87
  -4   4  24   12.51   10.52
   4  -4  24    2.61    3.92
  -4  -4 -24    2.96    9.80
  -4  -4  24   -4.52    7.39
   4   4  24   -1.53    4.54
   4  -4  24    0.61    7.69
  -4   4  25    0.39    3.95
  -4   4  25    1.71    4.71
   4   4  25    0.41    8.66
   4  -4  25    2.79    3.05
  -4  -4 -25   -2.53    4.79
  -4  -4  25   13.12   10.67
   4   4  25   -3.59    6.83
   4  -4  25   10.36    7.36
  -4   4  26    7.40    4.07
   4   4  26   -2.50    7.19
   4  -4  26   20.32    9.86
  -4   4  26   -4.21    6.55
  -4  -4 -26    3.98    8.65
  -4  -4  26    3.54    6.59
   4   4  26    6.44   10.24
   4  -4  26   -1.90    8.98
  -4   4  27    7.48    5.62
   4   4  27   14.62    9.21
  -4  -4 -27    3.54    8.95
  -4   4  27    7.60    4.28
   4  -4  27   11.22    6.27
  -4  -4  27    3.24    4.57
   4   4  27   -2.62    7.57
   4  -4  27    8.26    5.30
  -4   4  28   21.73   11.41
   4   4  28   21.76   11.56
  -4   4  28   27.48   11.11
   4  -4  28   31.56    8.70
  -4  -4 -28   19.02   10.60
  -4  -4  28   20.23    9.10
   4   4  28   27.38   13.37
   4  -4  28   11.96    4.16
  -4   4  29    7.94    5.26
   4   4  29   -6.73    9.44
   4  -4  29   -7.26    7.45
  -4  -4 -29   10.60   10.11
  -4  -4  29    3.02    6.78
   4   4  29   -1.49    6.21
   4  -4  29   -0.29    5.84
  -4   4  30   13.54   11.00
   4   4  30   42.89   15.04
   4  -4  30   40.14   13.34
  -4  -4 -30    1.42    7.35
  -4   4  30   24.32    8.80
  -4  -4  30   13.11   10.77
   4   4  30   15.44    8.54
   4  -4  30   21.95   10.82
  -4  -5   0  385.72   17.71
  -4  -5   0  382.17   24.91
   4  -5   0  419.54   23.49
  -4   5   0  408.49   27.21
   4  -5   0  418.65   27.67
  -4  -5  -1    1.95    2.52
  -4  -5   1    0.64    4.15
   4  -5  -1    2.95    3.26
  -4  -5  -1    1.96    3.18
   4  -5   1    0.35    3.08
   4  -5  -1    3.80    2.07
  -4  -5   1    0.66    1.19
  -4   5   1   -2.50    4.52
  -4  -5   1    1.85    2.54
   4  -5   1    1.34    1.81
   4  -5  -2  199.55   18.97
  -4  -5   2  202.21   19.01
   4  -5   2  224.98   16.87
  -4  -5  -2  219.38   19.50
   4  -5  -2  217.91   17.19
  -4  -5   2  188.40   11.49
  -4   5   2  219.29   20.42
  -4  -5   2  207.43   10.67
   4  -5   2  186.97   18.62
  -4  -5   3  280.42   13.62
  -4  -5   3  325.53   23.51
   4  -5   3  321.61   20.06
   4  -5  -3  269.95   22.17
  -4  -5  -3  273.94   21.76
   4  -5  -3  284.82   20.49
   4  -5   3  332.72   25.20
  -4   5   3  294.18   23.19
  -4  -5   3  295.16   14.58
   4   5   3  282.67   16.78
  -4  -5   4   96.05   12.02
   4  -5   4  103.61   11.50
  -4  -5  -4  110.36   14.32
   4  -5   4  102.30   14.26
   4  -5  -4  109.37   14.19
   4  -5  -4  101.99   12.25
  -4   5   4  112.89   14.63
  -4  -5   4  111.19   10.17
   4   5   4  108.06   10.56
  -4  -5   4  110.19    8.56
  -4  -5   5  158.17   16.56
   4  -5   5  137.19   13.29
   4  -5   5  140.06   16.89
  -4  -5  -5  140.30   16.16
   4  -5  -5  159.06   16.02
   4  -5  -5  139.94   16.44
  -4  -5   5  196.14   14.59
  -4   5   5  144.64   16.03
  -4  -5   5  133.26    9.89
   4   5   5  126.85   12.49
   4   5   6   21.24    5.32
  -4  -5   6   19.74    3.72
  -4   5   6   20.83    7.20
  -4  -5   6   17.94    7.31
   4  -5   6   26.47    6.67
  -4  -5  -6   13.67    5.07
   4  -5  -6   20.10    6.05
   4  -5  -6   34.31    8.32
  -4  -5   6   26.34    5.65
   4  -5   6   10.84    4.21
   4   5   6   18.97    3.65
   4   5   7    4.24    3.69
  -4  -5   7    2.57    2.11
   4  -5   7    6.44    3.73
  -4  -5  -7   -0.73    1.92
  -4   5   7   -0.18    3.90
   4  -5  -7    0.89    3.61
   4  -5   7    0.86    5.21
  -4  -5   7    5.72    3.13
   4   5   7    3.95    1.85
  -4  -5   7    5.65    2.74
   4  -5   8  307.41   24.62
   4  -5   8  286.07   19.97
  -4  -5  -8  337.65   25.47
  -4  -5   8  294.04   17.07
   4  -5  -8  260.09   21.86
  -4   5   8  298.39   24.30
  -4  -5   8  368.20   24.27
   4   5   8  269.22   15.91
   4   5   8  284.71   20.86
   4  -5   9  204.80   17.64
  -4  -5   9  253.46   23.32
   4  -5  -9  218.08   21.29
   4  -5   9  230.73   22.26
  -4  -5  -9  226.69   21.43
  -4  -5   9  209.61   15.57
  -4   5   9  187.27   20.87
  -4  -5   9  257.66   20.47
  -4   5   9  225.32   21.53
   4   5   9  263.70   16.43
   4   5   9  274.02   20.65
   4  -5  10  486.44   27.38
  -4  -5  10  431.56   29.86
  -4  -5 -10  465.71   30.83
  -4  -5  10  457.10   23.99
  -4   5  10  459.48   31.35
   4  -5 -10  495.12   31.54
  -4  -5  10  394.48   27.04
  -4   5  10  534.15   32.83
   4   5  10  555.89   26.30
   4  -5  10  536.68   33.16
   4   5  10  462.43   27.98
   4  -5  11   61.62   10.52
  -4  -5  11   50.13   11.34
  -4   5  11   45.69   11.12
   4  -5  11   49.64   10.38
  -4  -5  11   51.60    8.73
  -4  -5 -11   53.13   11.20
   4  -5 -11   30.85    9.02
  -4  -5  11   32.61    8.24
  -4   5  11   40.51    9.04
   4   5  11   33.03    7.02
   4   5  11   48.49   10.05
   4  -5  12  127.30   14.58
  -4  -5  12  148.89   18.53
  -4   5  12  147.57   18.71
  -4  -5  12  137.18   14.52
  -4  -5 -12  142.82   18.77
   4  -5 -12  114.11   16.91
  -4  -5  12  136.09   16.47
  -4   5  12  132.86   16.97
   4   5  12  151.39   15.27
   4  -5  12  140.86   17.60
   4   5  12  138.27   16.66
  -4  -5  13   25.57    9.79
   4   5  13   32.95    6.50
   4  -5  13   31.75    9.50
  -4  -5  13   32.80    7.65
  -4  -5 -13   29.84    8.41
  -4   5  13   39.15   11.23
  -4  -5  13   40.51   11.03
  -4   5  13   28.41    7.20
   4   5  13   18.80    4.31
   4  -5  13   32.09    7.29
  -4  -5  14  822.35   43.61
  -4  -5  14  791.22   38.55
  -4  -5 -14  802.95   43.77
  -4   5  14  708.29   42.07
   4  -5  14  843.41   43.31
   4   5  14  796.81   39.20
  -4   5  14  717.63   40.45
   4   5  14  801.26   41.96
  -4  -5  15    4.18    6.20
  -4  -5 -15   15.97    7.94
   4  -5  15    4.40    6.52
   4   5  15    6.37    5.28
  -4  -5  15    6.52    3.68
  -4   5  15   10.57    5.76
  -4  -5  15   -3.20    5.57
   4   5  15    4.33    3.44
  -4   5  15    2.78    3.77
   4  -5  16  242.53   25.00
  -4  -5  16  233.25   25.40
  -4  -5  16  230.46   22.18
  -4   5  16  298.36   27.98
  -4  -5 -16  281.13   26.60
   4   5  16  267.35   24.68
  -4   5  16  263.48   26.09
   4   5  16  246.76   25.56
  -4  -5 -17  119.79   18.06
   4  -5  17  111.78   16.72
  -4   5  17  103.61   17.74
  -4  -5  17  110.78   19.03
  -4  -5  17   64.42   11.98
  -4   5  17  133.44   18.31
   4   5  17   71.94   12.24
   4   5  17  114.46   16.83
   4  -5  18  185.51   23.03
  -4  -5  18  139.83   19.03
  -4  -5 -18  165.00   21.98
   4   5  18  134.60   20.14
  -4   5  18  140.17   20.92
  -4  -5  18  122.27   19.93
  -4   5  18  145.08   20.10
   4   5  18  180.96   21.02
   4   5  19   -2.42    7.64
  -4  -5 -19   -2.35    3.09
  -4   5  19    3.77    8.89
  -4  -5  19   -1.08    5.45
   4   5  19    1.67    5.39
   4  -5  19   -0.28    4.22
  -4   5  19   -1.45    4.76
  -4  -5 -20  152.96   22.44
  -4   5  20  139.97   20.46
  -4  -5  20  130.46   21.82
   4  -5  20  171.61   22.29
   4   5  20  111.43   18.79
  -4   5  20  139.24   20.26
   4   5  20  157.05   20.47
   4   5  21   12.00    8.06
  -4   5  21   13.27    8.74
  -4  -5  21   13.81    8.49
   4  -5  21    4.28    5.40
   4   5  21    7.20    5.22
  -4  -5 -21   23.23    9.38
  -4   5  21    8.47    5.29
   4  -5  21   38.88   13.18
  -4   5  22  269.46   29.70
   4  -5  22  291.39   30.38
  -4  -5 -22  308.44   31.78
   4   5  22  262.09   29.84
  -4   5  22  242.14   28.45
   4  -5  22  280.75   30.66
   4   5  22  271.54   28.08
   4   5  23   60.66   14.58
  -4  -5 -23   34.56   10.42
  -4   5  23   36.67    9.59
   4  -5  23   34.00   10.77
  -4  -5  23   50.43   16.66
   4   5  23   42.46   12.97
   4  -5  23   60.60   15.20
  -4   5  23   40.69   10.47
  -4  -5 -24   76.59   16.75
  -4   5  24   68.35   16.12
   4  -5  24   83.99   16.77
  -4   5  24   89.08   18.70
  -4  -5  24   92.59   20.01
   4   5  24   73.67   17.07
   4   5  24  106.90   19.09
   4  -5  24   99.28   19.80
   4   5  25   65.35   15.97
  -4  -5 -25   32.00   10.24
   4  -5  25   50.19   12.93
  -4   5  25   40.82   13.06
  -4  -5  25   35.13   13.30
   4   5  25   52.20   15.58
   4  -5  25   50.42   14.64
  -4   5  25   44.17   12.82
   4   5  26    4.97    4.52
   4  -5  26   11.08    9.43
  -4  -5 -26   -2.28    5.26
  -4   5  26    9.59   10.98
  -4  -5  26   -6.34    6.01
   4   5  26    3.56    9.51
   4  -5  26   16.47   11.13
  -4   5  26    3.52    4.81
  -4   5  27    7.60    4.01
   4   5  27    5.95    5.53
   4  -5  27   -1.99    6.41
  -4  -5 -27   -2.50    5.29
  -4  -5  27   -1.46    6.98
   4   5  27   16.96    9.08
   4  -5  27   -4.96    4.36
  -4   5  27    4.44    5.42
   4   5  28   29.41   11.69
   4  -5  28   37.53   11.33
  -4  -5 -28   33.68   11.15
  -4   5  28   43.20   14.32
  -4  -5  28    1.80    6.33
   4  -5  28   14.53    5.52
  -4   5  28   59.39   15.58
   4   5  29   50.09   12.87
   4  -5  29   77.30   16.44
  -4  -5 -29   61.04   17.98
  -4   5  29   66.36   17.13
  -4  -5  29   38.82   12.87
   4  -5  29   41.23   11.48
  -4   5  29   67.81   17.83
  -4  -6   0  301.24   24.21
   4  -6   0  260.24   20.30
   4  -6   0  262.92   22.97
  -4  -6   0  274.99   17.00
  -4  -6  -1   33.32    6.38
   4  -6  -1   35.44    7.79
  -4  -6   1   47.90    9.23
  -4  -6  -1   50.13   10.85
   4  -6   1   35.18    7.67
   4  -6  -1   24.44    5.51
  -4   6   1   44.24    8.60
  -4  -6   1   44.18    6.96
   4  -6   1   42.13    8.29
   4  -6  -2  173.49   18.92
  -4  -6   2  174.07   18.23
   4  -6   2  168.58   15.77
  -4  -6  -2  147.12   16.61
   4  -6  -2  185.87   17.67
  -4  -6   2  164.71   12.85
  -4   6   2  165.07   18.48
   4  -6   2  193.27   19.75
  -4  -6  -2  186.02   14.78
  -4  -6   3    8.39    2.90
   4  -6   3    2.27    5.08
   4  -6   3    0.73    3.97
  -4  -6  -3    6.90    7.28
  -4   6   3   -0.84    6.24
   4  -6  -3    8.17    4.55
   4  -6  -3    3.92    2.78
  -4  -6   3    5.31    2.66
  -4  -6   3    2.17    1.66
  -4   6   4  281.71   23.67
  -4  -6   4  289.67   17.13
  -4  -6   4  279.58   23.05
   4  -6   4  288.11   21.33
  -4  -6  -4  277.33   23.92
   4  -6  -4  314.55   24.97
   4  -6  -4  304.03   23.25
   4  -6   4  322.63   26.49
  -4  -6   4  257.19   14.59
   4   6   4  283.32   19.30
   4  -6   5   29.16    7.60
  -4  -6   5   27.67    7.14
   4  -6   5   23.27    5.90
  -4  -6   5   27.43    5.56
  -4  -6  -5   30.90    8.59
  -4   6   5   31.81    7.91
  -4  -6   5   36.63    6.98
   4  -6  -5   32.64    7.11
   4  -6  -5   35.22    9.38
   4   6   5   33.74    6.75
  -4  -6   6  231.82   21.39
   4  -6   6  220.56   18.70
   4  -6   6  230.04   22.07
  -4  -6  -6  244.08   22.69
   4  -6  -6  246.05   21.42
  -4   6   6  236.20   21.82
  -4  -6   6  184.19   14.44
   4  -6  -6  266.45   23.54
   4   6   6  214.21   18.32
  -4  -6   6  240.79   15.92
  -4  -6  -7   45.87    9.89
   4  -6  -7   54.23    9.94
  -4  -6   7   36.42    8.94
   4  -6   7   46.36    8.88
  -4   6   7   54.28   10.56
   4  -6  -7   47.37   10.64
   4   6   7   26.78    4.02
  -4  -6   7   46.73    7.60
   4  -6   7   39.33    8.77
  -4  -6   7   40.20    7.34
   4   6   7   43.34    8.48
  -4  -6   8   -1.48    1.50
  -4  -6   8    0.96    3.05
   4  -6   8    4.57    3.78
  -4  -6  -8    0.97    3.67
   4  -6  -8    6.23    4.17
   4  -6   8   -2.07    3.26
  -4  -6   8   -0.63    2.42
  -4   6   8   -5.53    2.30
   4   6   8   -1.11    1.75
   4   6   8   -1.78    4.94
   4   6   9   26.08    7.27
  -4  -6   9   10.54    6.39
   4  -6   9   17.91    5.66
   4  -6   9    8.90    3.15
  -4   6   9    8.64    5.30
   4  -6  -9   12.49    5.80
  -4  -6   9    4.41    4.36
   4   6   9   12.79    3.96
  -4  -6   9   15.99    5.56
  -4  -6  -9   14.71    8.52
   4   6  10   40.65    9.60
  -4   6  10   39.77    9.64
   4  -6  10   36.17    8.04
  -4  -6  10   30.80    9.65
   4  -6  10   41.29   10.39
  -4  -6  10   36.85    7.27
  -4  -6 -10   37.97   10.23
   4  -6 -10   17.82    6.62
  -4  -6  10   46.13   10.09
   4   6  10   38.11    6.96
   4   6  11   25.06    7.70
   4  -6  11   25.01    7.44
  -4  -6  11   37.12    9.82
   4  -6  11   29.25    8.20
  -4  -6 -11   32.71   10.92
   4   6  11   42.78    8.70
  -4   6  11   29.97    7.78
  -4  -6  11   30.97   10.02
  -4   6  11   31.43    7.96
  -4  -6  11   26.98    7.16
   4  -6 -11   16.15    6.38
   4  -6  12  328.36   25.43
  -4  -6  12  333.07   28.81
  -4  -6 -12  348.97   29.24
  -4  -6  12  229.75   20.57
   4  -6 -12  332.03   28.74
  -4   6  12  330.20   27.70
  -4  -6  12  304.13   26.00
   4   6  12  343.67   22.82
  -4   6  12  329.73   27.85
   4  -6  12  326.39   28.35
   4   6  12  286.39   24.51
   4  -6  13    2.64    3.64
  -4  -6  13    9.59    7.72
   4   6  13   -1.11    3.33
   4  -6  13    3.31    5.79
  -4   6  13   -2.08    6.71
  -4  -6  13    8.49    6.11
  -4  -6 -13    3.82    4.78
   4  -6 -13   -4.09    4.96
  -4  -6  13    5.39    6.06
   4   6  13    2.96    3.39
  -4   6  13    0.28    2.64
   4  -6  14   27.56    8.08
  -4  -6  14   34.97   10.33
   4   6  14   31.59    8.89
   4  -6  14    6.38    3.77
  -4  -6  14   37.61   11.41
  -4  -6 -14   10.57    7.52
  -4   6  14   33.43    9.37
   4  -6 -14   27.04    8.07
  -4  -6  14   17.21    5.89
   4   6  14   22.92    8.12
  -4   6  14   27.52    9.91
  -4  -6  15  509.75   36.76
  -4  -6 -15  423.34   34.37
   4  -6 -15  498.48   35.69
  -4   6  15  532.14   38.65
  -4  -6  15  515.02   35.73
   4  -6  15  503.83   35.55
   4   6  15  538.26   33.40
  -4   6  15  494.93   34.83
   4   6  15  483.90   34.33
   4  -6  15  480.80   32.34
  -4  -6  16    4.82    4.57
   4  -6  16    0.53    6.25
   4   6  16    2.90    4.37
   4  -6 -16   -3.67    3.12
  -4  -6 -16   -1.82    2.74
  -4   6  16   -0.84    5.25
  -4  -6  16   -2.29    6.24
   4   6  16    0.21    5.26
  -4   6  16    2.96    3.35
   4  -6  17   41.31    8.58
   4   6  17   60.54   12.05
  -4  -6 -17   60.28   14.04
  -4   6  17   59.38   13.49
   4  -6 -17   45.31   11.46
  -4  -6  17   47.20   13.68
   4   6  17   58.94   13.30
  -4   6  17   36.19   10.23
  -4  -6  17   48.23   11.08
   4   6  18   51.31   11.79
  -4  -6 -18   88.89   16.99
   4  -6  18  101.04   16.75
  -4   6  18   63.66   16.34
   4  -6 -18   84.31   15.97
  -4  -6  18   53.73   13.37
   4   6  18   66.30   14.98
  -4   6  18   81.67   14.45
   4   6  19   29.30    8.55
  -4  -6 -19   22.71   10.26
   4  -6 -19   29.30   12.52
  -4  -6  19   21.85    9.80
   4   6  19   43.25   11.38
  -4   6  19   29.57    9.68
   4  -6  19   19.88    7.44
  -4   6  19   11.51    6.31
   4   6  20    4.82    3.43
  -4   6  20    8.20    3.85
   4  -6 -20   -1.36    6.37
  -4  -6  20    6.53    4.53
  -4  -6 -20    4.15    4.83
  -4   6  20    3.45    2.51
  -4  -6 -21  143.15   22.77
   4  -6  21  122.54   19.28
  -4   6  21   84.81   16.03
   4  -6 -21  130.81   20.77
  -4   6  21   95.88   18.24
  -4  -6  21   72.23   17.03
   4   6  21  116.15   18.32
   4  -6  21  144.96   22.28
   4   6  22   34.11   11.06
  -4   6  22   30.17   12.23
  -4  -6 -22   32.37   10.56
   4  -6 -22   22.50    9.43
  -4  -6  22   21.97    8.92
   4  -6  22   30.45   10.85
  -4   6  22   29.72   10.06
   4  -6  22   16.78    9.60
   4   6  23   20.01    9.36
  -4  -6 -23   11.84   10.00
  -4   6  23    6.18    4.02
   4  -6 -23   22.92   11.73
   4  -6  23   21.29    8.86
  -4  -6  23    5.10    8.15
  -4   6  23   26.09    9.63
   4  -6  23   32.42   10.71
   4   6  24    2.26    5.46
  -4   6  24    7.01    7.49
   4  -6  24    8.29    6.54
  -4  -6  24    2.86    4.95
  -4  -6 -24    1.36    7.46
  -4   6  24   -1.05    4.94
   4  -6  24   -0.39    4.31
   4   6  25   -3.70    4.98
  -4  -6 -25    2.71    7.14
  -4   6  25    6.63    7.45
   4  -6 -25   14.08    7.43
   4  -6  25    2.45    3.01
  -4  -6  25   16.21   12.26
  -4   6  25   12.16    8.31
   4  -6  25    6.13    4.40
   4  -6  26  163.32   23.36
   4   6  26  123.64   20.34
  -4   6  26  102.41   19.25
  -4  -6 -26  112.37   20.76
   4  -6 -26  114.14   20.29
  -4   6  26  112.19   20.99
  -4  -6  26  101.62   21.70
   4  -6  26  139.10   21.16
   4   6  27   32.21   10.42
  -4  -6 -27   39.65   12.53
   4  -6  27   25.85    7.54
  -4   6  27   41.70   13.32
   4  -6 -27   33.37   14.26
  -4  -6  27   19.86    9.65
   4  -6  27    8.60    7.80
  -4   6  27   38.41   12.79
   4   6  28    1.07    4.40
   4  -6  28    4.68    6.64
  -4  -6 -28    0.41    8.41
  -4   6  28   -2.69    6.86
   4  -6 -28    4.34    7.48
  -4  -6  28   -2.01    8.28
   4  -6  28   -7.05    8.44
  -4   6  28   -9.92    9.19
  -4  -7   0  114.13   16.74
   4  -7   0   71.85   11.98
   4  -7   0   82.33   13.60
  -4  -7   0  103.81   12.34
  -4  -7  -1  206.95   17.15
  -4  -7   1  204.58   21.94
  -4  -7  -1  206.47   21.61
   4  -7   1  197.81   19.06
   4  -7  -1  172.46   18.64
  -4   7   1  189.44   18.60
   4  -7   1  231.62   22.83
  -4  -7   1  166.72   15.09
   4  -7  -1  204.15   21.30
  -4  -7   2   31.18    9.03
   4  -7   2   41.12    9.22
  -4  -7  -2   36.59    8.76
  -4  -7   2   41.91    7.98
   4  -7  -2   54.12   11.38
   4  -7  -2   48.39   10.43
  -4   7   2   38.07    8.56
   4  -7   2   29.99    7.64
  -4  -7  -2   40.95    7.92
  -4  -7   3 2087.57   68.54
   4  -7  -3 2124.90   69.05
   4  -7   3 2178.47   64.47
  -4  -7  -3 2054.87   69.10
   4  -7  -3 2251.10   66.43
  -4  -7   3 2154.19   54.07
  -4   7   3 2122.35   66.62
   4  -7   3 2042.62   68.62
  -4  -7  -3 2092.57   56.96
  -4  -7   4  727.54   40.16
   4  -7   4  669.52   35.15
  -4  -7   4  753.10   31.92
   4  -7  -4  809.55   42.71
  -4  -7  -4  752.30   41.77
   4  -7  -4  687.76   37.02
   4  -7   4  722.68   41.26
  -4   7   4  801.69   41.51
  -4  -7   5   52.24    8.76
   4  -7   5   78.96   12.47
  -4  -7   5   84.19   14.54
  -4  -7  -5   95.98   15.28
   4  -7   5   78.77   13.17
   4  -7  -5   69.37   12.17
   4  -7  -5   75.49   12.70
  -4   7   5   62.40   11.58
   4   7   5   58.00    9.53
  -4  -7   6  139.09   17.94
   4  -7   6  140.70   16.63
  -4  -7  -6  133.08   18.85
   4  -7   6   97.74   16.10
   4  -7  -6  159.22   18.35
   4  -7  -6  155.30   19.64
  -4   7   6  134.42   17.27
   4   7   6  139.56   15.80
  -4  -7   6  155.60   14.57
  -4  -7   7  382.37   29.97
   4  -7   7  358.43   26.35
   4  -7   7  420.61   31.86
  -4  -7  -7  333.34   29.05
   4  -7  -7  383.53   29.13
   4  -7  -7  444.72   32.34
   4   7   7  341.79   24.41
  -4  -7   7  341.97   21.69
  -4   7   7  372.28   29.01
  -4  -7   8    4.91    4.68
   4  -7   8    6.50    5.70
  -4  -7   8    8.22    6.92
   4  -7   8    4.71    4.07
  -4  -7  -8   -4.09    7.43
  -4   7   8    1.22    3.80
   4  -7  -8   -2.10    3.64
  -4  -7   8    8.84    3.75
   4  -7  -8    5.32    3.96
   4   7   8    0.56    2.98
  -4  -7   9    7.07    4.78
   4  -7   9   13.01    5.70
  -4  -7  -9   12.15    6.74
  -4   7   9   11.60    2.93
   4  -7  -9   16.36    6.38
   4  -7   9   14.18    7.05
  -4  -7   9   16.53    7.74
   4   7   9    8.42    4.44
  -4  -7  10   27.51    9.02
   4  -7  10   25.94    8.10
  -4  -7 -10   26.48   10.29
   4  -7  10   13.49    5.59
   4  -7 -10   25.69    9.63
  -4  -7  10   35.55    8.65
  -4   7  10   18.20    7.05
   4   7  10   11.51    3.88
   4  -7  11  557.70   34.04
  -4  -7  11  674.15   40.62
  -4  -7 -11  652.77   40.68
   4  -7 -11  655.75   40.46
  -4   7  11  623.52   38.18
  -4  -7  11  518.74   32.71
   4   7  11  615.57   36.77
   4  -7  11  663.86   39.95
   4   7  12   11.99    5.78
   4  -7  12   -2.94    4.71
  -4  -7  12    8.95    8.43
  -4   7  12   16.82    6.51
   4  -7  12   23.18    8.41
  -4  -7 -12    6.52    5.51
   4  -7 -12    3.55    3.98
  -4   7  12   23.86    8.50
  -4  -7  12   -1.66    2.84
   4  -7  13  316.62   26.47
  -4  -7  13  384.37   31.25
  -4  -7 -13  325.72   30.10
   4  -7 -13  403.64   33.36
  -4   7  13  362.62   30.91
  -4  -7  13  250.83   25.14
  -4   7  13  348.69   30.09
   4   7  13  380.85   30.30
   4  -7  13  391.17   31.55
   4   7  14   68.72   11.80
   4  -7  14   75.90   14.63
  -4  -7  14   74.39   14.32
   4  -7 -14   62.33   13.14
  -4  -7 -14   75.23   14.83
  -4   7  14   48.40   10.53
  -4   7  14   80.08   14.57
   4  -7  14   56.58   14.36
  -4  -7  14   49.61   11.63
   4  -7  15  394.69   30.40
  -4  -7  15  476.17   37.03
  -4  -7 -15  471.04   37.12
  -4   7  15  453.38   35.34
   4  -7  15  525.38   36.25
  -4   7  15  532.69   37.96
   4   7  15  447.49   33.35
   4  -7 -15  496.60   37.58
   4  -7  16   47.36   11.20
   4   7  16   49.48   12.93
  -4  -7  16   53.62   13.19
   4  -7  16   35.76    9.17
  -4  -7 -16   67.46   14.76
  -4   7  16   35.84   10.93
   4  -7 -16   68.44   16.34
  -4  -7  16   28.35   11.33
  -4   7  16   29.98    9.20
  -4  -7  17   28.06    9.33
   4   7  17   17.96    4.78
   4  -7  17   40.48   10.94
  -4  -7 -17   24.43    8.25
  -4   7  17   35.04   12.02
   4  -7 -17   26.82   10.59
  -4  -7  17   18.08    7.64
  -4   7  17   26.76    9.77
   4  -7  17   26.80    8.44
  -4  -7  18   54.36   10.97
   4   7  18   65.64   12.96
  -4  -7 -18   72.72   14.46
   4  -7  18   76.88   15.48
  -4   7  18   64.43   12.51
   4  -7 -18   45.10   12.04
  -4   7  18   89.01   16.02
  -4  -7  18   64.28   15.49
   4  -7  19   78.65   15.79
   4   7  19   66.70   15.09
  -4  -7 -19   73.58   15.30
  -4   7  19   68.75   16.13
   4  -7 -19   70.04   13.72
  -4   7  19   86.92   17.46
  -4  -7  19   84.33   14.88
  -4  -7  19   69.55   13.94
   4   7  20   28.76   10.19
  -4  -7 -20   19.56    7.53
  -4   7  20   16.56    7.24
   4  -7 -20   19.70    6.16
  -4  -7  20    1.28    6.14
  -4   7  20   10.08    3.82
   4  -7  20   14.75    4.67
  -4  -7 -21  330.27   33.79
   4  -7 -21  344.10   33.96
  -4   7  21  354.50   34.69
   4  -7  21  374.69   33.80
  -4   7  21  341.36   32.13
   4   7  21  308.14   30.05
   4   7  22   45.11   13.72
  -4  -7 -22   33.97   10.36
   4  -7  22   82.27   16.47
  -4   7  22   54.29   14.32
   4  -7 -22   53.72   16.34
  -4  -7  22   30.34   10.55
  -4   7  22   52.33   12.05
   4  -7  22   63.50   12.30
   4   7  23   21.89    8.38
  -4  -7 -23   23.80    7.15
   4  -7 -23   27.64    9.84
  -4  -7  23   17.63    3.97
   4  -7  23   15.49    9.20
  -4   7  23   22.55    8.09
  -4   7  23   35.84   11.86
   4  -7  23   36.71   11.33
   4   7  24  102.19   17.80
   4  -7  24  104.47   19.55
  -4   7  24  126.10   21.74
   4  -7 -24   78.34   16.10
  -4  -7 -24   86.65   20.17
  -4   7  24   99.09   18.91
  -4  -7  24  122.96   22.06
   4  -7  24  127.29   23.34
  -4   7  25  132.81   23.80
   4  -7  25  178.83   25.55
  -4  -7 -25  154.32   23.55
   4  -7 -25  193.17   26.08
  -4  -7  25  157.17   27.35
  -4   7  25  157.86   24.41
   4  -7  25  169.48   25.57
   4   7  25  169.67   24.19
   4   7  26    7.70    7.71
   4  -7 -26   -3.59    8.17
  -4  -7 -26    5.72    6.04
  -4   7  26   -7.10    8.79
   4  -7  26    1.02    6.76
  -4  -7  26    3.50    5.67
  -4   7  26    6.87    3.61
   4  -7  26   -0.89    6.60
   4   7  27   14.88    9.10
   4  -7  27    2.36    3.08
  -4   7  27   38.11   14.68
   4  -7 -27   17.78    4.39
  -4  -7 -27   24.22   11.74
  -4  -7  27   11.64    7.80
  -4   7  27   24.60   10.94
   4  -7  27   39.13   14.47
  -4  -8   0  297.40   27.08
   4  -8   0  242.87   23.58
   4  -8   0  280.59   26.44
  -4  -8   0  250.89   20.59
   4  -8  -1   -1.32    4.16
  -4  -8  -1    7.40    4.57
  -4  -8   1   15.50    7.10
  -4  -8  -1    6.35    6.13
   4  -8   1    5.04    3.00
   4  -8  -1   21.53    8.95
   4  -8   1   19.00    9.28
  -4  -8   1    7.01    4.04
  -4  -8  -2   -3.67    3.62
  -4  -8   2    8.36    5.93
   4  -8   2   -2.58    6.35
  -4  -8  -2    8.93    6.65
   4  -8  -2   -0.16    4.32
   4  -8  -2    2.96    3.54
  -4  -8   2   -0.93    3.73
  -4   8   2   -0.05    4.38
   4  -8   2    1.38    4.69
   4  -8  -3  343.56   28.81
  -4  -8   3  316.50   27.34
   4  -8   3  310.70   26.80
  -4  -8  -3  344.05   29.82
   4  -8  -3  333.06   27.57
  -4   8   3  352.57   28.82
  -4  -8   3  247.33   20.79
  -4  -8  -3  323.50   24.30
   4  -8   3  342.19   29.87
  -4  -8   4  102.43   16.77
   4  -8  -4  106.70   17.39
   4  -8   4   99.65   14.22
  -4  -8  -4  110.65   16.90
  -4  -8   4  134.82   15.86
   4  -8  -4   91.20   14.11
   4  -8   4  100.46   16.80
  -4   8   4  109.97   17.20
  -4  -8  -4   95.44   13.30
   4  -8   5   -2.92    2.98
   4  -8  -5   -4.14    4.87
  -4  -8   5   -3.88    5.35
   4  -8   5    9.18    5.19
  -4  -8  -5    2.39    3.49
   4  -8  -5    6.26    7.95
  -4   8   5   -1.64    3.78
  -4  -8   5   -0.30    4.00
   4  -8   6   64.60   13.08
   4  -8   6   90.53   14.54
  -4  -8   6   69.38   12.67
  -4  -8  -6   95.72   16.24
   4  -8  -6  101.83   14.92
   4  -8  -6   85.22   14.58
  -4   8   6   67.12   13.11
  -4  -8   7  188.79   22.11
   4  -8   7  188.75   20.40
   4  -8   7  184.17   22.38
  -4  -8  -7  177.20   22.58
   4  -8  -7  199.44   21.16
   4  -8  -7  200.09   23.12
  -4   8   7  209.87   22.52
   4   8   7  159.31   17.67
  -4  -8   8  180.60   21.14
   4  -8   8  141.81   18.32
   4  -8   8  184.81   22.47
  -4   8   8  193.51   21.88
  -4  -8  -8  160.02   20.67
   4  -8  -8  182.63   21.32
   4  -8  -8  143.89   20.24
   4   8   8  186.84   19.50
  -4  -8   9   24.62    9.59
   4  -8   9   23.71    6.22
   4  -8  -9   24.94    7.37
  -4  -8  -9   31.27    8.65
   4  -8  -9   22.65    8.79
   4  -8   9   35.34   10.64
   4   8   9   23.63    6.58
  -4   8   9   22.50    8.43
  -4  -8  10   25.90   10.41
   4  -8  10   10.16    8.04
   4  -8 -10   19.70    7.70
   4  -8 -10   19.92    7.26
   4  -8  10   31.80    9.03
  -4  -8 -10   23.08   10.73
  -4   8  10   22.56    9.30
   4   8  10   21.70    8.25
   4  -8  11   27.24   10.21
  -4  -8  11   24.83    7.82
   4  -8  11   24.99    8.59
  -4  -8 -11   23.54    8.55
  -4   8  11   33.74   11.66
   4  -8 -11   22.27   11.77
   4   8  11   25.30    9.57
   4  -8  12   16.31    8.31
  -4  -8  12   13.32    7.33
  -4   8  12   17.32    7.57
   4  -8  12   13.60    7.44
   4  -8 -12   17.42    8.84
  -4  -8 -12   23.61   10.13
   4   8  12   11.61    4.82
   4  -8  13   18.87    5.82
  -4  -8  13   26.21    9.95
   4  -8  13   24.04    9.39
  -4  -8 -13   40.48   12.77
  -4   8  13   22.00    6.85
   4  -8 -13    7.12    7.69
   4   8  13   22.12    8.24
   4  -8  14   11.76    5.24
  -4  -8  14   20.33    4.94
   4  -8  14   -1.72    4.74
  -4  -8 -14   12.71    7.98
  -4   8  14   29.67   12.25
   4  -8 -14   18.05    8.23
   4   8  14    8.01    3.71
   4  -8 -15   13.22    6.68
   4  -8  15   43.71    9.71
  -4  -8  15   41.71   12.59
   4  -8  15   49.55   12.04
  -4  -8 -15   39.26   11.38
  -4   8  15   19.97    9.22
  -4   8  15   42.74   10.17
   4   8  15   23.21    8.97
   4  -8  16   24.03    8.11
  -4  -8  16   26.50   12.04
   4  -8  16   10.18    5.08
   4  -8 -16   29.10   12.19
  -4  -8 -16   18.87   10.01
  -4   8  16    9.74    7.55
  -4   8  16   23.06    8.92
   4   8  16    6.98    4.72
   4  -8  17  159.55   20.26
  -4  -8  17  126.59   20.81
  -4   8  17  137.19   20.56
  -4  -8 -17  147.36   22.11
   4  -8 -17  115.52   18.58
   4  -8  17   88.64   15.73
  -4   8  17  133.08   19.83
   4   8  17  118.41   18.69
   4   8  18   19.68    6.78
  -4  -8  18   21.51    8.46
   4  -8  18   24.72   10.40
  -4  -8 -18    3.45    3.55
  -4   8  18   16.89    8.09
   4  -8 -18   32.35   13.45
  -4   8  18   14.73    5.35
   4  -8  18   11.09    6.51
   4   8  19   30.24    9.74
  -4  -8  19   29.87    9.36
   4  -8  19   50.86   12.76
  -4  -8 -19   25.58   10.35
  -4   8  19   26.70   10.43
   4  -8 -19   31.01    7.42
  -4   8  19   33.00   10.49
   4  -8  20    1.19    4.22
   4   8  20    2.14    4.30
   4  -8 -20    8.22    5.89
  -4  -8 -20   10.42   10.08
  -4   8  20    7.21    6.07
  -4  -8  20   -9.73    5.95
  -4   8  20    3.69    3.38
  -4  -8  20    7.71    6.86
  -4  -8 -21  198.38   26.93
   4  -8 -21  158.63   23.53
  -4   8  21  164.26   23.83
  -4   8  21  209.08   26.46
   4   8  21  198.52   24.59
   4  -8  21  162.27   22.35
   4   8  22    0.67    4.57
  -4  -8 -22    2.05    8.28
  -4   8  22    3.01    6.30
   4  -8 -22   -0.74    5.69
  -4   8  22   -0.94    5.25
   4  -8  22   -3.95    6.30
   4  -8  22    8.62    9.78
   4   8  23   12.89    8.17
  -4  -8 -23   45.12   15.18
  -4   8  23   35.97   11.68
   4  -8 -23   50.25   13.58
  -4  -8  23   37.09   11.73
  -4   8  23   25.24   11.73
   4  -8  23   43.24   12.36
   4  -8  23   34.84   12.96
   4   8  24   14.69    8.07
   4  -8 -24    6.87    5.94
  -4  -8 -24   18.24    7.75
  -4   8  24   16.54    7.26
   4  -8  24   40.57   12.82
  -4   8  24   23.60   10.14
   4  -8  24   13.36    9.76
   4  -8  25  144.03   21.39
  -4  -8 -25   77.78   20.15
  -4   8  25  117.48   22.00
   4  -8 -25   62.82   16.00
  -4   8  25  125.83   21.63
  -4  -8  25   34.91   11.71
   4   8  25  119.52   21.42
   4  -8  25  127.28   20.89
   4   8  26    6.58    5.56
  -4  -8 -26    7.10    8.29
  -4   8  26   -6.12    8.21
   4  -8 -26   -0.99    8.10
   4  -8  26    4.30    4.85
  -4  -8  26  -19.59    8.99
  -4   8  26   13.68    8.82
   4  -8  26   -8.03    5.85
  -4  -9   0  751.36   45.06
   4  -9   0  826.76   45.59
   4  -9   0  859.11   47.85
  -4  -9   0  780.74   40.27
  -4  -9   1  403.42   32.99
  -4  -9  -1  432.72   33.93
   4  -9   1  405.30   31.48
   4  -9  -1  432.11   33.33
   4  -9   1  390.27   32.81
   4  -9  -1  409.41   32.41
  -4  -9   1  397.02   29.02
  -4  -9  -1  409.50   29.20
  -4  -9  -2  284.47   24.18
  -4  -9   2  370.18   32.60
   4  -9   2  407.15   33.19
   4  -9   2  311.99   27.93
  -4  -9  -2  313.87   28.75
   4  -9  -2  365.84   30.54
   4  -9  -2  361.40   31.24
  -4  -9   3  627.12   41.60
  -4   9   3  646.24   39.63
   4  -9   3  713.36   42.29
  -4  -9  -3  690.10   43.47
   4  -9  -3  671.67   41.80
  -4  -9  -3  656.03   37.20
   4  -9   3  663.33   43.07
   4  -9  -3  660.70   42.23
   4  -9  -4  584.83   39.63
  -4  -9   4  592.85   40.52
   4  -9   4  573.28   37.36
  -4  -9  -4  587.55   40.73
   4  -9  -4  603.27   39.49
  -4  -9  -4  582.36   35.11
   4  -9   4  638.90   42.46
  -4   9   4  578.69   37.81
   4  -9   5    5.31    2.54
  -4  -9   5    3.28    4.48
   4  -9   5   -1.23    4.79
  -4  -9  -5    8.15    8.62
   4  -9  -5   -1.46    3.04
   4  -9  -5   -1.32    3.90
  -4   9   5   10.55    5.79
  -4  -9  -5    0.37    2.70
  -4  -9   6  202.83   23.51
   4  -9   6  249.66   25.08
   4  -9  -6  179.81   22.01
  -4  -9  -6  246.13   27.03
   4  -9   6  217.34   24.82
   4  -9  -6  182.87   22.79
  -4   9   6  220.38   23.80
  -4  -9   7 1038.30   52.85
   4  -9   7  952.13   48.80
   4  -9   7  994.24   53.58
  -4  -9  -7 1030.20   54.50
   4  -9  -7  923.56   49.30
   4  -9  -7 1058.28   53.35
  -4   9   7  946.68   49.29
  -4  -9   8   77.53   15.17
   4  -9   8   43.57    9.56
  -4  -9  -8   58.60   13.08
  -4   9   8   66.42   13.52
   4  -9  -8   69.31   13.82
   4   9   8   68.18   13.04
   4  -9   8   66.51   13.16
   4  -9  -8   73.22   13.78
   4  -9  -9  114.34   18.37
  -4  -9   9  123.16   17.84
   4  -9   9  104.57   17.38
   4  -9   9   83.90   14.06
  -4  -9  -9   76.04   16.13
   4  -9  -9   80.49   13.97
  -4   9   9  103.31   15.83
   4   9   9  106.36   16.91
   4  -9 -10    4.00    3.97
  -4  -9  10    8.35    8.12
   4  -9  10    5.67    5.87
  -4   9  10    4.88    5.37
  -4  -9 -10    2.56    3.94
   4  -9 -10    3.93    6.60
   4  -9  10    3.24    7.09
   4   9  10    8.41    6.15
   4  -9  11  128.01   18.79
  -4  -9  11  146.90   19.49
   4  -9  11  162.41   20.64
   4  -9 -11  115.19   19.68
  -4  -9 -11   98.18   16.30
  -4   9  11   88.01   15.74
   4   9  11  120.63   17.18
   4  -9 -11  160.41   21.80
   4  -9  12   15.43    8.36
  -4  -9  12   25.83   11.29
  -4  -9 -12   25.63   10.88
   4  -9  12   26.74    9.32
   4  -9 -12   12.14    7.79
  -4   9  12   22.00    9.06
   4   9  12   30.57    9.49
   4  -9  13   36.20   10.78
  -4  -9  13   43.14   11.47
   4  -9  13   39.05   10.32
  -4   9  13   25.81   11.16
   4  -9 -13   15.14    3.31
  -4  -9 -13   32.29   10.76
   4   9  13   27.22    7.67
   4  -9  14   66.34   15.13
  -4  -9  14   80.41   14.12
   4  -9  14   68.23   14.33
  -4  -9 -14   64.52   15.52
   4  -9 -14   70.05   15.72
  -4   9  14   89.99   15.95
   4   9  14   71.62   14.32
   4  -9  15  178.81   23.38
  -4  -9  15  210.03   25.20
  -4  -9 -15  253.81   27.67
   4  -9 -15  215.06   26.50
  -4   9  15  192.66   24.31
   4   9  15  189.71   23.92
   4  -9  15  232.35   25.66
   4  -9  16   20.73    7.93
  -4  -9  16   20.25   13.96
   4  -9  16   12.34    5.18
  -4  -9 -16   20.60   10.61
  -4   9  16   11.48    6.20
   4  -9 -16    3.60    5.65
   4   9  16   17.61    7.87
   4  -9  17  190.68   24.03
  -4  -9  17  182.09   23.22
  -4  -9 -17  159.76   23.96
   4  -9 -17  185.98   23.48
  -4   9  17  250.47   27.83
   4  -9  17  175.79   23.29
   4   9  17  166.49   22.48
  -4   9  17  179.88   23.57
   4  -9  18   70.07   15.26
  -4  -9  18   55.03   11.81
   4  -9  18   83.48   16.00
  -4   9  18   61.11   17.11
   4  -9 -18   65.98   14.65
  -4   9  18   57.57   14.34
  -4  -9 -18   47.62   13.21
   4   9  18   70.31   14.81
  -4  -9  19   -5.74    9.20
   4  -9  19   -0.72    4.07
  -4   9  19    4.75    5.14
   4  -9 -19    1.80    6.63
  -4  -9 -19    2.98    5.42
  -4   9  19   -3.15    4.13
   4   9  19    6.34    9.00
   4  -9  19   -5.05    5.65
  -4  -9  20    5.91    7.24
   4  -9  20   -0.51    2.85
   4  -9 -20    8.71   10.12
  -4  -9 -20   10.87    7.22
  -4   9  20   18.95    7.48
  -4   9  20   10.77    9.14
   4   9  20   19.07   10.05
  -4  -9 -21  138.16   25.06
   4  -9 -21  151.65   23.57
   4  -9  21  153.10   22.16
  -4   9  21  120.05   20.46
  -4   9  21  165.43   24.46
   4   9  21  151.78   21.95
  -4  -9  21   95.60   15.92
   4  -9 -22  118.14   20.76
  -4  -9 -22  111.89   21.53
   4  -9  22  127.22   21.09
  -4   9  22  113.20   20.47
  -4   9  22  105.13   18.64
   4  -9  22   98.01   19.57
   4   9  22   98.04   18.01
  -4  -9 -23   26.37    6.14
  -4   9  23   22.57    7.26
   4  -9 -23   20.06   11.63
  -4   9  23   21.19    5.70
   4  -9  23   18.16    7.26
   4  -9  23    7.21    4.22
   4   9  23   44.45   12.00
  -4  -9 -24   22.77   10.18
   4  -9 -24   54.10   17.18
  -4   9  24   39.93   16.04
  -4   9  24   24.25   10.71
   4  -9  24   49.34   14.82
   4  -9  24    9.37    3.75
   4   9  24   36.79   13.45
  -4  -9 -25   29.15   14.13
   4  -9 -25   21.28   14.85
  -4   9  25   -6.57    8.44
  -4   9  25   22.00   11.42
   4  -9  25   27.93   11.52
   4  -9  25   20.60   11.89
   4   9  25   32.56   10.32
  -4 -10   0   56.39   10.35
   4 -10   0   27.68    9.25
   4 -10   0   40.06   12.72
   4 -10  -1   15.02    4.79
  -4 -10   1   11.32    8.42
  -4 -10  -1    6.30    5.02
   4 -10   1   12.36    9.64
   4 -10  -1    3.05    4.63
   4 -10   1   15.36    9.43
   4 -10  -2   16.19    8.24
  -4 -10   2   25.58   12.77
   4 -10   2   21.01    8.81
  -4 -10  -2   24.48    9.20
   4 -10  -2   12.12   10.50
  -4 -10  -2   -4.25    5.43
   4 -10   2    4.79    5.64
  -4 -10   3    7.65    5.17
   4 -10   3   -4.05    7.28
   4 -10  -3   -3.99    7.46
  -4 -10  -3    4.14    6.17
   4 -10   3   -1.84    4.87
   4 -10  -3   -0.15    5.20
  -4 -10  -3   12.57    8.70
  -4 -10  -4   18.55    9.12
  -4 -10   4   15.46    7.68
   4 -10   4    5.56    5.75
   4 -10   4    3.39    3.18
  -4 -10  -4    1.02    5.21
   4 -10  -4    9.24    8.58
   4 -10  -4   10.16    4.42
  -4  10   4   -1.79    3.46
   4 -10   5   -3.86    3.13
  -4 -10   5    3.41    3.43
   4 -10   5    1.62    5.96
  -4 -10  -5    2.91    2.91
   4 -10  -5   13.11    8.33
  -4  10   5   -6.14    4.69
   4 -10  -5   -2.50    6.20
  -4 -10  -5    4.98    4.39
  -4 -10   6  231.52   26.59
   4 -10   6  193.73   23.43
   4 -10  -6  186.82   23.64
  -4 -10  -6  212.10   26.35
   4 -10  -6  197.21   23.59
   4 -10   6  217.11   26.17
  -4  10   6  252.63   26.44
  -4 -10  -6  168.30   20.60
   4 -10  -7   17.47    7.47
  -4 -10  -7    4.28    3.19
  -4 -10   7    5.06    6.88
   4 -10   7   -1.52    3.37
  -4 -10  -7   12.75    9.72
   4 -10  -7    1.63    3.87
  -4  10   7    2.64    4.11
   4 -10   7    0.19    4.77
  -4 -10   8  242.91   26.55
   4 -10   8  230.25   25.54
   4 -10   8  265.32   28.25
  -4 -10  -8  200.96   25.45
   4 -10  -8  262.45   27.77
   4 -10  -8  216.10   26.21
  -4  10   8  296.64   29.27
  -4 -10   9    4.83    3.96
   4 -10   9   -2.69    5.54
  -4 -10  -9    2.80    7.04
   4 -10  -9    0.46    5.05
  -4  10   9    0.53    7.17
   4 -10   9   -2.21    2.93
   4 -10  -9   12.45    7.56
   4 -10 -10   14.62    9.15
  -4 -10  10   -0.14    4.80
   4 -10  10    4.23    3.56
  -4 -10 -10    1.41    8.38
   4 -10 -10   -2.25    6.98
  -4  10  10    1.02    7.13
   4 -10  10    3.70    4.45
   4 -10  11  140.73   20.47
  -4 -10  11  165.86   22.68
   4 -10  11  116.89   18.62
  -4 -10 -11  176.15   25.07
   4 -10 -11  163.55   22.94
  -4  10  11  121.92   20.02
   4 -10 -11  169.22   22.65
   4  10  11  179.77   22.82
  -4 -10  12   -0.17    7.19
   4 -10  12   16.61    8.88
   4 -10 -12   21.67    8.87
  -4 -10 -12   11.53    7.84
   4 -10  12   28.96    9.94
   4 -10 -12   22.42   10.98
  -4  10  12   17.05   10.75
   4  10  12   18.75    8.25
   4 -10  13   14.85    5.73
  -4 -10  13    1.65    3.56
   4 -10 -13   14.28    7.56
   4 -10 -13    9.95    4.90
   4 -10  13   18.42    6.09
  -4 -10 -13    6.29    4.67
  -4  10  13   14.81    9.61
   4  10  13    9.76    6.23
   4 -10  14    7.57    4.24
  -4 -10  14   13.73    9.09
  -4 -10 -14    5.77    7.99
   4 -10  14    1.06    4.98
   4 -10 -14   29.36   10.07
  -4  10  14   15.05    7.42
   4  10  14   18.50    9.19
   4 -10  15   -1.29    6.17
  -4 -10  15   -0.07    3.98
   4 -10  15   -0.17    3.56
  -4 -10 -15   -7.85    8.51
   4 -10 -15   -2.12    4.42
   4  10  15    6.44    5.67
  -4  10  15   10.69    8.85
   4 -10  16   56.77   12.05
  -4 -10  16   25.20   10.54
   4 -10  16   38.24   10.92
  -4 -10 -16   47.33   13.75
   4 -10 -16   43.24   12.86
  -4  10  16   29.28   10.53
   4  10  16   54.85   12.65
   4 -10  17    8.94    4.42
  -4 -10  17    4.59    7.39
   4 -10  17    7.49    6.13
  -4 -10 -17   10.95    3.95
   4 -10 -17   10.61    7.21
  -4  10  17   18.20    3.86
   4  10  17    3.03    5.23
   4 -10  18   62.35   14.06
  -4 -10  18   69.64   16.41
   4 -10  18   58.02   12.95
  -4 -10 -18   37.28    8.48
   4 -10 -18   73.29   16.25
  -4  10  18   80.05   15.80
   4  10  18   68.19   14.03
   4 -10  19   18.79    7.44
  -4 -10  19   28.56   11.17
   4 -10  19   21.18    8.56
   4 -10 -19   37.91   12.58
  -4  10  19   30.24   10.22
  -4 -10 -19   19.92   11.35
   4  10  19   31.34   12.92
  -4 -10  20   27.54   10.27
   4 -10  20   21.61   10.16
  -4 -10 -20   26.49   11.78
   4 -10 -20   17.34    8.79
  -4  10  20   17.00    8.09
   4  10  20   11.18    6.79
   4 -10  20   34.46   12.45
  -4 -10  21    0.76    6.43
   4 -10  21    3.94    6.87
  -4 -10 -21   13.41   10.19
   4 -10 -21    0.81    7.87
  -4  10  21   22.74    9.95
  -4  10  21    9.75    8.82
   4  10  21   -1.67    5.30
  -4  10  22  120.38   23.56
  -4 -10 -22  122.36   22.47
   4 -10  22  120.21   20.53
   4 -10 -22  126.83   21.75
  -4  10  22  109.87   20.02
   4 -10  22  117.85   22.97
   4  10  22  116.83   19.80
  -4 -10  22   86.10   15.38
  -4 -10 -23   -6.95   13.01
   4 -10 -23    1.46    4.68
  -4  10  23   -1.69    4.59
  -4  10  23    3.20    5.05
   4  10  23   12.32    7.75
   4 -10  23    7.95    6.48
   4 -10  23    4.12    5.72
  -4 -11   0  424.70   38.02
   4 -11   0  437.91   35.95
   4 -11   0  433.08   37.49
  -4 -11   1   42.00   11.40
  -4 -11  -1   32.08   12.68
   4 -11   1   44.12   14.01
   4 -11  -1   37.29   13.02
   4 -11   1   40.70   10.57
   4 -11  -1   31.14    9.42
   4 -11  -2   16.87   10.02
  -4 -11   2   21.24    7.42
   4 -11   2   11.32    8.09
  -4 -11  -2    6.23    8.81
   4 -11  -2    4.42    6.67
   4 -11   2    3.85    2.91
   4 -11  -3   68.89   15.85
  -4 -11   3   45.64   13.29
   4 -11   3   46.25   13.88
   4 -11   3   47.22   11.97
  -4 -11  -3   55.82   13.18
   4 -11  -3   42.39   12.44
  -4 -11   4  597.18   44.22
   4 -11   4  565.60   42.98
  -4 -11  -4  566.85   42.77
   4 -11  -4  649.30   44.79
   4 -11   4  562.68   41.95
   4 -11  -4  569.27   42.48
   4 -11  -5  137.24   19.50
  -4 -11   5  127.15   20.71
   4 -11   5  136.35   20.03
  -4 -11  -5  134.14   21.43
   4 -11  -5  135.38   20.91
   4 -11   5  138.71   21.14
  -4 -11   6  478.93   37.85
   4 -11  -6  492.71   38.81
   4 -11   6  549.90   40.46
  -4 -11  -6  477.09   39.87
   4 -11  -6  485.91   38.53
   4 -11   6  557.31   42.58
  -4  11   6  511.25   38.57
  -4 -11   7   30.93   11.51
  -4 -11  -7   26.05   11.44
   4 -11   7   -0.59    6.40
  -4 -11  -7   19.17    3.60
   4 -11  -7   33.39   13.49
  -4  11   7   15.82    8.74
   4 -11  -7   10.65    4.16
   4 -11   7   10.82    7.82
   4 -11  -8   17.62    6.85
  -4 -11   8   20.03    7.35
   4 -11   8    9.27    5.77
  -4 -11  -8   18.52   11.52
   4 -11  -8   13.15    7.18
  -4  11   8   24.94    8.52
   4 -11   8   11.75    8.71
  -4 -11  -8   20.42   10.42
  -4 -11   9   40.57   13.49
   4 -11   9   42.90   11.64
   4 -11  -9   31.16   10.12
  -4 -11  -9   28.48    8.53
  -4 -11  -9   48.82   12.48
  -4  11   9   40.18   13.85
   4 -11   9   24.07    9.34
   4 -11  -9   14.15    9.31
  -4 -11  10  376.65   34.79
   4 -11  10  348.79   32.26
   4 -11  10  358.65   34.44
  -4 -11 -10  382.08   38.05
   4 -11 -10  343.34   33.71
   4 -11 -10  385.35   35.44
  -4  11  10  362.07   34.55
  -4 -11  11    9.07    5.55
   4 -11  11    0.26    8.61
  -4 -11 -11   -2.27    3.85
   4 -11 -11    4.56    8.44
  -4  11  11    1.09    5.06
   4 -11  11   -0.43    2.82
   4 -11 -11   -4.09    5.40
  -4 -11  12   65.40   15.26
   4 -11  12   34.78    9.48
   4 -11 -12   46.01   11.13
  -4 -11 -12   56.75   15.60
   4 -11 -12   29.10   10.02
   4 -11  12   47.79   12.05
  -4  11  12   36.75   12.58
   4 -11  13   42.71   13.21
  -4 -11  13    5.23    7.13
   4 -11 -13   11.79    6.19
   4 -11  13   14.98    7.88
  -4 -11 -13    5.68    6.57
  -4  11  13   28.97   12.13
   4 -11 -13   23.12   10.19
   4  11  13   41.97   12.40
   4 -11  14  156.52   22.00
  -4 -11  14  172.11   25.01
   4 -11 -14  198.69   26.98
  -4 -11 -14  129.82   20.09
  -4  11  14  152.00   22.54
   4 -11 -14  143.22   21.97
   4  11  14  110.53   18.91
   4 -11  14  186.68   24.31
   4 -11  15   -6.28    9.57
  -4 -11  15   -5.17    6.54
   4 -11  15    4.08    3.42
  -4 -11 -15    3.30    6.58
   4 -11 -15    6.80    8.86
  -4  11  15   -6.30    4.44
   4 -11 -15   -8.45    5.69
   4  11  15    1.76    7.23
   4 -11  16    4.52    5.61
  -4 -11  16   -1.32    5.91
   4 -11 -16   -4.22    6.86
   4 -11  16   -0.10    6.01
  -4 -11 -16   -4.67    5.15
   4 -11 -16   -0.99    6.89
  -4  11  16    0.18    5.62
   4  11  16    4.86    4.59
   4 -11  17   -0.99    6.92
  -4 -11  17    4.30    5.22
   4 -11  17    0.81    5.84
  -4 -11 -17   10.28    8.92
   4 -11 -17    5.92    9.80
  -4  11  17  -12.37    5.09
   4  11  17   -0.59    5.30
   4 -11  18   19.63   11.02
  -4 -11  18   29.62   10.36
   4 -11  18   14.63    3.68
  -4 -11 -18   18.42    9.36
   4 -11 -18    6.10    6.85
  -4  11  18   17.52    8.86
   4  11  18   33.31   10.65
   4 -11  19    5.04    6.69
  -4 -11  19    2.32    5.47
   4 -11  19   22.86    9.62
  -4 -11 -19   16.66   10.37
   4 -11 -19    6.11    5.10
  -4  11  19   14.61    5.05
   4  11  19   -1.93    3.63
   4 -11  20    5.50    7.64
  -4 -11  20   -8.44    6.10
   4 -11  20   16.36    6.96
  -4 -11 -20    5.60    8.27
   4 -11 -20   20.29    8.43
  -4  11  20   21.67    6.24
   4  11  20    9.27    6.61
  -4 -11  21    4.56    8.15
   4 -11  21   15.00    5.59
  -4 -11 -21    1.72    5.75
   4 -11 -21    9.22    8.71
  -4  11  21   18.23    6.02
   4  11  21    4.19    4.87
   4 -11  21    9.23   11.62
   4 -11  21  -11.46   10.91
   4 -11  22   17.49    9.44
  -4 -11  22   22.05    9.34
  -4 -11 -22   22.39   13.31
   4 -11 -22   25.87    9.88
  -4  11  22   10.88   11.54
   4  11  22   14.35    4.75
   4 -11  22   22.28   10.49
  -4 -12   0   70.52   16.34
   4 -12   0   56.46   14.21
   4 -12   0   81.48   17.61
  -4 -12   1    2.60    5.30
  -4 -12  -1    1.48    3.84
   4 -12   1    6.04    6.37
   4 -12  -1   -2.21    4.85
   4 -12   1    1.92    7.85
   4 -12  -1   10.93    5.65
  -4 -12   2   10.04    4.79
   4 -12   2   16.15   11.70
  -4 -12  -2   17.43    8.09
   4 -12  -2    1.36    5.77
   4 -12   2   24.60    9.95
   4 -12  -2   17.85    6.92
  -4 -12   3   82.74   16.26
   4 -12   3   75.71   17.64
  -4 -12  -3   76.04   15.54
   4 -12  -3   85.84   18.76
   4 -12   3  102.32   18.70
   4 -12  -3   97.05   17.26
   4 -12   4    2.54    4.78
   4 -12  -4   -3.97    4.43
  -4 -12   4   10.67    6.67
   4 -12   4    4.35    7.60
  -4 -12  -4   -1.66    6.66
   4 -12  -4    0.39    4.57
   4 -12   5    9.98    7.50
  -4 -12   5   -0.96    8.05
   4 -12   5   15.71   11.87
  -4 -12  -5   -3.57    3.17
   4 -12  -5   -4.65    7.25
   4 -12  -5    1.88    7.77
   4 -12   6   51.81   12.66
  -4 -12   6   32.56   12.16
   4 -12   6   38.61   12.38
  -4 -12  -6   30.41    8.85
   4 -12  -6   34.20   12.11
   4 -12  -6   45.09   12.65
  -4 -12   7   20.29   10.32
   4 -12   7   29.31   11.95
  -4 -12  -7   33.33   10.54
   4 -12  -7   10.03    6.35
  -4  12   7   18.96    5.14
   4 -12  -7   18.82    8.59
   4 -12   7   15.37    3.97
  -4 -12   8   33.94   11.35
   4 -12   8   45.95   11.98
  -4 -12  -8   20.85    7.67
   4 -12  -8   46.64   14.22
  -4  12   8   38.54   10.09
   4 -12  -8   17.66    9.60
   4 -12   8   43.13   12.12
   4 -12  -9   45.06   12.65
  -4 -12   9   43.98   13.53
   4 -12   9   30.14   10.20
  -4 -12  -9   35.33   13.13
   4 -12  -9   49.27   13.40
  -4  12   9   37.32   15.23
   4 -12   9   28.55    9.94
  -4 -12  10   22.81    4.88
   4 -12  10   22.27   10.16
   4 -12 -10    4.59    5.10
  -4 -12 -10   30.60   10.24
   4 -12 -10   24.78    8.60
  -4  12  10   14.76    9.72
   4 -12  10   14.66    6.06
  -4 -12  11   35.66   11.70
   4 -12  11   42.02   12.94
   4 -12 -11   40.11   13.49
  -4 -12 -11   52.59   14.79
  -4  12  11   49.54   15.07
   4 -12  11   39.46   11.62
   4 -12 -11   17.72    6.45
  -4 -12  12   16.37    7.32
   4 -12  12   13.61    9.42
  -4 -12 -12    8.70    9.43
   4 -12  12   16.60    6.49
  -4  12  12   13.84    5.37
   4 -12 -12   19.43    8.16
   4 -12 -12   18.19   10.04
  -4 -12  13    1.25    6.75
   4 -12  13   35.65   11.47
   4 -12 -13   30.36   11.33
  -4 -12 -13    8.06   11.16
   4 -12  13   16.36    8.72
  -4  12  13   39.46   13.61
   4 -12 -13   17.30    7.70
   4 -12  14   51.31   15.52
  -4 -12  14   18.80    8.28
   4 -12 -14   50.28   14.77
   4 -12  14   37.04   12.23
  -4 -12 -14   36.76   12.47
   4 -12 -14   53.66   14.93
  -4  12  14   36.26   13.73
   4 -12  15    8.32    5.68
  -4 -12  15   16.50    7.41
   4 -12  15   18.37    8.60
   4 -12 -15   19.52   10.32
  -4 -12 -15    8.47    5.79
   4 -12 -15    4.50    5.70
  -4  12  15   10.55    4.72
   4 -12  16    2.48    4.44
  -4 -12  16    4.41    3.57
   4 -12  16   -7.69    8.44
  -4 -12 -16   -0.75    7.89
  -4  12  16    9.08    9.46
   4 -12 -16    3.20    4.30
   4  12  16   12.23   10.30
   4 -12 -16   -7.39    3.98
   4 -12  17   -3.10    8.17
  -4 -12  17   13.43    9.82
   4 -12  17   -2.60    4.20
   4 -12 -17   -4.26    4.87
  -4 -12 -17    4.92    5.87
   4 -12 -17   -0.24    7.45
  -4  12  17   -8.63   11.14
   4  12  17   -5.42    9.76
   4 -12  18   22.27   10.62
   4 -12  18   27.43    7.36
  -4 -12 -18   40.90   13.26
   4 -12 -18   17.20    7.86
  -4  12  18   10.47    4.93
   4  12  18   24.53   11.48
   4 -12 -18   25.26    7.87
   4 -12  19   17.78    7.18
  -4 -12  19   39.48   13.45
   4 -12  19   47.49   13.50
  -4 -12 -19   38.75   12.58
   4 -12 -19   26.02    9.91
  -4  12  19   28.00   11.12
   4 -12 -19   45.18   14.86
   4  12  19   32.29   14.82
   4 -12  20    9.81   10.56
   4 -12  20   11.93    6.57
  -4 -12 -20   11.73    4.00
   4 -12 -20    7.65    7.44
   4 -12 -20   10.25    7.37
   4  12  20   12.03    8.42
  -4 -13   0   36.45    9.21
   4 -13   0   51.68   13.58
   4 -13   0   20.24   10.23
  -4 -13   1  109.04   19.03
  -4 -13  -1   81.79   17.03
   4 -13   1   64.45   16.48
   4 -13  -1   52.90   15.07
   4 -13   1   89.12   18.07
   4 -13  -1   46.75   13.95
  -4 -13   2    7.43    5.40
   4 -13   2    5.86    7.73
  -4 -13  -2    4.41    5.19
   4 -13   2    4.58    5.24
   4 -13  -2    2.72    5.01
   4 -13  -2   -0.85    2.77
  -4 -13   3  282.28   31.16
   4 -13   3  236.85   30.15
  -4 -13  -3  242.97   30.75
   4 -13  -3  281.93   32.49
   4 -13   3  270.01   31.81
   4 -13  -3  236.59   29.79
   4 -13  -4    6.62    7.15
   4 -13   4   -0.70    6.14
  -4 -13   4    2.68    7.20
   4 -13   4    3.77    9.90
  -4 -13  -4    1.31    3.88
   4 -13  -4    5.99    4.83
   4 -13   5   14.78   10.36
   4 -13  -5   35.94   12.61
  -4 -13   5   12.44   11.34
   4 -13   5   17.65   11.43
  -4 -13  -5   10.95    7.40
   4 -13  -5   28.03    6.79
  -4 -13   6   18.46    4.44
   4 -13   6    1.82    5.72
   4 -13  -6   15.24    9.19
  -4 -13  -6    2.75    7.36
   4 -13  -6   10.86    6.78
   4 -13   6   10.92    7.25
   4 -13  -7  118.10   20.64
  -4 -13   7  106.82   17.92
   4 -13   7   97.41   19.87
   4 -13   7  126.14   21.16
   4 -13  -7  137.12   23.23
  -4 -13  -7  112.79   20.97
   4 -13  -8  111.28   19.05
  -4 -13   8   96.25   20.56
   4 -13   8  111.29   19.75
   4 -13   8  114.08   20.50
  -4 -13  -8  124.77   20.99
   4 -13  -8  141.05   23.04
  -4 -13   9   18.34    8.47
   4 -13   9   10.07    6.85
  -4 -13  -9   15.13   13.79
   4 -13  -9    9.54    8.57
  -4  13   9  -15.89   14.26
   4 -13   9    4.05    5.71
   4 -13  -9    7.48    8.37
  -4 -13  10    7.06    5.18
   4 -13  10   11.03    9.38
  -4 -13 -10   -2.41    8.23
   4 -13 -10   -1.77    8.29
  -4  13  10   -0.22    7.35
   4 -13  10    6.68    6.67
   4 -13 -10   -9.88    4.16
   4 -13 -11    6.56    9.46
  -4 -13  11    1.12    3.87
   4 -13  11    1.53    5.28
  -4 -13 -11   -1.51    5.10
   4 -13 -11   -1.00    5.24
   4 -13  11    4.21    6.82
  -4 -13  12   99.11   19.86
   4 -13  12   66.07   14.34
   4 -13 -12  130.82   21.07
  -4 -13 -12  123.30   23.29
   4 -13 -12  134.85   24.63
   4 -13  12  129.60   20.70
  -4 -13  13   31.36   10.31
   4 -13  13    6.88    7.12
   4 -13 -13   16.88    8.82
  -4 -13 -13    8.34   11.49
   4 -13  13   19.31    9.63
   4 -13 -13   14.01   12.84
   4 -13  14   -8.61    9.00
  -4 -13  14    1.64    7.73
   4 -13  14    1.97    3.52
  -4 -13 -14    2.58    9.04
   4 -13 -14  -11.07    5.65
   4 -13 -14    6.67    7.79
   4 -13  15   58.59   16.69
  -4 -13  15   63.70   14.54
   4 -13  15   79.04   17.18
  -4 -13 -15   83.89   20.06
   4 -13 -15  101.26   18.99
   4 -13 -15   96.84   19.98
   4 -13 -16   14.70    7.76
   4 -13  16    8.38   10.08
  -4 -13  16   15.49    6.02
   4 -13  16    5.96    2.96
  -4 -13 -16    2.74    4.76
   4 -13 -16    9.04    8.04
   4 -13  17   40.19   13.15
  -4 -13  17   54.70   15.71
   4 -13  17   69.00   16.57
   4 -13 -17   26.65   11.39
  -4 -13 -17   52.63   17.76
   4 -13 -17   48.32   15.97
  -4 -14   0  126.87   22.91
   4 -14   0  110.80   19.60
   4 -14   0  143.32   23.71
  -4 -14   1   18.04    7.04
  -4 -14  -1   24.10    8.75
   4 -14   1   37.70   14.14
   4 -14  -1   29.31   14.66
   4 -14   1   37.99   13.46
   4 -14  -1   34.23   13.74
  -4 -14   2    3.77    8.14
   4 -14   2   14.31    6.96
   4 -14   2    3.91    6.42
  -4 -14  -2   -4.54   11.16
   4 -14  -2   20.63    7.90
   4 -14  -2    4.77    4.89
   4 -14   3   13.48    6.62
  -4 -14   3   15.81    7.93
   4 -14   3   15.43   10.34
  -4 -14  -3   13.27    8.13
   4 -14  -3    7.95    5.78
   4 -14  -3    8.31    5.47
   4 -14  -4   13.31    4.29
   4 -14   4    1.64    4.08
   4 -14   4    4.45    6.94
  -4 -14  -4   -0.47    4.44
   4 -14  -4   -5.10   10.89
   4 -14   5   -0.56    3.16
   4 -14  -5   -2.42    6.33
  -4 -14   5    4.44    6.40
   4 -14   5   -2.80    5.70
  -4 -14  -5    1.18    9.06
   4 -14  -5  -12.62   11.76
  -4 -14   6   65.22   16.50
   4 -14   6  108.53   20.54
  -4 -14  -6   57.56   15.60
   4 -14  -6   58.18   14.57
   4 -14  -6  103.18   19.65
   4 -14   6   88.02   19.11
   4 -14   7   31.54   13.08
   4 -14  -7   17.63    8.51
  -4 -14  -7   18.22    8.38
   4 -14  -7   27.61    9.66
   4 -14   7   18.15    8.33
  -4 -14   8   30.14   10.17
   4 -14   8    4.58    5.32
  -4 -14  -8   10.30    5.15
   4 -14  -8   19.61   10.85
   4 -14  -8    7.74    5.77
   4 -14   8   16.91    9.18
  -4 -14   9   -2.16    4.86
   4 -14   9   -6.39    6.03
  -4 -14  -9   11.37    4.78
   4 -14  -9   17.11   11.39
   4 -14  -9   15.09    5.92
   4 -14   9    5.53    7.31
  -4 -14  10   28.20   12.36
   4 -14  10    3.84    7.82
  -4 -14 -10   29.40   13.44
   4 -14 -10   15.82   12.41
   4 -14 -10    3.82    5.44
   4 -14  10    4.90    4.76
  -4 -14  11   -3.49    8.70
   4 -14  11   -0.35    5.26
  -4 -14 -11   -8.96    7.44
   4 -14 -11   -2.63    6.66
   4 -14  11   -9.15    7.56
   4 -14 -11   -2.06    4.74
  -4 -14  12    7.14    7.84
   4 -14  12    7.93   10.08
  -4 -14 -12   -3.43    8.21
   4 -14 -12   10.72   10.17
   4 -14  12    6.25    3.51
   4 -14 -12    8.53    6.54
   4 -14 -13   63.95   14.84
  -4 -14  13   48.41   13.49
   4 -14  13   39.37   11.57
  -4 -14 -13   64.79   18.63
   4 -14  13   57.94   13.92
   4 -14 -13   44.69   16.17
   4 -14  14  -15.23   10.27
  -4 -14  14   -9.55    5.65
   4 -14 -14   -7.47    7.87
   4 -14  14    9.70    4.80
  -4 -14 -14   -0.75    8.54
   4 -14 -14    4.87    8.10
  -4 -15   0   62.87   17.57
   4 -15   0   86.47   19.34
   4 -15   0   66.94   15.54
  -4 -15  -1   -0.97    6.65
   4 -15   1   -4.01    7.01
   4 -15   1   -6.49    5.83
   4 -15  -1    1.24    6.70
   4 -15  -1    6.22    5.32
   4 -15   2   20.93    9.54
  -4 -15   2    9.13    8.82
   4 -15   2   12.46    9.78
  -4 -15  -2   12.84    7.79
   4 -15  -2   -1.64    6.10
   4 -15  -2    8.97    7.03
   4 -15   3   -0.95    4.51
  -4 -15   3  -11.12    6.59
   4 -15   3   -2.16    7.83
  -4 -15  -3   -1.62    6.47
   4 -15  -3    9.95   10.22
   4 -15  -3    2.16    5.44
  -4 -15   4   97.47   17.44
   4 -15   4   99.06   19.49
  -4 -15  -4  105.32   20.36
   4 -15   4  134.50   22.77
   4 -15  -4   97.97   18.24
   4 -15  -4   95.88   19.82
  -4 -15   5    6.00    7.98
   4 -15   5  -10.97   10.24
  -4 -15  -5    5.12    8.18
   4 -15  -5    1.95    7.49
   4 -15  -5   -4.80    6.64
   4 -15   5   -6.00    6.07
   4 -15  -6   84.22   19.27
  -4 -15   6   53.10   13.24
   4 -15   6   70.73   19.36
  -4 -15  -6   29.32   10.92
   4 -15  -6   31.78   12.76
   4 -15   6   56.97   15.89
   4 -15  -7    0.85    4.05
  -4 -15   7    1.23    6.50
   4 -15   7   18.06    8.92
  -4 -15  -7    0.34    9.06
   4 -15  -7   -1.82    4.82
   4 -15   7   -8.08    6.64
  -4 -15   8  139.33   22.93
   4 -15   8  111.87   20.89
  -4 -15  -8  121.02   23.42
   4 -15  -8  153.25   25.85
   4 -15   8  100.47   18.99
   4 -15  -8  109.52   20.80
  -4 -15   9   18.34    8.27
   4 -15   9    1.27    6.65
   4 -15  -9    1.82    5.65
  -4 -15  -9   -6.13   10.53
   4 -15  -9    0.98    5.01
   4 -15   9   -2.46    4.41
   5   0   0   -0.65    0.89
  -5   0   0    3.02    3.59
   5   0   1    0.24    1.42
  -5   0   1    0.57    1.84
  -5   0  -1    1.61    3.36
   5   0  -1    0.41    2.32
   5   0  -2 1297.63   29.28
  -5   0   2 1335.27   43.66
   5   0   3    0.98    2.27
  -5   0   3    0.36    2.42
   5   0  -3    1.85    1.84
   5   0  -4 1823.21   35.79
  -5   0   4 1816.15   52.07
  -5   0   5    3.37    2.12
   5   0  -5    2.64    2.54
   5   0   5   -1.29    1.52
  -5   0  -6 1286.38   23.36
  -5   0   6 1390.09   48.14
   5   0   6 1370.63   40.52
  -5   0  -7    1.37    1.58
  -5   0   7   -2.27    4.72
  -5   0   7    0.28    1.54
   5   0   7    0.83    2.22
   5   0   8  329.86   21.99
  -5   0   8  374.68   25.94
  -5   0   8  328.85   18.24
  -5   0   9   -0.56    1.95
   5   0   9   -2.97    2.76
  -5   0   9    0.82    1.83
   5   0  10  172.36   16.96
  -5   0  10  162.32   18.15
  -5   0  10  137.68   13.27
  -5   0  11    2.29    2.21
  -5   0  11   -1.94    4.11
   5   0  11   -2.05    2.25
  -5   0  12  618.43   37.16
   5   0  12  709.18   37.09
  -5   0  12  657.65   31.83
  -5   0  13   -0.43    2.00
  -5   0  13   -0.22    3.93
   5   0  13    7.60    6.51
   5   0  14  159.56   18.31
  -5   0  14  136.61   17.78
  -5   0  14  152.26   16.70
  -5   0  15   -2.11    4.44
   5   0  15   -2.64    2.45
  -5   0  15    1.82    5.82
  -5   0  16  819.41   46.35
   5   0  16  745.46   42.01
  -5   0  16  762.47   39.82
  -5   0  17   -1.79    2.58
   5   0  17   -0.79    3.28
  -5   0  17    2.84    3.92
   5   0  18   71.16   14.17
  -5   0  18   65.32   12.77
  -5   0  18   46.84   12.22
   5   0  18   50.05   12.26
  -5   0  19    2.22    2.33
   5   0  19   -7.71    6.89
  -5   0  19    1.38    3.87
   5   0  19   -1.63    3.98
   5   0  20  168.54   22.65
  -5   0  20  163.81   22.69
   5   0  20  159.69   21.43
  -5   0  20  163.15   21.23
  -5   0  21    2.34    7.82
   5   0  21    2.06    6.29
  -5   0  21   -5.52    4.84
   5   0  21    5.27    9.69
  -5   0  22   50.58   12.40
   5   0  22   47.91   10.56
  -5   0  22   55.64   13.23
   5   0  22   51.40   12.03
  -5   0  23    2.50    7.30
   5   0  23   -2.82    4.50
  -5   0  23   -5.45    5.66
   5   0  23    7.98   11.10
   5   0  24  652.12   45.14
  -5   0  24  562.46   43.58
   5   0  24  571.90   42.78
  -5   0  25   12.83    8.71
   5   0  25    0.94    5.39
  -5   0  25    9.97    9.50
   5   0  25   -7.07    9.80
   5   0  26  163.17   22.17
  -5   0  26  168.60   24.60
   5   0  26  196.27   26.65
   5   0  27    3.19    3.82
  -5   0  27    1.47    4.80
   5   0  27    6.30    9.99
   5   0  28  104.64   19.81
  -5   0  28   53.44   14.38
   5   0  28   87.41   17.66
   5   0  29    5.81    3.94
  -5   0  29    2.82    8.54
   5   0  29   13.25   10.03
   5   0  30  147.56   22.32
  -5   0  30  171.93   25.20
   5   0  30  128.90   23.19
  -5  -1   0    0.27    1.01
  -5   1   0    0.05    1.62
  -5  -1   0   -1.01    2.44
   5   1   0    1.03    1.06
   5  -1   0   -1.58    1.64
  -5  -1  -1  122.10    7.42
   5  -1   1  117.31   10.90
   5  -1  -1  129.39   11.32
   5   1   1  140.80    8.43
  -5  -1  -1  108.47   12.15
  -5   1  -1  124.58   13.68
  -5   1   1  120.83   14.38
  -5  -1   1  106.15   12.01
   5   1  -1  100.75    5.89
  -5  -1   1   91.24    7.61
  -5  -1  -2    0.39    0.97
   5   1  -2    0.02    0.35
  -5   1   2    1.08    3.87
   5  -1   2   -0.09    1.83
  -5  -1   2    1.46    2.66
   5  -1  -2    1.08    1.92
   5   1   2   -0.24    0.85
  -5  -1  -3   29.02    3.76
   5   1  -3   31.15    3.08
   5   1   3   35.61    5.01
  -5  -1   3   51.34    8.79
  -5   1   3   30.29    6.76
   5  -1  -3   29.44    5.71
   5  -1   3   34.29    6.16
   5  -1   4    6.09    3.20
  -5  -1  -4    9.79    2.53
  -5   1   4    7.63    5.40
  -5  -1   4    0.90    2.87
   5   1   4    7.68    3.44
   5   1  -4    8.48    1.94
   5  -1  -4    5.40    2.35
   5  -1   5   20.13    4.97
   5   1  -5   23.68    3.32
  -5  -1  -5   25.13    3.65
  -5   1   5   27.66    7.71
  -5  -1   5   15.52    5.97
   5   1   5   20.90    4.31
   5  -1  -5   23.44    5.35
   5  -1   6  557.42   27.20
  -5  -1  -6  535.42   18.80
  -5   1   6  508.77   30.07
  -5  -1   6  580.20   29.76
  -5  -1  -7   37.39    5.45
   5  -1   7   36.37    7.64
  -5   1   7   46.84    8.83
   5   1   7   35.80    6.73
  -5  -1   7   34.38    8.70
  -5  -1   7   40.73    5.05
   5  -1   8   34.15    7.46
  -5   1   8   30.89    6.84
  -5  -1  -8   37.61    6.21
   5   1   8   29.26    6.43
  -5  -1   8   23.31    7.02
  -5   1   8   26.95    5.66
  -5  -1   8   29.48    5.17
   5   1   9   67.13    9.73
  -5  -1  -9   73.65    8.82
   5  -1   9   75.34   11.15
  -5   1   9   75.18   12.09
  -5  -1   9   72.24   11.30
  -5   1   9   71.09    9.71
  -5  -1   9   61.82    7.74
   5   1  10  839.78   36.94
   5  -1  10  764.45   35.81
  -5  -1 -10  857.60   32.25
  -5   1  10  738.04   38.87
  -5  -1  10  739.72   38.28
  -5   1  10  758.46   32.40
  -5  -1  10  748.97   28.97
  -5  -1  11   35.03    6.76
   5   1  11   31.18    8.39
  -5   1  11   30.57    7.03
  -5  -1 -11   30.02    5.95
  -5  -1  11   23.25    8.64
   5  -1  11   25.68    7.34
  -5   1  11   33.46    7.78
   5   1  12  318.80   24.53
   5  -1  12  309.65   24.10
  -5   1  12  353.72   28.18
  -5  -1  12  297.14   25.51
  -5   1  12  319.85   23.21
  -5  -1  12  273.60   19.57
   5   1  13  394.84   28.37
   5  -1  13  489.52   31.29
  -5   1  13  461.88   32.76
  -5  -1  13  470.36   32.25
  -5   1  13  477.76   29.27
  -5  -1  13  455.26   26.78
   5   1  14  212.45   21.37
   5  -1  14  216.55   21.51
  -5   1  14  212.43   23.49
  -5  -1  14  206.62   23.26
  -5   1  14  201.22   19.81
  -5  -1  14  203.45   18.81
  -5   1  15    5.11    2.63
  -5  -1  15    5.70    3.42
   5   1  15   11.17    6.23
   5  -1  15    3.88    5.52
  -5   1  15    7.01    6.11
  -5  -1  15    6.95    4.22
   5   1  16  301.53   26.89
   5  -1  16  300.71   27.55
  -5   1  16  355.26   31.61
  -5  -1  16  352.51   30.77
  -5   1  16  323.04   26.63
   5   1  16  353.40   28.97
  -5  -1  16  298.69   24.58
  -5   1  17   45.99    9.98
  -5  -1  17   33.33    9.17
   5   1  17   32.98   10.14
   5  -1  17   46.44   10.87
  -5   1  17   39.80    9.85
  -5  -1  17   25.26    9.68
   5   1  17   32.91   10.35
  -5   1  18   49.04   10.77
  -5  -1  18   24.91    6.98
   5   1  18   43.96   10.51
   5  -1  18   27.50    7.98
  -5   1  18   31.31    9.45
  -5  -1  18   37.60    9.99
   5   1  18   36.29   10.81
  -5   1  19   34.11    8.75
  -5  -1  19   29.63    8.32
   5   1  19   41.29   10.99
  -5  -1  19   34.71   13.56
   5  -1  19   30.61    9.75
  -5   1  19   20.01    9.08
   5   1  19   10.72    8.10
   5  -1  19   13.30    4.54
   5   1  20  166.58   21.51
   5  -1  20  145.50   19.95
  -5   1  20  177.75   23.55
   5   1  20  138.39   20.60
  -5   1  20  157.80   21.05
   5  -1  20  171.28   22.10
  -5  -1  20  171.72   22.81
  -5  -1  20  150.12   19.68
  -5   1  21   70.94   15.20
  -5  -1  21   77.54   14.65
   5   1  21   89.55   15.72
   5  -1  21   61.82   13.89
  -5   1  21   84.97   18.42
  -5  -1  21   99.16   18.23
   5   1  21   60.27   14.46
   5  -1  21   64.15   13.93
  -5   1  22    5.82    6.02
  -5  -1  22   14.37    9.73
   5   1  22    3.82    6.65
   5  -1  22    1.65    4.00
  -5   1  22   -1.05    5.12
  -5  -1  22    0.68    6.60
   5   1  22    2.78    7.16
   5  -1  22    0.30    6.30
   5   1  23  172.47   22.39
   5  -1  23  201.24   24.54
  -5   1  23  167.20   25.12
  -5  -1  23  213.38   25.86
   5   1  23  117.28   20.24
   5  -1  23  149.25   23.83
  -5   1  23  138.50   21.92
   5   1  24  295.55   30.33
   5  -1  24  257.69   27.37
  -5   1  24  220.97   28.00
  -5  -1  24  295.06   30.56
   5   1  24  210.45   27.65
   5  -1  24  269.97   31.43
  -5   1  24  222.40   26.59
  -5  -1  25   13.94    3.75
  -5   1  25   34.84   11.11
   5   1  25   17.87    5.62
   5  -1  25   -0.72    8.74
  -5   1  25   21.94   12.03
   5   1  25   20.10   10.39
   5  -1  25   10.38    3.97
  -5   1  26   43.48   11.30
   5   1  26   31.94    8.99
   5  -1  26   69.24   15.99
  -5   1  26   32.43   12.45
  -5  -1  26   46.54   14.42
   5   1  26   49.31   13.76
   5  -1  26   83.46   18.68
  -5   1  27   29.04    9.23
   5   1  27   27.78   10.26
   5  -1  27   31.18   11.00
  -5   1  27   38.11   12.46
  -5  -1  27   29.38   13.05
   5   1  27    7.84    4.66
   5  -1  27   18.74   10.46
  -5   1  28    2.93   10.77
   5   1  28   19.75    9.47
   5  -1  28   -4.76    7.02
  -5   1  28    8.82    9.54
  -5  -1  28    0.65    5.58
   5   1  28   10.10    6.51
   5  -1  28   -0.70    4.56
   5   1  29    2.86    5.90
   5  -1  29    8.36    5.78
  -5   1  29   13.35    5.69
  -5  -1  29    3.99    7.10
   5  -1  29   14.53    7.87
   5   1  30  103.45   19.83
   5  -1  30   97.32   18.95
  -5   1  30   72.23   17.80
  -5  -1  30   77.24   21.20
   5   1  30  101.70   20.72
   5  -1  30  106.24   21.60
  -5  -2   0    0.32    2.02
   5  -2   0    0.42    1.22
   5  -2   0    0.18    0.69
  -5  -2   0    3.21    2.07
  -5  -2   1   92.04    9.03
   5   2   1   90.93    5.72
  -5  -2  -1  103.01    9.24
   5  -2   1  119.15   11.95
   5  -2  -1  102.15    7.34
  -5   2  -1   94.61   12.27
  -5   2   1  103.58   13.50
  -5  -2   1   91.80   10.55
   5  -2  -1   95.27   11.47
  -5  -2   2  122.83   10.96
   5   2   2  112.60    7.60
  -5  -2  -2  122.89   10.06
   5  -2   2  147.77   13.95
  -5   2   2  126.70   14.50
  -5  -2   2  145.11   13.23
   5  -2  -2  123.61   12.30
   5  -2  -2  133.09    9.28
  -5  -2   3 1243.36   36.33
   5  -2   3 1108.60   38.97
   5   2   3 1150.56   27.60
  -5  -2  -3 1258.68   31.92
  -5   2   3 1136.86   43.47
   5  -2  -3 1219.77   31.44
   5  -2  -3 1223.95   39.06
  -5  -2   4  845.60   31.32
   5   2   4  860.34   26.78
   5  -2  -4  884.26   33.23
  -5  -2  -4  924.59   27.73
  -5   2   4  904.95   39.29
  -5  -2   4  907.51   34.46
   5  -2   4  782.99   33.12
  -5  -2   5  812.62   31.42
   5   2   5  814.87   28.28
   5  -2  -5  771.69   31.64
  -5   2   5  783.00   36.81
  -5  -2   5  757.59   32.71
   5  -2   5  776.60   33.16
   5   2   6  803.39   29.61
  -5  -2  -6  793.99   28.04
  -5   2   6  802.73   37.85
  -5  -2   6  673.87   32.09
   5  -2  -6  803.77   33.04
   5  -2   6  780.90   33.71
  -5  -2   6  698.15   30.66
   5   2   7   80.38    9.96
  -5  -2  -7   87.45    9.69
  -5   2   7   94.87   12.87
  -5  -2   7   84.61   11.46
   5  -2   7   60.88   10.34
  -5  -2   7   68.66    6.07
  -5  -2   8    4.62    2.00
   5  -2   8    5.14    5.13
   5   2   8    6.51    2.49
  -5  -2  -8   -1.17    2.46
  -5   2   8    2.74    3.62
  -5  -2   8    1.18    2.50
  -5   2   8    0.01    2.31
   5   2   9  537.99   28.39
  -5  -2  -9  452.38   24.54
  -5   2   9  547.76   33.34
  -5  -2   9  750.05   37.87
   5  -2   9  655.01   33.76
  -5   2   9  596.77   30.11
  -5  -2   9  541.59   21.40
   5   2  10  219.53   18.90
  -5  -2 -10  238.87   18.10
  -5   2  10  209.28   21.23
  -5  -2  10  239.00   21.44
   5  -2  10  179.26   18.31
  -5   2  10  207.35   18.18
  -5  -2  10  164.20   12.75
   5   2  11   75.78   12.13
  -5  -2 -11   60.72   10.44
   5  -2  11   69.30   11.72
  -5   2  11   46.67   10.79
  -5  -2  11   67.63   11.89
  -5   2  11   86.57   12.36
  -5  -2  11   57.06    8.15
  -5  -2 -12  209.18   18.67
   5   2  12  200.63   19.32
   5  -2  12  192.34   19.72
  -5   2  12  211.96   22.74
  -5  -2  12  180.52   20.45
  -5   2  12  204.34   19.40
  -5  -2  12  191.45   16.06
   5   2  13  844.63   41.18
   5  -2  13  768.05   40.07
  -5  -2 -13  803.49   37.82
  -5   2  13  871.06   45.28
  -5  -2  13  740.34   41.04
  -5   2  13  772.59   38.81
  -5  -2  13  746.25   33.10
   5   2  14   57.09   10.95
   5  -2  14   71.82   12.31
  -5  -2 -14   60.24   10.63
  -5   2  14   69.29   12.31
  -5  -2  14   36.46    9.14
  -5   2  14   66.58   11.91
  -5  -2  14   65.43   10.84
   5   2  14   50.35   10.23
   5   2  15  212.48   21.30
   5  -2  15  248.29   24.02
  -5  -2 -15  218.39   21.38
  -5   2  15  276.54   26.78
  -5  -2  15  231.95   24.28
  -5   2  15  230.37   22.52
   5   2  15  227.52   22.00
  -5  -2  15  215.27   19.65
   5   2  16  166.94   19.90
   5  -2  16  193.21   22.11
  -5  -2 -16  177.85   20.44
  -5   2  16  187.28   22.37
  -5  -2  16  211.92   24.31
  -5   2  16  197.70   20.81
   5   2  16  167.96   20.36
  -5  -2  16  167.14   18.79
   5   2  17  271.97   25.71
   5  -2  17  278.74   26.08
  -5   2  17  306.05   28.99
  -5  -2  17  173.35   22.69
  -5   2  17  280.54   25.78
   5   2  17  208.96   24.10
  -5  -2  17  153.70   19.03
  -5   2  18  217.36   24.55
   5   2  18  292.39   27.18
   5  -2  18  261.76   26.20
  -5  -2  18  243.22   26.57
  -5   2  18  236.90   24.84
   5   2  18  254.08   26.07
  -5  -2  18  226.60   23.44
  -5   2  19   31.53    9.81
   5   2  19   47.59   12.26
   5  -2  19   42.92   10.67
  -5   2  19   46.42   13.13
  -5  -2  19   66.89   11.98
   5   2  19   36.23   11.31
   5   2  20  334.47   30.18
   5  -2  20  309.22   29.79
  -5   2  20  278.67   28.73
  -5  -2  20  251.82   28.66
  -5   2  20  262.27   26.72
   5   2  20  214.18   25.64
   5  -2  20  284.51   29.71
  -5   2  21   37.91   10.76
  -5   2  21   44.78   12.42
   5   2  21   48.60   11.83
   5  -2  21   28.27    9.65
  -5  -2  21   21.33   10.12
   5   2  21   47.42   10.83
   5  -2  21   45.05   11.63
  -5   2  22   35.20   11.31
   5   2  22   36.67   12.05
   5  -2  22   47.43   12.47
  -5   2  22   24.10    8.61
  -5  -2  22   33.46   10.34
   5   2  22   20.26    8.37
   5  -2  22   23.52   11.07
  -5   2  23   18.04    8.55
   5   2  23   28.53    8.62
   5  -2  23   44.71   10.92
  -5   2  23   34.67   11.15
  -5  -2  23   46.77   14.52
   5   2  23    9.83    4.74
   5  -2  23   28.25   11.63
  -5   2  24   30.35   11.05
   5   2  24   37.71   12.89
   5  -2  24   50.00   13.78
  -5   2  24   27.48   10.52
  -5  -2  24    6.11    5.20
   5   2  24   28.87    9.06
   5  -2  24   38.49   14.78
  -5   2  25   -0.53    5.06
   5   2  25   -2.48    4.26
   5  -2  25   -2.17    6.19
  -5   2  25   -3.88    8.48
  -5  -2  25   -0.48    4.53
   5   2  25    5.84    9.37
   5  -2  25   -1.32    8.37
  -5   2  26   36.14   13.64
   5   2  26   30.30   10.67
   5  -2  26   24.58    7.37
  -5   2  26   30.21   10.07
  -5  -2  26    7.03    7.86
   5   2  26   17.99    8.03
   5  -2  26   26.56   11.68
   5   2  27  140.84   21.53
   5  -2  27  166.07   22.87
  -5   2  27  150.79   23.90
  -5  -2  27  182.40   27.26
   5   2  27  175.24   24.83
   5  -2  27  132.82   22.97
  -5   2  27  200.10   27.11
  -5   2  28    9.74    8.32
   5   2  28   15.15    8.81
   5  -2  28   -0.48    3.88
  -5   2  28   13.10   11.25
  -5  -2  28  -16.22    9.40
   5   2  28   -4.51    5.84
   5  -2  28    3.11    4.98
  -5   2  29   18.85    8.42
   5   2  29    7.04    5.28
   5  -2  29    4.01    7.18
  -5   2  29   18.71    9.82
  -5  -2  29    1.65    5.80
   5   2  29   13.49    5.51
   5  -2  29    7.80    7.35
  -5  -3   0   -1.97    2.59
   5  -3   0   -0.29    0.99
  -5  -3   0    0.14    2.08
   5  -3   0   -0.01    2.24
  -5   3   0   -0.43    6.77
  -5  -3   1    8.08    2.52
  -5  -3  -1   10.55    3.85
   5  -3   1    8.15    4.91
   5  -3   1   14.61    2.69
  -5   3  -1    5.51    2.64
   5  -3  -1    7.61    2.35
  -5   3   1    5.85    2.38
  -5  -3   1   14.92    3.76
   5   3   1   11.67    1.91
   5  -3  -1    9.05    5.60
  -5  -3   2  305.08   19.20
   5  -3   2  299.90   12.56
  -5  -3  -2  279.03   18.27
   5  -3   2  339.85   23.51
   5  -3  -2  328.13   16.96
  -5   3   2  328.80   24.64
  -5  -3   2  287.64   17.24
   5   3   2  290.78   11.91
   5  -3  -2  313.54   21.40
  -5   3   3    1.59    4.89
   5   3   3    8.95    2.58
  -5  -3   3    4.28    2.63
   5  -3  -3    4.82    3.63
   5  -3   3    7.33    2.08
  -5  -3  -3    6.64    3.15
  -5  -3   3    9.64    2.72
   5  -3  -3    9.05    4.25
   5  -3   3    0.65    1.61
   5  -3  -4   -0.35    2.64
   5  -3   4   -0.78    1.24
  -5  -3   4    1.01    3.32
   5   3   4    0.81    1.65
  -5  -3  -4    1.95    1.93
  -5   3   4    1.63    4.31
  -5  -3   4    1.72    3.83
   5  -3  -4    1.69    1.43
   5  -3   4   -1.18    3.50
   5   3   5  499.86   21.74
   5  -3   5  413.03   14.85
  -5  -3   5  415.11   24.31
   5  -3   5  427.77   26.41
  -5  -3  -5  419.00   22.74
   5  -3  -5  443.83   26.36
  -5   3   5  448.35   28.95
   5  -3  -5  461.38   23.42
  -5  -3   5  492.13   25.55
  -5  -3   6   58.75    9.91
   5   3   6   69.01    8.47
  -5  -3  -6   61.19    9.07
  -5   3   6   49.49   10.97
   5  -3  -6   53.99    9.33
  -5  -3   6   56.64    8.82
   5  -3   6   72.58   11.22
  -5  -3   7  277.68   21.10
   5   3   7  288.59   19.18
  -5  -3  -7  287.85   19.43
  -5   3   7  317.30   24.66
  -5  -3   7  348.89   22.80
  -5  -3   7  273.09   10.70
   5  -3   7  291.17   22.76
  -5  -3   8   24.04    6.44
  -5  -3   8   19.65    3.53
   5  -3   8   24.25    7.16
   5   3   8   21.30    5.16
  -5  -3  -8   21.96    7.12
  -5   3   8   15.57    8.39
  -5  -3   8   12.64    5.66
  -5  -3   9   26.99    6.26
  -5  -3   9   29.87    4.91
   5  -3   9   21.97    7.61
   5   3   9   19.50    4.39
  -5  -3   9   22.40    6.72
  -5  -3  -9   34.16    7.65
  -5   3   9   34.98    7.72
  -5   3   9   36.38    7.74
   5  -3  10   14.86    5.87
  -5  -3  10   13.01    4.35
   5   3  10    3.54    3.99
  -5   3  10   10.19    3.31
  -5  -3  10    8.00    5.03
  -5   3  10   20.37    6.49
  -5  -3 -10    8.81    2.66
  -5  -3  10   13.31    5.04
   5  -3  11    6.95    4.15
  -5  -3  11   10.00    4.78
   5   3  11   11.95    5.69
  -5  -3 -11    6.80    2.29
  -5   3  11    9.68    2.50
  -5  -3  11    7.53    5.33
  -5   3  11    8.83    5.16
  -5  -3  12   21.26    7.22
   5  -3  12   13.92    6.33
  -5  -3 -12    4.31    2.18
   5   3  12   12.27    5.33
  -5   3  12   -4.73    4.81
  -5  -3  12    5.66    6.65
  -5   3  12    3.02    2.02
   5   3  12   -2.46    3.78
   5   3  13  219.63   20.87
  -5  -3 -13  242.10   22.16
  -5   3  13  236.27   24.92
   5  -3  13  268.04   23.93
  -5  -3  13  229.35   23.05
  -5   3  13  272.23   23.63
   5   3  13  215.91   20.65
  -5  -3  14  -10.68    4.09
   5   3  14    5.08    6.70
  -5  -3 -14    6.75    4.64
  -5   3  14   -5.59    6.22
  -5  -3  14   -2.48    5.75
  -5   3  14    2.09    3.64
   5   3  14    2.73    3.85
   5  -3  14    3.81    4.24
   5   3  15  304.24   26.10
  -5  -3  15  282.99   27.68
   5  -3  15  314.10   27.02
  -5  -3 -15  284.71   25.60
  -5   3  15  282.10   29.54
  -5   3  15  251.80   24.48
   5   3  15  258.71   24.27
   5   3  16   61.59   11.91
  -5  -3 -16   46.53   11.05
  -5   3  16   44.30   10.98
  -5  -3  16   52.73   11.97
   5  -3  16   52.83   11.80
   5   3  16   54.88   12.49
  -5   3  16   55.97   11.67
   5   3  17    9.11    7.01
  -5  -3 -17    3.87    5.84
  -5   3  17   14.77    7.76
  -5  -3  17   -3.78    5.90
   5  -3  17    9.70    5.38
   5   3  17    1.34    3.81
  -5   3  17    5.95    5.35
   5   3  18    2.94    4.85
  -5  -3 -18    3.01    3.71
  -5   3  18    4.41    4.11
  -5  -3  18   -4.48    2.95
   5  -3  18   14.94    8.37
   5   3  18    4.74    6.08
  -5   3  18    3.74    4.95
   5   3  19   47.59    9.22
  -5  -3 -19   13.40    8.33
  -5   3  19   29.18    9.54
  -5  -3  19   47.34   13.71
   5  -3  19   32.88    9.69
   5   3  19   31.71   11.13
  -5   3  19   40.08    9.16
   5   3  20   29.49    7.72
  -5  -3 -20   10.32    2.69
  -5   3  20   15.79    5.81
   5  -3  20   32.20   12.10
  -5  -3  20   43.75   15.30
   5   3  20   35.98   11.06
  -5   3  20   22.63    7.39
  -5   3  21   14.76    6.83
   5   3  21   10.48    8.47
  -5  -3 -21   21.40   10.06
  -5   3  21   19.24    9.56
   5  -3  21   21.09    9.59
  -5  -3  21    6.93    7.54
   5   3  21    8.18    3.52
   5  -3  21    9.20    3.45
  -5   3  22    6.32    5.30
   5   3  22    9.15    3.72
   5  -3  22    4.64    3.35
  -5  -3 -22    9.64    5.33
  -5   3  22    2.83    9.66
  -5  -3  22   14.53   10.01
   5   3  22    0.51    7.09
   5  -3  22   23.32   10.24
  -5   3  23   48.06   11.82
   5   3  23   37.23   11.48
   5  -3  23   43.71   11.41
  -5  -3 -23   54.39   16.06
  -5   3  23   40.19   12.69
  -5  -3  23   30.49   12.54
   5   3  23   54.33   14.10
   5  -3  23   35.92   13.24
   5   3  24  143.65   21.61
  -5   3  24  155.79   22.89
   5  -3  24  138.38   21.00
  -5   3  24  154.32   22.28
   5  -3  24  142.38   23.91
   5   3  24  128.11   21.18
  -5   3  25   25.53    6.69
   5   3  25   33.24   10.50
   5  -3  25   25.47   10.66
  -5   3  25   28.02   12.47
  -5  -3  25   11.35   10.01
   5   3  25    4.71    6.31
   5  -3  25   18.53    9.24
  -5   3  26    2.00    5.47
   5   3  26    1.63    4.77
  -5   3  26   10.32   11.03
   5  -3  26   -4.39    3.43
  -5  -3  26   -8.55   12.01
   5   3  26    0.76    4.81
   5  -3  26    4.97    8.18
  -5   3  27   69.27   16.13
   5   3  27   84.18   16.75
   5  -3  27  121.98   20.29
  -5   3  27  116.07   22.49
  -5  -3  27   98.49   21.63
   5   3  27   80.09   21.03
   5  -3  27  113.86   20.75
  -5   3  28   -1.46    5.55
   5   3  28    1.41    4.13
   5  -3  28    6.23    5.12
  -5   3  28    8.22    4.82
  -5  -3  28    7.72    7.31
   5   3  28    3.76    6.09
   5  -3  28   13.70   11.62
  -5   3  29   51.62   14.01
   5   3  29   40.83   12.96
   5  -3  29   58.45   16.16
  -5   3  29   59.97   16.90
  -5  -3  29   47.59   13.81
   5   3  29   24.18   14.04
   5  -3  29   21.35   14.19
  -5  -4   0    0.36    2.24
   5  -4   0   -1.59    2.37
  -5   4   0   -2.53    2.93
   5  -4   0   -0.35    2.38
  -5   4   1  343.93   25.85
  -5  -4   1  354.57   23.03
  -5  -4  -1  364.02   22.74
   5  -4   1  337.30   17.75
   5  -4  -1  380.05   19.81
  -5  -4   1  311.47   17.22
   5  -4   1  360.94   25.30
  -5  -4  -1  303.36   11.88
   5  -4  -1  328.43   24.10
  -5  -4   2   10.16    2.98
   5  -4   2    6.63    3.85
   5  -4  -2   -1.59    1.66
   5  -4   2    4.23    2.82
  -5  -4  -2    3.09    1.84
   5  -4  -2    5.07    3.77
  -5   4   2    3.16    6.41
  -5  -4   2    9.21    3.15
   5   4   2    5.61    1.38
   5  -4   3    6.50    3.64
  -5  -4   3    5.54    3.42
   5  -4   3    6.63    2.05
  -5  -4  -3    8.69    3.59
   5  -4  -3    9.52    4.60
  -5   4   3    0.36    2.69
   5  -4  -3   12.77    3.32
  -5  -4   3    7.92    3.17
   5   4   3    5.36    2.34
  -5  -4   4   99.45   12.74
   5  -4   4   78.44    8.08
   5  -4  -4   95.76   13.16
  -5  -4  -4   90.66   11.71
   5  -4   4   98.62   14.17
   5  -4  -4  104.07   11.55
  -5   4   4  137.85   16.39
  -5  -4   4  120.68   11.75
   5   4   4   97.51    9.19
   5  -4   5   42.00    6.09
  -5  -4   5   37.46    7.96
  -5  -4  -5   36.42    8.36
   5  -4  -5   26.94    7.50
  -5   4   5   51.07   10.20
   5  -4  -5   37.52    7.21
  -5  -4   5   43.47    7.57
   5  -4   5   28.46    7.55
   5   4   5   45.41    6.96
   5  -4   6  518.14   21.63
  -5  -4   6  555.28   30.08
   5  -4   6  588.27   33.19
  -5  -4  -6  466.62   27.99
  -5   4   6  533.88   33.74
   5  -4  -6  514.77   27.62
   5  -4  -6  514.93   30.43
  -5  -4   6  462.69   25.80
   5   4   6  427.56   22.10
   5  -4   7  557.10   24.34
  -5  -4   7  629.90   32.89
  -5  -4  -7  509.61   28.50
  -5   4   7  558.42   33.89
   5  -4  -7  589.92   30.65
  -5  -4   7  560.18   30.05
   5  -4  -7  587.58   33.14
   5   4   7  568.22   27.13
   5  -4   7  535.46   32.49
   5  -4   8  147.58   12.94
  -5  -4   8  175.56   18.14
  -5  -4  -8  169.47   16.85
  -5   4   8  148.43   18.08
   5  -4  -8  161.10   16.14
  -5  -4   8  227.50   19.51
   5  -4   8  177.88   19.04
   5   4   8  176.92   16.14
  -5  -4   9   47.46   10.11
   5   4   9   49.35    8.06
   5  -4   9   65.72   10.83
  -5  -4  -9   49.72    9.95
  -5   4   9   54.20   11.99
   5  -4  -9   52.72    8.92
  -5  -4   9   38.71    7.78
   5   4   9   39.99    6.62
   5  -4   9   50.59    7.74
  -5  -4  10   -2.76    5.20
   5   4  10    0.03    2.82
   5  -4  10   -1.29    3.52
  -5   4  10   -0.56    3.80
  -5   4  10   -2.53    2.61
  -5  -4  10    2.61    3.15
  -5  -4 -10   -0.20    3.00
   5   4  10   -2.54    3.44
  -5  -4  11    4.00    5.33
   5  -4  11    5.99    4.63
   5   4  11    9.54    4.36
  -5  -4 -11    8.73    5.31
  -5   4  11    3.08    5.43
  -5  -4  11    2.84    2.36
  -5   4  11    2.33    5.22
   5   4  11    3.80    2.73
   5   4  12  261.16   22.48
  -5   4  12  238.09   24.06
  -5  -4 -12  250.03   22.58
  -5  -4  12  204.63   21.46
  -5   4  12  203.12   20.63
   5   4  12  200.82   18.63
  -5  -4  12  188.91   20.16
   5  -4  13   14.90    7.67
   5   4  13   23.88    7.83
  -5  -4 -13   11.78    4.56
  -5   4  13   22.35    5.54
  -5  -4  13   14.05    7.64
  -5   4  13   18.87    6.35
   5   4  13   15.41    4.59
   5   4  14   84.85   14.07
  -5  -4 -14   94.70   15.43
  -5   4  14  110.25   17.00
   5  -4  14   80.61   14.64
  -5  -4  14   78.86   16.12
  -5   4  14   80.06   13.67
   5   4  14   75.99   11.62
   5  -4  15   30.68    7.69
   5   4  15   27.73    9.14
  -5  -4 -15   30.05    7.19
  -5   4  15    9.44    8.81
  -5  -4  15   25.19    9.35
  -5   4  15   37.39   11.53
   5   4  15   27.17    7.97
   5   4  16  413.66   31.00
  -5  -4 -16  313.82   27.83
   5  -4  16  318.33   28.14
  -5   4  16  331.88   30.30
  -5   4  16  315.16   28.34
   5   4  16  388.59   29.62
   5   4  17  151.67   19.33
  -5  -4 -17  171.64   20.90
   5  -4  17  191.71   21.66
  -5   4  17  183.88   23.68
  -5  -4  17  136.61   19.91
  -5   4  17  170.11   20.30
   5   4  17  139.57   18.96
   5   4  18   14.84    8.08
  -5  -4 -18   -3.59    7.80
  -5   4  18    3.04    5.66
  -5  -4  18   19.93    9.64
   5  -4  18   15.55    5.68
   5   4  18   -5.54    7.13
  -5   4  18    4.32    5.96
   5   4  19  108.19   17.35
   5  -4  19   80.02   16.40
  -5  -4 -19   56.51   13.76
  -5  -4  19   58.49   14.50
  -5   4  19   60.45   13.77
   5   4  19   76.62   14.18
  -5   4  19   57.08   11.93
   5   4  20   16.72    9.57
  -5  -4 -20   23.41    9.09
  -5   4  20   19.56   10.52
  -5  -4  20   34.49   12.22
   5  -4  20   19.48    8.36
   5   4  20   42.38   13.25
  -5   4  20   14.76    9.20
   5   4  21   20.94    9.43
  -5  -4 -21   19.81    8.53
  -5   4  21   22.83    9.50
   5  -4  21   20.35    7.82
  -5  -4  21   29.25    9.79
   5   4  21   12.33    4.02
  -5   4  21   20.76    9.46
   5   4  22    3.85    4.59
  -5  -4 -22   -5.17    4.52
  -5   4  22   25.91   11.38
   5  -4  22    3.98    3.87
  -5  -4  22   -1.14    6.20
   5   4  22    3.60    8.26
  -5   4  22    9.62   10.34
   5  -4  22    2.07    6.15
   5   4  23  533.89   40.72
   5  -4  23  568.61   42.50
  -5  -4 -23  588.32   44.96
  -5   4  23  545.48   43.08
   5   4  23  579.51   44.29
  -5   4  23  605.02   44.62
   5  -4  23  589.82   45.24
   5   4  24   -3.87    6.73
  -5  -4 -24   26.39   16.29
   5  -4  24   -7.39    8.85
  -5   4  24   -2.97    6.50
  -5  -4  24   -4.99    5.47
   5   4  24   10.35   11.18
   5  -4  24    3.08    5.39
  -5   4  24   -0.32    5.16
   5   4  25    3.41    3.27
   5  -4  25    5.56    4.27
  -5   4  25   17.80    7.12
  -5  -4  25   25.01   10.60
   5   4  25    6.82    8.15
   5  -4  25   29.94   10.24
  -5   4  25    8.63    9.91
   5   4  26   35.98   10.08
   5  -4  26   44.50   14.64
  -5   4  26   35.25   13.21
  -5  -4  26   31.47   13.31
   5   4  26   41.35   14.40
   5  -4  26   38.25   14.33
  -5   4  26   26.43    9.32
   5   4  27    4.63    6.05
   5  -4  27    2.28    6.98
  -5   4  27    4.99    5.07
  -5  -4  27   10.35   10.37
   5   4  27    6.38    7.64
   5  -4  27    2.41   12.16
  -5   4  27    2.06    6.73
   5   4  28    5.52    6.68
   5  -4  28    0.74    5.81
  -5   4  28    5.88    7.94
  -5  -4  28   -2.42   10.33
   5  -4  28   -0.57    8.72
  -5   4  28    5.79    3.64
   5   4  29   -3.34    5.53
  -5   4  29   -1.94    4.98
  -5  -4  29   -4.42   10.25
   5  -4  29    0.64    7.45
   5  -4  29    1.69    4.75
  -5   4  29   14.13   10.13
  -5  -5   0    0.08    3.65
   5  -5   0    2.34    1.83
  -5   5   0    9.26    5.25
   5  -5   0    1.02    2.88
  -5  -5   1  517.60   30.84
  -5  -5  -1  510.71   29.51
   5  -5   1  536.24   25.94
  -5  -5  -1  547.61   19.41
   5  -5  -1  578.20   27.88
  -5   5   1  554.01   34.06
   5  -5   1  522.99   32.63
   5  -5  -1  558.56   33.27
  -5  -5   2  299.22   22.54
   5  -5   2  296.42   19.39
  -5  -5  -2  317.10   23.46
   5  -5  -2  295.40   19.84
   5  -5   2  319.28   25.69
  -5   5   2  326.17   25.60
  -5  -5   2  293.94   15.36
   5  -5  -2  326.57   25.48
   5  -5   3   19.37    8.64
  -5  -5   3   11.50    4.20
   5  -5   3   12.72    4.94
  -5  -5  -3   14.82    5.64
   5  -5  -3    5.26    6.18
   5  -5  -3   16.01    4.78
  -5   5   3   15.29    7.68
  -5  -5   3   15.54    3.23
   5   5   3    9.02    3.36
   5  -5   4   33.35    9.29
  -5  -5   4   30.55    7.27
   5  -5   4   34.29    6.90
  -5  -5  -4   56.87   10.02
  -5  -5   4   47.93    7.12
  -5   5   4   57.22   12.29
   5  -5  -4   45.90    8.49
   5   5   4   38.22    6.33
   5  -5  -4   42.40    8.14
  -5  -5   5  130.51   15.17
   5  -5   5   83.81    9.82
   5  -5   5  107.25   14.96
  -5  -5  -5  110.01   14.07
   5  -5  -5  100.87   14.13
   5  -5  -5  114.33   14.25
  -5  -5   5   91.88   10.85
  -5   5   5  120.31   16.20
   5   5   5  109.58   11.34
  -5  -5   6  318.04   24.46
   5  -5   6  371.50   21.30
   5  -5   6  345.74   26.92
  -5  -5  -6  361.24   26.83
   5  -5  -6  380.75   27.83
   5  -5  -6  344.24   24.11
  -5   5   6  393.09   28.50
  -5  -5   6  280.05   19.42
   5   5   6  363.99   21.79
   5   5   6  316.81   15.80
   5  -5   7  272.31   18.70
  -5  -5   7  253.69   22.20
   5  -5   7  306.83   25.69
  -5  -5   7  300.56   20.76
  -5  -5  -7  253.32   22.70
   5  -5  -7  283.60   22.66
  -5   5   7  306.11   25.82
   5  -5  -7  280.40   24.54
   5   5   7  293.22   20.37
   5  -5   8  115.90   12.63
  -5  -5   8  108.96   14.84
  -5  -5  -8  149.21   18.20
  -5   5   8  104.65   15.33
   5  -5  -8  136.04   15.64
  -5  -5   8  105.53   13.74
   5   5   8  118.13   11.38
   5   5   8  152.89   15.08
   5  -5  -8  119.23   15.63
   5  -5   8  146.77   18.66
   5  -5   9   16.45    5.80
  -5  -5   9    5.53    4.37
   5   5   9   19.84    6.54
   5  -5   9   15.56    5.61
  -5  -5  -9   26.15    7.99
  -5   5   9   18.10    7.64
   5  -5  -9   13.95    7.36
  -5  -5   9   16.70    6.73
   5   5   9   14.91    3.96
   5  -5  10   20.44    6.20
  -5  -5  10    6.58    7.46
   5   5  10   18.51    5.23
   5  -5  10    7.57    6.43
  -5  -5 -10   11.90    6.78
  -5   5  10   19.43    4.69
   5  -5 -10    3.59    3.32
  -5  -5  10    9.67    3.27
   5   5  10   13.34    5.03
  -5  -5  11  103.90   15.83
  -5  -5 -11   87.99   14.11
  -5   5  11   88.89   14.47
  -5  -5  11  110.08   15.66
   5  -5 -11   83.30   12.62
   5  -5  11   96.90   15.63
   5   5  11   98.10   13.98
   5   5  11   54.16    9.12
   5  -5  11   88.94   11.50
  -5  -5  12  401.16   30.46
  -5   5  12  314.75   28.18
  -5  -5 -12  370.11   29.22
   5  -5 -12  363.84   28.96
  -5  -5  12  377.44   29.50
  -5   5  12  372.98   29.53
   5  -5  12  334.31   29.58
   5   5  12  277.42   21.45
   5   5  12  338.31   25.96
  -5  -5  13    9.39    7.05
  -5  -5 -13    3.16    3.66
   5   5  13   11.00    7.12
   5  -5  13   -3.21    3.30
  -5   5  13    5.80    4.68
   5  -5 -13    8.97    3.91
  -5  -5  13    2.01    4.00
  -5   5  13   -1.96    3.81
   5   5  13    3.69    3.40
  -5  -5  14   15.65    5.56
   5  -5  14   19.48    6.27
   5   5  14   17.01    5.98
  -5  -5 -14    5.79    5.46
  -5   5  14    7.60    6.27
  -5  -5  14   18.07    5.78
  -5   5  14   14.62    6.30
   5   5  14   12.71    7.84
   5  -5  15   13.59    6.68
   5   5  15   21.16    5.59
  -5  -5 -15   18.41    8.55
  -5   5  15   17.56    4.38
  -5  -5  15   15.10    8.75
  -5   5  15   13.91    6.73
   5   5  15    6.96    3.52
   5  -5  16   61.23   11.70
   5   5  16   45.57   10.18
  -5  -5 -16   79.37   13.54
  -5   5  16   70.51   14.67
  -5  -5  16   40.31   13.57
  -5   5  16   54.74   12.42
   5   5  16   67.40   13.30
   5   5  17    5.24    3.02
  -5  -5 -17    5.08    5.19
  -5   5  17    8.53    9.66
  -5  -5  17    7.47    5.89
  -5   5  17    8.26    7.06
   5   5  17   -2.74    7.40
   5  -5  17   -0.11    2.87
   5   5  18   12.33    7.22
  -5  -5 -18   13.42    9.16
  -5   5  18   30.00   10.58
  -5  -5  18   10.03    8.56
   5   5  18    9.31    3.38
  -5   5  18   18.61    6.88
   5  -5  18    6.07    5.07
   5   5  19    9.80    4.90
  -5  -5 -19   12.89    8.42
  -5   5  19   19.06   10.84
  -5  -5  19    4.90    6.04
   5   5  19    9.90    7.72
   5  -5  19   -6.83    5.04
  -5   5  19    3.12    3.22
   5   5  20    5.13    5.53
  -5  -5 -20    8.24    5.51
  -5   5  20    2.92    6.02
  -5  -5  20   -8.13    9.47
   5  -5  20    4.53    4.26
   5   5  20   -6.84    5.48
  -5   5  20   -3.80    4.00
   5  -5  21  145.45   20.66
  -5  -5 -21  144.82   21.22
  -5   5  21  164.49   23.89
  -5  -5  21  153.00   24.32
  -5   5  21  124.60   19.76
   5   5  21  115.98   19.16
   5   5  22    5.83    3.99
  -5  -5 -22   16.72    9.16
  -5   5  22   17.19    8.97
  -5  -5  22   10.69    9.74
   5  -5  22   20.54    8.23
  -5   5  22   33.21   11.18
   5  -5  22   24.07   14.97
   5   5  23   82.73   16.95
   5  -5  23   82.17   17.77
  -5  -5 -23   65.25   14.95
  -5   5  23   82.47   16.65
  -5  -5  23   57.37   14.42
  -5   5  23   76.55   15.85
   5  -5  23   99.21   16.42
   5  -5  24  144.94   22.27
  -5  -5 -24  113.77   21.26
  -5  -5  24  139.98   25.36
  -5   5  24  111.18   19.82
  -5   5  24  106.59   18.94
   5  -5  24  143.68   23.28
   5   5  24  125.94   20.83
   5   5  25   -6.79    6.73
  -5  -5 -25    7.88    5.73
  -5   5  25   -7.85    7.69
   5  -5  25   -4.19    8.79
  -5  -5  25  -12.05   10.31
  -5   5  25    6.37    8.51
   5  -5  25   14.89   11.72
   5   5  26   27.46    8.38
   5  -5  26    9.17    5.54
  -5   5  26   15.19    9.17
  -5  -5  26   16.99   11.40
  -5   5  26   42.53   13.13
   5  -5  26   35.17   11.07
   5   5  27   -9.73    8.26
   5  -5  27    0.34    6.06
  -5   5  27  -10.02    4.03
  -5  -5  27  -10.31    9.94
  -5   5  27   -4.63    7.60
   5  -5  27    5.58    4.95
   5   5  28   44.72   13.99
   5  -5  28   40.98   14.51
  -5   5  28   48.09   16.33
  -5  -5  28   54.53   15.94
   5  -5  28   57.08   17.08
  -5   5  28   64.91   14.24
  -5  -6   0    3.72    4.99
   5  -6   0   -1.31    2.14
   5  -6   0   -0.84    4.40
  -5  -6   1  729.36   38.73
  -5  -6  -1  709.05   38.85
   5  -6   1  668.82   32.71
   5  -6  -1  666.22   32.81
   5  -6   1  717.82   39.64
  -5   6   1  716.81   39.78
   5  -6  -1  710.79   39.23
  -5   6   2  363.16   28.25
  -5  -6   2  355.49   26.40
   5  -6   2  332.50   22.61
  -5  -6  -2  390.72   28.38
   5  -6  -2  383.21   25.24
  -5  -6  -2  315.01   19.14
   5  -6   2  247.69   23.71
   5  -6  -2  291.33   24.66
   5  -6  -3  458.72   31.56
  -5   6   3  505.55   33.42
  -5  -6   3  474.71   31.13
   5  -6   3  453.47   26.41
  -5  -6  -3  469.51   30.51
   5  -6  -3  429.31   27.45
   5  -6   3  441.54   31.40
  -5  -6   4  127.93   16.08
   5  -6   4  116.28   13.03
   5  -6  -4  132.04   17.47
  -5  -6  -4  148.62   17.87
   5  -6   4  131.74   18.23
   5  -6  -4  132.77   15.29
  -5   6   4  148.69   18.99
   5   6   4  125.35   13.04
  -5  -6   5  215.66   21.22
   5  -6   5  232.02   18.46
   5  -6  -5  194.33   20.50
  -5  -6  -5  206.56   20.50
   5  -6   5  209.14   21.96
   5  -6  -5  220.93   20.78
  -5   6   5  232.61   23.08
   5   6   5  232.28   17.59
  -5  -6   6   37.50   10.32
   5  -6   6   15.96    4.90
  -5  -6  -6   20.75    7.01
   5  -6  -6   48.23   11.29
   5  -6  -6   23.41    6.37
   5  -6   6   23.22    6.08
   5   6   6   31.46    6.76
  -5   6   6   14.55    6.19
   5  -6  -7   32.99    9.19
  -5  -6   7   26.82    7.34
   5  -6   7   23.46    6.79
  -5  -6  -7   31.64    8.86
  -5   6   7   41.34    9.94
  -5  -6   7   52.55   10.80
   5  -6  -7   32.72    9.43
   5  -6   7   36.64   10.23
   5   6   7   31.84    7.42
   5  -6   8   49.00    9.77
  -5  -6   8   61.86   11.82
   5  -6  -8   65.73   11.85
  -5  -6  -8   69.31   12.69
  -5   6   8   40.36    9.71
   5  -6   8   51.68   11.90
  -5  -6   8   32.66    9.07
   5  -6  -8   61.81   12.47
   5   6   8   65.95   10.62
   5  -6   9  353.08   24.85
  -5  -6   9  358.58   28.99
  -5  -6  -9  307.65   26.97
   5  -6  -9  405.17   29.80
  -5   6   9  361.25   30.00
  -5  -6   9  267.40   22.65
   5   6   9  398.49   27.02
   5  -6  -9  416.77   32.12
   5  -6   9  429.12   32.04
   5   6  10   -1.26    3.90
   5  -6  10    4.09    1.95
  -5  -6  10    0.27    2.77
   5  -6  10    3.27    3.48
  -5  -6 -10    6.29    3.54
  -5   6  10   -3.55    3.58
   5  -6 -10    0.85    5.26
  -5  -6  10    2.37    3.78
   5   6  11   44.92    9.56
   5  -6  11   52.26   10.64
  -5  -6  11   49.26   11.88
  -5  -6 -11   65.17   13.89
   5  -6  11   47.23   10.37
  -5   6  11   39.79    9.83
   5  -6 -11   46.00   10.42
  -5  -6  11   33.66    7.65
   5  -6  12  312.15   24.50
  -5  -6  12  230.03   23.76
  -5  -6 -12  235.30   24.68
   5  -6 -12  241.20   24.84
  -5   6  12  275.13   25.98
  -5  -6  12  245.93   23.97
   5  -6  12  267.12   25.46
   5   6  12  237.74   22.40
   5  -6  13   59.43   11.25
  -5  -6  13   64.11   12.62
   5  -6  13   48.58   12.07
  -5  -6 -13   72.45   13.17
  -5   6  13   86.22   15.21
  -5  -6  13   99.56   16.73
   5  -6 -13   83.71   15.18
  -5   6  13   85.08   14.26
   5   6  13   83.43   14.57
  -5  -6  14   -0.46    2.82
   5   6  14    9.63    3.34
   5  -6  14    4.09    4.10
  -5  -6 -14   11.10    9.03
  -5   6  14   11.52    6.43
   5  -6 -14   13.17    5.60
  -5  -6  14    4.21    5.93
  -5   6  14    4.41    2.55
  -5  -6  15  291.99   27.73
  -5  -6 -15  294.64   29.61
   5  -6 -15  309.92   29.23
  -5   6  15  311.18   29.21
  -5  -6  15  280.48   28.44
   5  -6  15  289.72   27.33
  -5   6  15  305.31   28.80
   5   6  15  280.21   26.54
   5  -6  16   -5.74    5.15
   5   6  16    9.81    4.94
  -5  -6 -16    1.10    3.88
  -5   6  16    8.31    6.57
   5  -6 -16    7.53    8.42
  -5  -6  16    4.49    7.72
  -5   6  16    7.65    4.97
  -5  -6  16    8.43    6.05
   5  -6  17    9.93    2.81
   5   6  17   -0.32    5.95
  -5  -6 -17    2.41    7.08
  -5   6  17    8.67    7.03
   5  -6 -17   15.55    7.56
  -5  -6  17    7.18    5.87
  -5   6  17    8.52    4.66
   5  -6  18   -4.01    5.32
   5   6  18    2.14    3.52
  -5  -6 -18    2.06    5.40
  -5   6  18   -0.38    3.45
   5  -6 -18    0.83    4.55
  -5  -6  18   10.07    7.50
  -5   6  18    1.84    5.28
   5   6  19   39.20   10.98
  -5  -6 -19   25.77   12.01
  -5   6  19   22.09   11.75
   5  -6 -19   25.83    8.46
  -5  -6  19   26.77   11.99
  -5   6  19   36.03   10.48
   5  -6  19   29.57   10.25
  -5  -6 -20  357.86   33.59
   5  -6  20  378.33   33.20
  -5   6  20  315.45   32.67
   5  -6 -20  285.95   30.52
  -5  -6  20  223.27   29.50
  -5   6  20  318.29   31.38
   5   6  20  332.16   31.60
   5   6  21    5.02    5.85
  -5  -6 -21   -6.19    7.56
  -5   6  21   -7.85    9.45
   5  -6 -21   -2.40    6.40
  -5  -6  21    4.46    7.03
   5  -6  21   -1.46    3.80
  -5   6  21   12.42    9.77
  -5  -6 -22  286.58   31.72
   5  -6  22  328.53   32.27
  -5   6  22  314.55   32.87
   5  -6 -22  255.29   30.29
  -5   6  22  334.17   32.67
   5   6  22  347.84   32.82
   5   6  23   41.05    9.42
  -5  -6 -23   14.48    9.84
  -5   6  23   20.05    7.00
   5  -6 -23   28.95    9.90
  -5  -6  23   12.60   10.02
   5  -6  23   26.62   10.38
  -5   6  23   37.53   10.38
   5  -6  23   38.40   13.59
   5   6  24   97.54   18.74
  -5  -6 -24   65.64   16.73
  -5   6  24   77.07   16.67
   5  -6 -24   68.35   14.83
   5  -6  24   81.16   16.88
  -5  -6  24   59.75   18.20
  -5   6  24   57.45   11.86
   5  -6  24   62.30   14.40
   5   6  25    7.80    4.43
  -5   6  25   -0.32    5.79
   5  -6 -25   13.21    6.65
   5  -6  25   20.65   11.73
  -5  -6  25   22.53   12.17
  -5   6  25    5.35    4.94
   5  -6  25   10.71   12.32
   5   6  26    9.95    6.36
   5  -6  26    5.58    5.44
   5  -6 -26    8.00    8.14
  -5  -6  26    6.00    7.24
  -5   6  26   -6.72    4.54
   5  -6  26    8.07    5.08
   5   6  27   68.71   15.14
  -5   6  27   55.96   15.48
   5  -6  27  103.19   19.47
   5  -6 -27   34.71   16.21
  -5  -6  27   44.63   13.60
  -5   6  27   76.01   17.05
   5  -6  27   47.82   11.99
  -5  -7   0    2.32    3.70
   5  -7   0    1.60    5.63
   5  -7   0    0.99    6.26
   5  -7  -1   61.64   12.39
  -5  -7   1   60.45   12.26
  -5  -7  -1   54.15   12.74
   5  -7   1   45.61    9.92
   5  -7  -1   52.77   10.17
  -5   7   1   33.02    7.91
   5  -7   1   45.29   11.00
  -5  -7   2  719.93   41.26
   5  -7   2  761.24   37.53
  -5  -7  -2  774.05   42.08
   5  -7  -2  724.72   37.69
  -5   7   2  757.49   42.18
   5  -7   2  802.75   44.39
   5  -7  -2  784.90   43.36
  -5  -7   3  237.89   23.15
   5  -7   3  259.76   22.41
  -5  -7  -3  258.91   24.49
   5  -7  -3  312.50   24.98
   5  -7   3  274.32   26.02
  -5   7   3  248.42   24.43
   5  -7  -3  237.33   24.41
   5  -7  -4  278.63   26.20
  -5  -7   4  279.13   25.88
   5  -7   4  261.93   21.88
  -5  -7  -4  264.89   24.17
   5  -7  -4  239.66   22.53
   5  -7   4  277.33   26.18
  -5   7   4  301.07   26.74
  -5  -7   5   94.42   15.19
   5  -7   5   76.59   11.66
  -5  -7  -5   83.71   15.43
   5  -7   5   84.03   15.18
   5  -7  -5   87.79   13.02
  -5   7   5   87.98   16.08
   5   7   5   82.35   11.27
   5  -7  -5   72.28   12.59
  -5  -7   6   -3.04    3.43
   5  -7   6    4.34    3.33
   5  -7  -6    1.63    4.04
  -5  -7  -6    1.08    2.75
   5  -7  -6    2.61    5.43
  -5   7   6    2.83    3.83
   5   7   6   -2.13    3.70
   5  -7   6    1.32    5.87
  -5  -7   7   -0.52    3.84
   5  -7   7   -0.03    3.24
  -5  -7  -7   -4.21    3.97
  -5   7   7   -0.62    4.50
   5  -7  -7    1.17    5.32
   5  -7  -7   -0.37    2.58
   5  -7   7   -1.48    5.58
   5   7   7    1.91    2.34
  -5  -7   8  122.02   17.93
   5  -7   8  102.42   13.89
   5  -7   8  120.00   17.42
  -5  -7  -8  100.30   16.68
   5  -7  -8  150.32   20.10
   5  -7  -8  120.37   18.35
  -5   7   8  121.92   16.74
   5   7   8  122.05   15.17
  -5  -7   9  247.56   25.23
   5  -7   9  246.75   22.07
   5  -7   9  262.06   25.73
  -5  -7  -9  262.62   26.29
   5  -7  -9  304.56   26.96
  -5   7   9  228.65   23.96
   5  -7  -9  302.71   27.34
   5   7   9  254.66   22.77
   5  -7  10   -3.80    5.82
  -5  -7  10   -3.23    4.22
  -5  -7 -10   -2.36    5.28
  -5   7  10   -1.36    3.16
   5  -7  10    6.17    9.03
   5  -7 -10   -2.42    5.15
   5  -7 -10    1.26    4.93
   5   7  10    4.32    6.29
   5  -7  11  125.82   16.95
  -5  -7  11  114.52   17.68
  -5  -7 -11  134.68   19.01
   5  -7 -11  117.18   17.28
  -5   7  11  120.07   18.49
   5   7  11   90.29   14.12
   5  -7  11  110.51   16.84
   5  -7  12   39.50   10.74
  -5  -7  12   57.26   12.78
   5  -7  12   44.56   10.28
  -5  -7 -12   44.63    9.42
  -5   7  12   57.32   12.47
   5  -7 -12   45.59   10.47
   5   7  12   83.44   14.85
   5  -7  13  167.50   18.60
  -5  -7  13  117.63   18.28
  -5  -7 -13  153.95   21.21
   5  -7 -13  155.36   19.53
  -5   7  13  123.89   18.87
   5   7  13  156.85   18.83
   5  -7  13  180.67   21.64
  -5  -7  14  113.09   17.99
   5  -7  14  103.05   14.98
  -5  -7 -14  104.00   18.88
   5  -7 -14   89.08   17.06
  -5   7  14   98.82   17.29
   5  -7  14  104.76   16.84
   5   7  14  100.88   17.08
   5   7  15    8.07    4.57
  -5  -7  15   25.82   10.44
   5  -7  15   13.49    8.50
  -5  -7 -15    6.84    3.30
  -5   7  15    7.45    5.68
   5  -7 -15   13.39    5.57
  -5   7  15   12.90    5.82
   5  -7  15   16.01    5.98
  -5  -7  16   24.68    8.73
   5   7  16   41.99   12.00
   5  -7  16   44.82   11.99
  -5  -7 -16   22.59    6.72
  -5   7  16   45.42    9.52
   5  -7 -16   22.77    9.74
  -5  -7  16   11.55    5.79
  -5   7  16   44.18   11.65
  -5  -7  17   -6.10    5.77
   5   7  17    0.09    6.55
   5  -7  17    0.39    5.52
  -5  -7 -17   16.06   10.86
  -5   7  17    7.76    4.91
   5  -7 -17    2.88    4.26
  -5   7  17    1.42    3.44
   5  -7  18    2.54    4.61
   5   7  18   -2.92    6.41
  -5  -7 -18    7.95    5.51
  -5   7  18    4.83    9.39
   5  -7 -18    8.14   10.42
  -5  -7  18   20.04   13.48
  -5   7  18    1.15    4.62
  -5  -7  18   13.83    3.72
   5  -7  19   26.44   10.22
   5   7  19    2.00    4.72
  -5  -7 -19   19.32    7.47
  -5   7  19    8.63    6.84
   5  -7 -19   16.58   11.23
  -5   7  19   15.35    7.20
   5   7  20    1.54    4.12
  -5  -7 -20    1.51    4.16
  -5   7  20    0.13    5.65
   5  -7 -20    3.07    4.04
  -5   7  20   -4.81    4.22
   5  -7  20   -3.31    8.74
   5   7  21   14.77   11.40
  -5  -7 -21   14.97   10.74
  -5   7  21   23.79    9.36
   5  -7 -21    4.94    5.93
  -5  -7  21   31.83   15.76
  -5   7  21   19.84   10.70
   5  -7  21   10.14    5.87
   5   7  22    7.21    6.40
  -5  -7 -22    9.76    4.84
  -5   7  22    7.43    7.73
   5  -7 -22    4.95    6.00
  -5  -7  22   18.98   13.12
  -5   7  22   -0.71    3.48
   5  -7  22   -5.38    6.14
   5   7  23   18.77    8.98
  -5  -7 -23   20.16    9.48
  -5   7  23   10.12    4.99
   5  -7 -23    6.18    7.84
  -5  -7  23   23.02   16.36
   5  -7  23   20.55   10.40
  -5   7  23   14.33    5.59
   5  -7  23   24.14    5.30
   5   7  24   23.13    9.76
  -5  -7 -24    6.38    4.75
  -5   7  24   20.41   10.69
   5  -7 -24   36.32   13.24
  -5  -7  24   13.10    9.11
   5  -7  24   32.27   12.07
  -5   7  24   24.19    9.06
   5  -7  24   13.04    8.21
   5   7  25   37.55    8.97
  -5  -7 -25   68.70   22.01
  -5   7  25   26.88    9.87
   5  -7 -25   47.69   15.53
  -5  -7  25   24.88   12.29
   5  -7  25   38.58   13.01
  -5   7  25   24.38   10.83
   5  -7  25   35.40    7.95
   5   7  26   23.36   11.91
  -5   7  26    8.59    4.30
   5  -7 -26    0.33    7.42
   5  -7  26    1.32    3.52
  -5   7  26   15.04    9.08
   5  -7  26   12.02   10.70
  -5  -8   0   -0.55    3.74
   5  -8   0    3.76    3.33
   5  -8   0   -1.34    5.44
  -5  -8   1 1017.03   50.89
  -5  -8  -1 1001.60   50.77
   5  -8   1  969.46   45.63
   5  -8  -1  962.77   47.53
   5  -8   1 1004.69   51.87
   5  -8  -1  859.65   47.16
  -5  -8   2  142.33   18.81
   5  -8   2  151.93   19.13
  -5  -8  -2  166.23   20.15
   5  -8  -2  162.62   19.42
  -5   8   2  156.13   19.53
   5  -8   2  146.58   20.23
   5  -8  -2  137.14   19.11
  -5   8   3    6.17    3.97
  -5  -8   3   18.05    9.88
   5  -8   3    5.86    3.46
   5  -8   3    6.40    4.00
   5  -8  -3    3.30    6.05
  -5  -8  -3    7.17    4.47
   5  -8  -3    4.39    3.83
   5  -8   4   55.77   13.69
  -5  -8   4   53.79   11.55
   5  -8   4   50.94   10.92
  -5  -8  -4   56.36   12.86
   5  -8  -4   37.80    8.00
   5  -8  -4   44.24   11.64
  -5   8   4   35.63   10.41
  -5  -8   5 1679.81   65.83
   5  -8   5 1653.17   60.18
   5  -8  -5 1739.07   68.11
  -5  -8  -5 1735.06   69.10
   5  -8  -5 1854.36   66.11
   5  -8   5 1720.62   68.57
  -5   8   5 1770.01   68.02
   5  -8  -6   59.16   13.59
  -5  -8   6   85.25   14.77
   5  -8   6   59.58   11.29
   5  -8   6   82.55   15.23
  -5  -8  -6   65.74   13.60
   5  -8  -6   65.18   12.87
  -5   8   6   70.40   14.80
  -5  -8   7    5.80    9.37
   5  -8   7    8.80    5.79
   5  -8  -7    0.81    2.44
  -5  -8  -7    2.51    5.34
   5  -8  -7    2.31    5.86
  -5   8   7    5.73    6.05
   5   8   7    5.03    2.61
   5  -8   7    9.38    3.12
  -5  -8   8   42.06   11.24
   5  -8   8   21.95    6.84
  -5  -8  -8   40.89   12.22
   5  -8  -8   40.41   11.36
  -5   8   8   37.17   10.45
   5  -8  -8   52.37   12.73
   5  -8   8   16.59    6.40
   5   8   8   44.54    9.34
  -5  -8   9  840.22   47.17
   5  -8   9  812.98   42.36
   5  -8   9  899.07   50.51
  -5  -8  -9  933.74   50.86
   5  -8  -9  957.40   51.30
   5  -8  -9  868.44   49.42
   5   8   9  845.13   43.33
  -5   8   9  914.47   49.00
   5  -8  10  136.15   19.95
  -5  -8  10  119.13   17.31
   5  -8  10  109.64   15.65
  -5  -8 -10  130.14   19.15
   5  -8 -10  162.15   20.71
  -5   8  10  164.78   21.23
   5  -8 -10  124.42   18.66
   5   8  10  116.90   16.16
   5  -8  11   52.04   12.74
  -5  -8  11   58.11   12.87
   5  -8 -11   52.84   11.84
   5  -8  11   58.48   13.21
  -5  -8 -11   67.31   15.77
  -5   8  11   65.36   13.89
   5  -8 -11   62.76   13.10
   5   8  11   64.44   12.66
   5  -8 -12   28.07    8.74
   5  -8  12   42.62   11.19
  -5  -8  12   34.66   10.21
   5  -8  12   35.34    9.05
  -5  -8 -12   46.08   12.79
  -5   8  12   53.58   13.60
   5  -8 -12   66.23   12.81
   5   8  12   45.30   11.32
   5  -8  13  380.19   30.98
  -5  -8  13  414.80   35.00
  -5  -8 -13  382.67   34.00
   5  -8 -13  349.96   31.34
  -5   8  13  414.68   34.02
   5   8  13  384.79   31.69
   5  -8  13  421.13   34.62
   5  -8  14   -2.63    5.49
  -5  -8  14   10.01    9.36
   5  -8  14    5.11    3.95
  -5   8  14    0.87    6.56
   5  -8 -14   18.97    9.53
  -5  -8 -14    0.85    7.13
   5   8  14    3.60    6.85
   5  -8  15   20.72    9.28
  -5  -8  15    9.93    7.30
   5  -8  15   23.48    9.03
  -5  -8 -15   20.73    9.32
  -5   8  15    2.07    4.63
   5  -8 -15   21.79   11.95
   5   8  15   18.82    7.66
   5  -8  16   10.89    8.45
  -5  -8  16   13.05    8.90
   5  -8  16    6.11    6.20
  -5  -8 -16   18.47    8.41
  -5   8  16   -1.51    3.52
   5  -8 -16    0.20    5.30
   5   8  16    0.73    6.43
  -5  -8  17  247.94   27.41
  -5  -8 -17  292.10   31.51
   5  -8 -17  253.94   30.32
  -5   8  17  284.89   30.02
   5  -8  17  300.74   30.41
   5   8  17  363.56   32.89
   5  -8  17  230.14   24.74
   5   8  18   -5.04    3.12
  -5  -8  18    9.33    6.54
   5  -8  18    8.19    6.32
  -5  -8 -18    4.32    3.89
  -5   8  18    1.03    5.54
   5  -8 -18   -3.48    8.65
  -5   8  18   -4.39    6.65
  -5  -8 -19  224.14   28.25
  -5   8  19  199.36   25.79
   5  -8  19  222.32   26.68
   5  -8 -19  228.31   27.86
  -5   8  19  202.37   25.89
   5   8  19  166.30   23.31
  -5  -8  19  170.14   23.26
   5  -8  20   11.96    9.04
   5   8  20   14.41    8.48
  -5   8  20    3.56    4.47
  -5  -8 -20   28.82   12.90
   5  -8 -20    7.46    7.91
  -5   8  20    8.47    2.93
   5   8  21   70.58   15.96
  -5  -8 -21   63.92   16.83
  -5   8  21   51.18   12.59
   5  -8 -21   70.71   16.16
  -5   8  21   86.50   17.38
   5  -8  21   82.80   15.95
   5   8  22    2.45    4.47
  -5  -8 -22    2.43    6.48
  -5   8  22   27.42   11.46
   5  -8 -22   22.03   11.45
  -5   8  22   18.80    8.87
   5  -8  22   10.69    6.75
  -5   8  23  187.35   26.62
  -5  -8 -23  154.66   24.29
   5  -8  23  182.13   26.11
   5  -8 -23  186.53   26.65
  -5   8  23  183.58   26.02
   5   8  23  187.29   25.68
   5  -8  23  170.33   26.39
   5   8  24   10.10    8.96
  -5  -8 -24    3.71    8.53
  -5   8  24   24.20   12.16
   5  -8 -24   -4.32    6.73
  -5   8  24    9.84    8.51
   5  -8  24    7.74    2.94
   5  -8  24    9.03    5.66
   5   8  25    7.86    8.47
  -5   8  25    6.37    6.58
   5  -8 -25    4.19    7.09
  -5  -8 -25   16.46   14.41
   5  -8  25   -3.00    5.17
  -5   8  25    0.41    5.40
   5  -8  25    5.65    7.82
  -5  -9   0    1.88    5.38
   5  -9   0   -2.94    3.55
   5  -9   0   -0.76    4.39
  -5  -9   1  512.70   37.83
  -5  -9  -1  437.12   34.76
   5  -9   1  491.11   35.41
   5  -9  -1  467.83   35.06
   5  -9   1  446.44   35.68
   5  -9  -1  497.26   38.11
   5  -9  -2   11.30    4.94
  -5  -9   2    2.40    3.08
   5  -9   2   15.83    8.81
  -5  -9  -2   17.52    7.56
   5  -9  -2   18.04    7.13
   5  -9   2    8.17    5.61
  -5  -9   3    7.16    6.10
   5  -9  -3   17.12    7.36
   5  -9   3    9.84    9.27
   5  -9   3    2.33    3.82
  -5  -9  -3   10.57    6.39
   5  -9  -3   11.27    5.49
  -5   9   3    0.87    5.06
   5  -9   4   54.82   13.83
  -5  -9   4   53.30   13.86
   5  -9   4   73.34   14.61
  -5  -9  -4   44.81    9.99
   5  -9  -4   65.28   13.60
   5  -9  -4   59.73   14.80
  -5   9   4   54.60   12.86
   5  -9  -5  135.68   19.83
  -5  -9   5  107.70   17.10
   5  -9   5  129.12   18.80
   5  -9   5  130.73   20.75
  -5  -9  -5   93.94   16.33
   5  -9  -5   78.80   15.13
  -5   9   5  146.96   20.60
  -5  -9   6  243.52   25.83
   5  -9   6  210.98   23.15
   5  -9  -6  268.66   27.68
  -5  -9  -6  248.56   27.88
   5  -9   6  260.55   27.94
   5  -9  -6  225.99   24.68
  -5   9   6  252.98   26.68
   5  -9  -7   -0.96    4.31
  -5  -9   7    4.73    5.51
   5  -9   7    6.07    3.49
  -5  -9  -7    8.72   10.27
   5  -9  -7    4.64    5.11
  -5   9   7   -3.69    6.00
   5  -9   7   -1.28    3.82
  -5  -9   8   38.21    8.98
   5  -9   8   23.22    9.41
   5  -9  -8   26.90    9.14
  -5  -9  -8   48.22   12.21
   5  -9  -8   38.62   12.06
  -5   9   8   32.36   11.71
   5  -9   8   24.11    9.63
  -5  -9   9   98.18   17.04
   5  -9   9   71.41   14.61
   5  -9  -9   69.85   14.73
  -5  -9  -9   76.12   16.86
  -5   9   9  102.41   17.29
   5  -9  -9   90.63   15.84
   5  -9   9   53.12   12.73
   5   9   9   84.39   15.20
  -5  -9  10   15.63    6.25
   5  -9  10    4.95    4.74
  -5  -9 -10   24.19   12.53
   5  -9 -10    6.19    8.97
  -5   9  10   13.75    7.22
   5  -9  10   11.22    2.85
   5   9  10   28.76   10.16
   5  -9 -10   12.37    7.11
   5  -9  11   45.06   11.28
  -5  -9  11   86.45   15.99
   5  -9 -11   49.33   14.03
  -5  -9 -11   78.68   17.47
   5  -9  11   66.75   14.59
   5  -9 -11   61.83   15.37
  -5   9  11   45.24   11.36
   5   9  11   68.17   13.08
   5  -9  12  158.24   21.28
  -5  -9  12  122.50   19.05
  -5  -9 -12  165.06   23.06
   5  -9 -12  149.14   21.45
  -5   9  12  142.82   20.63
   5  -9 -12  148.50   21.01
   5   9  12  173.77   21.49
   5  -9  12  144.43   20.10
   5  -9  13    9.33    6.97
  -5  -9  13   -6.23    7.02
   5  -9  13   -6.11    5.48
  -5  -9 -13    8.64    8.66
  -5   9  13   -1.60    9.39
   5  -9 -13   -4.20    8.15
   5  -9 -13    1.05    5.39
   5   9  13    5.31    5.01
   5  -9  14   -4.00    7.79
  -5  -9  14    6.71    3.15
   5  -9  14   15.93    8.51
  -5  -9 -14    5.29    5.86
   5  -9 -14    0.59    6.51
  -5   9  14   17.55    7.59
   5  -9 -14   -1.83    5.77
   5   9  14    5.29    4.06
  -5  -9  15  102.91   18.74
   5  -9  15   72.65   13.96
   5  -9  15   83.32   16.39
  -5  -9 -15   72.39   14.02
  -5   9  15   68.29   15.71
   5  -9 -15   62.81   14.56
   5   9  15   92.38   15.88
   5  -9  16   32.98    8.66
  -5  -9  16   46.50   13.62
  -5  -9 -16   40.07   12.91
  -5   9  16   70.01   16.37
   5  -9 -16   75.46   17.17
   5  -9  16   85.10   17.43
   5   9  16   61.49   13.08
  -5  -9  17   31.59   10.94
   5  -9  17   32.17   10.65
  -5  -9 -17   50.52   14.10
  -5   9  17   27.37    9.93
   5  -9 -17   44.29   11.34
   5   9  17   31.27   12.38
  -5  -9  18   -7.53    6.38
   5  -9  18    9.21    7.88
  -5  -9 -18    4.96    6.46
  -5   9  18   -1.18    6.42
   5  -9 -18   -4.84    4.84
   5   9  18    1.67    4.94
  -5  -9  19   10.11    7.48
   5  -9  19   -2.25    3.87
  -5  -9 -19    2.35    8.62
  -5   9  19   20.32   10.57
   5  -9 -19   -6.58    7.16
   5   9  19   12.69    7.68
   5  -9  20   47.28   11.81
  -5  -9 -20   35.69   10.29
  -5   9  20   49.12   13.24
   5  -9 -20   41.87   12.07
   5   9  20   41.79   13.14
  -5  -9  20   47.10   12.34
   5  -9  21    7.12    7.47
  -5  -9 -21    8.53   12.31
  -5   9  21   -5.43    7.11
   5  -9 -21    4.72    6.50
  -5   9  21   10.17    8.15
   5   9  21    9.58    8.26
  -5  -9 -22   -1.25    4.12
  -5   9  22   12.14   10.45
   5  -9 -22   -2.16    8.46
  -5   9  22   -6.09    6.54
   5  -9  22    0.74    3.86
   5   9  22    7.44    6.30
  -5  -9 -23   18.53    5.88
  -5   9  23    4.10    8.97
   5  -9 -23   -5.03   10.56
  -5   9  23   -2.43    4.03
   5  -9  23   -4.28    8.45
   5   9  23    8.07    6.96
   5  -9  23   -1.65    3.76
  -5  -9 -24   -3.89    5.99
  -5   9  24   -9.97   10.59
   5  -9 -24   10.73    7.87
  -5   9  24   11.70    8.72
   5  -9  24   -4.47    3.72
   5  -9  24    6.36    8.54
   5   9  24   -2.01    6.50
  -5 -10   0   -0.33    5.51
   5 -10   0    7.11    5.77
   5 -10   0    2.30    6.76
  -5 -10   1  124.10   20.42
  -5 -10  -1  109.00   19.10
   5 -10   1  121.63   19.14
   5 -10  -1   97.34   18.04
   5 -10   1   88.70   16.32
   5 -10  -1  116.10   18.90
  -5 -10   2  211.62   25.61
   5 -10   2  209.48   24.92
  -5 -10  -2  225.62   26.54
   5 -10  -2  214.60   25.92
   5 -10   2  187.12   23.98
   5 -10  -2  223.62   25.90
  -5 -10   3  271.69   29.89
   5 -10   3  216.44   24.43
  -5 -10  -3  201.70   26.32
   5 -10  -3  251.63   26.18
   5 -10   3  246.50   27.43
   5 -10  -3  248.64   27.14
  -5 -10   4  537.63   39.76
   5 -10   4  499.75   38.07
  -5 -10  -4  519.95   40.74
   5 -10  -4  500.23   39.13
   5 -10   4  481.84   38.39
   5 -10  -4  478.65   37.58
  -5 -10   5  499.93   39.79
   5 -10   5  560.98   39.91
  -5 -10  -5  529.23   39.98
   5 -10  -5  498.75   38.56
   5 -10   5  462.19   37.85
  -5  10   5  527.10   39.10
   5 -10  -5  535.90   40.46
   5 -10  -6  222.84   26.47
  -5 -10   6  278.74   28.22
   5 -10   6  227.63   24.42
  -5 -10  -6  215.45   27.06
   5 -10   6  243.19   27.82
   5 -10  -6  255.55   28.35
  -5  10   6  271.53   28.27
  -5 -10   7   26.35    8.99
   5 -10   7   22.46    7.75
  -5 -10  -7   24.02    9.19
   5 -10  -7   11.57    5.97
  -5  10   7   29.84   13.17
   5 -10  -7   30.15   10.18
   5 -10   7   24.81   10.69
   5 -10  -8    5.65    6.92
  -5 -10   8   10.87    5.50
   5 -10   8   16.33    9.85
  -5 -10  -8   20.63    4.20
   5 -10  -8   16.96    8.15
  -5  10   8    5.41    4.97
   5 -10   8   20.61    9.69
  -5 -10   9   -0.74    4.85
   5 -10   9    5.87    4.35
   5 -10  -9  -10.00    7.44
  -5 -10  -9    0.87    7.55
   5 -10  -9    0.81    6.57
  -5  10   9   16.69    8.42
   5 -10   9    3.39    7.70
  -5 -10  10   14.57    8.50
   5 -10  10    2.96    4.20
  -5 -10 -10   17.99   10.59
   5 -10 -10   10.14    6.26
   5 -10 -10    5.74    4.36
  -5  10  10   13.93    7.86
   5 -10  10   11.28    7.16
  -5 -10  11  125.82   21.17
   5 -10  11  103.68   17.18
   5 -10 -11  102.41   19.37
  -5 -10 -11   81.81   17.15
   5 -10 -11   95.17   18.38
  -5  10  11   73.48   14.69
   5  10  11   90.51   15.83
   5 -10  11   54.35   12.77
   5 -10  12   14.45    4.47
  -5 -10  12   13.54    9.83
   5 -10 -12   12.67    8.61
  -5 -10 -12   25.90   12.55
   5 -10  12   21.15   10.26
   5 -10 -12   10.18    6.09
  -5  10  12   20.74    7.06
   5  10  12   29.91   10.74
   5 -10  13  116.90   19.59
  -5 -10  13  111.09   20.26
  -5 -10 -13  173.65   26.02
  -5  10  13  147.25   22.56
   5 -10 -13  128.23   19.73
   5 -10 -13  140.57   21.89
   5  10  13  154.86   21.59
   5 -10  13  164.08   22.25
   5 -10 -14    2.22    2.81
   5 -10  14    5.28    4.80
  -5 -10  14    8.41    7.36
   5 -10  14   17.58    9.49
  -5 -10 -14   -4.65    5.69
   5 -10 -14    5.27    7.76
  -5  10  14   -1.90    4.85
   5  10  14   -2.53    3.97
  -5 -10  15    6.63    6.83
   5 -10  15   -6.22    7.05
  -5 -10 -15   16.33   11.65
   5 -10 -15    6.43    6.29
   5 -10 -15   -3.43    4.36
  -5  10  15    3.28    7.04
   5  10  15    2.02    5.98
  -5 -10  16  124.79   20.52
   5 -10 -16  138.31   22.17
  -5 -10 -16   88.22   18.10
  -5  10  16   84.81   17.02
   5 -10 -16   79.53   18.02
   5 -10  16  107.82   18.96
   5  10  16  108.96   18.87
  -5 -10  17    5.92    4.77
   5 -10  17   23.71    8.01
  -5 -10 -17   15.48    5.52
  -5  10  17   16.26    9.66
   5 -10 -17   18.49    9.82
   5  10  17   16.94    6.98
  -5 -10  18   -1.93    4.73
   5 -10  18    7.19    5.18
  -5  10  18    0.16    4.71
   5 -10 -18    0.40    6.52
   5  10  18    0.16    4.16
  -5 -10  19   -0.71    5.91
   5 -10  19   14.87    5.87
  -5 -10 -19   22.79    7.10
  -5  10  19   12.69    8.69
   5 -10 -19   -2.89    6.63
   5  10  19   25.70    9.88
  -5 -10  20   98.69   18.91
  -5 -10 -20   80.97   16.63
  -5  10  20  105.70   19.89
   5 -10 -20  103.73   21.32
   5 -10  20  113.09   18.71
   5  10  20   64.04   17.43
   5 -10  21   -1.27    3.18
   5 -10 -21   11.08   10.97
  -5 -10 -21    0.31    9.18
   5  10  21    9.50    6.64
  -5 -10  21   -2.51    5.57
  -5 -10 -22  119.15   23.01
   5 -10  22  122.20   20.53
  -5  10  22   96.33   18.68
   5 -10 -22   89.80   19.87
   5  10  22   88.01   19.22
  -5 -11   0   -1.27    3.77
   5 -11   0   -7.75    5.96
   5 -11   0   -1.90    5.87
  -5 -11   1    2.88    6.08
  -5 -11  -1   -1.09    3.45
   5 -11   1    3.74    4.92
   5 -11  -1    7.48    7.80
   5 -11   1    2.50    4.37
   5 -11  -1   -0.86    3.97
  -5 -11   2  149.19   21.70
   5 -11   2  145.96   21.55
  -5 -11  -2  185.99   24.79
   5 -11  -2  174.69   24.68
   5 -11   2  153.53   24.09
   5 -11  -2  150.66   22.16
   5 -11  -3   34.92    8.44
  -5 -11   3    4.52    7.85
   5 -11   3   28.01   10.23
   5 -11   3   26.64   11.59
  -5 -11  -3   24.79    9.52
   5 -11  -3   20.70   10.65
   5 -11   4   -1.34    3.07
   5 -11  -4   -6.38    3.92
  -5 -11   4    5.15    3.24
   5 -11   4   -0.46    7.76
  -5 -11  -4   -2.65    5.33
   5 -11  -4   -2.06    4.68
   5 -11   5   10.17    6.27
  -5 -11   5   14.57    9.09
   5 -11   5   24.75   11.35
   5 -11  -5   12.78    7.62
  -5 -11  -5   26.81    8.72
   5 -11  -5   32.00   11.89
  -5 -11   6   12.97    6.66
   5 -11   6    9.34    5.92
  -5 -11  -6   14.57    8.14
   5 -11  -6   11.65    3.63
   5 -11  -6    9.29    7.10
  -5  11   6    5.06    7.33
   5 -11   6    3.65    3.55
  -5 -11   7   97.95   18.79
   5 -11   7  119.63   19.87
  -5 -11  -7   72.02   16.29
   5 -11  -7  104.68   18.10
  -5  11   7   85.66   18.16
   5 -11  -7   91.89   17.25
   5 -11   7   87.80   16.60
  -5 -11   8   30.76   10.20
   5 -11   8   48.68   12.54
  -5 -11  -8   49.85   13.61
   5 -11  -8   32.92    9.71
  -5  11   8   38.98   11.33
   5 -11  -8   24.33    5.30
   5 -11   8   25.23    9.59
   5 -11   9   73.73   17.51
  -5 -11   9   81.92   16.52
   5 -11  -9   98.94   18.81
   5 -11   9   68.25   14.66
  -5 -11  -9   95.70   18.18
   5 -11  -9  105.68   18.92
  -5  11   9   55.66   15.30
   5 -11  10   75.71   17.26
  -5 -11  10  101.13   17.57
   5 -11 -10   90.01   17.16
   5 -11  10   58.21   13.54
  -5 -11 -10  113.45   22.23
   5 -11 -10   81.23   18.34
  -5  11  10   77.73   15.42
   5 -11  11  111.39   18.02
  -5 -11  11  135.58   20.69
   5 -11  11   96.31   17.44
   5 -11 -11   99.99   17.40
  -5 -11 -11  116.12   20.48
  -5  11  11  126.41   21.00
   5 -11 -11   89.95   18.45
  -5 -11  12  116.45   20.17
   5 -11  12  117.34   18.52
   5 -11 -12  131.76   22.49
   5 -11 -12  148.03   22.68
  -5 -11 -12   81.96   18.87
  -5  11  12  148.23   21.74
   5 -11  12  116.57   19.77
   5 -11  13    1.43    8.86
  -5 -11  13   -1.31    6.08
   5 -11  13    2.41    4.07
  -5 -11 -13   -0.29    7.70
   5 -11 -13   -4.11    6.16
  -5  11  13   -9.12    9.31
   5  11  13   -4.83    6.47
   5 -11 -13   -3.27    7.56
   5 -11 -14   -4.18    6.40
   5 -11  14    1.47    4.67
  -5 -11 -14   -4.28    8.07
   5 -11 -14   -0.39    5.12
  -5  11  14  -11.55    5.34
   5  11  14   -3.76    5.65
  -5 -11  15   22.90   13.22
   5 -11  15   12.92    9.29
   5 -11 -15   15.10   10.00
  -5 -11 -15   17.19    9.94
   5 -11 -15   17.19   11.68
  -5  11  15   10.56    9.25
   5  11  15   19.45    6.55
  -5 -11  16   81.22   16.97
   5 -11  16   71.80   16.41
  -5 -11 -16   39.76   14.46
   5 -11 -16   47.19   11.89
  -5  11  16   62.68   15.18
   5 -11 -16   58.63   13.91
   5  11  16   72.56   18.11
  -5 -11  17   12.82    5.05
   5 -11  17   10.83    7.09
   5 -11 -17   18.07    8.90
  -5 -11 -17    8.27   10.23
   5 -11 -17   13.67    7.35
  -5  11  17    7.28    6.57
   5  11  17   17.18    8.12
  -5 -11  18    9.02    6.94
   5 -11  18   25.22    9.84
  -5 -11 -18   13.41    9.32
   5 -11 -18   19.47   10.99
  -5  11  18    3.02    5.91
   5  11  18   13.92    4.64
   5 -11 -18   14.74    9.47
  -5 -11  19   -7.08    5.14
   5 -11  19    3.20    4.90
  -5 -11 -19   16.30    8.71
   5 -11 -19   -5.29    7.97
  -5  11  19   15.60    9.30
   5 -11 -19   -5.85    8.80
   5  11  19    6.11    8.07
  -5 -11  20   45.33   14.05
   5 -11  20   24.83    9.24
  -5 -11 -20   15.16   10.33
   5 -11 -20   33.75    9.23
  -5  11  20   20.58    9.83
   5  11  20   23.81   13.02
  -5 -12   0   10.66   11.25
   5 -12   0    3.47    5.50
   5 -12   0  -10.01   10.57
  -5 -12   1   77.27   17.54
  -5 -12  -1   39.77   13.29
   5 -12   1   33.96   13.89
   5 -12  -1   48.77   12.29
   5 -12   1   67.63   14.62
   5 -12  -1   69.82   15.76
  -5 -12   2   30.33   10.68
   5 -12   2   28.88   12.60
  -5 -12  -2   16.74    7.75
   5 -12   2   37.62   11.64
   5 -12  -2   24.65   12.71
   5 -12  -2   19.74    8.27
   5 -12   3   13.02    8.21
  -5 -12   3   -1.63    3.78
   5 -12   3    9.43    6.98
  -5 -12  -3   17.14   10.06
   5 -12  -3    8.76    7.73
   5 -12  -3    9.76    8.81
   5 -12  -4   21.64   11.21
   5 -12   4   17.25    9.26
  -5 -12   4   19.61   11.17
   5 -12   4   15.24    5.13
  -5 -12  -4   24.98    8.88
   5 -12  -4   -1.60    7.70
   5 -12   5   75.74   15.84
   5 -12  -5   74.87   14.30
  -5 -12   5   43.46   13.50
   5 -12   5   75.75   16.61
  -5 -12  -5   58.37   16.22
   5 -12  -5   63.76   16.28
  -5 -12   6   37.73   13.74
   5 -12   6   34.80   13.94
   5 -12  -6   19.67    7.70
  -5 -12  -6   16.39   11.28
   5 -12  -6   30.17   11.37
   5 -12   6   33.32   12.01
  -5 -12   7    1.23    4.96
   5 -12   7   -3.67    7.57
  -5 -12  -7    3.61    8.87
   5 -12  -7    9.31   11.29
   5 -12  -7    8.42    7.58
   5 -12   7   -4.79    4.24
  -5 -12   8   73.82   15.95
   5 -12   8   72.36   16.36
  -5 -12  -8   49.45   13.40
   5 -12  -8   61.25   13.93
   5 -12  -8   60.37   15.44
   5 -12   8   22.97    6.56
  -5  12   8   61.56   15.20
  -5 -12   9   -7.74    7.71
   5 -12   9    1.12    5.26
  -5 -12  -9    2.53    4.81
   5 -12  -9    2.70    7.75
  -5  12   9    4.71    7.02
   5 -12   9    0.80    2.59
   5 -12  -9   -3.37    4.78
  -5 -12  10   33.07   11.17
   5 -12  10   47.72   15.59
  -5 -12 -10   60.05   16.35
   5 -12 -10   65.36   15.34
  -5  12  10   75.29   16.51
   5 -12  10   35.49   11.57
   5 -12 -10   70.12   16.24
   5 -12 -11   21.92    9.04
  -5 -12  11    8.88    4.44
   5 -12  11   16.51    5.50
  -5 -12 -11    2.04    6.69
   5 -12 -11    5.98    8.92
  -5  12  11    3.41    4.88
   5 -12  11   15.20    6.81
  -5 -12  12  115.97   21.22
   5 -12 -12  132.44   20.92
  -5 -12 -12  173.33   25.47
   5 -12 -12  132.00   23.00
  -5  12  12  123.21   22.62
   5 -12  12  118.77   20.65
  -5 -12  13   40.38   13.70
   5 -12 -13   39.05   12.82
  -5 -12 -13   45.68   15.34
   5 -12  13   47.53   12.69
   5 -12 -13   59.75   14.30
  -5  12  13   42.93   12.51
  -5 -12  14   25.36   10.59
   5 -12  14   23.25   10.58
  -5 -12 -14   22.55   11.01
   5 -12 -14   22.36   12.18
  -5  12  14   10.77   10.38
   5 -12 -14   30.22   13.13
  -5 -12  15   -7.03    7.60
   5 -12  15   -2.23    5.74
  -5 -12 -15   10.84   10.43
   5 -12 -15   -4.28    4.41
  -5  12  15   -4.44    4.95
   5 -12 -15    4.44    7.42
   5 -12 -16   20.90    7.99
  -5 -12  16   17.00    8.58
   5 -12  16   20.05    9.77
  -5 -12 -16    7.75    7.87
   5 -12 -16    0.78   10.37
  -5  12  16   -0.70    4.33
  -5 -12  17   23.27    9.59
   5 -12  17   43.73   11.61
   5 -12 -17   43.36   15.51
  -5 -12 -17   34.24   14.36
   5 -12 -17   26.40   12.68
  -5  12  17   18.20   10.36
   5 -12  18   22.83   10.62
  -5 -12 -18   11.66    8.80
   5 -12 -18   16.13    7.64
   5 -12 -18   27.47   12.13
  -5  12  18    2.64    7.73
  -5 -13   0    1.06    7.60
   5 -13   0    3.19    7.27
   5 -13   0   -1.93    4.01
  -5 -13   1   68.48   16.42
  -5 -13  -1   44.80   13.80
   5 -13   1   42.26   17.31
   5 -13  -1   59.43   16.59
   5 -13   1   47.71   13.21
   5 -13  -1   59.79   12.81
  -5 -13   2   14.75    8.92
   5 -13   2   12.22    9.38
   5 -13   2   42.56   14.49
  -5 -13  -2   14.14    9.79
   5 -13  -2   24.23   10.26
   5 -13  -2   22.20    9.86
   5 -13   3   16.60    7.77
  -5 -13   3   39.82   13.07
   5 -13   3   22.12   10.20
  -5 -13  -3   51.48   14.88
   5 -13  -3   22.27   14.10
   5 -13  -3    9.98    3.07
   5 -13   4   11.02    6.06
  -5 -13   4   15.77    7.92
   5 -13   4    0.51    7.03
  -5 -13  -4   11.12    3.86
   5 -13  -4    4.79    5.23
   5 -13  -4   10.75    6.08
   5 -13   5    6.51    5.01
   5 -13  -5    6.86    5.49
  -5 -13   5    2.51    8.03
   5 -13   5    9.09    7.77
  -5 -13  -5   -6.79    7.08
   5 -13  -5   -2.52    4.82
   5 -13  -6    2.26    4.63
  -5 -13   6    4.01    4.80
   5 -13   6  -12.46    8.83
  -5 -13  -6   13.25    7.91
   5 -13  -6    3.02    6.47
   5 -13   6    8.85    7.48
  -5 -13   7   -4.71    3.52
   5 -13   7   -6.39    9.74
   5 -13  -7   -2.68    3.55
  -5 -13  -7    5.45    5.92
   5 -13  -7   11.60   10.09
   5 -13   7    7.91    6.52
  -5 -13   8   24.99   12.49
   5 -13   8   30.68   13.65
  -5 -13  -8   30.30   13.37
   5 -13  -8   20.28    9.57
   5 -13  -8   27.70   11.80
   5 -13   8   27.53   11.37
   5 -13  -9  113.42   21.03
   5 -13   9  128.48   22.32
  -5 -13   9  107.20   19.11
   5 -13   9  113.94   21.41
   5 -13  -9  144.10   25.48
  -5 -13  -9   80.50   18.20
  -5  13   9  129.15   23.03
  -5 -13  10   31.57   11.89
  -5 -13 -10   16.84    6.90
   5 -13 -10   19.79    8.27
  -5  13  10   29.86   14.33
   5 -13  10   38.86    9.86
   5 -13 -10   39.70   12.11
   5 -13  11   -7.24    7.39
  -5 -13  11   -7.59    8.45
  -5 -13 -11   22.87    8.53
   5 -13 -11   14.84   11.28
  -5  13  11    3.44    6.39
   5 -13 -11   17.65   10.28
  -5 -13  12   39.07   12.20
  -5 -13 -12   73.74   17.56
   5 -13 -12   44.31   13.97
   5 -13  12   77.47   15.94
  -5  13  12   74.34   20.72
   5 -13 -12   61.42   14.62
   5 -13 -13   -0.27    4.24
  -5 -13  13    9.68    7.55
  -5 -13 -13    6.56    4.73
   5 -13  13   21.35   10.80
   5 -13 -13    1.15    5.23
  -5  13  13    9.48    6.02
  -5 -13  14   62.03   15.82
   5 -13 -14   68.29   17.23
   5 -13  14   67.38   14.61
  -5 -13 -14   79.44   16.73
   5 -13 -14   54.32   15.07
  -5  13  14   68.49   16.66
  -5 -13  15   11.32    7.02
   5 -13  15    3.59    4.55
   5 -13 -15   20.40   10.78
  -5 -13 -15   17.31    8.08
   5 -13 -15   -3.68   10.40
  -5  13  15    3.25   10.70
  -5 -14   0   -5.29    9.88
   5 -14   0   12.56   14.62
   5 -14   0   -7.03    8.79
  -5 -14   1   10.64    6.27
  -5 -14  -1   20.24    8.57
   5 -14   1   10.86    6.57
   5 -14   1    7.47    6.27
   5 -14  -1   32.68   14.15
   5 -14  -1   -7.05    8.64
   5 -14   2   24.90    8.43
  -5 -14   2   39.41   13.49
   5 -14   2   31.39   11.80
  -5 -14  -2   31.89   11.54
   5 -14  -2   18.66   11.63
   5 -14  -2   29.89   11.09
   5 -14   3    4.49    6.81
  -5 -14   3    6.71    3.62
   5 -14   3    6.54   10.05
  -5 -14  -3   17.24   11.45
   5 -14  -3   -1.40    6.22
   5 -14  -3    7.26    8.06
   5 -14   4    5.71    3.41
  -5 -14   4   13.52    9.16
   5 -14   4   24.91    9.12
  -5 -14  -4   23.47   12.56
   5 -14  -4   13.47    5.97
   5 -14  -4   30.91    9.31
  -5 -14   5  149.76   25.64
  -5 -14  -5  149.88   23.58
   5 -14   5  118.00   22.42
   5 -14   5  171.89   25.93
   5 -14  -5  106.05   23.09
   5 -14  -5  102.46   19.41
   5 -14  -6    4.86    6.53
  -5 -14   6    0.74    5.75
   5 -14   6   17.15   13.74
  -5 -14  -6   18.77   10.28
   5 -14  -6    3.76    7.67
   5 -14   6   10.91    9.06
   5 -14  -7   -9.87    7.24
  -5 -14   7   20.53    9.64
   5 -14   7    1.56    6.64
  -5 -14  -7   36.94   14.36
   5 -14  -7   15.24   12.57
   5 -14   7   29.96   12.65
  -5 -14   8   21.36    9.21
   5 -14  -8   60.79   16.63
  -5 -14  -8   58.08   16.71
   5 -14  -8   23.46   11.72
   5 -14   8   28.85   11.02
  -5 -14   9   19.00   10.18
   5 -14  -9   20.19    8.78
  -5 -14  -9   13.87    8.33
   5 -14  -9   11.45   13.98
   5 -14   9   34.56   12.32
  -5 -14  10   46.60   14.82
  -5 -14 -10   40.00   14.11
   5 -14 -10   57.62   17.22
   5 -14 -10   59.59   15.35
   5 -14  10   68.85   14.28
  -5 -14  11   -0.95    6.34
  -5 -14 -11    7.72    9.61
   5 -14  11   -6.10    6.93
   5 -14 -11    0.64    8.26
  -5 -15   0   10.50    9.88
   5 -15   0   -7.17   10.40
   5 -15   0   -7.10    4.33
  -5 -15   1   22.62   11.62
   5 -15   1   20.94   11.49
  -5 -15  -1   14.15    5.81
   5 -15   1   16.22    6.40
   5 -15  -1   15.75   10.43
   5 -15  -1   23.73   10.95
   5 -15   2   54.06   16.83
  -5 -15   2   20.67   10.91
   5 -15   2   32.59    9.28
  -5 -15  -2   48.81   13.68
   5 -15  -2   31.95   13.89
   5 -15  -2   39.18   13.60
   5 -15   3  -10.95    8.74
  -5 -15   3   10.87   12.30
   5 -15   3   -5.99   12.57
  -5 -15  -3    7.29    4.23
   5 -15  -3   -3.16    7.41
   5 -15  -3    2.04    4.88
   5 -15   4   21.95   12.13
  -5 -15   4   18.40    9.48
   5 -15   4  -12.14   11.84
  -5 -15  -4    2.00    7.66
   5 -15  -4    8.98    8.27
   5 -15  -4   -4.97    6.85
  -5 -15   5   -2.69    6.53
  -5 -15  -5    7.57    7.49
   5 -15  -5    4.08   10.58
   5 -15  -5   -8.10    9.72
   5 -15   5   -1.69    4.88
  -6   0   0 6035.74  103.88
   6   0   0 7065.96   74.58
   6   0   1   -2.08    2.42
  -6   0  -1    1.74    3.86
   6   0  -1   -1.44    1.56
  -6   0   1    2.81    3.21
   6   0  -2  207.62   12.95
  -6   0   2  232.70   19.92
   6   0   3    1.92    2.22
   6   0  -3   -0.54    1.58
  -6   0   3   -1.28    1.83
  -6   0   4 1193.14   45.42
   6   0  -4 1107.71   30.42
   6   0  -5    0.27    1.70
  -6   0   5    2.01    6.20
   6   0   5    1.65    3.38
   6   0  -6  416.00   19.58
   6   0   6  378.52   22.19
  -6   0   7   -1.95    2.08
   6   0   7    0.95    3.05
   6   0  -7    2.61    2.86
   6   0   8 2500.98   62.88
  -6   0   8 2507.81   71.04
  -6   0   9   -5.54    4.37
   6   0   9    2.64    3.45
  -6   0  10 2600.29   75.70
  -6   0  10 2794.05   60.56
  -6   0  11   -0.18    2.51
   6   0  11   -3.02    3.14
  -6   0  11    0.48    3.13
   6   0  12   71.06   12.31
  -6   0  12  100.82   15.80
  -6   0  12   89.23   12.36
   6   0  13    8.66    6.82
  -6   0  13    5.57    5.91
  -6   0  13    9.74    8.48
   6   0  14 1575.23   59.47
  -6   0  14 1545.68   63.16
   6   0  15    0.77    2.46
  -6   0  15    0.68    4.20
   6   0  16   40.28   10.78
  -6   0  16   39.15   11.15
   6   0  17   -0.02    2.87
  -6   0  17   -0.11    5.06
   6   0  18   90.68   15.24
  -6   0  18   98.23   18.36
   6   0  19    1.17    4.45
  -6   0  19    5.81    9.09
   6   0  19   -4.47    6.57
   6   0  20   24.17    8.79
  -6   0  20   10.40    7.30
   6   0  20   21.30    5.43
   6   0  21    0.38    4.00
  -6   0  21   -0.61    4.58
   6   0  21   12.36    5.12
   6   0  22  166.75   22.35
  -6   0  22  142.08   22.71
   6   0  22  134.56   22.57
   6   0  23   -3.25    5.46
  -6   0  23    1.22    3.75
   6   0  23    4.90    7.75
   6   0  24   79.22   16.62
  -6   0  24   85.90   17.74
   6   0  24   62.67   15.31
   6   0  25   -6.30    7.03
  -6   0  25   -2.63    4.74
   6   0  25   -2.45    6.32
   6   0  26  201.74   25.47
  -6   0  26  251.68   31.40
   6   0  26  215.82   27.47
   6   0  27    2.36    4.21
  -6   0  27    5.01    8.92
   6   0  27   -5.98    4.61
   6   0  28    4.60    5.72
  -6   0  28    3.15    5.46
   6   0  28   14.51   11.31
   6  -1   0   67.99    8.53
   6   1   0   51.19    5.06
  -6   1   0   50.98    9.84
   6  -1   1  106.83   10.91
  -6  -1   1  140.27   14.46
   6  -1  -1  129.96   11.87
   6   1   1  116.98    8.48
   6  -1  -1   80.50    5.32
  -6   1  -1  114.82   14.76
  -6   1   1  128.18   15.46
   6   1  -1   90.66    6.04
   6   1  -2    0.24    0.49
   6  -1  -2    5.15    3.57
   6  -1   2   -0.07    2.05
  -6   1   2   -0.57    4.19
  -6  -1   2    4.07    3.28
   6   1   2    3.18    1.84
   6   1  -3    6.97    1.56
   6  -1   3   10.62    3.42
   6  -1  -3   19.20    4.94
  -6   1   3   17.01    4.83
  -6  -1   3    9.02    3.10
   6   1   3   12.35    1.51
   6   1  -4  269.90    9.88
   6   1   4  345.49   18.60
  -6   1   4  296.56   23.53
  -6  -1   4  354.02   24.47
   6  -1  -4  357.43   19.99
   6  -1   4  375.73   22.03
   6  -1   5    3.59    3.84
   6   1  -5   -0.17    0.96
   6  -1  -5    1.73    2.21
  -6   1   5   -1.18    2.82
  -6  -1   5   -0.80    3.36
   6   1   5    4.27    2.83
   6  -1  -6  312.67   19.68
   6   1   6  318.15   19.85
  -6   1   6  344.67   25.68
  -6  -1   6  376.07   25.40
   6  -1   6  403.98   24.12
   6   1  -6  263.24   12.63
   6  -1  -7   41.52    6.97
   6  -1   7   40.53    8.39
   6   1   7   68.52    9.84
   6   1  -7   39.67    5.41
  -6   1   7   49.65   11.18
  -6  -1   7   42.93    8.99
   6   1   8   16.93    5.50
  -6   1   8   27.17    7.94
  -6  -1   8   29.56    8.70
   6  -1   8   13.76    4.52
   6   1   9   21.88    6.32
  -6   1   9   22.48    7.37
  -6  -1   9   27.77    9.01
   6  -1   9   30.41    6.75
   6   1  10   -1.77    2.21
  -6   1  10    7.63    6.12
  -6  -1  10    6.84    6.32
  -6   1  10    2.06    2.98
   6  -1  10    9.39    5.63
   6   1  11    0.82    2.05
  -6   1  11    0.37    4.04
  -6  -1  11    2.70    3.15
  -6   1  11    3.82    3.14
   6  -1  11    2.86    2.30
   6   1  12   80.20   13.01
   6  -1  12   85.01   13.82
  -6   1  12   91.61   15.62
  -6  -1  12   43.64   11.33
  -6   1  12   45.27    9.09
   6  -1  13  583.72   35.51
  -6   1  13  508.43   35.90
  -6  -1  13  586.76   38.27
  -6   1  13  552.17   31.83
   6   1  14  418.48   30.76
   6  -1  14  457.92   32.10
  -6   1  14  458.50   34.75
  -6  -1  14  450.49   34.44
  -6   1  14  396.64   28.35
   6  -1  15   90.68   14.39
  -6   1  15  136.21   19.34
  -6  -1  15   97.95   17.27
  -6   1  15  114.34   15.17
   6   1  16    2.17    4.82
   6  -1  16    2.94    4.27
  -6   1  16   -0.20    9.07
  -6  -1  16    3.54    4.16
  -6   1  16   -0.48    4.40
   6   1  17   56.03   11.79
   6  -1  17   66.61   13.82
  -6   1  17   75.18   13.84
  -6  -1  17   47.14   12.10
  -6   1  17   47.86   10.93
   6   1  18   34.56    9.52
   6  -1  18   32.25   10.35
  -6   1  18   44.55   11.81
  -6  -1  18   41.04   11.88
   6   1  18   13.81   10.18
  -6   1  18   34.24   10.43
   6   1  19  254.86   26.62
   6  -1  19  244.12   26.26
  -6   1  19  230.26   26.60
  -6  -1  19  238.19   26.18
  -6   1  19  171.55   22.02
   6   1  19  259.09   27.18
   6   1  20    3.02    7.83
   6  -1  20   -3.95    3.33
  -6   1  20    0.63    3.56
  -6  -1  20    3.85    6.87
   6   1  20    0.27    5.20
   6  -1  20   -2.92    3.43
   6   1  21  207.88   25.05
   6  -1  21  167.65   22.97
  -6   1  21  167.53   24.12
  -6  -1  21  168.60   23.31
   6   1  21  184.71   23.90
   6  -1  21  165.74   21.74
   6   1  22    7.70    6.14
   6  -1  22    1.40    4.19
  -6   1  22    1.16    4.95
  -6  -1  22    4.59    8.93
   6   1  22   -3.93    4.75
   6  -1  22   -2.64    4.06
   6   1  23    4.88    2.93
   6  -1  23   -0.91    3.78
  -6   1  23   12.41    7.94
  -6  -1  23    1.78    3.64
   6   1  23    2.43    6.55
   6  -1  23    1.56    5.74
   6   1  24   30.84   11.63
   6  -1  24   28.78   11.96
  -6   1  24   26.83   10.34
  -6  -1  24   18.99    8.55
   6   1  24   25.00    9.02
   6  -1  24   17.78   10.33
  -6  -1  25   52.82   12.76
   6   1  25   51.04   13.18
   6  -1  25   50.95   12.46
  -6   1  25   17.30    6.47
   6   1  25   40.84   12.14
   6  -1  25   29.50   11.20
   6   1  26   16.59    7.84
   6  -1  26   11.45    6.07
  -6   1  26   36.37   13.86
  -6  -1  26    4.83    6.80
   6   1  26    1.39    7.21
   6  -1  26    7.58   10.73
   6  -1  27   12.71    7.39
  -6   1  27   17.12    9.71
  -6  -1  27   10.45    4.37
   6   1  27    5.62    5.59
   6  -1  27    4.82    4.45
   6   1  28    0.06    5.55
   6  -1  28   -6.19    3.74
  -6   1  28    1.79    6.88
  -6  -1  28    7.42   12.06
   6   1  28   -1.99    8.86
   6  -1  28    4.99    8.66
  -6  -2   0  350.86   17.19
   6  -2   0  404.57   23.97
  -6  -2   0  319.14   21.79
  -6   2   0  332.90   25.98
  -6  -2   1  230.96   14.49
  -6  -2  -1  199.00   12.66
   6   2   1  147.64    7.50
   6  -2   1  218.18   18.00
   6  -2  -1  155.06    8.25
   6  -2  -1  188.38   16.29
  -6   2   1  187.98   19.52
  -6  -2   1  207.98   18.02
  -6  -2   2   17.35    4.62
  -6  -2  -2   13.36    3.59
   6   2   2   13.79    2.97
   6  -2  -2   21.58    6.59
  -6   2   2   29.84    8.04
  -6  -2   2   21.03    5.59
   6  -2  -2   18.55    3.54
   6  -2   2    5.60    3.77
   6  -2   3  595.62   29.82
  -6  -2   3  646.14   26.97
  -6  -2  -3  586.70   21.22
   6   2   3  646.49   21.58
  -6   2   3  697.57   37.29
  -6  -2   3  707.22   33.15
   6  -2  -3  620.76   22.66
   6  -2  -3  698.84   31.36
  -6  -2  -4 1140.65   30.35
   6   2   4 1166.46   32.66
  -6   2   4 1278.47   49.80
  -6  -2   4 1462.53   48.60
   6  -2  -4 1292.81   43.18
   6  -2   4 1321.62   44.75
  -6  -2   4 1258.86   38.60
   6  -2  -5  136.98   14.08
  -6  -2  -5   92.87    9.10
   6   2   5  117.71   11.12
  -6   2   5  143.32   17.23
  -6  -2   5  132.03   14.51
   6  -2   5  117.65   13.52
   6   2   6  505.99   24.41
  -6  -2  -6  479.96   21.70
   6  -2  -6  496.12   27.25
  -6  -2   6  507.09   29.57
  -6   2   6  429.78   29.26
   6  -2   6  455.28   27.14
   6   2   7  614.29   29.16
   6  -2  -7  662.05   32.81
  -6   2   7  725.29   38.71
  -6  -2   7  610.51   33.39
   6   2   8   59.30    9.79
  -6   2   8   70.92   12.61
  -6  -2   8   71.07   11.48
   6  -2   8   82.97   12.10
   6  -2  -8   78.94   10.88
   6  -2   9   16.34    6.03
   6   2   9    3.90    3.14
  -6   2   9    5.43    5.45
  -6  -2   9    8.85    5.25
   6   2  10  186.97   18.18
  -6  -2  10  220.70   21.86
   6  -2  10  175.27   18.24
  -6   2  10  214.91   22.80
   6   2  11 1041.98   44.36
  -6   2  11  930.71   47.54
   6  -2  11  988.93   45.05
  -6  -2  11 1012.59   47.71
  -6   2  11  961.15   41.90
   6   2  12  138.35   16.57
   6  -2  12  104.94   14.67
  -6   2  12  114.37   16.94
  -6  -2  12  116.62   16.87
  -6   2  12   92.44   13.19
   6   2  13  706.79   38.84
   6  -2  13  683.25   38.54
  -6   2  13  730.98   43.67
  -6  -2  13  633.66   39.49
  -6   2  13  667.50   36.74
   6   2  14   51.73   11.25
  -6   2  14   21.68    8.68
  -6  -2  14   39.72   10.70
   6  -2  14   36.80    9.56
  -6   2  14   53.51   10.97
   6   2  15   20.00    8.13
  -6   2  15   27.77    8.90
  -6  -2  15   18.20    4.52
   6  -2  15   24.65    8.48
  -6   2  15   14.98    5.43
   6   2  16   82.37   15.25
  -6   2  16  117.21   17.98
  -6  -2  16   72.28   13.50
  -6   2  16   85.19   14.69
   6  -2  16   67.06   12.33
   6   2  16  109.81   16.15
   6   2  17  111.11   15.77
   6  -2  17  114.84   17.19
  -6  -2  17  104.35   16.70
  -6   2  17   75.24   16.06
  -6   2  17  108.99   16.37
   6   2  17   93.92   17.01
   6   2  18  192.17   22.79
   6  -2  18  192.08   23.05
  -6   2  18  182.52   23.40
  -6  -2  18  168.90   22.46
  -6   2  18  170.59   21.18
   6   2  18  146.45   20.78
   6   2  19  107.66   17.40
   6  -2  19   97.27   17.41
  -6   2  19  135.26   20.13
  -6  -2  19  109.36   20.12
  -6   2  19  118.96   19.01
   6   2  19  119.92   18.61
   6   2  20    2.28    7.45
   6  -2  20   -2.21    4.77
  -6  -2  20    7.25    7.12
   6   2  20    8.34    9.52
  -6   2  20   -6.26    4.10
   6   2  21  112.04   17.50
   6  -2  21  120.87   18.28
  -6   2  21   99.56   19.08
  -6  -2  21   98.76   19.19
  -6   2  21  124.75   19.89
   6   2  21   96.25   19.88
   6  -2  21  106.36   19.45
   6   2  22   80.32   15.98
  -6   2  22   92.37   20.11
   6  -2  22   68.76   14.79
  -6  -2  22   59.39   16.45
  -6   2  22   87.35   18.18
   6   2  22   95.02   17.97
   6  -2  22   53.43   12.16
   6   2  23    8.75    7.11
   6  -2  23   15.63    6.69
  -6   2  23   22.77    8.68
  -6  -2  23   27.03    8.39
   6   2  23   12.84    8.58
   6  -2  23   19.30   11.51
   6   2  24    0.13    4.41
   6  -2  24   18.74    6.77
  -6   2  24   -1.81    4.60
  -6  -2  24   11.03    5.91
   6   2  24   25.56   13.59
   6  -2  24    9.10    6.69
   6   2  25   96.98   18.53
   6  -2  25   81.52   15.80
  -6   2  25  116.47   20.98
  -6  -2  25   63.90   14.47
   6   2  25   80.65   16.23
   6  -2  25   72.81   17.77
   6   2  26    1.20    6.22
   6  -2  26   13.22    7.63
  -6   2  26   15.05   10.86
  -6  -2  26   -1.42    8.77
   6   2  26   13.21   10.20
   6  -2  26   12.95    9.73
   6   2  27   -3.79    5.31
   6  -2  27   26.46   10.38
  -6   2  27   28.21   10.76
  -6  -2  27   28.54   10.09
   6   2  27   20.31   10.65
   6  -2  27    9.66    6.63
   6  -2  28   40.16   13.56
   6   2  28   17.44    4.03
  -6   2  28   38.40   10.65
  -6  -2  28   28.61   11.59
   6   2  28   33.78   14.39
   6  -2  28   43.25   15.36
  -6  -3   0    2.29    2.30
   6  -3   0   -0.56    1.60
   6  -3   0    6.53    2.30
  -6   3   0    6.60    3.01
  -6  -3   0    0.59    2.99
  -6  -3  -1   50.64    8.36
   6  -3   1   53.11    4.61
  -6  -3   1   50.91    7.76
   6  -3  -1   51.39    6.22
   6  -3   1   66.07   10.75
  -6  -3   1   57.82    9.22
  -6   3   1   48.50   10.73
   6  -3  -1   59.83    9.96
   6   3   2   11.36    2.37
  -6  -3   2   10.03    3.22
  -6  -3  -2   14.46    5.21
   6  -3  -2   15.92    3.89
  -6   3   2    1.47    2.56
  -6  -3   2    8.29    4.80
   6  -3  -2    8.82    4.89
   6  -3   2   13.44    4.16
   6  -3  -3    1.08    2.86
  -6  -3   3    1.76    2.62
   6   3   3    1.34    1.14
   6  -3  -3   -0.06    1.91
  -6  -3  -3   -1.51    2.84
  -6   3   3    6.52    4.56
  -6  -3   3    0.94    2.24
   6  -3   3    1.50    3.64
  -6  -3   4  834.52   34.71
   6  -3   4  867.24   38.51
  -6  -3  -4  727.58   30.18
   6  -3  -4  793.70   29.91
  -6   3   4  800.54   41.01
  -6  -3   4  908.19   36.59
   6  -3  -4  727.58   35.10
   6   3   4  872.76   27.11
  -6  -3   5   84.74   11.24
   6  -3  -5   95.53   12.66
  -6  -3  -5   96.10   10.63
  -6   3   5  116.45   15.19
  -6  -3   5  132.18   14.33
   6  -3  -5   89.50   10.75
   6  -3   5   92.82   13.04
   6   3   5  106.56   10.50
  -6  -3   6   11.27    4.76
   6  -3  -6    9.87    4.82
   6   3   6   12.35    3.76
  -6  -3  -6    8.86    4.84
   6  -3   6   19.84    6.32
  -6   3   6   25.61    6.40
  -6  -3   6   11.31    3.88
   6  -3  -6    7.04    3.49
  -6  -3   7  402.65   26.01
   6   3   7  386.50   22.69
  -6  -3  -7  409.75   24.06
   6  -3  -7  424.30   27.45
  -6   3   7  405.10   29.69
  -6  -3   7  405.59   26.57
   6  -3   7  445.99   29.08
   6   3   8  146.10   14.59
  -6  -3  -8  169.03   15.71
  -6   3   8  156.10   18.33
  -6  -3   8  146.18   16.42
   6  -3  -8  202.13   19.14
   6  -3   8  133.41   16.29
  -6  -3   8  170.91   17.56
   6  -3   9   -0.41    2.49
   6   3   9    2.19    3.29
  -6  -3  -9    1.48    2.66
  -6   3   9   -3.03    3.01
  -6  -3   9   -2.00    2.20
   6   3  10  246.33   20.67
  -6  -3 -10  189.91   19.20
  -6   3  10  182.14   21.59
   6  -3  10  171.82   18.53
   6  -3  11    9.22    5.43
   6   3  11    8.44    3.82
  -6  -3 -11   10.17    7.15
  -6   3  11   17.01    6.46
  -6  -3  11   15.45    6.80
   6   3  12  261.29   22.51
  -6   3  12  261.23   25.97
  -6  -3  12  242.76   24.34
   6  -3  12  295.68   25.49
  -6   3  12  262.90   24.25
   6  -3  13   46.55    9.63
   6   3  13   36.31    8.17
  -6   3  13   34.16   11.24
  -6  -3  13   36.48    9.26
  -6   3  13   49.27   10.60
   6   3  14   21.64    7.46
  -6   3  14   46.25   12.03
  -6  -3  14   29.37    8.92
  -6   3  14   40.76    9.66
   6  -3  14   53.90   11.70
   6   3  14   38.11    7.36
   6   3  15   44.05   11.00
  -6   3  15   28.24    9.43
  -6  -3  15   33.13    9.28
  -6   3  15   23.17    7.46
   6  -3  15   41.35   10.31
   6   3  15   34.38    9.53
   6   3  16  346.60   29.40
   6  -3  16  374.78   30.67
  -6   3  16  361.07   32.31
  -6  -3  16  297.88   29.07
  -6   3  16  313.30   27.70
   6   3  16  345.93   29.66
   6   3  17    4.95    3.66
  -6   3  17    9.98    5.27
  -6  -3  17   17.19    4.64
   6  -3  17    6.60    2.60
   6   3  17    5.43    5.98
   6   3  18  244.01   25.74
   6  -3  18  298.36   28.89
  -6  -3  18  263.37   28.19
  -6   3  18  241.59   26.92
  -6   3  18  206.89   24.55
   6   3  18  308.94   28.64
   6   3  19  265.81   27.57
   6  -3  19  251.81   26.06
  -6   3  19  259.84   29.34
  -6  -3  19  245.08   28.02
  -6   3  19  252.73   26.88
   6   3  19  275.16   28.78
   6   3  20    4.22    3.04
  -6   3  20   31.38    9.92
   6  -3  20   44.65   11.62
  -6  -3  20   22.01   10.13
  -6   3  20   23.07    8.98
   6   3  20   16.50    7.15
   6   3  21   12.45    6.97
  -6   3  21   -2.48    7.52
   6  -3  21   12.33    6.76
  -6  -3  21    6.07    6.01
   6   3  21   20.56   11.50
  -6   3  21    1.51    4.43
   6   3  22  113.36   18.69
   6  -3  22  118.88   19.90
  -6   3  22  108.06   18.73
  -6  -3  22  105.35   18.60
  -6   3  22  104.30   18.28
   6   3  22  117.64   20.49
   6  -3  22   79.05   18.34
   6   3  23   15.32    5.69
   6  -3  23   17.51    7.81
  -6   3  23   17.96   10.14
  -6  -3  23   19.86    9.62
   6   3  23   22.40   11.28
  -6   3  23    1.76    7.89
   6  -3  23   16.56    8.14
   6   3  24   29.49   12.35
   6  -3  24   33.41   12.03
  -6   3  24   33.81   13.15
  -6  -3  24   17.73    9.05
   6   3  24   52.33   15.00
  -6   3  24   22.50   10.87
   6  -3  24   29.71   12.31
   6   3  25    3.95    3.82
   6  -3  25    4.36    4.76
  -6   3  25   -4.91    4.64
  -6  -3  25    5.78    8.81
   6   3  25    5.32   10.02
  -6   3  25   -9.29    5.84
   6  -3  25   -4.40    9.12
   6   3  26    2.32    6.21
   6  -3  26   -5.12    4.79
  -6   3  26   -2.41    3.82
  -6  -3  26    4.13    9.04
   6   3  26    0.48    6.61
   6  -3  26   -1.00    6.51
   6   3  27    0.93    7.18
   6  -3  27    7.79    7.54
  -6   3  27    1.83    6.62
  -6  -3  27   -9.67    9.96
   6   3  27   13.70    8.15
   6  -3  27   14.89    8.82
   6   3  28   27.40    9.92
   6  -3  28   15.03    7.60
  -6   3  28   18.99    8.29
  -6  -3  28   31.37   10.19
   6   3  28   16.05   10.98
   6  -3  28   28.72   11.82
  -6  -4   0  184.09   16.73
   6  -4   0  135.32   10.90
  -6   4   0  165.55   18.61
   6  -4   0  156.06   17.51
  -6  -4   1  169.22   16.38
  -6  -4  -1  158.46   15.58
   6  -4   1  117.67    9.61
   6  -4  -1  138.36   11.67
   6  -4   1  157.74   17.57
  -6   4   1  158.07   18.98
  -6  -4   1  155.74   14.00
   6  -4  -1  141.00   16.80
   6  -4   2    8.19    4.40
  -6  -4   2    7.60    3.21
   6  -4   2    2.73    2.12
  -6  -4  -2    8.77    4.14
   6  -4  -2    3.97    1.76
  -6   4   2    4.09    4.83
  -6  -4   2    7.79    4.77
   6   4   2    4.50    1.59
   6  -4  -2    3.91    2.64
  -6  -4   3   63.25   11.19
   6  -4   3   57.79    6.58
  -6  -4  -3   63.50   10.07
   6  -4   3   72.90   12.63
   6  -4  -3   72.30    9.56
  -6  -4   3   81.01   10.53
  -6   4   3   72.93   12.58
   6   4   3   64.02    6.77
   6  -4  -3   67.94   11.01
   6   4   4   16.83    3.87
   6  -4   4   10.28    2.66
  -6  -4   4   24.98    6.42
  -6  -4  -4   18.36    6.24
   6  -4  -4   18.04    5.82
  -6   4   4   20.31    7.87
  -6  -4   4   12.70    4.11
   6  -4  -4   19.51    6.74
   6  -4   5    6.63    2.19
   6   4   5   14.54    5.06
  -6  -4   5    5.40    2.71
  -6  -4  -5    2.29    3.80
  -6   4   5   -1.84    3.54
  -6  -4   5   10.03    4.70
   6  -4  -5    7.38    3.91
   6  -4   5    9.10    5.31
   6  -4  -5    9.98    3.98
  -6  -4   6   -0.20    5.11
   6  -4  -6    1.14    4.02
   6   4   6    2.86    3.80
  -6  -4  -6   -1.82    3.63
   6  -4   6   -1.32    3.78
  -6   4   6    6.69    4.20
  -6  -4   6    2.35    3.00
   6  -4  -6   -0.37    1.92
   6  -4   6    0.17    1.69
  -6  -4   7  392.48   27.59
  -6  -4  -7  424.12   26.90
   6  -4  -7  457.05   30.12
  -6   4   7  426.07   31.22
   6  -4  -7  461.67   28.16
  -6  -4   7  478.35   29.12
   6   4   7  396.47   23.06
   6  -4   7  429.68   29.44
  -6  -4   8  811.65   40.18
  -6  -4  -8  733.21   35.91
  -6   4   8  756.86   42.38
   6  -4  -8  811.04   41.03
   6  -4  -8  814.52   38.86
  -6  -4   8  700.34   35.22
   6  -4   8  737.02   39.36
   6   4   8  769.43   34.35
  -6  -4   9  155.82   17.99
  -6  -4  -9  162.43   17.34
  -6   4   9  147.85   19.23
   6  -4  -9  134.38   16.26
  -6  -4   9  144.82   16.40
   6  -4  -9  168.21   19.15
   6  -4   9  138.23   17.20
   6   4   9  132.30   14.29
  -6  -4 -10  321.56   24.80
  -6   4  10  330.19   27.90
   6  -4 -10  278.07   23.97
  -6  -4  10  316.01   27.00
   6  -4  10  302.17   25.61
   6   4  10  326.10   24.16
   6  -4  11   10.23    6.19
   6   4  11   21.28    7.55
  -6  -4 -11   18.42    6.25
  -6   4  11   19.16    8.97
  -6  -4  11   19.34    7.86
   6   4  11   12.28    4.56
  -6  -4  11   17.24    9.83
   6  -4  12   23.06    7.79
   6   4  12   18.35    5.79
  -6  -4 -12   27.67    9.68
  -6   4  12   22.34    8.59
  -6  -4  12   25.93    7.27
   6   4  12   16.87    7.74
   6  -4  13   38.67   10.90
   6   4  13   30.84    8.68
  -6   4  13   50.72   12.13
  -6  -4  13   52.93   12.83
  -6   4  13   34.11    9.80
   6   4  13   46.84   11.23
   6  -4  14   45.93   11.80
   6   4  14   44.72    9.49
  -6   4  14   56.44   12.01
  -6  -4  14   27.41    9.38
  -6   4  14   46.49   10.19
   6   4  14   28.05    8.66
   6   4  15  288.31   26.51
  -6   4  15  294.91   28.69
   6  -4  15  272.23   26.01
  -6  -4  15  259.67   25.55
  -6   4  15  251.50   25.44
   6   4  15  220.44   23.14
   6   4  16   70.76   13.62
  -6   4  16   62.07   12.85
  -6  -4  16   70.01   14.80
  -6   4  16   80.00   14.64
   6   4  16   62.05   12.26
   6  -4  16   78.36   14.38
   6   4  17   76.30   14.73
  -6   4  17   67.86   13.82
  -6  -4  17   70.78   14.04
  -6   4  17   91.63   16.47
   6  -4  17   87.77   15.02
   6   4  17   88.35   15.44
   6   4  18  204.18   23.99
   6  -4  18  185.59   22.55
  -6   4  18  218.58   26.18
  -6  -4  18  204.25   26.24
  -6   4  18  180.81   22.60
   6   4  18  254.14   25.37
   6   4  19   62.98   12.17
  -6   4  19   39.68   12.61
  -6  -4  19   51.21   13.25
   6  -4  19   45.34   10.83
  -6   4  19   47.68   11.59
   6   4  19   38.42   12.11
   6   4  20   -7.31    6.30
  -6   4  20   -2.58    7.05
  -6  -4  20    0.16    5.07
   6  -4  20   -4.94    4.13
  -6   4  20    1.85    4.30
   6   4  20   -2.84    6.53
   6   4  21   47.02   11.44
  -6   4  21   45.31   12.42
  -6  -4  21   47.35   10.78
   6  -4  21   57.65   14.22
  -6   4  21   58.70   12.99
   6   4  21   70.93   13.88
   6   4  22   61.79   13.83
  -6   4  22   60.75   15.92
   6  -4  22   93.89   16.56
  -6  -4  22   79.71   17.18
  -6   4  22   77.32   16.72
   6   4  23   41.04   11.42
  -6   4  23   25.06   10.42
   6  -4  23   60.09   13.57
  -6  -4  23   80.95   17.80
  -6   4  23   58.36   13.43
   6  -4  23   63.80   16.25
   6   4  24    3.06    6.41
   6  -4  24    2.24    6.09
  -6   4  24    4.45   10.02
  -6  -4  24   11.86    8.15
  -6   4  24    9.05    3.50
   6  -4  24    4.13    7.37
   6   4  25   48.87   13.06
   6  -4  25   74.28   17.77
  -6   4  25   74.15   17.25
  -6  -4  25   78.36   18.14
  -6   4  25   69.46   15.00
   6  -4  25   48.10   12.09
   6   4  26   39.77   12.72
   6  -4  26   16.36    7.52
  -6   4  26   19.04   11.17
  -6  -4  26   26.21   14.65
  -6   4  26    7.89    9.50
   6  -4  26   21.12   14.90
   6   4  27   52.25   13.14
   6  -4  27   25.08    9.70
  -6   4  27   11.70    8.38
  -6  -4  27   65.01   17.29
  -6   4  27   -5.35    4.72
   6  -4  27   32.33   11.38
  -6  -5   0   -1.39    2.38
   6  -5   0    2.08    1.50
  -6   5   0   -2.73    5.41
   6  -5   0    0.44    1.86
  -6  -5   1  272.60   22.44
  -6  -5  -1  332.02   24.95
   6  -5   1  284.28   18.38
   6  -5  -1  316.14   20.53
   6  -5   1  310.35   26.69
  -6   5   1  307.70   26.61
   6  -5  -1  281.69   24.71
   6  -5   2   50.37    7.57
  -6  -5   2   32.75    8.17
  -6  -5  -2   44.46    9.08
   6  -5   2   64.80   12.54
   6  -5  -2   43.56    8.26
  -6   5   2   38.76   10.40
   6  -5  -2   44.23    9.38
   6  -5   3    0.58    4.98
   6  -5  -3    1.94    3.85
  -6  -5   3   -0.63    2.10
   6  -5   3    1.81    1.65
  -6  -5  -3    2.99    5.43
  -6   5   3    2.09    3.73
   6  -5  -3   -3.07    4.35
  -6  -5   4   -1.67    4.01
   6  -5   4    1.27    1.62
  -6  -5  -4    2.69    5.49
   6  -5  -4   -1.83    2.32
   6  -5  -4   -0.76    1.99
  -6   5   4    1.06    2.65
  -6  -5   4   -2.14    3.07
   6   5   4   -0.24    1.97
   6  -5   4    5.56    4.72
  -6  -5   5  337.52   25.11
   6  -5   5  329.17   18.74
   6  -5  -5  341.44   27.23
   6  -5   5  257.33   24.71
  -6  -5  -5  310.57   25.00
   6  -5  -5  362.12   24.76
  -6   5   5  311.97   27.26
  -6  -5   5  290.92   20.56
   6   5   5  338.49   19.81
   6  -5   6  126.50   11.97
  -6  -5   6  154.04   17.54
   6  -5   6  133.89   17.76
   6  -5  -6  145.63   18.42
  -6  -5  -6  112.05   15.02
   6  -5  -6  147.72   15.79
  -6   5   6  168.91   20.95
  -6  -5   6  133.24   14.54
   6   5   6  140.57   13.35
   6  -5   7  189.25   20.68
  -6  -5   7  217.50   20.83
  -6  -5  -7  161.27   18.01
   6  -5  -7  195.55   20.31
   6  -5  -7  208.76   20.22
  -6   5   7  211.33   22.05
  -6  -5   7  179.19   17.61
   6   5   7  208.24   17.30
   6   5   8   21.05    7.51
  -6  -5   8    6.51    3.53
  -6  -5  -8   19.93    6.88
   6  -5   8   12.28    4.91
  -6   5   8    8.95    4.71
   6  -5  -8   17.62    7.29
  -6  -5   8    5.65    3.13
   6  -5  -8   23.83    7.55
  -6  -5   9  187.61   20.47
  -6  -5  -9  183.76   20.00
   6  -5  -9  200.65   20.51
  -6   5   9  204.64   21.45
  -6  -5   9  182.07   19.05
   6  -5  -9  219.78   22.76
   6   5   9  196.26   18.39
   6  -5   9  185.07   20.99
  -6  -5  10   16.86    5.90
   6   5  10   19.71    4.07
   6  -5  10   13.96    6.70
  -6  -5 -10   18.43    6.99
  -6   5  10   15.47    3.65
   6  -5 -10   13.91    6.46
   6  -5 -10   17.79    8.97
  -6  -5  10    6.85    3.46
  -6  -5  11   22.40    6.26
   6   5  11   14.52    4.79
   6  -5  11    2.86    2.84
  -6  -5 -11   24.03    7.49
  -6   5  11   24.21    6.85
   6  -5 -11   28.08   11.30
  -6  -5  11   12.60    5.55
  -6  -5  12   33.19    9.39
   6   5  12   43.02   10.47
   6  -5  12   30.49   11.69
  -6  -5 -12   45.93   10.51
  -6   5  12   44.33   10.89
   6  -5 -12   47.28   11.08
  -6  -5  12   42.64   11.73
  -6  -5 -13  192.55   22.89
  -6   5  13  225.56   24.81
   6  -5 -13  210.19   23.00
  -6  -5  13  209.63   22.66
   6  -5  13  245.76   24.44
   6   5  13  255.11   23.67
  -6  -5  13  252.91   26.11
   6  -5  14   54.19   11.96
   6   5  14   70.18   13.30
  -6  -5 -14   75.07   17.55
  -6   5  14   44.25   10.57
   6  -5 -14   68.89   14.85
  -6  -5  14   43.47   12.08
   6  -5  15   22.37    9.16
   6   5  15   30.20   10.38
  -6  -5 -15   -1.14    8.00
  -6   5  15   16.22    7.38
   6  -5 -15   16.83    6.30
  -6  -5  15   27.79   10.53
  -6   5  15   23.17    6.91
   6  -5  16   19.59    7.80
   6   5  16   18.38    7.58
  -6   5  16   18.87    7.19
  -6  -5  16   14.88    8.67
  -6   5  16   39.86   11.33
   6   5  17    8.81    5.48
  -6   5  17    1.60    5.13
  -6  -5  17   -1.30    5.46
  -6   5  17    2.86    4.92
   6  -5  17    3.26    3.27
   6  -5  18  249.92   26.19
  -6   5  18  183.26   23.62
  -6  -5  18  178.45   23.02
  -6   5  18  190.87   23.78
   6   5  18  266.81   26.97
   6   5  19   65.02   13.86
  -6   5  19   63.62   15.76
  -6  -5  19   48.33   14.50
  -6   5  19   36.09    9.10
   6  -5  19   33.80    9.32
   6   5  20    1.17    5.78
  -6   5  20   -4.37    8.55
  -6  -5  20   -4.73    5.62
   6  -5  20    2.47    3.28
  -6   5  20   -2.83    5.43
   6   5  21   47.58   13.29
  -6   5  21   69.60   16.66
  -6  -5  21   60.63   15.37
   6  -5  21   64.69   14.77
  -6   5  21   56.73   15.56
   6   5  22    0.31    5.05
  -6   5  22   -1.59    8.27
  -6  -5  22   -7.58    6.90
   6  -5  22   -3.72    5.27
  -6   5  22   -5.04    4.70
   6   5  23   21.43    9.89
  -6   5  23   17.37    8.51
  -6  -5  23   40.31   14.09
   6  -5  23   22.39    6.78
  -6   5  23   10.84    4.90
   6  -5  23   10.64    7.62
   6  -5  24  163.12   23.85
  -6  -5  24  133.08   23.96
  -6   5  24  107.04   20.76
   6  -5  24  168.41   24.40
  -6   5  24   96.58   18.43
   6   5  24  128.69   21.30
   6   5  25   41.21   14.81
  -6   5  25   38.22   13.23
   6  -5  25   38.95   12.31
  -6  -5  25   13.63   12.44
  -6   5  25   30.61   12.74
   6  -5  25   34.66   11.45
   6   5  26    4.10    7.50
   6  -5  26   -5.22    6.24
  -6   5  26    7.44    7.03
  -6  -5  26    0.50    6.79
  -6   5  26   12.50    7.44
   6  -5  26   10.91   11.63
   6   5  27   -8.07    7.42
   6  -5  27    7.45    7.59
  -6   5  27    5.64    8.00
  -6  -5  27   14.46   13.34
  -6   5  27  -12.45    8.12
   6  -5  27   -4.94    5.82
  -6  -6   0    0.25    2.25
   6  -6   0    1.70    3.47
   6  -6   0    0.24    3.54
  -6  -6   1  254.49   23.94
  -6  -6  -1  269.69   24.22
   6  -6   1  254.01   19.79
   6  -6  -1  229.25   19.94
  -6   6   1  239.99   23.52
   6  -6   1  251.35   24.05
   6  -6  -1  221.41   23.73
   6  -6   2   19.59    7.34
   6  -6   2   25.12    5.66
  -6  -6  -2   15.70    6.54
   6  -6  -2   15.91    3.46
  -6   6   2    5.12    5.47
   6  -6  -2   18.10    6.84
   6  -6   3   23.16    8.31
   6  -6  -3   -1.63    5.30
  -6  -6   3   14.53    4.70
   6  -6   3   15.21    4.22
  -6  -6  -3   14.43    6.22
   6  -6  -3   10.74    3.90
  -6   6   3   22.66    6.38
  -6  -6   4 1028.48   47.52
   6  -6   4  968.36   37.50
  -6  -6  -4  957.70   46.29
   6  -6   4 1053.86   50.98
   6  -6  -4  961.84   42.43
  -6   6   4 1073.02   51.53
   6  -6  -4 1032.16   50.06
   6  -6   5   62.06    8.98
  -6  -6   5   68.46   12.00
   6  -6   5   80.15   14.91
  -6  -6  -5   78.99   14.11
   6  -6  -5   73.68   12.07
  -6   6   5   91.07   15.78
   6  -6  -5   60.52   12.32
  -6  -6   6   50.59    9.96
   6  -6   6   32.78    7.46
  -6  -6  -6   40.51    9.64
  -6   6   6   47.50   12.11
   6  -6  -6   42.91    9.73
   6  -6   6   40.48   10.75
   6  -6  -6   30.92   10.15
   6   6   6   42.41    7.21
  -6  -6   7  281.05   25.85
   6  -6   7  282.55   26.97
  -6  -6  -7  307.83   26.85
   6  -6  -7  346.18   28.50
   6  -6  -7  289.66   24.68
  -6   6   7  291.74   27.15
   6   6   7  256.03   19.90
  -6  -6   8   17.58    8.38
   6  -6  -8   29.47    9.14
  -6  -6  -8   16.05    6.99
   6  -6   8   35.82   10.54
  -6   6   8   23.68    9.56
   6  -6  -8   27.56    8.14
   6   6   8   22.05    6.75
   6   6   9    5.15    2.07
   6  -6  -9   15.17    5.91
  -6  -6   9    5.11    3.25
  -6  -6  -9    8.85    3.33
   6  -6   9   12.99    7.68
  -6   6   9    9.42    5.27
   6  -6  -9   23.70    7.42
   6   6  10   60.02   10.75
  -6  -6  10   63.28   13.59
   6  -6  10   67.19   13.49
  -6  -6 -10   50.59   10.82
  -6   6  10   72.02   14.58
   6  -6 -10   60.34   13.10
   6  -6 -10   65.68   12.85
  -6  -6  11  416.57   33.71
  -6  -6 -11  391.93   32.04
   6  -6 -11  388.62   31.86
  -6   6  11  383.04   31.54
   6  -6 -11  361.77   31.75
   6   6  11  386.59   28.01
   6  -6  11  406.77   32.08
  -6  -6  12  193.70   23.69
  -6  -6 -12  186.65   21.46
  -6   6  12  148.92   20.46
   6  -6 -12  168.88   21.96
   6  -6  12  193.71   22.96
   6   6  12  149.66   18.66
  -6  -6  13   58.39   12.00
   6   6  13   37.71   10.57
   6  -6  13   27.65    8.62
  -6  -6 -13   31.39    8.09
  -6   6  13   38.88   11.29
   6  -6 -13   30.51   11.08
  -6  -6  14  444.17   35.75
  -6  -6 -14  531.17   38.53
  -6   6  14  460.89   36.57
   6  -6 -14  494.33   37.47
   6  -6  14  538.21   38.63
   6   6  14  499.57   34.90
  -6  -6 -15  150.24   21.48
  -6   6  15  160.15   22.07
   6  -6 -15  177.80   23.47
  -6  -6  15  131.21   21.94
   6  -6  15  157.63   21.64
   6   6  15  145.53   19.90
  -6  -6  15  134.06   19.33
   6  -6  16   73.45   13.56
   6   6  16   61.22   12.71
  -6  -6  16   87.96   19.28
  -6   6  16   75.28   15.60
   6  -6 -16   76.10   16.36
  -6   6  16   67.70   15.54
   6  -6  17   25.38    7.48
   6   6  17   21.99   10.39
  -6   6  17   27.20    8.61
   6  -6 -17   22.44    7.62
  -6   6  17   30.19    6.66
  -6  -6  17   47.49   12.77
  -6   6  18  138.00   20.71
   6  -6 -18  122.91   21.92
   6  -6  18  105.67   17.72
  -6  -6  18  108.59   19.85
  -6   6  18  122.28   19.09
   6   6  18  137.05   19.45
   6   6  19   33.36   10.40
  -6   6  19   29.95   10.19
   6  -6 -19    8.61    3.90
  -6  -6  19   16.86   11.41
  -6   6  19   20.41    7.96
   6  -6  19   11.69    6.11
   6   6  20   19.71    6.19
  -6   6  20    7.93    6.00
   6  -6 -20   17.60   12.60
  -6  -6  20   10.44    5.38
  -6   6  20   17.04    8.89
   6  -6  20   15.57    7.98
   6   6  21   19.45    3.27
  -6   6  21   28.31    9.03
   6  -6 -21   10.47    4.44
  -6  -6  21   14.85    8.37
  -6   6  21   19.64    9.02
   6   6  22  109.40   17.36
   6  -6  22  118.22   20.00
  -6   6  22  141.60   23.54
   6  -6 -22   74.31   19.34
  -6   6  22  108.90   19.83
  -6  -6  22  122.60   19.08
   6   6  23   27.60    7.29
  -6   6  23   73.88   15.30
   6  -6 -23   46.87   16.26
  -6  -6  23   49.58   15.38
   6  -6  23   58.66   14.51
  -6   6  23   51.10   14.24
   6   6  24  107.57   18.98
  -6   6  24  111.50   21.94
   6  -6 -24  110.91   22.13
  -6  -6  24   89.86   20.90
   6  -6  24   91.79   17.19
  -6   6  24  103.38   19.90
   6  -6  24  114.78   20.52
   6   6  25  121.81   20.60
   6  -6  25  132.59   21.18
  -6   6  25  102.35   19.38
   6  -6 -25   86.30   18.68
  -6  -6  25  121.69   23.68
  -6   6  25   66.71   16.80
   6  -6  25  132.65   23.18
   6  -6  26  150.14   23.42
   6  -6 -26  140.35   24.87
  -6   6  26  110.67   21.41
  -6  -6  26   99.05   20.58
  -6   6  26  107.65   20.82
   6   6  26  193.86   27.22
   6  -6  26  126.64   22.14
  -6  -7   0  196.76   22.51
   6  -7   0  209.69   20.77
   6  -7   0  265.07   26.18
  -6  -7   1  223.97   23.21
  -6  -7  -1  179.50   21.25
   6  -7   1  133.91   15.65
   6  -7  -1  173.51   18.96
   6  -7   1  214.36   23.41
   6  -7  -1  163.73   21.02
  -6  -7   2  291.61   26.02
   6  -7   2  298.21   23.45
  -6  -7  -2  332.69   27.93
   6  -7  -2  309.66   24.76
   6  -7   2  320.99   29.50
  -6   7   2  313.21   27.24
   6  -7  -2  314.16   28.78
  -6  -7   3  131.27   17.97
   6  -7   3  114.82   14.00
  -6  -7  -3   88.94   14.83
   6  -7  -3  109.80   15.81
   6  -7   3  111.26   17.59
  -6   7   3  108.20   18.25
   6  -7  -3  144.92   18.87
   6  -7   4   -0.29    5.35
  -6  -7   4    2.21    5.54
   6  -7   4   -1.55    5.14
   6  -7  -4    1.37    5.90
  -6  -7  -4   -0.29    7.14
   6  -7  -4   -2.27    3.68
  -6   7   4   12.96    6.69
  -6  -7   5   32.82   10.10
   6  -7   5   38.83    7.88
  -6  -7  -5   22.59   10.74
   6  -7  -5   33.75    8.71
   6  -7  -5   16.79    7.27
  -6   7   5   36.45    8.58
   6  -7   5   45.20   11.25
  -6  -7   6    4.90    4.13
   6  -7   6    4.91    2.04
  -6  -7  -6    6.24    5.69
   6  -7  -6   -0.11    3.57
  -6   7   6    6.21    3.78
   6  -7  -6    1.31    3.57
   6  -7   6   -3.31    2.98
   6  -7  -7    0.97    5.39
  -6  -7   7    0.30    4.42
  -6  -7  -7   -2.26    6.29
   6  -7  -7    2.20    3.38
  -6   7   7   -1.23    5.34
   6  -7   7    0.31    5.22
  -6  -7   8   -5.70    4.35
   6  -7  -8    2.05    6.39
  -6  -7  -8    4.21    5.95
  -6   7   8    0.33    3.52
   6  -7  -8    2.21    6.64
   6  -7   8   -0.11    3.16
   6   7   8    0.62    2.15
  -6  -7   9   17.00    6.87
  -6  -7  -9   23.98   10.72
   6  -7   9   15.86    6.35
  -6   7   9   19.60    7.13
   6  -7  -9   10.82    3.68
   6  -7  -9   -0.69    3.86
   6   7   9   13.98    4.37
  -6  -7  10   91.77   15.23
  -6  -7 -10  129.70   18.94
   6  -7 -10  108.17   17.08
  -6   7  10   94.99   16.18
   6  -7 -10  101.17   15.87
   6   7  10  124.22   16.95
   6  -7  10  109.53   16.99
  -6  -7  11   -2.46    3.38
   6  -7  11   -2.52    2.81
  -6  -7 -11   -2.19    3.37
   6  -7 -11   -7.03    3.18
  -6   7  11   -1.64    3.10
   6  -7 -11   -1.64    4.75
   6   7  11   -4.72    3.15
  -6  -7  12   19.67    9.64
   6  -7  12   14.68    7.59
   6  -7 -12    6.79    3.41
  -6  -7 -12   21.45    8.84
  -6   7  12   14.23    7.26
   6  -7 -12   25.91    8.92
   6   7  12   21.33    7.97
   6   7  13   28.59    9.13
  -6  -7  13   17.22    6.82
   6  -7  13   20.00    6.87
  -6  -7 -13    6.25    3.51
  -6   7  13   10.43    3.46
   6  -7 -13   13.61    6.92
   6  -7 -13   18.01    8.84
  -6  -7  14   60.93   13.77
  -6  -7 -14   62.40   14.34
  -6   7  14   74.76   15.87
   6  -7 -14   87.62   16.12
   6  -7  14   97.76   17.40
   6   7  14   79.28   16.05
   6   7  15   42.21   11.52
  -6  -7  15   11.08    4.70
   6  -7  15   31.92    9.47
  -6  -7 -15   18.03    7.79
  -6   7  15   27.87    8.90
   6  -7 -15   33.39    8.98
  -6  -7  16   12.60    5.41
   6   7  16   19.10   10.13
   6  -7  16    3.49    4.02
  -6   7  16    3.05    3.94
   6  -7 -16   13.43    6.26
   6   7  17   10.55    4.78
   6  -7  17   31.24   10.51
  -6  -7 -17   -5.65    4.61
  -6   7  17   23.33    9.63
   6  -7 -17   12.16    6.18
  -6  -7  17   10.43    5.90
   6  -7  18   43.31   11.68
   6   7  18   26.87    8.08
  -6   7  18   44.17   12.91
   6  -7 -18   47.79   13.84
   6  -7  19   -0.75    2.89
   6   7  19    2.87    4.35
  -6   7  19   -1.30    5.64
   6  -7 -19    3.99    8.62
  -6   7  19    6.60    8.43
   6   7  20   19.03    7.46
  -6   7  20   13.32    6.48
   6  -7 -20   11.36    6.23
  -6   7  20   15.55    9.36
   6  -7  20   11.31    9.70
   6   7  21   -0.93    4.43
  -6   7  21    7.08    4.53
   6  -7 -21    9.06    9.03
  -6   7  21   -8.17    7.64
   6  -7  21    4.29    3.35
   6   7  22   34.09   12.28
  -6   7  22   41.56   14.61
   6  -7 -22   47.87   13.20
  -6   7  22   21.93    8.18
   6  -7  22   16.50    6.91
   6   7  23   -3.01    7.72
  -6   7  23    5.24    9.23
   6  -7 -23   -9.69    9.48
  -6   7  23   -3.07    5.75
   6  -7  23   -4.36    5.84
   6   7  24   -0.71    4.21
  -6   7  24    6.14    6.43
   6  -7 -24   12.75   10.18
   6  -7  24    0.92    3.90
  -6   7  24   -2.68    8.27
   6  -7  24    3.55    4.34
  -6   7  25   -5.19    4.62
   6  -7 -25   -4.57    6.90
   6  -7  25   -1.28    3.66
  -6   7  25   -5.47    6.37
   6  -7  25   -6.35    6.66
  -6  -8   0   13.34    9.96
   6  -8   0   19.26    5.78
   6  -8   0   17.85    7.40
  -6  -8   1   31.20    9.79
  -6  -8  -1   29.95   10.55
   6  -8   1   18.27    7.40
   6  -8  -1   12.70    4.20
   6  -8   1    9.95    6.20
   6  -8  -1   15.42    5.30
  -6  -8   2   22.36    9.83
   6  -8   2   14.14    7.12
   6  -8   2   59.07   12.09
  -6  -8  -2   36.98    9.53
   6  -8  -2   37.59    9.94
   6  -8  -2   31.73   10.91
  -6  -8   3  242.10   25.84
   6  -8   3  284.38   25.00
  -6  -8  -3  277.70   28.28
   6  -8  -3  269.76   25.46
   6  -8   3  364.19   33.19
  -6   8   3  291.88   27.66
   6  -8  -3  301.20   29.54
  -6  -8  -4   87.95   16.27
  -6  -8   4   72.84   13.34
   6  -8   4   71.11   11.78
   6  -8  -4   69.73   15.20
   6  -8   4   87.30   16.51
   6  -8  -4   53.77   12.79
  -6   8   4   91.09   16.27
  -6  -8   5  299.96   27.74
   6  -8   5  270.41   24.22
   6  -8   5  312.02   29.95
   6  -8  -5  316.25   28.42
  -6   8   5  283.87   28.41
   6  -8  -5  287.29   28.40
  -6  -8   6   -1.00    6.18
  -6  -8  -6   -1.75    4.12
   6  -8  -6    1.05    4.41
  -6   8   6    6.17    6.36
   6  -8  -6    1.68    2.92
   6  -8   6    4.98    2.96
  -6  -8   7  584.77   40.71
   6  -8  -7  646.29   43.10
   6  -8   7  592.99   40.73
  -6  -8  -7  637.95   42.40
   6  -8  -7  616.68   40.57
  -6   8   7  627.88   42.07
   6  -8  -8    2.04    5.17
  -6  -8   8   -3.34    3.10
  -6  -8  -8    1.02    3.58
   6  -8  -8   -1.68    3.78
  -6   8   8   -2.18    8.60
   6  -8   8   -1.78    2.57
  -6  -8   9   62.79   15.11
   6  -8  -9   52.48   12.63
  -6  -8  -9   63.31   14.45
   6  -8   9   43.15   12.87
   6  -8  -9   61.09   12.82
  -6   8   9   37.68   14.17
  -6  -8  10   39.86   11.34
  -6  -8 -10   31.44   10.49
   6  -8  10   35.95   10.75
  -6   8  10   27.94    8.10
   6  -8 -10   10.96    3.76
   6  -8 -10   31.53    8.69
  -6  -8  11  229.62   24.80
   6  -8 -11  251.97   26.73
   6  -8 -11  294.23   29.88
  -6   8  11  290.79   29.64
   6  -8  11  251.37   27.00
  -6  -8  12    7.41    7.79
   6  -8  12    7.56    6.36
   6  -8 -12   15.25    7.13
  -6  -8 -12    5.61    4.03
  -6   8  12   20.82    9.16
   6  -8 -12   16.85    8.40
   6   8  12   14.32    6.89
  -6  -8  13   -0.24    6.49
   6  -8  13   -0.64    4.08
  -6  -8 -13    6.49    4.85
  -6   8  13   -6.32    7.79
   6  -8 -13    2.10    4.79
   6   8  13   10.18    5.23
  -6  -8  14   22.90   11.87
   6  -8  14   17.11    6.17
  -6  -8 -14   13.91    7.27
  -6   8  14   14.03    7.60
   6  -8 -14    8.15    4.27
   6  -8 -14   22.84   12.23
   6   8  14   20.01    5.95
  -6  -8  15  585.39   42.82
   6  -8 -15  570.95   42.99
  -6  -8 -15  530.93   42.20
   6  -8 -15  550.12   43.18
  -6   8  15  535.67   40.51
   6   8  15  635.36   43.13
  -6  -8  16    4.22    5.00
   6  -8  16    5.00    4.99
  -6  -8 -16   10.46    6.13
  -6   8  16    5.09    5.77
   6  -8 -16    8.91    5.92
   6   8  16   11.24    4.70
  -6  -8  17  194.53   24.34
  -6  -8 -17  266.09   32.18
   6  -8 -17  212.56   26.24
  -6   8  17  276.40   30.13
   6  -8  17  240.21   27.45
   6   8  17  258.04   28.38
   6   8  18    0.33    3.54
   6  -8  18   -5.45    6.43
  -6   8  18   -1.36    6.63
   6  -8 -18   -0.16    6.91
  -6  -8  18   -2.71    3.41
   6  -8 -19  169.51   24.40
  -6   8  19  140.47   22.50
   6  -8  19  164.18   23.13
   6   8  19  214.73   26.66
   6  -8  20   20.94   11.95
   6   8  20   12.95    4.86
  -6   8  20   17.38    8.05
   6  -8 -21  228.39   30.32
  -6   8  21  203.19   26.54
   6  -8  21  197.55   25.93
   6   8  21  202.33   26.72
   6   8  22   36.23   13.64
  -6   8  22   31.15    9.82
   6  -8 -22   31.58   10.85
  -6   8  22   36.61   13.93
   6  -8  22   30.46   10.55
   6   8  23   74.32   15.73
  -6   8  23   92.52   18.21
   6  -8 -23   87.53   17.35
  -6   8  23   72.99   18.01
   6  -8  23   96.20   18.58
   6   8  24    9.17    4.64
  -6   8  24    4.02    7.38
   6  -8 -24   11.07    8.32
  -6   8  24    4.25    6.61
   6  -8  24   19.84    9.74
   6  -8  24   -3.24    4.03
  -6  -9   0  141.66   20.45
   6  -9   0  135.25   19.93
   6  -9   0  154.48   21.60
  -6  -9   1    0.23    3.08
  -6  -9  -1    7.63    6.93
   6  -9   1    7.24    5.08
   6  -9  -1    0.41    4.50
   6  -9   1    5.47    7.27
   6  -9  -1   -0.94    5.46
  -6  -9   2    1.26    5.54
   6  -9   2    8.78    6.73
   6  -9   2  -13.57    9.52
  -6  -9  -2    2.36    5.05
   6  -9  -2    5.20    5.93
   6  -9  -2    3.65    5.94
   6  -9  -3    3.81    5.67
   6  -9   3   -0.96    5.25
  -6  -9   3   10.67    8.34
   6  -9   3   -0.71    5.61
  -6  -9  -3    3.14    3.77
   6  -9  -3   -1.02    5.98
   6  -9   4    0.41    5.31
   6  -9  -4    2.86    3.06
  -6  -9   4    3.26    4.95
   6  -9   4   -2.15    5.87
  -6  -9  -4   -0.35    3.94
   6  -9  -4    5.32    7.16
  -6   9   4   13.31    7.06
  -6  -9   5  278.33   28.95
  -6  -9  -5  213.86   25.67
   6  -9  -5  241.13   26.34
   6  -9   5  231.17   26.89
  -6   9   5  258.75   28.90
   6  -9  -5  223.11   25.10
  -6  -9   6   76.50   14.69
  -6  -9  -6  102.98   18.65
   6  -9   6  104.51   19.14
   6  -9  -6   54.42   12.07
   6  -9  -6   91.14   16.62
  -6   9   6  104.72   17.27
  -6  -9   7   -1.22    5.04
  -6  -9  -7    1.87    7.03
   6  -9  -7   -4.08    7.21
  -6   9   7    5.72    6.09
   6  -9  -7   -0.41    5.30
   6  -9   7   -4.56    3.40
   6  -9  -8   40.95   11.61
  -6  -9   8   69.96   14.72
  -6  -9  -8   30.28   11.36
  -6   9   8   39.85   12.61
   6  -9   8   56.56   12.03
   6  -9  -8   51.34   13.19
   6  -9  -9    6.83    6.26
  -6  -9   9   22.89   11.24
  -6  -9  -9    9.67    7.15
  -6   9   9   26.23    8.37
   6  -9   9   27.31   10.39
   6  -9  -9    1.77    6.70
  -6  -9  10   29.67   10.27
   6  -9 -10   21.94    9.77
  -6  -9 -10   28.40    9.55
   6  -9 -10   13.34    8.94
  -6   9  10   26.00   10.50
   6  -9  10   15.02    7.62
  -6  -9  11   11.52    6.18
  -6  -9 -11   19.23    7.09
   6  -9  11   34.20   13.01
   6  -9 -11   19.47    9.36
   6  -9 -11   17.48    4.35
  -6   9  11    9.68    5.67
  -6  -9  12   -0.66    7.81
   6  -9  12    1.25    5.75
  -6  -9 -12   36.20   12.79
   6  -9 -12   16.89    7.03
  -6   9  12   25.58   11.51
   6  -9 -12   46.74   14.02
  -6  -9  13    1.84    6.88
   6  -9 -13   18.48    7.83
   6  -9  13   37.53   12.35
  -6  -9 -13   19.29   10.99
  -6   9  13   20.30    9.43
   6  -9 -13   21.79    9.48
  -6  -9  14   27.95   11.19
   6  -9  14   43.03   12.37
  -6  -9 -14   10.85    7.41
   6  -9 -14   61.08   14.45
  -6   9  14   33.20   10.85
   6  -9 -14   36.01    9.49
  -6  -9  15   10.93    6.61
   6  -9 -15   11.11    8.41
   6  -9  15    1.80    8.36
  -6  -9 -15    0.61    6.61
  -6   9  15    5.83    4.84
   6  -9 -15   13.09    5.04
  -6  -9  16    4.96    5.79
   6  -9  16   12.35    8.45
  -6  -9 -16    6.38    4.10
  -6   9  16   12.30    8.52
   6  -9 -16    5.86    8.09
   6  -9 -16    1.92    5.77
  -6  -9  17   23.68   12.42
   6  -9  17   17.63    7.92
   6  -9 -17   21.22    6.53
  -6  -9 -17   40.30   18.60
  -6   9  17   27.71   11.22
   6  -9 -17   23.40   11.14
  -6  -9  18    6.70    5.98
   6  -9  18    4.94    5.94
  -6   9  18   -1.62    6.17
   6  -9 -18   -5.64    5.07
   6   9  18    1.40    5.25
   6  -9  19   -4.24    8.62
  -6   9  19    1.54    4.57
   6  -9 -19    2.64    6.47
   6   9  19   -0.42    8.81
  -6  -9  19   10.07    8.78
   6  -9  20   29.41   11.62
  -6   9  20   42.21   12.53
   6  -9 -20   19.52    8.82
   6   9  20   35.44   12.47
   6  -9  21   33.85   10.31
  -6   9  21   62.66   17.34
   6  -9 -21   49.58   15.58
   6   9  21   36.54   10.76
  -6   9  22   52.70   14.59
   6  -9 -22   31.59   12.06
   6  -9  22   46.61   13.65
   6   9  22   30.69   10.00
  -6 -10   0  195.39   24.79
   6 -10   0  144.98   20.14
   6 -10   0  129.76   20.85
  -6 -10   1   13.91    4.75
  -6 -10  -1   29.23   10.95
   6 -10   1   18.78    7.96
   6 -10  -1   24.16   10.71
   6 -10   1    7.56    8.02
   6 -10  -1   17.38    4.93
  -6 -10   2   -0.07    6.42
   6 -10   2   10.40    8.41
   6 -10   2    6.78    6.56
  -6 -10  -2   11.76    9.90
   6 -10  -2    0.25    5.05
   6 -10  -2    1.33    6.82
   6 -10   3   62.67   13.90
  -6 -10   3   74.50   17.62
   6 -10   3   78.05   14.74
  -6 -10  -3  118.50   18.71
   6 -10  -3   72.52   16.37
   6 -10  -3   69.83   15.81
  -6 -10   4  159.79   23.78
  -6 -10  -4  129.96   20.86
   6 -10  -4  203.87   25.29
   6 -10   4  191.92   26.23
   6 -10  -4  214.00   25.45
  -6 -10   5    6.29    6.49
   6 -10  -5   12.82    9.09
  -6 -10  -5   16.01    7.14
   6 -10  -5   20.49    9.56
  -6  10   5   21.05    8.84
   6 -10   5   14.90    8.93
  -6 -10   6   72.84   15.38
  -6 -10  -6   88.16   16.66
   6 -10  -6   89.57   16.98
   6 -10  -6   67.09   14.04
  -6  10   6   66.39   15.93
   6 -10   6   75.15   16.38
  -6 -10   7    0.07    4.74
  -6 -10  -7   14.46    8.04
   6 -10  -7   17.68    8.37
   6 -10  -7   29.61   10.53
  -6  10   7    4.68    5.48
   6 -10   7   11.33    8.69
  -6 -10   8  204.36   25.22
   6 -10  -8  223.52   27.42
   6 -10   8  238.08   27.24
  -6 -10  -8  177.08   25.85
   6 -10  -8  222.40   26.47
  -6  10   8  246.44   28.64
  -6 -10   9    1.06    3.46
  -6 -10  -9   -5.19    5.83
  -6  10   9    0.81    4.15
   6 -10  -9   11.66    6.86
   6 -10   9    3.02    5.48
   6 -10  -9    0.99    4.94
  -6 -10  10   63.97   14.21
   6 -10 -10   89.09   18.05
  -6 -10 -10   70.56   19.12
  -6  10  10   52.89   12.90
   6 -10  10   42.56   11.52
   6 -10 -10   43.36   14.24
  -6 -10  11  142.02   20.64
   6 -10 -11  203.82   26.58
  -6 -10 -11  182.40   26.56
   6 -10 -11  145.86   22.15
  -6  10  11  175.61   24.31
   6 -10  11  216.15   27.68
  -6 -10  12  123.00   22.41
  -6 -10 -12  120.69   21.91
   6 -10 -12  107.55   19.66
   6 -10  12   84.79   16.47
  -6  10  12  139.31   21.54
   6 -10 -12  120.73   20.03
  -6 -10  13   -1.84    4.90
   6 -10  13    6.69    6.98
  -6 -10 -13   -1.23    5.56
   6 -10 -13    2.61    6.28
  -6  10  13   -5.71    6.51
   6 -10 -13    4.20    4.60
  -6 -10  14  202.10   26.16
  -6 -10 -14  191.72   26.94
   6 -10 -14  259.66   30.24
   6 -10 -14  179.15   24.95
  -6  10  14  193.79   26.80
   6 -10  14  194.42   24.37
  -6 -10  15  103.15   18.64
   6 -10  15   85.71   16.05
   6 -10 -15   98.02   18.80
  -6 -10 -15   83.88   18.11
  -6  10  15  121.26   21.77
   6 -10 -15   83.91   17.99
  -6 -10  16   11.16    7.12
   6 -10  16    7.33    5.27
  -6 -10 -16   15.48    9.43
   6 -10 -16   11.38    6.00
  -6  10  16    2.10    7.86
   6 -10 -16   13.12   11.13
  -6 -10  17   10.87    7.25
   6 -10  17    4.23    7.31
  -6 -10 -17   -6.98    4.55
  -6  10  17   23.02   10.33
   6 -10 -17   -1.19    7.92
   6 -10 -17    1.58    6.25
  -6 -10  18  111.56   20.57
  -6  10  18  115.58   22.20
   6 -10 -18  108.63   22.01
   6 -10  18   96.54   19.18
   6 -10 -18  144.61   22.85
  -6 -10  19   45.38   12.92
   6 -10  19   53.87   12.82
   6 -10 -19   54.06   13.61
  -6  10  19   27.82   10.86
   6 -10 -19   60.54   15.75
   6 -10  20    8.29    7.35
   6 -10 -20    0.31    4.58
  -6  10  20  -14.37   10.52
   6 -10 -20   -4.88   12.07
  -6 -10  20    4.64    9.07
   6 -10 -21  183.12   27.05
  -6  10  21  191.23   29.11
   6 -10  21  180.92   24.93
  -6 -11   0   42.06   13.35
   6 -11   0   30.09    9.08
   6 -11   0   31.34    8.59
  -6 -11   1   52.15   15.73
  -6 -11  -1   47.85   14.56
   6 -11   1   59.33   15.76
   6 -11  -1   45.88   11.57
   6 -11   1   38.89   13.20
   6 -11  -1   41.48   12.03
  -6 -11   2   58.42   15.25
   6 -11   2   13.94    9.13
  -6 -11  -2   39.94   14.27
   6 -11  -2   34.54   12.89
   6 -11  -2   24.22    6.81
  -6 -11   3  104.90   19.25
   6 -11   3   85.45   17.42
  -6 -11  -3  103.59   19.38
   6 -11  -3   89.55   16.98
   6 -11  -3   90.32   17.14
   6 -11  -4   13.40    9.21
   6 -11   4    2.44    3.31
  -6 -11   4   26.79   10.27
  -6 -11  -4    3.54    8.22
   6 -11  -4    6.32    6.29
   6 -11  -5    3.93    2.86
  -6 -11   5    8.00    9.57
  -6 -11  -5   -4.81    8.98
   6 -11  -5   -0.96    5.47
   6 -11   5    3.72    4.35
  -6 -11   6   19.01   10.63
   6 -11  -6    4.97    5.60
   6 -11  -6    3.09    6.00
  -6  11   6    1.37    6.18
   6 -11   6    2.50    4.17
  -6 -11   7    3.25    6.47
  -6 -11  -7   11.85    5.95
   6 -11  -7    6.39    3.48
   6 -11  -7   17.99   11.63
  -6  11   7   16.95    7.70
   6 -11   7   18.13    7.75
  -6 -11   8    3.35    6.78
  -6 -11  -8    2.99    8.65
   6 -11  -8    6.36    8.83
   6 -11  -8   -3.56    4.42
  -6  11   8    3.29    4.10
   6 -11   8  -14.07    7.29
  -6 -11   9    7.94    7.62
  -6 -11  -9   -1.69    8.05
   6 -11  -9   15.29    8.12
  -6  11   9   23.77   11.37
   6 -11  -9   27.20   12.16
   6 -11   9   23.41    8.67
  -6 -11  10    4.87    5.50
  -6 -11 -10    2.92    6.09
   6 -11 -10   -8.93    9.28
  -6  11  10   -0.11    7.51
   6 -11  10   11.47    6.85
   6 -11 -10   11.79    9.28
  -6 -11  11   -6.55    6.64
  -6 -11 -11   -3.23    5.94
   6 -11  11   -2.40    7.97
  -6  11  11    8.14    8.79
   6 -11 -11    5.65    4.20
   6 -11 -11    7.66    7.52
  -6 -11  12   57.07   13.88
   6 -11 -12   48.90   14.48
  -6 -11 -12   46.19   15.27
   6 -11  12   58.42   14.43
   6 -11 -12   22.57    7.11
  -6  11  12   32.34    7.88
  -6 -11  13   18.40    8.96
   6 -11 -13   35.83   13.60
   6 -11  13   53.48   12.32
  -6 -11 -13   45.11   14.43
   6 -11 -13   34.39   11.79
  -6  11  13   70.15   16.32
  -6 -11  14    0.19    7.11
   6 -11  14   10.63    5.74
  -6 -11 -14   11.85    8.61
   6 -11 -14   21.67   12.86
   6 -11 -14    7.37    6.03
  -6  11  14    8.61   10.66
   6 -11  15    1.01    6.90
  -6 -11 -15    0.66    6.05
   6 -11 -15    2.01    4.66
  -6  11  15   -5.18    5.99
   6 -11 -15    7.18    5.18
  -6 -11  16   20.73    8.78
   6 -11  16   24.95    7.67
  -6 -11 -16   33.43   14.66
   6 -11 -16   19.52   11.98
  -6  11  16   22.91    9.81
   6 -11 -16   40.07   12.23
  -6 -11  17   28.38    9.57
   6 -11 -17   38.45   11.95
   6 -11  17   54.09   12.71
  -6 -11 -17   54.87   21.33
   6 -11 -17   27.84   12.54
  -6  11  17   24.78   10.43
  -6 -11  18   25.08    9.81
   6 -11  18   44.38   12.15
   6 -11 -18   53.71   14.22
   6 -11 -18   27.45   12.56
  -6  11  18   37.88   13.41
  -6 -11  19   19.64   10.21
   6 -11  19   14.98    7.93
   6 -11 -19   30.69    9.52
  -6  11  19    6.20    8.23
   6 -11 -19   18.39    8.86
  -6 -12   0   47.61   14.98
   6 -12   0   57.54   13.36
  -6 -12   1   62.05   16.04
  -6 -12  -1   48.44   14.33
   6 -12   1   28.20   12.46
   6 -12  -1   49.94   13.20
   6 -12  -1   55.16   14.03
   6 -12   2   84.55   18.13
  -6 -12   2   76.13   18.43
  -6 -12  -2   78.78   15.18
   6 -12  -2   55.49   15.92
   6 -12  -2   98.75   20.09
   6 -12   3   48.79   14.04
  -6 -12   3   55.53   14.62
  -6 -12  -3   35.11   12.71
   6 -12  -3   71.70   17.43
   6 -12  -3   53.93   14.59
   6 -12   4   32.87    8.40
  -6 -12   4   29.51   11.46
  -6 -12  -4   69.86   15.32
   6 -12  -4   48.20   13.69
   6 -12  -4   43.18   14.17
   6 -12  -5   20.44    8.79
  -6 -12   5   33.83   12.37
  -6 -12  -5   22.23   11.38
   6 -12  -5   20.54   10.46
   6 -12   5   27.57   13.42
   6 -12  -6   12.79    6.86
  -6 -12   6   24.49    8.83
  -6 -12  -6    5.42    7.15
   6 -12  -6    1.69    4.66
   6 -12   6    5.33    7.77
  -6 -12   7    7.81    9.84
   6 -12  -7   -4.18    6.59
  -6 -12  -7   10.80    8.44
   6 -12  -7    5.05   10.05
   6 -12   7    8.70    6.08
  -6 -12   8    6.00    4.96
  -6 -12  -8   12.45    7.26
   6 -12  -8   22.93   11.47
   6 -12  -8    6.23    9.97
  -6  12   8   21.39   10.74
   6 -12   8   -3.45    5.08
  -6 -12   9   64.36   15.18
  -6 -12  -9   42.22   13.65
   6 -12  -9   48.78   12.85
   6 -12  -9   32.84   12.61
  -6  12   9   31.21   13.43
   6 -12   9   41.94   11.13
  -6 -12  10    9.41    7.81
  -6 -12 -10   -0.43    6.14
   6 -12 -10   14.38   11.19
  -6  12  10    8.62    4.38
   6 -12  10   14.64    5.08
   6 -12 -10    7.40    5.92
  -6 -12  11  182.28   26.37
   6 -12 -11  173.68   25.72
  -6 -12 -11  235.46   31.68
   6 -12 -11  170.13   25.44
  -6  12  11  191.35   26.73
   6 -12  11  116.64   19.60
  -6 -12  12   -0.45    5.44
  -6 -12 -12   15.61   11.96
   6 -12  12    9.84    5.10
   6 -12 -12    5.08    7.27
  -6  12  12    4.15    4.27
   6 -12 -12   12.32    7.03
   6 -12 -13   24.89   12.39
  -6 -12  13   19.77   10.71
  -6 -12 -13    5.46    9.55
   6 -12  13   21.63    9.12
   6 -12 -13    3.43    5.15
  -6  12  13   -6.71    8.88
  -6 -12  14   35.66    9.88
   6 -12 -14   46.54   13.63
   6 -12  14   32.23   12.29
  -6 -12 -14   29.07   14.86
   6 -12 -14   21.44   11.74
  -6  12  14   51.31   18.39
  -6 -12  15    9.40   10.23
   6 -12 -15   10.89    8.65
   6 -12  15    0.64    5.73
  -6 -12 -15   -0.30    5.84
   6 -12 -15  -12.31    6.46
  -6  12  15    9.65   10.10
  -6 -12  16   51.18   12.15
   6 -12  16   83.82   17.64
  -6 -12 -16   81.23   19.75
   6 -12 -16   53.26   13.80
   6 -12 -16   49.77   14.22
  -6  12  16   63.10   17.56
  -6 -13   0   49.11   15.52
   6 -13   0   19.45   10.26
  -6 -13   1    9.79    5.09
  -6 -13  -1    7.57    5.05
   6 -13   1    1.69    6.34
   6 -13  -1   11.10    7.21
   6 -13   2   12.42    7.44
  -6 -13   2   21.62   10.20
  -6 -13  -2   14.08    7.11
   6 -13  -2   28.54   10.34
   6 -13   3   20.96    8.16
  -6 -13   3    2.60    4.85
  -6 -13  -3   14.71    6.06
   6 -13  -3   22.19    7.92
   6 -13   4   27.59   11.00
  -6 -13   4   10.87    9.07
  -6 -13  -4    5.78    6.85
   6 -13  -4   12.95    5.62
   6 -13  -4   12.77    6.69
  -6 -13   5   11.25    7.70
  -6 -13  -5   12.54    9.95
   6 -13  -5   17.68   12.79
   6 -13  -5   -5.61    3.27
   6 -13   5    1.74    4.89
   6 -13  -6   -1.49    8.48
  -6 -13   6   -3.20    5.92
  -6 -13  -6   -7.43    9.73
   6 -13  -6   -2.95    5.17
   6 -13   6    0.18    5.74
   6 -13  -7   13.91    6.05
  -6 -13   7    2.61    4.55
   6 -13  -7    3.65   12.19
   6 -13   7   18.32    8.64
  -6 -13   8    9.57    8.43
   6 -13  -8   -0.35    5.82
  -6 -13  -8   -8.25    8.37
   6 -13  -8   -2.34    8.72
   6 -13   8   -2.65    6.47
  -6 -13   9   25.05   11.92
   6 -13  -9   18.44   10.37
  -6 -13  -9   25.43   10.10
   6 -13  -9   44.96   16.09
   6 -13   9   12.64    9.50
  -6 -13  10   22.03    9.10
  -6 -13 -10   22.22   13.85
   6 -13 -10    1.61    5.94
   6 -13 -10   16.28   10.52
  -6  13  10    9.73   10.06
   6 -13  10   29.63   12.07
  -6 -13  11   55.74   15.77
  -6 -13 -11   29.29   11.29
   6 -13 -11   28.28   10.51
  -6  13  11   37.21   14.39
   6 -13 -11   37.97   11.16
   6 -13  11   72.58   16.86
  -6 -13  12    1.03    8.70
  -6 -13 -12    7.14    7.94
   6 -13 -12   18.09   15.04
   6 -13  12   12.67    7.69
  -6  13  12    0.12    5.85
   6 -13 -12    0.98    5.07
  -6 -13  13   -5.24    5.21
  -6 -13 -13    3.99    4.67
   6 -13  13    8.55    3.29
   6 -13 -13   15.69   11.08
  -6  13  13   20.58   11.91
   6 -13 -13   -0.53    5.59
  -6 -14   0   68.90   18.36
   6 -14   0  142.25   24.31
   6 -14   1   12.84    8.57
  -6 -14   1   16.33   12.59
  -6 -14  -1    4.08    6.92
   6 -14  -1    2.12    6.43
   6 -14   2   23.57   10.98
  -6 -14   2   12.08   10.76
  -6 -14  -2   21.18   11.27
   6 -14  -2   25.17    9.76
   6 -14   3   92.57   17.79
  -6 -14  -3  167.59   26.74
  -6 -14   3  111.40   20.91
   6 -14  -3  148.16   24.02
  -6 -14   4   91.52   20.31
  -6 -14  -4   61.81   17.73
   6 -14  -4   86.38   19.99
   6 -14   4   37.48   12.47
  -6 -14   5   -6.30    9.23
  -6 -14  -5    9.86    7.91
   6 -14  -5    6.84   10.15
   6 -14   5   -2.43    6.39
  -6 -14   6    3.22    8.84
  -6 -14  -6    3.31    4.54
   6 -14   6   16.12    5.42
   6 -14  -6   23.61   10.03
   6 -14  -7   91.45   19.62
  -6 -14   7   81.47   20.17
  -6 -14  -7   59.75   17.68
   6 -14   7  107.57   19.26
   6 -14  -8   76.96   17.47
  -6 -14   8   83.75   18.60
  -6 -14  -8   74.82   18.32
   6 -14  -8   86.67   19.09
   6 -14   8   83.59   17.15
   7   0   0    5.23    3.01
  -7   0   0    0.25    3.75
   7   0   1    1.92    2.08
   7   0  -1   -0.56    1.56
  -7   0   1   -3.22    4.68
   7   0   2 1287.58   37.43
   7   0  -2 1178.25   31.21
  -7   0   3    1.73    4.72
   7   0  -3    5.05    2.77
   7   0   3    1.36    1.32
   7   0  -4  631.20   23.99
  -7   0   4  663.00   36.94
   7   0  -5    2.03    1.93
  -7   0   5   -0.28    3.96
   7   0   5   -1.78    1.30
   7   0   6  224.39   18.09
  -7   0   6  169.12   19.25
  -7   0   7   -0.33    2.64
   7   0   7   -4.20    3.06
   7   0   8  783.78   36.48
  -7   0   8  846.53   43.46
  -7   0   9   -5.90    4.76
   7   0   9    1.94    4.14
   7   0  10  142.91   16.49
  -7   0  10  121.95   17.24
  -7   0  11    0.41    5.61
   7   0  11    2.54    4.22
   7   0  12  236.99   22.64
  -7   0  12  236.37   24.81
   7   0  13    7.87    5.00
  -7   0  13   -1.68    2.65
   7   0  14 1309.88   56.12
  -7   0  14 1308.70   60.56
   7   0  15   -2.46    4.07
  -7   0  15   -3.45    6.82
   7   0  16  766.91   45.30
  -7   0  16  861.62   49.91
   7   0  17   -1.27    3.69
  -7   0  17   -0.79    5.87
   7   0  18   81.55   16.14
  -7   0  18   53.77   13.64
   7   0  19   -3.55    6.18
  -7   0  19    2.93    7.84
   7   0  20  211.61   23.98
  -7   0  20  188.39   25.90
   7   0  20  168.69   24.33
   7   0  21  -10.50    5.65
   7   0  21   -1.61    9.26
   7   0  22   95.20   17.59
  -7   0  22   61.65   14.81
   7   0  22   80.27   18.24
   7   0  23    0.29    3.83
  -7   0  23   10.46   10.75
   7   0  23    8.31    5.97
   7   0  24  255.27   29.00
  -7   0  24  274.08   32.65
   7   0  24  238.60   29.97
   7   0  25    5.64    4.60
  -7   0  25   -1.19    5.17
   7   0  25    5.16    5.71
   7   0  26  163.52   24.91
  -7   0  26  155.53   25.88
   7   0  26  173.12   25.40
   7   0  27    5.02    7.82
  -7   0  27    2.17    4.30
   7   0  27    6.45    4.98
  -7  -1   0    0.86    3.39
   7  -1   0    3.14    3.06
  -7   1   0    3.91    5.59
   7  -1  -1  265.82   17.96
   7   1   1  242.49   13.19
  -7  -1   1  264.88   23.22
  -7   1   1  257.64   23.13
   7  -1   1  244.85   17.73
   7  -1  -2  428.59   23.39
   7   1   2  390.91   18.33
  -7   1   2  430.51   30.62
   7  -1   2  434.82   23.77
   7  -1  -3  227.70   16.98
   7   1   3  220.73   14.91
  -7   1   3  208.64   21.11
  -7  -1   3  239.27   22.32
   7  -1   3  220.72   17.69
   7   1   4  139.59   12.60
   7  -1  -4  114.60   11.91
  -7   1   4  162.77   18.69
  -7  -1   4  146.41   16.62
   7  -1   4  146.55   14.08
   7  -1   5    5.96    4.73
  -7   1   5    0.74    2.58
  -7  -1   5    5.79    6.15
   7   1   5    6.12    4.43
   7  -1  -5    0.07    3.26
   7   1   6  427.72   24.08
  -7   1   6  462.00   32.60
  -7  -1   6  460.29   30.89
   7  -1   6  478.19   28.35
   7  -1  -6  372.10   22.26
  -7   1   7   34.14    9.68
  -7  -1   7   35.97    8.72
   7   1   7   20.09    6.11
   7  -1  -7   22.67    6.15
   7  -1   7   35.52    8.45
   7  -1  -8  311.17   21.21
   7   1   8  309.79   22.35
  -7   1   8  360.41   28.56
  -7  -1   8  288.93   25.43
   7  -1   8  325.03   25.16
   7   1   9  239.45   20.42
   7  -1  -9  277.14   20.93
   7  -1   9  212.05   20.30
  -7   1   9  220.85   22.77
  -7  -1   9  215.07   23.52
   7   1  10   31.67    8.17
  -7   1  10   65.76   12.23
  -7  -1  10   42.48   12.03
   7  -1 -10   60.74   10.17
   7  -1  10   52.29   10.72
   7   1  11  295.90   24.70
   7  -1  11  358.97   28.02
  -7   1  11  315.31   28.15
  -7  -1  11  294.00   26.91
   7  -1  12  654.86   37.80
  -7   1  12  594.70   39.00
  -7  -1  12  713.21   43.10
   7   1  13   15.25    5.34
  -7   1  13   12.18    9.30
  -7  -1  13   16.84    5.98
   7  -1  13   14.22    5.83
   7   1  14  125.03   17.69
   7  -1  14  119.01   17.27
  -7   1  14  123.48   18.97
   7   1  15    1.08    4.54
  -7   1  15    1.13    6.91
  -7  -1  15   -2.12    7.62
   7  -1  15    5.53    5.10
   7   1  16   -4.28    4.95
  -7   1  16   -0.93    6.06
   7  -1  16    1.49    2.61
  -7  -1  16    3.64    7.11
   7   1  17   28.13    8.57
   7  -1  17    5.72    5.29
  -7   1  17   26.34   10.33
  -7  -1  17   29.53   11.13
   7   1  18   13.01    9.31
   7  -1  18    3.75    5.80
  -7   1  18   -1.94    4.60
  -7  -1  18    9.25    6.26
   7   1  19   13.38    8.76
   7  -1  19    3.27    5.98
  -7   1  19    8.57    8.84
  -7  -1  19   11.68    5.81
   7   1  19   13.64    8.15
   7   1  20   12.86    6.26
   7  -1  20   -9.37    5.10
  -7   1  20   -7.87    7.96
  -7  -1  20    0.61    4.88
   7   1  20   11.07    8.18
   7   1  21   -2.13    3.53
   7  -1  21    8.84    8.34
  -7   1  21    7.26    8.09
  -7  -1  21   -1.66    4.54
   7   1  21   -9.20   10.28
   7  -1  21    0.77    6.16
   7   1  22   -2.11    8.80
   7  -1  22   -5.57    5.28
  -7   1  22    7.27    5.72
  -7  -1  22    6.99    5.46
   7   1  22   -0.71    6.91
   7  -1  22   10.41    6.53
   7   1  23    7.52    3.65
   7  -1  23   11.66    8.58
  -7   1  23   -3.26    5.55
  -7  -1  23    2.64    4.52
   7   1  23   -0.82    6.73
   7  -1  23   -6.07    6.85
   7   1  24   -4.60    8.60
   7  -1  24   -2.78    6.40
  -7   1  24   -0.49    4.13
  -7  -1  24    4.99    4.52
   7   1  24   -3.90    9.66
   7  -1  24   -0.26    4.52
   7   1  25    1.47    6.88
   7  -1  25   -6.34    7.66
  -7   1  25   22.75   12.27
  -7  -1  25    5.85    5.88
   7   1  25   -3.27    9.12
   7  -1  25   10.02    6.81
   7   1  26    7.29    7.60
   7  -1  26    5.40    7.18
  -7   1  26    8.26    7.28
  -7  -1  26   13.91    6.09
   7   1  26   -1.71    6.13
   7  -1  26    4.10   10.60
   7   1  27   -0.52    4.34
   7  -1  27   -0.65    4.28
  -7   1  27    4.90    9.71
  -7  -1  27   -2.38    4.76
   7   1  27    0.59    4.81
   7  -1  27    1.61    7.25
  -7  -2   0    0.57    6.70
  -7   2   0    1.13    5.13
   7  -2   0   -1.30    1.50
   7  -2   1  598.41   31.50
   7  -2  -1  491.39   28.54
  -7  -2   1  608.16   33.76
  -7   2   1  547.81   35.41
  -7  -2   2  142.84   16.20
   7  -2  -2  118.94   14.04
  -7   2   2  161.06   19.68
   7  -2   2  158.92   16.16
  -7   2   3   90.99   15.36
  -7  -2   3  109.58   14.70
   7  -2  -3  102.56   13.72
   7  -2   3  104.57   12.94
   7  -2   4    1.39    4.21
   7   2   4   -0.86    1.51
  -7   2   4    2.04    3.07
  -7  -2   4   -5.51    4.77
   7  -2  -4    0.33    2.80
   7  -2  -4   -1.55    2.88
   7   2   5 1601.79   42.34
  -7   2   5 1452.85   57.70
  -7  -2   5 1605.15   55.84
   7  -2  -5 1580.44   50.04
   7  -2   5 1513.55   50.91
   7   2   6   81.04    9.82
  -7   2   6   83.06   14.16
  -7  -2   6   67.30   10.89
   7  -2   6   61.05   10.75
   7  -2  -6   84.28   12.12
   7  -2  -7  257.82   21.09
   7   2   7  329.26   21.87
  -7   2   7  295.25   26.34
  -7  -2   7  280.08   23.99
   7  -2   7  243.69   21.26
   7  -2  -8   73.31   11.61
  -7   2   8  102.22   16.34
  -7  -2   8   75.39   12.26
   7  -2   8   64.14   11.09
   7  -2   9    4.88    5.58
   7   2   9    2.70    4.02
  -7   2   9    2.34    3.70
  -7  -2   9    2.18    5.24
   7  -2  -9    1.96    3.15
   7   2  10  483.24   30.00
  -7   2  10  442.43   32.77
  -7  -2  10  560.94   36.00
   7  -2  10  511.63   32.42
   7  -2 -10  494.11   30.71
   7   2  11  118.13   15.31
   7  -2  11  109.55   15.64
  -7   2  11  119.18   18.68
  -7  -2  11   80.84   13.83
   7   2  12   22.34    7.85
  -7   2  12   38.76    9.31
  -7  -2  12   28.85    9.31
   7  -2  12   20.56    6.48
   7   2  13  261.45   24.25
   7  -2  13  274.55   25.73
  -7   2  13  272.21   27.35
  -7  -2  13  324.88   29.25
   7   2  14    2.27    2.30
  -7   2  14    7.80    6.34
  -7  -2  14    6.78    7.94
   7  -2  14   -1.77    5.29
   7   2  15   80.31   13.27
   7  -2  15  101.63   16.84
  -7   2  15   92.65   18.15
  -7  -2  15   85.14   14.85
   7   2  16  181.60   21.62
   7  -2  16  208.60   23.64
  -7   2  16  201.22   25.49
  -7  -2  16  208.46   24.95
  -7   2  17   27.21   11.33
  -7  -2  17   41.64   12.59
   7  -2  17   40.87   11.53
   7   2  17   30.22   10.30
   7   2  18    0.22    3.20
  -7   2  18   -4.18    4.59
  -7  -2  18   -8.15    5.11
   7  -2  18    2.06    3.26
   7   2  18   -0.52    5.36
   7   2  19  372.39   33.01
   7  -2  19  310.90   31.04
  -7   2  19  365.33   34.21
  -7  -2  19  297.96   31.12
   7   2  19  370.20   35.35
   7   2  20  242.85   26.67
   7  -2  20  368.63   33.87
  -7   2  20  335.65   33.41
  -7  -2  20  274.37   29.24
   7   2  20  299.62   31.69
   7   2  21   27.18   12.13
   7  -2  21   12.07    7.80
  -7   2  21    0.13    3.86
  -7  -2  21   21.10   10.43
   7   2  21   18.86    8.48
   7   2  22    6.44    5.10
   7  -2  22    4.02    6.40
  -7   2  22   10.86    7.06
  -7  -2  22    7.66    7.40
   7   2  22   -1.66    4.33
   7  -2  22   -2.47    6.48
   7   2  23  177.07   23.09
   7  -2  23  221.27   27.46
  -7   2  23  174.27   25.62
  -7  -2  23  160.58   24.36
   7   2  23  139.30   24.06
   7  -2  23  153.14   24.12
   7   2  24   17.30    9.75
   7  -2  24   10.86    3.16
  -7   2  24   23.74    9.27
  -7  -2  24   20.45   10.43
   7   2  24    4.97   10.49
   7  -2  24   -0.17    4.63
   7   2  25    6.90    7.92
   7  -2  25    2.66    4.16
  -7   2  25    5.23    6.73
  -7  -2  25   -7.68    7.41
   7   2  25   -2.33    9.93
   7  -2  25    1.04    4.42
   7   2  26   24.16    7.79
   7  -2  26   12.54    7.67
  -7   2  26   23.65    9.98
  -7  -2  26    9.91    9.91
   7   2  26   11.56    7.98
   7  -2  26   19.90   12.73
   7   2  27   18.37    6.87
   7  -2  27   19.47    8.45
  -7   2  27    6.60    7.25
  -7  -2  27   31.97   14.81
   7   2  27   37.35   13.84
   7  -2  27   20.86    8.00
   7  -3   0    3.30    5.04
  -7   3   0    0.78    3.64
   7  -3  -1   36.67    9.08
  -7  -3   1   52.62    9.26
  -7   3   1   43.54   10.76
   7  -3   1   31.65    7.65
   7  -3  -2   39.27    9.30
  -7   3   2   45.70   10.99
  -7  -3   2   44.90    8.53
   7  -3   2   38.85    9.06
  -7  -3   3   20.97    9.22
  -7   3   3    8.93    4.20
  -7  -3   3    9.45    3.37
   7  -3   3    7.21    3.60
   7  -3  -3    6.72    4.14
  -7  -3   4   72.68   11.59
   7  -3  -4   52.75    7.70
  -7   3   4   88.05   14.06
  -7  -3   4   90.90   12.89
   7  -3  -4   86.89   13.19
   7  -3   4   56.92   10.78
   7  -3  -5  732.79   31.38
  -7   3   5  811.14   43.57
   7  -3  -5  768.00   38.02
   7  -3   5  707.52   37.01
  -7  -3   5  831.97   36.28
   7   3   6   10.19    4.68
   7  -3   6    7.10    3.24
   7  -3  -6    6.47    4.97
  -7   3   6   15.22    7.20
  -7  -3   6   15.85    7.21
   7  -3  -6    4.27    2.93
   7   3   7  191.99   16.60
   7  -3  -7  153.00   17.41
  -7   3   7  152.83   18.97
  -7  -3   7  157.66   17.43
   7  -3  -7  160.85   16.26
   7  -3   7  154.90   17.99
   7   3   8  118.22   13.51
   7  -3  -8  106.85   14.32
  -7   3   8   91.28   15.04
  -7  -3   8  101.06   15.04
   7  -3   8  135.19   17.50
   7   3   9  122.85   14.94
   7  -3  -9  100.03   14.21
  -7   3   9  123.94   17.85
  -7  -3   9  114.10   15.97
   7  -3   9  115.91   16.09
   7  -3  10    2.20    4.38
   7   3  10   -2.46    4.41
   7  -3 -10    1.70    2.30
  -7   3  10   -2.34    7.33
  -7  -3  10   -1.14    4.16
   7   3  11  247.83   22.06
  -7   3  11  255.77   25.44
  -7  -3  11  228.00   23.62
   7  -3  11  262.29   25.08
   7  -3 -11  248.08   23.57
   7   3  12  180.98   19.15
  -7   3  12  136.41   19.14
  -7  -3  12  139.99   19.65
   7  -3  12  173.08   19.93
   7   3  13   62.91   12.27
  -7   3  13   50.18   13.30
  -7  -3  13   54.94   13.76
   7  -3  13   35.36    8.85
   7   3  14    1.89    5.39
  -7  -3  14   13.74    6.96
   7  -3  14    6.74    5.33
   7   3  15   44.33   12.44
  -7   3  15   47.39   12.74
  -7  -3  15   38.63   11.85
  -7   3  15    9.76    7.29
   7  -3  15   64.57   14.06
   7   3  15   48.45   12.09
   7   3  16   13.58    7.24
  -7   3  16   15.02   10.84
  -7  -3  16   18.88    8.92
   7  -3  16    2.81    2.61
   7   3  16   -0.61    4.07
   7   3  17   30.49    8.97
  -7   3  17   26.94    7.52
  -7  -3  17   48.80   13.19
   7  -3  17   22.35    6.68
   7   3  17   23.68    9.26
   7   3  18    0.89    4.74
  -7   3  18    5.70    5.68
  -7  -3  18    1.12    5.07
   7  -3  18    1.38    5.28
   7   3  18   17.12   10.00
   7   3  19    1.27    5.16
  -7   3  19   -1.69    4.74
  -7  -3  19   -3.95    4.78
   7  -3  19   -1.77    3.80
   7   3  19    2.75    5.37
   7   3  20    1.46    5.39
  -7   3  20   12.53    8.09
  -7  -3  20    2.66    6.40
   7  -3  20    9.12    5.87
   7   3  20   -2.44    7.20
   7   3  21    1.89    3.48
  -7   3  21    3.70    5.89
   7  -3  21   -3.50    6.30
  -7  -3  21    6.18    4.92
   7   3  21   -4.06   10.52
   7   3  22    4.29    5.81
   7  -3  22   -5.70    6.55
  -7   3  22    5.39    6.53
  -7  -3  22   19.63   12.10
   7   3  22   -2.34    6.21
   7   3  23   16.43    9.13
   7  -3  23    2.73    5.25
  -7   3  23    8.56    6.87
  -7  -3  23    6.81    7.15
   7  -3  23   -0.91    4.95
   7   3  24   35.79   12.23
   7  -3  24   23.11   10.44
  -7   3  24   40.37   12.15
  -7  -3  24   45.60   15.45
   7  -3  24   40.78   15.29
   7   3  25    4.96    3.92
   7  -3  25    7.99    6.42
  -7   3  25    8.15    9.71
  -7  -3  25   25.59   13.95
   7  -3  25    7.42   10.70
   7   3  26  -18.63   12.22
   7  -3  26   -5.38    6.56
  -7   3  26    2.08    6.91
  -7  -3  26   -6.56    6.97
   7  -3  26   -4.73    6.26
   7  -4   0    7.59    5.76
   7  -4   1  208.59   21.01
   7  -4  -1  242.02   22.76
  -7  -4   1  222.10   19.21
  -7   4   1  214.92   22.91
  -7  -4   2  628.59   32.08
   7  -4   2  740.10   40.19
  -7  -4   2  784.46   36.81
  -7   4   2  702.32   41.81
   7  -4  -2  656.76   37.78
  -7  -4   3   12.38    4.13
  -7   4   3   19.65    9.12
  -7  -4   3   16.97    6.43
   7  -4   3   19.83    7.17
   7  -4  -3   20.86    5.78
  -7  -4   4 1008.56   42.70
   7  -4   4  840.24   42.40
  -7   4   4  874.55   46.56
  -7  -4   4  873.68   38.93
   7  -4  -4  884.90   43.44
  -7  -4   5  189.59   18.94
   7  -4  -5  168.67   15.56
  -7   4   5  204.33   22.09
  -7  -4   5  211.66   19.05
   7  -4  -5  212.51   22.30
   7  -4   5  196.04   20.72
  -7  -4   6  135.88   15.78
   7  -4  -6  149.90   15.94
  -7   4   6  155.01   19.85
  -7  -4   6  111.81   14.60
   7  -4   6  153.13   18.19
   7  -4  -6  192.44   20.50
  -7  -4   7   41.18    9.76
   7  -4   7   21.73    7.08
  -7   4   7   20.51    8.66
  -7  -4   7   34.47    7.13
   7  -4  -7   27.94    7.37
   7  -4  -7   24.86    7.29
  -7  -4   8  163.95   19.12
   7  -4  -8  180.27   20.64
  -7   4   8  175.87   21.26
   7  -4  -8  196.56   20.12
   7  -4   8  179.94   19.75
   7  -4  -9  250.99   24.88
  -7   4   9  244.14   25.72
   7  -4  -9  234.33   21.79
  -7  -4   9  186.47   20.67
   7  -4   9  283.75   25.67
   7   4   9  274.98   21.56
  -7  -4   9  257.82   24.50
   7  -4  10   13.26    7.61
   7   4  10   12.58    5.26
  -7   4  10   17.72    8.68
  -7  -4  10   20.93    7.63
   7  -4 -10    5.90    4.46
   7  -4 -10   23.29    7.28
   7  -4  11   -4.61    5.96
   7   4  11   -0.29    2.77
  -7   4  11    4.37    6.00
  -7  -4  11   -0.08    3.63
   7  -4 -11   -1.98    3.32
   7  -4 -11    6.59    5.70
   7  -4  12    2.89    4.40
   7   4  12   10.99    7.26
  -7   4  12    4.07    4.40
  -7  -4  12   11.67    8.36
   7  -4 -12   18.03    8.35
  -7   4  13  227.14   26.16
  -7  -4  13  218.83   23.95
   7  -4  13  255.77   24.69
   7   4  13  246.10   23.32
   7  -4  14    3.99    5.41
   7   4  14   -1.40    2.42
  -7   4  14    1.51    4.03
  -7  -4  14   13.91    7.09
   7   4  15   13.42    5.87
  -7   4  15   13.81    7.84
  -7  -4  15   11.74    7.46
   7  -4  15    4.37    3.98
   7   4  16  107.55   16.55
   7  -4  16   90.95   17.46
  -7  -4  16  124.90   19.80
  -7   4  16  102.37   17.33
   7   4  17   93.74   15.69
   7  -4  17  125.99   18.04
  -7   4  17   79.73   17.00
  -7  -4  17   84.92   14.90
  -7   4  17   98.80   17.26
   7   4  18   78.49   15.43
   7  -4  18  111.13   18.10
  -7   4  18  121.90   19.40
  -7  -4  18  100.15   19.28
  -7   4  18  135.04   21.78
   7   4  19   54.07   13.25
  -7   4  19   46.63   13.55
  -7  -4  19   62.43   15.42
   7  -4  19   55.17   12.78
   7   4  20  130.89   19.58
   7  -4  20  161.10   22.94
  -7   4  20  168.55   24.01
  -7  -4  20  134.25   23.11
   7   4  21   13.41    8.90
  -7   4  21   21.31   10.55
  -7  -4  21   -1.42    6.71
   7  -4  21   19.11    7.68
   7   4  22    5.94    4.96
  -7   4  22   15.15    9.27
   7  -4  22    6.25    9.02
  -7  -4  22    0.67    8.76
   7   4  23    5.24    6.37
  -7   4  23    3.83    4.98
   7  -4  23   -5.99    3.86
  -7  -4  23    7.12    8.51
   7   4  24   32.90   11.47
  -7   4  24   33.14   12.68
   7  -4  24   47.03   14.34
  -7  -4  24   43.51   13.65
   7  -4  24   29.32   12.10
   7   4  25   15.50   10.35
   7  -4  25   25.93   11.87
  -7   4  25   24.03   10.04
  -7  -4  25   15.64    9.94
   7  -4  25    9.79    6.54
   7   4  26   19.39    8.83
   7  -4  26   16.58    9.60
  -7   4  26    4.55    8.29
  -7  -4  26   10.62    9.32
   7  -4  26   16.40    5.63
  -7  -5   0    4.49    5.88
   7  -5   0   -0.92    4.44
   7  -5   1   12.28    5.17
  -7  -5   1    9.50    5.22
  -7  -5  -1   16.44    6.37
   7  -5  -1    9.36    6.23
  -7   5   1   -1.84    6.05
  -7  -5   2   45.21    9.44
  -7   5   2   48.52   11.93
   7  -5  -2   25.94    8.98
   7  -5   2   25.17    9.49
  -7  -5   3   47.44   10.29
  -7   5   3   59.58   13.56
   7  -5  -3   60.59   12.97
   7  -5   3   56.37   11.76
   7  -5  -4   19.53    7.28
  -7  -5   4   12.16    5.46
  -7   5   4   17.15    6.47
   7  -5   4   19.50    8.43
  -7  -5   5    6.33    4.86
   7  -5  -5    9.86    5.19
  -7   5   5    7.67    7.11
   7  -5  -5    5.93    3.62
   7  -5   5   11.14    6.82
   7  -5   6   92.95   14.99
  -7  -5   6  118.54   16.23
   7  -5  -6   89.44   13.46
  -7   5   6  106.66   17.12
   7  -5  -6  147.82   18.85
  -7  -5   7  128.83   17.36
   7  -5  -7  162.77   19.49
   7  -5  -7  144.74   16.95
  -7   5   7  151.49   20.21
   7  -5   7  133.62   18.34
  -7  -5   8    3.21    2.55
   7  -5   8    4.22    5.02
  -7   5   8   12.49    5.39
   7  -5  -8    7.75    6.67
   7  -5  -8    9.32    5.13
  -7  -5   9    1.76    2.46
   7  -5  -9    0.80    4.45
   7  -5   9    8.02    6.13
  -7   5   9    4.82    5.81
   7  -5  -9    4.51    4.68
  -7  -5  10    1.46    2.63
   7  -5  10    3.84    3.43
  -7   5  10   -1.57    4.27
   7  -5 -10    0.74    2.35
   7  -5 -10    1.59    4.12
  -7  -5  11   58.40   10.35
   7  -5  11   54.40   11.44
   7  -5 -11   45.88   11.04
  -7   5  11   71.59   15.42
   7  -5 -11   64.69   13.60
   7   5  12   18.90    8.24
   7  -5  12   11.42    3.89
  -7   5  12   22.37    9.66
  -7  -5  12   28.66   10.86
   7  -5 -12   23.57    8.52
   7  -5 -12    7.84    4.15
   7  -5 -13    0.58    3.57
   7  -5  13   12.97    7.04
   7   5  13    2.54    3.00
  -7   5  13   -2.11    5.33
   7  -5 -13    6.29    8.40
   7  -5  14   11.05    6.66
   7   5  14    4.78    4.87
  -7   5  14   11.80    4.51
  -7  -5  14   14.42    8.96
   7  -5 -14   21.08    7.72
   7  -5  15   29.21    8.96
   7   5  15   40.51    9.85
  -7   5  15   25.08    9.65
  -7  -5  15   21.47    9.04
   7  -5 -15   32.64   11.93
   7  -5  16   56.32   13.34
   7   5  16   28.41    8.44
  -7   5  16   21.46    8.19
  -7  -5  16   37.12   10.51
   7  -5 -16   57.43   15.02
   7   5  17   16.19    6.69
  -7   5  17   24.20   10.91
  -7  -5  17   19.95    9.81
   7  -5 -17    7.38    9.55
   7  -5  17   24.27    7.44
   7   5  18   16.59   11.41
  -7   5  18   10.46    6.87
  -7  -5  18    6.35    5.93
   7  -5 -18   11.41    9.36
  -7   5  18   15.08    6.92
   7  -5  18   -2.60    4.26
   7   5  19    1.45    5.11
  -7   5  19    5.11    8.21
  -7  -5  19   26.80   10.69
  -7   5  19   15.13    7.35
   7  -5  19    4.05    4.87
   7   5  20    7.61    5.57
  -7   5  20   14.70    6.37
  -7  -5  20    3.27    7.15
  -7   5  20    4.03    3.73
   7  -5  20   15.15    7.96
   7   5  21    0.26    7.64
  -7   5  21   13.61    8.15
  -7  -5  21   -0.61    5.75
   7  -5  21    3.58    3.77
  -7   5  21    9.98   10.79
   7   5  22   59.12   15.09
  -7   5  22   66.05   18.30
  -7  -5  22   46.12   16.33
   7  -5  22   47.95   13.08
   7   5  23   40.73   12.25
  -7   5  23   29.03    9.62
  -7  -5  23   29.55   13.10
   7  -5  23   28.68   11.42
   7   5  24   45.27   13.19
  -7   5  24   85.47   18.60
   7  -5  24   72.94   15.86
  -7  -5  24   55.19   15.17
   7  -5  24   57.21   16.35
   7   5  25    1.00    4.67
  -7   5  25    1.71    6.89
   7  -5  25   -0.09    7.06
  -7  -5  25    2.67    4.37
   7  -5  25    7.36    8.18
  -7  -6   0    5.11    6.35
   7  -6   0    3.04    4.00
  -7  -6   1  398.07   29.51
  -7  -6  -1  498.24   33.31
   7  -6   1  458.39   34.68
   7  -6  -1  461.74   35.40
  -7  -6   2  514.10   34.13
  -7  -6  -2  585.28   37.77
   7  -6   2  517.93   37.11
  -7   6   2  534.10   37.85
   7  -6  -2  607.44   40.04
  -7  -6   3   -0.84    3.84
  -7  -6  -3   -2.96    4.58
  -7   6   3    3.49    3.02
   7  -6  -3   11.70    7.16
   7  -6   3    7.45    7.35
   7  -6  -4    2.43    2.35
  -7  -6   4    2.91    4.49
  -7   6   4    3.87    4.95
   7  -6   4   -1.70    2.84
  -7  -6   5  586.75   36.70
   7  -6   5  527.09   37.14
  -7   6   5  596.70   40.18
   7  -6  -5  607.72   39.89
  -7  -6   6    1.93    6.55
   7  -6  -6    1.36    3.12
   7  -6  -6   -1.88    4.52
  -7   6   6   -6.78    6.42
   7  -6   6    0.82    4.14
   7  -6   7  112.53   17.53
  -7  -6   7  124.53   18.13
   7  -6  -7  129.05   19.91
   7  -6  -7  128.74   16.72
  -7   6   7   93.17   15.47
  -7  -6   8   37.66   11.25
   7  -6   8   33.62   10.31
  -7   6   8   36.42    9.91
   7  -6  -8   48.22   10.57
   7  -6  -8   28.07    7.62
  -7  -6   9   70.93   13.44
   7  -6  -9   72.89   13.69
   7  -6   9   58.76   12.01
  -7   6   9   58.63   14.43
   7  -6  -9   52.35   11.37
  -7  -6  10  247.57   26.12
   7  -6 -10  279.02   27.44
   7  -6 -10  268.20   26.83
  -7   6  10  311.82   30.27
   7  -6  10  333.67   29.71
  -7  -6  11   50.06   12.35
   7  -6  11   59.40   11.99
  -7   6  11   50.76   12.35
   7  -6 -11   58.80   12.16
   7  -6 -11   43.81   10.68
  -7  -6  12  495.53   37.09
   7  -6 -12  453.56   35.24
  -7   6  12  552.60   39.40
   7  -6 -12  535.59   39.45
   7  -6  12  534.80   37.78
   7  -6 -13  170.29   22.02
  -7   6  13  178.99   24.18
   7  -6 -13  173.23   22.59
   7  -6  13  140.76   20.41
  -7  -6  13  149.40   19.90
   7  -6  14    6.73    5.78
  -7   6  14    2.05    4.67
   7  -6 -14    6.58    4.62
   7  -6 -14   -0.80    4.64
   7  -6  15    3.45    2.79
   7  -6 -15   13.96    4.09
  -7   6  15    9.67    7.95
   7  -6 -15   17.38   10.15
  -7   6  16  143.48   21.82
   7  -6  16  116.85   18.41
   7  -6 -16  101.89   18.84
   7  -6  17   39.89   13.33
   7   6  17   41.92   11.98
  -7   6  17   53.25   14.65
   7  -6 -17   51.33   12.89
   7   6  18   19.45    7.80
  -7   6  18   17.81    8.43
   7  -6 -18   22.25   11.36
   7  -6  18   30.34    9.92
   7   6  19    6.40    4.23
  -7   6  19   39.74   12.91
   7  -6 -19   25.17    9.97
   7  -6  19   42.28   11.39
   7   6  20   98.65   18.27
   7  -6  20  127.28   21.30
  -7   6  20  106.01   18.05
   7  -6 -20   69.99   18.00
   7   6  21   -4.15    6.72
  -7   6  21    1.94    5.12
   7  -6 -21    3.30    4.25
  -7   6  21   12.55    7.68
   7  -6  21    8.14    5.76
   7   6  22   27.95    8.78
  -7   6  22   27.12   11.46
   7  -6 -22    8.34    4.09
  -7   6  22   10.15    9.08
   7  -6  22   32.42    7.81
   7   6  23   83.73   18.14
  -7   6  23   55.50   14.17
   7  -6 -23   65.73   17.00
  -7   6  23   81.53   19.41
   7  -6  23  102.65   19.36
   7   6  24   15.68    8.78
  -7   6  24   -4.21    6.96
   7  -6 -24    7.30    7.77
   7  -6  24    4.41    4.98
  -7  -7   0    1.13    4.87
   7  -7   0   -6.17    2.97
  -7  -7   1    3.99    4.05
  -7  -7  -1    2.46    5.30
   7  -7   1   -1.33    6.12
   7  -7  -1    3.46    6.26
  -7  -7  -2   93.34   16.77
  -7  -7   2   95.16   14.86
   7  -7   2   97.91   16.40
  -7   7   2  108.01   16.66
   7  -7  -2   86.04   16.06
  -7  -7   3  118.65   16.66
  -7  -7  -3  154.47   20.30
   7  -7   3  131.25   19.82
  -7   7   3  111.86   18.46
   7  -7  -3  140.77   19.31
   7  -7  -4    5.40    5.65
  -7  -7   4   -4.59    6.09
  -7   7   4    3.25    3.77
   7  -7   4   -5.50    3.31
  -7  -7   5   25.61   10.12
   7  -7  -5   44.36   11.73
  -7   7   5   53.43   13.12
   7  -7   5   45.47   10.64
  -7  -7   6    2.77    3.43
   7  -7  -6   -2.00    4.97
   7  -7  -6    0.57    3.49
  -7   7   6    2.48    5.33
   7  -7   6    0.64    4.47
  -7  -7   7   14.74    5.28
   7  -7  -7   16.48    7.61
   7  -7  -7   21.84    8.75
  -7   7   7    6.49    4.69
   7  -7   7   10.31    7.54
  -7  -7   8   -3.97    5.00
   7  -7   8    5.66    7.34
   7  -7  -8   -6.77    8.14
  -7   7   8    0.81    3.39
   7  -7  -8    3.07    6.11
  -7  -7   9   70.37   14.80
   7  -7  -9  109.21   17.54
   7  -7  -9  110.82   18.14
  -7   7   9  114.50   17.97
   7  -7   9   80.20   15.88
  -7  -7  10   14.58    8.32
   7  -7 -10   10.81    7.00
   7  -7  10   17.76    7.00
  -7   7  10    9.57    5.51
   7  -7 -10    0.85    6.32
  -7  -7  11   36.12   10.94
   7  -7  11   38.08   10.04
   7  -7 -11   44.98   13.04
  -7   7  11   31.38    9.57
   7  -7 -11   22.62   10.36
  -7  -7  12    8.19    7.85
   7  -7  12   33.93   11.95
  -7   7  12   27.01   10.31
   7  -7 -12   13.39    4.37
   7  -7 -12   40.42   11.22
  -7  -7  13  298.05   29.28
   7  -7 -13  276.38   29.08
   7  -7 -13  297.44   30.56
  -7   7  13  317.08   30.98
   7  -7  13  365.02   32.04
  -7  -7  14   58.34   12.92
   7  -7  14   61.38   13.82
  -7   7  14   77.29   16.01
   7  -7 -14   72.32   14.21
   7  -7 -14   64.74   14.59
   7  -7  15    8.78    5.73
   7  -7 -15    1.61    3.52
  -7   7  15   -7.99    6.21
   7  -7 -15    5.26    8.41
  -7  -7  15    0.15    3.84
   7  -7  16   19.58    8.10
   7  -7 -16   15.88    8.11
  -7   7  16   21.22    8.64
   7  -7 -16   37.31   12.30
   7  -7  17   14.67    7.43
  -7   7  17   23.17   11.02
   7  -7 -17    2.51    4.84
   7  -7  18    3.57    4.72
  -7   7  18    2.25    4.13
   7  -7 -18   -6.54    4.54
  -7   7  19   58.35   16.36
   7  -7 -19   78.36   18.41
   7  -7  19   75.69   15.45
  -7   7  20   99.14   18.71
   7  -7 -20  105.22   20.28
   7  -7  20   95.44   17.52
  -7   7  21   88.62   18.86
   7  -7 -21   69.53   14.90
   7  -7  21   85.53   17.29
  -7   7  22   24.73   12.80
   7  -7 -22   28.40   10.25
   7  -7  22   25.04   11.01
  -7   7  23   79.88   16.76
   7  -7 -23   30.04   11.29
   7  -7  23   70.65   17.55
  -7  -8   0    2.38    6.77
   7  -8   0   -3.28    3.96
  -7  -8   1  593.49   40.90
  -7  -8  -1  619.48   42.88
   7  -8   1  560.89   41.46
   7  -8  -1  510.46   40.00
   7  -8   2   38.61   11.66
  -7  -8   2   20.71    4.45
  -7  -8  -2   28.37    8.72
   7  -8  -2   38.06   11.99
   7  -8   3   98.60   16.55
  -7  -8   3   86.72   15.63
  -7  -8  -3   63.06   12.42
  -7   8   3   79.59   16.83
   7  -8  -3   67.75   13.85
   7  -8  -4   35.88   11.67
  -7  -8   4   15.61    8.17
  -7  -8  -4   38.56   11.07
  -7   8   4   17.92    6.86
   7  -8   4   23.00    7.42
  -7  -8   5   82.82   16.97
  -7  -8  -5   85.14   19.80
   7  -8   5   84.50   17.32
  -7   8   5  103.39   18.16
   7  -8  -5   91.31   16.84
  -7  -8   6    4.54    5.82
   7  -8  -6    0.57    3.20
  -7  -8  -6   -7.17    4.74
  -7   8   6   -0.48    4.75
   7  -8   6   -0.77    3.45
  -7  -8   7  111.54   17.93
   7  -8   7  110.72   18.60
  -7   8   7  113.51   19.23
   7  -8  -7  138.10   20.28
  -7  -8   8    3.89    4.02
   7  -8  -8    4.17    5.90
  -7   8   8    4.91    4.54
   7  -8   8    1.72    4.22
   7  -8  -8    4.30    3.02
  -7  -8   9  436.51   36.18
   7  -8  -9  455.15   37.97
   7  -8  -9  430.82   36.39
  -7   8   9  439.27   36.63
   7  -8   9  443.66   35.96
   7  -8 -10   25.83    9.37
  -7  -8  10   19.42    7.64
   7  -8  10   26.22    7.71
   7  -8 -10   27.07   10.82
  -7   8  10   29.85   12.27
  -7  -8  11   10.88    5.11
   7  -8 -11    4.21    3.66
   7  -8  11   15.81   10.56
  -7   8  11   21.15   10.02
   7  -8 -11   16.22    6.79
  -7  -8  12   27.75    9.43
   7  -8  12   18.35    5.19
   7  -8 -12   33.15   12.89
  -7   8  12   12.42    6.57
   7  -8 -12    6.60    4.77
  -7  -8  13   51.11   11.83
   7  -8  13   81.55   15.90
  -7   8  13   47.11   12.64
   7  -8 -13   55.64   16.33
   7  -8 -13   51.01   12.46
  -7  -8  14   17.42    9.74
   7  -8 -14   16.46    4.74
   7  -8  14    3.53    4.07
  -7   8  14    4.00    5.17
  -7  -8  15  151.26   22.02
   7  -8 -15  181.22   24.14
  -7   8  15  140.75   21.36
   7  -8 -15  176.77   24.97
   7  -8  15  153.02   22.22
  -7  -8  16    5.88    8.08
   7  -8  16   12.74    6.64
  -7   8  16   -2.05    3.89
   7  -8 -16   -2.83    7.40
   7  -8 -16   13.24    8.66
   7  -8 -17  145.95   24.29
  -7   8  17  140.30   21.23
   7  -8  17  126.61   21.32
   7  -8 -17  193.52   26.13
  -7  -8  17  164.65   22.15
   7  -8  18   19.99   10.47
   7  -8 -18   18.70    9.82
  -7   8  18   38.04   10.53
   7  -8 -18   18.37    8.76
   7  -8 -19  188.82   27.80
  -7   8  19  200.73   25.86
   7  -8  19  198.58   25.07
   7  -8 -19  177.61   26.62
  -7   8  20   16.96    9.59
   7  -8 -20   22.94    7.23
   7  -8  20   22.74    9.00
  -7   8  21   34.45   10.35
   7  -8 -21   65.16   17.45
   7  -8  21   38.96   12.39
  -7   8  22  136.31   22.55
   7  -8 -22  105.15   22.11
   7  -8  22   89.93   19.68
  -7  -9   0    1.04    3.77
   7  -9   0   -2.43    5.75
  -7  -9   1   -4.53    4.50
  -7  -9  -1    0.81    5.05
   7  -9   1  -11.54    6.95
   7  -9  -1    1.99    5.62
   7  -9   2    4.83    2.77
  -7  -9   2   -4.87    4.48
  -7  -9  -2    5.94    4.56
   7  -9  -2   -3.28    3.89
   7  -9   3    3.87    3.82
  -7  -9   3    1.69    4.91
  -7  -9  -3   -6.07    7.38
   7  -9  -3   -5.08    6.38
  -7  -9   4    8.08    4.88
  -7  -9  -4   11.48    6.13
  -7   9   4   20.03    3.84
   7  -9  -4   19.72    8.47
   7  -9   4   22.20    7.88
  -7  -9   5  137.71   20.35
  -7  -9  -5  137.31   22.94
   7  -9   5  139.00   22.61
  -7   9   5  128.71   21.54
   7  -9  -5  172.32   23.32
  -7  -9   6    9.52    8.42
   7  -9  -6    8.27    6.21
  -7  -9  -6   25.45   15.23
  -7   9   6    8.45    5.95
   7  -9   6    3.87    5.04
   7  -9   7   96.25   17.85
  -7  -9   7   86.19   16.78
  -7   9   7  104.56   19.25
   7  -9  -7  121.04   20.07
  -7  -9   8   45.87   12.91
   7  -9  -8   32.95    8.63
  -7   9   8   29.35    6.93
   7  -9   8   23.58    9.71
  -7  -9   9   25.12    6.86
   7  -9  -9   44.30   12.87
   7  -9   9   33.78   10.69
  -7   9   9   52.71   14.44
   7  -9  -9   42.06   13.35
  -7  -9  10    8.32    6.35
   7  -9  10   16.63    7.86
   7  -9 -10    1.82    4.59
  -7   9  10    1.24    4.74
   7  -9 -10   13.73    9.63
  -7  -9  11   96.32   19.63
   7  -9 -11  112.25   21.01
   7  -9  11   85.91   16.11
  -7   9  11  107.35   20.57
   7  -9 -11   89.73   20.43
  -7  -9  12    7.11    8.03
   7  -9 -12    6.09    3.25
   7  -9  12    0.12    3.84
   7  -9 -12   -2.05    6.67
  -7  -9  13  106.79   20.65
   7  -9 -13  118.47   20.27
   7  -9  13   86.00   15.35
  -7   9  13   50.29   13.95
   7  -9 -13   98.69   20.28
  -7  -9  14   -1.85    7.76
   7  -9  14    9.59    6.80
  -7   9  14   -2.32    6.20
   7  -9 -14    5.21    5.27
   7  -9 -14    9.18    8.09
  -7  -9  15    0.03    5.59
   7  -9  15    3.99    5.40
  -7   9  15    2.31    6.13
   7  -9 -15   -6.00    8.88
   7  -9 -15   -3.30    5.08
  -7  -9  16   -5.45    7.07
   7  -9  16   -8.00    8.07
   7  -9 -16    4.06    7.74
  -7   9  16   -2.94    7.64
   7  -9 -16    7.33    7.25
   7  -9 -17  267.85   32.79
  -7   9  17  273.45   31.48
   7  -9 -17  272.30   32.41
   7  -9  17  268.55   29.08
  -7  -9  17  250.29   28.47
   7  -9  18    9.49    3.16
  -7   9  18    3.05    4.03
   7  -9 -18    6.38    6.41
   7  -9 -18   16.45    8.56
  -7  -9  18    3.44    6.15
   7  -9  19   19.90    8.57
   7  -9 -19    8.49    3.25
  -7   9  19   38.70   13.23
   7  -9 -19   40.93   13.74
   7  -9  20    5.91    3.94
  -7   9  20    5.92    7.80
   7  -9 -20    3.70    7.61
   7  -9 -20   -5.97    6.49
  -7 -10   0   -7.40    3.54
   7 -10   0    1.42    6.70
  -7 -10   1    1.07    6.89
  -7 -10  -1   -6.19    5.84
   7 -10   1   -2.91    6.79
   7 -10  -1   -8.60    5.70
  -7 -10   2  109.45   20.45
  -7 -10  -2  101.85   19.94
   7 -10   2  117.50   20.67
   7 -10  -2  105.31   18.33
   7 -10   3   34.72   11.82
  -7 -10   3   82.62   16.16
  -7 -10  -3   79.83   17.69
   7 -10  -3   61.05   14.50
  -7 -10   4   -3.40    3.23
  -7 -10  -4    4.47    5.19
   7 -10  -4   -0.19    3.08
   7 -10   4    1.85    5.29
   7 -10  -5    4.27    6.85
  -7 -10   5   -2.55    5.31
  -7 -10  -5   20.09   10.33
  -7  10   5   -1.11    6.15
   7 -10   5    2.30    7.20
  -7 -10   6   99.92   18.94
  -7 -10  -6  105.92   21.37
  -7  10   6  120.64   20.27
   7 -10   6   86.89   17.58
   7 -10  -6  111.22   20.40
   7 -10   7  126.74   19.69
  -7 -10   7   87.80   17.03
  -7 -10  -7  125.96   22.48
  -7  10   7  123.88   21.53
   7 -10  -7  105.39   19.09
  -7 -10   8   54.23   15.80
   7 -10  -8   74.25   15.45
  -7  10   8   66.25   15.75
   7 -10   8   69.45   15.92
   7 -10  -9  112.61   19.79
   7 -10   9  110.70   19.34
  -7 -10   9  109.73   17.94
  -7  10   9  122.86   20.61
  -7 -10  10  159.82   23.18
   7 -10 -10  148.35   22.89
  -7  10  10  170.21   24.92
   7 -10  10  162.49   23.40
  -7 -10  11   -2.19    6.58
   7 -10  11  -10.13    7.08
  -7  10  11   -3.75    8.44
   7 -10 -11    4.70    3.37
  -7 -10  12  102.30   18.57
   7 -10 -12  121.54   20.49
  -7  10  12  167.57   24.26
   7 -10 -12  134.59   21.43
   7 -10  12  116.48   19.38
  -7 -10  13   41.37   14.20
   7 -10 -13   52.15   15.33
   7 -10  13   27.13    9.64
   7 -10 -13   55.38   12.29
  -7  10  13   29.58   12.31
  -7 -10  14   18.46   10.33
   7 -10 -14    6.50    5.83
   7 -10  14   -2.46    3.43
   7 -10 -14   -6.85    9.57
  -7  10  14   17.33    9.11
  -7 -10  15   49.13   11.24
   7 -10  15   54.89   14.89
   7 -10 -15   40.73   11.64
   7 -10 -15   33.26    7.33
  -7  10  15   42.56   13.67
  -7 -10  16  213.95   28.92
   7 -10 -16  220.70   29.43
   7 -10 -16  179.48   27.54
  -7  10  16  206.83   26.58
   7 -10  16  184.60   24.92
  -7 -10  17   10.94    5.27
   7 -10  17    4.54    5.27
  -7  10  17    5.22    5.17
   7 -10 -17   26.15   14.75
   7 -10 -17   23.91   10.79
  -7 -10  18    9.86    7.32
   7 -10  18   -1.46    3.07
   7 -10 -18   -6.99    8.32
  -7  10  18   -1.13    8.36
   7 -10 -18   10.00    9.29
   7 -10  19   13.85    9.96
   7 -10 -19   10.45    4.49
  -7  10  19   -0.38    5.57
   7 -10 -19   -2.67    9.95
  -7 -11   0   -6.78    8.30
   7 -11   0    0.90    9.39
  -7 -11   1    9.91    8.42
   7 -11   1    2.36    4.69
  -7 -11  -1   -4.49    5.20
   7 -11  -1    1.85    4.12
   7 -11   2   18.16    9.27
  -7 -11   2   13.72    8.30
  -7 -11  -2   13.09   10.91
   7 -11  -2    4.86    7.95
   7 -11   3    9.06    5.61
  -7 -11   3   19.30   10.32
  -7 -11  -3    7.78    4.93
   7 -11  -3   12.63    8.67
  -7 -11   4   25.19   11.16
  -7 -11  -4   18.50    9.09
   7 -11  -4   14.50    8.18
   7 -11   4    6.47    6.46
  -7 -11   5   21.22    8.25
  -7 -11  -5   37.25   10.88
   7 -11   5   63.05   17.10
   7 -11  -5   49.02   13.41
   7 -11  -6   -9.14    6.06
  -7 -11   6    4.77    9.05
  -7 -11  -6    2.53    5.64
   7 -11   6   -4.31    5.63
   7 -11  -7    6.97    4.85
  -7 -11   7   -1.32    7.58
  -7 -11  -7   25.94   14.83
  -7  11   7    8.93   10.37
   7 -11   7    7.09    6.71
  -7 -11   8    1.67    4.53
   7 -11  -8   -6.79    7.36
  -7 -11  -8   -3.95    9.81
  -7  11   8    5.38    5.22
   7 -11   8    8.16    6.67
  -7 -11   9   13.14    7.96
   7 -11  -9    5.32    6.09
  -7  11   9    1.44    6.23
   7 -11   9   11.93    6.20
  -7 -11  10   -1.76    4.14
   7 -11 -10   -2.35    6.83
   7 -11  10   -5.54    6.60
  -7  11  10   -8.11    9.74
  -7 -11  11   -4.42    3.89
   7 -11  11   15.62    9.27
  -7  11  11   12.27   11.18
   7 -11 -11   19.31   11.14
  -7 -11  12   -5.03    4.50
   7 -11  12   10.59    7.71
  -7  11  12  -15.11   13.23
   7 -11 -12    1.28    8.23
  -7 -11  13    2.18    7.98
   7 -11  13   22.42    5.88
  -7  11  13    1.62    7.67
   7 -11 -13    5.26    3.79
   7 -11 -14    1.52    6.21
  -7 -11  14    0.71    5.16
   7 -11  14    3.94    7.01
  -7  11  14    0.15    4.22
  -7 -11  15   15.47    8.85
   7 -11 -15   19.35    6.93
   7 -11  15   18.92   10.75
  -7  11  15   25.76    7.32
  -7 -11  16    0.27    4.65
   7 -11  16    7.28    9.52
   7 -11 -16   15.21    9.59
  -7  11  16    9.44    7.65
  -7 -12   0    3.70   10.91
   7 -12   0    8.47    4.66
   7 -12   1    7.92    5.81
  -7 -12   1   -4.81    8.86
  -7 -12  -1   16.74   11.06
   7 -12  -1  -12.26   11.22
   7 -12   2   40.24   13.19
  -7 -12   2   92.72   18.46
  -7 -12  -2   72.78   16.75
   7 -12  -2  100.04   18.66
   7 -12   3   78.41   16.20
  -7 -12   3   77.09   16.63
  -7 -12  -3  109.31   22.50
   7 -12  -3   98.92   19.53
  -7 -12   4   -0.73    7.85
  -7 -12  -4   11.82   13.35
   7 -12  -4    3.98    8.56
   7 -12   4    3.49    7.48
  -7 -12   5    2.74    6.38
  -7 -12  -5   -4.18    6.72
   7 -12  -5    2.27    4.95
   7 -12   5  -11.42    8.17
  -7 -12   6   22.01    8.92
  -7 -12  -6   29.43   14.40
   7 -12   6   37.72   12.67
   7 -12  -6   26.75    9.75
   7 -12  -7    3.53    4.81
  -7 -12   7    5.58    6.57
   7 -12   7   -0.65    3.33
   7 -12  -8   78.69   17.21
  -7 -12   8   88.22   18.97
   7 -12   8   79.15   17.45
  -7 -12   9   95.97   17.61
  -7  12   9  106.20   19.47
   7 -12   9  104.75   18.69
   7 -12  -9  122.42   21.38
  -7 -12  10   24.42   11.70
   7 -12 -10   18.01    8.99
  -7  12  10   37.39    9.84
   7 -12  10   34.21   12.30
  -7 -12  11   17.01   10.87
   7 -12 -11    8.03    7.48
   7 -12  11    4.00    5.61
  -7  12  11    6.00    5.53
  -7 -12  12   -1.59    4.65
   7 -12  12   -1.10    5.72
   7 -12 -12   -4.30    6.40
   7 -12 -13  122.66   21.91
  -7 -12  13  111.49   21.51
  -7  12  13  112.55   21.39
   7 -12  13  133.20   21.60
  -7 -13   0    6.54    7.92
   7 -13   0    5.16    4.83
   7 -13   1   48.38   15.79
  -7 -13   1   50.21   15.31
  -7 -13  -1   66.23   18.22
   7 -13  -1   68.84   18.81
   7 -13   2    4.29    4.88
  -7 -13   2    5.56    7.18
  -7 -13  -2   -2.75    6.71
   7 -13  -2   18.66    8.17
   7 -13   3   -9.88    8.18
  -7 -13   3   -7.06    9.84
  -7 -13  -3   -5.29    9.60
   7 -13  -3   15.94   11.10
  -7 -13   4    4.51    7.26
  -7 -13  -4   10.62    9.23
   7 -13  -4    2.38    4.95
   7 -13   4   -8.15    8.21
  -7 -13   5   -6.44    9.21
  -7 -13  -5   11.25    8.95
   7 -13  -5   -3.65    4.65
   7 -13   5   -7.80    8.22
  -7 -13   6   15.82   12.77
  -7 -13  -6   23.09   15.57
   7 -13   6    3.50    5.54
   7 -13  -6   30.11   12.43
  -7 -13   7    0.79    7.23
  -7 -13  -7   18.30    9.34
   7 -13   7   12.44    8.30
   7 -13  -7    9.54    6.65
   7 -13  -8   -4.28    5.86
  -7 -13   8    0.94    4.51
   7 -13   8   -7.35    3.09
   7 -13  -9   27.54   11.20
  -7 -13   9   34.37   12.87
   7 -13   9   48.30   13.82
  -8   0   1   -0.78    4.66
  -8   0   2  102.43   15.58
  -8   0   3   -3.38    5.65
  -8   0   4  124.10   17.49
  -8   0   5   -6.54    5.61
   8   0   5    5.43    4.87
   8   0   6  128.42   14.68
  -8   0   6  135.45   18.54
  -8   0   7    1.26    4.50
   8   0   7    1.07    3.48
  -8   0   8   11.96    5.47
   8   0   8   27.78    7.25
  -8   0   9   -3.22    3.64
   8   0   9    1.73    2.34
   8   0  10  860.03   42.91
  -8   0  10  832.71   46.35
  -8   0  11   -0.06    3.99
   8   0  11    3.10    5.31
  -8   0  12   30.62   10.41
   8   0  12   19.40    6.80
   8   0  13   -1.30    3.45
  -8   0  13    1.50    5.14
   8   0  14  258.43   25.32
  -8   0  14  195.36   24.81
   8   0  15    3.67    6.92
  -8   0  15    4.42    3.01
   8   0  16   45.26   11.29
  -8   0  16   52.76   14.34
   8   0  17    3.84    5.58
  -8   0  17   14.05    7.71
   8   0  18   68.18   14.62
  -8   0  18   75.42   16.16
   8   0  19    4.35    6.26
  -8   0  19   -7.77    9.37
   8   0  20   66.69   15.62
  -8   0  20   75.55   14.95
   8   0  21   -6.91    4.45
  -8   0  21    9.41   10.00
   8   0  21   14.74   10.40
   8   0  22   87.25   18.84
  -8   0  22   81.67   18.04
   8   0  22   69.98   16.52
   8   0  23  -16.62    9.25
  -8   0  23    3.33    9.95
   8   0  23   -8.04    7.87
   8   0  24   22.32    9.04
  -8   0  24   13.68    7.49
   8   0  24   21.62    5.53
   8   0  25    5.79    4.97
  -8   0  25   17.77   10.71
   8   0  25    3.45    9.25
  -8  -1   1  432.94   31.25
  -8   1   1  473.78   33.66
   8  -1   1  430.42   25.13
   8  -1   2    1.93    3.99
  -8  -1   2   -0.41    5.26
  -8   1   2    0.22    5.32
   8  -1   3   18.99    5.91
  -8   1   3   32.62    9.83
  -8  -1   3   38.01    8.49
  -8  -1   4  337.80   28.11
   8  -1   4  312.29   22.14
   8  -1   5    1.06    2.16
  -8   1   5    6.78    6.31
  -8  -1   5   13.86    6.71
  -8   1   6  186.43   21.84
  -8  -1   6  151.05   19.99
   8  -1   6  141.77   15.75
  -8   1   7  108.35   17.02
  -8  -1   7  145.45   18.22
   8  -1   7  103.95   13.67
   8   1   8  124.83   14.54
   8  -1   8  111.22   14.74
  -8   1   8  108.07   17.32
  -8  -1   8  104.47   16.17
   8   1   9   33.01    8.30
  -8   1   9   36.40   11.24
  -8  -1   9   32.29    8.90
   8  -1   9   25.41    5.77
   8   1  10   30.55    8.08
  -8   1  10   49.89   12.21
  -8  -1  10   28.13    5.06
   8   1  11   34.92    8.48
  -8   1  11   18.67    6.62
  -8  -1  11   18.20    7.90
   8   1  12  498.61   33.91
   8  -1  12  463.16   32.68
  -8   1  12  454.71   35.45
  -8  -1  12  397.41   33.43
   8   1  13    5.04    4.23
  -8   1  13   15.68    9.23
  -8  -1  13   -2.63    6.76
   8  -1  13    1.56    3.87
   8   1  14  116.37   17.57
   8  -1  14  105.61   16.62
  -8   1  14   92.92   16.87
  -8  -1  14  109.50   17.62
   8   1  15  201.44   22.97
   8  -1  15  170.49   21.32
  -8   1  15  139.84   21.09
  -8  -1  15  163.35   23.32
   8   1  16   96.39   17.11
  -8   1  16   88.78   17.38
   8  -1  16   84.56   15.66
  -8  -1  16   88.27   16.95
   8   1  17   37.95   10.58
   8  -1  17   45.88   11.59
  -8   1  17   66.90   15.27
  -8  -1  17   33.29    9.65
   8   1  18  657.42   45.65
   8  -1  18  703.94   46.37
  -8   1  18  726.73   48.67
  -8  -1  18  657.76   47.44
   8   1  19   10.57    5.47
   8  -1  19   -0.48    5.73
  -8   1  19   10.09    9.66
  -8  -1  19    0.57    5.92
   8   1  20    2.88    3.62
   8  -1  20    9.29    4.87
  -8   1  20   -1.47    4.19
  -8  -1  20    7.33    6.78
   8   1  20    3.92    9.06
   8   1  21   35.37    8.60
  -8   1  21   49.13   13.89
  -8  -1  21   57.85   15.04
   8   1  21   46.20   10.96
   8   1  22  134.43   22.30
   8  -1  22  163.53   24.36
  -8   1  22  198.27   27.22
  -8  -1  22  125.05   21.80
   8   1  22  190.78   27.66
   8  -1  22  166.98   26.11
   8   1  23   11.99    8.80
   8  -1  23   -2.20    4.11
  -8   1  23   -1.43    5.69
  -8  -1  23    6.09   12.53
   8   1  23   -4.54    7.03
   8  -1  23   -3.19    4.47
   8   1  24  130.68   21.67
   8  -1  24  147.66   22.94
  -8  -1  24  116.78   22.63
  -8   1  24   86.33   20.28
   8  -1  24  148.33   25.29
   8   1  24  131.64   23.15
   8   1  25   73.65   15.48
   8  -1  25   77.08   16.70
  -8   1  25   77.05   18.32
  -8  -1  25   63.64   14.57
   8   1  25   81.18   18.22
   8  -1  25   68.01   15.41
   8  -2   0  105.11   13.51
   8  -2  -1  158.81   16.52
  -8  -2   1  180.97   19.88
  -8   2   1  159.26   20.40
   8  -2   1  161.29   17.22
   8  -2   2    7.71    4.18
  -8  -2   2   15.74    7.64
  -8   2   2   -1.71    3.42
   8  -2  -2   21.86    7.45
   8  -2  -3  394.13   26.61
  -8   2   3  424.54   32.59
  -8  -2   3  450.27   31.56
   8  -2   3  465.14   28.87
   8  -2  -4   35.48    9.05
   8  -2   4   19.17    6.14
  -8   2   4   42.22   12.80
  -8  -2   4   28.06   10.38
   8  -2   5   27.63    7.71
  -8   2   5   40.29   10.19
  -8  -2   5   27.80    8.38
  -8   2   6  152.63   19.26
  -8  -2   6  139.72   18.01
   8  -2   6  137.15   16.58
  -8   2   7  780.45   44.62
  -8  -2   7  722.25   41.12
   8  -2   7  652.57   36.69
   8  -2   8   25.42    5.25
  -8   2   8   22.56    7.31
  -8  -2   8   18.46    7.41
  -8   2   9   13.86    6.17
  -8  -2   9   13.50    5.97
   8  -2   9    0.88    3.67
  -8   2  10    2.51    3.47
  -8  -2  10    0.81    3.53
   8  -2  10    8.64    5.82
   8  -2  11  180.60   22.17
  -8   2  11  188.99   22.93
  -8  -2  11  244.54   25.42
   8   2  12   49.37    9.62
  -8   2  12   50.23   12.79
  -8  -2  12   48.29   12.40
   8  -2  12   79.04   13.08
   8   2  13   36.66    9.91
  -8   2  13   43.80   13.30
  -8  -2  13   20.42    7.74
   8  -2  13   37.00   10.46
   8   2  14   49.62   12.58
  -8   2  14   55.59   14.21
  -8  -2  14   22.20   10.20
   8  -2  14   53.24   12.11
   8   2  15   19.67    8.63
  -8   2  15    8.06    7.23
  -8  -2  15    3.40    6.06
   8  -2  15    4.62    3.77
   8   2  16   17.05   10.34
  -8   2  16    5.71    6.57
  -8  -2  16    5.98    6.97
   8  -2  16   16.24    9.60
   8   2  17   -1.91    3.68
  -8   2  17   -6.73    9.18
  -8  -2  17   -0.41    3.34
   8  -2  17   -3.55    4.48
   8   2  18   -4.06    8.26
  -8   2  18   16.80    7.23
  -8  -2  18    6.43    7.01
   8  -2  18   22.00    8.00
   8   2  18   -2.47    4.36
   8   2  19   98.18   16.59
  -8   2  19   95.46   17.26
   8  -2  19   86.45   14.86
  -8  -2  19   83.85   16.85
   8   2  19   80.16   17.06
   8   2  20   45.27   12.66
   8  -2  20   65.94   16.57
  -8   2  20   43.57   12.21
  -8  -2  20   53.02   14.44
   8   2  20   32.70   10.96
   8   2  21  241.53   27.86
   8  -2  21  217.71   26.73
  -8   2  21  207.24   26.98
  -8  -2  21  246.07   30.10
   8   2  21  300.62   33.66
   8   2  22   -5.90    6.26
   8  -2  22   -5.80    8.18
  -8   2  22    1.60    5.65
  -8  -2  22   -5.53    8.47
   8   2  22   10.77    7.89
   8   2  23   -7.59    6.83
   8  -2  23   -5.11    6.04
  -8   2  23   -5.07    5.99
  -8  -2  23    1.21    7.52
   8  -2  23   -2.48    4.99
   8   2  24   10.60    8.93
   8  -2  24    6.25    5.05
  -8   2  24    0.95    4.33
  -8  -2  24   -8.55    4.57
   8  -2  24   -3.77    6.79
   8   2  25   -3.05    6.87
   8  -2  25   14.96    9.88
  -8   2  25    1.44    4.58
  -8  -2  25  -12.47   10.22
   8  -2  25   -6.28    6.31
   8  -3   0   54.59   10.65
   8  -3   1   70.11   12.28
  -8   3   1   75.80   14.84
   8  -3  -1   43.66   10.22
   8  -3  -2    9.57    2.98
  -8  -3   2   41.25   10.50
  -8   3   2   28.88   10.17
   8  -3   2   22.10    7.72
   8  -3  -3  116.01   16.44
  -8   3   3  132.14   18.52
  -8  -3   3  135.60   17.46
   8  -3   3  127.57   16.58
  -8   3   4  122.86   18.56
  -8  -3   4  105.38   14.21
   8  -3  -4  113.26   15.87
   8  -3   4  106.84   14.25
   8  -3   5   33.33    9.13
  -8   3   5   31.29    9.70
  -8  -3   5   34.05    9.07
   8  -3  -5   32.25    8.27
  -8   3   6  368.33   31.14
  -8  -3   6  392.35   29.00
   8  -3  -6  355.22   28.22
   8  -3   6  315.42   26.23
  -8   3   7  138.42   19.85
  -8  -3   7  142.95   18.37
   8  -3   7  175.43   18.96
   8  -3  -7  155.48   18.86
  -8   3   8  236.56   25.47
  -8  -3   8  200.71   22.07
   8  -3   8  198.19   22.35
   8  -3  -8  207.69   21.68
   8  -3   9    2.12    5.71
  -8   3   9    2.26    5.13
   8  -3  -9    7.70    4.79
  -8  -3   9    0.37    3.34
   8  -3  10   12.04    6.16
  -8   3  10   -2.05    4.74
  -8  -3  10   11.55    5.55
  -8   3  11  160.63   20.35
  -8  -3  11  171.88   21.50
   8  -3  11  188.58   21.51
  -8   3  12   -3.07    4.39
  -8  -3  12   -1.26    6.29
   8  -3  12   -1.79    3.25
  -8   3  13   34.79   10.05
  -8  -3  13   21.29    9.22
   8  -3  13   21.00    8.50
  -8   3  14   13.29    7.83
  -8  -3  14   28.95   11.32
   8  -3  14   20.87    9.61
  -8   3  15   48.48    9.96
  -8  -3  15   29.51   10.92
   8  -3  15   53.61   12.44
  -8   3  16   38.72   12.83
  -8  -3  16   61.47   15.46
   8  -3  16   55.46   14.03
   8   3  17  180.16   22.37
   8  -3  17  202.75   24.90
  -8   3  17  177.74   23.27
  -8  -3  17  185.82   24.61
  -8   3  18    9.65    6.68
  -8  -3  18   -3.22    4.62
   8  -3  18    3.23    5.95
   8   3  19  225.56   27.04
   8  -3  19  261.79   29.86
  -8   3  19  193.63   26.63
  -8  -3  19  187.46   25.82
   8   3  20    9.26    5.50
  -8   3  20   12.83    8.20
  -8  -3  20    1.85    6.66
   8  -3  20   14.61    8.16
   8   3  21  140.47   21.85
   8  -3  21  116.82   19.75
  -8   3  21  132.20   22.73
  -8  -3  21  151.40   24.60
   8   3  22   56.87   13.64
   8  -3  22   75.64   16.42
  -8   3  22   76.65   18.60
  -8  -3  22   69.75   17.17
   8   3  23    3.22    4.51
   8  -3  23    7.45    3.50
  -8   3  23   -4.42    7.91
  -8  -3  23    0.37    5.85
   8   3  24   10.69    8.30
   8  -3  24   13.67    6.78
  -8   3  24    4.59    7.37
  -8  -3  24    7.73   10.03
   8  -3  24   -5.17    8.64
   8   3  25   20.15    5.19
   8  -3  25   58.56   16.41
  -8   3  25   58.17   15.87
  -8  -3  25   44.02   16.46
   8  -4   0   19.28    6.18
   8  -4   1  108.43   16.01
   8  -4  -1   72.69   13.29
  -8   4   1   90.68   14.34
   8  -4   2  251.85   23.13
   8  -4  -2  270.16   25.18
  -8   4   2  275.31   27.14
   8  -4  -3   -1.48    4.69
  -8   4   3    0.76    5.00
   8  -4   3    1.61    4.36
   8  -4   4   32.55    8.30
  -8   4   4   20.41    9.57
   8  -4  -4   27.31    8.48
  -8   4   5  369.98   31.49
   8  -4  -5  350.94   29.20
   8  -4   5  345.84   28.08
  -8   4   6  119.12   17.85
   8  -4  -6   89.70   14.54
   8  -4   6   74.25   13.44
  -8   4   7  100.85   16.35
   8  -4   7  104.63   15.93
   8  -4  -7  113.90   16.64
  -8   4   8  197.33   23.23
   8  -4   8  173.83   20.46
   8  -4  -8  183.73   21.60
   8  -4   9   35.76   10.01
  -8   4   9   25.04    7.06
  -8  -4   9   20.54    7.03
   8  -4  -9   38.21   10.00
   8  -4  10   51.31   12.55
  -8   4  10   52.68   14.08
   8  -4 -10   44.96   11.83
   8  -4  11   44.10   12.56
   8  -4 -11   36.98    9.12
  -8   4  11   33.00   10.59
   8  -4  12   20.97    7.14
   8  -4 -12    7.81    5.96
  -8  -4  12    4.49    5.67
   8  -4  13    2.65    4.62
   8  -4 -13    3.70    5.31
  -8   4  13    1.31    4.86
  -8  -4  13    1.67    7.13
  -8   4  14   29.09    9.51
  -8  -4  14   14.70    6.91
   8  -4  14    4.82    6.38
  -8   4  15   52.43   10.68
  -8  -4  15   29.74   10.36
   8  -4  15   35.99   11.24
  -8   4  16   -1.04    4.87
  -8  -4  16    5.46    8.78
   8  -4  16    0.50    5.14
  -8   4  17   50.69   11.94
  -8  -4  17   31.25   10.89
   8  -4  17   29.48    5.75
   8  -4  18  136.81   20.83
  -8  -4  18  141.37   23.77
  -8   4  18   94.51   17.91
  -8   4  19   76.88   16.30
  -8  -4  19   80.25   15.87
   8  -4  19   67.21   15.44
  -8   4  20   19.84    9.71
  -8  -4  20   16.40    8.79
   8  -4  20   26.16   10.88
  -8   4  21    8.27    7.81
  -8  -4  21    0.84    4.20
   8  -4  21    1.92    4.58
  -8   4  22   19.33   10.70
  -8  -4  22   10.58    6.86
   8  -4  22   -0.62    8.42
  -8   4  23    6.33    9.27
   8  -4  23    5.14    3.97
  -8  -4  23    3.51    8.27
  -8   4  24   37.84   13.70
   8  -4  24   -0.82    7.07
  -8  -4  24   42.88   15.51
   8  -5   0 1678.04   65.94
   8  -5  -1   69.13   13.63
   8  -5   1   67.32   13.59
   8  -5  -2    7.70    4.53
  -8   5   2    0.52    4.01
   8  -5   2   10.42    5.47
   8  -5   3  108.82   17.15
  -8   5   3   94.36   16.40
   8  -5  -3  129.53   19.25
   8  -5   4  101.74   16.75
  -8   5   4   84.34   16.52
   8  -5  -4   96.37   15.86
  -8   5   5  109.70   17.00
   8  -5  -5  108.87   17.18
   8  -5   5  114.58   17.36
  -8   5   6  196.00   24.24
   8  -5  -6  259.94   26.55
   8  -5   6  216.09   23.85
  -8   5   7  126.27   19.79
   8  -5  -7  113.95   18.22
   8  -5   7  105.35   16.75
  -8   5   8  104.60   18.26
   8  -5   8  102.99   16.02
   8  -5  -8  114.29   17.32
   8  -5   9   49.94   11.38
  -8   5   9   18.85    9.42
   8  -5  -9   32.63    9.63
   8  -5  10   92.88   14.43
  -8   5  10   62.70   15.29
   8  -5 -10   91.83   15.09
   8  -5 -11   20.01    8.34
   8  -5  11   17.13    6.52
  -8   5  11   26.52    9.26
   8  -5  12  -11.82    7.93
   8  -5 -12    0.99    4.49
  -8   5  12   -0.90    4.78
   8  -5  13   10.57    5.13
  -8   5  13   33.60   12.33
   8  -5 -13   30.64   10.09
   8  -5  14   63.65   13.26
   8  -5 -14   46.55   12.55
  -8   5  14   50.66   13.84
   8  -5  15   12.06    8.17
  -8   5  15   21.39    9.67
   8  -5 -15    6.33    9.20
   8  -5 -16    9.11    7.14
  -8   5  16    0.02    4.92
   8  -5  16   17.72    9.50
  -8   5  17   19.62    9.30
   8  -5  17   37.87   12.03
   8  -5  18  120.98   19.14
  -8   5  18  119.90   19.52
   8  -5 -18   94.76   18.92
  -8   5  19    3.25    6.37
   8  -5 -19    4.47    5.28
   8  -5  19    5.41    7.31
  -8   5  20   29.68    8.30
   8  -5 -20   31.48   14.75
   8  -5  20   17.81    8.31
  -8   5  21    5.04    4.37
   8  -5 -21   12.10    8.25
  -8   5  22   72.16   18.47
   8  -5 -22   21.39   10.09
   8  -5  22   73.08   15.95
  -8   5  23   -8.32    8.59
   8  -5 -23   16.82   13.39
   8  -5  23   -3.71    6.47
   8  -6   0    8.59    7.09
   8  -6   1    5.98    4.24
   8  -6  -1    1.56    4.65
   8  -6   2  654.66   43.34
  -8   6   2  646.44   42.58
   8  -6   3  220.54   24.61
  -8   6   3  252.63   27.49
   8  -6  -3  230.94   25.33
  -8   6   4   19.11    9.35
   8  -6   4    7.74    5.58
   8  -6  -4   19.33    8.32
  -8   6   5    2.31    5.95
   8  -6   5    4.85    4.37
   8  -6  -5    6.66    4.01
   8  -6  -6    1.61    2.84
   8  -6   6   -4.16    3.85
  -8   6   6    0.45    3.59
   8  -6  -7    4.13    4.11
   8  -6   7   -1.66    3.62
  -8   6   7   -1.78    3.77
   8  -6  -8   -0.82    6.49
   8  -6   8   -4.14    5.46
  -8   6   8    0.31    3.49
   8  -6   9   -6.76    5.78
   8  -6  -9   -4.87    5.41
   8  -6  10   46.46   12.03
  -8   6  10   33.80    8.95
   8  -6 -10   39.40   11.94
   8  -6  11   26.00    7.94
  -8   6  11   33.79   11.14
   8  -6 -11   13.63    7.84
  -8  -6  11   19.10   10.44
   8  -6 -12   60.76   14.17
  -8   6  12   77.73   17.05
   8  -6  12   87.38   17.46
   8  -6  13    0.07    5.59
   8  -6 -13    2.67    4.77
  -8   6  13   -7.72    4.02
   8  -6  14   69.95   14.38
  -8   6  14   65.00   13.80
   8  -6 -14   67.40   14.75
   8  -6  15   -0.47    6.61
   8  -6 -15    3.89    5.46
  -8   6  15   -2.00    5.91
   8  -6  16    8.28    5.81
   8  -6 -16    3.77    7.58
  -8   6  16    3.00    4.87
   8  -6 -17   18.09    7.61
  -8   6  17   18.97    7.76
   8  -6  17   36.45   11.57
  -8   6  18   55.16   12.33
   8  -6 -18   54.12   14.08
   8  -6  18   19.16    9.13
  -8   6  19   14.90   12.20
   8  -6  19    4.02    6.12
   8  -6 -19   12.97   10.39
  -8   6  20  -10.44    3.85
   8  -6  20    4.59    5.53
  -8   6  21   58.97   14.95
   8  -6  21   28.99   10.50
  -8   6  22   40.04   12.05
   8  -6  22   26.52    7.68
   8  -7   0   13.58    4.59
   8  -7   1  283.71   29.77
   8  -7  -1  240.92   27.03
   8  -7  -2   14.93    6.21
   8  -7   2   25.45    8.62
   8  -7   3  530.74   40.70
  -8   7   3  504.81   39.38
   8  -7  -3  542.82   41.20
  -8   7   4   39.34   12.27
   8  -7  -4   43.89   12.52
   8  -7   4   70.89   14.15
   8  -7   5    0.89    3.20
   8  -7  -5    1.18    3.90
   8  -7  -6    7.63    8.95
  -8   7   6    4.52    7.76
   8  -7   6   13.59    7.43
  -8   7   7  140.61   22.04
   8  -7  -7  142.68   21.06
   8  -7   7  119.32   19.68
  -8   7   8  125.96   20.52
   8  -7  -8  105.71   19.70
   8  -7   8   91.78   16.53
   8  -7   9   11.20    5.78
   8  -7  -9   22.10    3.67
  -8  -7  10  116.95   20.37
   8  -7 -10  116.54   19.81
  -8   7  10  138.62   20.40
   8  -7  10  142.09   20.00
  -8  -7  11  286.06   30.11
   8  -7 -11  333.39   33.20
  -8   7  11  298.74   30.19
   8  -7  11  343.77   31.96
   8  -7 -12    5.78    8.22
  -8  -7  12    2.85    5.33
   8  -7  12    5.53    2.66
  -8   7  12    5.68    7.25
   8  -7  13   27.68    9.11
   8  -7 -13   55.20   12.87
  -8   7  13   58.54   12.04
  -8  -7  13   21.97    8.47
   8  -7  14    9.26    6.67
   8  -7 -14   11.76   10.60
  -8   7  14    4.94    3.88
   8  -7  15   24.49    7.82
  -8   7  15   22.81    8.12
   8  -7 -15   10.99    9.29
   8  -7 -16   -5.32    8.19
   8  -7  16   -0.89    5.28
  -8   7  16   -6.93    7.15
   8  -7  17   89.49   16.76
   8  -7 -17  104.23   20.11
  -8   7  17   67.97   15.90
  -8   7  18    8.94    7.44
   8  -7 -18    2.12    6.75
   8  -7  18    5.73    7.55
   8  -7 -19   83.22   17.92
  -8   7  19  106.94   20.01
   8  -7  19   88.01   17.48
  -8   7  20   -0.11    5.71
   8  -7 -20   15.50   10.53
   8  -7  20    3.71    4.60
   8  -7 -21   78.71   17.74
  -8   7  21   90.28   18.87
   8  -7  21   59.96   13.30
   8  -8   0  234.16   27.67
   8  -8   1   90.01   18.00
   8  -8  -1   50.89   14.68
   8  -8   2    9.20    5.97
   8  -8  -2   -2.35    3.85
   8  -8  -3   34.71   13.48
   8  -8   3   11.42    8.58
  -8   8   4    8.46    8.00
   8  -8  -4   14.17    6.96
   8  -8   4   16.82    7.77
  -8   8   5   61.59   14.99
   8  -8   5   68.41   14.89
   8  -8  -5   75.76   16.10
   8  -8  -6   63.03   14.45
  -8   8   6   51.03   12.26
   8  -8   6   39.52    9.50
   8  -8   7  135.26   21.33
  -8   8   7   92.77   17.81
   8  -8  -7  122.94   21.14
   8  -8  -8   -4.57    3.38
   8  -8   8    4.31    4.54
  -8   8   8    0.70    6.60
  -8  -8   9   21.58   13.74
   8  -8  -9    5.43    9.25
   8  -8   9   -5.02    6.00
  -8   8   9    7.53    5.27
  -8  -8  10    2.92    8.10
   8  -8  10    4.43    5.83
   8  -8 -10    1.22    6.01
  -8   8  10    7.55    7.42
  -8  -8  11  154.20   22.47
   8  -8 -11  171.12   23.67
  -8   8  11  191.45   25.92
   8  -8  11  168.39   23.59
  -8  -8  12    5.55    5.51
   8  -8  12   24.73    9.66
  -8   8  12    6.38    4.22
   8  -8 -12   11.54    9.26
  -8  -8  13   -1.45    5.98
   8  -8 -13    1.96    6.65
   8  -8  13   -1.66    6.11
  -8   8  13    2.87    4.55
  -8  -8  14    6.60    6.67
   8  -8  14    6.40    7.72
   8  -8 -14   24.87   11.70
  -8   8  14   10.76    8.41
   8  -8 -15  146.73   23.44
  -8  -8  15  170.18   23.50
   8  -8  16    0.03    3.31
  -8   8  16   12.31    4.66
   8  -8 -16    2.10    7.91
   8  -8 -17  132.83   23.77
  -8   8  17  125.55   22.52
   8  -8  17  114.56   20.26
   8  -8  18   16.94    9.54
   8  -8 -18   -2.84    5.88
  -8   8  18   19.54    7.18
   8  -8  19  106.72   19.36
   8  -8 -19   72.53   17.03
  -8   8  19  117.80   21.72
  -8   8  20   27.22    4.77
   8  -8 -20   20.66    9.53
   8  -8  20   23.67    9.24
   8  -9   0  149.63   22.26
   8  -9   1   72.48   17.35
   8  -9  -1  106.27   19.76
   8  -9   2   48.90   14.00
   8  -9  -2   27.82    9.13
   8  -9  -3   81.27   17.63
   8  -9   3   57.95   14.42
   8  -9  -4    2.21    5.41
   8  -9   4   -6.01    7.65
  -8   9   5   31.90   10.84
   8  -9   5   42.15   13.29
   8  -9  -5   27.83    9.69
  -8   9   6   35.16    9.87
   8  -9   6   24.44    9.07
   8  -9  -6   21.11    8.11
   8  -9   7  415.57   36.43
  -8   9   7  416.47   37.80
   8  -9  -7  430.74   38.05
  -8  -9   8  129.61   25.48
  -8   9   8  109.27   19.13
   8  -9   8   92.76   16.76
   8  -9  -8  133.16   21.98
  -8  -9   9   -3.90    7.59
   8  -9  -9   -0.93    3.05
   8  -9   9   -5.38    6.31
  -8   9   9    5.89    6.62
  -8  -9  10    8.22    8.28
   8  -9  10    5.57    4.62
  -8   9  10    1.66    4.69
  -8  -9  11   75.95   17.42
   8  -9  11   77.45   16.36
  -8   9  11   99.98   19.44
   8  -9 -11   96.44   18.18
  -8  -9  12   20.02    9.06
   8  -9  12   34.81   11.38
  -8   9  12   46.75   13.02
   8  -9 -12   54.26   14.63
  -8  -9  13   54.57   13.48
   8  -9  13   78.38   17.03
  -8   9  13   86.10   17.28
   8  -9 -13   62.51   15.21
   8  -9 -14   42.76   13.15
  -8  -9  14   24.09   10.89
   8  -9  14   40.49   12.60
  -8   9  14   43.03   13.68
  -8  -9  15   18.89    4.44
   8  -9 -15   46.84   14.33
   8  -9  15   34.54   10.83
  -8   9  15   18.06   11.21
   8  -9  16   -2.31    6.17
   8  -9 -16   -6.20    5.91
  -8   9  16   -1.34    4.14
  -8  -9  16    8.09    7.98
   8  -9  17   50.88   13.98
   8  -9 -17   55.09   14.62
  -8   9  17   78.19   16.72
   8  -9 -18  135.70   23.85
  -8   9  18  125.55   22.55
   8  -9  18  122.49   21.79
   8 -10   0   -9.14   10.86
   8 -10   1   32.73    9.94
   8 -10  -1   28.80   11.14
   8 -10   2    9.32    5.75
   8 -10  -2   -0.29    3.99
   8 -10  -3    6.51    5.99
   8 -10   3    8.17    8.14
   8 -10  -4  100.46   18.96
   8 -10   4   91.42   18.17
   8 -10  -5   14.48   10.67
   8 -10   5    2.67    8.30
  -8  10   6    4.59    8.17
   8 -10   6    7.50    6.41
   8 -10  -6    4.94    6.36
   8 -10  -7   15.31    9.20
  -8 -10   7   65.28   15.62
  -8  10   7   42.29   15.29
   8 -10   7   38.67   13.72
   8 -10  -8    4.63    6.28
  -8  10   8   10.00    5.90
   8 -10   8    9.88    7.70
  -8 -10   9    2.79    5.88
   8 -10  -9   11.46    6.16
   8 -10   9   -1.82    6.19
  -8  10   9   17.30    5.70
  -8 -10  10    0.08    5.98
   8 -10 -10    4.61    5.72
   8 -10  10  -14.43    7.41
  -8  10  10  -14.23    7.43
  -8 -10  11    7.01    8.70
   8 -10  11   14.63    9.97
  -8  10  11   -0.97    4.15
  -8 -10  12   25.65   10.45
   8 -10  12   24.76    8.36
  -8  10  12   16.35   12.56
   8 -10 -12   33.88   11.61
  -8 -10  13   -9.44   10.01
   8 -10  13   -4.62    8.01
  -8  10  13   12.77    8.36
   8 -10 -13    9.58    9.62
  -8 -10  14  118.64   19.75
   8 -10 -14  139.96   22.71
  -8  10  14  162.65   25.17
   8 -10  14  108.00   20.00
  -8 -10  15   -0.63    4.24
   8 -10  15    6.52    6.15
  -8  10  15   12.10    8.96
   8 -10 -15   -4.29    3.82
  -8 -10  16    7.82    8.70
   8 -10 -16    6.72    5.69
   8 -10  16    8.98    6.49
  -8  10  16   12.70    4.94
   8 -11   0   36.83   11.55
   8 -11   1    6.64    7.64
   8 -11  -1    4.83    8.26
   8 -11   2   17.75    5.67
   8 -11  -2   16.92   10.58
   8 -11  -3    7.11    9.07
   8 -11   3   20.63    9.21
   8 -11   4  192.12   27.13
   8 -11  -4  190.08   26.66
   8 -11  -5    0.62    8.46
   8 -11   5    2.26    5.14
   8 -11   6    0.62    3.96
   8 -11  -6   -1.35    3.56
   8 -11   7    2.72    6.32
   8 -11  -7   13.46    5.94
   8 -11  -8   23.54   11.36
  -8 -11   8   55.41   18.89
  -8  11   8   16.58   11.09
   8 -11   8   33.91   11.48
  -8 -11   9   63.25   14.78
   8 -11  -9   39.62   12.83
  -8  11   9   25.57    8.12
   8 -11   9   57.42   15.47
  -8 -11  10  152.91   23.38
   8 -11 -10   93.88   19.88
   8 -11  10   86.84   18.71
  -8  11  10  121.12   21.54
  -8 -11  11    0.21    6.59
   8 -11 -11   15.25   10.50
   8 -11  11   -4.79    8.69
  -8  11  11   12.38   10.30
  -8 -11  12   31.66    6.28
   8 -11  12   46.00   12.84
   8 -11 -12   54.37   15.04
  -8  11  12   32.22   12.25
  -8 -11  13    5.76    5.51
   8 -11  13   15.72    7.89
   8 -11 -13   16.93    8.35
  -8  11  13    2.70    4.62
   8 -12   0   60.23   15.77
   8 -12   1   45.33   13.99
   8 -12  -1   37.42   14.64
   8 -12   2    6.35    7.99
   8 -12  -2   -5.00    7.00
   8 -12  -3   -2.51    7.13
   8 -12   3   -5.49    5.94
   8 -12  -4   23.96   11.28
   8 -12   4    6.86    8.81
   8 -12  -5   11.61   10.46
   8 -12   5   16.73    9.99
   8 -12   6   15.09    5.62
   8 -12  -6   36.79   12.28
   8 -12   7    3.77    6.95
   8 -12  -7   -0.97    6.30
  -8 -12   8   52.74   22.05
   8 -12   8   29.64   11.51
   8 -12  -8    5.25    8.60
   8 -12  -9    6.94    7.45
   8 -12   9   -5.60    5.84
  -9   0   2   24.36    8.77
  -9   0   3   -2.40    7.17
  -9   0   4   12.51    5.84
  -9   0   5   -0.61    4.64
  -9   0   6  136.12   19.55
  -9   0   7    5.30    8.06
  -9   0   8   44.76   11.36
  -9   0   9    6.30    7.76
  -9   0  10   36.84   10.56
  -9   0  11  -10.07    6.01
  -9   0  12   35.96   12.23
  -9   0  13    4.32    5.31
  -9   0  14   58.77   12.98
  -9   0  15    3.01    8.07
  -9   0  16   17.22   10.89
  -9   0  17   14.11   12.02
   9   0  18  111.75   19.18
  -9   0  18  124.01   22.17
   9   0  19    6.31    6.29
  -9   0  19   -1.61    7.86
   9   0  20   79.55   16.88
  -9   0  20   61.96   15.64
   9   0  21   -5.30    3.62
  -9   0  21   10.49    7.45
   9   0  21   10.89    7.35
   9   0  22   11.19    6.09
  -9   0  22    0.74    4.10
   9   0  22    2.86    9.86
   9   0  23   -9.05    8.99
  -9   0  23   -9.32    7.47
   9   0  23  -12.65    9.70
  -9  -1   2  847.54   47.89
  -9   1   2  922.43   50.31
  -9  -1   3    7.68    2.83
  -9   1   3    0.45    3.89
  -9   1   4  227.02   25.83
  -9  -1   4  267.87   27.23
  -9   1   5   80.82   14.29
  -9  -1   5   51.75   10.93
  -9   1   6  199.54   24.39
  -9  -1   6  139.05   19.13
  -9   1   7   -2.16    6.55
  -9  -1   7   13.78    6.64
  -9   1   8  304.92   29.67
  -9  -1   8  376.60   31.53
  -9   1   9  168.94   22.53
  -9  -1   9  173.95   21.57
  -9   1  10  248.17   27.19
  -9  -1  10  257.63   28.07
  -9   1  11    6.00    3.44
  -9  -1  11   13.64   10.59
   9  -1  12  176.74   21.49
  -9   1  12  224.53   26.32
  -9  -1  12  231.38   26.47
  -9   1  13  115.12   19.61
  -9  -1  13   97.56   17.49
   9  -1  13   78.09   14.25
  -9   1  14   17.24    7.45
  -9  -1  14   13.75    8.00
   9  -1  14   -4.99    6.57
  -9   1  15    8.76    7.05
  -9  -1  15   16.46    9.82
   9  -1  15    9.81    8.53
   9  -1  16  230.23   26.13
  -9   1  16  183.29   23.68
  -9  -1  16  214.15   26.00
   9  -1  17   51.21   14.09
  -9   1  17   34.17    8.43
  -9  -1  17   40.27   10.96
   9  -1  18    8.81    6.93
  -9   1  18   12.81    8.84
  -9  -1  18   27.66   10.63
   9  -1  19   -0.57    4.70
  -9   1  19    5.38    8.89
  -9  -1  19   11.08    6.68
   9  -1  20  113.58   18.74
  -9   1  20  132.30   21.83
  -9  -1  20  102.60   19.83
   9   1  20  116.46   18.96
   9  -1  21    2.90    5.70
  -9   1  21   -6.45    5.36
  -9  -1  21   -5.36    7.90
   9   1  21   -7.57   11.40
   9  -1  22   -3.21    4.90
  -9   1  22   19.99   10.22
  -9  -1  22   11.31   11.17
   9   1  22    0.82    6.09
   9  -1  23   53.77   14.13
  -9   1  23   77.52   18.52
  -9  -1  23   52.98   13.86
   9  -1  23   96.63   19.23
  -9  -2   2    4.95    5.54
  -9   2   2   -3.26    5.13
  -9  -2   3   -0.90    6.69
  -9   2   3    1.96    3.36
  -9   2   4   26.44    8.41
  -9  -2   4   16.59    9.49
  -9  -2   5  111.01   16.69
  -9   2   5   95.24   16.36
  -9   2   6   26.27    9.83
  -9  -2   6    8.82    6.12
  -9   2   7   93.58   16.29
  -9  -2   7   70.34   12.01
  -9   2   8   -7.85    9.28
  -9  -2   8    3.63    4.62
   9  -2   8    1.74    3.53
   9  -2   9   83.00   15.39
  -9   2   9   73.73   15.49
  -9  -2   9   75.82   15.65
  -9   2  10   35.23   10.17
  -9  -2  10   48.68   12.31
   9  -2  10   47.35   11.01
  -9   2  11    2.16    4.03
  -9  -2  11    0.28    3.73
   9  -2  11    3.56    6.99
  -9   2  12    3.54    7.02
  -9  -2  12   14.87    7.84
   9  -2  12    5.38    7.20
  -9   2  13   -0.07    4.07
  -9  -2  13    3.03    6.94
   9  -2  13   -7.73    4.93
  -9   2  14    7.52    5.45
  -9  -2  14   20.58    6.95
   9  -2  14   13.42    7.88
   9  -2  15  199.31   24.48
  -9   2  15  146.61   21.23
  -9  -2  15  151.13   21.84
  -9   2  16    7.53    4.74
  -9  -2  16   -5.44    8.42
   9  -2  16   10.17    6.14
   9  -2  17  156.05   22.67
  -9  -2  17  124.27   20.53
  -9   2  17   88.51   18.09
  -9   2  18   -1.02    4.59
  -9  -2  18    8.03   10.23
   9  -2  18   13.96    8.73
   9  -2  19    8.47    7.29
  -9   2  19   32.22   13.90
  -9  -2  19   14.03    9.87
   9  -2  20    7.28    8.39
  -9   2  20    2.57   10.64
  -9  -2  20    2.50    7.44
   9  -2  21   16.03    5.81
  -9   2  21    3.42    5.95
  -9  -2  21   26.84   12.14
   9  -2  22    7.96    6.58
  -9   2  22   -3.56    5.12
  -9  -2  22    7.88    6.88
   9  -2  23   23.15   12.18
  -9   2  23   -7.51    6.39
  -9  -2  23    8.59    8.79
  -9   3   2    7.16    6.53
  -9   3   3   96.32   17.91
   9  -3   3   74.82   12.90
   9  -3   4   11.11    5.79
  -9   3   4   13.08    8.50
  -9   3   5  278.88   29.15
   9  -3   5  230.70   23.90
  -9   3   6   -5.78    3.98
  -9  -3   6  -12.86    5.76
   9  -3   7    2.81    3.89
  -9   3   7    7.23    4.87
  -9  -3   7   -4.70    3.87
   9  -3   8   24.28    7.32
  -9   3   8   24.17    8.50
  -9   3   9  335.53   32.57
  -9  -3   9  393.95   33.98
   9  -3   9  386.07   31.31
  -9   3  10   24.76    7.67
  -9  -3  10   28.26   10.69
   9  -3  10   41.47    9.87
  -9   3  11   13.14    8.15
  -9  -3  11   10.96    3.88
   9  -3  11   29.20    8.70
  -9   3  12   23.64    3.25
  -9  -3  12   33.61    9.85
   9  -3  12   12.12    5.36
  -9   3  13   54.16   13.93
  -9  -3  13   59.89   14.50
   9  -3  13   40.60    9.79
  -9   3  14    1.71    7.55
  -9  -3  14    3.08    3.64
   9  -3  14   11.62    6.31
   9  -3  15  225.54   26.09
  -9   3  15  260.73   29.61
  -9  -3  15  232.93   26.36
  -9   3  16   16.51    8.32
  -9  -3  16    7.58    6.88
   9  -3  16    4.98    5.49
  -9   3  17   -6.00    6.15
  -9  -3  17   26.21   12.65
   9  -3  17   17.06    9.32
  -9   3  18   29.94    9.24
  -9  -3  18   10.52    8.09
   9  -3  18   25.92    9.36
   9  -3  19  173.36   24.39
  -9   3  19  212.52   26.93
  -9  -3  19  233.09   29.80
  -9   3  20   81.80   18.52
  -9  -3  20   95.09   19.32
   9  -3  20   78.60   15.94
  -9   3  21   59.77   16.12
   9  -3  21   21.44    8.96
  -9  -3  21   40.54   12.62
   9  -3  22   12.25    6.91
  -9  -3  22    7.78    5.17
   9  -4   0    4.01    4.48
   9  -4   1    9.02    4.86
   9  -4  -1   15.08    6.61
  -9   4   2   46.25   13.12
   9  -4   2   36.92    9.60
   9  -4   3    2.13    4.35
  -9   4   3    8.12    4.20
   9  -4   4    6.21    3.57
  -9   4   4    7.94    6.20
   9  -4   5   32.15    9.66
  -9   4   5   46.54   11.74
   9  -4   6   37.69    9.70
  -9   4   6   22.37    9.76
   9  -4   7    8.49    5.75
  -9   4   7    9.64    8.06
  -9   4   8  265.56   28.68
   9  -4   8  271.07   26.04
   9  -4   9    5.50    3.40
  -9   4   9   17.21    9.82
   9  -4  10   34.85    9.99
  -9   4  10   20.21    9.29
   9  -4  11   11.69    6.75
  -9   4  11    6.66    6.11
   9  -4  12    5.15    5.34
  -9   4  12   10.17    6.05
  -9   4  13   -0.48    5.39
   9  -4  13    6.27    5.17
  -9   4  14   35.22   10.69
   9  -4  14   26.22    8.08
  -9   4  15   -5.69    6.76
   9  -4  15    2.32    4.70
  -9   4  16    2.56    3.77
   9  -4  16   -2.27    7.59
  -9   4  17  -10.04    8.84
   9  -4  17    1.31    6.40
  -9   4  18   56.71   14.70
   9  -4  18    5.31    6.66
  -9   4  19    5.67    4.89
   9  -4  19   18.71    8.75
  -9   4  20    0.53    6.14
   9  -4  20   10.47    6.94
  -9   4  21   -3.74    6.10
   9  -4  21   -8.92    8.92
  -9   4  22   59.70   14.23
   9  -4  22   60.26   14.00
   9  -5   0   -0.13    4.89
   9  -5   1   13.84    9.37
   9  -5  -1   -9.30    8.28
   9  -5   2  164.09   21.19
   9  -5  -2  161.54   22.32
   9  -5  -3   12.78    6.01
  -9   5   3   24.11    8.60
   9  -5   3   11.70    7.41
   9  -5  -4    2.48    3.68
   9  -5   4    3.02    5.87
  -9   5   4    5.31    5.64
   9  -5   5    3.63    4.46
   9  -5  -5    3.09    5.14
  -9   5   5   -3.49    4.30
   9  -5   6   61.89   13.55
  -9   5   6  118.79   20.42
   9  -5   7   18.32    8.69
  -9   5   7    2.14    5.58
  -9   5   8  264.37   29.02
   9  -5   8  266.39   27.39
   9  -5   9   10.87    8.85
  -9   5   9   15.26    8.67
  -9   5  10  148.04   21.62
   9  -5  10  146.31   20.66
   9  -5  11   34.48   12.68
  -9   5  11   38.04   11.69
   9  -5  12  166.29   22.54
   9  -5  13   46.53   11.06
  -9   5  13   37.12   15.11
   9  -5  14   83.97   15.91
  -9   5  14  104.84   19.37
  -9   5  15   36.87   10.77
   9  -5  15   41.25   12.31
  -9   5  16  404.08   36.79
   9  -5  16  243.39   28.92
  -9   5  17    7.49    8.90
   9  -5  17    7.82    3.50
  -9   5  18    9.85    5.69
   9  -5  18   10.33    9.37
  -9   5  19   15.44    7.92
   9  -5  19    6.44    4.25
  -9   5  20   61.22   15.36
   9  -5  20   57.04   14.31
  -9   5  21   54.48   13.60
   9  -5  21   80.78   16.97
   9  -6   0   -5.41    3.25
   9  -6  -1   18.84    9.03
   9  -6   1   17.25    6.77
   9  -6  -2   44.16   13.19
   9  -6   2   29.64    8.90
   9  -6  -3   45.07   13.29
  -9   6   3   56.45   15.21
   9  -6   3   30.44   11.22
   9  -6  -4    1.32    4.61
  -9   6   4   11.91    7.68
   9  -6   4   -2.95    4.69
   9  -6   5  -10.40    7.02
   9  -6  -5    6.24    6.60
  -9   6   5    0.79    4.82
   9  -6   6   -1.01    4.27
   9  -6  -6    6.45    3.73
   9  -6   7   18.93    9.29
  -9   6   7    4.15    6.78
   9  -6  -7   21.65   10.91
   9  -6  -8   23.14    8.93
   9  -6   8   37.55   10.15
  -9   6   8   35.79   11.20
   9  -6  -9   15.90    8.98
   9  -6   9   17.99    8.24
  -9   6   9   20.44   10.70
   9  -6  10    1.92    7.27
  -9   6  10   -3.09    3.20
   9  -6  11   -0.79    4.39
  -9   6  11    6.36    7.97
   9  -6  12   -1.19    3.41
  -9   6  12   10.15    4.04
   9  -6  13    1.11    3.43
  -9   6  13   19.71    6.80
   9  -6  14    9.38    4.68
  -9   6  14   -8.29    6.53
   9  -6  15   13.63    6.43
  -9   6  15   20.54   10.15
  -9   6  16   22.51   10.66
   9  -6  16   -5.95    8.10
  -9   6  17   39.03    8.79
   9  -6  17   36.67   11.28
  -9   6  18  115.06   20.98
   9  -6  18   92.45   18.42
  -9   6  19    6.18    5.71
   9  -6  19   -1.36    5.14
  -9   6  20   -3.94    6.32
   9  -6  20    3.53    3.50
   9  -7   0    0.26    3.29
   9  -7  -1   21.64    7.92
   9  -7   1   11.92    7.90
   9  -7  -2   94.44   16.93
   9  -7   2   77.24   16.39
   9  -7   3  241.40   27.69
   9  -7  -3  250.63   30.41
   9  -7  -4   -2.46    7.13
  -9   7   4   11.72    6.75
   9  -7   4   -0.63    6.55
   9  -7   5  173.61   24.81
  -9   7   5  157.82   22.78
   9  -7  -5  151.32   22.71
   9  -7   6   22.31    6.51
  -9   7   6   45.33   12.12
   9  -7  -6   31.72   11.43
   9  -7   7   10.22    3.24
  -9   7   7   25.49    8.50
   9  -7  -8    4.74    4.03
   9  -7   8    1.63    3.10
  -9   7   8   -1.38    5.53
  -9   7   9  233.91   28.80
   9  -7  -9  223.40   27.28
   9  -7   9  216.09   25.23
   9  -7 -10   74.41   16.95
  -9   7  10  106.52   19.39
   9  -7  10   96.33   18.14
   9  -7  11   -1.02    5.50
   9  -7 -11    7.12    7.14
  -9   7  11   -2.87    3.79
   9  -7  12   36.67   10.12
  -9   7  12   40.95   11.23
  -9   7  13  284.16   30.93
   9  -7  13  339.74   33.20
   9  -7  14    3.95    6.06
  -9   7  14    0.03    4.81
   9  -7  15   37.33   13.14
  -9   7  15   49.81   14.96
   9  -7  16  105.89   18.33
  -9   7  16  176.77   25.27
  -9   7  17  194.63   27.17
   9  -7  17  187.60   26.15
  -9   7  18   22.45    8.27
   9  -7  18   18.62    8.28
  -9   7  19   21.15    7.14
   9  -7  19   44.05   11.18
   9  -8   0    2.86    5.13
   9  -8  -1   23.11   11.16
   9  -8   1   11.90    9.32
   9  -8  -2   11.82    3.13
   9  -8   2    1.20    4.83
   9  -8  -3   49.71   14.59
   9  -8   3   35.78   11.38
   9  -8  -4    4.47    3.70
   9  -8   4    8.85    8.84
  -9   8   5   74.57   17.13
   9  -8  -5   62.67   15.53
   9  -8   5   53.21   12.55
  -9   8   6    2.01    5.60
   9  -8   6    8.59    6.44
   9  -8  -6   14.17    7.50
   9  -8   7   29.32   11.23
  -9   8   7   15.91    5.10
   9  -8   8    3.27    3.62
  -9   8   8   16.71    7.92
   9  -8  -8   13.34    4.89
   9  -8  -9   10.34    5.38
   9  -8   9   39.59   13.21
  -9   8   9   28.27   10.53
   9  -8 -10    6.93    8.34
   9  -8  10   -3.79    5.93
  -9   8  10    7.95    8.24
   9  -8  11   21.86    8.75
   9  -8 -11   21.64    9.48
  -9   8  11    0.03    4.51
   9  -8  12   -5.41    6.19
   9  -8 -12    7.06    7.69
  -9   8  12   -0.53    4.03
   9  -8 -13    4.34    7.80
  -9   8  13   -3.30    6.34
   9  -8  14   25.96    9.29
  -9   8  14   36.97   12.01
   9  -8 -14   28.20   12.33
   9  -8  15   18.68    9.16
  -9   8  15   12.55   11.03
   9  -8  16    9.02    8.32
  -9   8  16   16.92   11.55
   9  -8  17   46.69   12.30
  -9   8  17   49.42   13.92
   9  -9   0    3.46    5.88
   9  -9  -1  100.25   19.07
   9  -9   1  114.60   21.66
   9  -9  -2   26.61    8.97
   9  -9   2   16.57    8.74
   9  -9  -3   15.68    8.78
   9  -9   3   31.53   11.64
   9  -9  -4    6.61    5.05
   9  -9   4    7.40    6.65
   9  -9  -5    9.18    9.13
   9  -9   5    5.91    5.46
   9  -9   6  222.64   28.15
  -9   9   6  293.51   31.97
   9  -9  -6  202.59   27.40
   9  -9   7   10.87    4.75
   9  -9  -7   -1.49    3.96
   9  -9   8   31.15    9.07
  -9   9   8   31.43   12.40
   9  -9  -8    2.73    3.67
  -9   9   9  258.63   30.49
   9  -9  -9  227.74   29.29
   9  -9   9  198.67   26.63
   9  -9 -10    6.81    9.45
   9  -9  10   -3.69    8.46
  -9   9  10  -10.30    7.25
   9  -9 -11    2.47    4.15
  -9   9  11    0.49    6.96
   9  -9  12   22.36   10.53
   9  -9 -12   10.54    7.82
  -9   9  12   23.37   10.96
  -9   9  13  148.47   24.00
   9  -9  13  135.29   20.98
   9  -9 -13  132.36   24.56
   9  -9  14    0.39    3.86
   9  -9 -14    3.86    6.96
  -9   9  14   -1.89    4.99
   9  -9  15   47.90   14.60
   9  -9 -15   48.98   12.51
   9 -10   0   -1.05    4.30
   9 -10  -1   -4.33    4.59
   9 -10   1   -5.75    6.85
   9 -10  -2    4.37    7.07
   9 -10   2    2.11    6.70
   9 -10  -3    7.48    9.80
   9 -10   3    3.12    5.44
   9 -10  -4   51.44   13.49
   9 -10   4   47.88   14.51
   9 -10  -5   11.78    6.04
   9 -10   5   11.17    7.29
   9 -10   6    7.75    9.02
   9 -10  -6    2.31    3.60
  -9  10   7   -2.22   10.15
   9 -10   7   -4.73    9.74
   9 -10  -7    6.39    8.40
   9 -10   8   15.44   11.64
  -9  10   8   28.13   13.46
   9 -10  -8    2.25    3.91
   9 -10   9   47.22   15.06
  -9  10   9   26.30   11.02
   9 -10  -9   48.21   14.55
   9 -10 -10   10.94    8.68
   9 -10  10   -5.66    6.39
  -9  10  10   12.62   10.98
   9 -10 -11   -3.14    5.12
   9 -10  11   -4.54    6.54
  -9  10  11   -1.44    7.96
   9 -10 -12    8.26    9.00
   9 -10  12    2.11    6.37
  -9  10  12  -10.72    9.57
   9 -11   0   -7.70    8.08
   9 -11  -1   25.27   14.11
   9 -11   1   28.85   10.36
   9 -11  -2   91.87   18.47
   9 -11   2  107.06   22.62
   9 -11  -3   19.69    7.55
   9 -11   3   46.15   13.97
   9 -11  -4    3.54    4.77
   9 -11   4   20.24   10.20
   9 -11  -5    7.39    8.50
   9 -11   5   13.04    7.46
   9 -11  -6   -2.81    8.12
   9 -11   6    7.90    4.35
   9 -11   7    3.79    8.37
   9 -11  -7    4.52    4.52
   9 -11   8   71.06   16.90
   9 -11  -8   44.78   15.19
 -10   0   3    9.73    9.48
 -10   0   4   65.84   14.92
 -10   0   5    3.13    7.24
 -10   0   6   17.98   11.18
 -10   0   7    0.99    3.45
 -10   0   8   97.95   17.86
 -10   0   9    0.12    5.11
 -10   0  10   -2.96    8.58
 -10   0  11   -5.54    7.22
 -10   0  12   59.28   12.30
 -10   0  13    0.35    5.69
 -10   0  14   62.82   17.86
 -10   0  15   -5.50    6.21
 -10   0  16    9.34    9.55
 -10   0  17   -0.20    4.10
 -10   0  18   57.83   16.09
 -10   0  19    8.36    7.66
 -10   0  20    3.71    4.00
 -10  -1   3   26.04    7.50
 -10   1   3   39.99   11.62
 -10  -1   4  187.69   24.22
 -10   1   4  194.11   25.21
 -10  -1   5   44.56   11.89
 -10   1   5   46.51   12.13
 -10   1   6   45.11   10.22
 -10  -1   6   55.49   14.19
 -10   1   7  102.31   19.21
 -10  -1   7  125.52   21.41
 -10   1   8  170.90   23.27
 -10  -1   8  169.03   23.44
 -10   1   9   42.73   14.00
 -10  -1   9   20.54    7.67
 -10   1  10  101.69   17.95
 -10  -1  10   90.13   17.88
 -10   1  11  168.48   22.96
 -10  -1  11  142.27   21.07
 -10   1  12   11.60    6.50
 -10  -1  12    2.65    6.04
 -10   1  13   39.64   12.42
 -10  -1  13   29.14   12.33
 -10   1  14   48.06   12.57
 -10  -1  14   50.07   12.82
 -10   1  15   62.22   15.49
 -10  -1  15   23.54    8.87
 -10   1  16   10.51    9.59
 -10  -1  16   -1.22    5.37
 -10   1  17   11.23    4.20
 -10  -1  17   20.18    7.85
 -10   1  18  146.57   22.74
 -10  -1  18  116.66   19.67
 -10   1  19   -9.29    8.76
 -10  -1  19   -6.38    6.64
 -10   1  20   15.97    9.40
 -10  -1  20   34.52   10.91
 -10   2   3    4.13    4.70
 -10   2   4   70.21   15.93
 -10  -2   5   -5.14    7.44
 -10   2   5    5.57    6.52
 -10   2   6    9.54    3.72
 -10   2   7    9.73    9.98
 -10  -2   7   20.53   14.05
 -10   2   8   60.56   13.84
 -10  -2   8   38.56   12.52
 -10   2   9    9.85    6.36
 -10  -2   9    7.10    4.42
 -10   2  10   73.77   17.32
 -10  -2  10  115.09   18.47
 -10   2  11   31.16   10.39
 -10  -2  11   78.38   17.74
 -10   2  12   32.27   11.78
 -10  -2  12    6.21    4.36
 -10   2  13   20.82    9.86
 -10  -2  13   15.21   10.29
 -10   2  14   24.96   10.26
 -10  -2  14   34.30   12.14
 -10   2  15    4.20    8.41
 -10  -2  15    1.87    5.16
 -10   2  16   20.46    8.88
 -10  -2  16    4.73   10.21
 -10   2  17   17.09    8.91
 -10  -2  17   -1.01    5.91
 -10   2  18   33.36   11.20
 -10  -2  18   49.43   16.18
 -10   2  19   68.47   15.33
 -10  -2  19   72.55   18.19
 -10   2  20   -7.70    8.19
 -10  -2  20   14.26   12.73
 -10   3   3  270.66   29.28
 -10   3   4   21.68    9.53
 -10   3   5   99.59   17.93
 -10   3   6   35.20   10.35
 -10   3   7  484.06   40.69
 -10   3   8   28.42   10.40
 -10   3   9   27.20   10.88
 -10   3  10    4.60    8.64
 -10   3  11   72.50   16.63
 -10   3  12    4.30    7.82
 -10   3  13   71.72   17.46
 -10   3  14    8.30    9.07
 -10   3  15  139.44   22.28
 -10   3  16   -2.85    9.25
 -10   3  17   33.79   10.45
 -10   3  18   -2.10    6.97
 -10   3  19  119.54   20.37
 -10   4   3    6.30    7.82
 -10   4   4   -0.03    6.02
 -10   4   5    5.39    6.88
 -10   4   6    2.37    4.28
 -10   4   7  170.93   25.07
 -10   4   8    2.98    4.27
 -10   4   9   -2.63    4.68
 -10   4  10   -1.55    6.36
 -10   4  11    4.12    5.42
 -10   4  12   20.77   10.15
 -10   4  13   63.37   14.78
 -10   4  14   -2.26    6.34
 -10   4  15   19.48    8.34
  10  -4  15   -3.43    4.45
 -10   4  16    7.00    5.12
  10  -4  16   11.49   10.17
 -10   4  17   22.23    6.58
  10  -4  17   25.95   12.74
 -10   4  18    0.61    6.77
  10  -4  18    4.03    5.22
 -10   4  19   23.55   12.35
  10  -4  19   33.96   10.42
 -10   5   4  129.76   20.55
 -10   5   5    2.82    4.63
 -10   5   6    5.97    8.09
 -10   5   7    5.90    8.99
 -10   5   8   70.73   15.58
  10  -5   9   49.45   14.33
 -10   5   9   63.13   15.47
 -10   5  10  227.78   29.34
  10  -5  10  219.93   26.92
  10  -5  11   28.57    9.58
 -10   5  11   19.36    9.97
  10  -5  12   -6.67    8.74
 -10   5  12    0.32    5.32
 -10   5  13   -6.21    7.89
  10  -5  13   -6.99    3.72
 -10   5  14  101.78   18.69
  10  -5  14   82.61   19.22
 -10   5  15   -0.36    5.36
  10  -5  15   -7.61    7.53
 -10   5  16    8.77    9.71
  10  -5  16   -3.86    4.03
 -10   5  17   18.91    8.29
  10  -5  17   20.12    9.34
 -10   5  18   49.34   14.26
  10  -5  18   21.94    9.54
  10  -6   5    8.51    5.46
 -10   6   5    4.76    4.13
  10  -6   6   14.94    5.71
 -10   6   6   14.82    7.89
  10  -6   7   -6.66    6.61
 -10   6   7  -15.83    8.17
  10  -6   8   24.37    8.90
 -10   6   8   35.65   12.35
  10  -6   9   17.69    8.17
 -10   6   9   49.25   12.68
 -10   6  10  177.55   26.07
  10  -6  10  163.49   23.66
  10  -6  11   11.28    6.08
 -10   6  11    3.82    5.80
  10  -6  12    0.74    3.44
 -10   6  12   -1.08    6.38
  10  -6  13   -6.27    6.91
 -10   6  13    5.06    6.30
  10  -6  14   -4.56    6.95
 -10   6  14   -4.66    5.45
 -10   6  15   43.88   13.90
  10  -6  15   15.74    8.40
 -10   6  16   66.60   15.07
  10  -6  16   13.91    7.44
 -10   6  17    2.74    8.27
  10  -6  17    3.82    7.51
  10  -7   1  213.83   27.81
  10  -7   2   43.63   12.50
  10  -7   3   94.35   19.87
  10  -7   4   15.96    5.12
  10  -7   5   25.04   11.19
 -10   7   5  -11.63    7.89
  10  -7   6   17.08    6.41
 -10   7   6    9.86    6.29
  10  -7   7   52.67   14.52
 -10   7   7   72.59   17.22
  10  -7   8    0.97    4.50
 -10   7   8   15.06    9.38
  10  -7   9   -2.41    7.31
 -10   7   9   -1.79    4.65
  10  -7  10   12.70    7.45
 -10   7  10   -3.37    7.87
 -10   7  11  287.16   32.64
  10  -7  12   37.26   12.91
 -10   7  12   17.27    6.57
  10  -7  13   75.51   15.79
 -10   7  13   81.79   16.60
  10  -7  14   -4.13    5.01
 -10   7  14    7.75    8.81
  10  -7  15   52.67   13.67
 -10   7  15  114.03   20.43
  10  -8   0   45.56   14.22
  10  -8   1    5.54    6.77
  10  -8  -1   19.26    9.34
  10  -8  -2   10.01    7.99
  10  -8   2   11.54    6.07
  10  -8   3    2.12    4.34
  10  -8   4   17.11    7.47
  10  -8   5    8.12    7.20
  10  -8   6   46.31   11.58
 -10   8   6   30.90   11.11
 -10   8   7  125.08   22.29
  10  -8   7  147.99   21.66
  10  -8   8   15.57   10.23
 -10   8   8   -2.84    3.90
  10  -8   9   17.42   10.22
 -10   8   9    8.53    8.93
  10  -8  10    1.98    3.91
 -10   8  10   -8.93   10.22
  10  -8  11   85.79   20.72
 -10   8  11  146.29   23.77
  10  -8  12   57.87   14.82
 -10   8  12   28.29   10.59
  10  -8  13   20.79    8.79
 -10   8  13   29.27   13.46
  10  -9   0  103.18   20.00
  10  -9   1   28.89   11.56
  10  -9  -1   43.32   12.63
  10  -9  -2   14.88    7.92
  10  -9   2   51.06   13.02
  10  -9  -3   75.95   17.98
  10  -9   3   81.24   17.36
  10  -9  -4   42.27   12.38
  10  -9   4   62.22   15.88
  10  -9  -5   63.75   17.08
  10  -9   5   47.27   13.24
  10  -9   6    0.74    7.52
 -10   9   7  180.32   25.53
  10  -9   7  158.99   24.93
  10  -9   8   42.92   12.46
 -10   9   8   26.57   11.19
  10  -9   9   -3.43    5.23
 -10   9   9    7.44    6.90
  10  -9  10   22.49    7.80
 -10   9  10   27.97   14.39
  10 -10   0   15.80    8.99
  10 -10   1   27.28   12.49
  10 -10  -1   15.51    6.67
  10 -10  -2    1.89    4.61
  10 -10   2   16.51   12.00
  10 -10  -3   11.92    6.27
  10 -10   3    8.06    6.47
  10 -10  -4  -18.48    4.73
  10 -10   4   -2.40    6.80
  10 -10  -5    3.71    6.77
  10 -10   5   -3.09    5.78
  10 -10  -6    0.81    5.04
  10 -10   6   -4.06    6.58
 -11   0   4   77.61   16.49
 -11   0   5   11.68    8.17
 -11   0   6   28.23    8.18
 -11   0   7   -0.14    6.05
 -11   0   8   39.65   12.16
 -11   0   9   -4.39    6.60
 -11   0  10  116.32   21.13
 -11   0  11   -1.91    7.22
 -11   0  12   -9.42    8.78
 -11   0  13   -1.57    5.85
 -11   0  14  123.87   20.43
 -11   0  15   -6.19    6.07
 -11   0  16  240.30   31.66
 -11   0  17    5.34    7.90
 -11  -1   4   -6.81    6.92
 -11   1   4    2.50    5.08
 -11   1   5   -2.32    7.49
 -11  -1   6   79.09   20.59
 -11   1   6   69.41   16.31
 -11   1   7   15.40    9.52
 -11  -1   7   36.45   17.56
 -11   1   8    0.03    9.59
 -11  -1   8   10.98    7.38
 -11   1   9    2.86    3.91
 -11  -1   9   -1.47    7.55
 -11   1  10   70.91   17.78
 -11  -1  10   88.71   17.50
 -11   1  11    5.41    7.72
 -11  -1  11   12.96    9.65
 -11   1  12   18.39    9.87
 -11  -1  12   32.70   11.93
 -11   1  13   59.90   14.76
 -11  -1  13   53.01   14.25
 -11   1  14   35.16   14.14
 -11  -1  14   29.17   11.58
 -11   1  15   -3.77    5.93
 -11  -1  15    9.42   11.90
 -11   1  16   64.55   15.12
 -11  -1  16   45.74   13.96
 -11   1  17   13.04   11.82
 -11  -1  17    6.37    7.25
 -11   2   4   11.63    6.97
 -11   2   5   21.54   11.28
 -11   2   6    7.46    9.03
 -11   2   7  -13.24    8.59
 -11   2   8   -5.11    8.05
 -11   2   9   69.09   17.20
 -11   2  10   46.67   12.53
 -11   2  11   70.89   16.94
 -11   2  12   10.78    4.95
 -11   2  13   51.81   15.69
 -11   2  14   11.47    7.27
 -11   2  15   16.65    3.73
 -11   2  16    5.39    7.20
 -11   3   5   95.73   19.82
 -11   3   6   27.14   13.87
 -11   3   7    1.22    7.35
 -11   3   8   14.95    9.04
 -11   3   9   16.84    8.38
 -11   3  10   47.73   14.94
 -11   3  11   -2.48    7.69
 -11   3  12   -2.51    5.17
 -11   3  13   61.16   14.14
 -11   3  14    0.98   10.46
 -11   3  15   12.06    5.61
 -11   3  16    1.74    7.02
 -11   4   5   -4.15    5.96
 -11   4   6   -0.03    4.71
 -11   4   7    1.32    3.54
 -11   4   8   17.22    7.23
 -11   4   9   10.96   10.45
 -11   4  10  139.83   21.62
 -11   4  11   -5.12    9.42
 -11   4  12    5.50    5.43
 -11   4  13   61.52   15.22
 -11   4  14   17.10    8.56
 -11   4  15   17.77    8.96
 -11   5   5    0.72    5.18
 -11   5   6   76.71   16.70
 -11   5   7    8.81    8.30
 -11   5   8    5.30    5.21
 -11   5   9   -1.28    5.62
 -11   5  10   -0.94    5.78
 -11   5  11   21.70   10.92
 -11   5  12   42.50   14.93
 -11   5  13  -13.77   10.79
 -11   5  14   -2.53    3.97
 -11   6   6    9.91    6.88
 -11   6   7   10.85    6.34
 -11   6   8   -0.38    7.89
 -11   6   9  106.84   21.99
 -11   6  10   34.57   12.44
 -11   6  11    2.51    6.63
 -11   6  12  111.79   20.96
 -11   7   7   18.11    9.42
 -11   7   8   24.56   10.88
 -11   7   9   -3.51    4.81
 -11   7  10    0.55    5.76
 -12   0   7   40.33   17.14
 -12   0   8  202.64   30.15
 -12   0   9   20.50   12.69
 -12   0  10  253.09   33.52
 -12   0  11   23.65   14.03
 -12   0  12   51.88   14.46
 -12   1   6  -19.94    9.85
 -12   1   7   16.10   10.55
 -12   1   8   15.01   10.61
 -12   1   9   14.10    8.43
 -12   1  10    9.51    6.03
 -12   1  11   15.30    5.60
 -12   1  12   26.85   13.69
 -12   2   6   30.51   12.97
 -12   2   7  196.04   26.52
 -12   2   8   31.85   12.96
 -12   2   9   58.92   17.39
 -12   2  10   21.99   11.24
 -12   2  11  168.75   25.65
 -12   3   6   53.50   14.98
 -12   3   7   21.02   11.87
 -12   3   8  134.81   24.02
 -12   3   9    4.18    4.48
 -12   3  10   -4.59    7.44
 -12   4   7  148.19   23.11
 -12   4   8  108.78   19.42
 -12   4   9  123.25   22.22
 -12   5   7    1.04    6.42
   0   0   0    0.00    0.00

TITL 046_160K_SulfamerazineF2_ in Pbca
REM Pbca (#61 in standard setting)
CELL 0.68890   9.088056  11.553811  22.847773  90.0000  90.0000  90.0000
ZERR    8.00   0.000291   0.000207   0.000333   0.0000   0.0000   0.0000
LATT  1
SYMM -x+1/2,-y, z+1/2
SYMM -x, y+1/2,-z+1/2
SYMM  x+1/2,-y+1/2,-z
SFAC C H N O S
UNIT 88.00 96.00 32.00 16.00 8.00
TREF
HKLF 4
END
_computing_structure_solution     'SHELXT 2014/5 (Sheldrick, 2014)'
;
_shelx_hkl_checksum              56524
loop_
_space_group_symop_operation_xyz
'x, y, z'
'-x+1/2, -y, z+1/2'
'-x, y+1/2, -z+1/2'
'x+1/2, -y+1/2, -z'
'-x, -y, -z'
'x-1/2, y, -z-1/2'
'x, -y-1/2, z-1/2'
'-x-1/2, y-1/2, z'
loop_
_atom_site_label
_atom_site_type_symbol
_atom_site_fract_x
_atom_site_fract_y
_atom_site_fract_z
_atom_site_U_iso_or_equiv
_atom_site_adp_type
_atom_site_occupancy
_atom_site_site_symmetry_order
_atom_site_calc_flag
_atom_site_refinement_flags_posn
_atom_site_refinement_flags_adp
_atom_site_refinement_flags_occupancy
_atom_site_disorder_assembly
_atom_site_disorder_group
S1 S 0.33148(5) 0.34582(3) 0.38966(2) 0.02095(12) Uani 1 1 d . . . . .
O2 O 0.19618(14) 0.39708(11) 0.40964(5) 0.0260(3) Uani 1 1 d . . . . .
O1 O 0.34150(15) 0.22237(10) 0.38658(5) 0.0285(3) Uani 1 1 d . . . . .
N4 N 0.66694(17) 0.42600(12) 0.48548(6) 0.0238(3) Uani 1 1 d . . . . .
N3 N 0.65597(17) 0.28451(12) 0.40857(6) 0.0249(3) Uani 1 1 d . . . . .
N2 N 0.45129(17) 0.39536(12) 0.43716(6) 0.0229(3) Uani 1 1 d . . . . .
N1 N 0.4538(2) 0.53233(15) 0.15431(7) 0.0330(4) Uani 1 1 d . . . . .
C1 C 0.3741(2) 0.40328(14) 0.32139(7) 0.0217(3) Uani 1 1 d . . . . .
C2 C 0.4479(2) 0.33615(15) 0.28011(7) 0.0281(4) Uani 1 1 d . . . . .
H2 H 0.4777 0.2615 0.2896 0.037 Uiso 1 1 calc R U . . .
C3 C 0.4766(2) 0.38032(15) 0.22529(8) 0.0292(4) Uani 1 1 d . . . . .
H3 H 0.5270 0.3353 0.1982 0.038 Uiso 1 1 calc R U . . .
C4 C 0.4308(2) 0.49245(14) 0.20971(7) 0.0254(4) Uani 1 1 d . . . . .
C5 C 0.3572(2) 0.55920(14) 0.25212(8) 0.0264(4) Uani 1 1 d . . . . .
H5 H 0.3262 0.6337 0.2428 0.034 Uiso 1 1 calc R U . . .
C6 C 0.3303(2) 0.51550(14) 0.30743(7) 0.0240(3) Uani 1 1 d . . . . .
H6 H 0.2831 0.5610 0.3353 0.031 Uiso 1 1 calc R U . . .
C7 C 0.5980(2) 0.36565(13) 0.44304(7) 0.0217(3) Uani 1 1 d . . . . .
C8 C 0.8088(2) 0.40049(16) 0.49316(8) 0.0275(4) Uani 1 1 d . . . . .
H8 H 0.8613 0.4399 0.5218 0.036 Uiso 1 1 calc R U . . .
C9 C 0.8805(2) 0.31798(16) 0.46026(8) 0.0281(4) Uani 1 1 d . . . . .
H9 H 0.9795 0.3016 0.4662 0.037 Uiso 1 1 calc R U . . .
C10 C 0.7994(2) 0.26025(15) 0.41797(7) 0.0264(4) Uani 1 1 d . . . . .
C11 C 0.8670(3) 0.16700(17) 0.38134(9) 0.0375(5) Uani 1 1 d . . . . .
H11A H 0.8219 0.0941 0.3906 0.049 Uiso 1 1 calc R U . . .
H11B H 0.9706 0.1629 0.3892 0.049 Uiso 1 1 calc R U . . .
H11C H 0.8518 0.1842 0.3407 0.049 Uiso 1 1 calc R U . . .
H1N2 H 0.418(3) 0.446(2) 0.4580(11) 0.041(6) Uiso 1 1 d . . . . .
H1N1 H 0.509(3) 0.4928(19) 0.1334(10) 0.034(6) Uiso 1 1 d . . . . .
H2N1 H 0.449(3) 0.604(2) 0.1473(11) 0.046(7) Uiso 1 1 d . . . . .
loop_
_atom_site_aniso_label
_atom_site_aniso_U_11
_atom_site_aniso_U_22
_atom_site_aniso_U_33
_atom_site_aniso_U_23
_atom_site_aniso_U_13
_atom_site_aniso_U_12
S1 0.0219(3) 0.02193(19) 0.01897(17) -0.00147(13) -0.00043(15) -0.00248(15)
O2 0.0200(7) 0.0344(6) 0.0237(6) -0.0009(5) 0.0007(5) -0.0017(5)
O1 0.0393(9) 0.0201(5) 0.0259(6) -0.0010(4) -0.0004(5) -0.0047(5)
N4 0.0222(8) 0.0268(7) 0.0225(6) -0.0015(5) -0.0020(6) 0.0019(6)
N3 0.0259(9) 0.0247(7) 0.0240(6) -0.0008(5) 0.0016(6) 0.0043(6)
N2 0.0206(8) 0.0249(7) 0.0232(6) -0.0068(5) -0.0017(5) 0.0021(6)
N1 0.0445(11) 0.0282(8) 0.0264(7) 0.0036(6) 0.0096(7) 0.0020(7)
C1 0.0235(10) 0.0229(7) 0.0186(6) -0.0009(5) 0.0010(6) -0.0018(6)
C2 0.0345(12) 0.0242(8) 0.0257(8) 0.0000(6) 0.0043(7) 0.0052(7)
C3 0.0359(12) 0.0258(8) 0.0258(8) -0.0027(6) 0.0084(7) 0.0055(7)
C4 0.0270(10) 0.0254(8) 0.0238(7) 0.0003(6) 0.0026(6) -0.0046(7)
C5 0.0318(11) 0.0197(7) 0.0277(8) 0.0009(6) 0.0037(7) 0.0015(7)
C6 0.0257(10) 0.0217(7) 0.0246(7) -0.0037(6) 0.0034(7) -0.0015(7)
C7 0.0241(10) 0.0219(7) 0.0189(7) 0.0020(5) 0.0004(6) 0.0006(7)
C8 0.0243(11) 0.0341(9) 0.0241(8) 0.0015(6) -0.0031(7) 0.0011(7)
C9 0.0213(10) 0.0359(9) 0.0272(8) 0.0056(7) 0.0005(7) 0.0039(7)
C10 0.0263(10) 0.0265(8) 0.0263(8) 0.0054(6) 0.0058(7) 0.0055(7)
C11 0.0361(13) 0.0360(10) 0.0403(10) -0.0033(8) 0.0081(9) 0.0116(9)
loop_
_atom_type_symbol
_atom_type_description
_atom_type_scat_dispersion_real
_atom_type_scat_dispersion_imag
_atom_type_scat_source
C C 0.0033 0.0016 'International Tables Vol C Tables 4.2.6.8 and 6.1.1.4'
H H 0.0000 0.0000 'International Tables Vol C Tables 4.2.6.8 and 6.1.1.4'
N N 0.0061 0.0033 'International Tables Vol C Tables 4.2.6.8 and 6.1.1.4'
O O 0.0106 0.0060 'International Tables Vol C Tables 4.2.6.8 and 6.1.1.4'
S S 0.1246 0.1234 'International Tables Vol C Tables 4.2.6.8 and 6.1.1.4'
loop_
_geom_angle_atom_site_label_1
_geom_angle_atom_site_label_2
_geom_angle_atom_site_label_3
_geom_angle
_geom_angle_site_symmetry_1
_geom_angle_site_symmetry_3
O1 S1 O2 118.69(8) . .
O1 S1 N2 109.75(8) . .
O2 S1 N2 102.33(8) . .
O1 S1 C1 108.81(7) . .
O2 S1 C1 108.53(8) . .
N2 S1 C1 108.21(8) . .
C8 N4 C7 115.41(15) . .
C7 N3 C10 115.67(15) . .
C7 N2 S1 128.12(12) . .
C7 N2 H1N2 118.5(18) . .
S1 N2 H1N2 113.3(18) . .
C4 N1 H1N1 116.2(16) . .
C4 N1 H2N1 119.9(17) . .
H1N1 N1 H2N1 118(2) . .
C2 C1 C6 120.04(15) . .
C2 C1 S1 120.13(13) . .
C6 C1 S1 119.80(12) . .
C3 C2 C1 120.03(16) . .
C3 C2 H2 120.0 . .
C1 C2 H2 120.0 . .
C2 C3 C4 121.03(16) . .
C2 C3 H3 119.5 . .
C4 C3 H3 119.5 . .
N1 C4 C3 120.08(16) . .
N1 C4 C5 121.79(16) . .
C3 C4 C5 118.10(15) . .
C6 C5 C4 120.87(15) . .
C6 C5 H5 119.6 . .
C4 C5 H5 119.6 . .
C5 C6 C1 119.91(15) . .
C5 C6 H6 120.0 . .
C1 C6 H6 120.0 . .
N3 C7 N4 127.25(17) . .
N3 C7 N2 119.86(15) . .
N4 C7 N2 112.89(14) . .
N4 C8 C9 122.55(17) . .
N4 C8 H8 118.7 . .
C9 C8 H8 118.7 . .
C8 C9 C10 117.51(18) . .
C8 C9 H9 121.2 . .
C10 C9 H9 121.2 . .
N3 C10 C9 121.61(16) . .
N3 C10 C11 117.17(17) . .
C9 C10 C11 121.21(18) . .
C10 C11 H11A 109.5 . .
C10 C11 H11B 109.5 . .
H11A C11 H11B 109.5 . .
C10 C11 H11C 109.5 . .
H11A C11 H11C 109.5 . .
H11B C11 H11C 109.5 . .
loop_
_geom_bond_atom_site_label_1
_geom_bond_atom_site_label_2
_geom_bond_distance
_geom_bond_site_symmetry_2
S1 O1 1.4309(12) .
S1 O2 1.4391(13) .
S1 N2 1.6406(15) .
S1 C1 1.7389(16) .
N4 C8 1.334(2) .
N4 C7 1.349(2) .
N3 C7 1.333(2) .
N3 C10 1.350(2) .
N2 C7 1.384(2) .
N2 H1N2 0.81(2) .
N1 C4 1.363(2) .
N1 H1N1 0.83(2) .
N1 H2N1 0.85(2) .
C1 C2 1.393(2) .
C1 C6 1.393(2) .
C2 C3 1.377(2) .
C2 H2 0.9300 .
C3 C4 1.406(2) .
C3 H3 0.9300 .
C4 C5 1.408(2) .
C5 C6 1.383(2) .
C5 H5 0.9300 .
C6 H6 0.9300 .
C8 C9 1.378(3) .
C8 H8 0.9300 .
C9 C10 1.386(3) .
C9 H9 0.9300 .
C10 C11 1.496(2) .
C11 H11A 0.9600 .
C11 H11B 0.9600 .
C11 H11C 0.9600 .
loop_
_geom_hbond_atom_site_label_D
_geom_hbond_atom_site_label_H
_geom_hbond_atom_site_label_A
_geom_hbond_distance_DH
_geom_hbond_distance_HA
_geom_hbond_distance_DA
_geom_hbond_angle_DHA
_geom_hbond_site_symmetry_A
C6 H6 O1 0.93 2.48 3.380(2) 163.7 8_665
C8 H8 O2 0.93 2.50 3.225(2) 134.6 5_666
C9 H9 O2 0.93 2.60 3.226(2) 125.1 1_655
N2 H1N2 N4 0.81(2) 2.11(2) 2.922(2) 178(2) 5_666
N1 H1N1 O2 0.83(2) 2.26(2) 3.071(2) 168(2) 6_656
N1 H2N1 O1 0.85(2) 2.47(2) 3.026(2) 124(2) 3_655
N1 H2N1 N3 0.85(2) 2.62(3) 3.398(2) 153(2) 3_655
loop_
_geom_torsion_atom_site_label_1
_geom_torsion_atom_site_label_2
_geom_torsion_atom_site_label_3
_geom_torsion_atom_site_label_4
_geom_torsion
_geom_torsion_site_symmetry_1
_geom_torsion_site_symmetry_2
_geom_torsion_site_symmetry_3
_geom_torsion_site_symmetry_4
O1 S1 N2 C7 46.19(17) . . . .
O2 S1 N2 C7 173.11(14) . . . .
C1 S1 N2 C7 -72.41(16) . . . .
O1 S1 C1 C2 -17.55(18) . . . .
O2 S1 C1 C2 -148.03(15) . . . .
N2 S1 C1 C2 101.65(16) . . . .
O1 S1 C1 C6 160.52(14) . . . .
O2 S1 C1 C6 30.05(17) . . . .
N2 S1 C1 C6 -80.28(16) . . . .
C6 C1 C2 C3 -0.5(3) . . . .
S1 C1 C2 C3 177.53(15) . . . .
C1 C2 C3 C4 -0.8(3) . . . .
C2 C3 C4 N1 -176.70(19) . . . .
C2 C3 C4 C5 1.2(3) . . . .
N1 C4 C5 C6 177.63(18) . . . .
C3 C4 C5 C6 -0.2(3) . . . .
C4 C5 C6 C1 -1.1(3) . . . .
C2 C1 C6 C5 1.5(3) . . . .
S1 C1 C6 C5 -176.58(14) . . . .
C10 N3 C7 N4 0.6(2) . . . .
C10 N3 C7 N2 -179.18(14) . . . .
C8 N4 C7 N3 0.0(2) . . . .
C8 N4 C7 N2 179.79(14) . . . .
S1 N2 C7 N3 -2.4(2) . . . .
S1 N2 C7 N4 177.77(12) . . . .
C7 N4 C8 C9 -0.2(2) . . . .
N4 C8 C9 C10 -0.2(3) . . . .
C7 N3 C10 C9 -1.0(2) . . . .
C7 N3 C10 C11 178.16(16) . . . .
C8 C9 C10 N3 0.9(3) . . . .
C8 C9 C10 C11 -178.27(17) . . . .
