#------------------------------------------------------------------------------
#$Date: 2017-09-28 16:24:11 +0300 (Thu, 28 Sep 2017) $
#$Revision: 201453 $
#$URL: file:///home/coder/svn-repositories/cod/cif/1/54/74/1547451.cif $
#------------------------------------------------------------------------------
#
# This file is available in the Crystallography Open Database (COD),
# http://www.crystallography.net/
#
# All data on this site have been placed in the public domain by the
# contributors.
#
data_1547451
loop_
_publ_author_name
'Anuradha R. Pallipurath'
'Jonathan M. Skelton'
'Mark R. Warren'
'Naghmeh Kamali'
'Patrick McArdle'
'Andrea Erxleben'
_publ_section_title
;
 Sulfamerazine: Understanding the Influence of Slip Planes in the
 Polymorphic Phase Transformation through X-Ray Crystallographic Studies
 and ab Initio Lattice Dynamics
;
_journal_name_full               'Molecular Pharmaceutics'
_journal_page_first              3735
_journal_page_last               3748
_journal_paper_doi               10.1021/acs.molpharmaceut.5b00504
_journal_volume                  12
_journal_year                    2015
_chemical_formula_moiety         'C11 H12 N4 O2 S'
_chemical_formula_sum            'C11 H12 N4 O2 S'
_chemical_formula_weight         264.31
_chemical_name_common            Sulfamerazine
_chemical_name_systematic        4-amino-N-(4-methylpyrimidin-2-yl)
_space_group_crystal_system      orthorhombic
_space_group_IT_number           61
_space_group_name_Hall           '-P 2ac 2ab'
_space_group_name_H-M_alt        'P b c a'
_symmetry_space_group_name_Hall  '-P 2ac 2ab'
_symmetry_space_group_name_H-M   'P b c a'
_atom_sites_solution_hydrogens   mixed
_cell_angle_alpha                90
_cell_angle_beta                 90
_cell_angle_gamma                90
_cell_formula_units_Z            8
_cell_length_a                   9.1415(4)
_cell_length_b                   11.7002(4)
_cell_length_c                   22.8837(6)
_cell_measurement_reflns_used    3387
_cell_measurement_temperature    290
_cell_measurement_theta_max      28.8230
_cell_measurement_theta_min      2.7600
_cell_volume                     2447.58(15)
_computing_cell_refinement
;
CrysAlisPro, Agilent Technologies,
Version 1.171.37.34 (release 22-05-2014 CrysAlis171 .NET)
(compiled May 22 2014,16:03:01)
;
_computing_data_collection
;
CrysAlisPro, Agilent Technologies,
Version 1.171.37.34 (release 22-05-2014 CrysAlis171 .NET)
(compiled May 22 2014,16:03:01)
;
_computing_data_reduction
;
CrysAlisPro, Agilent Technologies,
Version 1.171.37.34 (release 22-05-2014 CrysAlis171 .NET)
(compiled May 22 2014,16:03:01)
;
_computing_molecular_graphics    OSCAIL
_computing_structure_refinement  'SHELXL-2014/7 (Sheldrick, 2014)'
_computing_structure_solution    SHELXT
_diffrn_ambient_temperature      290
_diffrn_measured_fraction_theta_full 0.969
_diffrn_measured_fraction_theta_max 0.925
_diffrn_measurement_device       'CrystalLogic Kappa (3 circle)'
_diffrn_measurement_device_type  'Rigaku Saturn724+ (2x2 bin mode)'
_diffrn_measurement_method
;
omega rotation with 1 degree frames
;
_diffrn_measurement_specimen_support 'MiTeGen loop'
_diffrn_radiation_monochromator  'double crystal Silicon 111'
_diffrn_radiation_source         'Diamond Light Source Beamline I19'
_diffrn_radiation_type           Synchrotron
_diffrn_radiation_wavelength     0.68890
_diffrn_reflns_av_R_equivalents  0.0820
_diffrn_reflns_av_unetI/netI     0.0728
_diffrn_reflns_Laue_measured_fraction_full 0.969
_diffrn_reflns_Laue_measured_fraction_max 0.925
_diffrn_reflns_limit_h_max       7
_diffrn_reflns_limit_h_min       -11
_diffrn_reflns_limit_k_max       13
_diffrn_reflns_limit_k_min       -16
_diffrn_reflns_limit_l_max       31
_diffrn_reflns_limit_l_min       -32
_diffrn_reflns_number            9853
_diffrn_reflns_point_group_measured_fraction_full 0.969
_diffrn_reflns_point_group_measured_fraction_max 0.925
_diffrn_reflns_theta_full        24.415
_diffrn_reflns_theta_max         29.474
_diffrn_reflns_theta_min         1.725
_exptl_absorpt_coefficient_mu    0.265
_exptl_absorpt_correction_T_max  1.00000
_exptl_absorpt_correction_T_min  0.89709
_exptl_absorpt_correction_type   multi-scan
_exptl_absorpt_process_details
;
CrysAlisPro, Agilent Technologies,
Version 1.171.36.28 (release 01-02-2013 CrysAlis171 .NET)
Empirical absorption correction using spherical harmonics,
implemented in SCALE3 ABSPACK scaling algorithm.
;
_exptl_crystal_colour            Colourless
_exptl_crystal_density_diffrn    1.435
_exptl_crystal_description       Parallelepiped
_exptl_crystal_F_000             1104
_exptl_crystal_size_max          0.50
_exptl_crystal_size_mid          0.40
_exptl_crystal_size_min          0.20
_refine_diff_density_max         0.280
_refine_diff_density_min         -0.417
_refine_diff_density_rms         0.080
_refine_ls_extinction_coef       .
_refine_ls_extinction_method     none
_refine_ls_goodness_of_fit_ref   1.064
_refine_ls_hydrogen_treatment    mixed
_refine_ls_matrix_type           full
_refine_ls_number_parameters     176
_refine_ls_number_reflns         3453
_refine_ls_number_restraints     0
_refine_ls_restrained_S_all      1.064
_refine_ls_R_factor_all          0.1078
_refine_ls_R_factor_gt           0.0680
_refine_ls_shift/su_max          0.000
_refine_ls_shift/su_mean         0.000
_refine_ls_structure_factor_coef Fsqd
_refine_ls_weighting_details
'w=1/[\s^2^(Fo^2^)+(0.0463P)^2^+1.4827P] where P=(Fo^2^+2Fc^2^)/3'
_refine_ls_weighting_scheme      calc
_refine_ls_wR_factor_gt          0.1474
_refine_ls_wR_factor_ref         0.1753
_reflns_Friedel_coverage         0.000
_reflns_Friedel_fraction_full    .
_reflns_Friedel_fraction_max     .
_reflns_number_gt                2101
_reflns_number_total             3453
_reflns_threshold_expression     'I > 2\s(I)'
_cod_data_source_file            Exp_Form-II2FSynchrotron_Form-II_290K.cif
_cod_data_source_block           290k_smz-f2_a
_cod_database_code               1547451
_shelx_space_group_comment
;
The symmetry employed for this shelxl refinement is uniquely defined
by the following loop, which should always be used as a source of
symmetry information in preference to the above space-group names.
They are only intended as comments.
;
_shelx_estimated_absorpt_t_min   0.879
_shelx_estimated_absorpt_t_max   0.949
_shelx_res_file
;

    290k_smz-f2_a.res created by SHELXL-2014/7

TITL 290k_smz-f2_a.res in Pbca
REM Old TITL 031_290K_SulfamerazineF2_ in Pbca
REM SHELXT solution in Pbca
REM R1 0.168,  Rweak 0.364,  Alpha 0.021,  Orientation as input
REM Formula found by SHELXT:  C12 N3 O2 S
CELL  0.68890   9.1415  11.7002  22.8837   90.000   90.000   90.000
ZERR    8.000   0.0004   0.0004   0.0006    0.000    0.000    0.000
REM SG 61 8 8 Pbca P21/b21/c21/a PGmmm Orthorhombic
LATT 1
REM SG  ASUN  1  .5 .5 .5
REM SG  ORGN  at Inv.cen.
SYMM 0.5-X,-Y,0.5+Z
SYMM -X,0.5+Y,0.5-Z
SYMM 0.5+X,0.5-Y,-Z
SFAC C H N O S
UNIT 88 96  32  16  8
FMAP 2
PLAN -32
BOND $H
L.S. 12
SIZE    0.50  0.40  0.20
ACTA
CONF
REM Instructions for potential hydrogen bonds
EQIV $1 -x+1/2, y+1/2, z
HTAB C6 O1_$1
EQIV $2 -x+1, -y+1, -z+1
HTAB C8 O2_$2
EQIV $3 x+1, y, z
HTAB C9 O2_$3
HTAB N2 N4_$2
EQIV $4 x+1/2, y, -z+1/2
HTAB N1 O2_$4
EQIV $5 -x+1, y+1/2, -z+1/2
HTAB N1 O1_$5
HTAB N1 N3_$5
LIST 4
WGHT    0.046300    1.482700
FVAR       0.55339
S1    5    0.333052    0.346698    0.389817    11.00000    0.04192    0.04197 =
         0.03657   -0.00254   -0.00021   -0.00413
O2    4    0.198347    0.396706    0.409654    11.00000    0.03606    0.06340 =
         0.04481   -0.00257    0.00116   -0.00087
O1    4    0.342429    0.225523    0.386188    11.00000    0.06957    0.03791 =
         0.04849   -0.00136   -0.00072   -0.00929
N4    3    0.666310    0.426370    0.485445    11.00000    0.04153    0.05099 =
         0.04301   -0.00591   -0.00420    0.00418
N3    3    0.655528    0.286468    0.409364    11.00000    0.04747    0.04585 =
         0.04358   -0.00372    0.00565    0.00954
N2    3    0.452126    0.394578    0.437703    11.00000    0.03844    0.04586 =
         0.04345   -0.01205   -0.00482    0.00612
N1    3    0.457228    0.534142    0.155797    11.00000    0.07944    0.05487 =
         0.05212    0.00561    0.01910    0.00589
C1    1    0.376248    0.404500    0.321930    11.00000    0.04300    0.03778 =
         0.03901   -0.00354    0.00266   -0.00227
C2    1    0.449568    0.339486    0.280735    11.00000    0.06720    0.04533 =
         0.04916    0.00005    0.01021    0.01570
AFIX  43
H2    2    0.479987    0.265855    0.290046    11.00000   -1.30000
AFIX   0
C3    1    0.477609    0.383271    0.226134    11.00000    0.07817    0.04901 =
         0.04604   -0.00427    0.01661    0.01068
AFIX  43
H3    2    0.526132    0.338470    0.198726    11.00000   -1.30000
AFIX   0
C4    1    0.434643    0.493348    0.211232    11.00000    0.04737    0.04654 =
         0.04578   -0.00013    0.00915   -0.00621
C5    1    0.361897    0.558989    0.253427    11.00000    0.06240    0.03718 =
         0.05147   -0.00041    0.00642    0.00121
AFIX  43
H5    2    0.331605    0.632762    0.244348    11.00000   -1.30000
AFIX   0
C6    1    0.334909    0.515117    0.308231    11.00000    0.05023    0.03878 =
         0.04471   -0.00600    0.00676   -0.00224
AFIX  43
H6    2    0.288646    0.560071    0.336191    11.00000   -1.30000
AFIX   0
C7    1    0.598194    0.366527    0.443480    11.00000    0.03894    0.04074 =
         0.03684    0.00231   -0.00048   -0.00043
C8    1    0.807504    0.401151    0.492669    11.00000    0.04076    0.06330 =
         0.04736    0.00011   -0.00330    0.00206
AFIX  43
H8    2    0.860161    0.440138    0.521161    11.00000   -1.30000
AFIX   0
C9    1    0.877734    0.320702    0.460063    11.00000    0.04185    0.06380 =
         0.05413    0.01047    0.00060    0.01233
AFIX  43
H9    2    0.976414    0.305055    0.465864    11.00000   -1.30000
AFIX   0
C10   1    0.798079    0.263131    0.418175    11.00000    0.04517    0.04707 =
         0.04905    0.00761    0.00985    0.00890
C11   1    0.864986    0.170834    0.381971    11.00000    0.06365    0.06717 =
         0.07546   -0.00695    0.01012    0.02081
AFIX 137
H11A  2    0.820569    0.098917    0.391614    11.00000   -1.30000
H11B  2    0.968105    0.167111    0.389677    11.00000   -1.30000
H11C  2    0.849330    0.187096    0.341330    11.00000   -1.30000
AFIX   0
H1N2  2    0.419154    0.450991    0.456530    11.00000    0.04946
H1N1  2    0.508832    0.494162    0.137702    11.00000    0.05345
H2N1  2    0.446384    0.608407    0.152739    11.00000    0.08480
HKLF 4

REM  290k_smz-f2_a.res in Pbca
REM R1 =  0.0680 for    2101 Fo > 4sig(Fo)  and  0.1078 for all    3453 data
REM    176 parameters refined using      0 restraints

END

WGHT      0.0778      0.4920

REM Highest difference peak  0.280,  deepest hole -0.417,  1-sigma level  0.080
Q1    1   0.8840  0.0200  0.3983  11.00000  0.05    0.28
Q2    1   0.2605  0.6461  0.3026  11.00000  0.05    0.27
Q3    1   0.2093  0.3583  0.1936  11.00000  0.05    0.25
Q4    1   0.5013  0.6050  0.1330  11.00000  0.05    0.25
Q5    1   0.2186  0.5716  0.1908  11.00000  0.05    0.25
Q6    1   0.3949  0.5967  0.0806  11.00000  0.05    0.25
Q7    1   0.1784  0.3442  0.4433  11.00000  0.05    0.24
Q8    1   0.7855  0.1854  0.3181  11.00000  0.05    0.24
Q9    1   0.5413  0.5170  0.4872  11.00000  0.05    0.23
Q10   1   0.3107  0.7293  0.2894  11.00000  0.05    0.23
Q11   1   0.1607  0.2359  0.4131  11.00000  0.05    0.23
Q12   1   0.1417  0.1926  0.3893  11.00000  0.05    0.23
Q13   1   0.8218  0.2689  0.4399  11.00000  0.05    0.23
Q14   1   0.2553  0.3888  0.2191  11.00000  0.05    0.23
Q15   1   0.6758  0.1644  0.4083  11.00000  0.05    0.22
Q16   1   0.1825  0.4246  0.2010  11.00000  0.05    0.22
Q17   1   0.4482  0.6063  0.1091  11.00000  0.05    0.22
Q18   1   0.2766  0.6336  0.2090  11.00000  0.05    0.22
Q19   1   0.3354  0.6188  0.3755  11.00000  0.05    0.21
Q20   1   0.1933  0.5861  0.3144  11.00000  0.05    0.21
Q21   1   0.9301  0.1327  0.4000  11.00000  0.05    0.21
Q22   1   0.7108  0.2409  0.4303  11.00000  0.05    0.21
Q23   1   0.6121  0.3537  0.3024  11.00000  0.05    0.21
Q24   1   0.8364  0.2974  0.4297  11.00000  0.05    0.21
Q25   1   0.5699  0.2294  0.3671  11.00000  0.05    0.21
Q26   1   0.8208  0.1371  0.4091  11.00000  0.05    0.21
Q27   1   0.2263  0.4842  0.2555  11.00000  0.05    0.21
Q28   1   0.5808  0.4228  0.2399  11.00000  0.05    0.21
Q29   1   0.2765  0.5162  0.2191  11.00000  0.05    0.21
Q30   1   0.3656  0.1350  0.4335  11.00000  0.05    0.20
Q31   1   0.1685  0.5787  0.2194  11.00000  0.05    0.20
Q32   1   0.2322  0.7034  0.2753  11.00000  0.05    0.20
;
_shelx_res_checksum              14174
_shelx_hkl_file
;
   0   0  -2  607.11   14.63
   0   0  -3   -0.46    0.96
   0   0  -4 2834.19   40.97
   0   0  -5    0.53    0.63
   0   0  -6 8353.71   85.65
   0   0  -7    1.40    1.40
   0   0  -8  716.66   29.18
   0   0  -9    0.35    1.05
   0   0 -10 6373.91   98.73
   0   0 -11    0.53    1.78
   0   0 -12   11.15    4.42
   0   0 -13    0.54    2.70
   0   0 -14  757.42   40.23
   0   0 -15   -0.87    3.10
   0   0 -16   19.95    7.78
   0   0 -17    0.67    2.26
   0   0 -18 1218.24   58.14
   0   0 -19   -0.04    3.66
   0   0 -21   -1.94    2.01
   0   0 -22  154.92   22.63
   0   0 -23    1.65    6.34
   0   0 -24   65.23   16.39
   0   0 -25    3.88    6.64
   0   0 -26   13.78   10.76
   0   0 -27    5.55    8.11
   0   0 -28   32.08   11.94
   0   0 -29   -1.21    2.23
   0   0 -30  118.72   22.88
   0   0 -31   -2.50    3.88
   0   0 -32   -1.08    5.31
   0  -1   0   -0.17    0.34
   0   1  -1    0.91    0.99
   0  -1  -1   -0.03    0.49
   0   1  -2   -0.33    0.79
   0  -1  -2    0.17    0.80
   0   1  -3    1.56    1.34
   0  -1  -3   -0.34    0.86
   0   1  -4   -1.41    1.60
   0  -1  -4   -0.32    0.71
   0   1  -5   -2.10    1.58
   0  -1  -5   -0.28    1.17
   0  -1  -6    1.13    1.54
   0   1  -6   -0.64    1.57
   0   1  -7   -0.32    0.31
   0  -1  -7   -2.54    2.03
   0   1  -8    3.75    2.65
   0  -1  -8   -0.56    0.87
   0  -1  -9    0.19    2.35
   0   1  -9   -0.84    2.93
   0  -1 -10   -0.63    2.15
   0   1 -10   -0.12    1.71
   0  -1 -11   -0.39    1.41
   0   1 -11   -0.87    2.16
   0   1 -12    0.48    2.06
   0  -1 -12   -1.90    3.33
   0  -1 -13    6.19    2.72
   0   1 -13    0.32    1.70
   0  -1 -14    1.38    1.01
   0   1 -14    1.04    3.03
   0  -1 -15   -1.26    1.81
   0   1 -15    0.23    3.10
   0   1 -16    1.42    3.18
   0  -1 -16    4.04    4.99
   0   1 -17   -0.59    2.20
   0  -1 -17   -1.28    1.99
   0   1 -18    0.89    2.55
   0  -1 -18   -1.97    3.25
   0   1 -19    4.39    5.96
   0  -1 -19    6.70    3.43
   0  -1 -20    2.19    2.51
   0   1 -20   -4.11    6.45
   0   1 -21    4.48    6.88
   0  -1 -21   -0.19    0.56
   0  -1 -22    3.29    5.60
   0   1 -22   -1.25    1.05
   0   1 -23   -4.67    4.20
   0  -1 -23    2.03    5.41
   0   1 -24    0.19    3.45
   0  -1 -24   -0.33    3.19
   0  -1 -25   -0.54    0.65
   0   1 -25    4.89    3.98
   0   1 -26    0.25    6.87
   0  -1 -26    4.47    4.90
   0  -1 -27    0.03    1.89
   0   1 -27   -0.89    6.66
   0   1 -28   -0.70    3.63
   0  -1 -28   -2.64    2.57
   0  -1 -29   -1.94    5.52
   0   1 -29   -8.03    6.02
   0   1 -30    2.44    4.47
   0  -1 -30    0.24    3.80
   0   1 -31    1.76    4.15
   0  -1 -31   -1.52    3.32
   0  -1 -32    2.88    5.20
   0   1 -32    7.09    8.35
   0  -2   0    0.65    1.07
   0  -2  -1 6406.53   56.74
   0   2  -1 5784.88   57.68
   0   2  -2 4918.46   55.54
   0  -2  -2 4775.15   53.28
   0  -2  -3 8011.92   72.02
   0   2  -3 7834.80   76.96
   0  -2   3 8012.49   76.46
   0  -2   4 7512.73   79.16
   0  -2  -4 7497.33   77.46
   0  -2  -5 8619.20   91.17
   0   2  -5 9999.00   96.79
   0  -2  -6 8556.49   93.42
   0   2  -6 7747.36   92.37
   0   2  -7   51.64    7.80
   0  -2  -7   56.10    7.73
   0   2  -8  543.41   27.58
   0  -2  -8  558.15   27.64
   0   2  -9 1646.09   50.08
   0  -2  -9 1437.75   45.55
   0  -2 -10  867.65   36.61
   0   2 -10  701.07   34.34
   0  -2 -11 1122.41   46.11
   0   2 -11 1421.03   49.76
   0   2 -12  412.62   28.12
   0  -2 -12  500.87   31.34
   0   2 -13  133.87   16.62
   0  -2 -13  115.63   15.56
   0  -2 -14  516.01   34.80
   0   2 -14  581.89   35.27
   0   2 -15    9.10    5.20
   0  -2 -15    1.43    3.79
   0   2 -16   62.17   11.85
   0  -2 -16   49.35   10.60
   0   2 -17  463.93   33.90
   0  -2 -17  364.43   30.17
   0   2 -18  161.78   20.96
   0  -2 -18  174.51   21.43
   0  -2 -19  587.28   40.23
   0   2 -19  577.69   40.34
   0  -2 -20   23.89    8.27
   0   2 -20   33.35    8.98
   0  -2 -21   71.14   14.06
   0   2 -21   79.64   16.33
   0  -2 -22    2.30    3.75
   0   2 -22   -0.02    3.49
   0  -2 -23  318.98   33.46
   0   2 -23  241.24   29.05
   0  -2 -24    7.12    6.59
   0   2 -24   10.05    8.07
   0   2 -25    3.80    1.38
   0  -2 -25   14.49    7.38
   0   2 -26   86.74   18.07
   0  -2 -26   43.41   13.06
   0   2 -27   10.30    8.17
   0  -2 -27   13.11    8.02
   0  -2 -28   -3.55    3.24
   0   2 -28   11.09    5.50
   0   2 -29   45.43   13.36
   0  -2 -29   36.35   12.45
   0  -2 -30    9.29    9.92
   0   2 -30    1.55    7.27
   0  -2 -31    3.90    3.98
   0   2 -31    5.33    4.32
   0   2 -32   12.66    6.12
   0  -2 -32   10.93    8.90
   0  -3   0   -0.83    1.45
   0  -3  -1   -0.87    1.26
   0   3  -2    0.49    1.79
   0  -3  -2    0.58    1.22
   0   3  -3    2.89    1.75
   0  -3  -3    0.11    1.17
   0  -3   4   -0.46    0.71
   0  -3  -4   -0.74    1.41
   0   3  -5    0.91    2.00
   0  -3  -5   -1.89    1.93
   0  -3   5   -0.50    1.29
   0  -3  -6   -0.06    1.43
   0  -3   6    0.17    2.11
   0   3  -6    0.07    1.22
   0   3  -7   -0.18    2.17
   0  -3  -7    2.40    2.61
   0  -3  -8    0.11    2.50
   0   3  -8   -0.17    2.25
   0  -3  -9   -2.06    1.29
   0   3  -9    1.44    1.87
   0   3 -10    0.60    1.25
   0  -3 -10    2.91    3.20
   0  -3 -11   -1.58    2.36
   0   3 -11    0.08    1.22
   0   3 -12    4.64    3.15
   0  -3 -12    0.05    1.93
   0  -3 -13    0.92    1.58
   0   3 -13   -0.24    2.16
   0  -3 -14   -2.18    3.35
   0   3 -14    4.16    3.28
   0   3 -15   -1.45    0.34
   0  -3 -15   -1.56    2.60
   0   3 -16   -1.06    1.57
   0  -3 -16    0.13    6.51
   0   3 -17    8.66    5.97
   0  -3 -17   -2.50    5.49
   0  -3 -18   -2.06    1.29
   0   3 -18    4.45    3.30
   0  -3 -19    6.83    7.33
   0   3 -19    4.65    6.71
   0   3 -20   -0.86    2.30
   0  -3 -20   -0.53    1.61
   0  -3 -21    1.72    2.95
   0   3 -21    0.83    5.55
   0  -3 -22    4.45    6.09
   0   3 -22   -0.05    2.68
   0  -3 -23   -2.19    4.21
   0   3 -23    0.09    3.48
   0   3 -24   -1.35    5.12
   0  -3 -24   -0.05    4.35
   0  -3 -25    1.47    4.42
   0   3 -25   -5.16    6.37
   0  -3 -26    1.17    4.76
   0   3 -26    0.05    2.13
   0  -3 -27   -3.65    6.64
   0   3 -27    3.38    7.05
   0   3 -28    5.09    5.21
   0  -3 -28   -2.05    4.11
   0   3 -29   -2.40    1.23
   0  -3 -29    5.48    7.29
   0   3 -30   -4.62    8.62
   0  -3 -30   -2.23    6.86
   0  -3 -31    4.13    1.25
   0   3 -31   -4.71    7.90
   0   3 -32   -5.63    4.10
   0  -3 -32   -1.76    3.79
   0  -4   0 3990.21   62.39
   0  -4  -1 1379.39   37.99
   0  -4   1 1132.85   36.60
   0  -4  -2 1757.02   43.10
   0  -4  -3   99.39   10.49
   0   4  -3   66.07    9.23
   0  -4  -4  207.88   15.77
   0  -4  -5  226.33   16.45
   0   4  -5  270.40   19.16
   0   4  -6  645.85   30.61
   0  -4   6  671.86   31.79
   0  -4  -7  271.77   20.19
   0   4  -7  299.62   21.59
   0  -4   8  209.51   18.00
   0   4  -8  179.07   17.39
   0  -4   9    0.42    1.47
   0   4  -9    1.63    1.13
   0   4 -10    5.84    3.21
   0  -4 -10    0.13    2.17
   0   4 -11   90.34   13.37
   0   4 -12    2.96    3.34
   0  -4 -12    0.64    0.47
   0  -4 -13    7.07    4.26
   0   4 -13   10.56    7.25
   0   4 -14  139.94   18.05
   0  -4 -14  180.26   19.69
   0  -4 -15   65.31   12.67
   0   4 -15   46.86   11.39
   0  -4 -16  122.05   18.74
   0   4 -16   64.42   13.52
   0  -4 -17  407.20   33.78
   0   4 -17  423.80   34.26
   0   4 -18  910.85   51.23
   0  -4 -18 1308.51   64.31
   0   4 -19  258.69   27.49
   0  -4 -19  271.49   29.15
   0  -4 -20    0.13    1.70
   0   4 -20    0.74    3.73
   0   4 -21   47.86   12.45
   0  -4 -21   28.06   10.16
   0  -4 -22    2.08    4.84
   0   4 -22   -4.01    4.48
   0  -4 -23   54.10   12.43
   0   4 -23   39.71   10.39
   0   4 -24  137.92   22.78
   0  -4 -24  175.78   26.00
   0  -4 -25   90.88   18.81
   0   4 -25   60.91   14.92
   0  -4 -26    8.63    5.32
   0   4 -26    4.81    5.29
   0  -4 -27   -1.10    3.41
   0   4 -27   -0.15    4.85
   0   4 -28   16.13    7.44
   0  -4 -28   16.10    8.00
   0  -4 -29   13.34    5.57
   0   4 -29    6.41    3.59
   0   4 -30    5.32    6.99
   0  -4 -30    2.75    6.96
   0  -4 -31    0.66    6.41
   0   4 -31   -6.43    4.98
   0  -5   0   -2.00    2.10
   0  -5   1   -1.30    2.39
   0  -5  -1   -0.38    1.69
   0  -5  -2    1.36    1.20
   0  -5   2    1.71    2.85
   0  -5  -3   -0.41    0.46
   0   5  -4    4.59    3.67
   0  -5  -4   -0.35    2.65
   0  -5  -5    0.28    1.97
   0   5  -5    0.84    1.59
   0   5  -6    1.92    2.07
   0  -5  -6   -0.06    1.86
   0   5  -7    0.22    1.88
   0  -5  -7    0.47    3.13
   0   5  -8    3.42    4.06
   0  -5  -8    0.79    1.41
   0  -5   8    0.01    2.36
   0  -5  -9    0.45    1.64
   0   5  -9   -1.35    2.37
   0  -5   9   -0.52    3.38
   0   5 -10    0.35    2.37
   0  -5 -10    2.19    3.63
   0  -5  10    3.11    3.21
   0  -5 -11    1.50    2.67
   0   5 -11   -1.56    2.65
   0  -5  11   -0.31    1.71
   0  -5 -12   -0.29    1.46
   0   5 -12   -0.90    1.98
   0  -5  12    4.32    4.02
   0   5 -13   -3.03    5.26
   0  -5  13    3.19    3.05
   0  -5 -13   -1.69    1.28
   0   5 -14    0.06    1.45
   0  -5 -14    3.89    3.97
   0  -5  14   -0.69    1.41
   0  -5 -15    0.30    1.84
   0   5 -15   -0.83    4.06
   0  -5  15   -0.69    3.19
   0  -5 -16    1.97    6.60
   0   5 -16   -1.50    3.94
   0   5 -17   -2.71    4.50
   0  -5 -17   -0.81    3.48
   0  -5 -18    0.58    1.84
   0   5 -18   -1.40    4.07
   0   5 -19    1.75    2.20
   0  -5 -19   -0.13    1.89
   0  -5 -20    6.37    5.32
   0   5 -20    0.57    3.43
   0   5 -21    3.03    4.08
   0  -5 -21   -0.02    4.13
   0   5 -22   -0.34    3.45
   0  -5 -22    2.45    6.32
   0  -5 -23    3.61    5.00
   0   5 -23   -0.86    3.14
   0   5 -24    0.67    3.16
   0  -5 -24   -3.71    5.75
   0   5 -25   -3.69    4.65
   0  -5 -25    3.16    6.05
   0   5 -26   13.40    8.57
   0  -5 -26   -1.18    4.48
   0   5 -27   -3.47    6.11
   0  -5 -27   -0.92    3.01
   0   5 -28    3.92    4.09
   0  -5 -28   -1.09    4.82
   0   5 -29    3.34    2.43
   0  -5 -29    2.39    6.22
   0  -5 -30   -9.44   10.39
   0   5 -30   -0.16    3.62
   0   5 -31   -5.31    6.55
   0  -5 -31   -2.25    6.91
   0  -6   0   13.29    4.71
   0  -6   1 3313.68   72.36
   0  -6  -1 3547.81   75.25
   0  -6  -2  957.83   38.05
   0  -6   2 1276.07   46.64
   0  -6  -3  212.91   18.68
   0  -6  -4  504.44   28.82
   0  -6  -5   27.31    6.26
   0   6  -5   20.99    5.42
   0  -6  -6    3.46    3.27
   0   6  -6    7.54    6.45
   0   6  -7  275.63   23.15
   0  -6  -7  270.44   22.06
   0   6  -8   37.75    8.39
   0  -6  -8   50.91   10.09
   0   6  -9   52.25   10.81
   0  -6  -9   35.14   10.28
   0   6 -10   46.54   10.40
   0  -6  10   78.83   13.24
   0  -6 -10   67.19   11.34
   0  -6  11    5.04    5.23
   0  -6 -11    2.44    3.24
   0   6 -11    3.48    5.90
   0  -6 -12 2251.42   72.73
   0   6 -12 2342.33   75.98
   0  -6 -13   -1.30    2.61
   0   6 -13    2.50    4.44
   0  -6  13    2.87    2.28
   0  -6  14  198.13   22.04
   0   6 -14  257.86   26.15
   0  -6 -15  477.60   35.66
   0   6 -15  482.43   35.92
   0  -6  15  506.30   36.81
   0   6 -16   69.74   14.73
   0  -6  16   84.10   14.39
   0  -6 -16   83.82   16.28
   0   6 -17   87.62   16.73
   0  -6  17   43.59   11.11
   0  -6 -17   72.07   14.46
   0  -6  18  252.59   26.79
   0   6 -18  298.22   30.17
   0  -6 -18  291.10   29.26
   0  -6 -19  260.06   29.20
   0   6 -19  219.75   25.58
   0  -6  19  169.12   21.42
   0   6 -20   48.49   13.54
   0  -6  20   46.58   11.88
   0  -6 -20   75.92   17.34
   0  -6  21  251.38   27.12
   0  -6 -21  242.23   29.76
   0   6 -21  253.25   28.73
   0   6 -22  138.38   21.30
   0  -6 -22  138.36   23.33
   0  -6  22  136.23   20.95
   0  -6 -23   12.95    4.95
   0   6 -23   14.39    7.38
   0  -6  23    6.43    3.47
   0   6 -24   57.19   14.47
   0  -6 -24   29.42   10.93
   0  -6  24   64.67   13.85
   0  -6 -25   55.45   14.79
   0  -6  25   51.00   13.27
   0   6 -25   71.98   16.27
   0   6 -26   67.10   16.29
   0  -6 -26   87.86   18.98
   0  -6  26   68.83   15.57
   0  -6  27   -0.85    1.58
   0  -6 -27   -0.59    5.74
   0   6 -27   -5.36    6.68
   0  -6 -28   40.32   13.16
   0   6 -28   52.22   14.68
   0  -6  28   31.39   11.74
   0   6 -29    1.71    3.57
   0  -6 -29    3.64    2.88
   0  -6  29    5.29    5.52
   0   6 -30   -4.80    5.68
   0  -6 -30   -4.90    3.55
   0  -6  30    2.38    4.78
   0  -7   0    1.90    2.76
   0  -7  -1    3.15    3.78
   0  -7   1    2.55    2.59
   0  -7   2    2.21    2.41
   0  -7  -2    1.50    1.01
   0  -7   3   -1.67    2.54
   0  -7  -3    0.60    3.58
   0  -7  -4    0.36    1.24
   0  -7  -5    0.30    3.84
   0  -7  -6   -1.30    3.38
   0   7  -6    0.41    3.38
   0  -7  -7    3.30    4.17
   0   7  -7   -1.03    2.85
   0   7  -8    1.94    4.05
   0  -7  -8    1.03    2.92
   0  -7  -9   -0.50    3.47
   0   7  -9   -2.58    3.68
   0  -7 -10    0.20    3.56
   0   7 -10    4.10    5.67
   0   7 -11   -3.18    3.86
   0  -7 -11    1.62    4.01
   0   7 -12    0.17    1.73
   0  -7 -12    0.02    4.59
   0  -7  13    0.61    4.47
   0   7 -13   -2.57    1.08
   0  -7 -13    1.24    2.00
   0  -7 -14   -2.61    1.38
   0   7 -14    2.22    2.77
   0  -7  14   -1.79    4.85
   0  -7  15    3.46    5.67
   0   7 -15   -1.86    2.82
   0  -7 -15   -2.84    1.13
   0   7 -16   -6.50    4.77
   0  -7  16    0.71    4.22
   0  -7 -16    0.10    3.98
   0  -7  17    0.20    1.12
   0   7 -17   -3.99    6.65
   0  -7 -17   -1.46    2.29
   0  -7  18    3.53    7.82
   0   7 -18   -0.71    4.52
   0  -7 -18    1.98    5.20
   0  -7 -19    2.27    2.64
   0   7 -19   -0.74    4.74
   0  -7  19   -5.66    5.59
   0   7 -20   -0.30    2.67
   0  -7  20    0.97    5.84
   0  -7 -20    3.35    5.35
   0   7 -21   -0.38    0.63
   0  -7  21    0.80    2.41
   0   7 -22    2.40    4.10
   0  -7 -22   -6.69    5.51
   0  -7  22   -2.82    3.32
   0   7 -23    0.38    3.68
   0  -7 -23   -1.14    2.78
   0  -7  23   -0.87    3.38
   0  -7  24    1.22    3.72
   0  -7 -24   -2.73    2.73
   0   7 -24   -0.26    0.87
   0   7 -25   -0.85    6.33
   0  -7  25    0.26    4.45
   0  -7 -25   -3.47    3.29
   0  -7  26    0.81    3.54
   0   7 -26    7.30    8.24
   0  -7 -26    1.52    5.78
   0   7 -27    8.41    6.86
   0  -7  27    0.35    2.50
   0  -7 -27    0.21    3.00
   0  -7  28    4.41    6.42
   0   7 -28   -0.74    6.41
   0  -7 -28    3.92    8.04
   0  -7 -29    3.13    6.07
   0   7 -29   -2.14    1.94
   0  -7  29   -1.71    5.18
   0  -8   0  445.37   31.35
   0  -8   1   14.99    5.47
   0  -8  -1   10.94    3.90
   0  -8   2   34.89    8.43
   0  -8  -2   28.53    7.70
   0  -8  -3   21.57    6.26
   0  -8   3   13.52    5.64
   0  -8   4  176.97   20.05
   0  -8  -4  171.70   19.65
   0  -8  -5   78.47   13.41
   0  -8  -6  211.50   21.87
   0  -8  -7 1021.13   48.68
   0  -8  -8  314.90   27.34
   0   8  -8  375.84   30.77
   0   8  -9  201.86   23.82
   0  -8  -9  127.15   17.43
   0  -8 -10  121.14   18.16
   0   8 -10   94.17   16.28
   0  -8 -11 1032.01   51.82
   0   8 -11 1071.88   54.46
   0   8 -12   51.69   12.16
   0  -8 -12   60.25   12.71
   0  -8 -13  134.20   21.17
   0   8 -13  116.95   17.08
   0  -8 -14   81.97   15.11
   0   8 -14  100.60   16.67
   0  -8 -15  617.21   43.68
   0   8 -15  503.16   38.73
   0  -8  16    4.22    4.76
   0   8 -16    3.66    5.60
   0  -8 -16    7.16    6.38
   0   8 -17  380.20   35.59
   0  -8  17  411.25   37.14
   0  -8 -17  341.44   34.17
   0  -8 -18   45.57   12.82
   0  -8  18   61.87   14.03
   0  -8 -19   89.07   18.94
   0  -8  19  104.79   18.36
   0   8 -19  110.82   18.48
   0  -8  20    5.84    3.81
   0  -8 -20   -0.85    5.53
   0   8 -20    7.89    6.59
   0  -8 -21  100.25   18.92
   0  -8  21  135.42   21.90
   0   8 -21  119.55   19.67
   0   8 -22    4.77    6.90
   0  -8  22   12.00    7.20
   0  -8 -22   10.75    9.21
   0   8 -23   51.42   14.07
   0  -8 -23   64.32   17.11
   0  -8  23   73.31   15.95
   0  -8 -24   17.48   11.15
   0  -8  24   11.79    3.96
   0   8 -24   14.08    8.80
   0  -8  25   98.09   19.68
   0  -8 -25  131.04   24.85
   0   8 -25  124.99   21.60
   0   8 -26    2.77    7.23
   0  -8  26    7.79    5.71
   0  -8 -26   -1.88    4.18
   0  -8  27    9.41    5.79
   0  -8 -27   17.63    8.52
   0   8 -27   17.93    7.96
   0   8 -28   -5.41    2.37
   0  -8 -28    9.98    5.66
   0  -8  28    3.98    2.83
   0  -9   0    3.72    4.11
   0  -9   1    0.97    3.62
   0  -9  -1    0.18    0.57
   0  -9   2   -0.86    2.87
   0  -9  -2    3.52    2.66
   0  -9   3   -0.66    1.54
   0  -9  -3   -0.03    4.15
   0  -9   4   -0.62    3.64
   0  -9  -4   -0.49    1.48
   0  -9   5    1.29    3.19
   0  -9  -5    4.40    1.84
   0  -9   6    0.26    3.29
   0  -9  -6   -0.83    0.75
   0  -9  -7   -1.68    2.91
   0  -9  -8    1.45    5.13
   0   9  -9    1.83    5.51
   0  -9  -9   -1.27    3.59
   0   9 -10   -2.08    1.44
   0  -9 -10    3.08    1.94
   0  -9 -11    0.81    4.44
   0   9 -11    3.12    3.66
   0  -9 -12    3.47    5.14
   0   9 -12    3.17    1.24
   0   9 -13   -2.00    3.73
   0  -9 -13   10.68    7.21
   0   9 -14    0.41    0.51
   0  -9 -14   -6.26    6.46
   0   9 -15    2.41    8.92
   0  -9 -15   -1.78    6.00
   0   9 -16    0.81    3.09
   0  -9 -16   -1.29    3.62
   0  -9 -17    0.38    4.98
   0   9 -17    3.49    4.14
   0   9 -18    1.34    1.34
   0  -9 -18   -4.42    5.27
   0   9 -19   -1.87    1.11
   0  -9 -19   -1.42    4.11
   0  -9 -20   -3.87    4.95
   0   9 -20    2.71    8.20
   0   9 -21   -5.36    8.71
   0  -9 -21   -1.25    2.65
   0  -9  22    5.81    4.13
   0  -9 -22   -1.87    1.68
   0   9 -22   -3.09    5.74
   0  -9 -23   -2.07    7.81
   0  -9  23   -0.36    3.32
   0   9 -23   -3.05    3.19
   0   9 -24   -0.72    5.98
   0  -9  24    5.80    6.93
   0  -9 -24   -3.95    8.81
   0   9 -25    1.35    6.65
   0  -9 -25   -4.22    4.67
   0  -9  25    2.72    4.86
   0  -9  26    8.77   11.13
   0  -9 -26    1.41    4.58
   0   9 -26    4.71    5.92
   0  -9 -27   -3.78    6.60
   0   9 -27   -2.63    3.30
   0  -9  27   -3.10    6.26
   0 -10   0   34.13    9.38
   0 -10   1    6.30    3.07
   0 -10  -1    8.78    5.51
   0 -10   2    3.01    2.57
   0 -10  -2   10.06    5.28
   0 -10  -3   -1.54    0.63
   0 -10   3   -1.38    1.82
   0 -10  -4  213.51   24.20
   0 -10   4  159.79   20.56
   0 -10   5  179.17   22.13
   0 -10  -5  193.38   22.76
   0 -10  -6  145.91   20.03
   0 -10   6  185.07   22.94
   0 -10   7   64.74   14.55
   0 -10  -7   47.87   11.84
   0 -10  -8  417.56   34.93
   0 -10  -9   38.78   10.20
   0 -10 -10    3.48    2.70
   0  10 -11  222.71   25.39
   0 -10 -11  247.52   28.92
   0  10 -12   51.26   12.77
   0 -10 -12   81.01   15.94
   0 -10 -13   53.60   12.84
   0  10 -13   38.66   10.19
   0  10 -14  231.77   28.62
   0 -10 -14  261.25   31.57
   0 -10 -15   -4.09    6.00
   0  10 -15    4.32    4.92
   0  10 -16   -2.06    6.71
   0 -10 -16    0.25    5.12
   0  10 -17    2.25    3.21
   0 -10 -17   -1.53    3.75
   0  10 -18   66.61   16.66
   0 -10 -18  100.17   18.90
   0 -10 -19   10.77    7.37
   0  10 -19    1.36    3.18
   0 -10 -20   14.63    9.54
   0  10 -20   -0.87    2.80
   0  10 -21   16.40    8.47
   0 -10 -21   21.02   10.60
   0  10 -22  137.91   23.35
   0 -10 -22  135.67   23.55
   0  10 -23   -2.61    2.62
   0 -10 -23   -3.39    3.81
   0 -10 -24    7.09    5.89
   0  10 -24   10.84    2.00
   0 -10 -25   30.66   11.62
   0  10 -25   39.84   12.76
   0  10 -26   30.22   11.59
   0 -10 -26   28.01   14.87
   0 -11   0   -1.88    3.63
   0 -11   1   -0.33    3.66
   0 -11  -1    3.09    5.23
   0 -11  -2    2.60    4.85
   0 -11   2    5.43    6.57
   0 -11   3    1.03    5.46
   0 -11  -3    1.20    2.86
   0 -11   4   -1.49    4.27
   0 -11  -4    1.53    4.38
   0 -11   5    7.13    6.06
   0 -11  -5    1.78    4.85
   0 -11  -6   -2.31    2.96
   0 -11   6    0.69    3.17
   0 -11  -7   11.49    6.74
   0 -11   7   -1.79    4.46
   0 -11   8    2.02    6.14
   0 -11  -8    2.13    4.37
   0 -11  -9    2.42    1.62
   0 -11   9    4.40    5.63
   0 -11 -10    2.28    3.86
   0 -11 -11   -0.28    1.09
   0 -11 -12   -0.79    2.79
   0 -11 -13   -1.34    4.60
   0  11 -14    0.52    2.09
   0 -11 -14    0.62    2.74
   0  11 -15   -3.13    3.58
   0 -11 -15    2.63    6.34
   0 -11 -16    1.08    4.38
   0  11 -16   -3.67    2.23
   0  11 -17    2.91    7.81
   0 -11 -17    9.21    8.94
   0  11 -18   -5.39    7.75
   0 -11 -18   -0.39    1.94
   0  11 -19   -0.03    4.17
   0 -11 -19    5.14    7.76
   0 -11 -20   -2.57    7.92
   0  11 -20    0.69    3.58
   0 -11 -21   -8.01    7.36
   0  11 -21    4.79    4.52
   0 -11 -22   11.02    9.52
   0  11 -22   -5.35    5.69
   0  11 -23    0.17    4.15
   0 -11 -23    6.00    5.13
   0 -11 -24   -0.86    5.60
   0  11 -24    2.96    6.52
   0 -12   0  101.48   18.33
   0 -12  -1   -0.06    2.61
   0 -12   1   13.51    5.95
   0 -12   2   -0.65    3.72
   0 -12  -2    0.55    1.84
   0 -12   3   93.63   17.81
   0 -12  -3   85.26   16.03
   0 -12   4    1.57    2.53
   0 -12  -4   -1.68    3.37
   0 -12  -5   62.00   13.59
   0 -12   5   50.99   13.47
   0 -12  -6    6.49    5.99
   0 -12   6    2.51    2.80
   0 -12   7   26.79    9.75
   0 -12  -7   28.96   10.37
   0 -12  -8   14.38    7.95
   0 -12   8   20.30    7.78
   0 -12  -9   26.26    9.02
   0 -12   9   15.14    7.01
   0 -12 -10  161.64   23.90
   0 -12  10  247.21   29.59
   0 -12  11  115.75   20.61
   0 -12 -11   96.05   18.34
   0 -12  12   -1.32    6.10
   0 -12 -12   37.95   12.56
   0 -12 -13   -2.03    1.39
   0 -12 -14   11.94    5.40
   0 -12 -15    3.15    6.70
   0 -12 -16   -0.94    3.45
   0  12 -17   -3.53    6.01
   0 -12 -17   -4.56    6.51
   0 -12 -18    4.63    5.08
   0  12 -18    3.35    6.05
   0  12 -19    6.11    6.24
   0 -12 -19    0.83    2.67
   0  12 -20    4.27    0.88
   0 -12 -20   21.30    8.21
   0  12 -21    9.55    3.27
   0 -12 -21    8.44    9.05
   0 -12 -22   12.15    7.46
   0  12 -22    6.51    7.30
   0 -13   0    7.48    4.39
   0 -13   1   -1.50    4.34
   0 -13  -1    2.22    4.64
   0 -13   2   -0.09    2.13
   0 -13  -2    3.68    5.18
   0 -13   3   -0.87    2.06
   0 -13  -3    2.39    0.99
   0 -13   4   -1.40    2.76
   0 -13  -4    1.74    6.84
   0 -13  -5    2.77    4.96
   0 -13   5    6.49    7.38
   0 -13  -6   -2.62    4.10
   0 -13   6    0.19    2.68
   0 -13  -7   -0.24    4.45
   0 -13   7    0.05    3.35
   0 -13   8    1.61    3.81
   0 -13  -8   -2.40    3.93
   0 -13  -9   -3.74    2.40
   0 -13   9    0.70    3.87
   0 -13  10    1.49    6.84
   0 -13 -10    3.21    5.39
   0 -13  11    5.29    6.50
   0 -13 -11   -1.79    6.72
   0 -13 -12   -3.43    0.64
   0 -13  12    1.79    4.01
   0 -13  13    1.46    3.19
   0 -13 -13    2.56    2.57
   0 -13 -14   -5.57    5.38
   0 -13  14    2.20    4.93
   0 -13 -15    6.92    7.63
   0 -13 -16   -0.77    6.20
   0 -13 -17   -5.57    3.07
   0 -13 -18   -2.65    6.87
   0 -13 -19   11.09    5.00
   0 -13 -20   -0.67    1.20
   0 -14   0   38.02   10.78
   0 -14  -1   28.57    9.32
   0 -14   1   37.72   11.67
   0 -14   2    2.54    5.06
   0 -14  -2    6.03    4.23
   0 -14   3   -4.26    7.18
   0 -14  -3   11.10    7.48
   0 -14  -4    7.85    6.27
   0 -14   4    7.20    5.36
   0 -14   5   -3.12    4.22
   0 -14  -5    2.73    3.85
   0 -14  -6   39.52   13.09
   0 -14   6   24.47   10.64
   0 -14   7   35.75   11.68
   0 -14  -7   40.93   12.80
   0 -14  -8   27.89   10.33
   0 -14   8   34.61   10.80
   0 -14   9    2.31    4.46
   0 -14  -9    9.22    5.48
   0 -14  10   22.74   10.05
   0 -14 -10   67.18   16.67
   0 -14 -11   -2.20    6.26
   0 -14  11   12.51    8.38
   0 -14 -12   12.31    0.34
   0 -14  12   14.39    6.60
   0 -14  13   26.80   10.92
   0 -14 -13   30.23   11.97
   0 -14 -14   29.44   13.34
   0 -14  14   35.70   12.87
   0 -14 -15   -0.07    2.35
   0 -14  15   -3.30    5.62
   0 -14  16    1.74    3.02
   0 -14 -16    2.73    5.78
   0 -14 -17   -0.83    2.79
   0 -14  17   -0.95    6.99
   0 -15   0    2.67    2.34
   0 -15  -1   -6.45    6.43
   0 -15   1    2.60    6.67
   0 -15  -2    0.70    5.02
   0 -15   2    0.88    5.70
   0 -15  -3    3.08    6.52
   0 -15   3   -2.46    2.86
   0 -15   4   -5.87    7.13
   0 -15  -4   -6.13    4.36
   0 -15   5    3.57    4.46
   0 -15  -5    1.37    3.74
   0 -15  -6    0.85    1.42
   0 -15   6    3.08    1.77
   0 -15  -7    8.54    8.11
   0 -15   7    6.20    7.81
   0 -15  -8    1.31    3.23
   0 -15   8    2.23    3.85
   0 -15   9   -1.79    3.35
   0 -15  -9    6.64    6.05
   0 -15  10    3.16    4.34
   0 -15 -10   -2.00    5.65
   0 -15 -11   -0.32    5.18
   0 -15  11    0.76    2.25
   0 -15  12    5.70    3.18
   0 -15 -12   -0.94    5.39
   0 -15  13   -3.39    6.66
   0 -15 -13   -6.16   10.04
   0 -15  14   -3.59    3.58
   0 -15 -14    1.68    4.75
   0 -16   0   93.64   19.48
   0 -16   1   -4.85    4.04
   0 -16  -1    0.71    3.98
   0 -16  -2    6.51    6.98
   0 -16   2   11.22    7.99
   0 -16  -3    8.68    5.50
   0 -16   3   -1.60    1.97
   0 -16  -4  112.99   22.41
   0 -16   4  103.00   21.07
   0 -16  -5    1.25    4.52
   0 -16   5    8.97    7.19
   0 -16  -6   -1.29    1.04
   0 -16   6    2.84    5.60
   0 -16  -7   10.18    6.76
   0 -16   7   16.26   11.92
   0 -16  -8   11.07    8.33
   0 -16   8   -4.86    5.14
   0 -16  -9   15.51    7.54
   0 -16   9   13.29    8.26
  -1   0  -1    0.25    0.79
  -1   0  -2 2062.92   28.26
   1   0  -3    1.17    0.96
  -1   0  -3    0.77    1.12
   1   0  -4 1620.57   31.65
  -1   0  -4 2081.84   37.52
  -1   0  -5    1.40    1.61
   1   0  -5   -0.31    1.01
  -1   0  -6 3493.91   61.05
   1   0  -6 3473.98   54.86
  -1   0  -7   -0.91    0.57
   1   0  -7    1.50    2.36
   1   0  -8 2948.91   58.80
  -1   0  -8 2824.44   62.05
  -1   0  -9    1.56    0.67
   1   0  -9   -0.87    1.70
   1   0 -10    5.44    2.89
  -1   0 -10    3.91    2.30
  -1   0 -11    0.68    1.94
   1   0 -11    0.23    3.14
  -1   0 -12 1481.37   51.61
   1   0 -12 1241.44   47.32
   1   0 -13    5.04    3.85
  -1   0 -13   -0.89    1.29
   1   0 -14  598.81   34.88
  -1   0 -14  649.93   37.44
  -1   0 -15   -0.31    2.78
   1   0 -15    1.55    2.10
  -1   0 -16 1570.94   63.74
   1   0 -16 2003.02   69.75
   1   0 -17   -0.60    3.13
  -1   0 -17   -0.05    4.94
  -1   0 -18    0.50    2.29
   1   0 -18   -0.65    1.15
  -1   0 -19   -1.95    3.25
   1   0 -19   -0.20    2.56
   1   0 -20   82.48   16.19
  -1   0 -20   58.43   13.50
  -1   0 -21   -4.33    5.70
   1   0 -21    2.24    4.90
  -1   0 -22   42.51   12.60
   1   0 -22   47.06   12.96
  -1   0 -23    2.02    4.87
   1   0 -23    0.24    1.73
   1   0 -24  286.89   31.57
  -1   0 -24  204.57   27.28
  -1   0 -25   -1.96    2.77
   1   0 -25    3.23    7.07
   1   0 -26  230.02   29.59
  -1   0 -26  220.83   30.83
   1   0 -27    2.01    3.02
  -1   0 -27    0.89    0.33
  -1   0 -28   15.85   12.07
   1   0 -28    0.82    4.37
   1   0 -29   -3.21    5.09
  -1   0 -29    9.33    9.42
   1   0 -30   17.52   10.54
  -1   0 -30   10.75    7.88
  -1   0 -31    6.85    8.45
   1   0 -31    5.30    3.71
  -1   0 -32    7.50    5.56
   1   0 -32   15.60   11.46
  -1  -1   0   -0.08    0.77
  -1  -1   1 1231.83   19.82
  -1   1  -1 1164.58   17.69
   1  -1   2 2815.55   34.12
  -1  -1  -2 2887.30   38.43
   1   1  -2 2840.00   37.31
  -1   1  -3  451.58   15.81
  -1  -1  -3  446.43   16.79
   1  -1  -3  489.31   13.66
   1   1  -4  132.68    9.43
  -1   1  -4  141.63   10.13
  -1  -1  -4  165.76   11.32
   1   1  -5  679.79   23.93
  -1   1  -5  635.42   23.54
   1  -1  -5  624.10   21.31
  -1  -1  -5  623.65   24.03
   1   1  -6   98.21    9.68
  -1  -1  -6  128.96   11.80
   1  -1  -6  118.74   10.12
  -1  -1  -7  347.65   20.21
   1   1  -7  352.95   20.38
  -1   1  -7  326.26   19.66
   1  -1  -7  310.81   17.73
   1  -1  -8  307.89   18.80
  -1  -1  -8  305.42   19.18
  -1   1  -8  352.54   21.65
   1   1  -8  289.91   19.11
   1  -1  -9   80.45    9.66
   1   1  -9   92.28   11.12
  -1   1  -9  106.83   12.45
  -1  -1  -9  102.78   12.89
   1  -1 -10   23.51    6.00
  -1  -1 -10   36.64    8.15
  -1   1 -10   27.80    7.41
   1   1 -10   24.60    6.13
   1   1 -11  256.48   21.37
  -1   1 -11  255.44   21.92
   1  -1 -11  257.80   20.08
  -1  -1 -11  242.41   20.75
   1   1 -12   39.51    8.33
  -1  -1 -12   37.08    8.16
   1  -1 -12   46.35    9.37
  -1   1 -12   39.12    8.67
   1   1 -13  500.44   31.94
  -1   1 -13  440.66   30.00
  -1  -1 -13  578.50   35.02
   1  -1 -13  652.35   35.35
   1  -1 -14   83.89   12.90
  -1  -1 -14   73.52   12.63
  -1   1 -14   48.94   10.61
   1   1 -14   55.76   10.39
  -1  -1 -15  101.07   15.01
   1   1 -15   91.89   14.17
   1  -1 -15  105.32   15.40
  -1  -1 -16  135.61   18.01
  -1   1 -16  136.57   18.42
   1   1 -16  159.11   20.05
   1  -1 -16  157.89   19.34
   1   1 -17  640.96   40.86
  -1  -1 -17  711.49   42.49
   1  -1 -17  665.84   40.69
  -1  -1 -18    2.12    4.60
   1   1 -18    3.61    5.05
  -1   1 -18    1.13    1.38
   1  -1 -18    0.54    2.31
  -1   1 -19    2.84    3.55
   1   1 -19    3.35    0.86
  -1  -1 -19    8.13    4.82
   1  -1 -19    4.40    3.10
  -1  -1 -20  393.15   34.27
   1  -1 -20  376.82   33.59
   1   1 -20  379.07   33.40
  -1   1 -20  351.92   32.86
   1   1 -21    1.86    5.18
  -1  -1 -21    2.10    5.76
  -1   1 -21    2.36    3.60
   1  -1 -21   -0.04    4.46
   1   1 -22   72.18   14.71
  -1  -1 -22   53.79   12.62
  -1   1 -22   30.07    9.11
   1  -1 -22   81.87   16.01
  -1  -1 -23   63.76   14.84
  -1   1 -23   87.76   17.85
   1  -1 -23   64.54   15.65
   1   1 -23   60.53   13.84
  -1  -1 -24    2.59    5.63
   1  -1 -24    0.45    3.51
  -1   1 -24    2.49    3.87
   1   1 -24    6.52    6.85
  -1   1 -25   46.26   11.95
   1   1 -25   51.47   13.47
   1  -1 -25   60.90   15.72
  -1  -1 -25   44.11   12.38
  -1   1 -26   27.89    8.90
  -1  -1 -26   36.92   12.43
   1  -1 -26   56.79   15.53
   1   1 -26   55.57   14.10
  -1   1 -27   -1.45    6.84
   1  -1 -27   -1.42    6.55
  -1  -1 -27   -2.10    6.37
   1   1 -27    0.40    4.48
  -1  -1 -28    2.85    7.82
  -1   1 -28    6.64    7.30
   1   1 -28    3.93    7.47
   1  -1 -28   -1.82    3.44
  -1   1 -29    0.27    0.72
   1  -1 -29    4.98    6.45
  -1  -1 -29    1.95    3.58
   1   1 -29    0.68    4.34
  -1  -1 -30    2.73    4.10
   1   1 -30    3.33    2.96
   1  -1 -30    3.87    3.45
  -1   1 -30    2.89    5.78
   1   1 -31    4.13    2.04
   1  -1 -31    4.50    6.42
  -1   1 -31    0.99    2.46
  -1  -1 -31    0.71    4.37
  -1   1 -32   16.56    8.09
  -1  -1 -32    1.04    4.47
   1  -1 -32   13.55    9.68
  -1  -2   0   -0.45    0.55
   1  -2  -1  111.03    6.18
  -1  -2  -1  105.93    8.40
  -1  -2   1  118.87    9.47
  -1  -2  -2  476.53   18.93
  -1  -2   2  430.86   16.97
   1  -2  -2  449.36   13.39
   1   2  -3 7673.84   77.07
   1  -2   3 7550.93   77.66
   1  -2  -3 7576.85   62.88
  -1  -2  -3 7801.48   78.80
  -1  -2   3 7783.31   72.07
  -1   2  -4  360.52   17.76
   1  -2   4  236.51   13.68
   1  -2  -4  315.72   13.73
  -1  -2  -4  294.60   16.43
   1   2  -4  269.19   15.31
   1  -2   5 7038.65   78.64
   1  -2  -5 7087.67   73.64
  -1   2  -6  865.59   30.74
  -1  -2  -6  880.55   31.75
   1  -2  -7  339.90   18.19
  -1  -2  -7  318.28   20.23
  -1   2  -7  360.41   21.33
   1   2  -8   79.70   10.99
   1  -2  -8   87.45   10.08
  -1   2  -8   63.16    9.32
  -1  -2  -8   72.04    9.60
   1   2  -9  474.54   26.73
   1  -2  -9  471.45   25.57
  -1  -2  -9  497.28   28.28
   1  -2 -10 2648.62   65.20
   1   2 -10 2699.36   68.05
  -1  -2 -10 2492.68   67.03
   1  -2 -11  191.60   18.34
  -1  -2 -11  154.84   16.54
   1   2 -11  177.10   18.76
  -1   2 -11  127.69   16.53
   1   2 -12   50.18    9.96
   1  -2 -12   37.96    8.36
  -1  -2 -12   37.74    7.86
  -1   2 -12   46.69   10.25
   1  -2 -13  714.73   37.38
   1   2 -13  511.72   32.65
  -1   2 -13  689.25   39.46
  -1  -2 -13  584.64   36.95
   1  -2 -14   62.15   11.70
  -1   2 -14   56.12   12.01
  -1  -2 -14   62.67   12.27
   1   2 -14   60.34   11.52
   1  -2 -15  516.73   34.14
  -1  -2 -15  462.28   33.85
   1   2 -15  437.81   32.76
   1  -2 -16  139.27   18.49
  -1  -2 -16  131.03   18.56
  -1   2 -16  133.92   18.74
   1   2 -16  110.84   16.73
   1   2 -17   71.50   14.24
   1  -2 -17   60.10   11.76
  -1   2 -17   54.14   12.06
  -1  -2 -17   40.87   10.86
  -1   2 -18    3.38    3.40
   1   2 -18    8.32    4.78
  -1  -2 -18    2.35    2.99
   1  -2 -18   -0.44    4.20
   1  -2 -19   59.94   13.19
   1   2 -19   73.89   15.95
  -1  -2 -19   62.80   14.43
   1  -2 -20  671.01   45.52
  -1  -2 -20  723.86   46.89
   1   2 -20  797.23   49.05
  -1  -2 -21   47.45   11.80
  -1   2 -21   46.74   12.93
   1  -2 -21   66.21   14.53
   1   2 -21   37.05   11.58
  -1   2 -22   18.00    4.95
  -1  -2 -22   38.41   11.53
   1  -2 -22   18.37    6.84
   1   2 -22   15.86    7.84
  -1   2 -23   35.14   11.52
   1   2 -23   85.37   17.44
  -1  -2 -23   60.34   14.21
   1  -2 -23   67.38   14.54
  -1   2 -24   22.46    9.06
   1  -2 -24   12.48    6.79
   1   2 -24    9.67    7.15
  -1  -2 -24    2.59    5.68
   1   2 -25   -3.51    6.82
   1  -2 -25    8.56    6.87
  -1   2 -25    1.90    4.09
  -1  -2 -25    7.82    5.74
   1  -2 -26   38.41   11.15
  -1  -2 -26   34.84   11.60
   1   2 -26   34.03   12.66
  -1   2 -26   42.63   10.92
  -1  -2 -27   85.14   17.97
   1  -2 -27   51.15   14.89
   1   2 -27   65.93   17.05
  -1   2 -27   70.70   16.22
  -1   2 -28    2.65    4.53
  -1  -2 -28    1.41    2.83
   1  -2 -28    2.74    3.24
   1   2 -28    2.00    5.82
   1   2 -29   15.23   10.03
  -1   2 -29    7.30    6.50
  -1  -2 -29    7.33    5.57
   1  -2 -29   20.10   12.71
  -1   2 -30   24.79    7.99
  -1  -2 -30   16.84    7.17
   1  -2 -30   22.99   11.64
   1   2 -30   34.18   13.71
  -1  -2 -31   21.28   10.72
   1   2 -31    9.57    6.84
   1  -2 -31    3.90    4.80
   1   2 -32   -3.50    3.69
   1  -2 -32   12.28    7.27
  -1   2 -32    0.76    4.24
  -1  -2 -32   -2.07    5.36
   1  -3   0   -1.31    1.86
  -1  -3   0   -0.72    1.24
   1  -3  -1 1521.77   30.97
  -1  -3  -1 1757.48   38.81
  -1  -3  -2  467.06   21.26
  -1   3  -2  500.04   19.07
  -1   3  -3 2792.38   48.64
  -1  -3  -3 2918.30   54.47
  -1  -3  -4  204.99   15.04
  -1   3  -4  169.26   12.75
   1  -3  -4  218.73   13.08
   1   3  -4  209.67   15.28
  -1  -3  -5  739.31   30.01
   1   3  -5  700.07   29.59
   1  -3   5  714.30   28.62
  -1  -3   5  685.72   27.00
   1   3  -6  370.17   22.21
  -1  -3   6  389.78   22.10
   1  -3   6  295.82   19.02
  -1  -3  -6  544.80   27.40
  -1   3  -6  387.20   21.56
   1  -3  -6  527.42   23.49
   1  -3   7   73.16    9.20
  -1   3  -7   78.53   10.77
  -1  -3  -7  105.03   11.66
   1   3  -7   62.85   10.26
   1  -3  -7   84.88   10.18
  -1  -3  -8 2333.81   60.04
  -1   3  -8 2235.06   59.27
   1  -3  -8 2216.51   52.58
   1   3  -8 2146.72   55.76
   1  -3  -9  293.40   20.71
  -1  -3  -9  258.61   20.23
   1   3  -9  262.88   20.14
  -1   3 -10  609.84   33.89
   1   3 -10  685.21   33.81
  -1  -3 -10  648.83   34.73
   1  -3 -10  629.69   30.70
   1   3 -11   55.22   10.02
   1  -3 -11   52.63    8.99
  -1  -3 -11   61.25   11.05
  -1   3 -11   54.71   10.98
   1   3 -12   92.56   13.20
  -1  -3 -12  101.66   15.15
  -1   3 -12   85.05   13.50
  -1   3 -13    0.47    2.63
   1  -3 -13    4.09    3.66
   1   3 -13    0.91    1.80
  -1  -3 -13    2.11    3.50
   1  -3 -14  115.56   16.58
   1   3 -14   97.65   14.08
  -1  -3 -14  103.84   14.51
  -1   3 -14   61.37   12.21
  -1   3 -15   -0.16    5.07
  -1  -3 -15    0.66    2.51
   1   3 -15   -0.95    2.31
   1  -3 -15    0.34    0.99
  -1   3 -16   -1.28    1.00
  -1  -3 -16    1.33    1.66
   1  -3 -16    0.90    2.80
   1   3 -16    1.73    2.07
   1   3 -17   26.05    8.48
  -1   3 -17   26.51    8.45
   1  -3 -17   36.45   10.77
  -1  -3 -17   42.72   11.36
  -1   3 -18   17.09    7.16
   1  -3 -18   48.34   12.20
   1   3 -18   32.82    9.50
  -1  -3 -18   51.99   11.12
   1   3 -19  568.05   40.55
   1  -3 -19  538.13   39.35
  -1  -3 -19  532.51   40.83
  -1   3 -19  669.64   44.09
   1   3 -20  100.30   18.56
  -1   3 -20  152.54   21.61
   1  -3 -20  130.94   19.50
  -1  -3 -20   92.65   16.93
   1  -3 -21  127.97   20.04
  -1   3 -21   99.66   18.64
   1   3 -21  103.33   18.25
  -1  -3 -21  162.15   23.71
   1   3 -22   11.58    5.69
  -1  -3 -22    5.41    2.31
   1  -3 -22    9.14    6.97
  -1   3 -22   12.26    6.81
   1  -3 -23   19.22    7.30
  -1   3 -23   24.64    9.92
   1   3 -23   22.24    8.38
  -1  -3 -23   32.64    9.16
  -1   3 -24   -6.18    7.28
   1   3 -24   -1.05    2.41
  -1  -3 -24   -2.45    5.35
   1  -3 -24   -0.27    2.52
  -1   3 -25   41.92   13.09
   1   3 -25   30.12   10.69
   1  -3 -25   27.21    9.93
  -1  -3 -25   21.33    8.22
  -1   3 -26    7.82    5.13
   1  -3 -26    8.68    6.89
   1   3 -26    9.41    4.48
  -1  -3 -26    5.03    0.86
  -1   3 -27    0.59    2.11
   1  -3 -27    4.36    6.75
   1   3 -27    7.56    8.28
  -1  -3 -27    2.79    5.63
   1   3 -28    4.55    1.25
   1  -3 -28    7.32    7.76
  -1  -3 -28   14.21   10.67
  -1   3 -28    5.99    3.94
   1  -3 -29    0.41    5.40
  -1  -3 -29   -0.58    4.32
  -1   3 -29   -3.55    3.69
   1   3 -29    2.57    1.84
   1  -3 -30   -2.90    3.99
   1   3 -30   -1.96    4.50
  -1   3 -30   -2.20    4.26
  -1  -3 -30    0.77    5.86
  -1   3 -31   12.26    6.82
   1   3 -31    5.74    7.95
  -1  -3 -31   14.09    8.86
   1  -3 -31   23.20   11.23
   1  -3 -32    5.56    7.22
  -1   3 -32   18.40    9.94
  -1  -3 -32    1.54    4.76
   1   3 -32    2.21    4.35
  -1  -4   0    0.81    2.53
   1  -4   0    1.72    2.42
  -1  -4  -1   14.05    3.85
  -1  -4   1   13.74    5.31
   1  -4  -1   10.67    2.77
  -1   4  -2 1743.03   42.80
  -1  -4  -2 1663.04   45.13
  -1   4  -3   33.45    5.65
  -1  -4  -3   25.35    5.55
   1  -4  -3   23.28    4.53
   1  -4  -4  650.00   25.51
  -1   4  -4  715.30   29.31
   1   4  -5  983.74   37.78
  -1   4  -5  881.11   33.65
   1  -4  -5  862.00   30.97
  -1  -4   5  872.41   35.39
   1   4  -6  473.57   27.12
  -1   4  -6  453.72   25.51
   1  -4  -6  445.34   23.65
  -1  -4  -6  502.31   27.33
   1   4  -7 1108.19   42.77
  -1  -4  -7 1172.81   43.12
   1  -4   7 1071.65   40.30
  -1   4  -7 1189.83   41.34
   1  -4  -7 1034.57   36.53
   1  -4  -8 1557.91   46.97
  -1   4  -8 1876.99   53.83
   1   4  -8 1581.99   51.76
  -1  -4  -8 1306.78   45.59
   1  -4   8 1671.78   51.97
  -1  -4   8 1557.05   48.68
   1  -4  -9 1388.44   47.34
  -1   4  -9 1200.64   46.11
  -1  -4  -9 1576.53   54.64
   1   4  -9 1294.43   48.76
   1  -4   9 1526.68   50.41
  -1  -4   9 1600.67   52.91
   1  -4 -10  418.78   26.36
  -1   4 -10  410.87   28.11
   1  -4  10  408.34   26.22
  -1  -4 -10  491.22   30.74
   1   4 -10  336.73   25.54
   1  -4 -11    1.39    0.91
  -1   4 -11    2.73    1.46
   1  -4  11    3.52    1.54
   1   4 -11    5.96    3.29
  -1   4 -12   43.94   10.29
   1  -4 -12   64.98   11.04
   1   4 -12   54.51   10.97
  -1  -4 -13   69.20   12.19
   1  -4 -13   65.39   11.83
   1   4 -13   70.88   12.72
  -1   4 -13   76.58   13.72
   1   4 -14  266.46   24.77
  -1  -4 -14  392.74   31.31
  -1   4 -14  231.38   24.74
   1  -4 -14  395.44   30.59
  -1   4 -15   12.88    7.49
   1   4 -15   24.78    7.06
   1  -4 -15   12.68    5.27
  -1  -4 -15   14.46    6.42
   1   4 -16   15.71    5.37
  -1   4 -16   31.71    9.14
   1  -4 -16   40.32   11.39
  -1  -4 -16   27.52    9.29
   1   4 -17  224.80   24.71
   1  -4 -17  278.33   28.58
  -1  -4 -17  256.14   27.23
  -1   4 -17  288.65   28.86
  -1   4 -18  109.10   18.02
   1  -4 -18  149.61   21.10
   1   4 -18  134.15   19.53
  -1   4 -19  100.42   17.52
  -1  -4 -19  108.01   19.60
   1   4 -19  100.10   17.94
   1  -4 -19   94.31   17.86
  -1  -4 -20    1.74    5.76
  -1   4 -20   -3.82    5.68
   1  -4 -20   -1.48    3.79
   1   4 -20    1.26    2.94
  -1  -4 -21   56.27   14.54
  -1   4 -21   18.79   10.07
   1   4 -21   50.27   12.36
   1  -4 -21   44.60   12.06
   1  -4 -22   21.67    8.48
   1   4 -22   21.85    7.66
  -1   4 -22   15.35    6.61
  -1  -4 -22   25.82    9.79
  -1   4 -23  208.21   27.25
   1  -4 -23  182.93   25.91
   1   4 -23  130.98   21.24
  -1  -4 -23  173.13   25.08
  -1  -4 -24    3.74    2.67
   1   4 -24   -2.66    6.26
   1  -4 -24   -1.06    2.69
  -1   4 -24    6.72    5.68
   1   4 -25    4.15    3.28
   1  -4 -25    0.26    4.34
  -1   4 -25    0.76    4.25
  -1  -4 -25   -1.89    6.62
  -1  -4 -26    8.56    2.88
   1  -4 -26   20.10    9.55
   1   4 -26   28.48    9.93
  -1   4 -26    9.20    7.45
  -1  -4 -27   20.90   10.36
   1  -4 -27   11.96    3.40
  -1   4 -27    9.47    5.88
   1   4 -27   19.82    9.31
   1  -4 -28    2.80    5.39
  -1   4 -28   -2.58    5.25
   1   4 -28    1.41    3.49
  -1  -4 -28   -1.60    6.25
   1   4 -29    5.91    6.53
   1  -4 -29   -1.46    5.42
  -1   4 -29    5.34    6.46
  -1  -4 -29   10.57    7.77
   1   4 -30   19.56    9.71
  -1  -4 -30   11.05    8.45
  -1   4 -30   21.29   10.63
   1  -4 -30   13.34    7.64
  -1  -4 -31    3.12    4.02
   1  -4 -31   13.50    7.53
  -1   4 -31    7.72    6.72
   1   4 -31   14.47    9.59
   1  -5   0    0.44    0.26
  -1  -5   0    1.07    2.17
  -1  -5  -1  612.42   29.47
   1  -5   1  556.48   27.69
  -1  -5   1  586.17   28.63
  -1  -5  -2    2.91    2.93
  -1  -5   2    7.92    4.17
   1  -5  -2    1.33    2.28
  -1   5  -3   28.26    6.56
  -1  -5  -3   22.74    5.50
   1  -5  -3   33.91    6.36
  -1   5  -4   44.96    8.13
  -1  -5  -4   68.14   10.22
   1  -5  -4   74.61    9.80
  -1  -5  -5   62.89    9.84
   1  -5  -5   54.76    8.03
  -1   5  -5   53.33    8.78
   1  -5  -6   60.11    9.22
  -1  -5  -6   80.25   11.38
  -1   5  -6   72.87   11.09
   1   5  -6   75.23   11.69
  -1  -5   7    0.36    1.82
   1  -5  -7   -0.92    2.99
   1   5  -7    0.10    2.34
  -1   5  -7    2.84    3.25
  -1  -5  -7    0.12    1.32
  -1  -5  -8  450.32   29.62
   1   5  -8  555.47   32.29
  -1   5  -8  653.40   34.68
  -1  -5   8  599.76   33.81
   1  -5  -8  724.10   33.85
   1  -5   9 1019.80   44.25
  -1   5  -9 1039.73   44.82
  -1  -5  -9 1031.05   44.06
   1   5  -9  930.29   43.64
  -1   5 -10   -0.70    1.75
   1  -5 -10    1.24    2.86
   1  -5  10   -1.89    1.75
   1   5 -10    3.82    4.42
  -1  -5 -10    2.17    2.69
  -1  -5  10    2.88    1.64
   1  -5  11  103.52   15.01
  -1  -5 -11  121.81   16.53
  -1   5 -11   78.36   13.10
   1  -5 -11  144.32   17.09
   1   5 -11  119.68   16.65
  -1  -5  11   64.26   10.96
  -1  -5  12    2.16    3.57
   1  -5 -12    9.71    4.80
   1   5 -12    2.15    1.88
  -1  -5 -12    4.60    3.45
  -1   5 -12    3.61    1.81
   1  -5  12    3.80    3.01
  -1  -5 -13   34.13   10.00
  -1   5 -13   34.77    8.79
   1  -5 -13   39.98    9.85
  -1  -5  13   31.07    7.82
   1   5 -13   40.70   10.69
   1  -5  13   28.34    8.03
  -1  -5 -14  174.88   20.94
   1  -5 -14  143.93   18.40
  -1   5 -14  157.62   19.49
   1   5 -14  159.05   19.22
   1  -5  14  138.09   17.77
   1  -5  15   82.47   13.32
  -1  -5 -15   80.32   15.72
   1  -5 -15   61.07   12.62
   1   5 -15   79.14   15.15
  -1   5 -15   71.54   13.15
   1   5 -16   86.33   14.94
   1  -5 -16   87.80   15.45
  -1   5 -16   56.07   12.36
   1  -5  16   51.94   11.57
  -1  -5 -16   60.52   13.12
   1  -5  17   48.01   11.55
   1   5 -17   42.53   11.15
   1  -5 -17   38.43   10.59
  -1  -5 -17   52.75   12.10
  -1   5 -17   33.99    9.08
   1  -5  18    0.96    3.75
   1   5 -18    0.25    2.74
  -1  -5 -18    3.59    3.27
  -1   5 -18   -1.04    1.42
   1  -5 -18    2.64    2.19
   1  -5 -19   30.14   11.86
  -1  -5 -19   58.14   14.05
  -1   5 -19   33.51   10.53
   1   5 -19   40.94   11.27
   1  -5 -20   44.07   12.46
  -1   5 -20   53.73   12.95
  -1  -5 -20   49.14   14.09
   1   5 -20   46.93   12.72
  -1  -5 -21   50.05   14.06
   1  -5 -21   29.50   10.86
   1   5 -21   22.49    8.21
   1  -5 -22   10.01    8.15
  -1  -5 -22   20.11    8.74
   1   5 -22   12.31    6.75
  -1   5 -22   28.63   12.07
   1  -5 -23    3.32    3.15
   1   5 -23    9.19    4.86
  -1  -5 -23    4.22    4.89
  -1   5 -24   -2.68    6.56
   1  -5 -24    0.83    1.57
  -1  -5 -24   -1.35    2.85
   1   5 -24   -0.66    5.47
  -1  -5 -25    5.91    7.78
  -1   5 -25    8.49    3.72
   1   5 -25    1.99    5.32
   1  -5 -25    2.70    3.23
   1   5 -26    9.60    6.22
  -1   5 -26    1.49    1.01
  -1  -5 -26   14.18    7.45
   1  -5 -27    5.97    7.19
  -1  -5 -27   -8.89    8.65
  -1   5 -27   -1.37    5.75
   1   5 -27    1.75    2.71
  -1  -5 -28   -0.51    4.16
   1  -5 -28   -2.74    6.32
  -1   5 -28   -5.19    3.72
   1   5 -28   -0.05    3.56
  -1  -5 -29    6.82    8.34
  -1   5 -29   -0.47    3.84
   1   5 -29   12.01    8.68
   1  -5 -29    3.17    0.63
   1  -5 -30   16.65   10.91
   1   5 -30   10.03    7.97
  -1  -5 -30    5.64    9.03
  -1   5 -30    6.73    5.62
   1  -5 -31    1.20    3.02
  -1  -5 -31    7.75    7.43
   1   5 -31    9.84    8.64
  -1   5 -31    9.04    8.41
   1  -5  31   14.76    7.52
   1  -6   0   -0.26    1.78
  -1  -6   0    4.95    2.35
  -1  -6   1 1704.51   52.71
   1  -6  -1 1590.00   48.38
  -1  -6  -1 1507.61   51.87
   1  -6   1 1758.70   51.19
  -1  -6  -2   35.18    8.05
  -1  -6   2   18.79    6.16
   1  -6   2   19.87    5.74
   1  -6  -2   16.71    4.81
   1  -6  -3  433.37   25.12
  -1  -6  -3  413.88   26.48
  -1  -6   3  379.23   26.92
   1  -6  -4   35.42    7.30
  -1  -6  -4   25.39    6.98
  -1   6  -4   24.11    6.44
  -1  -6  -5 1324.61   49.20
   1  -6  -5 1284.99   45.27
   1   6  -6   18.05    5.22
   1  -6  -6   19.89    5.67
  -1   6  -6   26.57    6.92
  -1  -6  -7  258.87   22.30
  -1   6  -7  196.50   18.97
   1   6  -7  200.61   20.60
  -1   6  -8  101.02   14.12
   1  -6  -8  101.37   14.04
  -1  -6  -8  103.72   14.93
   1   6  -8  114.07   15.66
   1  -6  -9  477.25   29.83
   1   6  -9  521.84   33.00
  -1   6  -9  568.52   35.14
  -1  -6  -9  554.24   35.64
  -1  -6   9  606.02   36.42
  -1  -6 -10  120.26   16.35
   1   6 -10  124.32   16.97
   1  -6 -10  117.13   16.25
  -1  -6  10  141.37   18.52
  -1   6 -10   96.88   14.02
  -1  -6 -11  353.67   28.93
   1  -6 -11  399.83   29.67
   1   6 -11  363.91   28.79
  -1  -6  11  355.85   29.46
   1  -6  11  336.80   28.73
  -1   6 -11  357.46   28.73
  -1  -6  12  279.02   26.08
  -1   6 -12  285.31   26.59
   1  -6 -12  323.19   27.81
   1   6 -12  344.97   29.10
  -1  -6 -12  301.25   28.14
   1  -6 -13  160.37   19.26
   1   6 -13  135.73   18.92
  -1   6 -13  153.80   19.88
  -1  -6 -13  144.88   19.76
  -1  -6  13  184.41   21.31
   1  -6  13  168.01   20.92
  -1  -6 -14   11.82    5.96
  -1  -6  14   27.90    8.21
   1   6 -14   19.50    8.15
   1  -6 -14   11.84    7.60
  -1   6 -14   29.17    8.75
   1  -6  14   37.67   10.29
  -1  -6  15  114.66   17.57
   1  -6 -15  160.56   21.76
   1   6 -15  120.34   18.34
  -1   6 -15  176.31   21.89
  -1  -6 -15  143.89   20.82
   1  -6  15  150.71   19.12
   1  -6  16   10.90    6.12
  -1  -6  16    6.60    5.94
   1   6 -16    1.71    3.46
   1  -6 -16    0.79    4.15
  -1  -6 -16    1.27    2.80
  -1   6 -16    2.75    3.06
  -1   6 -17    3.20    5.79
   1   6 -17    3.83    5.52
   1  -6  17   -3.06    4.73
  -1  -6  17   -0.51    1.50
   1  -6 -17   -1.28    1.03
  -1  -6 -17    1.60    4.27
   1   6 -18   22.22    8.41
   1  -6  18   16.67    6.55
  -1  -6  18   10.59    5.89
   1  -6 -18   21.44   10.19
  -1   6 -18   12.26    6.87
  -1  -6 -18   15.57    7.33
   1   6 -19   -2.95    5.55
   1  -6 -19   -2.62    3.69
  -1   6 -19   -1.40    4.51
   1  -6  19    2.67    3.98
  -1  -6 -19   -2.05    2.71
  -1  -6  19   -1.54    1.11
  -1   6 -20  136.12   21.12
  -1  -6 -20  121.78   20.01
   1  -6 -20  144.86   22.46
  -1  -6  20  117.54   17.90
   1   6 -20  122.15   19.56
   1  -6  20  135.36   19.85
  -1   6 -21    5.11    7.72
  -1  -6  21   -1.05    4.31
   1  -6 -21    5.23    4.68
  -1  -6 -21   -1.13    2.40
   1   6 -21   -0.62    5.74
   1  -6  21    2.85    5.35
  -1  -6  22   62.16   14.96
  -1   6 -22   89.45   18.35
   1  -6  22   98.45   17.08
  -1  -6 -22  113.50   20.84
   1   6 -22   67.15   14.75
   1  -6 -22   92.12   17.87
   1   6 -23   22.27    8.53
  -1  -6 -23   26.48   10.65
   1  -6 -23   11.84    2.53
   1  -6  23    5.24    2.37
  -1   6 -23   20.00   10.01
  -1  -6  23    9.36    6.35
  -1   6 -24   16.00    7.28
   1  -6  24   12.57    7.22
  -1  -6  24   22.45    9.18
  -1  -6 -24   24.75    9.20
   1  -6 -24   26.23   11.94
   1   6 -24   19.05    8.72
   1  -6 -25   -0.88    3.93
  -1  -6  25    9.08    5.68
   1  -6  25   -1.14    2.68
  -1   6 -25    4.89    6.52
   1   6 -25   -0.94    4.55
  -1  -6 -25    0.40    3.20
   1  -6  26   -1.65    5.64
  -1  -6 -26   14.69    7.38
  -1   6 -26    8.98    6.60
   1  -6 -26    7.12    2.70
   1   6 -26   18.48    9.33
  -1  -6  26    4.39    1.31
  -1   6 -27    1.51    5.21
   1  -6 -27    3.61    0.91
  -1  -6  27    4.52    3.48
   1  -6  27   -1.58    4.10
  -1  -6 -27   10.16    8.00
   1   6 -27    3.71    5.98
  -1  -6  28   33.64   10.89
   1  -6 -28   60.29   16.95
   1   6 -28   51.33   14.04
   1  -6  28   41.13   10.81
  -1   6 -28   24.17    9.05
  -1  -6 -28   69.35   17.84
  -1  -6  29   -0.19    4.02
   1  -6 -29    6.44    5.66
  -1  -6 -29    1.58    6.07
   1  -6  29   -0.17    1.24
  -1   6 -29    4.72    5.09
   1   6 -29   -2.22    1.94
   1   6 -30    2.56    1.95
   1  -6 -30    1.60    2.28
  -1  -6  30    4.49    5.05
  -1  -6 -30    7.21    7.52
  -1   6 -30   21.87   11.98
   1  -6  30   17.90   10.26
  -1  -7   0    1.23    4.66
   1  -7   0    1.31    3.04
   1  -7  -1  146.52   15.78
  -1  -7  -1  162.40   16.83
   1  -7   1  129.12   14.76
  -1  -7   1  176.01   18.70
  -1  -7  -2   14.72    5.41
  -1  -7   2   13.81    5.85
   1  -7  -2    8.76    3.86
   1  -7   2   26.29    7.31
  -1  -7   3   24.94    7.73
  -1  -7  -3   24.15    8.34
   1  -7  -3   20.69    5.76
   1  -7   3   21.35    6.21
   1  -7  -4  146.03   16.04
  -1  -7   4  155.60   18.42
  -1  -7  -4  156.37   17.15
  -1  -7  -5  506.86   32.37
  -1   7  -5  429.11   28.54
   1  -7  -5  538.33   31.85
   1  -7  -6  154.58   17.46
  -1   7  -6  132.81   16.77
  -1  -7  -6  138.37   16.82
  -1   7  -7    4.42    4.14
   1  -7  -7    1.14    2.99
   1   7  -7    6.01    4.53
  -1  -7  -7    4.25    5.55
   1   7  -8  128.47   17.55
   1  -7  -8  148.29   17.96
  -1  -7  -8  125.28   16.46
  -1   7  -8  125.44   16.49
   1  -7  -9   39.45    9.18
   1   7  -9   46.33   10.82
  -1   7  -9   46.97   10.01
  -1  -7  -9   33.82    8.96
  -1   7 -10   95.62   14.91
   1  -7 -10   64.97   11.81
  -1  -7 -10  113.98   16.40
   1   7 -10   55.05   12.23
  -1  -7 -11   10.19    5.31
   1  -7 -11   10.92    4.26
   1   7 -11    5.22    5.66
  -1   7 -11    7.49    5.26
  -1  -7  12    3.08    2.56
   1  -7 -12    7.05    5.16
  -1  -7 -12    1.46    3.81
  -1   7 -12   10.72    5.48
   1   7 -12   -0.99    5.14
  -1   7 -13  270.73   26.38
   1  -7 -13  258.12   26.42
  -1  -7 -13  306.67   29.65
  -1  -7  13  222.29   25.88
   1   7 -13  257.60   26.53
   1  -7  14  358.82   32.24
   1   7 -14  477.73   35.65
   1  -7 -14  317.97   30.94
  -1  -7 -14  461.30   35.95
  -1  -7  14  419.36   34.05
  -1   7 -14  392.08   33.06
  -1  -7 -15    6.39    6.57
  -1  -7  15    7.37    4.42
   1   7 -15   -1.98    1.55
   1  -7  15   -0.75    1.85
  -1   7 -15    3.47    4.21
   1  -7 -15    0.85    4.47
  -1  -7 -16    3.89    3.35
  -1  -7  16    3.42    2.07
   1  -7  16    8.38    6.98
  -1   7 -16    1.32    3.84
   1  -7 -16    1.19    1.74
   1   7 -16    3.51    6.70
   1   7 -17  143.64   21.05
  -1  -7  17  118.15   18.71
   1  -7  17  125.50   19.90
  -1   7 -17  134.26   20.77
  -1  -7 -17  201.84   25.09
   1  -7 -17  127.57   19.71
  -1  -7 -18   40.49   12.04
  -1  -7  18   48.62   13.30
   1  -7  18   46.62   11.77
   1   7 -18   73.93   15.26
   1  -7 -18   37.22   11.41
  -1   7 -18   49.93   10.81
  -1  -7  19   64.20   14.39
  -1   7 -19  104.00   18.69
  -1  -7 -19   83.03   16.50
   1  -7 -19   86.95   17.86
   1   7 -19   84.71   16.64
   1  -7  19   89.77   16.91
   1  -7 -20    5.05    6.55
  -1   7 -20   -0.29    3.32
   1  -7  20    4.19    5.17
   1   7 -20    4.43    4.62
  -1  -7  20    0.07    1.55
  -1  -7 -20   -1.47    2.17
  -1  -7 -21    2.60    6.58
   1  -7  21    5.62    6.34
   1  -7 -21   10.83   10.15
  -1  -7  21    4.17    6.94
  -1   7 -21    3.45    5.16
   1   7 -21    7.92    8.09
   1  -7 -22    2.37    6.37
  -1   7 -22    0.02    2.17
   1  -7  22   -0.43    5.42
  -1  -7 -22    8.06    9.74
   1   7 -22   -0.41    5.68
  -1  -7  22    5.35    5.83
  -1  -7 -23   29.22   11.92
   1  -7 -23   57.33   15.32
   1   7 -23   66.30   16.05
  -1  -7  23   26.70   10.25
  -1   7 -23   31.90    9.97
   1  -7  23   45.70   12.78
  -1   7 -24    4.10    5.58
   1  -7 -24   -4.74    6.18
  -1  -7  24    1.25    5.47
   1  -7  24    1.91    2.39
   1   7 -24   -2.29    4.96
  -1  -7 -24   -4.21    7.25
  -1   7 -25    3.94    6.53
   1   7 -25   -0.37    6.03
   1  -7  25    5.23    5.81
  -1  -7  25    1.92    2.27
   1  -7 -25   -2.98    4.47
  -1  -7 -25    7.21    8.56
   1  -7 -26    2.01    3.48
  -1  -7 -26   -2.60    3.92
   1  -7  26    2.45    3.66
   1   7 -26    2.49    4.36
  -1  -7  26    6.70    6.16
  -1   7 -26   -7.22    8.48
   1  -7 -27   26.93   10.69
  -1  -7  27   17.43    6.93
   1  -7  27   16.57    8.49
  -1  -7 -27   -0.94    4.91
  -1   7 -27   24.07   10.67
   1   7 -27    5.15    5.78
   1  -7  28   20.56    9.81
   1  -7 -28   31.50   11.99
  -1  -7 -28   19.78   12.01
  -1  -7  28    5.68    3.72
  -1   7 -28   15.14    7.94
   1   7 -28   24.64   10.88
  -1   7 -29    3.40    5.83
  -1  -7  29    6.40    6.49
  -1  -7 -29    4.00    4.98
   1  -7 -29   14.33   10.62
   1   7 -29    4.03    6.28
   1  -7  29    3.22    3.43
   1  -8   0    1.54    2.65
  -1  -8   0   -2.40    3.32
   1  -8   1  815.98   40.53
  -1  -8   1  860.18   44.55
  -1  -8  -1  752.61   39.10
  -1  -8  -2  171.22   19.31
  -1  -8   2  167.13   18.85
   1  -8  -2  163.74   17.70
   1  -8   2  161.00   18.10
  -1  -8   3   12.73    6.66
   1  -8  -3   18.36    6.24
  -1  -8  -3   24.40    8.39
   1  -8   3   16.99    7.28
  -1  -8  -4    8.21    5.83
   1  -8   4   12.30    5.46
   1  -8  -4   10.45    3.50
  -1  -8   4   12.58    5.31
  -1  -8  -5  823.38   44.04
  -1  -8   5  749.72   43.47
   1  -8  -6   47.75   10.32
  -1  -8  -6   46.61   10.26
   1  -8  -7  200.29   20.83
  -1  -8  -7  205.00   22.14
  -1   8  -8    9.84    4.84
   1  -8  -8   17.76    6.57
  -1  -8  -8    7.78    5.48
  -1   8  -9 1334.32   58.78
   1   8  -9 1287.30   57.48
   1  -8  -9 1464.85   60.09
  -1   8 -10   32.73    9.20
  -1  -8 -10   20.26    6.35
   1  -8 -10   31.80    8.66
   1   8 -10   36.70    9.57
   1  -8 -11   20.78    7.10
   1   8 -11   12.98    5.54
  -1  -8 -11   13.43    7.15
  -1   8 -11   17.04    7.01
   1  -8 -12  251.22   27.22
  -1  -8 -12  217.22   23.53
  -1   8 -12  230.19   24.72
   1   8 -12  256.07   27.33
   1   8 -13   61.73   13.36
   1  -8 -13   86.80   15.10
  -1  -8 -13   80.31   15.98
  -1   8 -13   62.24   13.39
   1   8 -14   12.05    8.05
  -1   8 -14   11.32    4.50
   1  -8 -14   10.66    6.72
  -1  -8 -14    5.53    3.35
  -1  -8 -15   51.59   11.90
  -1   8 -15   75.36   15.73
  -1  -8  15   57.95   12.87
   1   8 -15   58.66   13.13
   1  -8 -15   80.85   15.20
   1   8 -16    6.83    4.65
  -1  -8  16    0.38    4.38
   1  -8 -16    3.05    2.41
  -1   8 -16    7.51    5.69
  -1  -8 -16    3.11    7.67
  -1   8 -17  103.11   18.63
   1  -8 -17  125.35   20.65
   1   8 -17   68.75   14.53
  -1  -8  17  106.77   18.77
  -1   8 -18    2.48    1.75
  -1  -8 -18    3.04    3.27
  -1  -8  18   -0.51    5.36
   1   8 -18   -2.74    3.22
   1  -8 -18    4.94    6.89
   1  -8  18   15.19    8.54
   1  -8  19  192.44   25.15
   1  -8 -19  195.53   25.10
  -1  -8 -19  193.29   26.42
  -1  -8  19  188.19   25.47
   1   8 -19  199.60   26.11
  -1   8 -19  174.61   23.36
  -1  -8  20   -2.29    3.60
  -1  -8 -20    4.37    4.68
   1   8 -20    8.41    3.75
  -1   8 -20    1.85    1.78
   1  -8 -20    0.89    5.23
   1  -8  20   -0.77    5.17
   1  -8 -21   62.19   16.44
  -1  -8  21   38.92   11.95
  -1   8 -21   42.98   11.90
   1  -8  21   62.45   13.82
  -1  -8 -21   44.10   13.91
   1   8 -21   59.40   15.85
   1  -8 -22   14.87    8.48
   1  -8  22   -2.82    5.61
  -1   8 -22   -1.75    0.73
   1   8 -22   -3.31    4.85
  -1  -8  22    5.48    1.31
  -1  -8 -22   11.27    9.69
  -1  -8 -23   52.89   16.63
   1  -8 -23   58.39   16.80
   1   8 -23   68.21   16.34
   1  -8  23   68.49   16.10
  -1   8 -23   79.38   17.60
  -1  -8  23   50.24   12.72
   1  -8 -24   -0.76    3.58
  -1  -8 -24    1.24    6.06
   1  -8  24   -0.03    2.78
   1   8 -24    4.66    3.12
  -1  -8  24   -4.29    2.71
  -1   8 -24    2.15    3.80
   1  -8 -25   16.68    9.31
  -1   8 -25    4.10    3.45
  -1  -8  25   15.25    7.81
   1  -8  25   16.68    8.92
   1   8 -25    7.66    5.86
  -1  -8 -25    6.29    6.48
   1   8 -26    0.85    4.26
   1  -8  26   -3.64    3.58
  -1  -8  26   -1.94    5.63
   1  -8 -26    1.24    6.18
  -1  -8 -26   -0.80    5.77
  -1   8 -26   -4.08    4.03
  -1  -8 -27   64.35   18.65
   1   8 -27   58.45   14.80
   1  -8 -27   41.20   12.99
   1  -8  27   58.26   16.01
  -1   8 -27   26.10    9.77
  -1  -8  27   43.27   12.58
  -1  -8  28   -4.23    4.47
  -1  -8 -28    2.10    4.86
   1  -8 -28    2.42    0.74
   1   8 -28   -3.59    4.62
  -1   8 -28    2.77    0.83
   1  -9   0   -0.17    2.66
  -1  -9   0    1.38    2.27
  -1  -9   1   18.84    7.50
   1  -9  -1   28.29    7.57
   1  -9   1   42.55   10.29
  -1  -9  -1   22.13    7.98
  -1  -9   2   88.87   14.65
   1  -9  -2   95.53   14.67
   1  -9   2   94.36   14.62
  -1  -9  -2   87.38   14.54
   1  -9  -3  146.07   18.35
  -1  -9  -3  172.98   20.51
   1  -9   3  153.49   19.23
   1  -9  -4   50.73   10.71
  -1  -9  -4   58.25   12.59
   1  -9   4   66.24   12.83
  -1  -9   4   44.97   10.80
  -1  -9   5   13.19    5.79
  -1  -9  -5   18.63    7.27
   1  -9   5   13.70    7.32
   1  -9  -5    3.95    1.57
  -1  -9   6   58.28   13.55
   1  -9  -6   82.64   13.17
  -1  -9  -6   86.65   15.27
   1  -9  -7    1.20    3.40
  -1  -9   7    0.12    3.67
  -1  -9  -7    2.64    5.14
   1  -9  -8   15.75    5.63
  -1  -9  -8   18.27    7.42
  -1   9  -8    3.93    2.53
  -1   9  -9  947.72   50.57
  -1  -9  -9  964.95   51.97
   1  -9  -9 1088.45   55.02
   1  -9 -10   59.54   13.93
  -1  -9 -10   56.19   12.84
  -1   9 -10   42.67   11.51
   1  -9 -11   38.76   10.66
  -1   9 -11   21.28    9.14
   1   9 -11   34.12    9.33
  -1  -9 -11   34.48   10.21
   1   9 -12   11.58    6.91
  -1  -9 -12    4.53    1.40
   1  -9 -12   11.86    6.59
  -1   9 -12   18.39    6.41
   1   9 -13    0.97    5.60
  -1   9 -13    1.43    3.76
   1  -9 -13    0.37    0.35
  -1  -9 -13    4.49    6.25
   1  -9 -14   13.49    5.41
  -1   9 -14   23.72   10.37
  -1  -9 -14   17.98    6.55
   1   9 -14    5.89    7.75
   1   9 -15   43.48   12.21
  -1  -9 -15   51.76   11.67
   1  -9 -15   21.58    9.62
  -1   9 -15   44.81   12.03
  -1   9 -16   73.32   16.00
  -1  -9 -16   86.14   16.79
   1  -9 -16   67.00   13.76
   1   9 -16   65.86   14.58
  -1  -9 -17    1.23    3.49
   1  -9 -17    3.26    5.48
   1   9 -17    1.68    5.38
  -1   9 -17   17.88    5.96
   1   9 -18   19.57    8.28
   1  -9 -18   13.27    8.47
  -1  -9 -18   31.76   10.58
  -1   9 -18   22.79    9.98
   1   9 -19   32.94   10.25
   1  -9 -19   30.35   11.48
  -1  -9 -19   42.50   12.53
  -1   9 -19   17.71    8.51
   1  -9 -20   40.09   12.01
   1   9 -20   12.74    7.49
  -1  -9  20   23.13    8.14
  -1   9 -20   33.91   12.09
  -1  -9 -20   42.26   14.14
   1   9 -21   32.41   10.16
  -1  -9  21   23.73    8.55
   1  -9 -21   32.04   10.75
  -1   9 -21   50.75   15.00
  -1  -9 -21   18.90    8.05
  -1  -9  22    7.24    6.66
   1  -9 -22   20.31   10.88
   1   9 -22   17.43    8.94
  -1  -9 -22   -1.73    1.83
  -1   9 -22    1.97    2.42
  -1  -9 -23    2.00    3.35
   1   9 -23   -3.56    4.41
   1  -9 -23    1.19    0.81
  -1  -9  23    2.30    3.73
  -1   9 -23   -1.22    1.60
  -1  -9 -24   18.32    9.67
  -1   9 -24   11.01    7.58
   1   9 -24    9.54    6.93
   1  -9 -24   11.94    7.52
  -1  -9  24   11.16    7.62
  -1  -9  25   -1.10    3.33
  -1  -9 -25    5.86    9.26
   1   9 -25   -7.63    7.30
   1  -9 -25   13.12    8.81
  -1   9 -25   -5.89    9.26
   1  -9  25    1.15    1.83
   1   9 -26   -1.88    2.14
   1  -9 -26   -2.77    1.77
  -1   9 -26   -2.53    1.63
   1  -9  26    6.80    5.47
  -1  -9 -26   -1.92    6.15
  -1  -9  26    4.25    5.37
   1   9 -27   20.92    9.27
   1  -9 -27   18.64    7.72
  -1   9 -27   10.23    3.39
   1  -9  27    9.22    6.32
  -1  -9 -27   28.30   12.66
  -1  -9  27   16.47    6.24
   1 -10   0   -0.53    2.73
  -1 -10   0   -0.76    3.33
   1 -10  -1   65.88   12.95
   1 -10   1   82.07   14.44
  -1 -10  -1   94.98   15.89
  -1 -10   1   66.93   13.15
  -1 -10   2   52.58   13.03
   1 -10  -2   42.28   10.31
   1 -10   2   30.22    9.08
  -1 -10  -2   58.73   12.43
  -1 -10   3  162.57   21.21
   1 -10   3  179.17   21.23
  -1 -10  -3  207.64   24.38
   1 -10  -3  223.04   23.39
   1 -10  -4   14.19    6.30
  -1 -10  -4   12.32    5.37
   1 -10   4   11.45    5.87
  -1 -10   4   10.47    5.75
  -1 -10  -5  157.74   20.79
   1 -10  -5  175.87   21.32
  -1 -10   5  203.44   23.95
   1 -10   5  213.88   24.66
   1 -10  -6  184.41   22.12
   1 -10   6  139.54   20.41
  -1 -10   6  200.86   23.63
  -1 -10  -6  152.16   21.02
  -1 -10   7  129.97   19.68
   1 -10   7   93.53   16.35
  -1 -10  -7   90.28   16.36
   1 -10  -7   92.30   16.08
  -1 -10   8   82.40   16.99
  -1 -10  -8   74.05   14.44
   1 -10  -8   88.75   15.59
  -1 -10  -9   53.43   12.47
   1 -10  -9   52.33   12.56
   1 -10 -10  341.46   32.46
  -1 -10 -10  296.83   30.89
   1 -10 -11   12.94    5.45
  -1 -10 -11   17.79    7.75
  -1  10 -11   31.77    9.89
  -1 -10 -12   64.71   15.66
   1 -10 -12   94.93   16.58
  -1  10 -12   53.16   12.48
  -1 -10 -13   57.13   12.84
   1  10 -13   33.41    9.67
  -1  10 -13   42.61   12.29
   1 -10 -13   55.64   13.25
  -1 -10 -14    3.04    5.89
   1 -10 -14   -1.54    6.51
   1  10 -14    2.40    5.19
  -1  10 -14    4.25    1.00
   1  10 -15    0.89    4.03
  -1 -10 -15    2.94    2.87
   1 -10 -15    1.02    2.06
  -1  10 -15    1.28    1.73
  -1  10 -16   70.98   15.40
   1 -10 -16   84.73   17.87
  -1 -10 -16  106.32   19.69
   1  10 -16  104.71   18.80
  -1 -10 -17   18.84    7.82
   1  10 -17   12.19    8.28
   1 -10 -17   11.38    4.92
  -1  10 -17   16.31    7.75
  -1 -10 -18    1.07    4.16
   1  10 -18   11.50    7.12
  -1  10 -18    7.57    5.74
   1 -10 -18    4.75    4.33
  -1 -10 -19   -0.05    4.86
   1 -10 -19   -3.30    2.46
  -1  10 -19    1.51    2.31
   1  10 -19    4.68    2.87
   1  10 -20  117.91   21.48
   1 -10 -20  113.05   21.16
  -1 -10 -20  144.31   24.53
  -1  10 -20   71.99   15.93
   1  10 -21    2.30    5.72
  -1  10 -21    3.32    3.22
   1 -10 -21   -3.77    5.30
  -1 -10 -21    3.21    4.10
  -1  10 -22    8.01    2.37
  -1 -10 -22   14.00    9.12
   1  10 -22    5.01    2.38
   1 -10 -22   17.91    8.46
   1 -10 -23   -3.79    7.05
   1  10 -23   -4.24    1.80
  -1 -10 -23    3.72    4.46
  -1  10 -23    0.08    2.16
  -1  10 -24   24.49    9.54
  -1 -10 -24   25.88    8.64
   1 -10 -24   20.80   11.24
   1  10 -24   24.20   10.62
  -1 -10 -25    1.08    4.87
   1  10 -25   -2.37    1.41
  -1  10 -25   -4.32    2.61
   1  10 -26   20.22   10.16
  -1  10 -26    0.65    6.34
  -1 -10 -26    5.63   10.33
  -1 -11   0    1.39    5.81
   1 -11   0   -0.42    2.50
   1 -11   1    3.25    3.58
   1 -11  -1   -1.36    2.57
  -1 -11  -1    2.64    3.24
  -1 -11   1   -0.17    3.31
  -1 -11  -2    5.90    5.24
  -1 -11   2    2.51    1.81
   1 -11   2    4.62    0.62
   1 -11  -2    5.42    3.68
  -1 -11   3   22.02    8.55
   1 -11  -3   46.40   11.49
  -1 -11  -3   42.22   10.38
   1 -11   3   42.39   11.16
   1 -11  -4   34.91    9.61
  -1 -11   4   42.38   11.35
  -1 -11  -4   35.19   10.50
   1 -11   4   33.55   10.00
   1 -11   5    0.04    2.65
  -1 -11  -5    0.80    1.21
   1 -11  -5    0.24    3.28
  -1 -11   5   -0.23    2.66
  -1 -11   6    1.60    5.35
   1 -11   6    0.76    2.67
  -1 -11  -6   -0.04    3.20
   1 -11  -6    3.94    3.91
  -1 -11   7   38.29   11.02
   1 -11   7   22.55    9.32
   1 -11  -7   20.44    8.05
  -1 -11  -7   27.63    8.59
  -1 -11  -8  145.20   22.01
  -1 -11   8  116.72   19.87
   1 -11   8  139.86   21.52
   1 -11  -8  136.07   20.11
  -1 -11  -9   10.67    7.67
   1 -11  -9   16.99    8.55
  -1 -11   9    0.97    4.46
   1 -11   9    6.46    4.78
  -1 -11  10  151.11   23.05
   1 -11 -10  199.71   26.23
  -1 -11 -10  188.06   24.46
   1 -11 -11   14.40    6.68
  -1 -11 -11   18.62    9.72
  -1 -11 -12   38.96   11.38
   1 -11 -12   37.19   11.13
   1 -11 -13    3.19    5.55
  -1  11 -13    1.89    0.75
  -1 -11 -13    0.45    1.89
  -1 -11 -14    0.17    5.07
  -1  11 -14   -6.86    6.65
   1 -11 -14    7.49    7.33
  -1 -11 -15   -1.62    3.60
   1 -11 -15    2.13    4.04
  -1  11 -15    4.70    5.61
  -1 -11 -16   10.17    8.13
   1 -11 -16    9.27    7.75
   1  11 -16    4.82    5.45
  -1  11 -16   10.42    6.89
   1  11 -17   11.36    6.34
  -1 -11 -17    4.74    4.36
  -1  11 -17   13.18    5.53
   1 -11 -17   12.82    9.69
   1  11 -18    4.33    3.20
  -1  11 -18    0.32    3.36
  -1 -11 -18    0.06    1.73
   1 -11 -18   -2.69    5.61
  -1  11 -19   12.07    7.21
   1  11 -19    4.68    2.39
   1 -11 -19   15.47    9.42
   1  11 -20    7.67    3.43
  -1 -11 -20   11.24    6.64
   1 -11 -20   -2.42    6.63
  -1  11 -20   18.17    8.61
   1  11 -21   12.41    6.54
   1 -11 -21    3.95    1.98
  -1  11 -21   11.04    7.59
  -1 -11 -21    0.42    1.95
  -1 -11 -22    2.98    3.71
  -1  11 -22    1.54    4.03
   1  11 -22   -3.88    6.48
  -1  11 -23  -10.68    9.65
  -1 -11 -23    1.40    3.70
   1  11 -23    6.32    6.93
  -1  11 -24   -7.17    8.21
  -1 -11 -24   -2.14    2.22
   1  11 -24   -3.67    6.64
   1 -12   0    6.77    6.87
  -1 -12   0    1.29    4.28
   1 -12   1    1.13    1.93
  -1 -12   1   -1.77    4.49
   1 -12  -1    1.66    2.04
  -1 -12  -1    7.43    6.86
  -1 -12  -2   41.55   11.88
   1 -12  -2   41.73   10.70
   1 -12   2   46.86   12.09
  -1 -12   2   43.62   11.50
   1 -12   3    9.96    6.04
  -1 -12  -3   16.73    7.72
  -1 -12   3    9.52    6.91
   1 -12  -3   10.90    5.93
   1 -12  -4   -0.69    3.62
  -1 -12   4    0.27    4.85
   1 -12   4   -0.76    0.89
  -1 -12  -4   -1.83    1.24
   1 -12  -5   -2.33    3.08
  -1 -12  -5    0.07    4.71
   1 -12   5   -0.83    0.76
  -1 -12   5    5.94    5.06
  -1 -12  -6    9.86    7.58
   1 -12  -6   13.37    7.97
  -1 -12   6    8.11    6.89
  -1 -12  -7   18.19    8.34
  -1 -12   7   15.92    7.82
   1 -12  -7   19.80    8.48
   1 -12   7    7.95    5.15
  -1 -12   8   20.57    6.48
   1 -12  -8   24.77   10.75
   1 -12   8   27.34    9.09
  -1 -12  -8   22.35   10.50
  -1 -12   9   80.56   16.55
   1 -12  -9   65.99   14.51
  -1 -12  -9   28.69    9.23
   1 -12   9   77.79   16.23
   1 -12 -10    0.29    4.59
   1 -12  10    8.27    6.74
  -1 -12 -10   15.26    7.40
  -1 -12  10   10.91    6.31
   1 -12 -11    0.31    2.82
  -1 -12 -11    7.20    7.09
   1 -12  11    8.80    6.37
  -1 -12  11   -2.78    4.22
   1 -12 -12    8.92    4.83
  -1 -12 -12   15.14   10.50
  -1 -12  12    5.19    5.55
   1 -12 -13   73.94   17.71
  -1 -12 -13   65.91   14.60
  -1 -12 -14    1.94    3.47
   1 -12 -14   -2.51    2.37
   1 -12 -15   -1.33    4.53
  -1 -12 -15    2.10    4.53
  -1 -12 -16   37.04   10.90
  -1  12 -16   40.67   10.71
   1 -12 -16   48.06   15.24
   1 -12 -17   11.93    5.98
  -1 -12 -17    5.86    5.51
  -1  12 -17   26.12   11.75
   1 -12 -18    8.37    8.71
  -1  12 -18   19.44   10.91
  -1 -12 -18   12.80    6.07
   1  12 -19   22.44    8.25
  -1  12 -19   35.69   11.45
  -1 -12 -19   47.39   14.17
   1  12 -20    3.92    5.16
  -1 -12 -20    2.98    6.98
  -1  12 -20    1.77    6.51
   1  12 -21    2.16    5.00
  -1  12 -21    0.82    4.10
  -1 -12 -21    4.53    5.46
  -1 -12 -22    4.36    8.62
   1  12 -22   -1.02    2.69
  -1  12 -22   -0.06    4.98
   1 -13   0    1.71    3.26
  -1 -13   0   -1.17    2.19
   1 -13  -1    8.66    6.24
  -1 -13  -1   20.41    9.80
   1 -13   1    3.27    3.29
  -1 -13   1   27.34    9.91
   1 -13   2    7.12    4.24
   1 -13  -2   26.37    9.93
  -1 -13  -2   13.07    4.79
  -1 -13   2    9.56    6.62
   1 -13  -3   20.16    9.15
  -1 -13   3   13.00    7.54
  -1 -13  -3   10.87    6.18
   1 -13   3   18.97    7.81
   1 -13  -4   19.16   10.75
  -1 -13   4   15.46    7.40
   1 -13   4   13.81    6.69
  -1 -13  -4   35.63   10.93
   1 -13  -5    1.44    1.91
  -1 -13  -5    0.70    2.56
  -1 -13   5   -0.53    1.68
   1 -13   5   -0.87    2.13
  -1 -13   6    0.33    4.54
   1 -13   6    1.31    3.33
  -1 -13  -6    4.74    2.25
   1 -13  -6   -3.08    3.80
  -1 -13  -7   10.55    5.44
  -1 -13   7   -4.60    5.06
   1 -13  -7    1.13    3.61
   1 -13   7   13.72    9.00
   1 -13  -8   -3.42    5.92
   1 -13   8    0.56    2.61
  -1 -13  -8   -3.61    3.05
  -1 -13   8    3.46    4.09
   1 -13  -9   24.34   10.48
  -1 -13  -9   31.25   12.00
  -1 -13   9   43.55   12.14
   1 -13   9   61.97   14.45
   1 -13  10    2.47    0.60
   1 -13 -10    0.40    3.81
  -1 -13 -10   -1.05    0.44
   1 -13 -11   -1.63    7.85
   1 -13  11    0.84    5.94
  -1 -13 -11    4.00    5.72
  -1 -13  11    2.66    2.82
   1 -13  12   21.49    9.56
   1 -13 -12   12.70    9.60
  -1 -13 -12   10.07    5.95
  -1 -13  12   11.24    7.51
  -1 -13 -13    3.63    6.51
   1 -13 -13    1.33    5.82
  -1 -13  13    1.89    3.36
   1 -13  13    2.70    5.09
  -1 -13  14   11.83    7.34
  -1 -13 -14   10.56    8.89
   1 -13 -14   13.30    7.72
  -1 -13  15   31.56   11.80
  -1 -13 -15   51.72   14.49
  -1 -13  16    2.39    7.42
  -1 -13 -16    0.86    4.95
  -1 -13 -17    6.13    8.78
  -1 -13 -18    2.23    6.70
  -1 -13 -19    1.34    5.79
  -1  13 -20    0.22    3.49
  -1 -13 -20   -0.03    4.35
  -1 -14   0   -1.10    2.09
   1 -14   0   -1.50    1.87
   1 -14   1    3.41    5.67
   1 -14  -1    0.72    1.80
  -1 -14  -1   10.11    5.90
  -1 -14   1   14.51    7.19
  -1 -14  -2    2.72    3.53
   1 -14  -2   15.74    8.18
   1 -14   2    6.19    7.44
  -1 -14   2   10.38    7.89
   1 -14   3   -0.81    2.84
  -1 -14  -3   12.44    8.10
  -1 -14   3   15.63    8.39
   1 -14  -3    7.56    5.18
  -1 -14   4   -0.52    1.67
   1 -14  -4    1.72    1.97
  -1 -14  -4    2.84    3.68
   1 -14   4    1.36    3.39
   1 -14   5   35.55   11.27
  -1 -14  -5   30.42    9.14
  -1 -14   5   24.39    9.02
   1 -14  -5   43.99   13.56
   1 -14   6   35.12    9.84
  -1 -14   6   61.61   16.67
  -1 -14  -6   38.92   10.79
   1 -14  -6   38.70   12.05
   1 -14   7    1.57    7.46
  -1 -14   7   -0.87    3.00
   1 -14  -7    1.09    6.30
  -1 -14  -7    3.56    5.02
  -1 -14  -8   -5.15    7.70
   1 -14  -8   -3.92    7.51
   1 -14   8    5.75    6.10
  -1 -14   8   16.29    8.44
   1 -14   9    8.39    5.39
  -1 -14  -9   19.77   10.22
  -1 -14   9   -1.49    3.69
   1 -14  -9   17.04    7.89
  -1 -14  10   41.52   12.97
  -1 -14 -10   23.05   10.26
   1 -14  10   19.09    9.20
   1 -14 -10   18.95   11.07
   1 -14 -11    5.83    7.09
  -1 -14 -11    0.60    2.42
   1 -14  11    0.08    1.69
  -1 -14  11    2.56    3.38
  -1 -14 -12   18.44    9.75
  -1 -14  12    5.85    3.13
   1 -14  12    3.43    7.42
   1 -14  13    7.79    2.74
  -1 -14  13   13.18    7.18
  -1 -14 -13   13.32    8.05
  -1 -14  14    4.12    4.90
  -1 -14 -14   10.00    4.25
   1 -14  14   12.12    9.09
   1 -14  15   17.63    7.01
  -1 -14  15   30.81   10.97
  -1 -14 -15   32.07   12.15
  -1 -14 -16   30.67   13.21
   1 -14  16   36.20   12.89
  -1 -14  16   31.65   11.40
   1 -14  17    8.39    3.26
  -1 -14 -17    2.14    6.55
  -1 -14  17   10.82    7.85
  -1 -15   0    3.85    5.56
   1 -15   0   -3.43    6.12
   1 -15  -1   -0.25    4.59
  -1 -15  -1    5.91    4.07
   1 -15   1    2.33    1.36
   1 -15   2   20.00    9.76
   1 -15  -2   33.54   13.08
  -1 -15  -2   27.37   11.69
  -1 -15   2   23.88    9.12
   1 -15   3   -2.41    3.64
   1 -15  -3    0.03    2.31
  -1 -15  -3    0.83    2.89
  -1 -15   3    8.29    5.76
  -1 -15  -4    9.31    8.79
   1 -15   4    2.42    1.67
  -1 -15   4   14.33    8.80
   1 -15  -4    6.44    4.80
  -1 -15   5    1.89    5.16
   1 -15  -5    3.67    0.33
  -1 -15  -5    7.35    7.14
   1 -15   5    1.32    3.41
  -1 -15  -6    8.85    5.26
   1 -15   6   12.58    7.60
  -1 -15   6   12.89    7.36
   1 -15   7   13.82    8.22
  -1 -15  -7    7.60    7.63
  -1 -15   7   14.03    8.26
  -1 -15   8   -0.79    3.92
  -1 -15  -8    8.02    4.75
   1 -15   8    0.03    4.28
   1 -15   9    4.11    4.64
  -1 -15   9    2.07    5.63
  -1 -15 -10   17.75   10.01
  -1 -15  10   16.43    9.78
   1 -15  10   13.65    7.64
   1 -15  11   -1.28    1.43
  -1 -15 -11    1.60    5.57
  -1 -15  11    1.46    2.58
  -1 -15  12   15.44    7.06
  -1 -15 -12    9.02   10.46
   1 -15  12    1.53    2.58
  -1 -15 -13   -1.41    6.88
   1 -15  13    0.59    2.43
  -1 -15  13   -3.51    5.89
  -1 -15 -14   15.46   11.67
  -1 -15  14   -1.89    1.86
   1 -15  14    8.67    8.98
  -1 -16   0    7.68    6.33
   1 -16   0   -1.88    3.17
   1 -16  -1   -1.91    6.57
  -1 -16  -1   -0.62    3.41
   1 -16   1   -2.73    5.76
  -1 -16   1    0.36    1.68
  -1 -16  -2   58.08   15.68
   1 -16   2   54.28   15.60
  -1 -16   2   41.65   13.41
  -1 -16   3    0.51    3.95
   1 -16   3    0.90    0.34
  -1 -16  -3   -3.63    4.51
  -1 -16   4   -1.78    4.59
   1 -16   4    0.68    2.63
  -1 -16   5   20.32    9.58
   1 -16   5   13.60    9.63
  -1 -16  -5   13.40    7.75
  -1 -16  -6    0.99    2.98
   1 -16   6    0.53    4.58
  -1 -16   6   -6.63    6.63
  -1 -16  -7   -1.25    2.21
   1 -16   7    1.14    1.91
  -1 -16   7    3.85    3.30
  -1 -16   8   -0.03    3.00
   1 -16   8    1.78    5.87
  -1 -16  -9    5.77    2.22
  -1 -16   9    0.14    6.58
  -2   0   0  705.42   15.58
  -2   0   1    0.76    0.55
  -2   0  -1   -0.41    0.38
  -2   0  -2 5056.75   52.99
   2   0  -3    0.80    0.22
  -2   0  -3    1.06    1.27
   2   0  -4 2412.08   36.78
  -2   0  -4 2993.10   50.04
   2   0  -5   -0.68    0.87
  -2   0  -5    0.87    1.60
   2   0  -6  533.33   21.63
  -2   0  -6  472.16   22.80
   2   0  -7    0.26    1.22
  -2   0  -7   -1.89    2.92
  -2   0  -8 1931.01   54.75
   2   0  -8 1690.57   43.43
  -2   0  -9   -0.25    0.52
   2   0  -9   -1.06    2.38
  -2   0 -10 4750.21   91.58
   2   0 -10 4870.06   83.94
   2   0 -11    0.06    1.44
  -2   0 -11    2.63    2.16
  -2   0 -12  982.87   44.28
   2   0 -12  806.98   38.99
   2   0 -13    2.39    1.53
  -2   0 -13   -2.26    0.88
  -2   0 -14 1217.43   51.56
   2   0 -14 1121.40   49.34
  -2   0 -15   -1.70    4.71
   2   0 -15    4.31    5.94
   2   0 -16   50.95   10.90
  -2   0 -16   38.63   10.37
   2   0 -17   -3.47    2.87
  -2   0 -17   -0.60    4.80
  -2   0 -18  141.50   20.40
   2   0 -18  149.38   19.94
  -2   0 -19    2.83    5.69
   2   0 -19    3.05    1.96
   2   0 -20   29.69    8.44
  -2   0 -20   52.92   13.11
  -2   0 -21    0.96    2.86
   2   0 -21    4.81    7.14
  -2   0 -22   -0.07    3.66
   2   0 -22    6.33    5.95
  -2   0 -23   -1.58    4.74
   2   0 -23    7.10    3.70
  -2   0 -24    5.11    5.46
   2   0 -24   18.98    9.19
   2   0 -25   -0.91    1.34
  -2   0 -25   -1.70    3.78
   2   0 -26   43.14   14.25
  -2   0 -26   45.23   13.20
  -2   0 -27    5.15    0.71
   2   0 -27    1.57    3.36
  -2   0 -28    4.96    3.62
   2   0 -28   20.32   12.22
   2   0 -29    8.22    9.92
  -2   0 -29   -0.98    3.36
   2   0 -30    6.65    3.84
  -2   0 -30   13.58    7.59
  -2   0 -31   10.27    7.76
   2   0 -31    5.15    7.74
  -2   0 -32   34.26   13.20
   2   0 -32   26.90   10.52
  -2  -1   0 6928.77   63.35
  -2  -1  -1 6236.51   63.69
  -2   1  -1 6317.15   45.77
  -2   1  -2   48.11    4.69
  -2  -1  -2   48.23    5.80
  -2   1  -3 2405.86   38.34
   2  -1  -3 2573.08   27.94
   2  -1   3 2603.01   35.35
  -2  -1  -3 2541.16   46.57
   2   1  -3 2473.23   42.33
   2  -1  -4 2702.14   35.27
   2   1  -4 2712.54   45.95
  -2  -1  -4 2656.81   50.97
   2  -1  -5   14.81    2.92
  -2   1  -5    9.26    2.96
  -2  -1  -5   12.97    3.99
   2   1  -5    9.20    2.27
   2   1  -6   12.81    3.64
  -2  -1  -6   12.62    3.56
   2  -1  -6    9.52    2.66
  -2   1  -6   12.85    3.68
  -2  -1  -7  104.13   11.69
   2  -1  -7  116.18   10.34
   2   1  -7   92.96   10.20
   2  -1  -8 1207.01   36.89
  -2   1  -8 1080.12   37.85
  -2  -1  -8 1143.82   42.35
   2   1  -8 1160.51   38.21
   2   1  -9    6.44    3.70
  -2   1  -9    2.50    2.42
   2  -1  -9    4.30    2.80
  -2  -1  -9    1.66    2.89
   2  -1 -10  600.28   28.95
  -2  -1 -10  592.65   31.28
   2   1 -10  571.26   30.09
  -2   1 -10  555.75   30.44
   2  -1 -11   -0.31    1.24
  -2   1 -11    0.97    3.02
   2   1 -11    0.47    1.34
  -2  -1 -11   -1.57    1.93
   2  -1 -12 1531.22   51.89
  -2  -1 -12 1731.54   60.13
   2   1 -12 1671.08   55.91
   2  -1 -13    4.52    4.13
  -2   1 -13    1.80    0.38
  -2  -1 -13   -1.93    2.45
   2   1 -14  892.54   43.71
  -2   1 -14  812.91   43.33
  -2  -1 -14  822.37   44.21
  -2   1 -15  372.71   29.64
  -2  -1 -15  433.60   32.87
   2  -1 -15  385.51   29.20
   2   1 -15  341.97   28.34
  -2  -1 -16   67.30   13.65
   2   1 -16   70.69   13.58
  -2   1 -16   72.58   13.34
   2  -1 -16   50.44   11.03
  -2   1 -17   51.79   12.05
  -2  -1 -17   59.93   12.89
   2  -1 -17   41.08   10.33
   2   1 -17   38.61    9.59
  -2   1 -18 1000.93   53.11
  -2  -1 -18  949.52   52.28
   2  -1 -18  872.09   49.26
   2   1 -18  984.72   52.31
   2  -1 -19    2.01    1.81
  -2   1 -19    0.14    4.34
  -2  -1 -19    1.34    1.52
   2   1 -19    5.64    5.00
  -2   1 -20   25.14    9.56
   2   1 -20   59.54   13.09
  -2  -1 -20   48.15   12.85
   2  -1 -20   78.83   16.11
   2  -1 -21   36.91   11.45
  -2   1 -21   26.59    8.84
  -2  -1 -21   50.46   12.97
   2   1 -21   48.04   12.54
  -2  -1 -22  194.68   25.65
   2   1 -22  137.99   21.74
  -2   1 -22  161.40   23.05
   2  -1 -22  170.93   23.84
   2   1 -23   27.64   10.32
   2  -1 -23   29.51   10.28
  -2  -1 -23   44.20   12.14
  -2   1 -23   32.95   11.31
  -2  -1 -24   16.60    9.75
   2  -1 -24   29.02   10.83
  -2   1 -24   17.94    8.65
   2   1 -24   14.68    8.61
   2   1 -25   88.43   18.60
  -2  -1 -25   71.37   16.52
   2  -1 -25   77.64   16.72
  -2   1 -25   88.37   19.19
  -2  -1 -26  245.77   30.96
   2   1 -26  209.29   28.71
   2  -1 -26  208.63   28.43
  -2   1 -26  202.83   28.28
   2   1 -27   19.32    9.72
  -2   1 -27   24.31   10.46
   2  -1 -27   10.97    4.97
  -2  -1 -28  227.73   29.87
  -2   1 -28  256.36   33.28
   2   1 -28  170.54   26.46
   2  -1 -28  145.18   24.29
  -2   1 -29   79.50   17.88
  -2  -1 -29   78.21   17.95
   2  -1 -29   86.17   19.32
   2   1 -29   95.70   20.03
   2   1 -30    8.75    6.69
   2  -1 -30   14.23    7.72
  -2  -1 -30   17.39    9.88
  -2  -1 -31    7.98    7.55
   2   1 -31    2.74    5.46
   2  -1 -31   13.27    8.53
  -2   1 -31    6.89    5.58
   2  -1 -32   27.99   10.63
  -2   1 -32   21.63   10.67
   2   1 -32   23.42    7.53
  -2  -1 -32   44.29   15.30
  -2  -2   0 1554.83   35.74
  -2   2   0 1667.56   22.09
  -2   2  -1  211.53    8.99
  -2  -2   1  187.11   11.92
  -2  -2  -1  201.26   13.25
  -2  -2  -2   -0.78    0.65
  -2   2  -2    1.42    1.05
  -2  -2   2   -0.65    0.78
   2  -2  -3 3558.63   34.79
   2   2  -3 3520.04   55.93
  -2  -2  -4 2291.25   50.16
   2   2  -4 2309.94   49.46
  -2   2  -4 2180.82   44.32
  -2  -2  -5 1732.92   45.56
   2   2  -5 1717.21   42.44
   2  -2   6  450.92   20.84
   2   2  -6  424.21   21.98
  -2  -2  -6  496.51   26.22
  -2   2  -6  511.69   24.39
   2   2  -7  589.46   27.59
  -2   2  -7  580.16   27.35
   2  -2  -8    1.31    1.99
  -2   2  -8    1.80    3.41
  -2  -2  -8    3.60    0.45
   2   2  -8    2.26    2.69
   2  -2  -9   30.20    6.25
  -2   2  -9   20.00    5.95
  -2  -2  -9   39.46    7.99
   2   2  -9   28.44    7.43
  -2  -2 -10    9.26    2.63
  -2   2 -10    8.35    4.49
   2  -2 -10   15.39    4.90
   2  -2 -11  426.57   25.54
  -2  -2 -11  407.89   29.09
   2   2 -11  456.33   28.41
  -2   2 -11  471.12   30.02
   2   2 -12    4.50    2.80
  -2   2 -12   10.57    4.38
   2  -2 -12    6.38    3.48
  -2  -2 -12    7.61    4.63
   2  -2 -13 1317.14   49.36
  -2  -2 -13 1358.64   54.05
   2   2 -13 1373.16   53.04
  -2  -2 -14    5.52    3.65
   2  -2 -14    4.34    4.37
   2   2 -14    8.29    5.43
  -2   2 -14    9.33    4.62
   2   2 -15    7.86    5.14
  -2   2 -15   26.85    8.06
   2  -2 -15   30.39    7.93
  -2  -2 -15   16.75    9.44
  -2  -2 -16  104.81   17.71
   2  -2 -16   78.61   13.56
   2   2 -16   79.09   13.94
  -2   2 -16   92.15   15.19
  -2  -2 -17    2.71    5.85
  -2   2 -17   -1.58    4.32
   2   2 -17    4.02    5.53
   2  -2 -17    0.10    3.00
   2   2 -18   23.50    8.16
   2  -2 -18   34.05   10.50
  -2  -2 -18   36.80   11.46
  -2   2 -18   23.33    7.36
  -2  -2 -19   52.29   12.83
  -2   2 -19   56.02   14.29
   2  -2 -19   42.80   11.24
   2   2 -19   78.52   15.34
  -2  -2 -20    3.99    5.52
   2   2 -20   -1.97    4.98
   2  -2 -20    3.19    2.73
  -2   2 -20    4.60    0.52
   2  -2 -21   73.52   14.61
  -2  -2 -21   68.18   15.05
   2   2 -21   49.23   11.60
  -2   2 -21   51.71   13.15
   2   2 -22   32.46   10.01
  -2   2 -22   56.33   13.98
   2  -2 -22   38.35   10.74
  -2  -2 -22   42.98   13.82
   2   2 -23   -0.56    3.60
  -2   2 -23    1.90    5.01
   2  -2 -23    6.50    5.23
  -2  -2 -23   -0.81    1.64
  -2   2 -24   13.79    5.73
   2   2 -24   10.83    3.39
  -2  -2 -24    5.25    7.68
   2  -2 -24    4.09    3.53
   2  -2 -25    5.84    8.53
   2   2 -25   -2.27    3.34
  -2   2 -25   -3.71    1.67
  -2  -2 -25   -0.92    3.47
   2   2 -26   11.43    7.23
  -2   2 -26    3.95    4.64
  -2  -2 -26    9.09    5.57
   2   2 -27   15.77    7.68
  -2   2 -27   15.13    6.62
  -2  -2 -27   11.26    8.02
   2  -2 -27   14.50    6.78
  -2  -2 -28   -2.08    5.82
  -2   2 -28    3.72    3.51
   2  -2 -28    3.73    7.52
   2   2 -28    3.67    5.12
   2   2 -29   27.71   11.10
  -2   2 -29   11.01    6.62
   2  -2 -29   16.02    6.21
  -2  -2 -29   37.06   12.53
   2   2 -30    8.54    5.55
  -2   2 -30   -2.04    5.06
  -2  -2 -30   -1.94    5.58
   2  -2 -30   -4.25    5.24
   2   2 -31    4.51    6.67
   2  -2 -31    7.84    6.63
  -2   2 -31   15.50    1.94
  -2  -2 -31    6.80    6.75
   2   2 -32   -2.54    4.52
  -2   2 -32    4.59    4.68
  -2  -2 -32   -0.79    3.47
   2  -2 -32   -0.38    4.53
  -2  -3   0  937.29   33.05
  -2   3  -1  381.18   15.37
  -2  -3  -1  437.91   21.92
  -2  -3   1  389.01   19.90
  -2  -3   2   11.91    3.25
  -2   3  -2    9.88    2.82
   2  -3  -2   15.14    2.58
  -2   3  -3  123.70   10.09
  -2  -3  -3   90.50   10.21
  -2  -3   3  105.84   10.64
   2  -3  -3  137.49    8.59
   2  -3  -4   16.91    3.13
  -2  -3   4   17.83    4.53
  -2   3  -4   15.38    3.49
  -2  -3  -4   18.18    4.18
   2   3  -5  146.60   13.86
  -2   3  -5  123.24   11.74
  -2  -3  -5  151.63   14.31
  -2   3  -6  236.77   17.27
   2  -3   6  225.63   16.71
   2  -3  -6  233.05   14.31
   2   3  -6  293.76   19.86
  -2  -3  -6  258.15   19.42
  -2  -3  -7   32.85    7.03
   2  -3  -7   31.15    5.89
  -2   3  -7   33.48    6.53
   2   3  -7   22.92    5.96
   2  -3   7   46.88    7.61
   2   3  -8  604.84   30.49
   2  -3  -8  433.09   21.84
  -2  -3  -8  686.26   34.94
  -2   3  -8  532.74   29.57
   2  -3   8  419.16   23.75
  -2  -3  -9  314.31   23.83
   2   3  -9  340.77   24.02
  -2   3  -9  374.85   24.65
   2  -3  -9  345.93   22.25
   2  -3 -10  130.65   14.55
   2   3 -10  103.00   13.61
  -2   3 -10  131.24   14.99
   2  -3 -11  359.23   25.16
   2   3 -11  385.00   26.70
  -2  -3 -11  353.06   26.48
  -2   3 -11  413.83   27.91
  -2   3 -12   -0.40    2.45
   2   3 -12    3.98    1.33
  -2  -3 -12    3.70    4.15
   2  -3 -12   -0.48    2.19
  -2  -3 -13   87.33   14.57
   2  -3 -13   77.08   12.23
  -2   3 -13   76.55   12.76
   2   3 -13   73.23   12.60
  -2   3 -14    4.96    2.95
  -2  -3 -14    0.40    2.25
   2  -3 -14    6.76    3.57
   2   3 -14    0.10    3.36
   2  -3 -15   82.06   13.09
  -2  -3 -15   77.71   13.46
  -2   3 -15   66.84   12.82
   2   3 -15   77.55   13.81
   2   3 -16   -0.66    1.24
   2  -3 -16    5.93    5.44
  -2  -3 -16   -2.65    1.75
  -2   3 -16    3.94    4.91
   2  -3 -17  317.14   28.49
   2   3 -17  256.99   26.73
  -2   3 -17  326.61   30.05
   2  -3 -18   85.20   15.50
  -2  -3 -18   85.33   16.83
  -2   3 -18  101.63   17.18
   2   3 -18   96.46   16.56
  -2  -3 -19  189.93   24.92
   2   3 -19  157.46   23.34
   2  -3 -19  183.31   23.31
  -2   3 -19  127.00   19.29
  -2   3 -20   39.02   11.37
   2  -3 -20   19.41    7.00
  -2  -3 -20   28.35   10.82
   2   3 -20   41.03   11.26
   2   3 -21   11.09    5.55
  -2   3 -21    8.65    5.74
   2  -3 -21    7.58    6.51
  -2  -3 -21   -0.02    4.42
   2   3 -22   45.72   12.18
  -2   3 -22   43.75   12.87
  -2  -3 -22   42.57   12.56
   2  -3 -22   37.36   10.57
  -2   3 -23   -1.99    3.65
   2  -3 -23    3.65    2.89
   2   3 -23    0.41    1.30
  -2  -3 -23   -0.28    3.02
   2  -3 -24    0.20    3.78
  -2  -3 -24    8.34    6.62
  -2   3 -24   10.79    8.62
   2   3 -24    9.89    5.73
   2  -3 -25  112.44   20.84
  -2  -3 -25   96.06   18.50
   2   3 -25  111.24   20.13
   2   3 -26   -4.13    5.00
  -2   3 -26    6.52    6.62
   2  -3 -26    3.95    1.13
  -2  -3 -26    3.26    5.16
   2  -3 -27   11.04    5.96
  -2   3 -27    6.79    5.65
  -2  -3 -27    5.11    6.78
   2   3 -27   17.25    8.01
   2  -3 -28   19.67   10.13
  -2   3 -28   22.54    9.88
  -2  -3 -28   17.36    7.24
   2   3 -28   18.68    8.13
   2   3 -29   63.80   15.64
  -2   3 -29  103.86   21.11
   2  -3 -29   65.88   15.58
  -2  -3 -29  102.34   19.84
   2   3 -30    5.61    3.69
   2  -3 -30    7.49    5.73
  -2  -3 -30    9.69    8.07
  -2   3 -30    8.17    6.02
   2   3 -31   53.21   14.77
   2  -3 -31   40.82   13.66
  -2  -3 -31   52.95   15.68
  -2   3 -31   58.25   16.69
   2  -4   0    6.14    2.53
  -2  -4   0    3.07    3.23
   2  -4  -1    2.37    1.58
  -2  -4  -1    4.47    2.60
  -2  -4   1    1.92    2.75
  -2  -4   2   91.22   11.22
  -2  -4  -2   97.86   11.43
   2  -4  -2   81.95    7.74
  -2   4  -2  102.87   10.13
  -2   4  -3  132.98   11.75
  -2  -4  -3  100.81   12.02
  -2  -4   3  145.90   15.21
   2  -4  -3  100.29    8.90
  -2   4  -4  337.38   19.58
   2  -4  -4  304.62   15.97
  -2  -4  -5   36.82    7.53
   2  -4  -5   40.53    6.36
  -2   4  -5   27.54    5.73
   2   4  -5   46.99    8.79
  -2  -4   5   29.16    7.36
  -2   4  -6  546.37   27.43
   2   4  -6  527.23   29.65
  -2  -4   6  645.12   30.49
   2  -4  -6  675.77   28.23
  -2  -4  -6  483.36   28.14
   2  -4  -7  264.59   17.78
  -2   4  -7  255.88   19.75
   2   4  -7  309.72   22.85
  -2  -4  -7  293.60   22.91
  -2  -4   8  711.03   34.05
   2  -4  -8  789.68   32.08
   2  -4   8  657.10   33.03
   2   4  -8  725.57   35.58
   2  -4  -9  182.66   16.07
  -2  -4  -9  169.64   17.41
  -2   4  -9  170.05   16.85
   2  -4   9  164.29   17.15
   2   4  -9  174.55   18.32
   2  -4 -10  308.93   21.41
  -2  -4 -10  320.20   25.83
   2   4 -10  361.03   26.68
  -2   4 -10  312.22   24.68
   2  -4 -11    0.98    1.68
  -2  -4 -11    5.19    5.64
  -2   4 -11    2.77    2.56
   2   4 -11    1.12    1.45
   2  -4  11    0.59    2.26
  -2  -4 -12   17.31    6.37
  -2   4 -12   10.94    4.84
   2  -4 -12   13.73    4.54
   2  -4  12   12.91    5.60
   2   4 -12   25.36    6.88
  -2   4 -13    7.92    5.17
   2  -4  13   10.82    5.14
   2   4 -13    6.70    3.80
  -2  -4 -13   13.07    5.56
   2  -4 -13   11.41    4.55
   2  -4 -14  102.96   15.66
   2   4 -14   79.98   14.04
   2  -4  14   78.20   13.17
  -2  -4 -14   87.65   15.32
  -2   4 -14   79.57   13.97
   2   4 -15  207.60   23.19
  -2  -4 -15  215.11   26.04
   2  -4 -15  237.68   24.66
   2   4 -16   48.91   11.07
  -2   4 -16   44.99   10.90
  -2  -4 -16   52.88   12.26
   2  -4 -16   46.84   10.85
  -2   4 -17    2.28    5.28
   2  -4 -17    5.91    5.18
   2   4 -17   -2.13    5.51
  -2  -4 -17   -1.45    3.80
  -2   4 -18   10.95    7.31
  -2  -4 -18    9.37    6.73
   2   4 -18    0.85    4.45
   2  -4 -18    0.84    1.19
   2   4 -19   -0.94    3.56
  -2  -4 -19    3.33    3.61
  -2   4 -19    5.65    6.82
   2  -4 -19   -0.95    3.64
  -2   4 -20   88.11   16.67
   2  -4 -20  103.03   17.85
  -2  -4 -20  107.26   18.75
   2   4 -20   80.87   16.34
   2   4 -21    8.93    7.21
  -2   4 -21    0.54    1.64
   2  -4 -21    6.56    5.19
  -2  -4 -21    0.42    3.16
  -2   4 -22   62.47   15.27
   2  -4 -22   42.38   12.30
  -2  -4 -22   55.82   14.63
   2   4 -22   35.90   11.61
   2   4 -23    4.12    4.26
  -2  -4 -23   12.34    7.20
  -2   4 -23    6.37    7.32
   2  -4 -23    3.48    4.67
   2   4 -24    5.52    2.05
  -2   4 -24   21.05    6.78
   2  -4 -24    8.78    7.03
  -2  -4 -24   14.65   10.52
   2  -4 -25   16.57    8.22
  -2   4 -25   14.92    8.69
   2   4 -25   38.87   11.88
  -2  -4 -25   11.28    5.04
  -2   4 -26   -1.96    5.55
   2  -4 -26    2.75    3.94
   2   4 -26   -2.29    5.79
  -2  -4 -26    1.70    2.89
   2   4 -27    7.10    5.99
  -2   4 -27    9.85    8.65
   2  -4 -27   15.14    5.12
  -2  -4 -27    5.13    3.38
   2   4 -28   26.65    9.62
  -2   4 -28   -0.86    5.39
   2  -4 -28    5.35    2.36
  -2  -4 -28   16.60    8.21
  -2   4 -29    4.89    6.95
  -2  -4 -29    1.87    5.24
   2   4 -29    5.11    6.72
   2  -4 -29   -3.62    3.88
  -2  -4 -30    0.12    1.45
   2   4 -30    1.37    1.99
   2  -4 -30    0.75    5.15
   2   4 -31    4.66   10.60
  -2   4 -31   -2.47    5.07
  -2  -4 -31   10.05    8.46
   2  -4 -31   -1.99    6.94
   2  -5   0 3368.26   60.22
  -2  -5   0 4156.17   82.18
   2  -5   1   19.53    4.83
  -2  -5   1   29.22    6.46
  -2  -5  -1   20.19    5.53
   2  -5  -1   20.14    5.03
  -2  -5  -2   85.17   11.54
   2  -5  -2   87.33    9.46
  -2  -5   2   99.04   12.24
  -2  -5  -3   87.10   11.94
  -2  -5   3   72.15   10.79
   2  -5  -3  102.32   10.57
  -2   5  -3   82.62   11.04
   2  -5  -4   47.51    7.20
  -2   5  -4   42.12    7.59
  -2  -5  -5  334.23   23.96
   2  -5  -5  336.22   19.43
  -2  -5  -6   50.08    9.38
   2  -5  -6   56.94    8.58
   2   5  -6   65.34   11.40
  -2   5  -6   70.97   10.74
  -2   5  -7  364.01   25.00
  -2  -5   7  452.15   29.07
   2  -5  -7  409.04   23.49
   2   5  -7  444.88   30.54
  -2  -5  -7  491.04   30.30
   2   5  -8 1327.86   52.25
   2  -5  -8 1227.23   42.52
  -2  -5   8 1281.76   49.65
  -2   5  -8 1208.16   46.20
  -2   5  -9    2.49    2.75
   2  -5  -9    3.55    2.53
   2   5  -9    7.54    4.39
  -2  -5  -9    4.70    3.78
  -2  -5   9    4.65    3.67
   2   5 -10  195.92   20.62
  -2  -5 -10  178.97   19.78
   2  -5 -10  211.16   19.51
   2  -5  10  237.25   21.83
  -2  -5  10  226.20   20.79
  -2   5 -10  193.30   19.73
   2   5 -11   35.70    8.69
   2  -5 -11   44.38    9.28
  -2  -5  11   87.21   13.29
   2  -5  11   61.28   11.51
  -2   5 -11   72.46   11.74
  -2  -5 -11   78.34   14.69
  -2   5 -12   10.47    4.07
  -2  -5 -12    0.86    2.22
   2  -5  12    7.75    3.29
   2  -5 -12   18.04    5.90
  -2  -5  12    5.53    3.59
   2   5 -12   11.48    2.94
   2  -5 -13   55.56   10.05
  -2  -5  13   63.38   11.16
  -2  -5 -13   64.29   13.22
   2  -5  13   54.05   11.43
  -2   5 -13   89.98   14.33
   2   5 -13   74.11   14.09
   2  -5  14  406.74   31.33
  -2   5 -14  472.00   35.45
  -2  -5 -14  386.51   33.44
   2  -5 -14  432.57   32.60
   2   5 -14  418.95   32.87
   2  -5 -15  126.74   17.56
  -2  -5 -15  146.27   19.94
  -2   5 -15   67.21   13.74
   2  -5  15  110.39   15.94
   2   5 -15   82.15   15.30
   2   5 -16   27.43    8.77
  -2   5 -16   14.79    5.13
   2  -5  16   25.96    7.29
   2  -5 -16   12.81    7.04
  -2  -5 -16   19.77   10.49
  -2   5 -17    4.86    2.27
   2   5 -17   18.65    6.52
   2  -5 -17    6.83    3.81
   2  -5  17    0.37    3.11
  -2  -5 -17   16.96    7.36
  -2   5 -18   63.83   13.94
  -2  -5 -18   72.44   14.10
   2  -5 -18   82.89   15.66
   2   5 -18   87.33   16.29
   2  -5  18   73.22   13.43
   2   5 -19   92.43   16.68
  -2   5 -19   93.85   16.33
   2  -5 -19   79.91   15.87
   2  -5  19  104.09   17.65
  -2  -5 -19   91.23   17.09
  -2   5 -20   39.45   11.09
  -2  -5 -20   42.26   13.62
   2   5 -20   28.43    8.26
   2  -5 -20   46.44   11.64
   2  -5  20   20.15    8.13
  -2   5 -21    6.47    4.80
   2   5 -21    0.16    2.50
   2  -5 -21   11.66    5.40
   2  -5  21    6.59    4.49
  -2  -5 -21    8.36    3.98
   2  -5 -22   97.49   18.83
  -2  -5 -22  109.25   21.19
   2  -5  22  109.33   18.78
   2   5 -22  125.36   19.57
  -2   5 -22   72.49   16.90
  -2   5 -23    2.46    2.08
   2  -5  23    5.10    3.74
  -2  -5 -23    2.97    7.60
   2   5 -23    4.50    5.84
   2  -5 -23    1.42    5.24
  -2  -5 -24   14.15    8.45
   2  -5  24    0.92    3.02
  -2   5 -24   22.33    8.89
   2   5 -24   14.39    7.63
   2   5 -25    3.31    4.46
  -2  -5 -25   -1.46    5.13
   2  -5 -25   -2.39    2.67
   2  -5  25    3.64    4.28
  -2   5 -25    2.13    5.42
   2  -5  26   33.08   11.73
   2   5 -26   27.23   10.66
  -2  -5 -26   26.68   11.46
   2  -5 -26   18.29   10.00
  -2   5 -26   39.86   13.39
  -2   5 -27   18.17    9.82
   2  -5 -27   -4.41    4.96
   2  -5  27   20.23    9.30
  -2  -5 -27    7.32    5.49
   2   5 -27    2.63    6.51
   2   5 -28   30.21   11.81
  -2   5 -28   34.12   12.66
   2  -5  28   30.73   11.26
   2  -5 -28   34.55   12.65
  -2  -5 -28   40.80   10.95
   2  -5 -29   -3.65    4.86
   2   5 -29   -1.15    4.21
   2  -5  29    3.73    3.78
  -2  -5 -29   -3.33    2.83
  -2   5 -29    2.56    5.36
   2  -5 -30    8.37    2.85
  -2  -5 -30    6.50    8.47
  -2   5 -30    7.01    4.74
   2  -5  30    8.19    7.59
   2   5 -30    3.41    6.51
  -2  -6   0  441.77   28.32
   2  -6   0  475.99   25.45
  -2  -6   1   33.16    7.96
  -2  -6  -1   50.37    9.07
   2  -6  -1   42.94    7.25
   2  -6   1   45.94    8.06
  -2  -6  -2   25.87    6.84
  -2  -6   2   23.17    7.21
   2  -6  -2   30.52    6.26
   2  -6  -3   36.45    6.42
  -2  -6  -3   37.07    7.90
  -2  -6   3   32.06    8.08
  -2  -6  -4  225.95   21.33
  -2  -6   4  205.66   20.65
  -2   6  -4  245.99   21.06
   2  -6  -4  199.30   16.27
   2  -6  -5  140.01   13.78
  -2  -6  -5  136.56   16.25
  -2   6  -5  129.91   15.35
  -2   6  -6   16.74    5.50
  -2  -6  -6   20.38    7.00
   2  -6  -6    8.31    4.06
   2  -6  -7  160.75   16.39
  -2  -6  -7  171.14   18.54
  -2   6  -7  184.10   18.16
   2   6  -7  174.05   19.60
   2  -6  -8    1.59    1.12
   2   6  -8    9.52    4.96
  -2  -6  -8    7.47    5.13
  -2   6  -8   11.18    5.48
   2  -6  -9   18.81    5.94
  -2  -6   9   10.67    5.56
   2   6  -9    6.86    4.98
  -2   6  -9   20.33    7.24
  -2  -6  -9   17.59    6.72
   2   6 -10   64.14   12.04
  -2   6 -10   45.23    9.32
   2  -6 -10   49.67    9.82
  -2  -6 -10   59.98   12.98
  -2  -6  10   60.59   11.90
   2  -6 -11  442.54   30.34
  -2  -6  11  440.81   32.31
  -2  -6 -11  467.14   33.53
   2   6 -11  434.90   31.68
  -2  -6 -12  126.51   19.20
   2  -6 -12  102.72   14.61
  -2  -6  12   75.75   12.70
   2   6 -12  136.91   18.02
  -2   6 -12  120.60   16.38
  -2  -6  13   52.68   11.33
   2  -6  13   72.79   13.67
  -2  -6 -13   75.74   14.74
   2  -6 -13   87.05   13.89
   2   6 -13   81.23   14.72
  -2   6 -13   82.44   13.65
   2  -6 -14  242.61   23.71
  -2  -6 -14  257.31   26.55
   2  -6  14  180.65   21.66
  -2  -6  14  237.19   24.42
   2   6 -14  276.40   27.53
  -2   6 -14  171.96   21.06
  -2  -6  15   97.73   15.43
  -2   6 -15   75.67   13.84
   2  -6 -15   82.27   14.20
   2  -6  15  110.30   17.25
  -2  -6 -15   77.94   16.09
   2   6 -15   96.55   17.37
   2  -6  16  101.35   17.98
   2  -6 -16  123.37   18.56
  -2  -6  16   86.48   14.23
  -2  -6 -16  128.21   20.48
  -2   6 -16   98.17   17.18
  -2   6 -17   -3.51    4.61
   2  -6 -17    0.77    3.42
   2   6 -17   -0.83    4.35
   2  -6  17    3.04    3.52
  -2  -6  17   -1.75    2.68
  -2  -6 -17    4.92    0.88
   2   6 -18   35.31   11.50
  -2  -6  18   51.06   11.84
  -2   6 -18   51.98   12.60
   2  -6 -18   36.90   12.39
  -2  -6 -18   58.47   15.89
   2  -6  18   43.07   10.63
   2  -6  19   13.43    7.08
  -2   6 -19    1.90    4.33
  -2  -6  19   16.44    7.24
   2  -6 -19    7.95    7.94
  -2  -6 -19    8.93    7.42
   2   6 -19   11.17    4.70
  -2   6 -20    9.51    6.83
   2  -6 -20    2.69    1.26
   2   6 -20   11.01    4.48
  -2  -6 -20   -2.06    4.22
   2  -6  20   -2.09    5.81
  -2  -6  20    1.67    6.23
  -2   6 -21    5.68    6.01
  -2  -6  21    0.02    2.70
   2  -6  21   11.04    7.02
  -2  -6 -21    5.88    6.40
   2  -6 -21    3.07    2.74
   2   6 -21   15.39    8.06
  -2  -6 -22   58.51   16.30
  -2   6 -22   27.39    8.64
   2  -6 -22   43.40   11.77
   2   6 -22   39.87   12.80
   2  -6  22   48.13   12.61
  -2  -6  22   28.31    7.88
  -2   6 -23    7.95    6.03
   2   6 -23   15.86   10.02
   2  -6 -23   18.92    7.39
  -2  -6 -23   -1.74    3.32
  -2  -6  23    6.78    1.66
   2  -6  23   18.62    5.83
   2   6 -24   66.90   15.27
  -2  -6  24   60.57   13.99
   2  -6 -24   41.90   12.39
  -2  -6 -24   74.76   17.48
   2  -6  24   48.04   12.14
  -2   6 -24   50.86   13.48
  -2   6 -25   -1.31    3.04
  -2  -6 -25    3.35    8.65
   2  -6 -25   11.00    9.63
   2   6 -25    3.61    3.13
  -2  -6  25    2.19    4.92
   2  -6  25    3.15    5.83
  -2   6 -26    4.47    4.73
  -2  -6  26   10.48    4.05
   2  -6  26   12.96    7.27
   2  -6 -26    2.34    1.81
  -2  -6 -26   18.56    8.31
   2   6 -26   19.74   10.27
  -2   6 -27    3.67    4.84
   2  -6 -27    5.50    6.78
   2  -6  27   -2.53    3.72
  -2  -6  27   -1.84    3.49
  -2  -6 -27    5.25    4.35
   2   6 -27    1.29    3.56
  -2   6 -28    5.54    6.50
  -2  -6 -28   13.09    8.40
   2  -6 -28   -2.76    3.68
  -2  -6  28   -1.30    6.93
   2  -6  28    6.72    5.43
   2   6 -28   10.48    0.88
   2  -6  29   23.17    8.92
  -2   6 -29   20.97    9.89
   2  -6 -29    9.14    7.89
  -2  -6 -29    1.80    7.05
  -2  -6  29   19.03    7.69
   2   6 -29   19.93    7.52
  -2   6 -30   10.08    5.55
   2   6 -30   -0.17    7.53
  -2  -6 -30   13.16    8.21
   2  -6  30   17.23    7.97
  -2  -6  30   11.47    8.80
  -2  -7   0    1.91    4.39
   2  -7   0    0.01    2.08
   2  -7   1  790.35   35.47
   2  -7  -1  695.12   33.30
  -2  -7   1  779.40   40.51
   2  -7   2  217.85   20.25
  -2  -7  -2  274.68   24.01
   2  -7  -2  237.90   19.17
  -2  -7   2  232.74   21.54
  -2  -7   3  479.82   31.93
  -2  -7  -3  529.59   33.22
  -2  -7   4  106.87   15.67
   2  -7  -4   74.78   12.22
  -2  -7  -4   97.86   14.53
   2  -7  -5  157.11   16.76
  -2  -7  -5  160.73   18.61
  -2  -7   5  168.26   20.13
  -2   7  -5  127.03   15.89
  -2  -7  -6  243.20   23.13
  -2   7  -6  195.97   21.29
   2  -7  -6  184.93   18.03
  -2  -7  -7  661.82   38.74
  -2   7  -7  639.61   36.67
   2  -7  -7  643.91   35.24
  -2  -7  -8   69.61   12.60
   2   7  -8  111.12   15.79
  -2   7  -8  102.14   14.96
   2  -7  -8  114.26   15.51
   2   7  -9   63.28   12.14
  -2  -7  -9   73.62   13.49
   2  -7  -9   58.75   10.81
  -2   7  -9   61.45   12.20
   2  -7 -10   39.38    9.65
   2   7 -10   51.50   11.76
  -2  -7 -10   26.65    8.78
  -2   7 -10   41.00    9.72
  -2  -7 -11 1802.46   68.69
   2   7 -11 1750.27   69.30
  -2  -7 -12  243.00   26.09
   2   7 -12  268.04   27.07
  -2   7 -12  212.07   23.49
   2  -7 -12  259.96   25.88
  -2  -7  12  219.90   24.58
  -2  -7  13  151.29   20.20
   2   7 -13  102.62   16.68
   2  -7 -13   96.69   15.54
  -2  -7 -13  125.03   19.61
  -2   7 -13  105.25   16.91
  -2  -7  14   51.49   12.42
  -2  -7 -14   63.50   12.84
   2  -7 -14   68.81   13.88
  -2   7 -14   61.39   12.68
   2   7 -14   60.66   12.63
   2   7 -15    1.99    4.05
  -2  -7  15   -2.23    4.99
  -2  -7 -15    5.49    2.25
   2  -7 -15    4.17    4.74
  -2   7 -15   -3.58    4.66
  -2  -7  16   57.41   13.80
   2  -7 -16   78.43   14.64
  -2  -7 -16  120.18   20.15
   2   7 -16  122.40   19.40
  -2   7 -16  112.02   18.69
   2  -7  16   81.32   15.99
   2   7 -17  119.78   20.07
   2  -7 -17  122.92   19.50
  -2  -7 -17  123.46   19.93
   2  -7  17  121.22   19.66
  -2  -7  17  163.01   21.49
  -2   7 -17   99.37   17.71
  -2   7 -18   30.44   10.05
  -2  -7 -18   47.11   11.61
  -2  -7  18   53.74   13.76
   2  -7  18   39.22   11.45
   2   7 -18   43.48   12.63
   2  -7 -18   44.04   13.52
  -2   7 -19   54.42   13.61
  -2  -7  19   64.24   14.46
   2  -7  19   32.40   10.74
   2  -7 -19   33.74    9.90
   2   7 -19   55.42   15.10
  -2  -7 -19   34.41   10.51
  -2  -7  20    7.74    5.50
   2  -7  20   11.58    7.59
   2  -7 -20   -0.28    4.45
  -2   7 -20   -2.43    3.54
  -2  -7 -20    2.02    4.21
   2   7 -20    6.45    5.36
  -2   7 -21   57.54   14.07
   2  -7  21   64.40   15.20
   2   7 -21   61.83   14.98
  -2  -7  21   58.42   13.42
  -2  -7 -21   67.77   14.93
   2  -7 -21   95.39   19.62
  -2  -7 -22   -2.81    3.37
   2  -7  22    1.63    3.53
   2  -7 -22   -2.14    7.22
  -2  -7  22   -1.94    5.23
   2   7 -22    6.69    6.93
  -2   7 -22    2.08    2.98
  -2   7 -23   -3.49    5.47
   2  -7 -23    3.97    6.01
  -2  -7 -23   -6.14    6.27
   2  -7  23    2.89    5.49
  -2  -7  23    5.39    5.52
   2   7 -23   -0.98    5.10
   2  -7 -24    5.50    6.77
  -2  -7 -24    4.04    2.87
   2   7 -24    6.61    6.44
  -2   7 -24    1.72    5.94
   2  -7  24   -0.42    5.54
  -2  -7  24   -1.40    1.62
  -2  -7 -25   65.12   17.80
  -2  -7  25   45.60   12.52
   2  -7  25   37.58    9.49
   2  -7 -25   41.16   12.90
   2   7 -25   34.33   11.10
  -2   7 -25   30.64   11.01
  -2   7 -26    0.16    2.19
   2   7 -26    2.75    6.17
   2  -7 -26    0.50    3.12
  -2  -7  26    2.20    5.00
  -2  -7 -26    3.46    3.59
   2  -7  26    1.11    3.62
  -2   7 -27   -1.95    2.45
   2  -7  27    1.98    1.33
   2  -7 -27    5.01    5.54
  -2  -7 -27   10.27    5.91
  -2  -7  27    7.96    7.98
   2   7 -27   10.33   10.07
   2   7 -28    3.39    1.61
   2  -7  28   -3.52    3.71
  -2  -7  28    3.78    7.72
  -2   7 -28   -5.76    4.92
  -2  -7 -28    1.12    5.41
  -2   7 -29   27.45    9.80
   2   7 -29   18.29   10.74
   2  -7  29   25.77   11.09
  -2  -7  29   -6.54    7.76
  -2  -7 -29    3.27    3.59
  -2  -8   0   11.81    4.99
   2  -8   0   16.46    5.46
   2  -8  -1    8.68    4.53
  -2  -8   1   20.55    8.28
   2  -8   1   10.49    4.99
  -2  -8  -1   10.28    5.77
  -2  -8  -2   27.03    8.30
   2  -8  -2   24.52    7.02
   2  -8   2   18.28    6.27
  -2  -8   2   18.03    5.33
   2  -8   3  127.76   16.53
  -2  -8   3  112.81   16.07
   2  -8  -3  111.47   14.03
  -2  -8  -3   93.14   14.46
   2  -8  -4  165.15   18.68
  -2  -8  -4  249.29   24.60
  -2  -8   5  175.99   20.92
   2  -8  -5  151.47   17.78
  -2  -8  -5  123.64   17.10
  -2  -8  -6    2.53    4.34
  -2  -8   6    5.34    4.27
   2  -8  -6    4.40    3.26
  -2   8  -6    2.38    3.50
   2  -8  -7   42.26    9.41
  -2   8  -7   61.25   12.42
  -2  -8  -7   43.69   11.31
   2  -8  -8   -0.51    3.76
  -2  -8  -8   -1.84    5.06
  -2   8  -8    1.04    2.05
  -2  -8  -9  101.27   15.95
  -2   8  -9   73.29   13.57
   2  -8  -9   56.16   11.59
   2   8 -10   51.28   11.83
  -2   8 -10   40.17    9.41
  -2  -8 -10   64.20   13.04
   2  -8 -10   64.29   12.77
   2  -8 -11    2.90    4.07
  -2  -8 -11   -1.90    3.38
   2   8 -11   -2.48    0.73
  -2   8 -11   -6.19    5.29
   2  -8 -12   32.24    9.22
   2   8 -12   15.13    9.14
  -2  -8 -12   17.55    5.66
  -2   8 -12   16.28    6.64
   2  -8 -13    7.73    4.93
  -2  -8 -13    1.72    2.89
   2   8 -13    3.00    3.23
  -2   8 -13   13.80    7.60
   2  -8 -14   30.09    9.30
   2   8 -14    4.26    3.79
  -2  -8 -14   36.80   11.34
  -2   8 -14   32.88    9.68
   2   8 -15  181.26   24.47
  -2  -8 -15  160.48   22.66
   2  -8 -15  184.50   22.65
  -2   8 -15  180.07   23.51
  -2  -8  15  210.41   26.51
  -2   8 -16    1.04    4.62
  -2  -8 -16    2.65    5.70
  -2  -8  16   -3.40    1.19
   2  -8 -16   -1.03    2.23
   2   8 -16    3.45    5.95
  -2  -8 -17   51.63   14.49
   2  -8 -17   65.20   14.72
  -2   8 -17   58.55   13.73
  -2  -8  17   66.00   14.84
   2   8 -17   56.97   13.25
  -2  -8 -18   16.20    8.21
   2  -8 -18   28.34    9.94
  -2  -8  18   21.01    9.74
   2   8 -18   28.88   10.61
  -2   8 -18   13.39   10.58
  -2  -8  19   67.35   14.42
   2   8 -19   72.15   15.99
   2  -8 -19   68.29   15.07
  -2   8 -19   72.18   15.59
  -2  -8 -19   32.29   10.74
  -2  -8  20    2.00    5.78
  -2   8 -20    4.15    4.92
  -2  -8 -20    2.86    5.35
   2  -8 -20   -1.05    3.23
   2   8 -20   -1.04    1.26
   2  -8  21   67.31   15.69
  -2   8 -21   79.25   17.07
  -2  -8 -21   96.19   19.82
   2  -8 -21  111.86   22.65
  -2  -8  21   89.83   18.51
   2   8 -21   77.13   16.99
  -2   8 -22    5.27    7.09
   2   8 -22    3.05    4.59
   2  -8  22   -2.22    3.11
  -2  -8  22   -1.15    6.64
   2  -8 -22    0.46    3.82
  -2  -8 -22   -1.44    3.45
   2   8 -23    7.09    6.02
  -2  -8  23    4.42    5.05
   2  -8  23   10.48    6.43
  -2  -8 -23    7.26    5.67
   2  -8 -23   20.41   10.87
  -2   8 -23   12.99    7.07
  -2   8 -24   16.91    8.25
  -2  -8  24    5.21    3.90
   2  -8  24    4.83    5.49
   2  -8 -24   19.08   10.86
   2   8 -24    7.18    4.05
  -2  -8 -24    3.17    2.16
   2  -8  25   44.92   17.01
   2   8 -25  116.21   22.19
  -2   8 -25   96.94   19.61
  -2  -8  25   67.82   15.91
  -2  -8 -25   98.17   21.25
  -2   8 -26   24.49   11.10
  -2  -8  26   24.36   12.05
   2  -8  26    8.31    2.31
  -2  -8 -26   34.07   12.36
   2   8 -26   30.25   10.83
  -2   8 -27    8.77    6.53
   2   8 -27    5.40    4.04
  -2  -8  27    1.92    3.39
   2  -8  27   17.29    8.55
  -2  -8 -27    5.63    2.87
  -2   8 -28    2.64    5.09
  -2  -8  28    0.30    5.35
  -2  -8 -28    5.26    3.42
   2   8 -28    6.94    7.84
   2  -8  28    1.18    4.41
   2  -9   0   20.99    6.33
  -2  -9   0   33.98    8.59
  -2  -9   1  159.59   20.50
   2  -9   1  157.57   18.39
   2  -9  -1  166.61   18.77
  -2  -9  -1  161.79   20.14
   2  -9   2    7.97    3.88
  -2  -9  -2   18.28    6.65
   2  -9  -2   18.98    6.21
  -2  -9   2   16.15    5.88
   2  -9   3  297.83   26.36
   2  -9  -3  293.70   25.78
  -2  -9  -3  365.20   30.72
  -2  -9   3  324.42   29.05
  -2  -9   4  101.62   15.16
   2  -9   4  123.61   17.53
  -2  -9  -4  107.68   17.49
   2  -9  -4  103.12   16.29
   2  -9   5   11.34    6.26
  -2  -9   5    4.26    4.80
   2  -9  -5   14.43    5.57
  -2  -9  -5   15.91    7.07
  -2  -9   6  261.41   26.75
  -2  -9  -6  292.61   28.26
   2  -9  -6  261.60   24.78
  -2  -9  -7  930.01   50.28
  -2  -9   7  888.48   51.39
   2  -9  -7 1002.97   48.82
  -2  -9  -8  424.26   34.32
  -2   9  -8  399.87   31.80
  -2  -9   8  499.59   39.50
   2  -9  -8  406.93   32.30
   2  -9  -9   18.28    5.54
  -2  -9  -9   15.15    7.05
  -2   9  -9   28.59    9.16
  -2  -9 -10  257.58   28.33
  -2   9 -10  304.11   29.94
   2  -9 -11   36.25   10.10
  -2   9 -11   33.40    9.89
   2   9 -12   -2.02    4.31
   2  -9 -12    0.57    4.07
  -2  -9 -12    1.41    5.48
  -2   9 -12   -1.26    2.21
  -2   9 -13  107.16   18.04
   2  -9 -13  108.36   18.16
  -2  -9 -13   75.01   15.37
   2   9 -13  102.00   17.63
   2  -9 -14   25.58    8.47
   2   9 -14   33.68   11.05
  -2  -9 -14   28.53   10.90
  -2   9 -14   23.88    9.99
   2  -9 -15  115.99   18.46
   2   9 -15   73.26   15.81
  -2   9 -15   87.52   16.43
  -2  -9 -15   65.04   14.35
  -2  -9 -16   35.08   11.70
   2   9 -16   50.13   14.64
  -2   9 -16   30.09   10.91
   2  -9 -16   48.13   14.00
  -2   9 -17  168.63   24.07
   2  -9 -17  102.83   19.57
   2   9 -17  160.67   22.73
  -2   9 -18   10.99    6.29
  -2  -9 -18   10.42    7.77
   2  -9 -18   15.73    6.13
   2   9 -18    2.60    1.99
  -2   9 -19   13.06    8.60
  -2  -9 -19   12.24    7.76
   2  -9 -19   11.77    8.67
   2   9 -19   19.81    8.27
   2  -9 -20    4.46    8.39
  -2  -9  20    3.02    6.36
   2   9 -20    1.09    3.32
  -2   9 -20   -1.27    2.43
  -2  -9 -20    0.03    4.11
   2   9 -21   19.59    8.31
  -2  -9 -21   17.53    8.82
  -2  -9  21   42.01   13.96
   2  -9 -21   46.23   15.50
  -2   9 -21   24.08    8.37
  -2   9 -22   27.47   11.36
  -2  -9  22   26.23    9.62
  -2  -9 -22   48.02   14.16
   2   9 -22   24.09    9.72
  -2  -9  23   12.90    7.47
  -2  -9 -23    6.28    5.38
   2   9 -23    6.31    7.45
  -2   9 -23    3.23    2.63
  -2  -9 -24   -2.84    4.95
   2   9 -24    1.29    5.06
  -2  -9  24   -0.48    0.32
  -2   9 -24    2.94    6.34
   2   9 -25    7.51    4.30
  -2  -9 -25    9.77    1.58
  -2   9 -25    8.26    8.20
  -2  -9  26   -1.36    3.06
  -2   9 -26   -1.45    0.99
  -2  -9 -26   -6.22    4.26
   2   9 -26   -1.56    1.35
  -2  -9  27   -5.24    6.83
  -2  -9 -27    0.20    5.98
   2   9 -27   -5.72    6.63
  -2   9 -27    9.40    8.05
  -2 -10   0   50.84   12.04
   2 -10   0   71.77   13.18
   2 -10  -1    3.84    3.43
  -2 -10   1    9.06    5.80
   2 -10   1    4.48    5.31
  -2 -10  -1    8.61    3.57
  -2 -10   2    1.12    2.56
  -2 -10  -2    4.81    5.63
   2 -10  -2    0.78    2.36
   2 -10   2   -0.41    4.92
   2 -10   3    6.44    5.20
   2 -10  -3    3.90    4.84
  -2 -10  -3    3.38    2.10
  -2 -10   3    3.11    1.82
   2 -10   4   70.12   13.19
   2 -10  -4   45.52   11.39
  -2 -10  -4   45.04   11.08
  -2 -10   4   58.86   12.36
   2 -10  -5   16.98    6.51
   2 -10   5   15.44    6.24
  -2 -10  -5   20.43    9.62
  -2 -10   5   20.52    7.11
   2 -10  -6   90.60   15.78
  -2 -10   6   70.07   14.72
   2 -10   6   73.42   14.73
  -2 -10  -6   97.44   17.25
  -2 -10   7    4.71    4.41
   2 -10  -7   -0.81    3.83
  -2 -10  -7    0.10    1.05
  -2 -10   8    8.56    8.15
   2 -10  -8   13.48    6.22
  -2 -10  -8    6.66    4.35
   2 -10  -9    3.92    6.09
  -2 -10   9   -1.69    3.81
  -2 -10  -9    2.05    2.59
   2 -10 -10    0.66    0.61
  -2 -10 -10    0.13    0.26
  -2  10 -11   75.65   14.97
   2 -10 -11   82.59   15.50
  -2 -10 -11   84.00   17.33
   2 -10 -12   55.87   14.08
  -2 -10 -12   66.40   15.41
  -2  10 -12   77.31   16.81
   2 -10 -13   -3.43    4.28
  -2 -10 -13    5.08    4.73
  -2  10 -13    6.36    2.24
  -2 -10 -14   14.11    7.15
  -2  10 -14   24.18    9.34
   2 -10 -14   17.70    9.91
  -2  10 -15   25.93    8.95
   2 -10 -15   32.05   10.01
  -2 -10 -15   43.38   13.08
   2  10 -15   29.47   10.44
   2 -10 -16    9.33    6.83
  -2 -10 -16   13.16    7.55
   2  10 -16    3.78    0.83
  -2 -10 -17   -0.49    3.49
   2 -10 -17   -2.02    2.70
   2  10 -17    3.14    2.71
  -2  10 -17    4.00    6.02
   2  10 -18   49.46   13.69
  -2 -10 -18   26.20    9.12
  -2  10 -18   21.43    8.63
  -2 -10 -19   23.69   10.06
   2  10 -19    9.95    7.41
  -2  10 -19   26.82   10.73
  -2 -10 -20   -3.97    5.74
  -2  10 -20   -1.17    1.75
   2  10 -20   -0.79    4.20
   2  10 -21    8.61    6.83
  -2 -10 -21    5.59    3.10
  -2  10 -21    4.63    1.86
  -2 -10 -22   72.07   18.95
   2  10 -22   27.09   11.67
  -2  10 -22   49.13   13.03
  -2  10 -23   -1.51    8.11
   2  10 -23   16.15    8.18
  -2 -10 -23   11.88    9.32
  -2  10 -24   11.34    2.99
  -2 -10 -24    8.81    6.01
   2  10 -24    2.75    4.13
  -2 -10 -25    1.32    4.99
   2  10 -25    1.46    2.78
  -2  10 -25    3.39    4.60
   2 -11   0  204.80   23.68
  -2 -11   0  193.02   23.72
  -2 -11   1   15.75    6.90
   2 -11   1   20.45    7.84
  -2 -11  -1   23.36    8.91
   2 -11  -1   12.96    6.23
  -2 -11   2    0.50    1.87
   2 -11   2    3.67    1.20
   2 -11  -2    7.34    7.02
  -2 -11  -2    3.37    4.53
  -2 -11   3    0.84    5.36
   2 -11  -3    5.66    5.89
  -2 -11  -3    4.26    5.68
   2 -11   3    6.08    2.33
   2 -11  -4  446.58   35.29
  -2 -11   4  394.91   35.36
  -2 -11  -4  420.64   36.68
   2 -11   4  360.13   31.98
  -2 -11  -5    4.20    4.02
   2 -11   5    5.00    3.56
  -2 -11   5   14.19    7.33
   2 -11  -5   10.45    4.79
   2 -11   6   94.23   17.24
  -2 -11  -6  121.08   19.66
   2 -11  -6   77.56   14.20
  -2 -11   6   75.82   15.05
  -2 -11  -7  190.30   24.84
   2 -11   7  174.02   23.60
   2 -11  -7  165.87   22.14
  -2 -11  -8    7.04    6.93
   2 -11   8   12.94    4.61
   2 -11  -8    9.27    5.09
  -2 -11   8    1.76    2.80
   2 -11  -9   33.47   10.19
  -2 -11  -9   42.80    9.94
  -2 -11   9   39.62   12.18
  -2 -11  10  207.42   27.01
   2 -11 -10  180.97   25.12
  -2 -11 -10  210.84   26.82
   2 -11 -11    6.27    5.30
  -2 -11  11   -0.10    3.52
  -2 -11 -11    1.65    2.01
   2 -11 -12   58.41   13.74
  -2 -11  12   50.21   12.97
  -2 -11 -12   56.41   13.91
  -2  11 -12   27.42    9.76
   2 -11 -13   29.50   11.54
  -2 -11 -13   26.02   10.04
  -2  11 -13    7.43    2.76
  -2  11 -14   94.67   19.59
   2 -11 -14   70.90   16.85
  -2 -11 -14   79.23   16.57
  -2 -11 -15   18.59    7.35
  -2  11 -15   12.89    7.36
  -2 -11 -16   31.09    9.22
  -2  11 -16   12.22    7.09
  -2 -11 -17    4.17    7.02
  -2  11 -17    3.53    2.67
  -2 -11 -18   10.84    5.70
  -2  11 -18   16.69    7.33
   2  11 -18    7.63    3.55
  -2 -11 -19    8.16    9.22
   2  11 -19    5.01    4.13
  -2  11 -19    9.49    6.70
  -2 -11 -20   -0.28    4.69
   2  11 -20   -0.50    0.69
  -2  11 -20   -7.26    8.21
   2  11 -21   -1.44    2.91
  -2  11 -21    6.89    7.39
  -2 -11 -21    1.29    6.15
   2  11 -22    1.32    3.05
  -2  11 -22   -1.04    3.63
  -2 -11 -22    6.90    8.02
   2  11 -23    6.46    6.41
  -2  11 -23    3.88    3.17
  -2 -11 -23    7.94    5.97
  -2  11 -24   11.77    8.62
   2  11 -24   21.79    9.52
  -2 -11 -24   23.31   11.77
  -2 -12   0   48.94   13.20
   2 -12   0   35.85   10.21
   2 -12   1   13.02    6.33
  -2 -12  -1   18.51    6.85
   2 -12  -1   11.90    6.78
  -2 -12   1   21.85    6.31
  -2 -12   2    5.96    6.10
   2 -12   2   15.37    7.63
   2 -12  -2    6.05    3.67
  -2 -12  -2   10.42    5.93
  -2 -12   3   21.76    8.06
   2 -12  -3   10.52    6.72
   2 -12   3   15.67    6.16
  -2 -12  -3   15.70    4.55
   2 -12   4   12.38    7.11
   2 -12  -4   17.13    6.93
  -2 -12   4   14.17    8.35
  -2 -12  -4   25.13   10.47
   2 -12  -5    8.66    7.93
  -2 -12  -5   10.18    5.53
  -2 -12   5    3.51    2.88
   2 -12   5    7.21    5.70
   2 -12   6    2.00    3.51
  -2 -12   6    1.54    3.10
   2 -12  -6   -0.75    1.98
  -2 -12  -6    2.37    5.00
   2 -12  -7    7.25    6.02
   2 -12   7    4.09    2.58
  -2 -12  -7    3.03    3.68
  -2 -12   7   -2.51    4.03
   2 -12   8    1.50    1.46
   2 -12  -8    3.71    3.53
  -2 -12  -8    6.10    5.41
  -2 -12   8    5.11    4.10
  -2 -12  -9   18.23    8.31
  -2 -12   9   15.38    7.86
   2 -12  -9    5.51    1.02
   2 -12   9    9.39    5.02
  -2 -12 -10    1.13    4.14
  -2 -12  10   -1.47    2.10
   2 -12  10    1.41    6.46
  -2 -12  11   19.14    8.97
  -2 -12 -11    3.90    6.67
  -2 -12 -12    4.46    2.16
  -2 -12  12   21.66    9.85
  -2 -12  13   -2.62    4.43
  -2 -12 -13    0.13    3.96
  -2 -12 -14   11.52    6.43
  -2 -12  14    9.25    7.86
  -2 -12 -15    7.88    5.94
  -2  12 -15    5.77    5.06
  -2 -12 -16   -0.17    6.19
  -2  12 -16   -7.00    6.58
  -2 -12 -17    1.45    5.00
  -2  12 -17    2.11    3.43
  -2 -12 -18   -4.68    5.71
  -2  12 -18   15.94    6.78
  -2 -12 -19   17.86    9.83
  -2  12 -19   10.00    8.58
  -2 -12 -20   -2.57    2.43
  -2  12 -20   10.21    8.69
  -2  12 -21   -4.91    6.40
  -2 -12 -21    4.75    5.14
   2  12 -22    4.07    7.86
  -2  12 -22    3.68    6.21
  -2 -12 -22   -3.20    5.71
  -2 -13   0  116.36   20.83
   2 -13   0   95.08   18.24
   2 -13  -1   39.52   11.81
  -2 -13  -1   32.24    9.94
  -2 -13   1   28.09   10.08
   2 -13   1   23.56    9.58
   2 -13  -2    2.22    2.78
  -2 -13  -2   -0.92    3.01
  -2 -13   2    0.53    1.18
   2 -13   2    1.18    1.58
  -2 -13   3   10.01    4.32
   2 -13   3    0.34    1.24
   2 -13  -3    6.98    3.01
  -2 -13  -3    9.01    7.84
  -2 -13   4   25.61    8.08
  -2 -13  -4   16.66    8.02
   2 -13   4   19.28    8.54
  -2 -13   5    1.86    5.14
  -2 -13  -5    2.44    3.96
   2 -13   5    0.43    1.47
   2 -13  -5    0.75    6.09
  -2 -13   6    5.28    3.17
   2 -13   6    1.10    2.65
   2 -13  -6   -7.92    5.14
  -2 -13  -6    4.79    5.26
  -2 -13  -7   69.29   16.35
   2 -13   7   75.98   14.79
  -2 -13   7   68.55   15.77
   2 -13   8    2.41    3.64
  -2 -13  -8    1.73    3.85
  -2 -13   8   -2.56    4.28
  -2 -13  -9   16.72    8.02
  -2 -13   9   26.92   10.35
   2 -13   9   14.63    8.11
  -2 -13  10   10.25    6.52
   2 -13  10   12.06    2.43
  -2 -13 -10    6.41    3.75
   2 -13  11   20.87    9.23
  -2 -13  11   20.49    8.56
  -2 -13 -11   28.49   10.93
   2 -13  12    6.35    5.64
  -2 -13 -12   13.29    8.17
  -2 -13  12    4.44    2.69
   2 -13  13    2.93    5.11
  -2 -13 -13    4.97    4.53
  -2 -13  13    9.42    9.40
  -2 -13 -14   -1.79    4.26
  -2 -13  14   -0.87    5.23
  -2 -13 -15   14.77    8.36
  -2 -13  15   10.87    8.58
  -2 -13 -16   -2.33    1.96
  -2 -13  16    3.67    5.33
  -2 -13 -17    4.84    3.87
  -2 -13  17   21.43    9.51
  -2 -13 -18    7.53    5.20
  -2 -13  18    8.21    6.75
  -2 -13 -19    6.07    4.88
  -2  13 -19    7.72    8.25
   2 -14   0   43.37   14.48
  -2 -14   0   23.61    9.93
   2 -14  -1   -1.41    3.61
  -2 -14  -1    1.32    2.46
  -2 -14   1    0.30    0.73
   2 -14   1   -2.11    5.29
  -2 -14  -2    2.30    3.20
  -2 -14   2    1.94    5.41
   2 -14   2    2.92    5.41
  -2 -14   3   11.14    6.88
  -2 -14  -3    8.35    0.63
   2 -14   3   11.63    5.88
  -2 -14  -4   17.36    7.94
   2 -14   4    8.48    6.67
  -2 -14   4   11.20    5.06
  -2 -14  -5   -4.09    6.47
   2 -14   5    0.56    4.11
  -2 -14   5   -2.31    4.61
  -2 -14   6    0.23    2.50
   2 -14   6    1.73    1.28
  -2 -14  -6   -2.30    1.37
  -2 -14   7    8.39    7.21
   2 -14   7   16.68    9.81
  -2 -14  -7    7.62    4.74
  -2 -14   8    4.39    4.82
   2 -14   8    0.85    1.18
  -2 -14  -8    2.30    1.75
   2 -14   9   -3.38    4.81
  -2 -14  -9    4.08    3.79
  -2 -14   9    7.88    8.86
   2 -14  10   -2.72    4.57
  -2 -14 -10    1.15    5.49
  -2 -14  10    1.61    4.28
  -2 -14 -11    4.38    5.67
  -2 -14  11    1.58    4.25
   2 -14  11   -0.82    5.04
   2 -14  12    3.81    7.68
  -2 -14  12   -0.54    1.05
  -2 -14 -12    1.20    3.85
  -2 -14 -13    5.22    4.85
   2 -14  13    1.94    1.54
  -2 -14  13    4.38    7.39
  -2 -14 -14   -1.97    3.70
  -2 -14  14    4.28    5.93
   2 -14  14    6.46    6.68
  -2 -14 -15   -4.37    5.87
   2 -14  15    3.37    4.86
  -2 -14  15    0.76    2.77
  -2 -14  16   -1.96    1.61
   2 -14  16    4.91    6.36
  -2 -14 -16   -2.48    4.83
  -2 -14 -17    1.18    4.36
  -2 -14  17    4.67    2.77
  -2 -15   0   20.32    9.40
  -2 -15  -1    1.95    6.03
  -2 -15   1    4.30    0.63
  -2 -15  -2    4.91    6.87
  -2 -15   2   -0.05    5.06
  -2 -15  -3   20.17    7.58
  -2 -15   3   24.21   11.44
  -2 -15  -4   35.57   11.57
  -2 -15   4   43.48   12.03
   2 -15   5    1.29    3.65
  -2 -15   5   -2.49    2.92
  -2 -15  -5    4.24    4.99
  -2 -15   6    6.60    5.36
   2 -15   6   20.15    9.97
  -2 -15  -6   18.78    7.37
  -2 -15   7   17.94    7.06
   2 -15   7   22.19   10.72
  -2 -15  -7   21.87   10.74
  -2 -15  -8   34.11   11.97
  -2 -15   8   49.87   15.63
   2 -15   8   34.77   11.23
  -2 -15  -9    3.04    4.07
  -2 -15   9    4.24    7.33
   2 -15   9    0.96    1.30
  -2 -15  10    5.98    4.50
   2 -15  10    7.13    5.53
  -2 -15 -10    3.71    6.97
   2 -15  11   -1.28    3.88
  -2 -15 -11    1.23    5.60
  -2 -15  11    4.74    3.12
   2 -15  12    2.77    7.19
  -2 -15 -12    7.94    7.74
  -2 -15  12   -2.96    5.45
  -2 -15  13    7.99    7.98
   2 -15  13   -3.73    5.93
  -2 -15 -13    0.44    3.96
  -2 -16   0   18.54   10.33
  -2 -16  -1    9.53    9.15
  -2 -16   1   -1.16    4.41
  -2 -16  -2    2.04    5.15
  -2 -16   2    6.85    7.47
  -2 -16  -3    0.86    3.47
  -2 -16   3   -6.20    6.90
  -2 -16   4    2.95    6.09
  -2 -16  -4    1.04    3.15
  -2 -16  -5   -2.06    3.29
  -2 -16   5    7.04    4.82
  -2 -16   6    0.32    2.92
  -2 -16  -6   10.02    6.34
  -2 -16  -7    1.68    4.96
  -2 -16   7    0.78    3.73
  -2 -16   8    8.38    8.26
  -2 -16  -8    2.34    5.52
  -3   0   0    0.02    0.27
  -3   0  -1    0.44    0.81
  -3   0   1    0.07    0.66
  -3   0   2  678.35   18.34
  -3   0  -2  792.34   24.13
  -3   0  -3    1.87    1.91
  -3   0  -4   89.59    9.07
   3   0  -4   53.07    5.73
  -3   0  -5   -1.61    1.57
   3   0  -5   -0.67    1.04
  -3   0  -6   51.41    7.83
   3   0  -6   37.43    5.88
   3   0  -7   -0.72    0.21
  -3   0  -7    1.88    2.96
   3   0  -8   10.23    3.21
  -3   0  -8    6.08    3.34
   3   0  -9    2.62    2.76
  -3   0  -9   -2.38    4.09
  -3   0 -10  113.54   14.73
   3   0 -10  117.20   13.27
  -3   0 -11    0.08    2.36
   3   0 -11    2.69    2.13
   3   0 -12   22.72    6.79
  -3   0 -12    0.48    0.98
   3   0 -13    0.29    1.46
  -3   0 -13   -1.20    3.49
   3   0 -14    1.43    2.80
  -3   0 -14    1.72    3.03
   3   0 -15    1.00    0.67
  -3   0 -15   -1.92    3.54
  -3   0 -16    2.79    3.57
   3   0 -16    4.90    3.31
   3   0 -17    1.80    1.78
  -3   0 -17   -0.96    1.25
  -3   0 -18  414.91   34.73
   3   0 -18  419.69   34.06
   3   0 -19   -1.11    0.40
  -3   0 -19    4.06    4.00
   3   0 -20    3.46    3.15
  -3   0 -20   -1.65    4.85
   3   0 -21    2.32    5.08
  -3   0 -21   -0.20    4.50
   3   0 -22    1.42    4.66
  -3   0 -22    4.33    0.87
   3   0 -23    1.81    2.02
  -3   0 -23   -1.54    0.75
   3   0 -24   -0.98    3.64
  -3   0 -24    1.30    4.16
   3   0 -25   -2.67    4.55
  -3   0 -25    2.03    2.04
   3   0 -26   24.38    9.29
  -3   0 -26    6.15    5.78
  -3   0 -27   -0.88    4.38
   3   0 -27    2.50    6.52
   3   0 -28    2.02    5.89
  -3   0 -28    1.32    3.30
   3   0 -29    2.91    5.94
  -3   0 -29   -0.31    3.46
   3   0 -30   13.10    8.45
  -3   0 -30    0.57    1.86
   3   0 -31   -4.52    7.21
  -3   0 -31   18.13   10.97
  -3  -1   0    4.09    2.21
  -3   1   0   -0.11    0.40
  -3   1  -1  727.85   17.13
  -3  -1   1  767.49   23.01
  -3   1  -2 1164.63   26.84
  -3  -1   2 1255.89   29.55
  -3   1  -3 4115.17   58.44
  -3  -1   3 3703.63   57.30
   3  -1  -4   15.58    2.64
  -3  -1  -4   12.68    3.86
   3   1  -4   11.42    3.45
  -3   1  -4   23.34    4.53
  -3   1  -5  471.72   23.04
  -3  -1  -5  492.54   24.22
   3  -1  -5  483.56   16.43
   3   1  -6 1945.64   45.76
   3  -1  -6 2031.68   39.23
  -3   1  -6 1936.00   48.99
  -3   1  -7  265.60   19.15
  -3  -1  -7  231.38   18.57
   3   1  -7  255.60   17.06
   3  -1  -7  249.48   14.76
  -3   1  -8  753.14   33.86
  -3  -1  -8  732.60   34.77
   3   1  -8  750.32   30.97
   3  -1  -8  792.29   28.87
   3   1  -9  296.22   20.05
  -3   1  -9  342.30   23.54
  -3  -1  -9  368.01   26.39
   3  -1  -9  274.91   18.03
  -3   1 -10  737.19   35.69
  -3  -1 -10  755.98   36.27
   3  -1 -10  751.48   32.10
   3   1 -11    4.96    2.67
  -3  -1 -11    2.19    0.93
  -3   1 -12 1408.30   54.03
   3   1 -12 1316.30   48.94
   3  -1 -12 1389.73   48.57
  -3   1 -13  313.44   26.46
   3   1 -13  340.58   25.49
   3  -1 -13  276.08   22.56
   3  -1 -14   20.58    6.76
  -3   1 -14   28.40    8.68
  -3  -1 -14   12.52    5.75
   3   1 -14   22.11    6.38
  -3  -1 -15  156.58   20.31
   3   1 -15  161.30   19.20
  -3   1 -15  137.06   19.09
   3  -1 -15  118.19   16.25
  -3   1 -16  826.76   47.98
  -3  -1 -16  805.80   47.01
   3   1 -16  851.77   45.15
   3  -1 -16  870.78   45.19
  -3   1 -17  106.38   16.95
  -3  -1 -17  139.27   20.49
   3   1 -17  142.99   18.87
   3  -1 -17  105.11   16.01
   3  -1 -18    2.21    4.55
  -3   1 -18    3.12    6.23
  -3  -1 -18    8.12    3.79
   3   1 -18    9.15    5.52
   3   1 -19    6.09    5.61
  -3  -1 -19    4.14    2.61
   3  -1 -19   23.26    7.42
  -3   1 -19   16.65    5.18
  -3   1 -20  271.08   29.30
  -3  -1 -20  316.12   31.54
   3   1 -20  274.14   29.32
   3  -1 -20  250.09   27.25
   3   1 -21   21.03    8.91
   3  -1 -21   16.70    6.50
  -3   1 -21   21.58    8.45
  -3  -1 -21    9.60    4.06
  -3   1 -22  103.13   19.49
  -3  -1 -22   87.88   16.72
   3   1 -22   99.38   17.58
   3  -1 -22   97.64   17.15
  -3   1 -23  167.34   23.62
  -3  -1 -23  198.35   26.79
   3   1 -23  188.54   26.01
   3  -1 -23  166.92   23.46
   3   1 -24   36.92   11.51
   3  -1 -24   46.45   13.27
  -3   1 -24   38.57   10.79
  -3  -1 -24   39.63   11.92
   3  -1 -25    1.59    7.24
  -3   1 -25    6.73    8.48
  -3  -1 -25    0.31    2.07
   3   1 -25    3.78    5.11
  -3  -1 -26   87.51   19.09
   3   1 -26   67.51   15.85
   3  -1 -26   60.71   14.52
  -3   1 -26   68.73   17.42
   3  -1 -27   28.78   12.84
   3   1 -27   23.31    9.43
  -3   1 -27   30.06   12.72
  -3  -1 -27   16.23    6.56
   3   1 -28   10.16    4.82
   3  -1 -28   16.37    8.63
  -3   1 -28   16.53    9.23
  -3  -1 -28   27.88   11.59
   3   1 -29    5.08    2.45
   3  -1 -29   -0.60    4.59
  -3   1 -29   -0.30    5.00
  -3  -1 -29    5.02    3.39
   3   1 -30   13.09   10.33
   3  -1 -30   25.23    7.16
  -3   1 -30   11.71    7.56
  -3  -1 -30   10.72    7.84
   3   1 -31   33.33   11.99
   3  -1 -31   24.84   10.25
  -3   1 -31   22.76   11.54
  -3  -1 -31   22.23   10.94
  -3  -2   0   -0.40    0.57
  -3   2  -1   -0.12    0.69
  -3  -2   1    2.45    2.34
  -3  -2  -1    1.86    2.30
  -3  -2   2  176.55   12.91
  -3  -2  -2  188.77   14.61
  -3   2  -2  191.15   10.61
  -3   2  -3  510.23   19.16
  -3  -2  -3  477.25   23.45
  -3  -2   3  519.28   24.48
  -3   2  -4  447.64   20.43
   3  -2  -4  492.43   13.31
  -3  -2  -4  451.80   24.28
  -3   2  -5  293.34   18.39
   3   2  -5  312.52   19.99
  -3  -2  -5  306.47   21.45
   3  -2  -5  352.56   13.73
   3  -2  -6    0.37    0.37
  -3   2  -6   -1.28    2.15
   3  -2   6    0.84    0.77
   3   2  -6   -0.11    0.54
   3  -2  -7  188.19   12.67
   3   2  -7  197.19   16.12
  -3   2  -7  180.07   15.51
  -3  -2  -7  172.42   17.02
   3  -2  -8  385.19   19.82
  -3   2  -8  329.09   22.43
  -3  -2  -8  343.31   24.55
   3   2  -8  376.13   23.39
  -3  -2  -9    4.33    1.13
   3  -2  -9    5.26    2.83
  -3   2  -9    2.80    2.21
   3   2  -9    8.03    4.01
  -3  -2 -10    0.50    0.74
   3   2 -10    2.36    2.68
   3  -2 -10    2.92    2.59
  -3   2 -10   -1.10    3.44
   3  -2 -11   27.98    6.38
  -3   2 -11   24.40    6.98
   3   2 -11   35.36    8.32
  -3  -2 -11   33.24    9.04
   3   2 -12   70.11   11.65
  -3  -2 -12   74.81   13.13
   3  -2 -12   64.30   10.56
  -3   2 -12   54.94   10.89
   3  -2 -13   23.59    7.83
  -3   2 -13   21.95    8.69
   3   2 -13   34.90    8.30
  -3  -2 -13   32.18    7.72
   3  -2 -14   50.67   10.04
  -3   2 -14   70.12   12.80
  -3  -2 -14   61.65   11.85
   3   2 -14   67.25   12.07
   3  -2 -15   54.87   11.30
  -3   2 -15   65.84   13.13
  -3  -2 -15   49.54   11.29
   3   2 -15   51.19   10.21
  -3   2 -16   99.73   16.66
   3   2 -16  115.52   17.04
  -3  -2 -16  101.63   16.84
   3  -2 -16  104.89   14.86
   3  -2 -17   61.21   13.38
  -3  -2 -17   55.70   13.75
  -3   2 -17   56.25   13.09
   3   2 -17   52.41   11.73
   3  -2 -18   86.90   15.50
  -3  -2 -18   84.07   16.78
  -3   2 -18   57.26   11.92
   3   2 -18   74.27   14.31
   3   2 -19   -0.91    2.24
  -3  -2 -19    3.29    4.74
   3  -2 -19    1.84    4.25
  -3   2 -19    2.18    5.51
   3   2 -20   19.04    7.30
   3  -2 -20   17.33    8.39
  -3   2 -20   16.93    6.90
  -3  -2 -20   24.62    6.75
  -3  -2 -21   63.75   13.84
   3  -2 -21   47.14   12.05
  -3   2 -21   30.55    8.98
   3   2 -21   34.54   10.07
   3   2 -22   -1.28    5.67
  -3  -2 -22    9.51    7.48
   3  -2 -22   20.78    8.23
  -3   2 -22   18.60    9.35
   3   2 -23   10.18    7.97
   3  -2 -23    6.96    7.63
  -3   2 -23    3.88    7.18
  -3  -2 -23    2.57    3.11
   3   2 -24   -0.05    3.55
   3  -2 -24    1.75    1.43
  -3   2 -24   -3.90    7.91
  -3  -2 -24    1.00    3.60
   3   2 -25    0.15    2.80
   3  -2 -25    6.12    5.39
  -3   2 -25    4.08    5.16
  -3  -2 -25    1.70    4.57
   3   2 -26   -1.72    7.83
   3  -2 -26    2.19    2.98
  -3   2 -26    3.81    4.23
  -3  -2 -26    6.07    5.97
   3  -2 -27   12.87    6.65
  -3   2 -27   14.68    6.45
  -3  -2 -27   14.32    5.70
   3   2 -27    7.66    6.42
   3   2 -28    5.36    3.53
  -3  -2 -28   10.84    8.97
   3  -2 -28    7.73    8.73
  -3   2 -28    8.96    9.75
   3   2 -29    4.26    5.16
   3  -2 -29    7.73    4.00
  -3  -2 -29    1.02    5.64
  -3   2 -29    4.85    7.51
   3   2 -30   -3.80    4.69
   3  -2 -30    2.54    2.26
  -3   2 -30    1.84    0.82
  -3  -2 -30    4.05    4.65
   3   2 -31  -11.16    9.94
   3  -2 -31   13.73   10.40
  -3   2 -31   -8.12    9.57
  -3  -2 -31   -1.24    5.95
  -3  -3   0    1.01    1.60
   3  -3  -1   77.25    4.67
  -3   3  -1   72.56    6.27
  -3  -3   1   88.95   10.86
  -3  -3  -1   97.79   11.25
  -3  -3   2  761.32   29.57
  -3   3  -2  740.82   21.95
  -3  -3  -3  114.81   12.88
  -3  -3   3  128.49   12.98
  -3  -3   3  103.96   10.70
  -3   3  -3  122.78    9.91
  -3  -3  -4  437.86   24.77
  -3  -3   4  448.15   21.98
  -3  -3   5 3183.81   59.78
   3  -3  -5 3215.84   43.62
   3   3  -5 3280.71   66.21
  -3   3  -5 3193.19   60.79
  -3  -3  -5 3169.93   69.24
   3   3  -6  608.87   31.43
   3  -3  -6  657.47   22.57
  -3   3  -6  610.74   28.02
   3  -3  -7   80.38    9.17
   3  -3   7   87.77   11.33
   3   3  -7   83.55   11.76
  -3  -3  -7   80.71   11.80
  -3   3  -7  100.86   11.80
   3   3  -8  320.64   22.67
   3  -3  -8  418.78   20.89
  -3  -3  -8  294.85   24.09
   3  -3   8  233.02   18.28
  -3   3  -8  366.10   23.89
  -3   3  -9 1090.81   43.92
   3  -3  -9 1163.69   37.28
   3  -3   9 1512.35   47.21
  -3  -3  -9 1363.59   51.22
   3   3  -9 1037.41   42.79
   3  -3 -10  196.53   15.99
   3  -3  10  142.11   14.71
  -3  -3 -10  147.64   17.68
  -3   3 -10  211.98   20.45
   3  -3 -11   47.47    8.32
  -3   3 -11   24.55    6.66
  -3  -3 -11   57.03   11.76
   3  -3  11   27.36    7.01
   3   3 -11   46.20    9.63
  -3   3 -12   -3.24    4.22
  -3  -3 -12    0.73    2.77
   3  -3 -12   -1.56    2.48
   3  -3  12    0.85    3.01
   3   3 -12    2.81    3.53
   3  -3 -13  458.94   29.32
  -3  -3 -13  430.11   32.80
  -3   3 -13  347.46   29.00
   3   3 -13  386.03   29.22
  -3   3 -14    0.15    1.78
   3   3 -14    1.11    0.94
   3  -3 -14    3.29    2.97
  -3  -3 -14    5.71    7.01
   3  -3 -15  233.63   22.54
  -3  -3 -15  252.60   25.12
   3   3 -15  252.73   24.90
  -3   3 -15  276.95   26.91
  -3   3 -16    2.00    3.63
   3  -3 -16   -0.72    2.67
   3   3 -16    6.24    5.97
  -3  -3 -16   -3.02    4.98
   3  -3 -17  304.40   27.95
  -3  -3 -17  344.13   32.29
   3   3 -17  248.32   26.15
  -3   3 -17  335.44   31.44
   3  -3 -18   90.57   16.14
  -3  -3 -18  105.89   18.44
  -3   3 -18  115.67   18.41
   3   3 -18   73.56   14.75
   3  -3 -19  106.66   17.79
   3   3 -19  110.03   17.82
  -3  -3 -19  140.08   22.62
  -3   3 -19  134.33   20.12
  -3   3 -20   11.98    7.97
   3   3 -20   11.77    6.38
   3  -3 -20    6.21    5.08
  -3  -3 -20   17.72   12.04
   3   3 -21   30.09    9.88
  -3   3 -21   15.06    6.83
   3  -3 -21   33.60   10.14
  -3  -3 -21   40.15   12.10
   3   3 -22   12.81    8.09
  -3   3 -22   14.34    5.80
   3  -3 -22    6.12    1.07
  -3  -3 -22    1.92    2.53
   3  -3 -23  113.51   19.44
  -3  -3 -23   80.76   17.01
  -3   3 -23  118.10   20.33
  -3   3 -24    1.29    3.18
   3   3 -24   -2.96    0.98
   3  -3 -24    2.51    2.97
  -3  -3 -24    0.12    3.17
   3   3 -25    8.18    7.27
  -3   3 -25   -2.10    6.13
   3  -3 -25   14.61    6.29
  -3  -3 -25    2.30    1.94
   3   3 -26   19.37    9.10
  -3   3 -26   11.47    2.52
   3  -3 -26   36.95   12.51
  -3  -3 -26   21.37    8.59
   3   3 -27   33.97   10.82
  -3   3 -27   61.92   15.58
   3  -3 -27   32.45   11.82
  -3  -3 -27   27.96   10.86
   3   3 -28   10.12    8.19
  -3   3 -28   -0.03    1.83
   3  -3 -28   11.13    6.18
  -3  -3 -28    7.84    4.50
   3   3 -29   17.52    8.76
  -3   3 -29   -1.34    3.87
   3  -3 -29   12.34    7.63
  -3  -3 -29   19.13    8.17
   3   3 -30   26.92   10.27
  -3   3 -30   19.65   11.28
   3  -3 -30   10.74    6.42
  -3  -3 -30    5.04    4.82
  -3   3 -31   37.99   12.56
   3  -3 -31   48.71   17.25
  -3  -3 -31   29.36   10.91
   3   3 -31   24.60   11.37
  -3  -4   0    1.59    1.81
   3  -4   0    1.21    1.58
   3  -4  -1  287.70   12.84
  -3  -4  -1  312.05   21.64
  -3   4  -1  255.62   13.84
  -3  -4   1  280.04   20.91
  -3  -4   2    0.94    1.34
   3  -4  -2    0.56    0.54
  -3  -4  -2   -1.08    0.52
  -3   4  -2    0.33    1.38
  -3  -4   3   60.80    9.69
  -3  -4  -3   72.72   10.77
  -3   4  -3   61.81    7.53
   3  -4  -3   67.34    6.05
  -3  -4  -4 1088.63   42.49
   3  -4  -4 1065.88   26.10
  -3  -4   4 1066.49   43.33
  -3   4  -4 1001.17   32.93
   3  -4  -5   51.43    6.03
  -3  -4   5   45.68    8.76
  -3  -4  -5   39.15    7.56
  -3   4  -5   37.82    6.57
   3  -4  -6  142.63   10.92
   3   4  -6  126.80   14.45
  -3  -4   6  112.37   13.15
  -3   4  -6  141.62   13.97
  -3  -4  -6  117.38   14.59
   3  -4  -7  117.12   10.95
  -3  -4   7  122.71   14.12
  -3   4  -7  107.31   12.63
  -3  -4  -7  129.91   15.55
   3   4  -8   45.53    9.33
   3  -4  -8   34.78    6.14
  -3  -4   8   43.96    8.57
  -3  -4  -8   43.34    9.07
  -3   4  -8   38.61    8.25
  -3   4  -9  595.80   33.53
   3  -4  -9  630.34   30.07
   3   4  -9  691.93   36.27
  -3   4 -10   -0.24    1.73
  -3  -4 -10    0.43    3.21
   3   4 -10    4.90    3.31
   3  -4  10    5.81    2.95
   3  -4 -10    9.30    2.90
  -3  -4 -11    0.06    4.24
  -3   4 -11   -1.27    1.63
   3  -4 -11    0.57    1.27
   3  -4  11    2.35    2.24
   3   4 -11    1.34    3.25
  -3  -4 -12   12.68    6.54
  -3   4 -12   12.00    4.61
   3  -4  12   29.82    7.43
   3  -4 -12   16.05    5.93
   3   4 -12    7.42    4.72
  -3  -4 -13   19.63    8.67
   3   4 -13   13.56    6.35
   3  -4 -13   12.33    5.68
   3  -4  13   17.45    6.44
  -3   4 -13    9.94    5.70
  -3  -4 -14   -0.37    2.79
  -3   4 -14    8.61    5.63
   3  -4  14    1.98    4.40
   3   4 -14   -0.71    3.57
   3  -4 -14    3.24    5.49
  -3   4 -15    0.02    5.15
   3  -4 -15   -2.14    0.43
   3  -4  15    0.23    4.96
   3   4 -15   -0.14    2.38
  -3  -4 -15    0.26    4.01
   3   4 -16   19.91    7.97
   3  -4 -16   12.98    6.63
  -3   4 -16    7.55    4.07
   3  -4  16    7.46    4.23
  -3  -4 -16   19.53    5.40
   3   4 -17    6.24    2.89
  -3   4 -17   18.61    9.03
   3  -4  17    5.01    4.61
   3  -4 -17   16.79    6.44
  -3  -4 -17   10.70    5.62
   3   4 -18   -4.02    4.96
   3  -4 -18    4.20    1.89
  -3   4 -18    1.19    1.82
  -3  -4 -18    0.10    4.95
  -3   4 -19   -0.31    4.78
   3  -4 -19   10.31    4.96
   3   4 -19    4.32    4.69
  -3  -4 -19    2.59    5.13
  -3   4 -20   46.13   11.26
   3  -4 -20   40.41   11.28
  -3  -4 -20   56.78   14.64
   3   4 -20   54.33   13.17
   3   4 -21    1.54    3.69
  -3   4 -21    2.04    5.79
   3  -4 -21    9.04    6.07
  -3  -4 -21    4.58    4.91
   3   4 -22   -1.53    3.05
  -3   4 -22   -4.96    5.75
   3  -4 -22    0.98    1.85
  -3  -4 -22    0.73    3.53
   3   4 -23    6.96    5.94
  -3  -4 -23    5.85    2.13
  -3   4 -23   -2.45    5.06
   3  -4 -23    0.78    4.80
  -3   4 -24    3.27    7.09
  -3  -4 -24    2.52    2.72
   3  -4 -24    2.63    1.04
   3   4 -24   -0.31    4.77
   3   4 -25    3.02    6.03
  -3   4 -25    5.72    5.68
   3  -4 -25   -0.08    2.51
  -3  -4 -25   -3.97    5.64
   3   4 -26    6.26    6.50
  -3   4 -26    2.09    4.78
   3  -4 -26    8.42    7.26
  -3  -4 -26    1.23    4.21
   3   4 -27    5.81    5.06
  -3   4 -27   -1.01    5.32
   3  -4 -27    5.12    8.32
  -3  -4 -27    3.68    4.28
   3   4 -28   -5.84    5.34
  -3   4 -28    5.07    5.36
   3  -4 -28   -1.13    6.14
  -3  -4 -28   10.95    7.53
  -3   4 -29   -1.91    7.28
   3  -4 -29   -4.49    3.55
  -3  -4 -29    2.59    2.88
   3   4 -29    4.19    8.37
   3   4 -30   -1.22    3.75
  -3   4 -30   -3.67    7.66
  -3  -4 -30    8.55    2.11
  -3  -5   0    0.40    2.78
   3  -5   0    1.82    1.75
  -3  -5  -1  310.89   22.97
   3  -5  -1  333.38   16.93
  -3  -5   1  364.74   25.75
   3  -5  -2  550.38   21.52
  -3  -5  -2  504.22   29.69
  -3   5  -2  552.45   25.65
  -3  -5   3   35.78    8.40
   3  -5  -3   22.59    4.80
  -3   5  -3   22.07    5.45
  -3  -5  -3   30.31    7.70
  -3  -5  -4    5.37    0.60
   3  -5  -4    8.70    3.03
  -3   5  -4    5.69    3.05
  -3  -5   5  270.97   23.27
  -3   5  -5  258.22   18.82
  -3  -5  -5  321.46   24.37
  -3   5  -6  287.72   21.19
   3  -5  -6  304.26   19.00
   3   5  -7  117.52   15.33
   3  -5  -7  141.84   13.20
  -3  -5   7   99.57   14.07
  -3   5  -7  152.27   15.97
  -3  -5  -7  124.08   16.08
   3  -5  -8  276.82   18.86
  -3  -5   8  318.74   25.07
  -3   5  -8  283.74   22.56
  -3  -5  -8  282.83   24.93
  -3   5  -9    2.52    2.33
   3  -5  -9    0.47    1.88
  -3  -5  -9    0.54    0.50
  -3  -5   9   -0.34    1.04
   3   5  -9    1.12    0.86
  -3   5 -10   25.78    7.72
   3  -5 -10   14.17    4.63
  -3  -5 -10   16.58    7.84
   3   5 -10   20.29    7.13
  -3  -5  10   22.40    6.17
   3  -5 -11  339.31   24.85
   3   5 -11  359.09   28.43
  -3  -5  11  413.75   28.63
  -3   5 -11  431.45   31.21
  -3  -5 -12   29.46    9.55
   3  -5 -12   47.72   10.25
  -3  -5  12   26.17    6.95
  -3   5 -12   26.66    8.74
   3  -5  12   21.35    8.11
   3   5 -12   33.06    8.34
  -3   5 -13   25.07    6.78
  -3  -5 -13   34.91    9.26
   3  -5 -13   25.95    7.97
  -3  -5  13   18.92    5.86
   3   5 -13   30.23    7.57
   3  -5  13   14.57    6.23
   3  -5 -14    5.60    3.51
  -3  -5 -14    5.77    4.06
  -3   5 -14    3.05    1.35
   3  -5  14    7.05    1.68
   3   5 -14   -0.02    3.80
  -3  -5 -15   34.38   10.37
  -3   5 -15   30.88   10.18
   3  -5  15   28.42    8.42
   3  -5 -15   34.74    9.47
   3   5 -15   16.73    7.37
   3  -5 -16  262.57   26.17
   3  -5  16  263.57   25.43
  -3  -5 -16  246.91   28.27
  -3   5 -16  221.81   25.20
   3  -5 -17   99.07   16.34
  -3  -5 -17  111.66   19.70
  -3   5 -17   80.05   16.17
   3  -5  17  127.33   18.41
  -3   5 -18    6.71    5.01
   3  -5  18   17.19    7.91
   3  -5 -18   18.81    7.17
  -3  -5 -18    8.78    6.40
   3   5 -18   23.19    8.21
  -3   5 -19   16.27    7.71
   3   5 -19   13.52    7.84
   3  -5 -19   13.50    6.58
   3  -5  19   22.96    9.59
  -3  -5 -19   16.76    5.75
   3  -5 -20   67.11   15.24
  -3   5 -20   63.89   15.55
  -3  -5 -20   74.80   15.21
   3  -5  20   57.04   12.53
   3   5 -20   59.77   13.43
   3   5 -21   68.94   15.59
   3  -5 -21   36.79   11.47
   3  -5  21   29.29   10.05
  -3  -5 -21   38.67   16.67
  -3   5 -21   78.86   16.26
   3  -5 -22   61.82   14.21
   3  -5  22   55.80   12.84
  -3  -5 -22   71.09   16.50
  -3   5 -22   70.43   16.93
   3   5 -22   58.39   14.45
  -3   5 -23   -2.56    6.47
  -3  -5 -23   -5.00    6.24
   3  -5 -23   -3.61    6.23
   3  -5  23    0.36    1.69
   3   5 -23   -2.53    5.00
   3  -5 -24  163.34   25.11
  -3  -5 -24  149.96   25.38
   3  -5  24  142.48   21.38
   3   5 -24  152.54   24.08
  -3   5 -24  136.32   21.59
  -3   5 -25    1.12    3.13
   3  -5 -25   -0.16    2.03
   3   5 -25   -0.94    4.59
  -3  -5 -25    1.53    1.34
   3  -5  25    2.55    5.19
   3   5 -26   20.39    9.03
  -3   5 -26   14.06    2.55
   3  -5  26   28.11   10.56
  -3  -5 -26   39.71   12.71
  -3   5 -27    9.89    6.49
  -3  -5 -27   13.39    5.26
   3  -5  27    1.39    2.48
   3   5 -27    9.61    7.16
  -3   5 -28    2.92    4.68
  -3  -5 -28   11.08    7.02
   3  -5  28    6.41    5.43
   3   5 -28    3.54    4.30
  -3   5 -29    5.79    2.89
   3  -5  29   -1.62    2.79
  -3  -5 -29   -1.91    5.07
   3   5 -29    3.23    4.51
   3   5 -30   14.30    7.08
  -3   5 -30   30.15   12.93
  -3  -5 -30    5.37    4.98
   3  -5  30   26.44    9.92
  -3  -6   0   -0.11    1.45
   3  -6   0   -0.26    0.92
   3  -6  -1    9.50    3.08
  -3  -6  -1   16.96    5.70
  -3  -6   1   12.71    5.55
   3  -6   1   15.99    5.01
   3  -6  -2  250.20   17.83
  -3  -6   2  285.32   23.63
  -3  -6   3   11.67    5.51
   3  -6  -3   34.02    6.41
  -3  -6  -3   27.23    7.42
  -3   6  -3   10.97    3.37
   3  -6  -4   45.71    7.51
  -3  -6   4   46.84    9.83
  -3  -6  -4   40.17    8.95
  -3   6  -4   42.92    8.28
  -3  -6  -5   73.95   13.13
  -3  -6   5   55.29   11.30
  -3   6  -5   54.71    9.57
   3  -6  -5   43.62    7.51
  -3  -6  -6  126.45   16.64
  -3   6  -6  189.25   18.15
   3  -6  -6  125.80   13.07
  -3  -6   6  182.37   20.60
   3  -6  -7    0.49    2.64
  -3  -6  -7   -1.55    1.74
  -3   6  -7    0.80    2.44
   3  -6  -8   34.89    7.17
  -3  -6  -8   52.62   10.37
  -3   6  -8   56.31   10.26
  -3   6  -9   14.77    6.06
   3  -6  -9    4.06    2.90
  -3  -6  -9   11.25    5.46
  -3  -6   9   13.06    6.01
   3   6  -9   21.62    6.05
  -3   6 -10    5.26    4.54
  -3  -6  10    5.22    2.75
  -3  -6 -10    4.07    2.08
   3   6 -10   13.99    6.32
   3  -6 -10    2.24    2.89
  -3   6 -11    5.85    2.30
  -3  -6  11    8.39    4.30
   3   6 -11    2.54    3.69
  -3  -6 -11    7.84    4.53
   3  -6 -11   14.22    4.82
  -3   6 -12    1.38    1.56
  -3  -6 -12   -1.51    3.40
  -3  -6  12   -2.78    3.84
   3  -6 -12    3.40    3.00
   3   6 -12    3.49    4.82
  -3   6 -13   19.50    7.06
  -3  -6 -13   32.35   10.44
  -3  -6  13   35.78    9.78
   3  -6 -13   34.75    8.62
   3   6 -13   25.08    8.11
  -3   6 -14   43.66   11.24
  -3  -6 -14   46.46   11.41
  -3  -6  14   34.56    8.20
   3  -6 -14   32.92    9.27
   3   6 -14   31.61    9.52
  -3  -6 -15    5.11    4.45
   3  -6  15    3.30    5.38
  -3  -6  15   -0.14    5.19
   3   6 -15    0.24    2.06
   3  -6 -15   10.19    5.40
  -3   6 -15   -0.33    2.07
  -3  -6 -16   -2.15    3.57
  -3   6 -16    5.87    5.05
   3  -6 -16   -0.56    1.34
   3  -6  16   -2.30    2.97
  -3  -6  16   -0.44    1.87
   3   6 -16   -0.02    3.94
  -3  -6 -17   18.39    9.91
  -3   6 -17    3.97    5.07
   3  -6 -17   11.14    6.39
   3  -6  17    8.01    6.24
  -3  -6  17   10.28    4.89
   3   6 -17    9.20    6.20
  -3   6 -18   10.77    4.54
   3  -6  18    9.96    6.44
   3  -6 -18    4.14    4.01
  -3  -6  18    4.25    2.45
   3   6 -18    0.13    2.74
  -3  -6 -18   16.25    9.01
  -3  -6  19    8.04    5.62
  -3   6 -19   -1.25    2.42
   3  -6 -19    1.30    3.52
   3  -6  19   -2.22    2.65
  -3  -6 -19    2.39    0.59
   3   6 -19    6.74    5.18
  -3   6 -20    2.47    2.28
   3  -6 -20   -0.61    3.44
   3  -6  20   12.81    7.21
  -3  -6  20    4.78    4.43
   3   6 -20   11.37    5.65
  -3  -6 -20   11.12    8.61
   3  -6  21   -0.89    3.67
   3  -6 -21   -0.56    3.25
  -3  -6  21   -3.05    3.68
  -3  -6 -21   -1.16    5.07
  -3   6 -21   -1.01    3.30
   3   6 -21   -1.84    3.92
  -3   6 -22   -3.28    5.30
   3  -6 -22    4.26    4.64
   3  -6  22   -1.12    2.25
  -3  -6  22    4.92    7.01
   3   6 -22    2.11    6.00
  -3  -6 -22   18.11   12.32
  -3  -6 -23    4.17    5.22
  -3   6 -23   -1.51    5.12
   3  -6  23   -2.86    5.22
   3  -6 -23   14.23   10.96
  -3  -6  23    1.65    4.72
   3   6 -23    1.20    4.27
  -3   6 -24    1.71    5.77
   3  -6  24   12.42    7.69
  -3  -6 -24    1.42    6.13
   3   6 -24    3.35    6.26
  -3  -6  24   -0.65    4.64
  -3   6 -25   -1.26    3.18
   3  -6  25   -4.46    8.36
  -3  -6  25    4.33    3.56
  -3  -6 -25    9.58    9.64
   3   6 -25    6.07    4.88
  -3   6 -26    3.82    5.97
   3  -6  26   -0.03    3.82
  -3  -6 -26    4.44    4.50
  -3  -6  26    0.15    5.53
   3   6 -26    0.79    2.20
  -3   6 -27    0.57    5.83
   3  -6  27   -1.49    3.06
  -3  -6  27   -6.45    6.26
   3   6 -27    0.79    3.54
  -3  -6 -27   10.38    8.59
  -3   6 -28   11.91    7.04
  -3  -6 -28   -0.43    0.95
  -3  -6  28    9.79    5.94
   3  -6  28   -3.55    4.12
   3   6 -28    2.89    4.01
  -3   6 -29    1.41    2.07
  -3  -6 -29   17.58    9.80
  -3  -6  29   -3.57    4.51
   3  -6  29   12.67    7.34
   3   6 -29   15.31    8.71
  -3  -7   0   -0.01    1.36
   3  -7   0    0.75    2.20
   3  -7   1  402.69   25.76
   3  -7  -1  403.23   23.44
  -3  -7  -1  387.51   29.22
  -3  -7   1  434.43   31.26
  -3  -7   2   11.47    5.06
   3  -7   2    9.10    4.77
   3  -7  -2    8.24    2.98
  -3  -7  -2   21.80    7.67
   3  -7  -3  552.48   28.89
  -3  -7  -3  544.56   35.54
  -3  -7   3  533.17   34.14
  -3  -7   4  877.02   44.16
   3  -7  -4  904.94   37.33
  -3  -7  -4  962.02   47.79
  -3  -7  -5  869.04   45.10
  -3   7  -5  971.58   43.62
   3  -7  -5  854.50   36.55
  -3  -7  -6  131.18   17.30
  -3  -7   6  112.52   17.37
   3  -7  -6  136.92   15.44
  -3   7  -6  120.23   15.68
  -3  -7   7    1.33    2.48
   3  -7  -7    5.39    4.34
  -3  -7  -7   -2.72    3.76
  -3   7  -7   -1.53    1.93
   3  -7  -8  222.79   20.90
  -3   7  -8  221.34   21.65
  -3  -7  -8  221.34   23.45
   3  -7  -9  438.41   29.22
  -3   7  -9  378.57   29.35
   3  -7 -10   34.35    8.26
  -3  -7 -10   35.75   10.02
   3   7 -10   47.86   10.83
  -3   7 -10   39.11    9.42
   3  -7 -11   -0.50    1.62
  -3  -7 -11    3.71    4.29
  -3  -7  11    5.28    5.35
   3   7 -11    3.21    1.76
  -3   7 -11    3.77    5.19
   3  -7 -12   47.90   11.06
  -3  -7  12   41.89   10.76
   3   7 -12   93.54   16.76
  -3   7 -12   79.58   13.72
  -3  -7 -12   51.30   12.21
   3  -7 -13  589.48   37.96
  -3  -7  13  613.74   41.29
   3   7 -13  674.86   45.78
  -3   7 -13  629.95   42.39
  -3  -7 -14   18.26    7.60
  -3  -7  14   21.29    8.17
  -3   7 -14   17.03    8.24
   3   7 -14   12.10    6.72
   3  -7 -14   16.63    6.31
  -3  -7 -15   11.81    9.20
  -3   7 -15    3.10    1.54
   3  -7 -15    7.16    4.40
  -3  -7  15    2.16    4.20
   3   7 -15    7.62    4.74
  -3   7 -16   21.19    7.19
  -3  -7 -16   24.38    9.02
   3   7 -16   24.10    9.19
  -3  -7  16   22.19    8.44
   3  -7 -16   15.53    7.06
   3  -7 -17  235.79   28.29
  -3  -7 -17  187.21   25.28
  -3  -7  17  143.03   20.86
  -3   7 -17  228.26   26.67
  -3  -7 -18    6.16    2.75
  -3  -7  18    8.70    4.53
  -3   7 -18    6.47    2.90
   3   7 -18   -2.15    0.91
   3  -7  18    1.75    5.65
   3  -7 -18   14.86    4.86
   3  -7  19   89.25   17.25
   3  -7 -19   94.65   17.83
  -3  -7 -19  118.15   20.60
  -3   7 -19  100.17   18.82
   3   7 -19  142.27   22.25
  -3   7 -20    9.84    6.29
   3  -7  20   10.15    6.43
   3  -7 -20   -3.63    6.09
  -3  -7  20   10.88    3.72
   3   7 -20   19.84    7.68
  -3  -7 -20    6.47    7.04
  -3   7 -21   26.87   10.69
  -3  -7  21   27.03    8.83
   3  -7  21   37.27   12.62
  -3  -7 -21   36.35   11.24
   3   7 -21   32.64   11.86
  -3   7 -22   17.18    6.91
   3  -7  22    6.37    4.33
  -3  -7  22    9.55    5.99
   3   7 -22   17.41    8.31
  -3  -7 -22    8.30    3.87
  -3  -7 -23  124.77   22.41
  -3  -7  23  164.90   23.11
   3  -7  23  156.60   24.11
   3   7 -23  160.53   24.18
  -3   7 -23  111.60   20.47
  -3   7 -24   -1.51    4.10
  -3  -7 -24    3.19    5.82
  -3  -7  24    4.84    5.95
   3  -7  24   -5.75    6.62
   3   7 -24    0.99    2.73
  -3  -7  25    7.85    6.58
  -3   7 -25    6.20    0.88
  -3  -7 -25   20.49    9.56
   3  -7  25   13.51    8.37
   3   7 -25   15.30    8.26
  -3   7 -26   -1.50    3.33
   3  -7  26   -2.45    2.07
  -3  -7 -26    4.93    8.07
  -3  -7  26   12.57    9.46
   3   7 -26   -1.12    5.14
  -3  -7  27  100.60   19.17
  -3  -7 -27  120.83   22.96
   3  -7  27  127.83   22.78
   3   7 -27   83.73   19.30
  -3   7 -27  104.83   22.37
  -3   7 -28    3.61    4.10
  -3  -7 -28    9.12    9.55
  -3  -7  28   10.22    6.38
   3  -7  28    3.09    3.83
   3   7 -28    4.91    3.16
   3  -8   0    1.48    4.55
  -3  -8   0   -2.56    2.02
  -3  -8   1   17.40    6.87
  -3  -8  -1   13.36    6.92
   3  -8   1   13.85    5.51
   3  -8  -1   13.35    5.40
   3  -8  -2   -0.37    2.77
   3  -8   2    0.09    2.37
  -3  -8   2    3.26    5.46
  -3  -8  -2   -0.93    2.83
   3  -8   3   80.42   13.12
   3  -8  -3   76.32   12.04
  -3  -8  -3   86.04   14.22
  -3  -8   3  100.12   15.64
   3  -8  -4   30.06    6.82
  -3  -8   4   22.33    7.94
  -3  -8  -4   29.03    8.24
  -3  -8   5   23.80    8.36
   3  -8  -5   28.44    7.52
  -3  -8   6   35.48   10.04
  -3  -8  -6   59.71   12.21
  -3   8  -6   51.12   10.71
   3  -8  -6   46.84    9.63
  -3  -8   7   14.21    6.54
   3  -8  -7   10.97    5.85
  -3   8  -7   20.40    6.21
  -3  -8  -7    8.72    5.43
  -3  -8   8   71.08   14.12
  -3   8  -8   48.31   11.25
   3  -8  -8   59.61   10.64
  -3  -8  -8   73.54   14.56
   3  -8  -9  113.91   15.86
  -3   8  -9  101.18   14.96
  -3  -8  -9  120.26   18.48
   3  -8 -10    9.62    4.43
  -3  -8 -10   17.49    5.99
  -3   8 -10   24.66    8.10
   3  -8 -11    1.46    4.09
  -3  -8 -11    9.39    6.19
  -3   8 -11    8.18    2.81
   3  -8 -12    6.96    4.55
  -3  -8 -12   15.79    6.85
   3   8 -12   14.27    7.45
  -3   8 -12    8.70    5.70
  -3  -8 -13   12.40    8.30
   3   8 -13    5.20    4.75
  -3   8 -13   -3.86    3.88
   3  -8 -13    5.90    4.14
  -3  -8 -14   -3.31    4.25
   3   8 -14    2.35    4.36
   3  -8 -14   -3.25    5.54
  -3  -8  15   33.54   11.08
  -3  -8 -15   34.48   10.96
   3   8 -15   63.16   14.29
   3  -8 -15   37.51   10.14
  -3   8 -15   71.03   13.59
  -3  -8  16    6.29    5.14
  -3  -8 -16   -3.14    5.15
   3   8 -16   -3.45    3.37
  -3   8 -16   -0.06    2.89
  -3  -8 -17   48.95   14.18
  -3  -8  17   32.95   11.16
   3   8 -17   28.13    9.79
  -3   8 -17   55.96   13.36
  -3  -8 -18    5.60    1.97
  -3  -8  18   -0.86    4.66
   3   8 -18    7.07    6.80
  -3   8 -18    3.39    2.71
  -3   8 -19    8.57    6.18
  -3  -8 -19   12.88    5.34
  -3  -8  19    3.24    3.70
   3   8 -19    6.79    4.88
  -3   8 -20    8.31    4.12
  -3  -8  20    7.48    4.72
   3   8 -20   13.73    7.78
  -3  -8 -20   10.69    5.77
  -3   8 -21   -0.49    0.80
   3   8 -21   -4.26    6.14
  -3  -8 -21   -3.12    3.03
  -3   8 -22   -0.83    4.19
  -3  -8  22    1.39    1.28
   3   8 -22    4.70    6.28
  -3  -8 -22    3.64    3.24
  -3   8 -23   -0.96    3.54
   3   8 -23    4.31    2.74
  -3  -8  23   -2.30    4.05
  -3  -8 -23    0.18    2.44
  -3   8 -24   13.32    6.56
  -3  -8  24   13.44    7.72
  -3  -8 -24    2.83    1.93
   3   8 -24   -0.36    1.58
  -3   8 -25   -0.86    4.92
   3  -8  25    7.58    6.23
  -3  -8  25   -1.09    6.82
  -3  -8 -25    6.96    8.25
   3   8 -25    5.29    7.41
  -3   8 -26   -6.30    6.15
  -3  -8  26    1.99    4.92
   3  -8  26   -1.69    5.67
  -3  -8 -26   -2.93    3.62
   3   8 -26    6.59    0.64
  -3   8 -27    1.51    5.70
   3  -8  27   -6.28    5.71
  -3  -8 -27    5.87    6.79
  -3  -8  27   -1.70    5.14
   3   8 -27    0.97    4.05
   3  -9   0    4.21    4.88
  -3  -9   0   -1.08    1.48
  -3  -9  -1  398.11   32.88
   3  -9  -1  464.16   30.62
  -3  -9   1  449.56   33.92
   3  -9   1  514.10   33.27
   3  -9  -2   63.53   11.15
  -3  -9  -2   58.00   12.79
  -3  -9   2   72.55   14.23
   3  -9   2   62.87   11.14
   3  -9  -3   -2.04    3.85
  -3  -9  -3    1.13    2.40
   3  -9   3    3.21    3.45
  -3  -9   3    2.46    3.27
   3  -9  -4  159.05   18.81
   3  -9   4  134.56   18.35
  -3  -9  -4  176.93   22.56
  -3  -9   4  197.05   22.59
   3  -9  -5  686.08   38.63
   3  -9   5  700.91   43.04
  -3  -9   5  574.32   38.51
  -3  -9   6  179.30   21.91
  -3  -9  -6  146.02   20.93
   3  -9  -6  116.72   15.72
  -3  -9   7   92.58   16.84
  -3  -9  -7  137.95   19.84
   3  -9  -7  116.42   15.94
  -3  -9   8   62.81   13.92
  -3   9  -8   66.74   13.29
  -3  -9  -8   87.87   16.18
  -3  -9   9  302.60   31.35
  -3   9  -9  232.86   26.83
   3  -9  -9  228.60   22.83
  -3  -9  -9  288.28   29.62
  -3  -9 -10  173.51   23.85
   3  -9 -10  106.03   17.46
  -3   9 -10  149.10   20.71
   3  -9 -11   71.12   14.31
  -3  -9 -11   51.60   12.83
  -3   9 -11   46.03   11.00
   3  -9 -12    2.98    2.83
  -3  -9 -12   12.22    6.28
  -3   9 -12    5.58    4.28
  -3  -9 -13   63.55   14.15
  -3   9 -13   82.23   15.20
  -3  -9 -14   48.93   14.21
   3   9 -14   57.28   13.62
  -3   9 -14   31.56    9.96
  -3  -9 -15    2.29    1.31
   3   9 -15    4.56    1.06
  -3   9 -15    9.63    7.73
  -3  -9 -16  126.23   21.81
   3   9 -16  197.01   26.71
  -3   9 -16  210.17   25.67
  -3  -9 -17  104.02   20.90
   3   9 -17  109.66   20.10
  -3   9 -17  150.05   22.05
  -3  -9 -18    4.53    4.17
   3   9 -18   -2.84    4.34
  -3   9 -18    3.35    4.00
  -3  -9 -19   57.20   13.73
  -3  -9  19  106.11   19.85
   3   9 -19   76.79   17.09
  -3   9 -19   96.09   19.28
  -3  -9 -20   57.19   14.08
   3   9 -20   75.46   17.50
  -3  -9  20   61.54   15.26
  -3   9 -20   51.32   13.50
  -3  -9  21    7.76    5.98
   3   9 -21   22.56    5.80
  -3   9 -21   41.99   12.67
  -3  -9 -21   28.29   12.14
   3   9 -22   -3.97    5.31
  -3  -9  22   -0.39    4.08
  -3  -9 -22   -0.33    4.66
  -3   9 -22    7.78    6.29
  -3  -9 -23  114.03   22.02
  -3  -9  23  128.80   23.04
   3   9 -23  110.59   21.64
  -3   9 -23  104.90   21.00
  -3  -9  24   22.20    6.78
  -3  -9 -24   17.61    7.79
   3   9 -24   24.66   10.84
  -3   9 -24   29.03   10.56
  -3  -9 -25   10.59    7.26
  -3  -9  25   14.85    8.58
   3   9 -25    9.08    4.99
  -3   9 -25   10.33    7.21
  -3  -9 -26    4.44    7.30
  -3  -9  26   18.45   10.30
   3   9 -26   13.61    7.75
  -3   9 -26   20.71    8.84
  -3 -10   0    0.44    4.75
   3 -10   0   -0.59    2.77
   3 -10   1    0.02    2.34
  -3 -10  -1    7.26    5.23
   3 -10  -1    8.32    4.69
  -3 -10   1    1.40    3.40
  -3 -10   2   -1.39    3.64
   3 -10  -2   -0.45    0.95
  -3 -10  -2    1.38    3.73
   3 -10   2   -2.18    3.35
   3 -10  -3   13.65    7.03
  -3 -10   3   20.97    7.01
  -3 -10  -3    7.67    5.73
   3 -10   3    6.04    3.82
  -3 -10   4    1.16    1.80
   3 -10  -4    1.85    2.69
   3 -10   4    1.15    2.05
  -3 -10  -5    1.79    4.41
   3 -10   5    2.38    5.22
  -3 -10   5    3.20    2.03
   3 -10  -5    1.00    1.74
  -3 -10  -6    1.37    3.92
  -3 -10   6    3.62    2.97
   3 -10   6    2.22    2.58
   3 -10  -6    2.44    3.97
  -3 -10   7   27.23   10.25
   3 -10  -7   47.77   12.50
  -3 -10  -7   50.54   12.97
  -3 -10  -8   90.85   17.65
  -3 -10   8   94.43   16.64
  -3 -10   9   49.64   12.10
  -3 -10  -9   38.40   11.05
  -3  10 -10   46.81   12.20
  -3 -10 -10   24.46    8.93
  -3 -10  10   53.38   13.16
  -3 -10 -11   -4.22    5.80
  -3  10 -11    0.53    3.30
  -3 -10  11    1.85    6.21
  -3 -10 -12    8.71    6.49
  -3  10 -12   -1.12    3.23
  -3 -10 -13   -1.34    1.34
  -3  10 -13    1.02    0.99
  -3  10 -14    9.83    5.00
  -3 -10 -14   18.11    7.47
  -3 -10 -15   -1.46    1.16
  -3  10 -15   -1.97    1.39
  -3 -10 -16   24.93    9.66
  -3  10 -16   15.94    7.37
  -3 -10 -17   12.27    7.64
   3  10 -17    5.53    4.52
  -3  10 -17    9.67    7.71
  -3 -10 -18   14.93    7.05
   3  10 -18    8.20    6.76
  -3  10 -18   29.87    9.06
  -3 -10 -19    7.53    6.67
   3  10 -19    3.09    5.06
  -3  10 -19    7.39    6.21
  -3 -10 -20    8.37    7.07
   3  10 -20    3.79    4.19
  -3  10 -20   11.19    8.22
   3  10 -21    1.92    2.45
  -3  10 -21    0.37    6.12
  -3 -10 -21    4.09    4.16
   3  10 -22    3.68    6.46
  -3  10 -22    2.45    3.79
  -3 -10 -22   14.99    7.27
  -3  10 -23   -0.90    3.63
   3  10 -23    2.20    2.59
  -3 -10 -23   -0.78    3.08
   3  10 -24    6.31    1.12
  -3  10 -24    2.14    8.60
  -3 -10 -24   -2.40    2.66
  -3 -10 -25   -3.37    5.04
  -3  10 -25   -3.21    2.94
  -3 -11   0    2.47    2.59
   3 -11   0   -0.60    3.86
   3 -11   1   28.35    9.14
  -3 -11   1   20.80    9.20
   3 -11  -1   26.29    8.95
  -3 -11  -1   24.16    8.23
  -3 -11   2  138.68   19.59
   3 -11  -2  144.07   19.99
  -3 -11  -2  134.24   19.98
   3 -11   2  149.41   20.53
  -3 -11   3   23.71   10.15
   3 -11  -3   37.12   11.60
  -3 -11  -3   36.17   10.57
   3 -11   3   21.03    6.66
  -3 -11  -4   42.13   12.23
  -3 -11   4   31.53   11.73
   3 -11   4   23.35    7.86
  -3 -11  -5   30.03    8.51
   3 -11   5   29.66    8.55
  -3 -11   5   38.44   10.81
   3 -11   6   77.35   14.95
  -3 -11  -6   76.14   14.74
  -3 -11   6   54.27   12.85
  -3 -11   7    1.58    0.95
   3 -11   7    0.84    3.78
  -3 -11  -7    5.13    5.55
   3 -11   8   -1.34    1.87
  -3 -11   8    1.17    4.40
  -3 -11  -8    1.40    3.91
  -3 -11  -9   11.62    6.71
  -3 -11   9   -2.92    1.73
  -3 -11 -10    7.10    6.64
  -3 -11  10   10.06    4.87
  -3 -11  11    5.10    5.54
  -3 -11 -11    1.57    1.97
  -3 -11  12  201.06   28.14
  -3  11 -12  164.96   23.09
  -3 -11 -12  201.07   28.12
  -3 -11 -13    6.26    5.91
  -3  11 -13    7.55    5.95
  -3 -11  13    8.61    5.97
  -3 -11 -14   34.87   10.85
  -3  11 -14   12.28    5.47
  -3 -11  14   33.75   11.77
  -3 -11 -15    7.82    7.24
  -3  11 -15   16.20    6.97
  -3 -11 -16   16.98    7.90
  -3  11 -16   22.07    9.57
  -3 -11 -17   -0.16    2.63
  -3  11 -17    3.67    4.77
  -3 -11 -18   -4.81    5.76
  -3  11 -18    0.84    5.94
  -3 -11 -19   25.06   11.54
  -3  11 -19   13.38    6.88
  -3 -11 -20   44.45   14.88
  -3  11 -20   59.87   14.32
  -3 -11 -21   -4.07    7.67
   3  11 -21    2.77    5.62
  -3  11 -21   10.53    7.49
  -3 -11 -22   54.30   15.66
   3  11 -22   57.48   14.84
  -3  11 -22   23.65   14.06
   3  11 -23   -3.86    4.53
  -3  11 -23    8.04    4.60
  -3 -11 -23    2.18    9.28
  -3 -12   0   -2.82    4.86
  -3 -12  -1   16.63    9.34
  -3 -12   1    5.13    1.69
   3 -12   1   17.80    9.28
   3 -12   2    2.35    2.32
  -3 -12  -2    8.36    5.06
  -3 -12   3    0.39    2.43
   3 -12   3    3.40    4.42
  -3 -12  -3   -2.82    5.14
  -3 -12  -4    1.01    2.48
  -3 -12   4    1.09    2.79
   3 -12   4    1.58    4.72
  -3 -12  -5    3.73    3.53
  -3 -12   5    1.33    5.18
   3 -12   5    0.28    0.84
  -3 -12  -6    8.00    7.31
   3 -12   6    2.70    4.25
  -3 -12   6    2.22    4.97
   3 -12   7    5.22    3.51
  -3 -12   7    3.91    3.61
  -3 -12  -7    3.22    3.75
   3 -12   8   -2.19    2.79
  -3 -12   8    0.84    3.43
  -3 -12  -8    4.61    4.35
  -3 -12   9   19.58    8.13
  -3 -12  -9   15.50    8.49
   3 -12   9   11.11    7.05
   3 -12  10   20.73    9.43
  -3 -12 -10    9.26    5.08
  -3 -12  10    8.94    5.14
  -3 -12 -11    8.27    9.26
  -3 -12  11   -4.19    5.18
  -3 -12  12    7.89    7.03
  -3 -12 -12    6.00    6.84
  -3 -12  13    7.68    4.48
  -3 -12 -13   -2.12    3.29
  -3 -12 -14    4.20    8.37
  -3 -12  14    4.64    5.73
  -3 -12 -15    2.16    7.37
  -3 -12  15    0.72    3.25
  -3  12 -15   16.08    9.34
  -3 -12 -16   -3.64    4.80
  -3 -12  16    3.41    2.63
  -3  12 -16   -1.72    5.06
  -3 -12 -17   22.37    8.94
  -3 -12  17   52.65   16.24
  -3  12 -17   50.34   15.00
  -3 -12 -18    9.86    9.79
  -3  12 -18   16.38    9.06
  -3 -12 -19    4.40    8.17
  -3  12 -19    2.33    9.55
  -3 -12 -20   -7.50    8.86
  -3  12 -20    0.03    0.73
  -3 -12 -21   -2.31    3.02
  -3  12 -21   10.60    7.57
  -3 -13   0    1.66    7.21
  -3 -13  -1   59.17   14.25
  -3 -13   1   48.30   12.44
  -3 -13  -2   80.06   16.85
  -3 -13   2   71.04   14.71
  -3 -13  -3   -0.23    1.69
  -3 -13   3   -1.35    1.27
  -3 -13   4   35.24   10.86
  -3 -13  -4   27.71   10.01
  -3 -13  -5   53.23   13.60
  -3 -13   5   45.28   12.16
  -3 -13   6   -4.60    2.19
  -3 -13  -6    5.46    3.47
   3 -13   7   23.38   11.30
  -3 -13   7    9.82    7.43
  -3 -13  -7    3.76    5.86
   3 -13   8   23.75   10.44
  -3 -13   8   16.55    7.53
  -3 -13  -8   15.04    9.90
   3 -13   9   52.21   13.15
  -3 -13  -9   41.37   12.54
  -3 -13   9   48.13   13.43
  -3 -13  10    1.26    4.50
   3 -13  10   -2.09    4.01
  -3 -13 -10   -3.06    3.40
  -3 -13  11   24.38    8.75
  -3 -13 -11   26.43    8.92
   3 -13  11   18.89    8.41
  -3 -13  12   12.01    7.02
  -3 -13 -12    6.98    7.05
   3 -13  12    4.99    4.84
   3 -13  13   51.19   14.77
  -3 -13  13   67.01   15.93
  -3 -13 -13   69.31   16.66
  -3 -13 -14   -1.00    4.28
  -3 -13  14    0.16    1.56
  -3 -13  15   18.12    9.15
  -3 -13 -15    6.71    7.20
  -3 -13 -16   -3.36    3.29
  -3 -13  16    1.51    3.33
  -3 -13 -17    7.52    7.22
  -3 -13  17   24.25   11.47
  -3 -13 -18    2.16    3.67
  -3 -13  18    2.14    2.05
  -3  13 -18   -2.79    2.84
  -3 -13  19    7.89    5.45
  -3 -13 -19    6.48    2.03
  -3  13 -19    5.42    3.81
  -3 -14   0    4.86    3.62
  -3 -14   1    5.52    5.47
  -3 -14  -1   20.50    8.08
  -3 -14  -2    3.46    3.78
  -3 -14   2    4.10    4.70
  -3 -14  -3    0.39    2.49
  -3 -14   3   -2.17    4.78
  -3 -14  -4    0.86    1.86
  -3 -14   4   -4.29    2.74
  -3 -14  -5   -1.13    4.27
  -3 -14   5   -5.07    7.17
  -3 -14   6   39.12   12.67
  -3 -14  -6   10.78    7.08
  -3 -14   7    7.10    6.25
  -3 -14  -7    1.37    4.29
  -3 -14   8    9.05    6.97
  -3 -14  -8    1.42    2.28
  -3 -14   9    3.81    5.07
  -3 -14  -9   -0.71    3.96
  -3 -14 -10    0.62    1.26
  -3 -14  10    6.08    4.49
  -3 -14 -11   -3.77    5.56
  -3 -14  11   -2.13    6.32
  -3 -14  12    3.50    5.18
  -3 -14 -12    1.45    4.35
  -3 -14  13    3.25    6.82
  -3 -14 -13    5.73    7.23
   3 -14  14   17.35   12.08
  -3 -14  14   12.82    8.71
  -3 -14 -14    4.07    3.40
  -3 -14 -15    1.32    4.55
  -3 -14  15   -3.80    6.83
   3 -14  15    8.48    9.54
  -3 -14 -16    6.96    7.16
   3 -14  16   -0.32    2.22
  -3 -14  16    5.12    8.01
  -3 -15   0   -0.69    0.90
  -3 -15  -1    8.19    4.32
  -3 -15   1    8.00    6.95
  -3 -15  -2   80.35   18.45
  -3 -15   2   99.40   18.75
  -3 -15  -3   14.43    8.03
  -3 -15   3    5.23    5.84
  -3 -15  -4   53.26   14.94
  -3 -15   4   46.41   12.92
  -3 -15  -5    2.79    3.54
  -3 -15   5    4.91    5.69
  -3 -15   6   68.63   15.31
  -3 -15  -6   59.34   15.05
  -3 -15   7   11.89    7.84
  -3 -15  -7    6.02    5.35
  -3 -15   8   10.06    5.42
  -3 -15  -8    0.97    1.23
  -3 -15   9   -1.86    2.90
  -3 -15  -9   -1.87   11.05
  -3 -15  10    4.79    6.78
  -3 -15 -10   17.00    8.82
  -3 -15 -11    1.86    4.74
  -3 -15  11    3.28    6.26
  -3 -15  12   59.36   15.89
  -3 -15 -12   33.23   11.43
  -3 -16   0    0.70    3.03
  -3 -16  -1   10.08    6.49
  -3 -16   1   13.24    7.88
  -3 -16  -2    3.46    7.69
  -3 -16   2    3.80    4.62
  -3 -16  -3   -1.03    0.96
  -3 -16   3    9.75    6.63
  -3 -16  -4   -5.73    7.02
  -3 -16   4   -1.10    4.99
  -3 -16   5   -3.67    2.89
  -3 -16  -5   -0.54    0.96
  -4   0   0 5435.50   60.63
  -4   0   1   -0.28    0.51
  -4   0  -1   -0.31    1.55
  -4   0  -2  455.46   20.61
  -4   0   2  500.35   17.88
  -4   0  -3   -1.29    0.76
  -4   0   3   -0.19    0.92
  -4   0   4  599.31   21.41
  -4   0  -4  432.93   22.68
   4   0  -5    3.01    2.30
   4   0   5   -0.07    0.31
  -4   0  -5    2.31    2.90
  -4   0  -6   57.71    9.32
   4   0  -6   66.74    7.90
  -4   0  -7   -0.36    2.30
   4   0  -7    3.85    3.15
  -4   0  -8  285.43   21.17
   4   0  -8  387.22   21.22
   4   0  -9   -0.62    1.49
  -4   0  -9   -0.41    1.76
   4   0 -10  263.73   18.96
  -4   0 -11    0.13    2.76
   4   0 -11    0.64    0.17
  -4   0 -12  203.87   22.06
   4   0 -12  180.37   17.75
   4   0 -13   -1.04    2.19
  -4   0 -13   -0.36    2.28
  -4   0 -14 2074.99   72.08
   4   0 -14 1652.79   57.89
   4   0 -15    2.02    3.82
  -4   0 -15   -0.28    3.10
  -4   0 -16  284.42   27.64
   4   0 -16  248.68   24.38
   4   0 -17   -1.00    4.09
  -4   0 -17    1.23    3.37
   4   0 -18   48.93   10.96
  -4   0 -18   41.79   11.04
   4   0 -19    3.16    3.90
  -4   0 -19    4.65    5.36
   4   0 -20   32.85   10.17
  -4   0 -20   50.41   13.62
   4   0 -21   -2.14    2.03
  -4   0 -21    0.19    1.32
   4   0 -22   46.90   11.88
  -4   0 -22   51.14   15.19
   4   0 -23   -4.14    6.98
  -4   0 -23   -3.51    6.85
   4   0 -24    2.19    1.82
  -4   0 -24    2.71    4.99
   4   0 -25   -2.48    4.80
  -4   0 -25   -1.46    1.45
   4   0 -26    5.65    3.95
  -4   0 -26    0.56    2.75
   4   0 -27   -3.53    4.49
  -4   0 -27   -1.80    4.21
  -4   0 -28   37.10   12.34
   4   0 -28   22.26    8.52
   4   0 -29   -0.61    8.14
  -4   0 -29    0.12    3.18
   4   0 -30   21.89   10.40
  -4   0 -30   12.93    4.44
   4   0 -31    1.18    4.60
  -4   0 -31   -5.76    1.71
  -4  -1   0  189.85   13.56
  -4   1   0  234.29   10.38
  -4   1   1  508.03   13.72
  -4  -1  -1  420.13   20.20
  -4   1  -1  460.39   17.07
  -4  -1   1  444.20   20.16
  -4  -1   1  539.92   14.49
  -4  -1   2  213.53   13.77
  -4  -1  -2  245.11   16.16
  -4   1   2  230.08    8.41
  -4   1  -3   80.22    8.51
  -4   1   3   67.29    4.71
  -4  -1  -3   58.64    8.64
  -4  -1   3   70.53    7.84
  -4   1   4 1927.11   29.57
  -4  -1   4 2049.89   46.00
  -4   1  -4 1991.66   46.17
  -4  -1  -5  259.35   19.24
  -4   1  -5  259.81   17.93
   4  -1  -5  282.31   13.29
  -4  -1  -6   20.84    5.51
  -4   1  -6   31.68    6.97
   4  -1   6   15.59    3.67
   4  -1  -6   23.05    4.01
   4   1  -6   18.77    4.40
   4  -1  -7  113.39    9.78
  -4   1  -7  128.21   14.14
  -4  -1  -7   94.32   13.03
   4  -1   7  100.67    9.19
   4   1  -7   94.26   10.71
  -4  -1  -8  775.34   36.88
   4   1  -8  762.18   31.90
   4  -1  -8  700.90   26.67
   4  -1  -9    6.97    3.30
  -4   1  -9   12.57    4.69
  -4  -1  -9   13.43    6.36
   4   1  -9    7.24    3.29
  -4   1 -10  174.78   18.08
   4   1 -10  206.14   18.07
   4  -1 -10  162.33   14.70
  -4   1 -11  107.77   14.91
  -4  -1 -11   94.61   13.47
   4   1 -11  110.13   13.30
   4  -1 -11  106.44   12.73
  -4   1 -12  129.47   16.40
  -4  -1 -12  126.39   17.05
   4   1 -12  143.27   16.14
   4  -1 -12  152.05   16.23
   4   1 -13   39.15    8.30
  -4   1 -13   54.90   11.24
  -4  -1 -13   69.19   13.32
   4  -1 -13   61.00   11.12
   4   1 -14  308.88   25.52
  -4   1 -14  399.13   31.17
  -4  -1 -14  348.59   30.83
   4  -1 -14  409.99   29.02
  -4  -1 -15 1007.42   53.98
   4   1 -15  971.78   46.95
   4  -1 -15  975.19   47.56
  -4   1 -16  180.61   22.33
  -4  -1 -16  227.08   25.68
   4   1 -16  177.02   20.98
   4  -1 -16  171.79   20.38
   4   1 -17   34.28    9.22
   4  -1 -17   26.49    9.17
  -4   1 -17   33.98   10.14
  -4  -1 -17   38.22   10.16
  -4   1 -18  330.29   31.82
  -4  -1 -18  256.57   27.96
   4   1 -18  255.64   25.74
   4  -1 -18  253.28   26.25
   4   1 -19   -2.23    1.70
   4  -1 -19    0.70    5.45
  -4   1 -19    3.89    7.07
  -4  -1 -19    6.27    7.70
   4   1 -20   21.88    8.06
   4  -1 -20   20.77    8.31
  -4   1 -20   17.82    7.08
  -4  -1 -20   31.64   11.52
  -4   1 -21   73.91   16.33
   4   1 -21   54.54   13.07
   4  -1 -21   43.57   12.32
  -4  -1 -21   50.69   12.61
  -4  -1 -22  153.88   22.29
   4   1 -22  170.08   23.60
   4  -1 -22  167.85   24.28
   4   1 -23   -3.12    4.83
   4  -1 -23    1.39    4.32
  -4   1 -23    0.15    3.11
  -4  -1 -23    6.96    6.85
   4   1 -24   10.75    2.96
   4  -1 -24    5.96    1.84
  -4   1 -24    4.94    3.13
  -4  -1 -24    4.03    1.98
  -4  -1 -25   73.80   18.12
   4  -1 -25   69.13   16.13
  -4   1 -25   36.79   12.42
   4   1 -25   71.19   16.48
  -4   1 -26  100.55   19.44
  -4  -1 -26  123.56   23.30
   4   1 -26   91.66   19.04
   4  -1 -26  109.42   21.04
   4   1 -27    3.24    5.11
   4  -1 -27    3.63    5.61
  -4   1 -27   -3.68    5.56
  -4  -1 -27   11.58    9.06
   4   1 -28   24.10    8.75
   4  -1 -28   43.03   12.63
  -4   1 -28   29.55   11.87
  -4  -1 -28   47.11   13.19
   4   1 -29    6.75    3.12
   4  -1 -29   22.51    8.95
  -4   1 -29   15.38   10.04
  -4  -1 -29    8.81    8.64
   4   1 -30    7.87    7.84
   4  -1 -30  -11.26    6.98
  -4   1 -30    1.02    4.76
  -4  -1 -30    3.56    2.51
   4   1 -31    3.62    2.77
  -4   1 -31   39.42   13.39
  -4  -1 -31   23.77    9.65
  -4  -2   0  491.39   24.14
  -4   2  -1    6.60    1.81
  -4  -2   1    4.05    2.46
  -4   2  -2  378.85   15.72
  -4  -2  -2  378.71   21.94
  -4  -2   2  398.82   22.23
  -4   2  -3  868.47   26.63
  -4  -2  -3  936.43   35.51
  -4   2  -4 1781.40   43.76
  -4  -2   4 1690.28   47.51
  -4  -2  -4 1614.16   48.93
  -4   2  -5  104.59   10.81
  -4  -2  -5  124.80   13.72
  -4   2  -6  212.42   17.02
  -4  -2  -6  172.42   16.82
   4   2  -6  182.87   15.28
  -4  -2  -7  770.31   37.23
   4   2  -7  774.89   34.58
  -4   2  -8  136.69   15.07
  -4  -2  -8  129.18   15.56
   4  -2   8  103.84   11.58
   4  -2  -8  134.45   11.08
   4   2  -8  150.19   15.32
  -4  -2  -9    6.75    3.89
   4  -2  -9    4.92    2.71
   4  -2   9    7.91    3.13
  -4   2  -9    1.56    2.03
   4   2  -9    5.42    2.66
  -4  -2 -10    4.82    1.47
   4  -2 -10   10.75    3.43
  -4   2 -10   12.13    6.26
   4  -2  10    3.94    3.08
   4   2 -10    4.24    3.09
  -4   2 -11   65.02   11.60
  -4  -2 -11   47.16   10.64
   4  -2 -11   59.19    8.99
  -4   2 -12   95.61   14.66
   4   2 -12  101.03   13.63
  -4  -2 -12  121.32   17.78
   4  -2 -12  106.91   12.84
  -4   2 -13   88.73   14.80
  -4  -2 -13   77.58   13.19
   4   2 -13  102.71   14.89
   4  -2 -13   79.12   11.93
   4   2 -14   37.92    8.99
   4  -2 -14   43.19    8.98
  -4  -2 -14   58.10   11.42
  -4   2 -14   22.49    7.47
  -4   2 -15   98.88   17.01
  -4  -2 -15  120.73   18.05
   4  -2 -15  113.44   15.49
   4   2 -16   59.68   11.43
  -4   2 -16   60.16   13.74
  -4  -2 -16   68.41   16.56
   4  -2 -16   61.83   12.21
  -4   2 -17   72.33   14.94
  -4  -2 -17   49.74   10.73
   4   2 -17   72.43   14.35
   4  -2 -17   61.50   12.18
  -4   2 -18  149.35   21.51
  -4  -2 -18  133.21   21.88
   4   2 -18  130.53   19.47
   4  -2 -18  115.06   17.66
   4   2 -19    9.03    5.78
   4  -2 -19    3.44    4.37
  -4   2 -19    5.93    5.92
  -4  -2 -19    3.22    1.38
   4   2 -20    0.55    4.44
   4  -2 -20    5.08    6.38
  -4   2 -20    1.42    4.28
  -4  -2 -20    3.03    6.09
   4   2 -21   23.00    8.84
   4  -2 -21   23.68    8.65
  -4   2 -21   33.26   10.54
  -4  -2 -21   22.13    6.36
   4   2 -22    6.07    6.66
   4  -2 -22    5.66    6.85
  -4  -2 -22    2.23    3.32
  -4   2 -22    2.93    3.10
   4   2 -23   12.46    9.14
  -4  -2 -23   -1.01    4.18
   4  -2 -23   16.09    8.07
  -4   2 -23    7.94    7.94
   4   2 -24   -0.57    3.35
   4  -2 -24   -2.78    3.85
  -4   2 -24    1.78    2.30
  -4  -2 -24    1.45    6.84
   4   2 -25   -1.09    1.55
   4  -2 -25    1.81    4.97
  -4   2 -25   -3.99    5.69
  -4  -2 -25    2.37    5.07
   4   2 -26   18.52    7.98
   4  -2 -26   15.77    7.80
  -4   2 -26    8.98    5.90
  -4  -2 -26   25.14   10.66
   4   2 -27    2.50    5.19
   4  -2 -27   26.37   14.49
  -4   2 -27    4.42    5.56
  -4  -2 -27    9.03    8.49
   4   2 -28   -4.37    4.02
  -4   2 -28    2.01    4.45
  -4  -2 -28   -3.85    0.60
   4   2 -29    0.09    6.47
  -4  -2 -29    9.12    1.99
   4   2 -30    1.36    5.02
  -4   2 -30   -0.95    4.03
  -4  -2 -30    7.31    8.62
  -4  -3   0 1368.79   44.46
  -4  -3   1   18.90    5.02
  -4  -3  -1   24.35    6.40
  -4   3  -1   25.12    3.29
  -4  -3  -2   55.13    9.49
  -4   3  -2   65.73    6.28
  -4  -3  -3  393.76   24.39
  -4  -3   3  345.27   19.64
  -4   3  -3  365.47   17.87
  -4  -3   3  347.39   22.15
  -4   3  -4    2.61    2.01
  -4  -3   4   -1.13    0.88
  -4  -3  -4    0.41    1.22
  -4  -3   5  225.19   19.43
  -4  -3   5  192.48   15.39
  -4  -3  -5  218.79   19.46
  -4   3  -5  176.60   14.71
  -4  -3  -6  804.88   38.89
   4  -3  -6  760.19   19.63
  -4   3  -6  786.16   33.06
   4   3  -7  104.48   12.78
  -4  -3  -7  143.41   15.41
   4  -3  -7   98.08    8.73
  -4   3  -7  118.40   13.60
  -4  -3  -8  140.95   16.94
   4   3  -8  127.39   15.53
  -4   3  -8  125.54   14.78
   4  -3  -8  127.97   10.75
   4   3  -9  129.07   15.61
   4  -3   9   84.75   11.60
  -4  -3  -9  135.60   17.11
  -4   3  -9  110.21   14.65
   4  -3  -9  106.56   10.72
   4  -3 -10   34.14    6.47
  -4  -3 -10   25.50    7.47
  -4   3 -10   47.25   10.12
   4  -3  10   39.34    7.94
   4   3 -10   28.46    7.29
  -4  -3 -11  200.41   21.07
   4  -3  11  221.77   19.51
   4   3 -11  235.11   21.33
  -4   3 -11  212.26   21.17
  -4  -3 -12   17.20    6.80
  -4   3 -12   16.83    7.24
   4  -3 -12   19.67    4.72
   4  -3  12   12.69    5.42
   4   3 -12   19.99    6.59
  -4   3 -13    4.90    4.87
   4  -3 -13   16.42    5.83
   4   3 -13   12.42    4.32
   4  -3  13   13.39    5.20
  -4  -3 -13   17.69    6.78
   4  -3  14    2.17    2.44
  -4   3 -14    4.02    3.18
   4  -3 -14    7.66    3.85
  -4  -3 -14    5.34    1.59
   4   3 -14    4.63    3.44
  -4  -3 -15   86.88   15.75
   4  -3  15   58.49   11.85
   4   3 -15   74.48   13.49
  -4   3 -15   99.66   16.51
   4  -3 -15   88.69   13.98
  -4   3 -16   -0.34    3.00
   4  -3 -16   -2.64    4.73
  -4  -3 -16   -0.79    3.16
   4   3 -16    0.65    0.48
  -4  -3 -17  141.00   20.32
   4   3 -17  103.21   17.03
  -4   3 -17  119.33   19.06
   4  -3 -17  139.73   19.06
  -4   3 -18   50.82   13.10
   4  -3 -18   37.96    9.89
   4   3 -18   77.45   14.84
  -4  -3 -18   65.69   15.57
   4   3 -19   63.53   14.01
  -4  -3 -19   83.24   16.66
  -4   3 -19   71.90   14.98
   4  -3 -19   66.45   14.43
   4   3 -20   32.30   10.40
  -4  -3 -20   29.67   17.68
   4  -3 -20   43.36   11.66
  -4   3 -20   54.01   14.44
  -4  -3 -21  358.38   36.62
   4  -3 -21  323.12   32.36
  -4   3 -21  397.26   38.52
   4   3 -22    0.78    7.28
   4  -3 -22   -2.15    6.89
  -4   3 -22    2.28    5.34
  -4  -3 -22   -1.55    4.21
   4   3 -23   38.58   11.63
   4  -3 -23   15.36    6.23
  -4   3 -23   32.45   11.22
  -4  -3 -23   29.55    6.69
   4   3 -24    1.11    4.91
  -4  -3 -24    2.26    4.86
   4  -3 -24   10.95   11.44
  -4   3 -24   -1.68    4.84
   4   3 -25   49.96   15.07
  -4  -3 -25   29.48   10.08
  -4   3 -25   32.53   11.12
   4   3 -26    9.15    6.74
  -4   3 -26   22.27   11.47
  -4  -3 -26   37.81   13.81
   4   3 -27   -0.87    2.90
  -4   3 -27    6.83    2.85
  -4  -3 -27   14.22    8.57
   4   3 -28   -1.97    5.28
  -4   3 -28    2.94    5.20
  -4  -3 -28    0.82    3.63
   4   3 -29   28.59   10.74
  -4   3 -29   59.13   16.61
  -4  -3 -29   51.93   15.91
   4   3 -30    7.88    6.09
  -4   3 -30    1.94    1.34
  -4  -3 -30    0.86    1.90
   4  -4   0   16.41    2.82
  -4  -4   0   23.81    6.30
   4  -4  -1   27.44    2.91
  -4  -4  -1   32.72    7.68
  -4  -4   1   33.29    7.11
  -4   4  -1   33.79    4.93
  -4   4  -2   90.72    8.53
  -4  -4   2  119.65   14.45
  -4  -4  -3   52.76    9.32
  -4   4  -3   44.44    6.39
  -4  -4   3   43.74    8.09
  -4  -4  -4  117.68   14.48
  -4  -4   4  146.37   15.83
   4  -4  -4  120.13    6.62
  -4   4  -4  129.43   12.07
   4  -4  -5  751.00   19.74
  -4  -4   5  804.00   38.90
  -4  -4   5  755.78   36.65
  -4   4  -5  742.31   31.31
  -4  -4  -5  775.40   37.78
   4  -4  -6  104.00    8.72
  -4   4  -6  137.89   13.94
  -4  -4  -6  119.55   15.40
   4  -4  -7  209.05   12.87
  -4  -4   7  200.30   18.22
  -4   4  -7  191.19   17.76
  -4  -4  -7  242.66   22.77
  -4   4  -8    4.26    3.43
  -4  -4  -8    2.34    2.40
   4  -4  -8   -1.03    1.74
  -4  -4   8   -0.41    1.00
   4   4  -8    3.11    4.21
  -4   4  -9   -1.45    1.83
  -4  -4  -9    2.21    2.01
   4  -4  -9    0.54    1.44
  -4  -4   9   -1.38    1.33
   4   4  -9    0.25    3.98
   4  -4 -10   39.95    7.23
  -4   4 -10   29.11    7.72
  -4  -4 -10   49.24   11.36
   4   4 -10   40.79   10.23
  -4  -4 -11    8.05    6.80
  -4   4 -11    4.58    2.76
   4  -4  11    8.81    3.51
   4  -4 -11    9.97    3.21
   4   4 -11    3.63    1.24
  -4  -4 -12    6.55    3.23
  -4   4 -12    0.85    2.59
   4  -4 -12   -0.85    1.79
   4  -4  12    4.65    4.39
   4   4 -12    2.29    2.61
  -4  -4 -13    1.60    1.41
  -4   4 -13    5.35    4.26
   4  -4 -13    8.86    4.31
   4  -4  13    9.62    4.63
   4   4 -13    7.55    3.72
   4  -4 -14   73.27   12.21
   4   4 -14  106.92   16.57
  -4  -4 -14  105.81   16.33
  -4   4 -14  103.53   16.75
  -4   4 -15   20.31    8.72
   4  -4 -15   21.62    6.17
   4  -4  15   45.19   10.22
   4   4 -15   12.66    7.04
  -4  -4 -15   34.76    9.96
   4  -4  16   19.84    7.64
  -4   4 -16   13.94    8.44
  -4  -4 -16    7.87    5.25
   4  -4 -16   10.53    5.19
   4   4 -16   20.03    8.59
  -4   4 -17   15.33    7.34
   4  -4 -17    9.96    4.83
   4  -4  17   16.11    6.70
  -4  -4 -17   11.25    4.91
   4   4 -17   25.66    8.80
  -4   4 -18   45.96   12.16
   4  -4  18   66.48   13.29
   4  -4 -18   43.52   12.17
  -4  -4 -18   29.62   10.19
   4   4 -18   62.24   14.17
   4  -4 -19   94.14   16.34
  -4  -4 -19   60.37   15.39
   4  -4  19  101.12   16.13
   4   4 -19   62.81   13.73
   4   4 -20    3.74    5.34
  -4   4 -20    0.97    1.07
   4  -4 -20   -1.07    3.47
   4  -4  20    3.85    4.16
  -4  -4 -20    2.98    6.96
   4  -4  21    9.38    5.43
  -4   4 -21   14.09    7.75
   4  -4 -21   18.60    9.94
  -4  -4 -21    5.22    6.63
   4   4 -21   12.80    6.11
  -4   4 -22   21.02    9.19
  -4  -4 -22   17.91    7.14
   4  -4  22   25.37    9.32
   4   4 -22   10.20    6.39
  -4   4 -23   -0.18    1.87
   4  -4  23    1.46    6.14
  -4  -4 -23    4.59    4.77
   4   4 -23   -3.67    1.93
  -4  -4 -24   -2.45    6.69
  -4   4 -24   -3.74    5.26
   4  -4  24    3.87    5.33
   4   4 -24    0.81    3.30
  -4   4 -25   -0.65    6.27
   4  -4  25    9.77    6.35
  -4  -4 -25    5.24    4.08
   4   4 -25    1.69    1.37
  -4   4 -26    5.27    5.80
  -4  -4 -26    7.52    6.30
   4  -4  26    0.83    4.89
   4   4 -26   -4.25    6.13
  -4   4 -27    5.95    5.84
  -4  -4 -27   -4.37    4.52
   4  -4  27    9.78    9.20
   4   4 -27   -0.11    1.29
  -4   4 -28    7.82    8.43
   4  -4  28   10.04    8.03
  -4  -4 -28   12.64    7.11
   4   4 -28   12.87    3.63
  -4   4 -29   -2.20    2.26
  -4  -4 -29    2.95    6.71
   4  -4  29    9.27    8.15
   4   4 -29   -1.88    1.48
  -4   4 -30   -3.04    2.72
  -4  -4 -30   -0.62    3.40
   4  -4  30   14.39    8.42
   4   4 -30    7.92    7.11
  -4  -5   0  233.35   20.73
   4  -5   0  245.71   13.51
  -4  -5   1    0.21    1.51
   4  -5   1    0.38    1.51
   4  -5  -1    0.11    0.71
  -4  -5  -1   -1.25    2.43
   4  -5  -2  150.19    9.71
  -4  -5  -2  164.16   17.64
  -4  -5   2  127.47   16.35
  -4  -5  -3  232.03   21.93
  -4   5  -3  219.50   15.57
   4  -5  -3  252.52   12.49
  -4  -5   3  235.95   21.05
  -4  -5   4  105.64   13.85
  -4   5  -4   94.17   11.05
  -4  -5  -4  108.13   15.19
   4  -5  -4   99.40    8.54
  -4  -5  -5   81.46   13.19
  -4  -5   5   97.49   14.16
   4  -5  -5   59.32    6.78
  -4   5  -5   87.96   11.09
  -4   5  -6    8.30    3.40
  -4  -5   6   14.38    5.53
   4  -5  -6    7.30    2.56
  -4  -5  -6    8.44    4.41
  -4   5  -7    2.06    0.99
   4  -5  -7    2.58    1.26
  -4  -5  -8  200.00   21.71
   4  -5  -8  201.62   15.33
  -4  -5   8  164.02   17.96
   4  -5  -9  147.13   14.12
  -4  -5   9  143.31   17.40
   4   5  -9  153.91   17.70
  -4  -5  -9  148.39   19.09
  -4   5  -9  149.04   16.91
   4  -5 -10  259.50   19.53
  -4   5 -10  304.69   25.37
   4   5 -10  279.10   26.28
  -4  -5  10  275.52   24.94
  -4  -5 -10  321.76   27.93
  -4   5 -11   36.30    8.71
  -4  -5 -11   40.03   10.43
   4  -5 -11   36.53    7.55
  -4  -5  11   30.79    7.86
   4   5 -11   40.88   11.41
   4  -5 -12   98.86   13.48
  -4  -5 -12  115.07   17.40
  -4  -5  12   73.23   12.47
  -4   5 -12   66.80   12.95
   4   5 -13   26.93    7.96
  -4  -5 -13    7.85    6.43
  -4   5 -13   29.82    8.31
   4  -5 -13   22.43    6.10
  -4  -5  13   18.51    6.63
   4  -5 -14  435.18   29.77
  -4  -5 -14  366.23   32.93
   4   5 -14  383.69   31.75
  -4   5 -14  426.52   34.21
  -4  -5 -15    7.14    5.15
  -4   5 -15   -0.06    2.94
   4  -5 -15    2.45    3.26
   4  -5  15    8.14    6.42
   4   5 -15    2.91    2.55
   4  -5 -16  114.71   17.52
  -4   5 -16  113.72   18.85
  -4  -5 -16  118.46   19.35
   4   5 -16  106.10   17.39
  -4   5 -17   57.92   13.40
   4   5 -17   43.66   12.17
   4  -5  17   23.28    8.09
  -4  -5 -17   35.29   12.68
  -4   5 -18   77.00   15.55
   4  -5  18   66.22   13.94
   4   5 -18   92.57   17.40
  -4  -5 -18   67.85   14.57
  -4   5 -19    0.85    5.08
   4  -5  19    5.21    4.83
  -4  -5 -19    0.06    6.72
   4   5 -19    4.00    5.20
  -4   5 -20   39.68   12.29
   4  -5  20   71.09   14.87
  -4  -5 -20   40.80   11.47
   4   5 -20   37.30   11.86
  -4   5 -21    4.43    2.47
   4  -5  21    3.29    3.03
  -4  -5 -21   -1.39    4.97
   4   5 -21   -0.28    1.58
   4  -5  22  130.87   20.86
  -4  -5 -22   51.68   16.33
  -4   5 -22  121.54   21.56
   4   5 -22   67.29   15.93
  -4   5 -23    4.24    2.34
  -4  -5 -23   18.65    6.95
   4  -5  23   22.85    8.40
   4   5 -23   23.37    9.17
  -4   5 -24   43.59   13.98
   4  -5  24   16.05    8.64
  -4  -5 -24   42.07   13.76
   4   5 -24   43.76   14.40
  -4   5 -25   19.53   10.09
   4  -5  25    3.49    3.46
  -4  -5 -25   27.19   11.80
   4   5 -25   14.98    8.36
  -4   5 -26    7.56    6.79
  -4  -5 -26    7.71    8.04
   4  -5  26   -1.24    1.00
   4   5 -26    2.48    2.61
   4  -5  27    0.92    3.52
  -4   5 -27    0.48    3.94
  -4  -5 -27   10.23    3.79
   4   5 -27    2.55    3.19
  -4   5 -28    1.99    5.02
  -4  -5 -28   17.35    8.36
   4  -5  28    6.27    6.68
   4   5 -28   14.26    7.13
  -4   5 -29   -0.87    6.79
   4  -5  29    7.58    8.21
  -4  -5 -29    1.09    6.75
   4   5 -29    7.85    4.35
  -4  -6   0  223.80   21.21
   4  -6   0  192.67   14.64
   4  -6   1   36.00    6.44
   4  -6  -1   35.50    5.85
  -4  -6   1   34.15    8.81
   4  -6  -2  131.49   11.79
  -4  -6  -2  167.97   18.64
  -4  -6   2  164.08   19.11
  -4  -6  -3    1.36    1.01
  -4  -6   3    3.85    3.37
  -4   6  -3    6.35    3.19
   4  -6  -3    2.77    0.99
  -4  -6  -4  226.47   22.23
  -4   6  -4  266.75   20.33
   4  -6  -4  234.48   15.32
  -4  -6   4  188.48   19.32
  -4   6  -5   41.14    7.53
   4  -6  -5   25.53    5.39
  -4  -6   5   23.28    7.56
  -4  -6  -5   32.39    8.33
  -4  -6  -6  168.34   19.75
  -4  -6   6  176.24   21.26
   4  -6  -6  235.89   16.51
  -4   6  -6  199.98   18.95
  -4  -6   7   37.66    9.33
   4  -6  -7   30.42    6.29
  -4  -6  -7   39.09    9.99
  -4   6  -7   20.73    6.56
  -4  -6  -8    1.86    2.19
   4  -6  -8   -0.15    1.49
  -4   6  -8   -1.01    0.23
  -4   6  -9   14.31    6.22
   4  -6  -9    4.12    2.29
  -4  -6   9    8.41    5.04
  -4   6 -10   21.60    6.72
   4  -6 -10   41.59    8.72
  -4  -6 -10   34.13    9.29
  -4  -6  10   34.39   10.00
  -4   6 -11   23.61    7.48
   4  -6 -11   33.24    8.77
  -4  -6 -11   35.84    8.96
  -4  -6  11   28.07    7.33
   4   6 -11   29.81    9.49
   4   6 -12  132.70   19.26
  -4  -6  12  179.03   21.09
  -4  -6 -12  183.16   24.55
  -4   6 -12  119.98   16.85
  -4   6 -13    1.23    2.61
  -4  -6 -13    5.89    6.44
   4   6 -13   -0.14    1.12
  -4  -6  13    2.23    4.66
  -4   6 -14   15.71    6.79
  -4  -6 -14    4.04    4.45
  -4  -6  14   10.41    3.53
   4   6 -14   12.84    5.56
  -4  -6 -15  335.35   33.78
   4   6 -15  294.99   29.24
  -4   6 -15  288.69   28.63
  -4  -6 -16    0.82    5.41
  -4   6 -16   -2.20    3.01
  -4  -6  16   -1.83    3.30
   4   6 -16    0.27    2.86
  -4   6 -17   14.19    6.09
   4  -6  17   13.66    9.84
  -4  -6  17   15.55    7.59
   4   6 -17   15.29    7.87
  -4   6 -18   36.67   11.10
   4   6 -18   53.89   13.62
   4  -6  18   20.24    9.19
  -4  -6  18   36.51   11.21
  -4  -6 -18   42.01   11.97
  -4   6 -19   12.95    8.08
  -4  -6  19    1.90    2.54
   4  -6  19    4.81    6.41
   4   6 -19    5.40    3.99
  -4  -6 -19   10.26    6.41
  -4   6 -20   12.27    6.71
   4  -6  20    4.94    5.90
  -4  -6  20   12.51    4.01
  -4  -6 -20   15.45    5.46
   4   6 -20   13.82    8.59
  -4   6 -21   43.25   13.13
  -4  -6  21   35.45   10.78
   4  -6  21   40.89   12.18
  -4  -6 -21   34.50   10.56
   4   6 -21   37.66   11.23
  -4   6 -22   19.63    9.57
   4  -6  22   10.64    7.24
  -4  -6  22    9.23    5.61
  -4  -6 -22    2.19    2.52
   4   6 -22    5.44    5.37
  -4   6 -23   -2.06    3.61
   4   6 -23   -4.59    3.10
   4  -6  23    2.54    3.38
  -4  -6  23   11.09    8.31
  -4  -6 -23   11.01    7.70
  -4   6 -24    4.57    4.64
   4  -6  24    6.63    4.67
  -4  -6  24    7.88    3.35
  -4  -6 -24    1.85    2.57
   4   6 -24    8.66    5.48
  -4   6 -25   -1.69    3.32
   4   6 -25    1.26    5.93
   4  -6  25    0.45    4.41
  -4  -6 -25   -1.16    1.45
  -4   6 -26   25.73   11.75
   4  -6  26   35.64   11.13
  -4  -6 -26   46.36   15.92
  -4  -6  26   39.22   11.40
   4   6 -26   34.27   13.31
  -4  -6 -27    3.27    5.61
  -4   6 -27    9.38    6.14
   4  -6  27    6.10    3.71
  -4  -6  27    0.34    3.76
   4   6 -27   14.40    9.22
  -4   6 -28    0.09    8.09
  -4  -6 -28    1.17    6.02
   4  -6  28   -1.60    1.44
  -4  -6  28   -1.71    2.69
   4   6 -28    3.44    6.01
   4  -7   0   26.54    6.03
  -4  -7   0   51.01   10.54
  -4  -7  -1  109.03   16.27
   4  -7  -1   80.82   10.49
  -4  -7   1   90.71   14.02
   4  -7   1   75.98   10.21
   4  -7   2   19.97    5.65
  -4  -7   2   31.25    8.16
   4  -7  -2   12.17    4.17
  -4  -7  -2   30.46    7.94
   4  -7  -3 1111.26   38.22
  -4  -7   3 1020.63   49.66
  -4  -7  -4  324.57   27.87
  -4   7  -4  370.72   24.70
  -4  -7   4  223.28   23.52
   4  -7  -4  250.14   18.38
  -4  -7  -5   68.12   12.72
  -4  -7   5   46.94   10.41
  -4   7  -5   60.02   11.30
   4  -7  -5   37.46    7.94
  -4  -7  -6   91.86   14.88
  -4  -7   6   84.61   14.94
  -4   7  -6   59.05   11.05
   4  -7  -6   68.47    9.86
  -4   7  -7  147.89   17.27
  -4  -7  -7  197.62   23.16
  -4  -7   8    2.43    4.66
  -4  -7  -8    1.76    5.03
  -4   7  -8    0.54    1.67
  -4  -7  -9   11.54    7.24
  -4   7  -9    6.47    5.03
  -4  -7 -10   12.75    3.36
  -4   7 -10   17.05    6.52
  -4   7 -11  294.72   27.40
  -4  -7 -11  363.53   31.75
  -4   7 -12   12.47    5.56
  -4  -7 -12    6.94    4.88
  -4  -7  12    2.54    4.63
   4   7 -12    9.96    5.26
  -4  -7 -13  185.49   24.95
   4   7 -13  130.47   19.70
  -4   7 -13  203.22   24.66
  -4  -7 -14   25.73    9.24
  -4  -7  14   14.72    6.85
   4   7 -14   16.91    5.28
   4   7 -15  289.41   31.13
  -4  -7 -15  262.31   28.95
  -4  -7  15  178.45   23.18
  -4   7 -15  210.71   24.27
  -4   7 -16   11.94    7.00
  -4  -7 -16   16.52    5.54
  -4  -7  16    4.79    2.64
   4   7 -16   17.54    8.18
  -4   7 -17    5.62    3.65
  -4  -7 -17   13.18    7.35
  -4  -7  17    9.56    2.51
   4   7 -17   16.10    7.58
  -4  -7 -18   26.72    8.18
  -4   7 -18   27.05    8.79
  -4  -7  18   45.34   14.32
   4   7 -18   19.28    8.45
  -4   7 -19   44.18   11.93
  -4  -7  19   25.53   10.02
   4   7 -19   27.51   10.47
  -4  -7 -19   18.47    6.35
  -4   7 -20    9.40    6.14
  -4  -7  20   17.54    8.08
   4   7 -20    0.46    3.64
  -4  -7 -20   10.98    9.30
  -4  -7 -21   99.61   18.97
   4   7 -21  111.72   19.67
  -4   7 -21  113.60   21.18
  -4  -7  21  125.37   21.12
  -4   7 -22    1.39    5.50
   4  -7  22    8.62    6.49
  -4  -7  22    8.77    2.22
  -4  -7 -22    2.58    4.38
   4   7 -22   19.20    8.79
  -4   7 -23   16.05    8.66
   4   7 -23    3.28    4.43
   4  -7  23   13.64    7.43
  -4  -7  23    7.15    4.93
  -4  -7 -23    0.82    4.28
  -4   7 -24   21.11    8.98
   4  -7  24    8.44    4.14
  -4  -7  24   10.08    6.19
  -4  -7 -24    7.16    6.54
   4   7 -24   31.70   10.82
  -4   7 -25   34.86   12.50
   4  -7  25   26.02   12.23
  -4  -7  25   68.55   16.51
  -4  -7 -25   60.51   17.49
   4   7 -25   35.88   12.08
  -4   7 -26    1.04    5.03
   4  -7  26    5.56    8.52
  -4  -7  26    1.61    4.41
  -4  -7 -26    1.77    9.04
   4   7 -26    1.91    3.33
  -4   7 -27   -4.84    5.24
  -4  -7  27   -2.76    3.07
   4  -7  27   -1.45    4.04
  -4  -7 -27    5.36    5.45
   4   7 -27    2.45    4.98
  -4  -8   0  155.32   19.53
   4  -8   0  153.77   15.93
  -4  -8   1   14.79    6.69
   4  -8   1   15.80    5.24
  -4  -8  -1   11.24    7.35
   4  -8  -1   11.76    3.91
   4  -8   2   -0.37    1.15
  -4  -8   2    1.34    3.54
   4  -8  -2    5.22    4.88
  -4  -8  -2    3.18    3.25
   4  -8   3  232.62   21.52
  -4  -8  -3  267.85   26.48
  -4  -8   3  203.00   23.31
  -4  -8  -4   65.30   13.41
  -4  -8   4   81.91   14.66
  -4  -8  -5   -0.28    3.15
  -4  -8   5    2.10    3.44
  -4  -8   6   51.76   12.07
  -4  -8  -6   57.04   12.79
  -4   8  -6   35.60    8.79
  -4  -8  -7  158.55   20.59
  -4  -8   7  124.77   18.53
  -4   8  -7  165.58   20.40
  -4  -8   8  101.83   17.44
  -4   8  -8   75.10   13.43
  -4  -8  -8  119.77   18.01
  -4  -8   9   33.92   10.47
  -4  -8  -9   25.27    9.14
  -4   8  -9   29.80    8.96
  -4  -8  10    5.76    5.40
  -4  -8 -10    3.37    5.11
  -4   8 -10    4.23    4.96
  -4  -8 -11   33.20    9.69
  -4   8 -11   22.25    7.72
  -4  -8 -12    4.20    0.81
  -4   8 -12    6.68    5.55
  -4  -8 -13   16.58    8.16
  -4   8 -13    6.03    4.08
  -4  -8 -14    3.29    3.86
   4   8 -14    7.15    5.62
  -4   8 -14    5.59    5.33
  -4  -8 -15   13.84    3.63
  -4  -8  15   26.77   10.30
   4   8 -15   14.67    6.47
  -4   8 -15   27.06    9.38
  -4  -8 -16    4.53    6.43
  -4  -8  16    8.35    4.24
   4   8 -16   10.86    6.65
  -4   8 -16   16.54    7.71
  -4   8 -17   70.89   13.57
  -4  -8 -17   73.25   17.12
  -4  -8  17   47.31   12.10
   4   8 -17   66.45   15.68
  -4   8 -18   11.24    7.07
  -4  -8 -18    9.76    8.95
  -4  -8  18   10.23    6.47
   4   8 -18    9.11    7.53
  -4   8 -19   17.90    7.39
  -4  -8 -19   23.86    8.88
  -4  -8  19   13.79    6.49
   4   8 -19   17.89   10.51
  -4   8 -20   -1.30    4.18
  -4  -8  20    1.46    4.92
   4   8 -20   -3.38    4.22
  -4  -8 -20   -2.28    3.51
  -4   8 -21   45.72   11.74
  -4  -8  21   68.09   16.00
   4   8 -21   66.67   15.47
  -4  -8 -21   53.59   17.12
  -4   8 -22    2.08    2.81
  -4  -8  22   -3.29    4.02
   4   8 -22    1.68    5.90
  -4  -8 -22   12.95    9.73
  -4   8 -23   25.20   11.10
  -4  -8  23   11.10    7.27
  -4  -8 -23   18.40   10.32
   4   8 -23   14.24    8.72
  -4   8 -24   -6.04    7.34
  -4  -8  24   11.59    8.91
  -4  -8 -24    4.59    6.44
   4   8 -24    6.26    4.01
  -4   8 -25   16.65    8.75
  -4  -8  25   41.37   12.38
  -4  -8 -25   36.07   12.10
   4   8 -25   42.95   13.58
  -4   8 -26    0.81    6.89
  -4  -8  26   -5.87    5.25
  -4  -8 -26    4.96    6.58
   4   8 -26    7.05    5.46
  -4  -9   0  435.84   34.85
   4  -9   0    2.07    1.90
  -4  -9   1  139.10   19.41
  -4  -9  -1  120.51   18.89
   4  -9   1  188.43   19.99
  -4  -9  -2  194.78   23.25
  -4  -9   2  162.84   20.87
   4  -9   2  187.44   19.82
   4  -9   3  278.25   24.87
  -4  -9  -3  299.71   30.13
  -4  -9   3  293.57   28.68
  -4  -9   4  471.87   36.91
  -4  -9  -4  446.19   35.33
   4  -9   5    0.29    0.62
  -4  -9  -5    5.50    5.58
  -4  -9   5    1.44    1.15
  -4  -9  -6  162.47   21.43
  -4  -9   6  105.34   16.89
  -4  -9  -7  519.00   39.80
  -4  -9   7  378.54   32.61
  -4   9  -8   46.65   11.63
  -4  -9  -8   61.29   13.63
  -4  -9   9   65.20   15.45
  -4  -9  -9   46.93   10.91
  -4   9  -9   63.79   13.98
  -4  -9 -10    7.57    5.60
  -4  -9  10   13.16    7.08
  -4   9 -10    7.93    6.10
  -4  -9 -11   57.75   13.43
  -4  -9  11   59.38   14.47
  -4   9 -11   65.75   13.73
  -4  -9 -12    5.67    3.34
  -4   9 -12    2.27    3.65
  -4  -9 -13   21.78    9.58
  -4   9 -13   10.34    4.61
  -4  -9 -14   65.28   14.89
  -4   9 -14   44.94   11.94
  -4  -9 -15   56.25   15.54
  -4   9 -15   54.37   14.91
  -4  -9 -16    8.88    8.71
  -4   9 -16    2.99    5.44
   4   9 -17   68.58   15.93
  -4  -9 -17   79.41   16.79
  -4   9 -17   58.40   15.33
  -4  -9 -18   42.14   14.04
   4   9 -18   32.76   10.62
  -4   9 -18   59.37   14.66
  -4  -9 -19   -1.99    3.50
   4   9 -19    6.52    5.55
  -4   9 -19    0.88    1.60
  -4  -9 -20    9.14   10.93
   4   9 -20   -5.17    7.54
  -4  -9  20  -10.21    9.07
  -4   9 -20   -1.28    2.09
  -4  -9  21   18.67    9.32
   4   9 -21   31.10   10.33
  -4   9 -21   37.75   12.36
  -4  -9 -21   31.31   12.49
   4   9 -22   30.38   12.43
  -4  -9  22   48.51   13.72
  -4  -9 -22   23.56    8.80
  -4   9 -22   34.40   11.25
  -4  -9  23    5.26    3.71
   4   9 -23    4.26    4.74
  -4  -9 -23    6.36    5.27
  -4   9 -23    8.76    7.69
  -4  -9  24    2.28    2.18
   4   9 -24    1.46    3.07
  -4  -9 -24    3.41    4.02
  -4   9 -24   -6.70    7.22
  -4  -9  25   -0.85    2.19
  -4  -9 -25   16.68   11.25
   4   9 -25    9.82    8.76
  -4   9 -25   14.27    9.91
  -4 -10   0   35.52    9.96
  -4 -10  -1   10.44    7.55
  -4 -10   1   14.26    6.31
  -4 -10   2    9.44    3.77
  -4 -10  -2    5.41    3.83
  -4 -10   3   -0.81    2.54
  -4 -10  -3    2.04    6.28
  -4 -10  -4    4.38    4.63
  -4 -10   4    2.95    2.79
   4 -10   5   -1.05    2.93
  -4 -10  -5   -0.23    2.02
  -4 -10   5   -1.40    1.66
  -4 -10  -6  122.96   19.68
   4 -10   6  131.35   19.85
  -4 -10   6  160.09   23.29
  -4 -10   7    9.60    6.05
  -4 -10  -7   20.43    9.50
  -4 -10   8   80.97   15.96
  -4 -10  -8  134.89   20.42
  -4 -10   9   -1.99    1.99
  -4 -10  -9   -0.72    3.86
  -4  10  -9    1.73    3.85
  -4  10 -10   -0.33    4.56
  -4 -10 -10   -2.72    6.31
  -4 -10  10    1.86    3.86
  -4 -10  11   64.54   14.75
  -4 -10 -11   49.50   13.04
  -4  10 -11   47.86   12.41
  -4  10 -12   15.05    4.48
  -4 -10 -12    7.36    6.41
  -4 -10  12    9.08    5.45
  -4 -10 -13    4.90    3.43
  -4  10 -13    2.02    3.16
  -4 -10  13    5.20    2.62
  -4 -10 -14    9.58    7.34
  -4  10 -14    6.69    5.02
  -4 -10  14    5.95    6.11
  -4 -10 -15   -0.85    5.30
  -4  10 -15    1.46    6.13
  -4  10 -16    6.98    3.33
  -4 -10 -16   16.28    7.53
  -4 -10 -17    1.82    5.58
  -4  10 -17   13.45    7.25
  -4 -10 -18   17.50    8.01
  -4  10 -18   18.77    8.43
  -4 -10 -19    7.31    5.33
  -4  10 -19    4.62    1.75
  -4 -10 -20    7.86    5.95
   4  10 -20    3.33    3.39
  -4  10 -20   11.12   10.03
  -4 -10 -21    0.06    3.87
   4  10 -21   10.10    5.75
  -4  10 -21   -3.08    4.73
   4  10 -22   28.76   11.22
  -4  10 -22   21.62   10.58
  -4 -10 -22   37.03   12.94
   4  10 -23    0.33    1.27
  -4 -10 -23   -3.03    7.56
  -4  10 -23    2.63    7.14
   4  10 -24    0.35    4.32
  -4 -10 -24   11.34    7.22
  -4  10 -24    4.68    2.32
  -4 -11   0  238.69   27.95
  -4 -11  -1   25.19   10.33
  -4 -11   1   44.51   12.62
  -4 -11  -2    6.60    5.62
  -4 -11   2    2.30    2.40
  -4 -11   3   27.21    9.02
  -4 -11  -3   35.81    9.96
  -4 -11  -4  247.04   28.69
  -4 -11   4  252.20   28.20
  -4 -11  -5   36.48    8.70
  -4 -11   5   36.39   11.67
  -4 -11  -6  169.45   23.82
  -4 -11   6  172.27   24.53
  -4 -11   7    8.08    5.93
  -4 -11  -7   13.60    7.13
   4 -11   8    2.57    5.63
  -4 -11  -8   -1.07    2.80
  -4 -11   8    0.35    1.72
  -4 -11   9   13.43    6.26
  -4 -11  -9   16.16    8.53
  -4 -11  10  130.45   20.90
  -4 -11 -10  126.33   21.43
  -4 -11 -11    1.23    4.31
  -4 -11  11   -1.74    5.59
  -4 -11  12   14.20    6.83
  -4 -11 -12   12.03    6.48
  -4  11 -12   15.46    4.63
  -4 -11 -13    3.66    5.16
  -4 -11  13   15.52    7.57
  -4  11 -13   14.32    8.12
  -4 -11 -14   56.32   14.65
  -4  11 -14   70.43   16.11
  -4 -11  14   49.06   14.52
  -4 -11 -15   -4.64    5.30
  -4 -11  15   -0.94    2.95
  -4  11 -15    3.30    4.86
  -4 -11 -16    9.49    9.59
  -4  11 -16    5.95    4.17
  -4 -11  16    0.91    6.00
  -4 -11 -17    8.97    7.05
  -4  11 -17   -2.86    2.93
  -4 -11 -18   17.55    8.10
  -4  11 -18    9.11    6.15
  -4 -11 -19    2.00    8.18
  -4  11 -19   -0.22    4.11
  -4 -11 -20   13.24    9.89
  -4  11 -20    2.61    5.50
  -4 -11 -21    9.22    6.94
  -4  11 -21   11.81    8.80
  -4  11 -22   -0.48    3.49
  -4 -11 -22    6.75    2.70
  -4 -12   0   23.59    8.77
  -4 -12  -1    4.58    1.27
  -4 -12   1    3.20    3.40
  -4 -12  -2   12.48    5.21
  -4 -12   2   -0.25    5.48
  -4 -12  -3   33.24   11.92
  -4 -12   3   34.22   10.30
  -4 -12   4    6.82    5.52
  -4 -12  -4    0.26    5.22
  -4 -12  -5   -3.05    4.30
  -4 -12   5    2.24    1.88
  -4 -12   6   32.70   10.50
  -4 -12  -6   38.61   12.20
  -4 -12   7    8.23    5.22
  -4 -12  -7   12.79    6.60
  -4 -12   8    4.94    1.40
  -4 -12  -8    4.34    1.96
  -4 -12  -9   14.71    8.98
  -4 -12   9   13.84    7.29
  -4 -12  10   14.34    8.34
  -4 -12 -10    7.02    6.14
  -4 -12  11   15.18    8.12
  -4 -12 -11    9.05    4.61
  -4 -12 -12    7.78    8.74
  -4 -12  12    4.76    5.10
  -4 -12  13   -3.39    5.45
  -4 -12 -13    4.64    6.27
  -4 -12  14    4.28    2.28
  -4 -12 -14   14.07    7.17
  -4 -12 -15   -4.01    5.28
  -4 -12  15   -2.77    5.82
  -4  12 -15    3.89    2.23
  -4 -12 -16    1.39    2.87
  -4  12 -16    3.94    4.35
  -4 -12  16    2.92    4.51
  -4 -12  17    7.41    7.81
  -4 -12 -17    1.60    3.15
  -4  12 -17    1.25    1.06
  -4 -12 -18   25.64   11.10
  -4 -12  18    7.97    6.00
  -4  12 -18   10.70    8.17
  -4 -12 -19   -3.34    7.28
  -4 -12  19    9.96    6.73
  -4  12 -19   12.16    8.96
  -4 -12 -20    7.82    6.21
  -4 -12  20    3.48    7.89
  -4  12 -20    4.90    3.58
  -4 -13   0   36.52   13.86
  -4 -13  -1   19.59    8.07
  -4 -13   1   25.06   10.87
  -4 -13  -2    4.16    4.30
  -4 -13   2   -0.37    1.40
  -4 -13  -3   98.99   18.00
  -4 -13   3  105.97   19.88
  -4 -13  -4    5.18    5.10
  -4 -13   4    8.16    6.74
  -4 -13  -5   -0.63    2.40
  -4 -13   5    3.49    2.61
  -4 -13   6   -5.54    5.32
  -4 -13  -6   -1.08    3.67
  -4 -13   7   25.24    9.32
  -4 -13  -7   28.34   11.24
  -4 -13   8   40.31   13.62
  -4 -13  -8   32.67   10.44
  -4 -13  -9    9.75    7.66
  -4 -13   9   10.82    6.78
  -4 -13 -10   -0.05    4.19
  -4 -13  10   -0.77    1.97
  -4 -13 -11    4.08    4.78
  -4 -13  11   -3.34    3.91
  -4 -13  12   30.24   10.01
  -4 -13 -12    6.44    0.85
  -4 -13  13    8.65    6.11
  -4 -13 -13    6.73    4.47
  -4 -13 -14   -6.84    2.52
  -4 -13  14    0.95    1.82
  -4 -13 -15   20.40   10.17
  -4 -13  15    7.85    2.40
  -4 -13 -16    9.69    8.09
  -4 -13  16    4.11    6.55
  -4 -13  17   10.52    7.72
  -4 -13 -17    7.22    5.19
  -4 -14   0   66.33   15.45
  -4 -14  -1   15.67    9.76
  -4 -14   1    3.48    2.01
  -4 -14  -2    0.71    3.05
  -4 -14   2   -0.23    2.14
  -4 -14  -3    1.38    4.68
  -4 -14   3    7.88    6.71
  -4 -14  -4    2.33    2.67
  -4 -14   4   -1.68    4.65
  -4 -14   5    4.78    6.28
  -4 -14  -5    0.45    4.06
  -4 -14   6   20.76    9.18
  -4 -14  -6    9.35    5.51
  -4 -14   7   11.78    7.20
  -4 -14  -7   33.20   12.23
  -4 -14   8   13.91    7.19
  -4 -14  -8    2.94    2.00
  -4 -14   9    5.19    5.36
  -4 -14  -9   -3.93    7.83
  -4 -14  10    8.02    9.07
  -4 -14 -10   -2.26    2.96
  -4 -14 -11   -1.51    2.44
  -4 -14  11    3.03    4.55
  -4 -14 -12    1.22    5.11
  -4 -14  12    1.60    0.46
  -4 -14 -13    3.03    6.42
  -4 -14  13   17.47   10.85
  -4 -14  14   -5.08    5.91
  -4 -14 -14   -5.07    4.74
  -4 -15   0   26.20   11.80
  -4 -15  -1    0.48    1.46
  -4 -15   1    0.16    3.78
  -4 -15  -2    8.29    6.30
  -4 -15   2   19.75    9.07
  -4 -15  -3   -2.63    4.55
  -4 -15   3    3.68    5.85
  -4 -15  -4   31.69   10.85
  -4 -15   4   17.18    6.72
  -4 -15   5    0.69    5.06
  -4 -15  -5   -0.39    1.53
  -4 -15  -6   23.77   10.29
  -4 -15   6   15.14    8.63
  -4 -15   7    0.66    3.42
  -4 -15  -7   13.82    8.82
  -4 -15   8   48.07   13.65
  -4 -15  -8   33.54   12.70
  -4 -15   9   -0.66    5.10
  -4 -15  -9   -2.62    5.51
  -4 -15  10   -0.22    2.85
  -4 -15 -10   -1.23    4.10
  -5   0   0    0.24    1.15
  -5   0  -1    3.85    1.51
  -5   0   1   -0.51    0.71
  -5   0   2  995.35   28.35
  -5   0  -2 1018.74   33.64
  -5   0  -3    2.08    2.86
  -5   0   3   -0.27    0.57
  -5   0  -4 1421.91   43.75
  -5   0   5    1.07    1.57
  -5   0  -5    0.04    2.48
  -5   0   6 1471.30   39.80
  -5   0  -6  844.61   37.80
   5   0   7    0.62    0.78
   5   0  -7   -1.43    1.35
  -5   0  -7   -1.63    2.09
  -5   0  -8  295.44   22.71
  -5   0  -9   -0.34    1.04
   5   0  -9   -0.31    1.36
  -5   0 -10  120.38   16.53
   5   0 -10  142.83   14.51
  -5   0 -11    0.76    1.53
   5   0 -11   -0.88    0.50
  -5   0 -12  505.64   36.47
   5   0 -12  362.03   25.70
   5   0 -13    0.23    1.11
  -5   0 -13    0.28    3.66
   5   0 -14   93.49   14.35
   5   0 -15   -1.37    1.86
  -5   0 -15    1.12    4.90
  -5   0 -16  607.35   41.88
   5   0 -17    0.67    1.64
  -5   0 -17    1.05    4.57
   5   0 -18   13.29    7.32
  -5   0 -18   25.15    8.85
   5   0 -19   -1.63    3.44
  -5   0 -19    3.79    5.66
  -5   0 -20  104.09   18.76
   5   0 -20   63.52   13.67
   5   0 -21    0.47    3.59
  -5   0 -21   -1.46    5.10
   5   0 -22    9.26    4.09
  -5   0 -22   29.05    9.62
   5   0 -23   -2.68    6.33
  -5   0 -23    5.63    3.54
  -5   0 -24  188.76   26.34
   5   0 -24  179.27   25.30
   5   0 -25   14.15   11.19
  -5   0 -25    1.44    4.90
  -5   0 -26   73.55   18.55
  -5   0 -27   -3.51    8.32
  -5   0 -28   27.37   12.43
  -5   0 -29    0.97    6.07
  -5   0 -30   49.28   13.96
  -5   1   0    0.28    0.24
  -5  -1   0   -0.24    0.80
  -5  -1   1  130.11   11.91
  -5   1  -1  140.96   10.46
  -5   1   1   96.87    7.16
  -5  -1   1  158.46    8.13
  -5  -1  -1  116.59   11.64
  -5   1   2    6.01    1.60
  -5   1  -2    6.99    2.66
  -5  -1  -2    6.13    2.61
  -5  -1   2    6.38    1.71
  -5  -1   3    9.27    3.16
  -5  -1  -3    8.82    3.79
  -5   1  -3    7.03    2.95
  -5   1   3    7.34    1.70
  -5  -1  -4   22.40    5.79
  -5   1   4   19.71    3.09
  -5  -1   4   16.00    4.16
  -5   1  -4   20.30    5.10
  -5  -1  -5    6.63    2.88
  -5  -1   5    2.55    2.25
  -5   1   5    3.31    1.75
  -5   1  -5    1.43    2.65
  -5  -1   6  327.16   21.34
  -5   1   6  315.28   15.30
  -5  -1  -6  310.65   23.55
  -5   1  -7   48.23    8.95
  -5  -1  -7   53.87    9.69
   5  -1  -7   41.62    6.04
  -5  -1  -8    9.20    3.97
   5  -1   8   10.31    3.54
  -5   1  -8   14.10    5.12
   5   1  -8   20.28    5.97
   5  -1  -8   13.83    3.84
  -5   1  -9   44.93    9.28
   5  -1   9   58.94    8.25
   5   1  -9   50.10    8.76
   5  -1  -9   52.54    7.69
  -5   1 -10  494.31   32.37
  -5  -1 -10  456.65   31.67
   5  -1  10  447.74   23.18
   5   1 -10  475.74   27.89
   5  -1 -10  496.24   25.20
  -5   1 -11   38.02    8.97
   5  -1 -11   39.99    7.27
  -5  -1 -11   28.09    8.17
   5   1 -11   38.75    7.88
  -5   1 -12  212.63   22.28
  -5  -1 -12  166.56   19.88
   5   1 -12  143.00   16.89
   5  -1 -12  157.82   16.05
  -5   1 -13  323.61   27.97
  -5  -1 -13  357.64   31.74
   5   1 -13  267.01   23.69
  -5   1 -14  119.95   18.38
   5   1 -14  109.44   15.54
   5  -1 -14  110.47   14.22
   5  -1 -15    9.54    4.52
  -5   1 -15   19.13    7.70
  -5  -1 -15    8.09    5.35
   5   1 -15   12.03    5.65
  -5   1 -16  101.03   16.76
  -5  -1 -16  111.21   18.71
   5   1 -16  115.98   17.65
   5  -1 -16  111.59   15.36
   5   1 -17   25.64    8.53
   5  -1 -17   13.38    6.53
  -5   1 -17   39.80   11.70
  -5  -1 -17   24.54    8.54
   5   1 -18   19.11    6.99
   5  -1 -18   19.89    7.99
  -5   1 -18    8.89    5.59
  -5  -1 -18   24.85   10.25
   5   1 -19    5.30    3.49
   5  -1 -19    8.89    4.40
  -5   1 -19    6.27    2.16
  -5  -1 -19   13.48    6.60
   5   1 -20   56.76   13.32
  -5   1 -20   71.32   16.47
  -5  -1 -20   38.91   10.70
   5  -1 -20   58.53   13.57
   5   1 -21   32.61   10.65
   5  -1 -21   41.37   11.69
  -5   1 -21   43.46   13.10
  -5  -1 -21   38.68   11.14
   5   1 -22   -5.76    6.65
  -5   1 -22   -2.33    4.34
  -5  -1 -22   -3.47    3.22
   5   1 -23   63.31   15.03
  -5   1 -23   52.20   14.10
  -5  -1 -23   61.24   16.38
  -5   1 -24  105.27   20.52
   5   1 -24   55.18   14.19
  -5  -1 -24  110.05   20.61
   5   1 -25   -0.84    1.50
  -5   1 -25    5.90    4.85
  -5  -1 -25   -3.92    6.85
   5   1 -26   10.41    6.17
  -5   1 -26   28.97   10.53
  -5  -1 -26   22.30    7.76
   5   1 -27    3.20    5.95
  -5   1 -27   10.64    6.03
  -5   1 -28   -5.08    7.37
  -5  -1 -28   -6.12    7.56
  -5   1 -29    8.45    8.82
  -5  -1 -29   14.94   10.83
  -5   1 -30   31.26   12.23
  -5  -1 -30   21.37    9.46
  -5  -2   0    0.08    1.49
  -5   2   0   -0.38    0.34
  -5   2  -1   98.00    7.26
  -5  -2  -1   88.80   11.13
  -5  -2   1   93.96   11.28
  -5  -2  -2   88.39   11.57
  -5   2  -2   83.60    7.65
  -5  -2   2   73.33    9.92
  -5   2  -3  910.51   30.24
  -5  -2   3  999.01   29.42
  -5  -2   3  872.71   35.66
  -5  -2  -3  981.64   39.36
  -5   2  -4  812.42   29.52
  -5  -2  -4  691.04   33.57
  -5  -2   5  677.35   31.16
  -5   2  -5  652.93   29.11
  -5  -2  -5  593.22   31.33
  -5   2  -6  629.95   30.42
  -5   2   6  552.48   14.96
  -5  -2   6  616.09   31.32
  -5  -2  -6  536.82   32.17
  -5   2  -7   88.49   11.65
  -5  -2  -7   73.38   12.06
  -5  -2  -8    0.53    1.54
  -5   2  -8    6.05    4.98
   5  -2  -8    2.99    1.43
  -5   2  -9  472.86   30.91
   5   2  -9  411.69   28.35
  -5  -2  -9  491.91   33.31
   5  -2  -9  472.05   21.62
  -5  -2 -10  154.26   18.34
   5  -2  10  129.83   13.73
   5   2 -10  161.81   17.36
  -5   2 -11   46.96   10.19
  -5  -2 -11   44.38   11.28
   5  -2  11   42.13    8.42
   5  -2 -11   31.37    6.76
   5   2 -11   33.92    8.30
  -5   2 -12   98.11   15.41
  -5  -2 -12  135.32   19.63
   5  -2  12  135.27   15.07
   5   2 -12  116.04   15.63
   5  -2 -12  124.94   13.74
  -5   2 -13  510.12   35.68
  -5  -2 -13  495.62   35.56
   5  -2  13  482.62   29.38
   5   2 -13  428.31   30.61
   5  -2 -13  452.78   27.90
   5  -2 -14   39.07    8.93
  -5   2 -14   18.83    7.64
   5  -2  14   33.69    8.10
  -5  -2 -14   31.92    9.03
   5   2 -14   21.70    8.46
  -5   2 -15  133.43   19.25
  -5  -2 -15  164.46   21.90
   5   2 -15  194.38   21.83
   5  -2 -15  135.31   16.70
  -5   2 -16   71.29   14.85
  -5  -2 -16  100.45   18.48
   5   2 -16   82.14   14.37
   5  -2 -16   50.94   11.91
  -5   2 -17  147.61   21.03
  -5  -2 -17  121.94   20.59
   5   2 -17  121.21   18.37
   5  -2 -17  147.55   19.42
  -5   2 -18   97.25   16.85
  -5  -2 -18   94.72   18.41
   5   2 -18   85.84   15.65
   5  -2 -18  105.47   17.84
  -5   2 -19   30.65   11.24
  -5  -2 -19   41.39   12.24
   5   2 -19   23.33    9.99
  -5   2 -20  106.41   17.89
  -5  -2 -20   87.54   17.41
   5   2 -20   98.93   17.63
   5   2 -21   27.93   10.19
  -5   2 -21   12.37    5.55
  -5  -2 -21   29.56   10.65
   5   2 -22   16.31    7.68
  -5   2 -22   18.76    8.78
  -5  -2 -22    8.97    7.53
   5   2 -23   21.81    8.03
  -5   2 -23    9.07    3.69
  -5  -2 -23   19.84    8.82
   5   2 -24   16.75    8.81
  -5   2 -24   12.31    8.09
  -5  -2 -24   15.97    6.75
   5   2 -25   -1.05    3.49
  -5   2 -25    2.21    5.22
  -5  -2 -25   12.09   10.59
   5   2 -26    8.41    2.29
  -5   2 -26   -1.28    5.58
  -5  -2 -26   13.54    8.63
   5   2 -27   49.29   14.00
  -5   2 -27   81.49   18.97
  -5  -2 -27   80.75   17.93
   5   2 -28    6.08    7.20
  -5   2 -28    3.79    3.64
  -5  -2 -28   -5.46    5.11
   5   2 -29   17.40    8.98
  -5   2 -29    5.14    6.78
  -5  -2 -29    1.12    3.23
  -5  -3   0    2.85    2.45
  -5  -3  -1    5.67    4.35
  -5  -3   1    9.95    3.71
  -5   3  -1    4.83    1.59
  -5  -3   2  176.61   16.68
  -5  -3  -2  196.34   18.34
  -5   3  -2  187.94   11.23
  -5   3  -3    0.15    0.97
  -5  -3   3    1.69    0.47
  -5  -3  -3    2.29    1.05
  -5   3  -4    0.31    2.21
  -5  -3   4    0.29    0.98
  -5  -3  -4   -0.59    0.84
  -5  -3   4   -1.05    1.39
  -5  -3   5  246.49   20.17
  -5  -3   5  206.80   16.32
  -5  -3  -5  190.11   19.23
  -5   3  -5  220.11   16.78
  -5  -3   6   37.90    8.16
  -5   3  -6   26.32    6.42
  -5  -3   6   33.48    7.01
  -5  -3  -6   44.37    9.95
   5  -3  -7  144.66    7.21
  -5   3  -7  133.78   15.02
   5  -3  -8    7.34    2.74
  -5  -3  -8    2.16    2.60
  -5   3  -8    7.25    2.81
  -5  -3  -9   21.02    7.27
  -5   3  -9   29.46    7.30
   5   3  -9   21.26    6.72
   5  -3  -9   35.22    6.07
  -5  -3 -10   16.82    6.13
  -5   3 -10   20.72    6.31
   5   3 -10   10.86    5.40
   5  -3 -10   20.71    5.74
  -5  -3 -11    1.92    3.63
   5  -3 -11    9.58    4.22
  -5   3 -11   -1.28    2.54
   5   3 -11    1.46    2.75
  -5  -3 -12    3.37    3.78
   5  -3 -12   -2.06    2.16
  -5   3 -12    0.75    2.65
   5  -3  12    5.32    2.79
   5   3 -12   -0.64    3.82
  -5   3 -13   88.05   15.01
  -5  -3 -13  142.00   19.98
   5  -3  13   64.64   11.86
   5   3 -13  162.06   19.32
  -5   3 -14    4.29    4.33
   5  -3  14    3.49    3.47
   5   3 -14    3.92    4.06
  -5  -3 -14   -0.92    5.00
  -5  -3 -15  124.52   18.79
   5   3 -15  145.02   18.88
  -5   3 -15   98.51   16.59
  -5   3 -16   16.87    7.38
  -5  -3 -16    6.63    1.98
   5   3 -16   14.57    5.87
   5  -3  17    4.31    1.57
  -5   3 -17   -0.19    0.62
  -5  -3 -17   -3.75    3.18
   5   3 -17    6.54    4.07
  -5   3 -18    1.21    2.90
   5  -3  18    0.15    1.35
  -5  -3 -18    0.07    4.85
   5   3 -18   -1.31    4.77
  -5   3 -19   18.19    7.81
   5  -3  19   24.70    7.91
  -5  -3 -19   43.76   13.48
   5   3 -19   15.61    9.43
  -5   3 -20   10.12    5.08
   5  -3  20   15.55    7.42
  -5  -3 -20   13.38    6.37
   5   3 -20    6.33    5.10
  -5   3 -21    5.76    3.85
   5  -3  21    5.05    2.75
  -5  -3 -21    7.87    6.37
   5   3 -21   -0.95    2.86
  -5   3 -22   -1.53    5.99
  -5  -3 -22    8.00    5.37
   5  -3  22   -1.22    2.70
   5   3 -22   -4.13    5.86
  -5   3 -23   17.39    9.35
   5  -3  23    4.43    4.00
  -5  -3 -23    9.23    6.94
   5   3 -23    9.42    5.17
  -5   3 -24   49.52   12.88
  -5  -3 -24   51.55   14.02
   5   3 -24   47.69   13.56
  -5   3 -25   -6.47    9.24
  -5  -3 -25    0.03    2.87
   5   3 -25    7.86    4.82
  -5   3 -26    0.16    3.29
  -5  -3 -26    1.12    2.89
   5   3 -26   -1.44    3.00
  -5   3 -27   52.67   15.42
  -5  -3 -27   56.11   13.88
   5   3 -27   15.79    9.83
  -5   3 -28   -3.02    2.01
  -5  -3 -28   -0.26    3.39
   5   3 -28   -1.80    2.33
  -5   3 -29    8.32    5.53
  -5  -3 -29    8.51   10.38
   5   3 -29    6.88    5.64
  -5  -4   0   -0.74    1.31
  -5  -4  -1  300.00   23.47
  -5  -4   1  224.67   20.12
  -5  -4   2    6.60    3.06
  -5  -4  -2    6.72    3.96
  -5   4  -2    2.01    0.78
  -5  -4   3    2.92    3.41
  -5  -4  -3    0.06    0.78
  -5   4  -3    0.50    0.92
  -5  -4  -4   77.29   12.68
  -5   4  -4   74.59    8.75
  -5  -4   4   64.33   10.96
  -5  -4   5   25.30    7.14
  -5  -4   5   32.79    7.51
  -5   4  -5   37.41    7.00
  -5  -4  -5   37.72    9.08
  -5  -4   6  457.52   30.84
  -5  -4   6  414.58   26.41
  -5  -4  -6  403.58   30.37
  -5  -4   7  310.49   26.32
  -5  -4  -7  302.72   26.68
  -5   4  -7  308.26   23.02
  -5  -4   8   79.63   12.09
  -5   4  -8   64.78   11.05
  -5  -4   9   59.53   10.58
  -5  -4  -9   60.25   12.33
  -5   4  -9   50.72   10.20
  -5   4 -10    1.56    2.30
  -5  -4 -10    4.20    5.89
   5   4 -10    4.65    4.56
  -5  -4 -11   -2.22    2.55
  -5   4 -11    4.81    4.01
   5   4 -11   10.61    6.86
  -5  -4 -12  170.50   22.31
   5   4 -12  153.95   20.00
  -5   4 -12  114.31   16.99
  -5  -4 -13   14.28    5.02
  -5   4 -13   11.30    5.85
   5   4 -13   22.52    7.41
  -5  -4 -14   45.36   11.93
  -5   4 -14   34.77    9.03
   5  -4  14   22.68    8.28
   5   4 -14   14.96    4.95
  -5   4 -15    2.98    3.97
   5  -4  15    4.32    4.29
   5   4 -15    8.32    6.58
  -5  -4 -15    7.22    6.20
   5   4 -16  159.81   21.71
   5  -4  16  169.69   21.52
  -5   4 -16  138.01   19.54
  -5  -4 -17   86.83   16.50
   5  -4  17  134.67   19.21
   5   4 -17   89.09   16.05
  -5   4 -17   84.50   17.75
  -5   4 -18   -1.79    2.71
   5  -4  18    2.15    1.31
   5   4 -18    5.04    3.80
  -5  -4 -18   -2.62    2.55
  -5   4 -19   36.23   11.32
   5  -4  19   23.98    9.46
  -5  -4 -19   21.05    7.69
   5   4 -19   32.39   10.44
  -5   4 -20    2.02    3.10
   5  -4  20    2.64    5.92
  -5  -4 -20    3.67    1.63
   5   4 -20    0.23    2.85
  -5   4 -21    1.14    2.07
   5  -4  21   12.11    6.25
  -5  -4 -21    2.97    5.35
   5   4 -21    1.53    4.85
  -5   4 -22    3.03    3.74
   5  -4  22    1.32    1.50
  -5  -4 -22    3.71    4.72
   5   4 -22    1.95    1.75
  -5  -4 -23  240.38   32.03
  -5   4 -23  206.06   27.67
   5  -4  24   13.26   11.27
  -5   4 -24    1.57    7.29
  -5  -4 -24    1.10    6.81
   5   4 -24   -0.55    0.88
  -5   4 -25    8.96    7.45
  -5  -4 -25   -1.97    4.82
   5   4 -25   -1.06    2.45
  -5   4 -26   15.58    8.50
  -5  -4 -26    6.92    5.41
   5   4 -26    6.09    9.10
  -5   4 -27    6.90    7.42
  -5  -4 -27    6.26    1.01
   5   4 -27    2.99    5.01
  -5   4 -28    6.91    8.20
  -5  -4 -28   11.92    9.62
   5   4 -28    2.49    3.55
  -5   4 -29   -1.72    5.85
  -5  -4 -29    0.09    2.71
   5   4 -29  -10.72    9.28
  -5  -5   0    0.62    1.52
   5  -5   1  246.73   13.78
  -5  -5   1  268.97   23.32
  -5  -5  -2  160.62   19.23
  -5  -5   2  180.92   19.09
  -5   5  -2  119.39   10.28
  -5  -5  -3    6.28    4.31
  -5  -5   3    7.59    5.87
  -5   5  -3    2.12    1.21
  -5  -5   4   14.28    5.57
  -5   5  -4   16.56    4.76
  -5  -5  -4   23.14    6.98
  -5  -5  -5   45.35   10.26
  -5   5  -5   79.68   10.64
  -5  -5   5   63.58   10.87
  -5  -5   6  180.91   20.34
  -5   5  -6  186.84   17.10
  -5  -5  -6  195.92   21.36
  -5  -5   7  140.55   18.87
  -5  -5   7   78.35   12.95
  -5   5  -7  128.04   14.59
  -5  -5  -7  103.03   16.71
  -5  -5   8  127.04   17.76
  -5  -5   8   78.32   13.15
  -5   5  -8   86.69   13.05
  -5  -5  -8  104.87   17.01
  -5   5  -9    7.00    3.91
  -5  -5  -9    9.71    7.31
  -5  -5   9   -0.25    2.55
  -5   5 -10    3.68    2.70
  -5  -5 -10    6.06    7.00
  -5  -5  10   18.91    6.64
  -5  -5 -11   54.15   12.21
  -5  -5  11   32.22    8.44
  -5   5 -11   42.55   10.58
  -5  -5 -12  231.04   25.56
  -5  -5  12  153.62   18.05
   5   5 -12  163.78   20.53
  -5   5 -12  188.21   22.30
  -5  -5 -13   -0.44    2.64
  -5   5 -13    0.04    1.39
  -5  -5  13    3.47    2.62
  -5  -5 -14    5.88    6.16
  -5   5 -14    3.80    4.46
  -5  -5  14   10.21    5.85
   5   5 -14    3.13    3.33
  -5  -5 -15    6.18    7.44
  -5   5 -15    5.66    0.99
   5   5 -15   15.38    8.20
  -5  -5 -16   14.24    6.29
  -5   5 -16    8.66    4.95
   5   5 -16   18.24    5.38
  -5   5 -17    3.21    5.26
   5  -5  17    3.27    4.99
   5   5 -17   -2.28    2.64
  -5  -5 -17   -5.03    6.80
   5  -5  18    6.87    5.06
  -5   5 -18    5.00    6.30
   5   5 -18   14.24    7.54
  -5  -5 -18   27.75   11.12
  -5   5 -19    6.02    4.10
   5  -5  19    2.50    3.59
   5   5 -19   -1.22    3.54
  -5  -5 -19    6.08    6.99
  -5   5 -20   -1.26    3.72
   5  -5  20    4.66    5.85
  -5  -5 -20   -0.14    1.76
   5   5 -20    7.18    7.92
  -5   5 -21   62.10   15.43
   5  -5  21   29.05   11.47
  -5  -5 -21   27.55   10.42
   5   5 -21   54.45   14.13
  -5   5 -22   -4.04    2.19
   5  -5  22   11.49    5.50
  -5  -5 -22    4.99   10.23
   5   5 -22    5.90    5.38
  -5   5 -23   29.12   11.46
   5  -5  23   12.83    5.15
  -5  -5 -23   30.49   11.01
   5   5 -23   30.05   10.73
  -5   5 -24   19.66    9.51
   5  -5  24   28.13   10.81
  -5  -5 -24   27.61   10.54
   5   5 -24   22.54   11.05
  -5   5 -25    0.57    5.96
   5  -5  25    4.51    7.71
  -5  -5 -25    0.06    5.20
   5   5 -25   -1.42    3.57
  -5   5 -26   14.62    5.10
  -5  -5 -26   12.05    7.33
   5   5 -26   16.69    8.01
  -5   5 -27   -2.96    8.85
  -5  -5 -27    3.15    3.31
   5   5 -27    8.18    6.68
  -5   5 -28    2.20    4.19
  -5  -5 -28    1.51    7.34
   5   5 -28    4.36    6.28
  -5  -6   0   -2.22    4.40
  -5  -6  -1  467.76   32.59
  -5  -6   1  493.77   33.34
  -5  -6  -2  205.99   23.30
  -5  -6   2  150.18   17.83
  -5  -6  -3  266.45   25.29
  -5   6  -3  184.50   15.07
  -5  -6   3  240.21   23.83
  -5  -6  -4   83.79   14.04
  -5   6  -4   67.93   10.42
  -5  -6   4   60.36   11.41
  -5  -6  -5   91.46   15.03
  -5   6  -5  143.63   14.60
  -5  -6   5  131.44   18.00
  -5  -6   6    6.22    4.48
  -5   6  -6    5.52    2.42
  -5  -6  -7   16.29    7.56
  -5  -6   7   19.97    7.78
  -5   6  -7   27.32    7.57
  -5   6  -8   33.89    8.53
  -5  -6  -8   53.00   11.46
  -5  -6   8   36.19    9.83
  -5  -6   9  177.28   22.48
  -5   6  -9  200.20   21.03
  -5  -6  -9  253.04   26.99
  -5   6 -10    1.04    1.84
  -5  -6 -10    3.83    3.27
  -5  -6  10    6.66    6.32
  -5   6 -11   30.47    8.19
  -5  -6  11   62.14   13.12
  -5  -6 -11   72.28   14.89
  -5  -6  12  170.87   21.60
  -5  -6 -12  198.23   25.97
  -5   6 -12  129.80   17.94
  -5   6 -13   46.47   11.23
  -5  -6 -13   64.45   13.86
  -5  -6  13   44.08   12.12
   5   6 -13   49.27   12.38
  -5   6 -14    3.23    3.31
  -5  -6 -14   12.19    6.57
  -5  -6  14    4.96    4.91
   5   6 -14   -0.76    1.52
  -5  -6 -15  113.57   20.68
  -5  -6  15  104.60   18.71
   5   6 -15  134.48   20.63
  -5   6 -15   98.70   17.86
  -5  -6 -16    3.45    2.90
  -5   6 -16   -0.17    1.47
  -5  -6  16   -0.45    4.27
   5   6 -16   -3.21    5.12
  -5  -6 -17    2.01    5.11
  -5   6 -17    4.37    4.32
  -5  -6  17    0.18    3.13
   5   6 -17    3.53    1.73
  -5   6 -18    3.15    6.62
  -5  -6  18    1.12    5.05
   5   6 -18   -4.15    4.13
  -5  -6 -18   -3.71    4.00
  -5   6 -19    2.66    3.06
  -5  -6  19   -3.32    3.39
  -5  -6 -20  100.12   19.01
  -5  -6  20   89.84   17.29
   5   6 -20  115.78   20.68
  -5   6 -20   82.46   18.68
  -5   6 -21    2.05    4.72
  -5  -6  21    7.97    6.53
  -5  -6 -21    0.34    4.60
   5   6 -21    2.38    5.96
  -5   6 -22   71.19   16.46
  -5  -6 -22  118.09   22.89
   5  -6  22   49.68   13.93
  -5  -6  22   74.65   15.25
   5   6 -22  104.25   20.09
  -5   6 -23   18.17   10.84
   5  -6  23   11.67    8.90
  -5  -6  23   11.43    4.09
  -5  -6 -23   -2.16    5.97
   5   6 -23    3.50    3.81
  -5   6 -24   16.64   10.48
   5  -6  24   15.85    7.63
  -5  -6  24   20.95    8.75
  -5  -6 -24   18.84   12.37
   5   6 -24    7.04    8.09
  -5   6 -25    3.33    4.54
   5  -6  25   20.90   10.70
  -5  -6  25   11.85   10.04
  -5  -6 -25   12.34    9.05
   5   6 -25    5.07    4.53
  -5   6 -26    3.97    5.90
  -5  -6  26   12.94    9.34
  -5  -6 -26    8.06    6.15
   5   6 -26    4.70    5.54
  -5  -6 -27    6.19    1.24
   5   6 -27   -0.62    5.02
  -5  -7   0   -2.41    4.02
  -5  -7  -1   36.81    9.46
  -5  -7   1   37.69    9.92
  -5  -7  -2  465.56   34.83
  -5  -7   2  341.54   28.97
  -5  -7  -3  177.09   21.97
  -5  -7   3  128.42   18.56
  -5  -7  -4  139.65   19.64
  -5  -7   4  127.86   18.62
  -5  -7   5   32.79    9.42
  -5   7  -5   30.07    8.09
  -5  -7  -5   49.68   11.14
  -5  -7   6   11.09    6.21
  -5   7  -6    3.27    3.48
  -5  -7  -6    1.84    2.54
  -5  -7   7    6.91    6.19
  -5  -7  -7    0.53    1.93
  -5   7  -7   -1.00    3.55
  -5  -7  -8   50.84   11.97
  -5   7  -8   58.83   10.77
  -5  -7   8   36.89   11.73
  -5  -7   9  178.31   22.95
  -5   7  -9  151.20   18.72
  -5  -7  -9  188.78   24.18
  -5  -7  10   10.61    6.86
  -5  -7 -10    5.37    3.08
  -5   7 -10    3.23    2.01
  -5  -7  11   58.74   13.66
  -5  -7 -11   28.93   11.05
  -5   7 -11   61.06   10.81
  -5   7 -12   34.62   10.28
  -5  -7 -12   17.46    6.29
  -5  -7  12   17.70    4.66
  -5  -7 -13   72.46   15.56
  -5  -7  13   61.47   12.65
  -5   7 -13   69.31   14.06
  -5   7 -14   31.61   10.21
  -5  -7  14   65.58   15.72
  -5  -7 -14   69.00   16.36
  -5   7 -15    7.47    6.22
  -5  -7 -15   18.28    9.48
  -5  -7  15   16.55    8.14
   5   7 -15   11.39    8.36
  -5   7 -16   11.71    7.56
  -5  -7 -16   19.61   11.59
  -5  -7  16    5.79    3.87
   5   7 -16   17.98    8.28
  -5   7 -17   -2.04    3.83
  -5  -7 -17    4.45    5.26
  -5  -7  17   -0.40    2.86
   5   7 -17    1.49    4.78
  -5  -7 -18    5.93    5.28
  -5   7 -18   -0.27    4.94
  -5  -7  18   -1.87    1.69
   5   7 -18   -1.10    3.34
  -5   7 -19    4.81    4.89
  -5  -7  19   15.19    7.30
   5   7 -19    5.61    7.47
  -5  -7 -19   21.06    9.62
  -5   7 -20    3.26    5.97
  -5  -7  20    1.91    5.57
   5   7 -20   -3.69    2.72
  -5  -7 -20    2.40    5.17
  -5   7 -21    9.61    7.47
  -5  -7  21    7.69    6.07
   5   7 -21   15.80    8.50
  -5  -7 -21    2.29    6.23
  -5   7 -22   -4.66    6.79
  -5  -7  22    1.40    2.51
   5   7 -22    0.80    4.00
  -5  -7 -22   -4.52    6.07
  -5   7 -23    1.55    1.91
  -5  -7  23   -2.90    4.05
  -5  -7 -23    5.92    2.78
   5   7 -23    2.68    3.85
  -5   7 -24    5.06    5.20
  -5  -7  24   16.54    8.08
  -5  -7 -24   16.21    9.79
   5   7 -24   10.64    8.41
  -5  -7  25    2.92    5.22
  -5  -7 -25   23.91   11.35
   5   7 -25   25.35   10.24
  -5   7 -26    0.25    2.88
  -5  -7 -26    1.71    0.38
   5   7 -26    6.71    8.24
  -5  -8   0    3.20    2.23
  -5  -8  -1  605.46   41.11
  -5  -8   1  416.42   33.79
  -5  -8  -2  113.23   17.84
  -5  -8   2   86.39   15.75
  -5  -8   3    0.18    3.43
  -5  -8  -3    2.04    2.26
  -5  -8  -4   18.23    9.25
  -5  -8   4   16.54    7.57
  -5  -8  -5  912.95   50.91
  -5  -8   5 1120.35   55.79
  -5   8  -6   15.80    6.17
  -5  -8   6    8.85    4.62
  -5  -8  -6   10.60    5.06
  -5  -8   7   -0.76    0.79
  -5   8  -7    1.05    1.72
  -5  -8   8   28.91   10.27
  -5  -8  -8   20.02    6.98
  -5   8  -8   19.04    6.20
  -5  -8   9  434.90   37.44
  -5   8  -9  527.34   36.58
  -5  -8  -9  470.43   38.15
  -5  -8  10   73.99   16.20
  -5  -8 -10   76.57   14.94
  -5   8 -10   73.59   14.31
  -5  -8 -11   25.93    8.52
  -5   8 -11   24.80    9.46
  -5  -8  11   41.76   12.53
  -5  -8  12   42.72   13.60
  -5  -8 -12   36.14   11.73
  -5   8 -12   24.03    8.72
  -5  -8 -13  178.39   25.56
  -5   8 -13  189.19   24.49
  -5  -8 -14    0.05    3.10
  -5   8 -14    2.43    4.81
  -5  -8 -15   11.44    7.16
  -5   8 -15    8.17    3.98
  -5  -8 -16    5.91    7.83
  -5  -8  16   -5.64    4.85
  -5   8 -16    3.95    4.86
  -5  -8 -17   45.87   12.62
  -5  -8  17   65.47   14.29
   5   8 -17   84.42   16.75
  -5   8 -17  104.60   19.19
  -5   8 -18    6.12    6.25
  -5  -8 -18    1.11    5.06
  -5  -8  18    3.41    5.03
   5   8 -18    0.16    1.25
  -5  -8 -19   60.78   17.03
  -5  -8  19   62.57   15.17
  -5   8 -19   80.48   17.35
   5   8 -19   63.59   15.38
  -5   8 -20   -5.06    6.73
  -5  -8  20    8.17    6.22
   5   8 -20    2.22    3.32
  -5  -8 -20    8.28    8.52
  -5   8 -21   22.63    9.50
  -5  -8  21   11.81    7.69
   5   8 -21   30.01   11.43
  -5  -8 -21   12.61    6.34
  -5   8 -22    5.32    5.03
  -5  -8  22    6.96    6.42
   5   8 -22   10.97    8.09
  -5  -8 -22    8.25    8.37
  -5   8 -23   58.62   15.66
  -5  -8  23   50.93   15.12
   5   8 -23   26.44    9.44
  -5  -8 -23   40.23   10.90
  -5   8 -24   -3.63    4.22
  -5  -8  24    2.48    4.82
   5   8 -24   -1.31    3.37
  -5  -8 -24   -0.23    4.44
  -5   8 -25    4.17    3.96
  -5  -8  25    9.56    7.38
  -5  -8 -25   -1.67    5.65
   5   8 -25    3.94    3.91
  -5  -9   0   -0.42    3.45
  -5  -9  -1  212.19   24.97
  -5  -9   1  243.45   26.79
  -5  -9  -2    3.35    1.50
  -5  -9   2    5.31    5.91
  -5  -9   3    6.77    3.28
  -5  -9  -3    5.76    5.22
  -5  -9  -4   52.61   13.38
  -5  -9   4   13.70    5.86
  -5  -9  -5   33.84   11.62
  -5  -9   5    8.47   11.23
  -5  -9  -6   69.46   15.25
  -5  -9   6  111.38   18.94
  -5  -9  -7   -0.44    2.95
  -5  -9   7    0.73    0.76
  -5  -9   8   12.06    5.39
  -5  -9  -8   17.57    7.90
  -5   9  -8   17.40    7.14
  -5  -9   9    7.45    5.29
  -5  -9  -9   23.63    9.97
  -5   9  -9   27.24    9.03
  -5  -9 -10    1.36    4.41
  -5   9 -10    8.75    6.72
  -5  -9  11   27.60    9.93
  -5  -9 -11   20.66    9.34
  -5   9 -11    9.51    5.34
  -5  -9  12   67.47   15.69
  -5   9 -12   65.33   14.90
  -5  -9 -12   84.45   17.34
  -5  -9  13    0.64    3.37
  -5  -9 -13   -4.69    4.90
  -5   9 -13   -3.94    4.17
  -5  -9 -14   -2.71    5.85
  -5  -9  14    3.12    5.00
  -5   9 -14   -2.44    2.43
  -5  -9 -15   45.33   14.08
  -5   9 -15   18.31    8.73
  -5  -9 -16   34.59    8.11
  -5   9 -16   31.06    9.65
  -5  -9 -17    4.09    3.33
  -5   9 -17   13.31    8.78
  -5  -9 -18   -5.12    7.70
  -5   9 -18    8.97    4.68
  -5  -9 -19    6.36    5.25
  -5   9 -19    3.51    3.05
  -5  -9 -20   23.03   10.01
  -5   9 -20   12.33    6.44
  -5  -9  21   -9.20    8.14
   5   9 -21   -4.90    5.61
  -5  -9 -21   -1.16    6.63
  -5   9 -21    4.57    6.86
  -5  -9  22   -2.09    3.13
   5   9 -22    3.96    3.84
  -5  -9 -22    1.19    4.59
  -5   9 -22    3.07    3.97
  -5  -9  23   -2.10    4.11
   5   9 -23    4.28    5.72
  -5  -9 -23   -2.40    1.95
  -5  -9  24    6.89    7.04
   5   9 -24   -2.57    5.32
  -5  -9 -24    3.75    4.76
  -5   9 -24   -1.16    2.80
  -5 -10   0   -4.68    4.57
  -5 -10  -1   54.24   13.10
  -5 -10   1   70.73   15.12
  -5 -10  -2  177.96   24.60
  -5 -10   2  131.97   19.95
  -5 -10  -3   97.51   18.48
  -5 -10   3   85.63   16.11
  -5 -10  -4  267.71   29.32
  -5 -10   4  263.05   27.74
  -5 -10  -5  180.94   24.11
  -5 -10   5  215.08   26.43
  -5 -10  -6  133.18   21.44
  -5 -10   6  169.79   23.11
  -5 -10   7    5.47    4.70
  -5 -10  -7    7.74    6.73
  -5 -10  -8   22.05    9.54
  -5 -10   8    9.18    8.23
  -5 -10   9    2.47    1.27
  -5 -10  -9   -3.23    7.71
  -5 -10  10    6.16    4.44
  -5 -10 -10    6.90    2.97
  -5  10 -10    4.02    1.92
  -5 -10 -11   29.45   11.51
  -5 -10  11   25.63   11.19
  -5  10 -11   44.64   10.95
  -5 -10 -12   30.10   12.64
  -5  10 -12   12.24    4.62
  -5 -10  12   25.34   10.42
  -5 -10  13   49.71   12.98
  -5 -10 -13   46.95   12.93
  -5  10 -13   44.66   12.52
  -5 -10 -14    3.90    6.56
  -5 -10  14    1.35    4.66
  -5  10 -14    4.18    5.61
  -5 -10  15   -0.37    3.81
  -5 -10 -15    2.75    6.30
  -5  10 -15    6.91    6.36
  -5 -10 -16   43.08   12.22
  -5 -10  16   47.77   13.59
  -5  10 -16   34.31   12.14
  -5 -10 -17    9.38    7.43
  -5 -10  17    7.72    6.75
  -5  10 -17    9.97    6.94
  -5 -10 -18   -2.26    8.48
  -5  10 -18   -4.51    6.06
  -5 -10 -19   -4.71    6.93
  -5  10 -19   -2.01    5.41
  -5 -10 -20   15.19    8.99
  -5  10 -20   51.10   14.06
  -5 -10 -21   -3.39    6.65
  -5  10 -21    8.15    6.46
  -5  10 -22   17.64   11.84
  -5 -10 -22   26.01    9.70
  -5 -10 -23    2.84    0.67
  -5  10 -23   26.97   12.29
  -5 -11   0   -2.47    4.50
  -5 -11  -1    0.97    3.42
  -5 -11   1   -2.76    3.83
  -5 -11  -2   83.90   17.36
  -5 -11   2   49.53   12.63
  -5 -11  -3   23.85    9.87
  -5 -11   3   15.91    6.24
  -5 -11   4    0.11    4.50
  -5 -11  -4    1.70    3.58
  -5 -11  -5   -1.59    1.33
  -5 -11   5   -1.22    3.54
  -5 -11   6    7.43    6.67
  -5 -11  -6   10.74    7.81
  -5 -11   7   45.25   12.72
  -5 -11  -7   44.46   11.66
  -5 -11   8    6.05    4.59
  -5 -11  -8    3.13    1.45
  -5 -11  -9   46.36   14.42
  -5 -11   9   60.11   13.58
  -5 -11  10   30.48   10.64
  -5 -11 -10   23.07   10.02
  -5 -11  11   21.91    9.16
  -5 -11 -11   28.20   11.28
  -5 -11  12   34.44   12.10
  -5 -11 -12   20.45   10.76
  -5 -11 -13    3.96    6.86
  -5 -11  13    5.24    4.26
  -5 -11 -14   -0.45    6.19
  -5  11 -14   -2.82    6.74
  -5 -11  14   -3.02    6.61
  -5 -11  15   15.59    9.15
  -5 -11 -15    3.84    6.92
  -5  11 -15    1.86    4.73
  -5 -11 -16   13.07    7.34
  -5 -11  16   32.86   12.18
  -5  11 -16   15.80   11.35
  -5 -11  17   -0.48    2.31
  -5 -11 -17   11.10   10.38
  -5 -11 -18    1.13    0.49
  -5 -11  18    9.17    5.08
  -5  11 -18    3.72    4.26
  -5 -11 -19   -8.12    5.78
  -5 -11  19    1.46    5.04
  -5  11 -19    3.45    6.23
  -5 -11 -20    8.21    5.14
  -5 -11  20    4.77    5.65
  -5  11 -20    4.43    3.33
  -5 -11 -21    3.69    4.86
  -5  11 -21   -5.37    7.59
  -5 -12   0    6.99    7.24
  -5 -12  -1   24.25    9.52
  -5 -12   1   27.46    9.98
  -5 -12  -2   17.82    8.60
  -5 -12   2   17.49   10.37
  -5 -12  -3    1.01    7.62
  -5 -12   3   -1.99    2.77
  -5 -12  -4    0.34    3.17
  -5 -12   4    0.63    3.92
  -5 -12   5   24.43   10.37
  -5 -12  -5   37.82   11.85
  -5 -12   6    0.14    2.12
  -5 -12  -6    6.58    2.44
  -5 -12   7    0.22    4.09
  -5 -12  -7    0.64    1.78
  -5 -12   8    4.38    5.94
  -5 -12  -8   17.11    7.94
  -5 -12   9    7.46    2.69
  -5 -12  -9    2.73    5.39
  -5 -12 -10   28.22    9.87
  -5 -12  10   22.95    8.62
  -5 -12 -11   -1.11    1.84
  -5 -12  11    2.27    6.24
  -5 -12  12   35.65   11.30
  -5 -12 -12   33.60   12.56
  -5 -12  13   52.28   14.41
  -5 -12 -13   21.40    8.94
  -5 -12 -14    9.07    6.36
  -5 -12  14    5.91    5.15
  -5 -12 -15    0.94    3.04
  -5 -12  15    1.62    1.47
  -5 -12 -16   16.92   12.20
  -5 -12  16   -2.80    5.88
  -5 -12  17    5.87    2.16
  -5 -12 -17   15.02    9.02
  -5 -12 -18   22.40   10.19
  -5 -12  18    4.11    5.17
  -5 -12 -19   17.25    9.07
  -5 -12  19   15.65    7.33
  -5 -13   0    3.24    5.69
  -5 -13  -1   12.03    6.07
  -5 -13   1   16.04    8.01
  -5 -13  -2   -4.09    5.60
  -5 -13   2   12.00    9.35
  -5 -13  -3   15.76   10.03
  -5 -13   3   12.05    7.92
  -5 -13  -4   17.44    7.90
  -5 -13   4    6.73    3.52
  -5 -13   5   11.21    6.13
  -5 -13  -5    0.18    1.69
  -5 -13   6    0.80    1.31
  -5 -13  -6    3.04    7.57
  -5 -13   7    6.57    6.67
  -5 -13  -7   -1.22    2.15
  -5 -13   8    8.56    5.79
  -5 -13  -8    6.54    4.83
  -5 -13   9   40.64   12.84
  -5 -13  -9   35.20   14.49
  -5 -13  10   -7.96    8.44
  -5 -13 -10    6.24    7.05
  -5 -13  11    1.70    4.07
  -5 -13 -11    0.03    5.79
  -5 -13 -12    8.76    4.73
  -5 -13  12   18.78    7.82
  -5 -13 -13    6.58    2.30
  -5 -13  13    1.45    5.28
  -5 -13  14   21.26    9.01
  -5 -13 -14   20.40   10.83
  -5 -13  15    5.34    5.78
  -5 -13 -15    1.16    4.18
  -5 -13 -16    4.48    5.19
  -5 -13  16    4.19    5.90
  -5 -14   0    0.75    6.26
  -5 -14  -1   10.42    6.54
  -5 -14   1    8.48    3.39
  -5 -14  -2   11.04    6.55
  -5 -14   2    7.53    5.24
  -5 -14  -3    9.36    7.32
  -5 -14   3   -1.14    1.58
  -5 -14  -4    2.13    3.02
  -5 -14   4    9.05    5.31
  -5 -14   5   26.18    9.85
  -5 -14  -5   28.11   10.15
  -5 -14  -6    1.40    3.10
  -5 -14   6    8.54    6.57
  -5 -14   7    8.04    4.76
  -5 -14  -7    4.86    3.84
  -5 -14   8    7.55    5.84
  -5 -14  -8    9.06    6.92
  -5 -14   9    3.58    1.57
  -5 -14  -9   12.82    8.07
  -5 -14  10   10.30    6.05
  -5 -14 -10    8.92    4.48
  -5 -14  11    6.46    8.70
  -5 -14 -11   -2.05    1.94
  -5 -14 -12   -0.67    2.81
  -5 -14  12    3.00    3.67
  -5 -15   0    4.71    5.45
  -5 -15  -1   11.94    7.59
  -5 -15   1    2.85    5.58
  -5 -15  -2   -3.36    4.82
  -5 -15   2    4.91    2.37
  -5 -15  -3    5.47    7.82
  -5 -15   3    8.37    7.51
  -5 -15   4   -0.92    3.58
  -5 -15  -4    1.87    0.66
  -5 -15   5    1.89    2.11
  -5 -15  -5    0.59    4.14
  -5 -15   6    9.82    7.57
  -5 -15  -6    3.87    3.67
  -5 -15  -7    0.03    0.67
  -5 -15   7   -5.25    5.18
  -6   0   0 4411.29   68.45
  -6   0  -1    1.50    1.77
  -6   0   1    0.78    0.89
  -6   0  -2  178.03   15.26
  -6   0   2  151.60   11.89
  -6   0  -3    1.22    1.93
  -6   0   3   -0.28    0.78
  -6   0   4  739.60   26.81
  -6   0  -4 1040.68   38.76
  -6   0   5    0.36    1.27
  -6   0  -5   -0.39    1.18
  -6   0  -6  188.70   19.34
  -6   0   6  197.07   14.53
  -6   0   7    1.68    2.05
  -6   0  -7    0.18    1.22
  -6   0   8 1322.87   42.60
  -6   0  -8 1405.44   52.29
  -6   0  -9    0.16    2.23
  -6   0 -10 1692.33   64.56
   6   0 -10 1267.28   45.08
  -6   0 -11   -1.74    3.83
   6   0 -11   -0.20    0.88
  -6   0 -12   40.55    9.82
   6   0 -12   22.70    6.81
  -6   0 -13    1.86    2.88
   6   0 -13   -1.47    1.92
  -6   0 -14  660.99   44.82
   6   0 -14  625.35   37.56
  -6   0 -15    4.32    6.05
  -6   0 -16   15.85    6.93
  -6   0 -17    5.32    5.69
  -6   0 -18   36.69   11.58
  -6   0 -19   -2.81    5.77
  -6   0 -20    8.13    6.89
  -6   0 -21    1.23    3.61
  -6   0 -22   55.04   14.73
  -6   0 -23   10.60   10.17
  -6   0 -24   37.17   12.37
  -6   0 -25   -3.67    3.85
  -6   0 -26   64.94   16.78
  -6   0 -27   -3.66    1.15
  -6   0 -28    2.32    7.12
  -6   0 -29   -2.27    5.66
  -6   1   0   28.43    4.90
  -6  -1   0   20.07    4.92
  -6  -1   1   28.52    6.15
  -6   1  -1   38.02    6.47
  -6   1   1   31.04    4.79
  -6  -1  -1   44.99    7.98
  -6   1   2    0.69    1.07
  -6  -1   2   -1.23    2.49
  -6  -1  -2    0.55    3.84
  -6  -1   2    1.07    0.95
  -6   1  -2   -0.48    1.63
  -6  -1  -3    1.58    1.62
  -6   1   3    3.06    1.31
  -6  -1   3    2.25    2.44
  -6   1  -3    2.04    1.40
  -6   1   4  247.79   11.54
  -6  -1   4  232.95   17.06
  -6  -1  -5    6.19    2.98
  -6  -1   5    0.14    0.94
  -6   1   5    1.62    1.04
  -6   1  -5    5.06    3.31
  -6  -1  -6  146.11   16.94
  -6   1   6  120.77    8.96
  -6  -1   6  137.19   13.98
  -6  -1  -7   38.31    8.34
  -6  -1   7   21.91    7.09
  -6   1   7   30.19    5.08
  -6   1   8   17.01    4.30
  -6   1  -8   12.31    5.35
  -6  -1   8   12.96    5.20
  -6  -1  -8   15.05    5.48
  -6   1  -9   19.08    6.58
  -6  -1  -9    7.70    2.28
  -6   1 -10   -1.24    0.40
   6   1 -10   -0.91    0.64
  -6  -1 -10   -0.03    0.99
  -6   1 -11    2.39    1.94
   6   1 -11    3.51    3.51
  -6  -1 -11    2.65    1.94
  -6  -1 -12   52.91   12.32
  -6   1 -12   30.79    9.37
   6   1 -12   44.20    9.47
  -6   1 -13  357.59   30.13
  -6  -1 -13  272.85   28.99
   6   1 -13  350.88   27.17
  -6   1 -14  225.69   24.57
   6   1 -14  233.04   21.94
  -6   1 -15  110.02   18.01
  -6  -1 -15   98.92   17.65
   6   1 -15   87.70   14.63
  -6   1 -16    1.63    0.63
  -6  -1 -16    1.75    1.06
  -6   1 -17   28.89   11.23
  -6  -1 -17   31.44   10.68
   6   1 -17   32.64    9.35
  -6   1 -18    2.69    2.42
  -6  -1 -18   -1.25    5.77
   6   1 -18    8.03    4.99
  -6   1 -19  118.27   19.83
  -6  -1 -19  131.84   19.82
   6   1 -19  130.83   20.66
  -6   1 -20   -4.97    0.86
  -6  -1 -20   -1.94    2.08
   6   1 -20   -4.05    3.50
  -6  -1 -21   89.35   17.78
  -6   1 -21   75.73   17.77
  -6   1 -22   -3.97    3.23
  -6  -1 -22   -0.91    2.77
  -6   1 -23    4.60    6.82
  -6  -1 -23   -2.20    4.12
  -6   1 -24    5.13    7.84
  -6  -1 -24    0.14    4.23
  -6   1 -25    0.30    4.47
  -6  -1 -25   -0.81    2.80
  -6   1 -26    0.63    6.00
  -6  -1 -26    5.70    4.29
  -6   1 -27    5.63    6.30
  -6  -1 -27   12.05    8.28
  -6   1 -28   -6.68    6.27
  -6  -1 -28   -1.67    4.40
  -6  -2   0  222.41   18.65
  -6  -2  -1  176.93   16.84
  -6   2  -1  164.74   10.13
  -6  -2   1  167.29   16.37
  -6   2  -2   15.57    3.47
  -6  -2   2   10.07    3.92
  -6  -2  -2   13.34    5.16
  -6   2  -3  372.83   19.59
  -6  -2   3  385.71   24.08
  -6  -2   3  503.74   21.71
  -6  -2  -3  479.48   29.57
  -6  -2   4  596.25   25.03
  -6  -2   4  617.73   30.03
  -6  -2  -4  539.45   31.99
  -6   2  -5   72.19    9.80
  -6  -2  -5   45.43    9.57
  -6  -2   5   49.16    9.06
  -6   2  -6  446.07   26.11
  -6  -2  -6  425.43   31.34
  -6  -2   6  359.07   23.34
  -6  -2   7  548.80   31.34
  -6  -2  -7  569.00   34.87
  -6   2  -8   53.47   10.49
  -6   2   8   38.84    4.84
  -6  -2   8   59.88   10.93
  -6  -2  -8   48.85   10.25
  -6  -2  -9    6.51    5.99
  -6   2  -9    4.35    4.21
  -6   2 -10  101.60   15.38
  -6  -2 -10   86.04   13.94
  -6   2 -11  487.15   34.45
  -6  -2 -11  578.01   39.33
  -6   2 -12   73.71   13.04
   6   2 -12   82.96   14.55
  -6   2 -13  294.09   28.38
  -6  -2 -13  445.81   34.27
  -6   2 -14   29.93    9.71
  -6  -2 -14   24.44    8.37
   6   2 -14   28.79    9.47
  -6   2 -15    3.04    2.27
  -6  -2 -15    2.17    2.51
   6   2 -15    3.83    3.78
  -6   2 -16   33.61    9.13
  -6  -2 -16   41.97   13.27
   6   2 -16   19.95    6.27
  -6   2 -17   37.10   10.41
  -6  -2 -17   42.00   12.65
   6   2 -17   51.72   12.87
  -6  -2 -18   77.97   17.45
  -6   2 -18   49.89   13.11
   6   2 -18   42.70   11.36
  -6   2 -19   47.04   12.64
  -6  -2 -19   60.68   15.40
   6   2 -19   32.90    9.37
  -6   2 -20    0.02    5.14
  -6  -2 -20    5.02    5.57
   6   2 -20    3.26    0.54
  -6   2 -21   61.81   15.38
  -6  -2 -21   47.53   12.83
   6   2 -21   76.08   16.21
  -6   2 -22   24.26   11.50
  -6  -2 -22   21.25    8.91
   6   2 -22   41.46   14.18
  -6   2 -23   -0.29    3.32
  -6  -2 -23   -1.95    4.58
   6   2 -23   -5.18    7.99
  -6   2 -24   -1.59    1.93
  -6  -2 -24   -2.50    4.00
  -6   2 -25   51.65   14.86
  -6  -2 -25   60.62   15.57
  -6   2 -26    0.75    4.53
  -6  -2 -26    2.95    4.43
  -6   2 -27   -2.58    5.18
  -6  -2 -27    0.98    6.14
  -6   2 -28   35.76   12.29
  -6  -2 -28   16.22    5.58
  -6  -3   0    3.82    3.20
  -6  -3  -1   33.84    7.97
  -6  -3   1   23.74    6.25
  -6   3  -2    9.01    2.63
  -6  -3   2    3.44    3.09
  -6  -3  -2    5.52    3.28
  -6   3  -3   -0.74    1.84
  -6  -3  -3    1.65    3.58
  -6  -3   3   -0.65    1.32
  -6  -3   4  550.25   31.62
  -6  -3  -4  508.41   32.68
  -6   3  -4  563.57   25.00
  -6  -3  -5   48.84   10.13
  -6  -3   5   37.45    8.89
  -6   3  -5   42.99    8.27
  -6   3  -6    5.95    3.41
  -6  -3  -6    5.69    3.42
  -6  -3   6    0.92    1.86
  -6  -3   6    6.96    3.36
  -6  -3   7  127.41   14.56
  -6   3  -7  109.73   14.15
  -6  -3   8  111.22   15.61
  -6  -3  -8  147.47   18.98
  -6   3  -8  113.70   14.50
  -6  -3  -9    2.56    2.72
  -6   3  -9    3.31    4.41
  -6  -3   9   -2.13    2.49
  -6   3 -10   85.94   13.69
  -6  -3 -10  106.65   17.14
  -6  -3 -11   -1.83    5.27
  -6   3 -11    0.66    2.49
  -6   3 -12  155.83   19.85
  -6  -3 -12  204.51   23.53
   6   3 -12  166.45   19.50
  -6   3 -13   13.65    5.47
   6   3 -13   15.74    5.82
  -6  -3 -13   20.77    9.02
  -6   3 -14   28.46    8.84
   6   3 -14   33.83   10.89
  -6  -3 -14   28.52    9.56
  -6   3 -15   20.68    8.22
   6   3 -15   15.80    6.14
  -6  -3 -15   18.53    8.18
  -6  -3 -16  159.11   21.67
   6   3 -16  145.88   21.58
  -6   3 -16  159.18   22.87
  -6   3 -17    8.33    5.38
  -6  -3 -17    9.73    6.14
   6   3 -17    1.73    2.36
  -6   3 -18   87.43   18.34
  -6  -3 -19   76.08   17.26
   6   3 -19   50.18   12.85
  -6   3 -19   85.88   18.71
  -6   3 -20    4.52    3.12
  -6  -3 -20   10.90    5.93
   6   3 -20   13.13    8.04
  -6   3 -21    0.66    3.70
  -6  -3 -21    4.42    7.18
   6   3 -21   -3.45    7.43
  -6   3 -22   29.11   10.59
  -6  -3 -22   59.80   15.75
   6   3 -22   44.42   12.71
  -6   3 -23    9.78    3.14
  -6  -3 -23    2.08    3.20
   6   3 -23   11.16    6.23
  -6   3 -24    4.48    4.60
  -6  -3 -24    8.98    8.44
   6   3 -24    1.42    5.86
  -6   3 -25   -0.86    0.99
  -6  -3 -25    5.64    8.33
  -6   3 -26    1.08    5.05
  -6  -3 -26    3.97    3.57
  -6   3 -27   -5.28    3.13
  -6  -3 -27   -0.96    5.01
  -6   3 -28    5.20    6.26
  -6  -3 -28    4.18    5.57
  -6  -4   0   89.84   13.75
  -6  -4  -1  104.13   14.75
  -6  -4   1  125.32   15.96
  -6  -4  -2    5.89    4.28
  -6  -4   2   10.25    4.80
  -6   4  -2    5.26    1.88
  -6  -4  -3   84.34   13.12
  -6  -4   3   63.92   11.19
  -6   4  -3   76.52    8.31
  -6   4  -4   16.57    3.69
  -6  -4   4   27.83    7.60
  -6  -4  -4   13.41    6.29
  -6   4  -5    6.01    0.64
  -6  -4   5   10.83    5.45
  -6  -4  -5   15.07    5.80
  -6   4  -6    5.45    2.73
  -6  -4  -6    6.99    5.96
  -6  -4   6    5.50    1.80
  -6  -4   6    7.00    2.81
  -6  -4   7  205.22   20.07
  -6  -4  -7  170.28   20.49
  -6   4  -7  222.12   19.65
  -6  -4  -8  521.21   36.10
  -6   4  -8  494.04   30.95
  -6  -4   9  116.99   16.70
  -6  -4   9  103.05   14.13
  -6  -4  -9  113.43   18.53
  -6   4  -9   96.66   14.87
  -6  -4  10  240.59   25.01
  -6  -4 -10  246.72   26.19
  -6   4 -10  185.35   20.54
  -6  -4 -11   11.98    6.46
  -6   4 -11   10.16    5.47
  -6  -4  11    5.08    4.59
  -6  -4 -12    6.17    6.76
  -6   4 -12   16.59    7.08
  -6  -4 -13   12.31    7.11
  -6   4 -13   33.79   10.73
   6   4 -13   17.38    7.61
  -6  -4 -14   32.64    9.02
  -6   4 -14   35.53    9.98
   6   4 -14   22.94    7.86
  -6  -4 -15  119.93   20.15
   6   4 -15  133.25   19.70
  -6   4 -15  124.20   18.64
   6   4 -16   17.27    7.52
  -6  -4 -16   27.37   10.16
  -6   4 -17   43.05   11.42
   6   4 -17   51.21   10.97
  -6  -4 -17   36.49   11.73
  -6  -4 -18   69.34   15.01
   6   4 -18   83.59   16.43
  -6   4 -18  101.17   18.04
  -6   4 -19   13.43    7.81
  -6  -4 -19    6.12    5.18
   6   4 -19   17.54    8.05
  -6   4 -20   -0.94    1.03
  -6  -4 -20   -1.17    4.18
   6   4 -20   -5.88    3.95
  -6   4 -21   23.02    9.66
  -6  -4 -21    9.57    7.41
   6   4 -21    6.47    2.28
  -6   4 -22   41.09   11.50
  -6  -4 -22   47.54   13.60
   6   4 -22   32.46   10.40
  -6   4 -23   11.36    4.47
  -6  -4 -23   29.60   12.58
   6   4 -23   32.02   10.68
  -6   4 -24   -0.49    5.86
  -6  -4 -24    1.84    4.46
   6   4 -24   -1.27    2.54
  -6   4 -25   29.39   10.98
  -6  -4 -25   35.04   13.96
   6   4 -25    1.86    3.31
  -6   4 -26    7.68    6.57
  -6  -4 -26    2.60    4.90
  -6   4 -27    9.82    8.54
  -6  -4 -27   11.08    6.41
  -6  -5   0    0.32    2.25
  -6  -5  -1  196.96   21.60
  -6  -5   1  200.64   21.60
  -6  -5  -2   23.29    7.55
  -6  -5   2   34.06    9.00
  -6   5  -3    0.98    1.07
  -6  -5   3    2.10    2.37
  -6  -5  -3   -3.45    4.87
  -6  -5   4    1.54    2.14
  -6  -5  -4    2.16    4.27
  -6   5  -4    1.68    2.11
  -6   5  -5  205.33   16.81
  -6  -5  -5  183.36   20.90
  -6   5  -6   72.22   11.09
  -6  -5  -6   97.74   16.05
  -6  -5   6  116.41   16.46
  -6  -5   7   94.85   13.93
  -6   5  -7  123.99   14.63
  -6  -5  -7  124.98   18.52
  -6   5  -8   13.14    4.73
  -6  -5  -8   11.52    6.13
  -6  -5   8    3.82    5.28
  -6  -5   8   23.96    7.40
  -6  -5   9   85.80   15.32
  -6  -5   9  119.63   17.23
  -6  -5  -9  106.08   17.02
  -6   5  -9   95.72   14.39
  -6   5 -10   15.97    6.65
  -6  -5 -10    8.50    2.71
  -6  -5  10   13.85    6.00
  -6  -5  10   11.02    6.43
  -6   5 -11    9.71    5.04
  -6  -5  11   11.84    8.13
  -6  -5 -11   11.71    6.97
  -6  -5  11    8.89    6.03
  -6   5 -12   15.14    6.25
  -6  -5 -12   31.24    9.67
  -6  -5  12   45.42   10.42
  -6  -5 -13  100.06   18.33
  -6  -5  13  148.63   20.35
  -6   5 -13   96.86   16.69
  -6  -5 -14   20.54    8.42
  -6   5 -14   23.23    7.17
  -6  -5  14   35.62   10.22
  -6  -5 -15   17.18    7.98
  -6   5 -15   24.34    9.22
  -6  -5  15   24.42    8.70
   6   5 -15    7.03    3.55
  -6   5 -16    0.91    3.22
  -6  -5  16    7.03    5.69
   6   5 -16    4.42    5.43
  -6  -5 -16    6.40    4.07
  -6   5 -17    1.11    5.48
  -6  -5  17   -0.66    1.19
   6   5 -17    1.80    4.63
  -6  -5 -17    3.48    2.71
   6   5 -18   76.36   16.30
  -6   5 -18   93.01   17.84
  -6  -5 -18   73.10   16.65
  -6   5 -19   29.72   11.23
   6   5 -19   21.51   10.01
  -6  -5 -19   23.80    9.51
  -6   5 -20   -0.10    4.49
  -6  -5 -20   -3.38    6.03
   6   5 -20    3.40    2.32
  -6   5 -21   34.48   11.82
  -6  -5 -21   25.19   11.39
   6   5 -21   22.81   10.36
  -6   5 -22   -0.41    2.85
  -6  -5 -22    2.04    5.92
   6   5 -22    2.87    6.71
  -6   5 -23    3.07    2.57
  -6  -5 -23    1.32    2.64
   6   5 -23    2.41    4.00
  -6   5 -24   23.07    9.99
  -6  -5 -24   37.03   13.17
   6   5 -24   19.01    9.80
  -6   5 -25   15.43    9.64
  -6  -5 -25   22.60   13.07
   6   5 -25    8.67    9.77
  -6   5 -26    6.40    9.34
  -6  -5 -26    0.65    2.08
   6   5 -26    6.07    6.72
  -6   5 -27   -0.92    5.74
  -6  -5 -27   -8.41    8.40
   6   5 -27   -0.35    4.08
  -6  -6   0   -1.84    2.23
  -6  -6  -1  111.61   17.42
  -6  -6   1  100.76   15.84
  -6  -6  -2   10.38    5.34
  -6  -6   2   16.70    6.79
  -6  -6  -3   21.20    6.68
  -6  -6   3    6.47    0.87
  -6  -6  -4  620.98   40.60
  -6  -6   4  495.41   36.17
  -6   6  -5   68.60    9.81
  -6  -6   5   67.78   13.35
  -6  -6  -5   78.26   14.51
  -6  -6   6   15.87    5.66
  -6  -6  -6   32.74    9.57
  -6   6  -6   31.65    7.34
  -6   6  -7  162.55   18.55
  -6  -6  -7  192.11   22.79
  -6  -6   8   10.57    4.28
  -6  -6  -8   11.89    7.03
  -6   6  -8    6.31    4.02
  -6   6  -9    2.56    2.99
  -6  -6  -9    1.79    1.02
  -6  -6   9    5.66    4.14
  -6   6 -10   38.53    9.50
  -6  -6  10   58.91   12.64
  -6  -6 -10   46.67   10.90
  -6  -6  10   52.34   11.02
  -6  -6  11  179.00   23.26
  -6  -6 -11  156.10   22.78
  -6   6 -11  155.42   19.73
  -6   6 -12   58.10   12.29
  -6  -6 -12   42.16   11.77
  -6  -6  12   44.15   11.99
  -6  -6  12   70.57   14.95
  -6   6 -13   17.43    5.96
  -6  -6 -13   11.25    6.69
  -6  -6  13    7.36    4.80
  -6  -6 -14  313.95   33.08
  -6  -6  14  255.41   27.29
  -6   6 -14  314.95   30.38
  -6  -6 -15   62.48   15.91
  -6   6 -15   61.15   13.71
  -6  -6  15   55.57   12.78
  -6  -6 -16   17.87    7.41
  -6   6 -16   10.31    6.63
  -6  -6  16   18.13    8.61
  -6  -6 -17   17.20    6.23
  -6   6 -17   13.50    7.85
  -6  -6  17   14.73    5.62
   6   6 -17   11.53    7.24
  -6   6 -18   37.53   12.27
  -6  -6  18   73.45   15.49
   6   6 -18   45.95   11.97
  -6  -6 -18   31.90   10.51
  -6   6 -19   12.90    6.24
  -6  -6  19   16.04    7.20
   6   6 -19   -2.49    3.92
  -6  -6 -19   10.43    7.51
  -6   6 -20    1.86    2.49
  -6  -6  20   -1.98    4.85
  -6  -6 -20    0.28    1.32
  -6   6 -21    8.48    5.27
  -6  -6  21    5.48    4.46
   6   6 -21   14.71   10.55
  -6  -6 -21   14.57    7.04
  -6   6 -22   31.97   10.77
  -6  -6  22    3.91    3.93
  -6  -6 -22   50.35   14.89
   6   6 -22   28.07   11.65
  -6   6 -23   17.98    8.93
  -6  -6  23   14.99    7.42
  -6  -6 -23   22.10   11.22
   6   6 -23   13.27    9.04
  -6   6 -24   26.57   12.01
  -6  -6  24   27.01   10.36
  -6  -6 -24   22.50    7.52
   6   6 -24   23.09    9.25
  -6   6 -25   44.13   14.91
  -6  -6  25    7.90    5.63
  -6  -6 -25   30.80   12.10
   6   6 -25   25.02   10.75
  -6   6 -26   20.02    9.22
  -6  -6  26   22.60   10.10
   6   6 -26   15.24    6.80
  -6  -7   0  149.67   20.10
  -6  -7  -1   70.20   13.67
  -6  -7   1   75.00   14.40
  -6  -7  -2  194.38   23.77
  -6  -7   2  158.52   20.88
  -6  -7  -3   93.05   16.41
  -6  -7   3  133.10   19.02
  -6  -7   4    0.25    2.60
  -6  -7  -4    1.54    3.84
  -6  -7   5   22.45    6.90
  -6  -7  -5   25.46    8.70
  -6  -7   6    7.53    6.43
  -6  -7  -6   -1.68    3.57
  -6  -7  -7   -2.12    3.28
  -6  -7   7   -2.27    3.16
  -6  -7   8    2.38    3.13
  -6  -7  -8   -0.58    5.42
  -6   7  -8   -0.87    1.86
  -6  -7   9    6.89    6.54
  -6  -7  -9   -0.40    1.14
  -6   7  -9    1.00    2.56
  -6  -7 -10   49.18   13.35
  -6   7 -10   54.97   12.52
  -6  -7  10   47.65   12.45
  -6  -7  11   -3.44    2.46
  -6  -7 -11    1.04    2.95
  -6   7 -11   -4.58    6.37
  -6   7 -12   19.58    8.09
  -6  -7 -12    6.88    1.11
  -6  -7  12   10.55    7.59
  -6   7 -13    8.97    4.83
  -6  -7 -13    8.51    4.17
  -6  -7  13   13.30    7.36
  -6  -7  13   16.90    8.42
  -6   7 -14   31.59    9.95
  -6  -7 -14   27.49    8.32
  -6  -7  14   17.48    8.06
  -6   7 -15    7.20    6.16
  -6  -7 -15    2.36    2.06
  -6  -7  15   11.35    6.98
  -6   7 -16   -1.39    3.15
  -6  -7 -16    4.08    5.39
  -6   7 -17    3.35    1.79
  -6  -7  17    7.42    0.40
  -6  -7 -18   20.47    9.23
  -6   7 -18   16.76    8.11
  -6  -7  18   28.68    9.46
  -6   7 -19   -1.83    1.99
  -6  -7  19   -4.17    5.39
   6   7 -19    5.67    4.93
  -6  -7 -19    2.44    5.12
  -6   7 -20    3.55    5.63
  -6  -7  20   -0.25    4.32
   6   7 -20   -0.98    3.51
  -6  -7 -20   11.30   11.63
  -6   7 -21   -2.80    2.30
  -6  -7  21    2.31    1.37
   6   7 -21    5.08    8.79
  -6  -7 -21    0.43    3.06
  -6   7 -22    6.99    7.56
  -6  -7  22   10.46    8.63
   6   7 -22    3.90    5.08
  -6  -7 -22    7.53    7.70
  -6   7 -23   -0.84    4.96
  -6  -7  23    2.25    6.83
   6   7 -23    5.12    6.26
  -6  -7 -23   -1.75    5.98
  -6   7 -24    4.15    4.93
  -6  -7  24   -5.91    6.62
  -6  -7 -24    1.48    4.72
   6   7 -24    4.19    3.59
  -6   7 -25   -2.21    3.34
  -6  -7  25   -0.42    2.29
  -6  -7 -25   -1.48    8.84
   6   7 -25    3.31    5.95
  -6  -8   0    0.89    3.14
  -6  -8  -1   14.95    7.82
  -6  -8   1   10.57    6.77
  -6  -8  -2   30.76   10.51
  -6  -8   2   26.82    8.51
  -6  -8  -3  130.90   19.29
  -6  -8   3  114.81   18.66
  -6  -8  -4   59.44   13.72
  -6  -8   4   70.88   14.68
  -6  -8  -5  136.25   22.00
  -6  -8   5  136.93   19.55
  -6  -8   6    1.19    4.79
  -6  -8  -6    2.05    4.39
  -6  -8   7  227.87   26.96
  -6  -8  -7  239.77   27.65
  -6  -8  -8    6.58    6.78
  -6  -8   8    2.35    1.28
  -6  -8   9   21.91    7.77
  -6  -8  -9    9.57    7.25
  -6  -8  10   16.07    7.67
  -6  -8 -10    6.00    1.72
  -6  -8  11  132.69   20.72
  -6   8 -11  119.20   18.91
  -6  -8 -11  171.90   24.11
  -6  -8  12    2.27    2.81
  -6  -8 -12    5.50    5.28
  -6   8 -12    7.03    3.11
  -6  -8 -13    8.19    5.58
  -6  -8  13   -0.67    4.43
  -6   8 -13    5.32    5.91
  -6  -8  14   18.83    8.54
  -6  -8 -14   15.14    7.99
  -6   8 -14   20.37    9.89
  -6  -8  15  204.83   28.02
  -6  -8 -15  203.61   26.95
  -6   8 -15  285.54   31.13
  -6  -8 -16   -3.28    4.38
  -6   8 -16    2.06    1.64
  -6   8 -17   67.12   15.62
  -6  -8 -17   69.29   15.96
  -6  -8  17  101.80   20.64
  -6   8 -18    2.37    3.49
  -6  -8 -18    2.85    5.95
  -6  -8  18    3.27    1.91
  -6  -8 -19   66.72   16.05
  -6   8 -19   36.22   11.23
  -6  -8  19   43.01   11.74
  -6   8 -20    5.89    4.88
  -6  -8  20   -0.98    7.37
  -6  -8 -20   -0.40    3.77
  -6   8 -21   69.54   16.68
  -6  -8  21   47.67   14.53
  -6  -8 -21   55.18   17.18
  -6   8 -22    6.63    8.13
  -6  -8  22    7.03    2.88
   6   8 -22    0.16    4.81
  -6  -8 -22   -7.74   10.88
  -6   8 -23   21.42    8.58
  -6  -8  23   27.31   10.39
   6   8 -23   22.70   10.30
  -6  -8 -23   37.09   13.22
  -6   8 -24    1.32    1.28
  -6  -8  24   -3.32    3.22
   6   8 -24   -0.56    4.32
  -6  -8 -24   -5.07    6.52
  -6  -9   0   91.80   17.10
  -6  -9  -1    5.87    7.79
  -6  -9   1   11.62    5.33
  -6  -9  -2    0.73    0.95
  -6  -9   2    0.40    0.87
  -6  -9  -3   11.55    6.12
  -6  -9   3    4.86    6.39
  -6  -9   4   -0.33    4.31
  -6  -9  -4    4.65    1.81
  -6  -9  -5  133.06   20.81
  -6  -9   5   76.33   15.96
  -6  -9   6   19.36    6.94
  -6  -9  -6   18.79    7.96
  -6  -9   7    3.56    4.53
  -6  -9  -7   -2.40    5.29
  -6  -9  -8   26.09    5.35
  -6  -9   8    9.98    2.44
  -6  -9  -9    9.83    4.16
  -6  -9   9    7.83    4.95
  -6  -9  10   11.88    6.79
  -6  -9 -10   10.75    7.84
  -6  -9  11    3.22    2.17
  -6  -9 -11    0.38    6.86
  -6  -9 -12   10.64    8.03
  -6  -9  12    8.14    4.90
  -6  -9 -13   20.81    9.84
  -6  -9  13   -0.59    5.21
  -6  -9 -14    5.72    6.34
  -6  -9  14   12.06    6.64
  -6  -9 -15   -0.68    2.30
  -6  -9  15    0.08    4.88
  -6  -9 -16    4.15    3.07
  -6  -9  16    3.59    5.04
  -6  -9 -17    5.40    5.16
  -6  -9  17   -0.78    2.74
  -6   9 -17   -0.66    4.56
  -6  -9 -18    0.20    3.23
  -6  -9  18   -1.25    4.15
  -6   9 -18   -1.09    3.49
  -6  -9 -19    3.77    1.44
  -6   9 -19   -5.68    3.88
  -6  -9 -20   15.28    7.40
  -6   9 -20   11.24    9.20
  -6  -9 -21    2.95    2.87
  -6   9 -21   19.96   11.73
  -6  -9 -22   10.44    7.68
  -6   9 -22   15.22    9.83
  -6  -9  23   -5.91    6.07
  -6  -9 -23   -1.78    6.71
  -6   9 -23    9.41    9.96
  -6 -10   0   52.51   13.34
  -6 -10  -1    8.45    3.06
  -6 -10   1   16.07    7.36
  -6 -10  -2    3.69    6.16
  -6 -10   2   10.16    4.77
  -6 -10  -3   27.78    9.18
  -6 -10   3   34.43   12.22
  -6 -10  -4  111.76   18.58
  -6 -10   4  120.71   19.52
  -6 -10   5    4.12    4.03
  -6 -10  -5    3.19    4.43
  -6 -10   6   26.87    9.70
  -6 -10  -6   25.00   10.07
  -6 -10   7   11.39   10.30
  -6 -10  -7    6.16    2.72
  -6 -10  -8   94.40   18.54
  -6 -10  -9   -4.47    5.90
  -6 -10   9   -1.23    3.30
  -6 -10 -10   26.23   10.77
  -6 -10  10   29.15    9.74
  -6 -10 -11   69.98   16.45
  -6 -10  11   59.17   15.18
  -6 -10  12   35.27   11.20
  -6 -10 -12   55.44   14.05
  -6 -10 -13    0.30    3.62
  -6 -10  13   -2.75    5.60
  -6 -10 -14   61.37   15.68
  -6 -10  14   55.14   14.21
  -6 -10  15   17.96    8.46
  -6 -10 -15   48.47   16.03
  -6 -10 -16   -2.46    1.31
  -6 -10  16   -5.38    7.28
  -6 -10 -17    4.94    5.27
  -6 -10  17   -2.33    2.83
  -6 -10  18   48.87   14.46
  -6 -10 -18   50.91   16.17
  -6 -10 -19   15.55    9.77
  -6 -10  19   -0.80    5.72
  -6 -10 -20    6.71    7.00
  -6 -10  20    5.63    4.76
  -6 -10  21   42.36   13.56
  -6 -10 -21   27.98    9.98
  -6 -11   0    3.23    4.68
  -6 -11  -1   22.69   10.28
  -6 -11   1   27.35   10.20
  -6 -11  -2   12.05    5.05
  -6 -11   2    6.16    4.48
  -6 -11  -3   50.04   13.52
  -6 -11   3   43.29   12.05
  -6 -11  -4    8.33    3.61
  -6 -11   4   -0.46    3.99
  -6 -11  -5    2.35    6.77
  -6 -11   5   -0.20    3.36
  -6 -11   6    7.15    5.53
  -6 -11  -6    7.20    5.19
  -6 -11   7   11.23    6.56
  -6 -11  -7    8.97    4.28
  -6 -11   8   -0.62    3.67
  -6 -11  -8    5.24    5.29
  -6 -11   9   15.78    9.26
  -6 -11  -9   14.35    8.33
  -6 -11 -10    0.37    2.39
  -6 -11  10    3.56    3.98
  -6 -11 -11    1.55    3.22
  -6 -11  11   -0.35    1.08
  -6 -11 -12   11.75    8.83
  -6 -11  12   15.65    4.13
  -6 -11  13    6.98    2.86
  -6 -11 -13    9.82    6.48
  -6 -11  14   11.25    8.72
  -6 -11 -14    1.35    4.80
  -6 -11 -15    7.56    9.61
  -6 -11  15   -1.39    0.76
  -6 -11 -16    3.80    2.45
  -6 -11  16   -1.36    3.24
  -6 -11 -17   -1.84    6.79
  -6 -11  17    3.04    3.79
  -6 -11 -18   19.54   10.21
  -6 -11  18    2.99    2.69
  -6 -11 -19    4.61    0.52
  -6 -11  19    1.83    4.43
  -6 -12   0   16.65    8.23
  -6 -12  -1    8.65    4.57
  -6 -12   1    8.82    6.02
  -6 -12  -2   25.61    8.95
  -6 -12   2   26.86    9.14
  -6 -12  -3   16.41    7.72
  -6 -12   3    4.18    2.45
  -6 -12  -4    9.48    3.86
  -6 -12   4    8.75    5.74
  -6 -12   5   13.53    6.85
  -6 -12  -5   10.24    5.28
  -6 -12  -6   -1.80    3.88
  -6 -12   6   -1.18    5.97
  -6 -12   7    6.33    7.85
  -6 -12  -7   -4.17    3.64
  -6 -12   8    7.41    3.14
  -6 -12  -8    6.19    6.28
  -6 -12   9    5.28    2.37
  -6 -12  -9   20.88    9.99
  -6 -12  10   -2.87    2.63
  -6 -12 -10   -0.75    2.51
  -6 -12 -11   40.72   15.10
  -6 -12  11   67.53   15.10
  -6 -12 -12   10.77    9.03
  -6 -12  12    7.91    5.63
  -6 -12 -13    6.75    6.12
  -6 -12  13   -1.05    6.17
  -6 -12  14   18.36    7.99
  -6 -12 -14    2.13    2.08
  -6 -12  15   -2.02    4.99
  -6 -12 -15   -2.47    5.64
  -6 -12 -16    4.94    3.93
  -6 -12  16   23.17    9.16
  -6 -12 -17   -4.23    3.97
  -6 -12  17   -2.83    3.85
  -6 -13   0   27.98    9.49
  -6 -13  -1   -2.18    4.26
  -6 -13   1   -2.72    6.19
  -6 -13  -2    2.17    4.37
  -6 -13   2   -4.61    6.69
  -6 -13  -3    5.19    5.97
  -6 -13   3    1.27    7.03
  -6 -13   4    5.02    4.43
  -6 -13  -4    0.47    4.27
  -6 -13   5    7.57    7.46
  -6 -13  -5   -1.21    1.98
  -6 -13  -6   -1.30    3.01
  -6 -13   6    0.49    3.54
  -6 -13  -7    4.72    4.80
  -6 -13   7    0.75    2.48
  -6 -13   8    0.66    2.62
  -6 -13  -8   -3.95    5.14
  -6 -13   9    9.85    6.23
  -6 -13  -9    3.29    1.11
  -6 -13  10    9.32    7.22
  -6 -13 -10    3.53    4.67
  -6 -13  11    2.83    3.00
  -6 -13 -11    6.04    4.05
  -6 -13 -12    2.59    6.43
  -6 -13  12    5.03    2.93
  -6 -13 -13   -3.32    5.81
  -6 -13  13    8.68    7.53
  -6 -13 -14   27.43   11.64
  -6 -13  14   45.65   12.77
  -6 -14   0   33.88   11.51
  -6 -14  -1   -4.34    5.71
  -6 -14   1   -7.34    8.67
  -6 -14  -2    4.26    4.68
  -6 -14   2    3.11    1.16
  -6 -14  -3   49.42   15.27
  -6 -14   3   39.31   12.30
  -6 -14   4   14.06    8.34
  -6 -14  -4   19.71    8.96
  -6 -14   5    1.21    4.02
  -6 -14  -5   11.38    4.81
  -6 -14   6   -7.29    7.12
  -6 -14  -6   -1.51    1.03
  -6 -14  -7    1.32    5.10
  -6 -14   7   13.16    6.70
  -6 -14  -8   14.07    4.51
  -6 -14   8   21.68    9.35
  -6 -14   9   -0.13    1.87
  -6 -14  -9    2.18    2.96
  -7   0   0    1.17    2.94
  -7   0  -1    0.38    1.60
  -7   0   1   -0.32    0.65
  -7   0  -2  727.20   33.23
  -7   0   2  643.51   28.71
  -7   0  -3   -0.21    2.68
  -7   0   3   -1.21    1.00
  -7   0   4  422.59   21.53
  -7   0  -4  298.21   23.10
  -7   0   5    1.03    1.76
  -7   0  -5   -0.99    1.23
  -7   0  -6  118.86   14.81
  -7   0   6   97.96   10.82
  -7   0  -7    1.04    2.53
  -7   0   7    0.75    2.35
  -7   0  -8  420.89   29.94
  -7   0   8  324.39   21.53
  -7   0   9    2.95    3.41
  -7   0  -9    0.90    5.59
  -7   0 -10   37.03   10.59
  -7   0 -11   -3.99    6.73
  -7   0 -12  118.67   18.74
  -7   0 -13    8.33    5.50
  -7   0 -14  570.24   42.76
  -7   0 -15   -1.95    0.73
  -7   0 -16  388.23   35.58
  -7   0 -17    3.44    3.41
  -7   0 -18   72.66   15.73
  -7   0 -19    7.06    7.32
  -7   0 -20   73.08   16.24
  -7   0 -21    4.77    4.66
  -7   0 -22   16.39    6.61
  -7   0 -23    0.95    4.86
  -7   0 -24   56.98   16.50
  -7   0 -25    0.62    2.87
  -7   0 -26   31.14   11.87
  -7   0 -27    8.91    8.07
  -7  -1   0    1.35    2.87
  -7   1   0    1.76    1.54
  -7   1  -1  186.02   13.31
  -7  -1  -1  222.11   19.67
  -7  -1   1  242.70   18.83
  -7  -1   2  338.58   22.30
  -7   1  -2  327.46   19.66
  -7  -1  -2  397.74   25.86
  -7  -1   3  102.96   12.11
  -7   1  -3  146.18   14.97
  -7  -1  -3  122.55   15.50
  -7   1  -4   94.81   12.06
  -7  -1   4  102.14   12.03
  -7  -1  -4   84.23   12.79
  -7  -1  -5    0.60    3.66
  -7  -1   5    1.42    3.62
  -7   1  -5   -0.55    1.44
  -7   1  -6  304.05   24.59
  -7  -1  -6  257.75   23.87
  -7  -1   6  233.13   18.09
  -7  -1  -7   11.79    6.57
  -7  -1   7    9.85    3.87
  -7   1  -7    0.07    2.36
  -7   1  -8  217.54   21.98
  -7  -1  -8  291.41   26.59
  -7  -1   8  266.04   21.17
  -7  -1   9  179.78   17.50
  -7   1  -9  219.77   23.06
  -7  -1  -9  223.61   23.92
  -7  -1  10   21.07    6.41
  -7   1 -10   14.49    4.90
  -7  -1 -10   12.76    4.64
  -7   1 -11  200.36   23.09
  -7  -1 -11  203.66   23.45
  -7  -1  11  178.91   19.93
  -7   1 -12  359.97   31.08
  -7  -1 -12  272.18   29.75
  -7   1 -13   -5.62    6.48
  -7  -1 -13    6.73    9.14
  -7   1 -14   90.84   16.70
  -7  -1 -14   88.14   17.22
  -7   1 -15    4.85    3.53
  -7  -1 -15   -0.51    5.86
  -7   1 -16   -2.44    2.96
  -7  -1 -16    7.98    8.76
  -7   1 -17   12.26    8.40
  -7  -1 -17    3.18    3.88
  -7   1 -18    3.36    4.27
  -7  -1 -18    3.72    5.75
  -7   1 -19   -2.86    3.72
  -7  -1 -19    5.83    4.23
  -7   1 -20    9.51    5.97
  -7  -1 -20    4.28    1.36
  -7   1 -21   -1.99    6.26
  -7  -1 -21    5.10    4.25
  -7   1 -22    7.48    8.37
  -7  -1 -22   -4.42    4.76
  -7   1 -23    1.28    2.83
  -7  -1 -23    0.22    6.16
  -7   1 -24   -3.38    3.89
  -7  -1 -24   -3.83    5.16
  -7   1 -25    3.50    2.87
  -7  -1 -25   -5.49    2.57
  -7   1 -26    5.92    4.49
  -7  -1 -26   -3.80    2.79
  -7   1 -27    6.67    6.35
  -7  -1 -27   15.83    6.83
  -7  -2   0    0.47    1.54
  -7  -2   1  338.90   24.24
  -7  -2  -1  337.41   25.19
  -7   2  -2   79.06    8.71
  -7  -2   2   71.05   10.91
  -7  -2  -2   66.30   12.25
  -7   2  -3   56.42    8.48
  -7  -2   3   62.84   10.59
  -7  -2  -3   67.34   11.53
  -7  -2  -4    7.91    4.07
  -7   2  -4    0.46    2.43
  -7  -2   4    6.89    4.42
  -7  -2   4    7.18    3.16
  -7   2  -5  754.17   34.24
  -7  -2   5  886.86   39.28
  -7  -2   5  726.10   29.75
  -7  -2  -5  890.17   45.83
  -7  -2   6   23.03    6.17
  -7  -2  -6   25.50    7.52
  -7   2  -6   25.02    5.74
  -7   2  -7  188.40   19.21
  -7  -2  -7  195.40   21.61
  -7  -2  -8   22.34    7.64
  -7   2  -8   21.64    7.87
  -7  -2   8   22.22    6.77
  -7  -2   9    2.49    1.67
  -7   2  -9    3.02    1.44
  -7  -2  10  217.58   22.43
  -7  -2 -10  279.01   27.62
  -7   2 -11   53.36   11.37
  -7  -2  11   73.66   13.48
  -7  -2 -11   64.65   14.25
  -7   2 -12   14.52    5.21
  -7  -2 -12   13.69    6.57
  -7   2 -13  196.64   24.09
  -7  -2 -13  155.60   20.12
  -7   2 -14    8.16    6.60
  -7  -2 -14   -0.30    1.38
  -7   2 -15   41.54   11.42
  -7  -2 -15   45.22   13.25
  -7  -2 -16   82.30   16.65
  -7   2 -16   64.43   15.27
  -7   2 -17   46.26   12.96
  -7  -2 -17   49.63   13.47
  -7   2 -18    0.31    4.20
  -7  -2 -18    1.55    4.91
  -7   2 -19  154.27   24.88
  -7  -2 -19  205.98   28.18
  -7   2 -20   97.87   18.91
  -7  -2 -20   78.71   16.41
  -7   2 -21    1.15    3.00
  -7  -2 -21   -0.84    5.66
  -7   2 -22    0.27    1.97
  -7  -2 -22    1.24    4.33
  -7   2 -23   80.02   17.51
  -7  -2 -23   59.94   14.04
  -7   2 -24   -6.72    8.46
  -7  -2 -24   -3.89    4.69
  -7   2 -25   -1.22    3.30
  -7  -2 -25   -1.26    4.98
  -7   2 -26    0.79    0.65
  -7  -2 -26   -0.65    2.04
  -7   2 -27    5.22    6.68
  -7  -2 -27    6.40    3.00
  -7  -3   0   -2.35    4.14
  -7  -3   1   36.50    8.78
  -7  -3  -1   33.06    8.76
  -7  -3   2    6.61    3.35
  -7  -3  -2   20.69    6.40
  -7  -3   3    4.43    3.59
  -7  -3  -3    8.77    5.23
  -7  -3  -4   39.42    9.28
  -7  -3   4   32.41    8.48
  -7  -3   5  529.22   28.23
  -7  -3   5  448.50   29.67
  -7  -3  -5  515.76   34.37
  -7   3  -5  449.67   26.52
  -7  -3   6    0.13    3.09
  -7   3  -6    3.56    3.32
  -7  -3  -6    2.80    4.37
  -7  -3   6    3.11    2.90
  -7  -3   7   62.61   10.03
  -7  -3  -7   92.56   15.46
  -7  -3   7   79.39   12.84
  -7   3  -7   85.28   12.86
  -7  -3  -8   51.48   12.05
  -7  -3   8   28.90    7.20
  -7  -3   8   45.95   10.04
  -7   3  -8   49.45   10.59
  -7  -3   9  129.06   16.97
  -7  -3  -9  105.60   17.23
  -7  -3   9  114.44   15.13
  -7   3  -9   88.93   13.91
  -7  -3 -10   16.59    7.32
  -7   3 -10   10.84    6.09
  -7  -3  10    5.70    2.50
  -7   3 -11  153.21   19.08
  -7  -3  11  167.47   20.62
  -7  -3 -11  137.56   20.02
  -7   3 -12   68.71   13.90
  -7  -3  12   76.07   14.97
  -7  -3 -12   86.00   15.78
  -7   3 -13   18.96    8.50
  -7  -3 -13    6.31    5.09
  -7   3 -14    7.15    2.83
  -7  -3 -14    9.18    5.77
  -7   3 -15   48.80   11.82
  -7  -3 -15   16.92    7.35
  -7   3 -16    2.16    2.85
   7   3 -16   16.94   11.24
  -7  -3 -16    6.82    6.68
  -7   3 -17    2.37    8.10
   7   3 -17  -10.36    5.71
  -7  -3 -17   -3.46    7.14
  -7   3 -18    6.72    6.34
  -7  -3 -18   -0.24    6.39
  -7   3 -19    2.41    5.93
  -7  -3 -19   -1.55    2.53
  -7   3 -20   -1.30    4.03
  -7  -3 -20    4.80    5.36
  -7   3 -21    3.38    2.44
  -7  -3 -21    5.16    7.12
  -7   3 -22   -0.89    5.46
  -7  -3 -22    0.66    3.42
  -7   3 -23    5.86    7.01
  -7  -3 -23    2.55    5.43
  -7   3 -24   13.40    5.46
  -7  -3 -24   10.06    7.14
  -7   3 -25   -1.20    3.10
  -7  -3 -25    0.95    1.64
  -7   3 -26    1.28    4.95
  -7  -3 -26   -3.10    4.80
  -7  -4   0   -0.14    3.23
  -7  -4  -1  129.67   17.12
  -7  -4   1  129.49   17.08
  -7  -4  -2  446.03   32.50
  -7  -4   2  394.21   29.29
  -7  -4   3    1.72    2.65
  -7  -4  -3   10.39    5.42
  -7  -4   4  466.40   32.15
  -7  -4  -4  512.68   35.42
  -7  -4   5   97.73   14.73
  -7  -4  -5  117.18   17.29
  -7  -4   6   36.12    9.17
  -7  -4  -6   43.12   10.85
  -7   4  -7   27.55    7.94
  -7  -4  -7   11.89    4.27
  -7  -4   7   15.91    5.48
  -7  -4   8  116.49   16.42
  -7  -4  -8  131.48   18.91
  -7   4  -8  117.35   16.35
  -7  -4   8  103.12   15.92
  -7  -4   9  142.85   17.89
  -7  -4  -9  132.67   20.35
  -7   4  -9  133.16   17.45
  -7  -4 -10    2.17    2.60
  -7   4 -10    1.34    2.44
  -7  -4  10    0.02    4.28
  -7  -4  10    2.02    4.32
  -7  -4  11    0.19    1.89
  -7   4 -11    2.05    3.61
  -7  -4  11   -1.83    1.56
  -7  -4 -12    7.40    5.29
  -7   4 -12    6.41    4.98
  -7  -4  12    7.04    4.89
  -7  -4  12    4.54    3.61
  -7  -4 -13  123.25   20.94
  -7  -4  13  140.83   19.79
  -7   4 -13  123.82   20.08
  -7  -4  13  120.46   19.41
  -7   4 -14    2.87    0.48
  -7  -4 -14    2.33    3.49
  -7   4 -15    5.89    3.23
  -7  -4 -15    1.95    5.15
  -7   4 -16   78.52   15.25
  -7  -4 -16   66.46   15.37
  -7   4 -17   41.01   12.52
   7   4 -17   37.65   11.53
  -7  -4 -17   42.85   12.41
  -7   4 -18   31.16    9.99
   7   4 -18   26.31    8.73
  -7  -4 -18   16.86    7.95
  -7   4 -19   41.83   12.67
   7   4 -19   29.28   11.82
  -7  -4 -19    8.69    6.59
  -7   4 -20   57.76   13.44
  -7  -4 -20   60.37   16.30
  -7   4 -21   -0.91    4.18
  -7  -4 -21    4.98    5.67
  -7   4 -22    6.66    5.86
  -7  -4 -22   11.01    7.33
  -7   4 -23   -5.72    6.83
  -7  -4 -23   15.35   11.86
  -7   4 -24    7.03    4.91
  -7  -4 -24    1.64    2.22
  -7   4 -25   -2.88    5.91
  -7  -4 -25   18.34    9.46
  -7   4 -26   15.87    8.10
  -7  -4 -26    0.37    3.83
  -7  -5   0    0.49    2.33
  -7  -5  -1    0.78    2.80
  -7  -5   1    3.85    5.69
  -7  -5   2    5.80    5.19
  -7  -5  -2    8.20    4.80
  -7  -5  -3   54.01   12.18
  -7  -5   3   43.36   10.56
  -7  -5  -4    9.51    3.28
  -7  -5   4   13.14    4.60
  -7  -5   5   11.03    5.44
  -7  -5  -5    9.54    4.69
  -7  -5   6   87.54   16.00
  -7  -5  -6   88.61   15.15
  -7  -5  -7   96.81   17.69
  -7  -5  -8    3.45    4.85
  -7  -5   8    1.50    3.67
  -7  -5   9   -1.81    3.07
  -7  -5  -9    1.23    3.98
  -7  -5   9   -0.22    2.90
  -7   5 -10    2.52    3.37
  -7  -5 -10   10.04    5.23
  -7  -5  10    3.52    3.04
  -7  -5  10    2.62    2.73
  -7   5 -11    7.65    5.05
  -7  -5 -11   30.87    9.30
  -7  -5  11   20.76    7.95
  -7  -5  11   17.32    8.52
  -7  -5 -12   16.06    5.71
  -7   5 -12   15.92    5.72
  -7  -5  12   20.82    8.04
  -7  -5  12    4.01    2.61
  -7  -5  13    2.36    3.33
  -7  -5 -13   -3.22    4.17
  -7   5 -13    5.96    6.47
  -7  -5  13    1.55    5.37
  -7  -5 -14   12.70    7.79
  -7   5 -14   13.40    6.32
  -7  -5  14    8.83    7.00
  -7  -5  14   19.17    8.79
  -7  -5 -15   15.87    6.34
  -7   5 -15    9.42    1.50
  -7  -5  15   14.84    7.79
  -7   5 -16   21.77    7.98
  -7  -5  16   18.67    7.71
  -7  -5 -16   29.50   11.53
  -7   5 -17   -1.09    1.81
  -7  -5  17   -1.36    4.87
  -7  -5 -17    4.98    4.16
  -7   5 -18    5.80    7.41
  -7  -5  18    4.04    4.45
  -7  -5 -18    1.14    4.07
  -7  -5  19   -0.73    3.74
   7   5 -19    7.93    3.84
  -7  -5 -19   -2.13    5.62
  -7   5 -20    3.13    6.57
  -7  -5  20    1.15    5.42
   7   5 -20    8.14    3.78
  -7  -5 -20    0.39    6.15
  -7   5 -21    2.15    5.96
  -7  -5  21   -7.14    6.74
  -7  -5 -21    2.43    4.20
   7   5 -21   10.21   10.34
  -7   5 -22   20.16    9.03
  -7  -5  22    7.30    4.64
  -7  -5 -22   13.95    9.91
  -7   5 -23    3.65    6.08
  -7  -5  23    8.43    3.44
  -7  -5 -23   13.32    8.26
  -7   5 -24   17.53    5.46
  -7  -5 -24   12.66    6.43
  -7   5 -25    2.04    8.32
  -7  -5 -25   -5.44    9.09
  -7  -5  25   -2.26    6.37
  -7  -6   0   -1.63    0.81
  -7  -6  -1  264.23   26.72
  -7  -6   1  340.43   30.49
  -7  -6  -2  260.72   26.72
  -7  -6   2  237.98   24.94
  -7  -6   3   -0.20    1.87
  -7  -6  -3    0.91    2.98
  -7  -6  -4    1.07    1.90
  -7  -6   4    0.14    1.64
  -7  -6   5  231.98   24.51
  -7  -6  -5  287.71   28.42
  -7  -6   6   -2.64    4.16
  -7  -6  -6   -1.60    2.39
  -7  -6   7   43.72   11.65
  -7  -6  -7   93.22   17.10
  -7  -6  -8    7.13    7.17
  -7  -6   8    4.73    2.98
  -7  -6  -9   39.85   10.81
  -7  -6   9   43.40   11.54
  -7  -6  10  106.29   17.76
  -7  -6 -10   88.11   17.20
  -7  -6 -11   17.72    8.41
  -7  -6  11    0.74    5.06
  -7  -6  12  145.42   21.34
  -7  -6 -12  197.32   26.29
  -7  -6 -13   81.85   16.48
  -7  -6  13   69.30   15.31
  -7  -6  13   51.05   12.02
  -7  -6  14    7.04    5.29
  -7   6 -14    0.66    2.88
  -7  -6 -14    1.26    5.06
  -7  -6  14    2.37    0.91
  -7  -6 -15   -0.18    3.96
  -7  -6  15    2.38    1.48
  -7   6 -15   -2.12    5.59
  -7  -6  15    3.84    5.52
  -7  -6 -16   48.27   14.36
  -7  -6  16   76.44   15.80
  -7   6 -16   93.75   17.59
  -7   6 -17   14.97    7.17
  -7  -6  17   25.90    9.30
  -7  -6 -17   17.97    9.81
  -7   6 -18    4.09    4.62
  -7  -6 -18    0.28    2.70
  -7   6 -19   22.34    8.90
  -7  -6  19   13.33    7.75
  -7  -6 -19    5.53    2.56
  -7   6 -20   25.45   11.10
  -7  -6  20   35.74   10.84
  -7  -6 -20   26.35   11.20
  -7   6 -21   -1.56    2.08
  -7  -6  21   -3.91    3.46
   7   6 -21   -3.62    3.78
  -7  -6 -21    0.65    2.00
  -7   6 -22   10.32    8.73
  -7  -6  22    7.20    6.12
   7   6 -22   13.30    7.48
  -7  -6 -22    8.90    5.81
  -7   6 -23   26.72   10.32
  -7  -6  23   29.84   12.40
   7   6 -23   10.22    8.71
  -7  -6 -23   16.92    8.96
  -7   6 -24   -2.05    1.50
  -7  -6  24    2.93    6.66
  -7  -6 -24    5.52    5.76
  -7  -7   0    2.23    4.67
  -7  -7  -1   -0.04    4.89
  -7  -7   1    1.62    4.10
  -7  -7  -2   37.09   11.22
  -7  -7   2   36.11    9.48
  -7  -7  -3  100.76   17.32
  -7  -7   3   73.13   14.71
  -7  -7   4   -2.25    5.71
  -7  -7  -4    3.02    4.42
  -7  -7   5    7.80    6.19
  -7  -7  -5   10.32    2.32
  -7  -7   6    1.05    2.57
  -7  -7  -6    3.39    4.16
  -7  -7   7    3.20    0.35
  -7  -7  -7    1.69    3.27
  -7  -7  -8    0.51    8.64
  -7  -7   8   -0.94    3.17
  -7  -7  -9   54.27   14.43
  -7  -7   9   62.71   14.43
  -7  -7  10    6.39    6.61
  -7  -7 -10    0.09    1.78
  -7  -7  11    6.42    4.91
  -7  -7 -11   10.05    5.16
  -7  -7 -12   12.54    7.68
  -7  -7  12   19.39    8.53
  -7  -7  13  112.24   20.32
  -7  -7 -13  139.48   22.35
  -7  -7 -14   24.43    8.28
  -7  -7  14   20.25    8.79
  -7  -7 -15   -3.75    4.65
  -7  -7  15    1.43    3.41
  -7  -7  15    3.94    6.81
  -7  -7 -16   15.90    3.80
  -7  -7  16   10.50    7.31
  -7  -7  16    8.01    4.42
  -7  -7 -17   18.99    7.56
  -7  -7  17    5.80    5.50
  -7  -7  17    4.00    6.22
  -7  -7 -18   -0.35    4.70
  -7  -7  18    5.24    5.98
  -7  -7  19   33.00   11.61
  -7  -7 -19   33.50   12.62
  -7  -7  20   41.89   12.78
  -7  -7 -20   25.43    8.47
  -7  -7  21   33.72   13.53
  -7  -7 -21   36.60   12.60
  -7   7 -22   13.98    6.68
  -7  -7  22    6.43    5.50
  -7  -7 -22    6.41    6.98
  -7   7 -23    5.66    0.34
  -7  -7  23    9.17    5.37
  -7  -7 -23    2.37    3.30
  -7  -8   0   -3.43    5.77
  -7  -8  -1  292.37   30.57
  -7  -8   1  365.05   33.41
  -7  -8  -2   45.72   12.48
  -7  -8   2   50.41   11.98
  -7  -8  -3   25.80    8.56
  -7  -8   3   30.93   10.32
  -7  -8   4   12.98    7.61
  -7  -8  -4    9.82    5.31
  -7  -8  -5   33.56   11.44
  -7  -8   5   16.59    6.64
  -7  -8   6    2.83    2.56
  -7  -8  -6   -0.04    2.63
  -7  -8   7   31.30   10.50
  -7  -8  -7   56.86   13.81
  -7  -8   8   -3.78    4.33
  -7  -8  -8    1.74    4.07
  -7  -8  -9  157.11   24.19
  -7  -8   9  128.29   21.11
  -7  -8 -10   20.45   10.14
  -7  -8  10    1.16    2.65
  -7  -8  11   10.07    5.38
  -7  -8 -11   -0.74    4.71
  -7  -8  12    1.68    5.37
  -7  -8 -12   11.49    8.29
  -7  -8 -13   42.05   13.39
  -7  -8  13   26.18    7.64
  -7  -8 -14    4.03    5.27
  -7  -8  14    1.38    1.70
  -7  -8  15   55.44   14.84
  -7  -8 -15   51.67   15.16
  -7  -8 -16   -0.69    3.41
  -7  -8  16   -2.00    3.08
  -7  -8 -17   43.56   10.83
  -7  -8  17   40.11   12.99
  -7  -8 -18    1.69    5.32
  -7  -8  18    3.47    4.16
  -7  -8 -19   21.61    9.92
  -7  -8  19   51.41   15.23
  -7  -8  19   39.99   13.94
  -7  -8  20   11.72    6.13
  -7  -8  20   13.37    9.92
  -7  -8 -20   13.16   11.68
  -7  -8  21    7.14    4.24
  -7  -8 -21    8.24    4.82
  -7  -8  22   19.19    6.65
  -7  -8 -22   10.64    5.38
  -7  -9   0   -0.48    4.16
  -7  -9  -1    1.94    7.37
  -7  -9   1    5.52    4.60
  -7  -9  -2   -0.54    1.07
  -7  -9   2    3.48    5.58
  -7  -9  -3   -2.61    4.43
  -7  -9   3   -0.27    4.53
  -7  -9   4   -2.00    4.05
  -7  -9  -4   11.65    9.05
  -7  -9  -5   84.86   16.57
  -7  -9   5   66.76   14.95
  -7  -9   6    2.23    3.74
  -7  -9  -6    0.59    4.65
  -7  -9   7   47.03   12.59
  -7  -9  -7   38.30   12.75
  -7  -9   8    6.25    4.92
  -7  -9  -8   19.92    6.85
  -7  -9   9    9.80    8.01
  -7  -9  -9   22.42    8.63
  -7  -9 -10   13.26    7.94
  -7  -9  10   11.36    5.58
  -7  -9 -11   42.56   12.69
  -7  -9  11   28.89   10.38
  -7  -9  12    1.75    4.31
  -7  -9 -12   -0.38    4.00
  -7  -9  13   20.04    8.86
  -7  -9 -13   61.87   13.97
  -7  -9 -14   -1.67    4.32
  -7  -9  14    3.21    5.54
  -7  -9 -15    0.87    2.22
  -7  -9  15    0.64    6.75
  -7  -9 -16   -1.00    2.84
  -7  -9  16   -1.12    2.11
  -7  -9 -17   50.10   14.83
  -7  -9  17   89.09   18.99
  -7  -9 -18    3.34    4.87
  -7  -9  18   -0.37    2.47
  -7  -9 -19   -0.34    1.17
  -7  -9  19   15.98    9.11
  -7  -9  20   -2.79    3.24
  -7  -9 -20   -1.42    3.65
  -7  -9  21    7.60    3.29
  -7  -9 -21   -0.95    5.64
  -7 -10   0   -0.95    3.55
  -7 -10  -1    8.28    5.90
  -7 -10   1   -1.08    3.50
  -7 -10  -2   61.75   14.26
  -7 -10   2   86.10   17.12
  -7 -10  -3   32.90   10.98
  -7 -10   3   15.21    6.17
  -7 -10   4   -2.31    3.19
  -7 -10  -4    0.43    4.06
  -7 -10   5    8.43    6.02
  -7 -10  -5    9.65    5.22
  -7 -10  -6   21.96    7.93
  -7 -10   6   20.42    7.71
  -7 -10   7   20.23    7.30
  -7 -10  -7   26.59    9.17
  -7 -10   8   42.67   12.07
  -7 -10  -8   25.94   10.47
  -7 -10   9   10.57    4.21
  -7 -10  -9   23.17    9.75
  -7 -10 -10   65.02   17.83
  -7 -10  10   72.17   17.12
  -7 -10 -11   -1.26    2.26
  -7 -10  11   -3.05    4.42
  -7 -10 -12   62.31   14.98
  -7 -10  12   51.23   14.16
  -7 -10 -13    7.33    7.36
  -7 -10  13    3.46    1.40
  -7 -10  14    2.48    4.65
  -7 -10 -14   -0.03    4.99
  -7 -10 -15   18.61    8.80
  -7 -10  15    1.86    4.81
  -7 -10 -16   59.56   17.30
  -7 -10  16   39.39   11.61
  -7 -10 -17    3.98    2.71
  -7 -10  17    3.74    6.49
  -7 -10 -18    2.85    5.01
  -7 -10  18    0.42    4.34
  -7 -10 -19    8.38    8.46
  -7 -10  19    6.12    6.56
  -7 -11   0   -2.76    0.43
  -7 -11  -1    8.70    6.44
  -7 -11   1    3.16    5.44
  -7 -11  -2   12.85    7.26
  -7 -11   2   11.82    6.76
  -7 -11  -3   12.29    6.74
  -7 -11   3    3.79    4.60
  -7 -11   4    6.09    3.19
  -7 -11  -4    6.18    4.98
  -7 -11   5   16.15    8.74
  -7 -11  -5    0.68    4.32
  -7 -11  -6    3.19    0.30
  -7 -11   6    0.95    4.30
  -7 -11  -7    5.58    4.68
  -7 -11   7    2.94    1.90
  -7 -11   8    6.06    4.87
  -7 -11  -8    1.69    3.58
  -7 -11   9   -0.13    3.89
  -7 -11  -9    7.93    5.41
  -7 -11  10    1.77    6.29
  -7 -11 -10    5.16    5.91
  -7 -11 -11   -2.95    5.49
  -7 -11  11    0.69    2.15
  -7 -11 -12    8.74    7.29
  -7 -11  12    4.98    3.82
  -7 -11 -13    0.25    3.58
  -7 -11  13    9.58    7.99
  -7 -11 -14   -1.26    6.05
  -7 -11  14   -4.87    6.02
  -7 -11 -15    1.36    1.22
  -7 -11  15    2.94    2.31
  -7 -11  16   -4.29    5.80
  -7 -11 -16   -1.09    3.75
  -7 -11 -17    7.06    6.27
  -7 -11  17    5.40    4.59
  -7 -12   0    6.24    9.45
  -7 -12  -1   -3.73    6.94
  -7 -12   1   -0.03    3.84
  -7 -12  -2   22.02    9.77
  -7 -12   2   17.22    7.32
  -7 -12  -3   32.39   10.43
  -7 -12   3   35.64   12.14
  -7 -12   4    7.80    7.67
  -7 -12  -4    5.26    5.88
  -7 -12   5    3.61    4.35
  -7 -12  -5   -7.95   10.11
  -7 -12  -6   18.95    8.09
  -7 -12   6    9.56    3.31
  -7 -12  -7   -6.83    7.98
  -7 -12   7    4.50    4.53
  -7 -12  -8   24.23   11.67
  -7 -12   8   28.42    8.73
  -7 -12   9   25.95   10.82
  -7 -12  -9   45.30   13.39
  -7 -12  10    2.10    5.23
  -7 -12 -10    2.13    1.54
  -7 -12  11    3.52    3.22
  -7 -12 -11    5.53    4.60
  -7 -12 -12    9.03    9.31
  -7 -12  12    5.59    5.55
  -7 -12 -13   39.97   11.98
  -7 -12  13   11.41   12.79
  -7 -12 -14   13.34   11.13
  -7 -12  14    5.48    5.69
  -7 -13   0    8.71    4.19
  -7 -13  -1   13.43    6.72
  -7 -13   1   39.85   11.61
  -7 -13  -2   -5.16    6.84
  -7 -13   2    0.03    2.59
  -7 -13   3   -6.20    2.86
  -7 -13  -3   -1.33    3.08
  -7 -13   4    4.93    6.97
  -7 -13  -4    3.61    5.25
  -7 -13   5    0.74    4.58
  -7 -13  -5   -2.69    3.97
  -7 -13   6   -0.57    1.25
  -7 -13  -6    1.50    8.49
  -7 -13  -7    7.77    8.45
  -7 -13   7   12.81    9.91
  -7 -13  -8    9.60    8.40
  -7 -13   8    3.49    5.46
  -7 -13  -9   -2.55    5.84
  -7 -13   9    1.56    2.23
  -7 -13  10    9.22    4.88
  -7 -13 -10   11.16    9.23
  -7 -14   0    3.94    3.13
  -7 -14  -1    5.28    0.47
  -7 -14   1   -3.01    4.36
  -7 -14  -2   11.11    7.03
  -7 -14   2   -3.87    2.61
  -7 -14   3    8.53    7.87
  -7 -14  -3   -1.85    4.87
  -8   0  -2   84.62   12.02
  -8   0  -3   -0.34    2.26
  -8   0  -4   29.82    8.91
  -8   0  -5   -1.61    3.19
  -8   0  -6   61.86   11.55
  -8   0  -7   -1.28    3.04
  -8   0  -8   10.54    5.14
  -8   0  -9    0.38    1.25
  -8   0 -11    0.66    1.23
  -8   0 -12    6.41    1.85
  -8   0 -13   -4.43    4.86
  -8   0 -14  133.02   22.00
  -8   0 -15   -0.11    5.60
  -8   0 -16   19.78    7.89
  -8   0 -17   -2.63    0.40
  -8   0 -18   26.77    9.93
  -8   0 -19    1.19    5.36
  -8   0 -20    8.10    2.20
  -8   0 -21    4.77    1.37
  -8   0 -22   15.63    8.23
  -8   0 -23   -2.96    5.19
  -8   0 -24   11.34    6.63
  -8   0 -25    5.13    6.28
  -8  -1   0  343.14   24.01
  -8  -1  -1  281.91   23.17
  -8  -1   1  297.68   22.96
  -8  -1  -2   -0.59    2.81
  -8  -1   2    0.16    1.43
  -8  -1  -3   47.60   10.15
  -8  -1  -4  265.04   24.16
  -8  -1  -5    4.51    3.52
  -8   1  -6   83.46   13.40
  -8  -1  -6   81.74   14.08
  -8  -1  -7   65.22   13.31
  -8   1  -7   42.97   10.26
  -8  -1  -8   52.85   11.97
  -8   1  -8   27.07    7.56
  -8   1  -9   25.57    7.71
  -8  -1  -9   35.76    9.30
  -8   1 -10   11.47    5.47
  -8  -1 -10   15.10    7.32
  -8   1 -11   10.97    5.90
  -8  -1 -11    3.16    1.96
  -8   1 -12  223.46   24.72
  -8  -1 -12  211.96   26.95
  -8   1 -13    1.79    0.42
  -8  -1 -13    1.81    2.48
  -8   1 -14   48.84   11.73
  -8  -1 -14   24.51   14.97
  -8   1 -15   75.31   14.95
  -8  -1 -15   74.87   15.19
  -8   1 -16   21.40    9.52
  -8  -1 -16   28.36   10.37
  -8   1 -17   25.43    8.75
  -8  -1 -17   27.07   10.87
  -8   1 -18  217.98   28.88
  -8  -1 -18  251.66   31.71
  -8   1 -19    6.40    7.51
  -8  -1 -19    3.03    2.17
  -8   1 -20    5.82    7.11
  -8  -1 -20   -6.43    8.22
  -8   1 -21   14.53    8.16
  -8  -1 -21   31.23    9.39
  -8   1 -22   56.13   15.76
  -8  -1 -22   55.16   14.69
  -8   1 -23    3.84    5.01
  -8  -1 -23   -2.83    6.37
  -8   1 -24   29.06   12.12
  -8  -1 -24   25.83   11.54
  -8   1 -25   18.61   11.28
  -8  -1 -25   12.51    8.90
  -8  -2   0   34.01    8.63
  -8  -2  -1   81.16   13.10
  -8  -2   1   64.73   11.11
  -8  -2  -2   12.23    4.15
  -8  -2   2   17.22    6.12
  -8  -2   3  219.86   21.24
  -8  -2  -3  218.62   21.95
  -8  -2   4   10.84    5.58
  -8  -2  -4   17.07    5.36
  -8  -2  -5   16.34    6.62
  -8  -2   5   29.44    6.89
  -8  -2  -6   36.95    9.57
  -8  -2   6   39.26    9.15
  -8  -2  -7  243.53   25.90
  -8  -2   7  260.37   22.72
  -8  -2  -8    3.47    4.72
  -8   2  -9    6.33    4.11
  -8  -2  -9   -1.69    3.37
  -8   2 -10    4.19    4.15
  -8  -2 -10    2.75    5.11
  -8   2 -11   77.38   14.20
  -8  -2 -11   62.70   14.70
  -8   2 -12   30.75    9.56
  -8  -2 -12   39.65   11.03
  -8   2 -13   17.05    7.44
  -8  -2 -13    9.27    7.71
  -8   2 -14   13.15    7.82
  -8  -2 -14   11.62    6.77
  -8   2 -15   -2.25    3.21
  -8  -2 -15   -2.13    5.47
  -8   2 -16   14.38    8.02
  -8  -2 -16    3.64    3.61
  -8   2 -17    3.82    8.25
  -8  -2 -17    4.16    5.52
  -8   2 -18    1.51    5.32
  -8  -2 -18   -1.62    6.70
  -8   2 -19   19.97    9.53
  -8  -2 -19   17.58   10.55
  -8   2 -20   12.76    6.17
  -8  -2 -20    4.92    2.89
  -8  -2 -21  101.59   20.67
  -8   2 -21   81.81   17.70
  -8   2 -22   -6.56    8.42
  -8  -2 -22    5.53    7.71
  -8   2 -23   -1.51    5.46
  -8  -2 -23    4.65    5.90
  -8   2 -24    5.13    6.07
  -8  -2 -24    2.30    4.00
  -8   2 -25    6.28    8.92
  -8  -2 -25   10.96    8.69
  -8  -3   0   45.93   10.68
  -8  -3  -1   33.79    8.79
  -8  -3   1   35.86    9.04
  -8  -3   2   11.49    5.82
  -8  -3  -2   15.82    6.06
  -8  -3   3  117.31   16.93
  -8  -3  -3  133.25   18.39
  -8  -3   4   78.67   12.96
  -8  -3  -4   85.98   14.25
  -8  -3  -5   24.49    9.15
  -8  -3   5   17.97    5.99
  -8  -3   6  294.74   25.89
  -8  -3  -6  329.49   31.63
  -8  -3  -7   63.22   12.07
  -8  -3   7   79.93   13.59
  -8  -3  -8  113.64   18.79
  -8  -3   8   64.50   11.83
  -8  -3  -9   -4.21    3.18
  -8  -3   9    3.47    5.02
  -8  -3 -10    5.53    4.60
  -8  -3  10    5.01    3.98
  -8  -3 -11  116.98   19.13
  -8  -3  11   79.90   13.76
  -8  -3  12   -1.19    2.21
  -8  -3 -12   -3.59    4.39
  -8   3 -13    0.41    4.72
  -8  -3 -13    2.12    6.79
  -8   3 -14   11.70    6.11
  -8  -3 -14    4.70    1.49
  -8   3 -15   32.71   11.66
  -8  -3 -15   35.24   10.64
  -8   3 -16   38.61   14.08
  -8  -3 -16   15.28    8.09
  -8   3 -17   66.43   16.69
  -8  -3 -17   29.12   15.57
  -8   3 -18    1.40    3.36
  -8  -3 -18   18.31   11.49
  -8   3 -19   62.28   16.31
  -8  -3 -19   56.03   16.41
  -8   3 -20   -1.46    3.21
  -8  -3 -20    3.39    5.12
  -8   3 -21   30.32   11.01
  -8  -3 -21   34.80   12.17
  -8   3 -22   17.60   12.11
  -8  -3 -22   13.65    4.58
  -8   3 -23   -6.05    6.85
  -8  -3 -23   -0.70    3.82
  -8   3 -24    9.21    9.16
  -8  -3 -24    2.79    2.51
  -8   3 -25   15.47   11.40
  -8  -3 -25   14.89   10.40
  -8  -4   0   18.78    7.69
  -8  -4   1   27.61    7.68
  -8  -4  -1   30.29    8.75
  -8  -4   2  128.01   18.03
  -8  -4  -2  117.16   17.36
  -8  -4   3   -0.93    1.90
  -8  -4  -3    0.16    1.45
  -8  -4   4   25.92    6.99
  -8  -4  -4   49.12   12.06
  -8  -4   5  128.99   18.33
  -8  -4  -5  212.82   24.79
  -8  -4  -6   52.08   11.77
  -8  -4   6   36.53    9.40
  -8  -4  -7   68.90   14.28
  -8  -4   7   51.46   11.87
  -8  -4  -8   72.74   15.13
  -8  -4   8   67.58   13.57
  -8  -4  -9   28.34    9.54
  -8  -4   9   11.31    5.12
  -8  -4 -10   32.49    9.05
  -8  -4  10   23.22    8.68
  -8  -4 -11   19.25    8.58
  -8  -4  11    6.00    2.88
  -8  -4 -12    9.32    7.56
  -8  -4  12    3.49    4.40
  -8  -4 -13    3.46    0.92
  -8  -4  13   -2.29    3.07
  -8  -4  14    4.81    4.51
  -8  -4 -14    6.30    1.20
  -8  -4  15    9.93    8.39
  -8  -4  15   15.67    8.91
  -8  -4 -15   36.88   12.35
  -8  -4  16   -4.55    6.37
  -8  -4  16   -1.64    4.57
  -8  -4 -16   -0.71    3.82
  -8  -4 -17   10.67    6.24
  -8   4 -18   41.63   13.19
  -8  -4 -18   23.02   11.64
  -8   4 -19   17.36    9.69
  -8  -4 -19   11.99    9.19
  -8   4 -20    9.04    4.51
  -8  -4 -20    5.74    4.53
  -8   4 -21    5.65    3.02
  -8  -4 -21    0.18    2.30
  -8   4 -22   -5.05    5.15
  -8  -4 -22    1.99    6.51
  -8   4 -23    0.82    7.75
  -8  -4 -23    6.47    4.14
  -8   4 -24    0.29    3.63
  -8  -4 -24    2.76    2.20
  -8  -5   0  719.16   44.90
  -8  -5   1   23.95    8.15
  -8  -5  -1   19.22    7.62
  -8  -5   2    8.18    6.01
  -8  -5  -2    8.69    5.05
  -8  -5   3   59.23   12.69
  -8  -5  -3   75.52   14.40
  -8  -5   4   85.35   15.07
  -8  -5  -4   57.96   13.60
  -8  -5  -5   53.14   13.13
  -8  -5   5   37.44    9.88
  -8  -5   6   90.38   15.38
  -8  -5  -6   71.92   15.71
  -8  -5   7   40.14    9.82
  -8  -5  -7   42.29   12.20
  -8  -5   8   29.42    9.22
  -8  -5  -8   33.94   10.08
  -8  -5  -9   21.27    8.73
  -8  -5   9   28.96   10.73
  -8  -5 -10   80.24   16.57
  -8  -5  10   69.48   15.05
  -8  -5 -11   23.43    9.64
  -8  -5  11   26.52    9.01
  -8  -5 -12    0.73    0.91
  -8  -5  12    1.08    1.85
  -8  -5 -13   14.88    8.44
  -8  -5  13   17.05    7.77
  -8  -5 -14   26.27    8.85
  -8  -5  14   37.45   11.73
  -8  -5  15   -1.08    1.01
  -8  -5 -15   -0.47    4.27
  -8  -5  16   -1.18    2.93
  -8  -5 -16    4.47    5.13
  -8  -5  17    0.72    0.55
  -8  -5  17   18.30    9.29
  -8  -5 -17   11.74    9.04
  -8  -5  18   26.53    8.60
  -8  -5  18   33.40   10.35
  -8  -5 -18   38.92   10.14
  -8  -5  19   -1.33    6.95
  -8  -5 -19    1.13    5.63
  -8  -5  20   -7.14    8.46
  -8  -5 -20    7.16    6.65
  -8  -5  21   10.92    9.02
  -8  -5 -21   13.63   11.41
  -8  -5  22   27.63    9.86
  -8  -5 -22    7.28    7.10
  -8  -5  23   12.08    8.64
  -8  -5 -23    3.77    7.05
  -8  -6   0    2.18    4.78
  -8  -6   1   -4.81    3.24
  -8  -6  -1   -0.26    3.78
  -8  -6  -2  295.48   30.41
  -8  -6   2  308.40   30.12
  -8  -6   3   93.27   16.47
  -8  -6  -3   72.27   15.44
  -8  -6   4    3.42    1.72
  -8  -6  -4    7.17    4.67
  -8  -6  -5   -2.05    4.52
  -8  -6   5    7.47    5.99
  -8  -6  -6    9.03    9.32
  -8  -6   6    2.42    4.64
  -8  -6   7    5.95    4.28
  -8  -6  -7   11.61    7.96
  -8  -6   8   -1.86    4.11
  -8  -6  -8    0.29    4.92
  -8  -6  -9    5.80    5.32
  -8  -6   9    5.79    4.63
  -8  -6 -10   10.87    2.94
  -8  -6  10    8.99    5.37
  -8  -6 -11   31.39    9.73
  -8  -6  11    3.47    2.10
  -8  -6 -12    3.70    6.56
  -8  -6  12   16.35    7.57
  -8  -6 -13    2.21    5.60
  -8  -6  13    0.85    2.21
  -8  -6 -14   28.72   10.70
  -8  -6  14    9.78    6.42
  -8  -6 -15    6.20    7.24
  -8  -6  15    1.23    4.50
  -8  -6 -16    3.67    6.49
  -8  -6  16    8.55    8.06
  -8  -6  17   -2.29    4.01
  -8  -6 -17    4.75    7.05
  -8  -6 -18   10.86    5.34
  -8  -6  18   11.68    7.21
  -8  -6  19   -1.62    4.73
  -8  -6 -19    7.29    8.02
  -8  -6  20    5.89    7.59
  -8  -6  20   -5.68    7.57
  -8  -6 -20   -5.84    8.11
  -8  -6  21   13.03    7.76
  -8  -6 -21   -0.79    4.13
  -8  -6  22   -4.96    6.50
  -8  -6 -22   -5.37    8.30
  -8  -6  23    4.89    4.34
  -8  -6 -23    4.58    6.47
  -8  -7   0    2.36    1.85
  -8  -7  -1  168.72   22.72
  -8  -7   1  153.34   22.44
  -8  -7   2    3.65    2.26
  -8  -7  -2    4.73    4.34
  -8  -7  -3  229.00   27.00
  -8  -7   3  179.83   23.30
  -8  -7   4   26.04    9.80
  -8  -7  -4   13.62    7.78
  -8  -7  -5   -4.00    4.56
  -8  -7   5   -2.03    4.04
  -8  -7  -6   -2.04    3.72
  -8  -7   6   -1.35    1.86
  -8  -7  -7   61.05   13.84
  -8  -7   7   45.66   11.82
  -8  -7   8   32.69   10.67
  -8  -7  -8   66.62   16.98
  -8  -7   9   17.01    7.60
  -8  -7  -9    6.26    4.72
  -8  -7 -10   34.59   12.70
  -8  -7  10   29.22    9.88
  -8  -7 -11  125.63   22.60
  -8  -7  11  106.24   19.16
  -8  -7 -12   -2.50    6.34
  -8  -7  12   -3.07    3.45
  -8  -7  13    9.82    7.63
  -8  -7 -13   10.83    7.40
  -8  -7 -14    3.94    4.72
  -8  -7  14    7.25    5.37
  -8  -7 -15   23.50    9.55
  -8  -7  15   16.14    8.30
  -8  -7 -16    0.71    3.86
  -8  -7  16   -2.42    3.36
  -8  -7  17   17.62    8.85
  -8  -7 -17   19.65    8.45
  -8  -7  18    0.97    0.68
  -8  -7 -18    3.57    4.30
  -8  -7  19   16.00    7.69
  -8  -7 -19   18.70    9.92
  -8  -7  20    4.82    7.73
  -8  -7 -20   -3.44    2.07
  -8  -7  21   13.75    4.65
  -8  -7 -21   36.68   12.28
  -8  -8   0  109.11   19.11
  -8  -8  -1   24.82    8.84
  -8  -8   1   28.23   10.74
  -8  -8   2   -4.00    6.47
  -8  -8  -2   -1.29    2.31
  -8  -8   3   27.23    9.42
  -8  -8  -3   11.43    6.02
  -8  -8   4    1.65    4.23
  -8  -8  -4    6.23    5.00
  -8  -8  -5   32.42   10.28
  -8  -8   5   36.02   10.83
  -8  -8  -6   19.26    8.62
  -8  -8   6   24.51    9.32
  -8  -8  -7   28.45   10.09
  -8  -8   7   19.59    7.31
  -8  -8   8    4.80    5.68
  -8  -8  -8   -3.92    4.57
  -8  -8   9   -0.95    4.18
  -8  -8  -9    3.61    7.14
  -8  -8  10    1.19    2.47
  -8  -8 -10   -2.62    3.33
  -8  -8 -11   79.98   18.80
  -8  -8  11   53.31   14.74
  -8  -8 -12   20.00   10.91
  -8  -8  12    5.00    1.37
  -8  -8 -13    1.20    1.67
  -8  -8  13    2.32    2.76
  -8  -8  14    6.60    6.69
  -8  -8 -14    7.90    4.65
  -8  -8 -15   41.71   12.16
  -8  -8  15   21.33    9.89
  -8  -8 -16   12.76    9.39
  -8  -8  16    2.08    1.89
  -8  -8 -17   31.46   10.79
  -8  -8  17   27.21   10.20
  -8  -8 -18    1.89    7.04
  -8  -8  18   -3.00    4.43
  -8  -8  19   17.34   11.66
  -8  -8 -19   13.26    6.90
  -8  -8  20    5.52    4.71
  -8  -8 -20    3.23    4.16
  -8  -9   0   72.66   15.53
  -8  -9  -1   25.19   10.36
  -8  -9   1   29.89   10.90
  -8  -9   2    7.23    0.70
  -8  -9  -2    7.58    6.01
  -8  -9   3   53.67   13.70
  -8  -9  -3   23.07    7.70
  -8  -9   4    1.94    2.12
  -8  -9  -4    1.54    1.14
  -8  -9   5   10.96    5.92
  -8  -9  -5   28.04   11.57
  -8  -9  -6   14.23    6.94
  -8  -9   6    5.36    4.16
  -8  -9   7  104.98   19.81
  -8  -9  -7  132.50   22.63
  -8  -9   8   30.96    8.91
  -8  -9  -8   43.26   13.25
  -8  -9   9   -1.92    2.40
  -8  -9  -9    2.74    3.27
  -8  -9  10    6.72    6.86
  -8  -9 -10    7.29    4.93
  -8  -9 -11   25.68    9.36
  -8  -9  11   22.85    7.48
  -8  -9 -12   11.82    9.03
  -8  -9  12   18.16    8.98
  -8  -9 -13   26.65   11.38
  -8  -9  13   17.10   10.44
  -8  -9 -14    8.48    4.60
  -8  -9  14    1.58    0.31
  -8  -9 -15    4.21    4.69
  -8  -9  15   12.09    9.92
  -8  -9 -16    2.91    4.27
  -8  -9  16   -2.31    5.09
  -8  -9 -17    4.86    5.42
  -8  -9  17    3.50    3.82
  -8  -9 -18   52.06   14.14
  -8  -9  18   27.85   11.62
  -8 -10   0    0.55    4.91
  -8 -10  -1   -0.86    5.88
  -8 -10   1   12.98    5.82
  -8 -10   2    0.61    1.47
  -8 -10  -2   -1.85    4.29
  -8 -10   3    2.89    4.44
  -8 -10  -3   12.99    7.88
  -8 -10   4   45.67   13.35
  -8 -10  -4   39.00   12.22
  -8 -10   5   -2.11    4.68
  -8 -10  -5   -4.30    6.27
  -8 -10  -6    0.75    5.48
  -8 -10   6    3.62    6.40
  -8 -10  -7    6.31    4.19
  -8 -10   7    6.04    5.48
  -8 -10  -8   24.61   10.45
  -8 -10   8    9.88    5.20
  -8 -10   9   -0.75    2.60
  -8 -10  -9    3.84    3.29
  -8 -10  10   -2.02    2.38
  -8 -10 -10    2.97    3.50
  -8 -10  11    6.73    8.05
  -8 -10 -11   -0.85    3.26
  -8 -10 -12    8.43    9.25
  -8 -10  12    6.48    3.67
  -8 -10 -13    6.19    7.27
  -8 -10  13    2.37    6.06
  -8 -10 -14   48.83   14.34
  -8 -10  14   32.84   10.25
  -8 -10 -15    2.35    4.08
  -8 -10  15    0.99    1.77
  -8 -10 -16    0.45    3.58
  -8 -10  16   -3.81    3.88
  -8 -11   0   27.24   10.83
  -8 -11  -1    4.71    3.51
  -8 -11   1    4.61    6.82
  -8 -11   2   -5.39    5.60
  -8 -11  -2    2.14    5.62
  -8 -11   3   10.39    5.61
  -8 -11  -3   10.61    3.83
  -8 -11   4   93.12   18.94
  -8 -11  -4   67.45   17.13
  -8 -11   5   -1.76    1.97
  -8 -11  -5   -7.25    8.15
  -8 -11   6   -0.05    5.40
  -8 -11  -6    5.20    6.59
  -8 -11  -7    0.14    6.04
  -8 -11   7    2.37    3.93
  -8 -11  -8   10.03    6.60
  -8 -11   8   19.91   10.63
  -8 -11  -9   22.70   10.49
  -8 -11   9    5.95    3.16
  -8 -11  10   43.20   12.41
  -8 -11 -10   38.71   13.30
  -8 -11  11   -1.25    3.51
  -8 -11 -11   10.66    6.13
  -8 -11  12    8.41    3.82
  -8 -11 -12    8.97    8.50
  -8 -11 -13   -2.74    4.77
  -8 -11  13   20.46   11.89
  -8 -11 -14   10.14    7.63
  -8 -11  14   14.66    8.14
  -8 -12   0   10.56    7.66
  -8 -12  -1    9.93    6.15
  -8 -12   1   22.59    9.81
  -8 -12   2    8.27    7.23
  -8 -12  -2    0.19    2.01
  -8 -12   3   -0.60    4.47
  -8 -12  -3    4.64    6.25
  -8 -12   4    5.69    3.40
  -8 -12  -4   -6.49    8.38
  -8 -12   5    8.23    7.54
  -8 -12  -5   -2.14    5.44
  -8 -12   6    6.47    6.25
  -8 -12  -6    8.67    8.61
  -8 -12  -7   -1.94    3.85
  -8 -12   7    6.20    6.43
  -8 -12  -8   -3.70    0.77
  -8 -12   8   -2.01    1.58
  -8 -12  -9    1.61    6.71
  -8 -12   9    3.88    7.08
  -8 -12 -10    7.91    6.58
  -8 -12  10   -0.27    3.60
  -8 -13   0    1.44    3.99
  -8 -13  -1    0.96    3.63
  -8 -13   1    5.41    9.10
  -8 -13   2   -2.12    2.29
  -8 -13  -2   -2.83    1.69
  -8 -13   3    0.84    3.58
  -8 -13  -3    5.68    3.04
  -8 -13   4    1.68    4.67
  -8 -13  -4   -4.33    4.50
  -9   0 -12   -1.53    7.67
  -9   0 -13    1.62    5.18
  -9   0 -14   30.65    9.83
  -9   0 -15    0.34    5.53
  -9   0 -16   10.14    7.87
  -9   0 -17   -7.36    8.06
  -9   0 -18   35.38    9.98
  -9   0 -19    4.95    6.65
  -9   0 -20    6.29    5.66
  -9   0 -21    0.82    5.55
  -9   0 -22    6.43    5.61
  -9   0 -23    5.83    6.03
  -9  -1  -9   67.38   14.17
  -9  -1 -10   96.83   17.97
  -9  -1 -11    8.15    3.99
  -9  -1 -12  104.95   19.11
  -9  -1 -13   29.77   10.21
  -9  -1 -14    3.44    1.08
  -9  -1 -15   -2.29    4.07
  -9  -1 -16   73.04   17.51
  -9   1 -17   13.41    7.03
  -9  -1 -17   11.57    7.07
  -9   1 -18    0.56    3.91
  -9  -1 -18    6.74    5.59
  -9   1 -19   -2.24    5.58
  -9  -1 -19   -8.43    6.53
  -9   1 -20    7.33    7.05
  -9  -1 -20   -5.64    5.55
  -9   1 -21    5.43    6.07
  -9  -1 -21   -2.16    5.12
  -9   1 -22    7.57    7.64
  -9  -1 -22    0.54    7.34
  -9   1 -23    6.82   10.08
  -9  -1 -23   -2.02    9.67
  -9  -2  -4    6.58    4.80
  -9  -2  -5   69.48   15.24
  -9  -2  -6   18.03    7.92
  -9  -2  -7   10.67    4.58
  -9  -2  -8   14.53    8.15
  -9  -2  -9   12.90    2.81
  -9  -2 -10   12.63    5.63
  -9  -2 -11   -2.66    5.85
  -9  -2 -12    2.27    1.86
  -9  -2 -13   -3.75    6.42
  -9  -2 -14   20.40   10.60
  -9  -2 -15   29.18   10.64
  -9  -2 -16   -2.20    3.98
  -9  -2 -17   56.35   16.98
  -9  -2 -18    1.13    4.77
  -9  -2 -19   14.65    8.43
  -9  -2 -20   -0.62    3.75
  -9  -2 -21    1.47    6.79
  -9  -2 -22    5.52    7.88
  -9  -2 -23    9.84    5.79
  -9  -3   0   -0.85    3.18
  -9  -3  -1  131.10   18.89
  -9  -3   1  168.22   20.86
  -9  -3  -2   -0.22    2.80
  -9  -3  -3   41.30   10.21
  -9  -3  -4   26.21    9.05
  -9  -3  -5  178.13   23.36
  -9  -3  -6   -3.14    2.47
  -9  -3  -7   10.20    5.12
  -9  -3  -8    2.64    4.35
  -9  -3  -9  254.22   28.12
  -9  -3 -10   27.44    9.64
  -9  -3 -11   -1.59    5.98
  -9  -3 -12   11.74    9.19
  -9  -3 -13   35.26   10.50
  -9  -3 -14   -1.03    3.57
  -9  -3 -15  102.41   18.93
  -9  -3 -16    7.15    4.56
  -9  -3 -17    5.31    2.87
  -9  -3 -18    2.77    0.51
  -9  -3 -19   60.85   17.19
  -9  -3 -20   27.63   11.48
  -9  -3 -21   -2.80    6.25
  -9  -3 -22   25.21   10.57
  -9  -4   0   -0.93    3.44
  -9  -4  -1    4.41    1.94
  -9  -4   1   -0.52    5.31
  -9  -4  -2    8.57    1.34
  -9  -4   2   12.67    5.24
  -9  -4   3   -1.63    3.13
  -9  -4  -3   -0.57    1.37
  -9  -4   4    6.67    4.43
  -9  -4  -4   -0.72    2.72
  -9  -4  -5   17.93    8.15
  -9  -4   5   23.57   10.15
  -9  -4  -6   11.41    6.82
  -9  -4  -7    4.16    1.40
  -9  -4  -8   85.48   17.86
  -9  -4  -9    5.02    1.73
  -9  -4 -10    3.49    3.33
  -9  -4 -11   -0.46    4.93
  -9  -4 -12    7.73    4.36
  -9  -4 -13   -5.95    8.32
  -9  -4 -14   14.39    8.64
  -9  -4 -15    1.54    4.21
  -9  -4 -16   -2.12    3.44
  -9  -4 -17    5.95    7.48
  -9  -4 -18   -4.74    0.61
  -9  -4 -19    1.46    4.52
  -9  -4 -20    8.36   11.05
  -9  -4 -21   -9.86    9.67
  -9  -4 -22    8.97    8.45
  -9  -5   0    7.00    5.76
  -9  -5  -1   -1.23    4.03
  -9  -5   1    0.40    4.53
  -9  -5   2   76.31   15.73
  -9  -5  -2  107.71   18.31
  -9  -5   3   21.58    9.57
  -9  -5  -3   12.73    6.99
  -9  -5   4    2.33    4.91
  -9  -5  -4    0.64    5.83
  -9  -5  -5    1.82    5.21
  -9  -5   5   -0.22    2.39
  -9  -5  -6   20.16    8.29
  -9  -5   6   20.96    7.62
  -9  -5  -7    2.89    5.98
  -9  -5   7    2.24    0.97
  -9  -5  -8  114.79   21.41
  -9  -5   8   65.33   14.53
  -9  -5  -9    6.09    6.21
  -9  -5   9    7.39    4.05
  -9  -5 -10   51.51   14.12
  -9  -5 -11   23.13    9.67
  -9  -5 -12   73.89   16.02
  -9  -5 -13   17.90    8.20
  -9  -5 -14    6.41    4.45
  -9  -5 -15   15.91    8.57
  -9  -5 -16   74.12   17.23
  -9  -5 -17   -1.58    4.40
  -9  -5 -18    8.46    4.06
  -9  -5 -19    1.82    3.71
  -9  -5 -20   10.57    8.14
  -9  -5 -21   19.18   12.95
  -9  -6   0   -1.27    3.94
  -9  -6   1   10.00    6.30
  -9  -6  -1   -0.87    2.77
  -9  -6   2    0.15    2.80
  -9  -6  -2    1.95    0.58
  -9  -6   3    9.99    4.22
  -9  -6  -3    3.35    4.63
  -9  -6   4    1.13    1.39
  -9  -6  -4    0.23    4.30
  -9  -6   5   -4.62    6.07
  -9  -6  -5    2.45    3.12
  -9  -6  -6    0.47    4.38
  -9  -6   6    0.33    4.22
  -9  -6  -7   -2.48    4.62
  -9  -6   7   -1.76    5.96
  -9  -6  -8   19.57   10.73
  -9  -6   8   28.80   10.69
  -9  -6  -9    7.78    6.96
  -9  -6   9    1.17    0.83
  -9  -6  10   10.23    5.64
  -9  -6 -10   -2.55    5.31
  -9  -6 -11    6.29    6.36
  -9  -6  11    3.57    3.47
  -9  -6 -12    0.40    2.62
  -9  -6  12   -1.85    0.42
  -9  -6 -13    6.37    4.93
  -9  -6 -14    3.37    5.71
  -9  -6 -15   -0.03    1.51
  -9  -6 -16    0.26    3.92
  -9  -6 -17   15.54    9.23
  -9  -6 -18   20.02    7.48
  -9  -6 -19    8.63    8.78
  -9  -6 -20   10.84    7.26
  -9  -7   0   -3.82    4.99
  -9  -7   1   13.37    7.23
  -9  -7  -1   12.42    6.48
  -9  -7   2   20.31    9.02
  -9  -7  -2   29.62    9.14
  -9  -7   3   55.42   14.36
  -9  -7  -3  101.61   18.97
  -9  -7   4    0.28    1.18
  -9  -7  -4   -0.72    5.90
  -9  -7   5   57.18   12.88
  -9  -7  -5   55.87   13.18
  -9  -7  -6   10.84    7.94
  -9  -7   6   21.16   11.33
  -9  -7  -7   13.37    7.85
  -9  -7   7    9.86    5.78
  -9  -7  -8    4.00    5.83
  -9  -7   8    1.85    2.13
  -9  -7  -9   83.19   18.36
  -9  -7   9   63.85   14.72
  -9  -7  10   10.93    5.44
  -9  -7 -10   15.38   10.36
  -9  -7  11    2.29    3.98
  -9  -7 -11    0.91    4.72
  -9  -7 -12   18.15   10.35
  -9  -7  12   14.40    5.52
  -9  -7  13   62.97   16.61
  -9  -7 -13   86.18   19.97
  -9  -7 -14   -4.80    6.72
  -9  -7  14    3.42    5.75
  -9  -7 -15   26.06   10.77
  -9  -7 -16   12.59    3.98
  -9  -7 -17   36.02   11.06
  -9  -7 -18   -4.46    6.71
  -9  -7 -19    7.43    4.45
  -9  -8   0    1.57    2.07
  -9  -8   1   -4.63    3.38
  -9  -8  -1   -4.37    3.02
  -9  -8   2   13.22    8.50
  -9  -8  -2   17.37    7.75
  -9  -8   3   13.44    6.16
  -9  -8  -3    3.62    4.60
  -9  -8   4    0.94    2.02
  -9  -8  -4    7.31    5.42
  -9  -8   5   17.76    8.90
  -9  -8  -5   42.60   11.42
  -9  -8  -6    5.09    7.50
  -9  -8   6   26.10   10.33
  -9  -8  -7    1.58    3.08
  -9  -8   7    1.87    1.96
  -9  -8  -8    1.24    5.09
  -9  -8   8   -0.02    3.34
  -9  -8  -9   13.75    8.14
  -9  -8   9   17.92    9.11
  -9  -8  10    2.73    4.18
  -9  -8 -10    5.00    2.90
  -9  -8  11    1.53    3.39
  -9  -8 -11   -0.03    5.90
  -9  -8 -12    0.72    1.96
  -9  -8  12    4.91    5.34
  -9  -8 -13    4.49    8.57
  -9  -8  13    2.06    5.31
  -9  -8 -14    4.05    2.91
  -9  -8  14    5.28    0.66
  -9  -8 -15   -2.11    7.17
  -9  -8  15   13.35    9.52
  -9  -8 -16    2.07    4.90
  -9  -8  16    2.22    5.59
  -9  -8 -17    5.60    7.12
  -9  -8  17   -1.09    4.22
  -9  -9   0    3.28    4.30
  -9  -9   1   28.87   10.88
  -9  -9  -1   38.81   12.24
  -9  -9   2   11.70    7.49
  -9  -9  -2   11.50    7.69
  -9  -9   3    4.95    1.22
  -9  -9  -3    6.02    4.47
  -9  -9   4   -2.13    3.23
  -9  -9  -4    8.17    7.33
  -9  -9   5    8.91    5.07
  -9  -9  -5    1.01    2.88
  -9  -9   6   64.58   15.34
  -9  -9  -6   85.32   17.82
  -9  -9  -7   10.34    7.08
  -9  -9   7    4.85    5.72
  -9  -9  -8   14.00    6.80
  -9  -9   8    5.89    5.14
  -9  -9  -9   19.69   12.63
  -9  -9   9   54.09   14.32
  -9  -9 -10   -7.47    8.48
  -9  -9  10   -4.09    5.44
  -9  -9  11    5.24    8.53
  -9  -9 -11    7.02    5.66
  -9  -9  12   -0.60    4.20
  -9  -9 -12    7.31    8.44
  -9  -9 -13   38.26   12.56
  -9  -9  13   38.92   12.18
  -9  -9 -14   -0.09    5.76
  -9  -9  14    1.29    0.77
  -9  -9 -15   10.84    2.93
  -9  -9  15   16.78   11.66
  -9 -10   0   -4.76    7.41
  -9 -10   1    9.81    8.04
  -9 -10  -1    6.45    3.45
  -9 -10   2   -0.58    0.70
  -9 -10  -2   -4.30    6.15
  -9 -10   3    1.67    1.04
  -9 -10  -3   14.54    9.34
  -9 -10   4   20.74   10.80
  -9 -10  -4    2.13    5.71
  -9 -10   5   -1.03    5.60
  -9 -10  -5    5.04    6.91
  -9 -10   6    8.06    6.48
  -9 -10  -6   -9.42    8.72
  -9 -10  -7    4.40    8.04
  -9 -10   7    1.84    4.25
  -9 -10  -8    4.82    4.26
  -9 -10   8    1.65    5.56
  -9 -10  -9   10.09    7.77
  -9 -10   9    8.56    4.93
  -9 -10 -10   10.27    8.81
  -9 -10  10   19.31    9.81
  -9 -10 -11    6.14    9.34
  -9 -10  11    2.78    5.15
  -9 -10  12    2.46    8.38
  -9 -10 -12   -1.03    2.53
  -9 -10  13   -2.76    6.32
  -9 -10 -13    1.68    3.04
  -9 -11   0    2.05    3.31
  -9 -11   1    0.95    2.29
  -9 -11  -1    5.68    4.95
  -9 -11   2   36.26   11.34
  -9 -11  -2   37.52    9.97
  -9 -11   3    4.69    5.37
  -9 -11  -3    4.81    4.23
  -9 -11   4   -4.73    6.00
  -9 -11  -4    8.92    9.02
  -9 -11   5    3.78    5.35
  -9 -11  -5    4.17    7.08
  -9 -11   6   11.05    9.92
  -9 -11  -6    4.05    3.66
  -9 -11  -7    0.32    1.16
  -9 -11   7    1.72    4.94
  -9 -11  -8   18.30    9.19
  -9 -11   8    8.43    8.48
  -9 -11  -9    6.54    3.22
  -9 -11   9   14.27    7.19
  -9 -12   0    9.38    7.94
  -9 -12   1    3.66    6.74
  -9 -12  -1   -3.60    5.88
  -9 -12   2    0.20    4.99
  -9 -12  -2    2.22    4.35
  -9 -12   3   -4.67    6.33
  -9 -12  -3   -1.70    4.61
 -10  -2 -18    8.28    5.60
 -10  -2 -19   14.25    8.41
 -10  -2 -20    1.02    7.48
 -10  -3 -12    5.79    3.26
 -10  -3 -13   26.08    8.23
 -10  -3 -14    4.01    6.24
 -10  -3 -15   19.33    9.47
 -10  -3 -16    3.92    4.41
 -10  -3 -17    4.17    2.59
 -10  -3 -18    2.69    6.85
 -10  -3 -19   55.32   17.65
 -10  -3 -20   -5.27    8.96
 -10  -4  -7   41.92   13.37
 -10  -4  -8    2.47    5.45
 -10  -4  -9   -2.62    7.43
 -10  -4 -10    2.60    3.67
 -10  -4 -11   -3.37    7.43
 -10  -4 -12    3.66    6.57
 -10  -4 -13   36.40   12.76
 -10  -4 -14   -2.76    5.19
 -10  -4 -15   18.46    8.06
 -10  -4 -16    8.48    8.05
 -10  -4 -17   21.75   10.85
 -10  -4 -18   14.77   10.72
 -10  -4 -19    0.94    5.96
 -10  -5  -3    3.29    3.82
 -10  -5  -4   46.21   11.03
 -10  -5  -5   15.71    9.74
 -10  -5  -6    5.75    4.74
 -10  -5  -7    0.57    2.10
 -10  -5  -8   26.31   10.36
 -10  -5  -9   17.34    6.34
 -10  -5 -10   93.48   18.26
 -10  -5 -11   -0.05    4.71
 -10  -5 -12   -0.57    2.06
 -10  -5 -13   11.13    7.86
 -10  -5 -14   14.54    9.25
 -10  -5 -15    7.28    7.94
 -10  -5 -16    0.42    3.55
 -10  -5 -17   -0.88    6.99
 -10  -5 -18   14.30   10.02
 -10  -6   0   47.11   12.49
 -10  -6  -1    6.32    5.05
 -10  -6   1    0.40    5.85
 -10  -6  -2    4.89    2.88
 -10  -6  -3    9.55    8.32
 -10  -6  -4   32.76   11.18
 -10  -6  -5    7.48    3.71
 -10  -6  -6   -6.35    6.80
 -10  -6  -7    2.96    0.46
 -10  -6  -8   13.04    8.48
 -10  -6  -9    7.77    6.84
 -10  -6 -10   46.92   14.90
 -10  -6 -11   -0.69    1.02
 -10  -6 -12   -4.41    7.29
 -10  -6 -13   10.55    9.20
 -10  -6 -14    0.03    3.50
 -10  -6 -15   10.65    5.09
 -10  -6 -16    4.15    4.63
 -10  -6 -17    5.14    5.57
 -10  -7   0    4.45    6.68
 -10  -7  -1   66.23   14.65
 -10  -7   1   54.94   14.65
 -10  -7  -2   10.93    7.12
 -10  -7   2    5.71    2.89
 -10  -7   3   32.34   11.96
 -10  -7  -3   10.26    6.58
 -10  -7   4    7.82    1.53
 -10  -7  -4   11.63    7.75
 -10  -7  -5    7.61    5.68
 -10  -7  -6    4.23    3.08
 -10  -7  -7   28.25   11.16
 -10  -7  -8   -1.12    2.80
 -10  -7  -9   -3.37    2.72
 -10  -7 -10    8.79    4.94
 -10  -7 -11   45.83   13.75
 -10  -7 -12   -1.66    6.11
 -10  -7 -13   26.72    9.96
 -10  -7 -14    2.90    7.49
 -10  -7 -15   13.68    8.16
 -10  -8   0    9.20    4.06
 -10  -8  -1   -1.18    0.31
 -10  -8   1   -1.15    3.06
 -10  -8  -2   12.14    8.49
 -10  -8   2    2.15    3.86
 -10  -8   3   -2.86    5.61
 -10  -8  -3   -6.84    5.03
 -10  -8   4    0.29    5.31
 -10  -8  -4    7.10    6.60
 -10  -8   5    2.20    2.06
 -10  -8  -5   -0.03    2.68
 -10  -8   6    9.90    5.43
 -10  -8  -6   11.37    4.01
 -10  -8  -7   78.19   17.32
 -10  -8   7   52.02   14.21
 -10  -8  -8   -4.01    7.35
 -10  -8  -9   -5.22    5.82
 -10  -8 -10   17.22   12.68
 -10  -8 -11   23.32   11.64
 -10  -8 -12    8.03    7.67
 -10  -8 -13   24.96   10.10
 -10  -8 -14    0.63    4.55
 -10  -9   0   25.75   10.30
 -10  -9  -1   14.08    9.82
 -10  -9   1    7.86    6.46
 -10  -9   2    0.39    3.82
 -10  -9  -2   -0.94    6.42
 -10  -9   3   26.05   11.92
 -10  -9  -3   40.88   13.53
 -10  -9   4   17.87   10.23
 -10  -9  -4   56.73   16.56
 -10  -9   5   18.66    7.84
 -10  -9  -5    2.08    6.63
 -10  -9   6   -3.01    3.59
 -10  -9  -6   -4.00    3.20
 -10  -9  -7   10.98    7.33
 -10  -9   7   31.40    8.99
 -10  -9  -8    5.43    0.46
 -10  -9   8   19.18    9.67
 -10  -9  -9   10.27    7.50
 -10  -9   9   -9.53    7.40
 -10  -9 -10   -2.17    3.77
 -10  -9 -11    0.65    3.33
 -10 -10   0    6.37    6.45
 -10 -10  -1    3.84    7.21
 -10 -10   1    4.61    5.55
 -10 -10   2   -2.58    2.18
 -10 -10  -2   -1.86    5.28
 -10 -10   3   13.93    7.57
 -10 -10  -3    3.60    5.30
 -10 -10   4    3.67    6.31
 -10 -10  -4    6.94    5.41
 -10 -10   5   12.92    9.96
 -10 -10  -5    0.09    6.42
 -10 -10   6   -2.67    3.76
 -10 -10  -6   -6.57    5.92
 -10 -10   7   -1.75    5.15
 -10 -10  -7    2.93    8.67
 -11  -7 -10   -2.71    3.34
 -11  -7 -11    7.79    6.94
 -11  -8  -6   -5.47   10.15
 -11  -8  -7    0.73    2.39
 -11  -8  -8    4.65    5.35
   0   0   0    0.00    0.00

TITL 031_290K_SulfamerazineF2_ in Pbca
REM Pbca (#61 in standard setting)
CELL 0.68890   9.141523  11.700215  22.883732  90.0000  90.0000  90.0000
ZERR    8.00   0.000379   0.000386   0.000625   0.0000   0.0000   0.0000
LATT  1
SYMM -x+1/2,-y, z+1/2
SYMM -x, y+1/2,-z+1/2
SYMM  x+1/2,-y+1/2,-z
SFAC C H N O S
UNIT 88.00 96.00 32.00 16.00 8.00
TREF
HKLF 4
END
_computing_structure_solution     'SHELXT 2014/5 (Sheldrick, 2014)'
;
_shelx_hkl_checksum              61851
loop_
_space_group_symop_operation_xyz
'x, y, z'
'-x+1/2, -y, z+1/2'
'-x, y+1/2, -z+1/2'
'x+1/2, -y+1/2, -z'
'-x, -y, -z'
'x-1/2, y, -z-1/2'
'x, -y-1/2, z-1/2'
'-x-1/2, y-1/2, z'
loop_
_atom_site_label
_atom_site_type_symbol
_atom_site_fract_x
_atom_site_fract_y
_atom_site_fract_z
_atom_site_U_iso_or_equiv
_atom_site_adp_type
_atom_site_occupancy
_atom_site_site_symmetry_order
_atom_site_calc_flag
_atom_site_refinement_flags_posn
_atom_site_refinement_flags_adp
_atom_site_refinement_flags_occupancy
_atom_site_disorder_assembly
_atom_site_disorder_group
S1 S 0.33305(9) 0.34670(6) 0.38982(3) 0.0402(2) Uani 1 1 d . . . . .
O2 O 0.1983(2) 0.39671(19) 0.40965(9) 0.0481(5) Uani 1 1 d . . . . .
O1 O 0.3424(3) 0.22552(17) 0.38619(9) 0.0520(6) Uani 1 1 d . . . . .
N4 N 0.6663(3) 0.4264(2) 0.48544(10) 0.0452(6) Uani 1 1 d . . . . .
N3 N 0.6555(3) 0.2865(2) 0.40936(11) 0.0456(6) Uani 1 1 d . . . . .
N2 N 0.4521(3) 0.3946(2) 0.43770(11) 0.0426(6) Uani 1 1 d . . . . .
N1 N 0.4572(4) 0.5341(3) 0.15580(14) 0.0621(9) Uani 1 1 d . . . . .
C1 C 0.3762(3) 0.4045(2) 0.32193(12) 0.0399(6) Uani 1 1 d . . . . .
C2 C 0.4496(4) 0.3395(3) 0.28073(14) 0.0539(8) Uani 1 1 d . . . . .
H2 H 0.4800 0.2659 0.2900 0.070 Uiso 1 1 calc R U . . .
C3 C 0.4776(4) 0.3833(3) 0.22613(14) 0.0577(9) Uani 1 1 d . . . . .
H3 H 0.5261 0.3385 0.1987 0.075 Uiso 1 1 calc R U . . .
C4 C 0.4346(4) 0.4933(3) 0.21123(13) 0.0466(7) Uani 1 1 d . . . . .
C5 C 0.3619(4) 0.5590(3) 0.25343(14) 0.0503(8) Uani 1 1 d . . . . .
H5 H 0.3316 0.6328 0.2443 0.065 Uiso 1 1 calc R U . . .
C6 C 0.3349(3) 0.5151(2) 0.30823(13) 0.0446(7) Uani 1 1 d . . . . .
H6 H 0.2886 0.5601 0.3362 0.058 Uiso 1 1 calc R U . . .
C7 C 0.5982(3) 0.3665(2) 0.44348(12) 0.0388(6) Uani 1 1 d . . . . .
C8 C 0.8075(4) 0.4012(3) 0.49267(14) 0.0505(8) Uani 1 1 d . . . . .
H8 H 0.8602 0.4401 0.5212 0.066 Uiso 1 1 calc R U . . .
C9 C 0.8777(4) 0.3207(3) 0.46006(14) 0.0533(8) Uani 1 1 d . . . . .
H9 H 0.9764 0.3051 0.4659 0.069 Uiso 1 1 calc R U . . .
C10 C 0.7981(4) 0.2631(3) 0.41818(14) 0.0471(7) Uani 1 1 d . . . . .
C11 C 0.8650(5) 0.1708(3) 0.38197(17) 0.0688(11) Uani 1 1 d . . . . .
H11A H 0.8206 0.0989 0.3916 0.089 Uiso 1 1 calc R U . . .
H11B H 0.9681 0.1671 0.3897 0.089 Uiso 1 1 calc R U . . .
H11C H 0.8493 0.1871 0.3413 0.089 Uiso 1 1 calc R U . . .
H1N2 H 0.419(4) 0.451(3) 0.4565(14) 0.049(9) Uiso 1 1 d . . . . .
H1N1 H 0.509(4) 0.494(3) 0.1377(16) 0.053(11) Uiso 1 1 d . . . . .
H2N1 H 0.446(5) 0.608(4) 0.1527(18) 0.085(14) Uiso 1 1 d . . . . .
loop_
_atom_site_aniso_label
_atom_site_aniso_U_11
_atom_site_aniso_U_22
_atom_site_aniso_U_33
_atom_site_aniso_U_23
_atom_site_aniso_U_13
_atom_site_aniso_U_12
S1 0.0419(5) 0.0420(4) 0.0366(3) -0.0025(3) -0.0002(3) -0.0041(3)
O2 0.0361(12) 0.0634(14) 0.0448(11) -0.0026(10) 0.0012(9) -0.0009(10)
O1 0.0696(17) 0.0379(11) 0.0485(12) -0.0014(9) -0.0007(10) -0.0093(10)
N4 0.0415(16) 0.0510(15) 0.0430(13) -0.0059(11) -0.0042(11) 0.0042(12)
N3 0.0475(17) 0.0459(14) 0.0436(13) -0.0037(10) 0.0056(11) 0.0095(12)
N2 0.0384(16) 0.0459(14) 0.0434(13) -0.0120(11) -0.0048(10) 0.0061(11)
N1 0.079(3) 0.0549(19) 0.0521(17) 0.0056(14) 0.0191(16) 0.0059(18)
C1 0.0430(18) 0.0378(14) 0.0390(13) -0.0035(10) 0.0027(12) -0.0023(12)
C2 0.067(2) 0.0453(17) 0.0492(17) 0.0000(13) 0.0102(16) 0.0157(16)
C3 0.078(3) 0.0490(18) 0.0460(17) -0.0043(14) 0.0166(17) 0.0107(17)
C4 0.047(2) 0.0465(17) 0.0458(16) -0.0001(13) 0.0092(13) -0.0062(13)
C5 0.062(2) 0.0372(14) 0.0515(17) -0.0004(13) 0.0064(15) 0.0012(14)
C6 0.050(2) 0.0388(14) 0.0447(15) -0.0060(12) 0.0068(13) -0.0022(13)
C7 0.0389(18) 0.0407(14) 0.0368(13) 0.0023(10) -0.0005(11) -0.0004(12)
C8 0.0408(19) 0.063(2) 0.0474(17) 0.0001(14) -0.0033(14) 0.0021(15)
C9 0.042(2) 0.064(2) 0.0541(18) 0.0105(15) 0.0006(15) 0.0123(16)
C10 0.045(2) 0.0471(16) 0.0491(16) 0.0076(13) 0.0099(14) 0.0089(14)
C11 0.064(3) 0.067(2) 0.075(3) -0.0070(19) 0.010(2) 0.0208(19)
loop_
_atom_type_symbol
_atom_type_description
_atom_type_scat_dispersion_real
_atom_type_scat_dispersion_imag
_atom_type_scat_source
C C 0.0033 0.0016 'International Tables Vol C Tables 4.2.6.8 and 6.1.1.4'
H H 0.0000 0.0000 'International Tables Vol C Tables 4.2.6.8 and 6.1.1.4'
N N 0.0061 0.0033 'International Tables Vol C Tables 4.2.6.8 and 6.1.1.4'
O O 0.0106 0.0060 'International Tables Vol C Tables 4.2.6.8 and 6.1.1.4'
S S 0.1246 0.1234 'International Tables Vol C Tables 4.2.6.8 and 6.1.1.4'
loop_
_geom_angle_atom_site_label_1
_geom_angle_atom_site_label_2
_geom_angle_atom_site_label_3
_geom_angle
_geom_angle_site_symmetry_1
_geom_angle_site_symmetry_3
O1 S1 O2 118.41(14) . .
O1 S1 N2 109.80(14) . .
O2 S1 N2 102.60(13) . .
O1 S1 C1 108.76(13) . .
O2 S1 C1 108.56(14) . .
N2 S1 C1 108.22(14) . .
C8 N4 C7 115.0(3) . .
C7 N3 C10 115.9(3) . .
C7 N2 S1 128.6(2) . .
C7 N2 H1N2 119(2) . .
S1 N2 H1N2 112(2) . .
C4 N1 H1N1 112(3) . .
C4 N1 H2N1 114(3) . .
H1N1 N1 H2N1 128(4) . .
C6 C1 C2 119.5(3) . .
C6 C1 S1 120.2(2) . .
C2 C1 S1 120.3(2) . .
C3 C2 C1 120.3(3) . .
C3 C2 H2 119.9 . .
C1 C2 H2 119.9 . .
C2 C3 C4 121.1(3) . .
C2 C3 H3 119.5 . .
C4 C3 H3 119.5 . .
N1 C4 C3 120.5(3) . .
N1 C4 C5 121.2(3) . .
C3 C4 C5 118.2(3) . .
C6 C5 C4 120.5(3) . .
C6 C5 H5 119.7 . .
C4 C5 H5 119.7 . .
C5 C6 C1 120.4(3) . .
C5 C6 H6 119.8 . .
C1 C6 H6 119.8 . .
N3 C7 N4 127.3(3) . .
N3 C7 N2 119.5(3) . .
N4 C7 N2 113.1(2) . .
N4 C8 C9 122.7(3) . .
N4 C8 H8 118.6 . .
C9 C8 H8 118.6 . .
C8 C9 C10 118.0(3) . .
C8 C9 H9 121.0 . .
C10 C9 H9 121.0 . .
N3 C10 C9 121.1(3) . .
N3 C10 C11 117.4(3) . .
C9 C10 C11 121.5(3) . .
C10 C11 H11A 109.5 . .
C10 C11 H11B 109.5 . .
H11A C11 H11B 109.5 . .
C10 C11 H11C 109.5 . .
H11A C11 H11C 109.5 . .
H11B C11 H11C 109.5 . .
loop_
_geom_bond_atom_site_label_1
_geom_bond_atom_site_label_2
_geom_bond_distance
_geom_bond_site_symmetry_2
S1 O1 1.423(2) .
S1 O2 1.437(2) .
S1 N2 1.643(3) .
S1 C1 1.740(3) .
N4 C8 1.334(4) .
N4 C7 1.342(4) .
N3 C7 1.327(4) .
N3 C10 1.347(4) .
N2 C7 1.381(4) .
N2 H1N2 0.84(3) .
N1 C4 1.371(4) .
N1 H1N1 0.78(4) .
N1 H2N1 0.88(4) .
C1 C6 1.384(4) .
C1 C2 1.384(4) .
C2 C3 1.375(4) .
C2 H2 0.9300 .
C3 C4 1.389(4) .
C3 H3 0.9300 .
C4 C5 1.402(4) .
C5 C6 1.377(4) .
C5 H5 0.9300 .
C6 H6 0.9300 .
C8 C9 1.362(5) .
C8 H8 0.9300 .
C9 C10 1.379(5) .
C9 H9 0.9300 .
C10 C11 1.492(4) .
C11 H11A 0.9600 .
C11 H11B 0.9600 .
C11 H11C 0.9600 .
loop_
_geom_hbond_atom_site_label_D
_geom_hbond_atom_site_label_H
_geom_hbond_atom_site_label_A
_geom_hbond_distance_DH
_geom_hbond_distance_HA
_geom_hbond_distance_DA
_geom_hbond_angle_DHA
_geom_hbond_site_symmetry_A
C6 H6 O1 0.93 2.55 3.445(4) 162.3 8_665
C8 H8 O2 0.93 2.54 3.255(4) 134.2 5_666
C9 H9 O2 0.93 2.63 3.273(4) 126.7 1_655
N2 H1N2 N4 0.84(3) 2.11(3) 2.942(4) 171(3) 5_666
N1 H1N1 O2 0.78(4) 2.34(4) 3.112(4) 169(4) 6_656
N1 H2N1 O1 0.88(4) 2.53(4) 3.048(4) 119(3) 3_655
N1 H2N1 N3 0.88(4) 2.69(5) 3.464(4) 148(4) 3_655
loop_
_geom_torsion_atom_site_label_1
_geom_torsion_atom_site_label_2
_geom_torsion_atom_site_label_3
_geom_torsion_atom_site_label_4
_geom_torsion
_geom_torsion_site_symmetry_1
_geom_torsion_site_symmetry_2
_geom_torsion_site_symmetry_3
_geom_torsion_site_symmetry_4
O1 S1 N2 C7 47.1(3) . . . .
O2 S1 N2 C7 173.9(3) . . . .
C1 S1 N2 C7 -71.4(3) . . . .
O1 S1 C1 C6 160.9(2) . . . .
O2 S1 C1 C6 30.8(3) . . . .
N2 S1 C1 C6 -79.9(3) . . . .
O1 S1 C1 C2 -17.8(3) . . . .
O2 S1 C1 C2 -147.9(3) . . . .
N2 S1 C1 C2 101.5(3) . . . .
C6 C1 C2 C3 -1.8(5) . . . .
S1 C1 C2 C3 176.9(3) . . . .
C1 C2 C3 C4 0.6(6) . . . .
C2 C3 C4 N1 -177.0(4) . . . .
C2 C3 C4 C5 0.1(5) . . . .
N1 C4 C5 C6 177.4(3) . . . .
C3 C4 C5 C6 0.4(5) . . . .
C4 C5 C6 C1 -1.5(5) . . . .
C2 C1 C6 C5 2.2(5) . . . .
S1 C1 C6 C5 -176.5(3) . . . .
C10 N3 C7 N4 0.1(5) . . . .
C10 N3 C7 N2 -179.2(3) . . . .
C8 N4 C7 N3 0.2(4) . . . .
C8 N4 C7 N2 179.6(3) . . . .
S1 N2 C7 N3 -4.1(4) . . . .
S1 N2 C7 N4 176.5(2) . . . .
C7 N4 C8 C9 -0.1(5) . . . .
N4 C8 C9 C10 -0.3(5) . . . .
C7 N3 C10 C9 -0.5(4) . . . .
C7 N3 C10 C11 178.0(3) . . . .
C8 C9 C10 N3 0.6(5) . . . .
C8 C9 C10 C11 -177.8(3) . . . .
