#------------------------------------------------------------------------------
#$Date: 2017-09-28 15:45:10 +0300 (Thu, 28 Sep 2017) $
#$Revision: 201413 $
#$URL: file:///home/coder/svn-repositories/cod/cif/1/54/74/1547411.cif $
#------------------------------------------------------------------------------
#
# This file is available in the Crystallography Open Database (COD),
# http://www.crystallography.net/
#
# All data on this site have been placed in the public domain by the
# contributors.
#
data_1547411
loop_
_publ_author_name
'Anuradha R. Pallipurath'
'Jonathan M. Skelton'
'Mark R. Warren'
'Naghmeh Kamali'
'Patrick McArdle'
'Andrea Erxleben'
_publ_section_title
;
 Sulfamerazine: Understanding the Influence of Slip Planes in the
 Polymorphic Phase Transformation through X-Ray Crystallographic Studies
 and ab Initio Lattice Dynamics
;
_journal_name_full               'Molecular Pharmaceutics'
_journal_page_first              3735
_journal_page_last               3748
_journal_paper_doi               10.1021/acs.molpharmaceut.5b00504
_journal_volume                  12
_journal_year                    2015
_chemical_absolute_configuration ad
_chemical_formula_moiety         'C11 H12 N4 O2 S'
_chemical_formula_sum            'C11 H12 N4 O2 S'
_chemical_formula_weight         302.06
_chemical_name_common            Sulfamerazine
_chemical_name_systematic        4-amino-N-(4-methylpyrimidin-2-yl)
_space_group_crystal_system      orthorhombic
_space_group_IT_number           33
_space_group_name_Hall           'P 2c -2n'
_space_group_name_H-M_alt        'P n a 21'
_symmetry_space_group_name_Hall  'P 2c -2n'
_symmetry_space_group_name_H-M   'P n a 21'
_atom_sites_solution_hydrogens   mixed
_cell_angle_alpha                90
_cell_angle_beta                 90
_cell_angle_gamma                90
_cell_formula_units_Z            7
_cell_length_a                   14.4899(5)
_cell_length_b                   8.2086(4)
_cell_length_c                   21.9106(9)
_cell_measurement_reflns_used    2264
_cell_measurement_temperature    250.0(2)
_cell_measurement_theta_max      28.4460
_cell_measurement_theta_min      3.7420
_cell_volume                     2606.09(19)
_computing_cell_refinement
;
'Thu Dec 18 11:18:01 2014'
;
_computing_data_collection
;
'Thu Dec 18 11:18:01 2014'
;
_computing_data_reduction
;
'Thu Dec 18 11:18:01 2014'
;
_computing_molecular_graphics    OSCAIL
_computing_structure_refinement  'SHELXL-2014/7 (Sheldrick, 2014)'
_computing_structure_solution    SHELXT
_diffrn_ambient_temperature      250.0(2)
_diffrn_detector_area_resol_mean 16.1048
_diffrn_measured_fraction_theta_full 0.998
_diffrn_measured_fraction_theta_max 0.864
_diffrn_measurement_device_type  'Xcalibur, Sapphire3'
_diffrn_measurement_method       '\w scans'
_diffrn_radiation_type           MoK\a
_diffrn_radiation_wavelength     0.71073
_diffrn_reflns_av_R_equivalents  0.0302
_diffrn_reflns_av_unetI/netI     0.0614
_diffrn_reflns_Laue_measured_fraction_full 0.998
_diffrn_reflns_Laue_measured_fraction_max 0.864
_diffrn_reflns_limit_h_max       19
_diffrn_reflns_limit_h_min       -19
_diffrn_reflns_limit_k_max       11
_diffrn_reflns_limit_k_min       -7
_diffrn_reflns_limit_l_max       28
_diffrn_reflns_limit_l_min       -26
_diffrn_reflns_number            8310
_diffrn_reflns_point_group_measured_fraction_full 0.794
_diffrn_reflns_point_group_measured_fraction_max 0.649
_diffrn_reflns_theta_full        25.242
_diffrn_reflns_theta_max         29.175
_diffrn_reflns_theta_min         3.371
_diffrn_source                   'Enhance (Mo) X-ray Source'
_exptl_absorpt_coefficient_mu    0.248
_exptl_absorpt_correction_T_max  1.00000
_exptl_absorpt_correction_T_min  0.98041
_exptl_absorpt_correction_type   multi-scan
_exptl_absorpt_process_details
;
'Thu Dec 18 11:18:01 2014'
;
_exptl_crystal_colour            Colourless
_exptl_crystal_density_diffrn    1.347
_exptl_crystal_description       Parallelepiped
_exptl_crystal_F_000             1104
_exptl_crystal_size_max          0.50
_exptl_crystal_size_mid          0.40
_exptl_crystal_size_min          0.20
_refine_diff_density_max         0.300
_refine_diff_density_min         -0.340
_refine_diff_density_rms         0.046
_refine_ls_abs_structure_details
;
 Flack x determined using 944 quotients [(I+)-(I-)]/[(I+)+(I-)]
 (Parsons, Flack and Wagner, Acta Cryst. B69 (2013) 249-259).
;
_refine_ls_abs_structure_Flack   0.07(6)
_refine_ls_extinction_coef       .
_refine_ls_extinction_method     none
_refine_ls_goodness_of_fit_ref   0.960
_refine_ls_hydrogen_treatment    mixed
_refine_ls_matrix_type           full
_refine_ls_number_parameters     343
_refine_ls_number_reflns         4566
_refine_ls_number_restraints     5
_refine_ls_restrained_S_all      0.959
_refine_ls_R_factor_all          0.0643
_refine_ls_R_factor_gt           0.0421
_refine_ls_shift/su_max          0.011
_refine_ls_shift/su_mean         0.000
_refine_ls_structure_factor_coef Fsqd
_refine_ls_weighting_details
'w=1/[\s^2^(Fo^2^)+(0.0216P)^2^] where P=(Fo^2^+2Fc^2^)/3'
_refine_ls_weighting_scheme      calc
_refine_ls_wR_factor_gt          0.0721
_refine_ls_wR_factor_ref         0.0817
_reflns_Friedel_coverage         0.466
_reflns_Friedel_fraction_full    0.578
_reflns_Friedel_fraction_max     0.423
_reflns_number_gt                3359
_reflns_number_total             4566
_reflns_threshold_expression     'I > 2\s(I)'
_cod_data_source_file            Exp_Form-I2FInHouse_Form-I_250K.cif
_cod_data_source_block           smz_f1_250_a
_cod_database_code               1547411
_shelx_space_group_comment
;
The symmetry employed for this shelxl refinement is uniquely defined
by the following loop, which should always be used as a source of
symmetry information in preference to the above space-group names.
They are only intended as comments.
;
_shelx_estimated_absorpt_t_min   0.886
_shelx_estimated_absorpt_t_max   0.952
_shelxl_version_number           2014/6
_shelx_res_file
;
TITL smz_f1_250_a.res in Pna2(1)
REM Old TITL smz_f1_250 in Pnma
REM SHELXT solution in Pna2(1)
REM R1 0.115,  Rweak 0.089,  Alpha 0.007,  Orientation a'=-a, b'=c, c'=b
REM Flack x =  0.089 ( 0.061 ) from Parsons' quotients
REM Formula found by SHELXT:  C26 N3 O5 S2
CELL  0.71073  14.4899   8.2086  21.9106   90.000   90.000   90.000
ZERR    7.000   0.0005   0.0004   0.0009    0.000    0.000    0.000
REM SG 33 4 4 Pna21 PGmm2 Orthorhombic
LATT -1
REM SG  ASUN  1  .5 .5 1.
REM SG  ORGN  on 2(1)
SYMM -X,-Y,0.5+Z
SYMM 0.5+X,0.5-Y,Z
SYMM 0.5-X,0.5+Y,0.5+Z
SFAC C H N O S
UNIT 88 96 32 16 8
L.S. 12
SIZE    0.50  0.40  0.20
BOND $H
DFIX .89 .02 N1 H1N1 N1 H2N1 N2 H1N2 N6 H1N6
ACTA
CONF
HTAB
LIST 4
WGHT    0.021600
FVAR       0.36235
S1    5    0.646125    0.495702    0.344126    11.00000    0.03075    0.03695 =
         0.03113    0.00329   -0.00079   -0.00189
S2    5    0.577691    0.495945    0.652515    11.00000    0.02967    0.03614 =
         0.03074    0.00317   -0.00211   -0.00206
O1    4    0.689340    0.371189    0.308715    11.00000    0.04850    0.03888 =
         0.04305   -0.00417    0.00000   -0.00244
O2    4    0.548942    0.523297    0.337533    11.00000    0.03084    0.05620 =
         0.03969    0.00843   -0.00639   -0.00475
O3    4    0.675031    0.467527    0.658933    11.00000    0.02921    0.05515 =
         0.04192    0.00612   -0.00599   -0.00271
O4    4    0.535345    0.623980    0.687440    11.00000    0.04755    0.03372 =
         0.04326   -0.00529   -0.00271    0.00057
N1    3    0.842054    1.116198    0.312251    11.00000    0.04394    0.03649 =
         0.06693   -0.00663    0.02055   -0.00777
N2    3    0.654963    0.449515    0.417509    11.00000    0.02436    0.05439 =
         0.02952    0.00884   -0.00217   -0.00119
N3    3    0.814193    0.409823    0.417405    11.00000    0.03027    0.04137 =
         0.03808    0.00457    0.00307    0.00145
N4    3    0.727625    0.428136    0.509482    11.00000    0.03670    0.07910 =
         0.03276    0.00314   -0.00288    0.01498
N5    3    0.380284   -0.120499    0.695907    11.00000    0.05646    0.03628 =
         0.09753   -0.00431    0.02453   -0.00834
AFIX  93
H5A   2    0.324097   -0.119124    0.708541    11.00000   -1.30000
H5B   2    0.407567   -0.211905    0.689397    11.00000   -1.30000
AFIX   0
N6    3    0.567602    0.537248    0.579377    11.00000    0.02950    0.05599 =
         0.03282    0.01134    0.00558    0.00458
N7    3    0.409811    0.585616    0.580156    11.00000    0.03147    0.04585 =
         0.04041    0.00264    0.00378    0.00173
N8    3    0.496063    0.564509    0.487440    11.00000    0.03783    0.08160 =
         0.03408    0.00532   -0.00402    0.01453
C1    1    0.704695    0.677680    0.334532    11.00000    0.03047    0.03151 =
         0.02859    0.00174    0.00222    0.00231
C2    1    0.794418    0.681031    0.310833    11.00000    0.03285    0.03448 =
         0.02487   -0.00053   -0.00228    0.00589
AFIX  43
H2    2    0.823267    0.584080    0.299955    11.00000   -1.30000
AFIX   0
C3    1    0.839653    0.824499    0.303597    11.00000    0.02782    0.04235 =
         0.02638   -0.00341    0.00124    0.00054
AFIX  43
H3    2    0.899613    0.824645    0.288457    11.00000   -1.30000
AFIX   0
C4    1    0.797114    0.972365    0.318658    11.00000    0.03579    0.03389 =
         0.02864   -0.00116   -0.00115   -0.00184
C5    1    0.706883    0.967598    0.342902    11.00000    0.03852    0.03861 =
         0.04448   -0.00465    0.00948    0.00469
AFIX  43
H5    2    0.677802    1.064154    0.354000    11.00000   -1.30000
AFIX   0
C6    1    0.661704    0.822406    0.350260    11.00000    0.03075    0.03814 =
         0.04309   -0.00167    0.01085    0.00451
AFIX  43
H6    2    0.602015    0.820975    0.365854    11.00000   -1.30000
AFIX   0
C7    1    0.737523    0.429055    0.449335    11.00000    0.02976    0.03608 =
         0.03891    0.00741   -0.00424    0.00277
C8    1    0.805700    0.403398    0.541028    11.00000    0.05121    0.12750 =
         0.03997   -0.00208   -0.01110    0.02696
AFIX  43
H8    2    0.803009    0.399552    0.583412    11.00000   -1.30000
AFIX   0
C9    1    0.889668    0.383527    0.512640    11.00000    0.03465    0.11124 =
         0.05066    0.00346   -0.00714    0.01873
AFIX  43
H9    2    0.943223    0.367197    0.535219    11.00000   -1.30000
AFIX   0
C10   1    0.892101    0.388497    0.450127    11.00000    0.03350    0.05042 =
         0.05324   -0.00330   -0.00171    0.00654
C11   1    0.979771    0.370140    0.414601    11.00000    0.03988    0.07984 =
         0.07265   -0.00497    0.00441    0.00835
AFIX 137
H11A  2    0.987692    0.258103    0.403178    11.00000   -1.30000
H11B  2    1.030980    0.404168    0.439305    11.00000   -1.30000
H11C  2    0.976847    0.436381    0.378544    11.00000   -1.30000
AFIX   0
C12   1    0.518843    0.315469    0.665966    11.00000    0.03192    0.03017 =
         0.02664    0.00199   -0.00140    0.00087
C13   1    0.562913    0.168662    0.655785    11.00000    0.02970    0.04020 =
         0.05364   -0.00116    0.00918    0.00238
AFIX  43
H13   2    0.623523    0.168036    0.641822    11.00000   -1.30000
AFIX   0
C14   1    0.518153    0.023425    0.666067    11.00000    0.03921    0.03008 =
         0.06309   -0.00555    0.00914    0.00635
AFIX  43
H14   2    0.548863   -0.074590    0.659685    11.00000   -1.30000
AFIX   0
C15   1    0.426363    0.023025    0.686143    11.00000    0.04292    0.03605 =
         0.04267   -0.00237    0.00429   -0.00367
C16   1    0.382725    0.172195    0.696567    11.00000    0.03354    0.03876 =
         0.03415   -0.00423    0.00562   -0.00368
AFIX  43
H16   2    0.322141    0.173693    0.710569    11.00000   -1.30000
AFIX   0
C17   1    0.428182    0.317257    0.686396    11.00000    0.03415    0.02922 =
         0.03265   -0.00040    0.00117    0.00371
AFIX  43
H17   2    0.398237    0.415810    0.693192    11.00000   -1.30000
AFIX   0
C18   1    0.486820    0.565315    0.548389    11.00000    0.03014    0.03749 =
         0.03549    0.00307   -0.00008   -0.00044
C19   1    0.418594    0.596284    0.456981    11.00000    0.05108    0.13365 =
         0.03916    0.00637   -0.00804    0.02693
AFIX  43
H19   2    0.420750    0.599315    0.414575    11.00000   -1.30000
AFIX   0
C20   1    0.336233    0.624580    0.485191    11.00000    0.04293    0.11589 =
         0.05569   -0.00908   -0.01674    0.03223
AFIX  43
H20   2    0.283862    0.650472    0.462652    11.00000   -1.30000
AFIX   0
C21   1    0.332521    0.613865    0.547894    11.00000    0.03631    0.05034 =
         0.05249    0.00003   -0.00109    0.01156
C22   1    0.245892    0.634131    0.583985    11.00000    0.03067    0.09018 =
         0.08003   -0.00762    0.00295    0.01235
AFIX 137
H22A  2    0.196823    0.667833    0.557391    11.00000   -1.30000
H22B  2    0.255213    0.715222    0.614949    11.00000   -1.30000
H22C  2    0.229934    0.532371    0.602825    11.00000   -1.30000
AFIX   0
H1N1  2    0.891744    1.125764    0.290051    11.00000    0.06743
H2N1  2    0.807226    1.200769    0.320773    11.00000    0.10014
H1N2  2    0.608279    0.476710    0.440372    11.00000    0.02963
H1N6  2    0.617376    0.503694    0.558855    11.00000    0.05617
HKLF 4
REM  smz_f1_250_a.res in Pna2(1)
REM R1 =  0.0421 for    3359 Fo > 4sig(Fo)  and  0.0643 for all    4566 data
REM    343 parameters refined using      5 restraints
END
WGHT      0.0209      0.0000
REM Instructions for potential hydrogen bonds
EQIV $1 x, y-1, z
HTAB N5 O4_$1
HTAB C8 O3
HTAB C14 O4_$1
HTAB C19 O2
EQIV $2 -x+3/2, y+1/2, z-1/2
HTAB N1 O4_$2
EQIV $3 x, y+1, z
HTAB N1 O1_$3
HTAB N2 N8
HTAB N6 N4
REM Highest difference peak  0.300,  deepest hole -0.340,  1-sigma level  0.046
Q1    1   0.6981  0.5906  0.3478  11.00000  0.05    0.18
Q2    1   0.6380  0.4387  0.6362  11.00000  0.05    0.18
Q3    1   0.6742  0.6114  0.3086  11.00000  0.05    0.17
Q4    1   0.5733  0.6176  0.6763  11.00000  0.05    0.17
Q5    1   0.5406  0.3925  0.6865  11.00000  0.05    0.17
Q6    1   0.4555  0.4057  0.6601  11.00000  0.05    0.16
Q7    1   0.6596  0.3053  0.3896  11.00000  0.05    0.16
Q8    1   0.5354  0.5633  0.6844  11.00000  0.05    0.16
Q9    1   0.5748  0.3713  0.6324  11.00000  0.05    0.16
Q10   1   0.6492  0.3048  0.2997  11.00000  0.05    0.15
Q11   1   0.6575  0.6219  0.3712  11.00000  0.05    0.15
Q12   1   0.3015  0.2613  0.7663  11.00000  0.05    0.15
Q13   1   1.1028  0.4130  0.4997  11.00000  0.05    0.15
Q14   1   0.5393  0.2719  0.6558  11.00000  0.05    0.15
Q15   1   0.8945  0.1780  0.5133  11.00000  0.05    0.15
Q16   1   0.4393  0.5362  0.5624  11.00000  0.05    0.15
Q17   1   0.3228  0.7465  0.4536  11.00000  0.05    0.15
Q18   1   0.8971  1.1214  0.3619  11.00000  0.05    0.15
Q19   1   0.2416  0.1790  0.7536  11.00000  0.05    0.14
Q20   1   0.3853 -0.2432  0.6595  11.00000  0.05    0.14
;
_shelx_res_checksum              20874
_shelx_hkl_file
;
   0   0  -4 2144.72   16.87
   0   0  -5    5.26    1.51
   0   0  -6 9999.00   44.96
   0   0   7   12.27    2.88
   0   0  -7   30.54    3.43
   0   0   8 7428.77   56.13
   0   0  -8 7562.37   44.90
   0   0  -9   44.62    4.55
   0   0   9   41.14    5.04
   0   0  10  220.85   10.85
   0   0 -10  220.06    8.50
   0   0 -11    1.99    1.29
   0   0 -12 1788.96   26.91
   0   0 -13   24.75    3.99
   0   0 -14   35.45    4.18
   0   0 -15    1.50    1.29
   0   0 -16  163.42    9.41
   0   0 -17    3.24    1.70
   0   0  17   13.53    5.52
   0   0  18   41.28    7.75
   0   0 -18   29.82    4.17
   0   0 -19    2.45    1.59
   0   0  19    9.44    4.99
   0   0  20  306.05   20.70
   0   0  21   12.26    5.32
   0   0  22   30.21    7.33
   0   0  23    1.59    2.43
   0   0  24    4.22    3.16
   0   0  25    4.56    3.56
   0   0  26  272.37   23.48
   0   0  27    9.49    4.81
   1   0   4    0.60    0.31
   1   0  -4   -0.26    0.59
  -1   0   4    0.45    0.73
  -1   0   5    3.73    1.70
   1   0  -5    2.62    1.56
   1   0   5    0.16    0.44
  -1   0  -6    0.57    0.51
  -1   0   6   -0.03    0.45
  -1   0  -7   -0.58    0.45
   1   0   7   -0.59    0.63
  -1   0   7    0.11    0.66
   1   0   8    0.39    0.57
  -1   0   8    0.49    0.56
  -1   0  -8   -0.51    0.89
  -1   0   9   -0.35    0.69
   1   0   9    0.54    0.58
  -1   0  -9   -0.44    0.88
   1   0 -10    1.35    1.25
  -1   0 -10    0.33    0.63
   1   0 -11    0.76    0.77
  -1   0 -11   -0.82    1.10
  -1   0 -12   -0.56    0.89
   1   0 -12   -0.56    0.75
   1   0 -13   -0.49    0.72
  -1   0 -13   -0.28    0.56
  -1   0 -14    0.34    0.64
   1   0 -14    0.15    0.61
   1   0 -15   -0.76    1.16
   1   0  16    8.95    4.69
   1   0 -16   -0.06    0.76
   1   0 -17   -0.16    0.92
  -1   0  17    9.55    4.65
   1   0  17    5.16    3.54
   1   0 -18    0.65    0.89
  -1   0  18    9.29    4.73
   1   0  18    6.79    4.21
  -1   0  19    8.92    4.48
   1   0 -19    0.88    0.73
   1   0  19    3.88    3.88
   1   0 -20   -0.01    0.86
   1   0  20    0.85    2.09
  -1   0  20    4.16    3.47
   1   0  21    4.44    3.29
  -1   0  21    2.96    2.62
   1   0  22    0.36    1.93
  -1   0  22    1.60    2.65
  -1   0  23    8.71    4.48
   1   0  23    1.71    2.45
  -1   0  24    0.41    1.28
   1   0  24    3.88    2.87
  -1   0  25    4.57    3.98
   1   0  25    5.39    3.66
  -1   0  26   -0.78    1.22
   1   0  26    4.59    3.90
   1   0  27    3.68    2.97
  -1   0  27    3.11    3.37
   1   0  28    0.03    1.43
   2   0  -2 4130.77   23.92
   2   0  -3 3520.92   23.95
   2   0  -3 3582.88   31.24
  -2   0   3 3523.46   31.43
  -2   0   4 5030.97   39.95
   2   0  -4 4975.34   39.53
  -2   0   5 1238.72   21.13
   2   0  -5 1232.90   21.38
   2   0  -6  343.62   11.91
  -2   0   6  335.26   11.81
   2   0   6  326.75    9.54
  -2   0   7 4232.66   43.91
   2   0  -7 4160.24   44.49
   2   0   7 4085.49   34.85
   2   0   8  269.78    9.32
  -2   0   8  281.32   11.96
   2   0  -8  290.85   12.18
   2   0   9  990.17   18.66
  -2   0   9 1018.92   23.75
   2   0  -9 1008.24   23.91
   2   0  10 1336.62   22.49
   2   0  11  171.27    8.33
   2   0  12   34.13    3.84
   2   0  13 2400.98   33.52
   2   0 -14   20.33    4.31
   2   0 -15  289.49   13.04
   2   0  15  308.44   16.94
   2   0  16   29.53    6.59
   2   0 -16   16.65    3.35
   2   0  17  154.89   13.10
  -2   0  17  154.50   13.74
   2   0 -17  140.24    9.41
  -2   0  18   26.13    6.85
   2   0  18   16.74    5.56
   2   0 -18    9.46    2.63
   2   0  19  337.82   20.53
   2   0 -19  332.20   15.25
  -2   0  19  347.17   21.72
   2   0 -20   27.06    4.57
   2   0  20   37.34    7.80
  -2   0  20   41.48    8.18
  -2   0  21   76.46   11.05
   2   0  21   72.01   10.23
   2   0  22   26.43    6.86
  -2   0  22   28.27    7.13
  -2   0  23  108.68   13.85
   2   0  23   95.05   12.48
  -2   0  24   42.25    9.12
   2   0  24   42.92    8.79
  -2   0  25   48.11    9.81
   2   0  25   52.53    9.88
   2   0  26    3.91    3.43
  -2   0  26    6.24    3.99
   2   0  27    7.69    4.32
  -2   0  27   12.31    5.60
   2   0  28   22.82    7.11
  -3   0   0   18.45    3.63
  -3   0   1    3.98    1.50
   3   0  -1   15.11    2.52
  -3   0   2    2.82    1.17
   3   0  -2    1.74    0.94
  -3   0   3   -0.19    0.67
   3   0  -3   -0.18    0.97
   3   0  -4   -0.09    0.69
   3   0  -4    0.05    0.84
   3   0  -5   -0.22    0.59
  -3   0   5   -1.66    1.50
   3   0  -5   -0.50    0.73
  -3   0   6   -2.20    1.47
   3   0  -6    1.34    1.77
  -3   0   7    0.67    0.86
   3   0  -7    2.62    2.17
   3   0  -8   -1.22    1.14
   3   0   8    0.07    0.68
   3   0   9   -0.54    0.72
   3   0  -9    0.93    1.54
   3   0  10   -0.15    0.48
   3   0 -10    0.48    1.20
   3   0  11   -0.48    1.05
   3   0 -11    1.67    1.91
   3   0  12   -0.84    0.91
   3   0  13   -0.25    0.92
   3   0  14    8.69    3.70
   3   0  14    0.54    0.91
   3   0  15    0.25    0.62
   3   0  15    8.48    3.95
   3   0  16    7.17    3.54
   3   0 -16    0.62    0.86
   3   0 -17    0.85    1.34
   3   0  17    4.57    2.88
   3   0 -18    1.71    1.70
   3   0  18    6.01    3.47
  -3   0  19   10.43    4.93
   3   0  19    3.93    3.44
   3   0 -19   -2.63    1.88
   3   0 -20   -1.37    1.41
   3   0  20    2.81    2.75
  -3   0  20    4.01    3.30
  -3   0  21    6.37    3.77
   3   0  21    3.97    3.62
   3   0  22    1.76    2.57
  -3   0  22    4.85    3.49
   3   0  23    0.07    2.06
  -3   0  23    2.81    3.29
  -3   0  24    4.01    3.50
   3   0  24    3.12    2.62
   3   0  25    2.99    3.09
  -3   0  25    1.30    2.46
  -3   0  26    0.44    2.17
   3   0  26   -1.60    1.98
   3   0  27    4.81    3.28
  -3   0  27    0.85    1.25
   3   0  28    0.15    1.55
  -4   0   0  375.34    6.11
  -4   0   0  394.30   10.75
  -4   0   1  308.07    9.25
   4   0  -2  535.93   11.77
  -4   0   2  540.41   11.90
   4   0  -3  803.60   14.58
  -4   0   3  797.08   14.49
   4   0  -4   74.12    5.98
  -4   0   4   75.95    4.56
   4   0  -4   71.64    4.35
   4   0   4   75.83    3.18
   4   0  -5  195.36   10.11
   4   0  -5  197.29    7.59
   4   0   5  194.23    6.08
   4   0  -6   74.16    4.86
   4   0  -6   74.84    6.36
   4   0  -7   32.68    4.66
   4   0  -7   28.04    3.21
   4   0  -8  154.83   10.31
   4   0  -9  636.47   21.23
   4   0 -10   57.07    6.71
   4   0  10   47.42    4.88
   4   0  11  618.06   18.07
   4   0 -11  642.60   22.95
   4   0  11  598.15   18.73
   4   0  12   63.34    6.85
   4   0 -12   57.08    7.22
   4   0  12   59.45    5.72
   4   0 -13   68.40    8.08
   4   0  13   70.08    7.40
   4   0  14  115.39    9.65
   4   0  15  148.96   11.48
  -4   0  16   91.63   10.89
   4   0  16   80.39    9.06
  -4   0  17  325.54   20.62
   4   0  17  327.84   18.79
   4   0  18   92.26   10.54
  -4   0  18  100.24   12.09
   4   0 -19   74.35    8.01
  -4   0  19   76.63   10.95
   4   0  19   77.74    9.73
   4   0 -20   54.16    6.91
  -4   0  20   56.67    9.56
   4   0  20   50.24    8.03
  -4   0  21   43.72    8.69
   4   0  21   47.55    8.16
  -4   0  22   47.95    9.11
   4   0  22   47.04    8.42
  -4   0  23   35.18    8.43
   4   0  23   34.99    7.50
  -4   0  24   16.00    5.64
   4   0  24   14.47    5.03
   4   0  25   14.63    5.19
  -4   0  25   15.58    5.90
   4   0  26   54.61   10.06
  -4   0  26   58.15   11.31
   4   0  27   23.41    6.66
   4   0  28    3.12    2.56
  -5   0   0   11.45    2.89
  -5   0   0    0.66    0.50
  -5   0   1    2.68    1.17
  -5   0   1    2.82    1.85
   5   0  -2    6.01    2.61
  -5   0   2   -0.44    0.82
   5   0  -3    2.07    1.63
  -5   0   3    1.11    1.24
   5   0  -4   -0.36    0.67
  -5   0   4    0.26    0.57
   5   0  -5   -0.86    1.73
   5   0  -5   -0.68    1.09
  -5   0   5    0.05    0.61
   5   0   5    0.39    0.47
   5   0  -6    0.14    0.43
   5   0   6    1.34    0.95
   5   0  -6   -0.91    1.09
   5   0  -7    1.33    1.42
   5   0   7    1.82    1.28
   5   0  -7    0.19    0.46
   5   0  -8    0.05    0.47
   5   0  -8    0.71    1.91
   5   0   8    0.84    0.95
   5   0  -9   -0.18    0.59
   5   0   9    3.55    1.86
   5   0  -9    1.90    2.16
   5   0 -10   -1.17    1.63
   5   0  10    1.98    1.43
   5   0 -10    0.37    0.48
   5   0  11    2.76    1.97
   5   0 -11    0.16    1.40
   5   0  12    2.35    2.31
   5   0 -12    2.01    1.98
   5   0 -13    0.90    2.09
   5   0  13    3.20    1.99
   5   0  14    1.90    2.26
   5   0 -14    3.06    2.67
  -5   0  15    3.35    3.55
   5   0  15    1.97    2.04
   5   0 -15    1.41    2.38
   5   0  16    0.95    1.95
  -5   0  16    6.03    3.95
  -5   0  17    7.14    5.00
   5   0  17    3.10    2.88
  -5   0  18    4.45    3.66
   5   0  18    2.54    2.53
  -5   0  19    9.98    4.40
   5   0  19    0.21    1.82
   5   0  20    2.32    2.41
  -5   0  20    2.26    3.03
   5   0  21    2.15    2.51
  -5   0  21    3.92    3.06
  -5   0  22    4.39    4.16
   5   0  22    0.56    1.72
   5   0  23    0.93    2.45
  -5   0  23    2.47    2.55
  -5   0  24    1.81    2.90
   5   0  24    0.94    2.01
  -5   0  25    3.83    3.65
   5   0  25   -1.78    2.70
  -5   0  26   -0.75    2.16
   5   0  26    1.30    1.44
   5   0  27   -0.77    1.67
   5   0  28    2.52    2.80
  -6   0   0  305.46    6.58
  -6   0   0  298.56   11.58
  -6   0  -1  833.64   20.19
  -6   0   1  860.75   19.13
  -6   0   1  876.32   13.63
  -6   0   2 2437.46   31.88
  -6   0   2 2392.08   25.66
  -6   0   3  502.23   14.16
   6   0  -3  500.92   13.94
   6   0  -4  527.80   18.91
   6   0  -4  508.26   14.08
  -6   0   4  517.42   14.35
   6   0  -5  927.62   19.22
   6   0  -5  937.38   25.94
  -6   0   5  920.87   19.25
   6   0   6  305.53    7.54
   6   0  -6  329.73   11.63
   6   0  -6  336.30   15.61
   6   0  -7   73.69    5.50
   6   0   7   70.96    4.27
   6   0  -7   77.35    7.83
   6   0  -8   91.06    8.84
   6   0  -8   90.66    6.37
   6   0   8   81.37    5.16
   6   0  -9  244.43   14.44
   6   0  -9  233.26   10.55
   6   0   9  226.67    9.32
   6   0 -10  334.22   13.13
   6   0 -10  344.79   17.66
   6   0  10  326.17   12.15
   6   0 -11   83.72    9.36
   6   0 -11   74.02    6.31
   6   0  11   76.76    6.49
   6   0  12   59.93    6.12
   6   0 -12   68.88    8.61
   6   0 -13   92.92   10.12
   6   0  13   85.15    7.78
   6   0 -14  467.67   23.54
   6   0  14  441.89   18.20
  -6   0  14  462.44   22.55
   6   0  15  177.83   12.21
   6   0 -15  197.24   15.61
  -6   0  15  197.51   15.73
   6   0  16  757.25   26.22
  -6   0  16  756.33   31.28
   6   0 -16  801.90   32.22
   6   0  17   86.07    9.30
  -6   0  17   86.53   11.44
  -6   0  18   14.31    5.15
   6   0  18    7.30    3.19
  -6   0  19   13.68    5.09
   6   0  19   17.80    4.85
   6   0  20    0.85    1.28
  -6   0  20    3.03    2.73
   6   0  21   17.79    4.91
  -6   0  21   22.35    6.48
  -6   0  22   70.97   11.59
   6   0  22   74.47   10.10
   6   0  23    6.29    2.98
  -6   0  23    8.77    4.66
  -6   0  24   75.11   12.76
   6   0  24   68.38   10.46
  -6   0  25   22.59    7.30
   6   0  25   12.45    4.60
   6   0  26    0.98    2.13
  -7   0   0   -0.17    0.47
  -7   0   0    5.59    3.07
  -7   0   1    0.50    0.57
  -7   0   1    1.88    1.83
  -7   0   2    2.35    1.36
  -7   0   2    0.23    1.06
  -7   0   3   -1.39    1.70
  -7   0   3    1.62    1.64
  -7   0   4    0.92    0.81
  -7   0   4    2.61    1.95
   7   0  -4    4.93    2.58
  -7   0   5    3.34    2.50
   7   0  -5   -2.74    2.22
  -7   0   5   -0.33    0.70
   7   0  -5    4.19    1.87
   7   0  -6   -0.14    1.44
   7   0  -6    0.71    1.08
  -7   0   6   -0.25    0.61
   7   0  -7   -1.44    1.59
   7   0  -7   -0.05    0.79
   7   0   7   -0.49    0.59
   7   0  -8   -0.86    1.10
   7   0  -8    0.08    1.52
   7   0   8   -0.36    0.50
   7   0   9   -0.02    0.35
   7   0  -9   -1.13    1.28
   7   0  -9    1.38    2.27
   7   0  10    0.29    0.90
   7   0 -10    1.26    2.10
   7   0 -10   -0.26    0.62
   7   0 -11    2.96    3.05
   7   0  11    0.21    0.97
   7   0 -12   -0.49    2.27
   7   0  12    2.10    1.38
  -7   0  12    3.53    3.32
   7   0  13    0.84    1.41
   7   0 -13   -1.17    2.24
   7   0 -14    0.99    1.69
  -7   0  14    2.50    3.31
   7   0  14   -0.18    0.94
   7   0 -15    4.79    3.75
  -7   0  15    8.59    4.01
   7   0  15    0.56    0.69
   7   0  16   -0.19    1.03
  -7   0  16    4.59    3.56
   7   0 -16    3.56    4.09
   7   0 -17   -1.09    1.32
  -7   0  17    1.18    2.38
   7   0  17    0.59    1.40
  -7   0  18    1.54    2.64
   7   0 -18   -0.33    2.19
   7   0  18    1.33    1.42
   7   0  19    1.28    1.82
  -7   0  19    1.27    2.26
  -7   0  20    2.89    2.40
   7   0  20   -1.04    1.56
  -7   0  21    1.62    2.15
   7   0  21    1.07    1.57
   7   0  22   -1.25    2.17
  -7   0  22    0.82    2.39
   7   0  23    0.82    1.31
  -7   0  23    2.83    3.26
  -7   0  24    3.40    2.84
  -7   0  25    1.00    1.40
  -8   0   0  547.05   18.53
  -8   0  -1   54.14    6.64
  -8   0   1   53.66    3.67
  -8   0   1   56.54    5.71
  -8   0   2  376.11   11.00
  -8   0  -2  357.02   15.59
  -8   0   2  361.75   14.37
  -8   0   3  711.22   19.79
  -8   0   3  710.20   16.80
  -8   0   4  392.06   14.54
  -8   0   4  389.95   13.54
   8   0  -5   32.08    4.31
  -8   0   5   19.33    3.24
  -8   0   5   24.01    3.81
   8   0  -5   23.38    4.22
   8   0  -6  210.15   10.46
  -8   0   6  213.59   11.38
   8   0  -6  208.15   14.06
  -8   0   6  206.70   10.57
   8   0  -7    8.76    2.37
   8   0  -7    4.46    1.97
  -8   0   7   14.43    3.73
   8   0  -8  358.22   14.01
  -8   0   8  381.62   16.70
   8   0  -8  364.85   19.62
   8   0  -9  582.44   25.15
   8   0   9  562.85   12.76
  -8   0   9  566.28   21.59
  -8   0  10   54.39    7.38
   8   0  10   48.25    4.15
   8   0 -10   56.10    7.97
   8   0  11  246.07   10.42
  -8   0  11  255.91   15.61
   8   0 -11  248.92   17.17
  -8   0  12  298.24   17.42
   8   0 -12  293.11   19.06
   8   0  12  282.63   12.15
  -8   0  13   51.19    7.95
   8   0  13   46.10    5.25
   8   0 -13   49.46    7.65
   8   0 -14   52.72    8.13
  -8   0  14   62.77    8.91
   8   0  14   50.75    5.77
   8   0  15  114.26    9.19
  -8   0  15  119.21   12.64
   8   0 -15  128.21   13.55
  -8   0  16   20.59    5.58
   8   0 -16   14.74    5.18
   8   0  16   13.49    3.29
  -8   0  17  110.42   12.85
   8   0 -17  124.39   13.93
   8   0  17  112.14    9.96
  -8   0  18   77.69   11.06
   8   0 -18   91.33   12.30
   8   0  18   85.18    9.02
   8   0  19   33.02    5.86
  -8   0  19   35.01    7.70
   8   0 -19   29.86    6.97
   8   0  20    5.88    2.61
  -8   0  20    7.95    4.08
  -8   0  21   32.76    7.93
  -8   0  22   10.88    4.76
  -8   0  23    3.44    2.87
  -8   0  24    9.68    4.48
  -9   0   0    2.55    2.38
  -9   0   1    1.40    1.34
  -9   0   1   -0.24    0.56
  -9   0   2    0.39    0.72
  -9   0   2    0.20    1.12
  -9   0   3    0.47    1.01
  -9   0   3   -2.06    1.85
  -9   0   4   -0.16    0.75
  -9   0   4    0.12    0.73
   9   0  -5   -3.45    3.41
  -9   0   5   -0.25    0.94
  -9   0   5    0.79    1.38
   9   0  -6    0.04    1.68
  -9   0   6   -1.06    1.14
  -9   0   6    1.60    1.68
  -9   0   7    0.01    0.66
  -9   0   7    2.91    2.14
   9   0  -7   -2.24    2.79
   9   0  -8    0.51    1.83
  -9   0   8    1.14    2.01
  -9   0   9    3.82    2.34
   9   0  -9    0.32    2.83
   9   0 -10    0.72    2.96
  -9   0  10    5.54    2.83
  -9   0  11    5.14    2.83
   9   0 -11    1.57    3.38
  -9   0  12    2.53    2.75
   9   0 -12    4.94    4.36
   9   0  12   -1.03    1.23
   9   0  13   -0.86    1.26
  -9   0  13    1.41    3.13
   9   0 -13    5.20    4.31
   9   0 -14    1.30    1.86
  -9   0  14    1.73    2.60
   9   0  14   -0.28    1.07
   9   0 -15    0.04    1.81
   9   0  15   -0.16    1.14
  -9   0  15    4.55    3.30
   9   0  16   -0.42    0.84
  -9   0  16    0.77    2.75
   9   0 -16    1.75    2.70
  -9   0  17    5.82    4.10
   9   0 -17   -1.01    1.58
   9   0 -18    0.56    2.12
  -9   0  18    6.16    4.01
   9   0 -19    3.07    3.75
  -9   0  19    2.71    2.55
   9   0 -20    1.87    2.57
  -9   0  20    1.73    2.39
  -9   0  21    4.73    3.49
  -9   0  22    0.57    2.74
  -9   0  23    3.83    3.55
  -9   0  24    2.63    2.92
 -10   0   0    3.24    2.67
 -10   0   1   53.86    6.41
 -10   0  -1   63.86    7.35
 -10   0   2   88.35    7.94
 -10   0  -2   96.22    9.46
 -10   0   2   91.88    5.59
 -10   0   3  114.82    7.08
 -10   0   3  111.48    8.87
 -10   0  -3  142.79   11.38
 -10   0  -4  177.50   13.09
 -10   0   4  139.03    9.88
 -10   0   4  141.23    8.59
 -10   0   5   99.75    8.27
 -10   0   5  104.90    7.84
  10   0  -5  103.63   10.42
 -10   0   6   27.92    4.49
 -10   0   6   27.02    4.28
  10   0  -6   21.50    4.23
 -10   0   7   61.11    6.42
  10   0  -7   61.01    8.67
 -10   0   7   62.38    6.83
  10   0  -8  102.74   11.09
 -10   0   8  100.83    9.32
 -10   0   9  104.98    9.71
  10   0  -9   96.91   11.25
 -10   0  10   48.22    7.21
  10   0 -10   44.79    7.92
 -10   0  11  116.77   11.23
  10   0 -11  124.88   13.29
 -10   0  12  122.92   11.99
  10   0 -12  129.10   13.66
 -10   0  13   90.72   10.61
  10   0 -13   98.18   12.26
  10   0 -14   61.52   10.19
 -10   0  14   61.99    9.02
  10   0 -15  109.79   13.48
 -10   0  15  114.63   12.56
  10   0 -16   41.90    8.53
 -10   0  16   45.89    8.47
  10   0 -17  117.87   14.62
 -10   0  17  112.88   13.18
  10   0 -18   82.52   12.14
 -10   0  18   81.18   11.64
  10   0 -19   38.62    8.58
 -10   0  19   36.62    8.00
 -10   0  20   28.82    7.48
  10   0 -20   29.39    7.68
 -10   0  21   69.37   11.62
 -10   0  22   21.36    6.98
 -10   0  23   39.53    9.23
 -11   0   0   -0.17    1.22
 -11   0   1   -0.93    0.94
 -11   0  -1    0.52    1.97
 -11   0  -2    8.22    3.82
 -11   0   2   -0.29    1.87
 -11   0   3   -0.73    0.91
 -11   0   3   -1.44    2.46
 -11   0   4   -0.16    0.62
 -11   0   4    1.81    1.48
 -11   0   5    0.88    1.14
 -11   0   5   -0.14    0.74
 -11   0   6   -0.81    1.09
 -11   0   6   -0.16    1.00
 -11   0   7    0.41    1.09
  11   0  -7   -1.40    2.54
 -11   0   7    0.71    0.89
  11   0  -8   -1.51    2.58
 -11   0   8    0.70    1.34
  11   0  -9   -0.22    2.12
 -11   0   9    2.02    2.01
 -11   0  10    2.17    1.70
  11   0 -10    0.26    1.79
  11   0 -11    4.55    4.18
 -11   0  11    1.75    1.72
 -11   0  12    1.23    1.99
  11   0 -12    3.11    3.21
 -11   0  13    1.34    1.98
  11   0 -13    2.55    3.27
  11   0 -14    3.41    3.56
 -11   0  14    2.95    2.72
 -11   0  15    1.44    2.27
  11   0 -15   -0.42    1.41
  11   0 -16    0.47    1.26
 -11   0  16    1.16    2.16
 -11   0  17    1.85    2.21
  11   0 -17   -0.84    1.79
  11   0 -18    2.29    3.35
 -11   0  18    1.10    2.38
  11   0 -19    0.25    3.21
 -11   0  19    0.43    1.10
  11   0 -20    2.96    2.85
 -11   0  20    1.89    2.79
 -11   0  21    0.37    2.45
  11   0 -21    3.17    3.48
 -11   0  22    0.67    2.51
 -11   0  23    3.71    3.48
 -12   0   0  235.48   15.20
 -12   0  -1  452.63   21.61
 -12   0   1  467.68   20.93
 -12   0   2  216.20   13.96
 -12   0  -2  222.33   15.16
 -12   0   3   15.86    2.54
 -12   0   3   11.23    2.50
 -12   0  -3   20.05    5.39
 -12   0  -4   67.25    9.12
  12   0  -4   60.31    8.69
 -12   0   4   61.48    5.70
 -12   0   4   63.96    7.47
 -12   0   5  108.54    8.29
 -12   0  -5  125.65   12.40
 -12   0   5  107.63    9.65
  12   0  -5  113.75   12.12
 -12   0   6   61.09    7.17
 -12   0   6   61.48    6.58
 -12   0  -6   95.77   11.36
  12   0  -6   64.28    9.38
 -12   0   7   10.57    2.85
 -12   0   7   11.83    3.02
  12   0  -7   12.52    3.98
  12   0  -8   84.49   11.07
 -12   0   8   74.94    8.04
  12   0  -9   22.48    5.90
 -12   0   9   27.30    5.20
  12   0 -10  130.32   14.41
 -12   0  10  137.45   11.87
 -12   0  11  106.01   10.81
  12   0 -11  112.12   13.64
  12   0 -12   96.98   13.03
 -12   0  12   91.25   10.48
  12   0 -13  225.80   19.88
 -12   0  13  210.00   16.33
 -12   0  14  121.30   12.82
  12   0 -14  135.67   15.88
 -12   0  15    3.66    2.64
  12   0 -15    0.33    1.99
 -12   0  16   56.21    9.50
  12   0 -16   62.39   11.03
 -12   0  17   91.78   12.10
  12   0 -17  109.02   14.70
  12   0 -18   34.31    8.47
 -12   0  18   32.11    7.43
 -12   0  19   33.45    7.99
  12   0 -19   42.11    9.63
  12   0 -20   21.86    7.15
 -12   0  20   21.36    6.45
  12   0 -21   -1.19    1.37
 -12   0  21    0.66    1.07
 -12   0  22    3.61    2.62
 -13   0   0    1.10    1.46
 -13   0   1    1.48    1.17
 -13   0  -1    5.04    2.85
 -13   0  -2   -1.16    1.50
 -13   0   2   -1.71    2.48
 -13   0   3    0.52    1.65
 -13   0  -3    1.05    1.01
  13   0  -4   -3.34    3.35
 -13   0   4    2.16    1.81
 -13   0  -4    4.42    3.69
 -13   0   5    0.86    1.08
  13   0  -5    0.63    1.50
 -13   0   6    0.91    0.94
  13   0  -6   -1.04    2.43
 -13   0   6    0.00    1.14
 -13   0   7    0.75    0.93
 -13   0   7   -0.77    1.30
  13   0  -8    0.67    1.84
 -13   0   8   -0.42    0.69
 -13   0   9   -0.65    1.27
  13   0  -9    0.37    2.62
 -13   0  10   -0.37    1.19
  13   0 -10    2.06    2.41
  13   0 -11    5.53    4.43
 -13   0  11    0.13    1.26
 -13   0  12   -1.18    1.70
  13   0 -12    1.32    2.44
 -13   0  13    1.62    2.01
  13   0 -13    1.58    3.01
 -13   0  14    3.53    2.58
  13   0 -14    9.85    5.33
 -13   0  15    0.91    1.40
  13   0 -15   -0.68    1.41
  13   0 -16    0.08    1.75
 -13   0  16    0.94    1.41
 -13   0  17    0.69    1.48
  13   0 -17   -0.35    2.05
  13   0 -18   -1.16    1.50
 -13   0  18    0.58    2.41
 -13   0  19   -0.49    1.05
  13   0 -19    3.34    3.30
 -13   0  20    1.21    1.16
 -13   0  21   -0.94    2.02
 -14   0   0   76.22    9.35
 -14   0   1   46.10    6.98
 -14   0  -1   44.12    7.12
 -14   0   2   29.17    5.36
 -14   0  -2   31.32    6.07
 -14   0  -3   56.34    8.47
 -14   0   3   52.46    7.54
  14   0  -3   46.18    8.62
 -14   0   4  100.52   10.21
 -14   0  -4  102.34   11.71
  14   0  -4   97.07   12.43
 -14   0   5   55.90    7.54
 -14   0  -5   62.86    9.51
  14   0  -5   50.87    9.24
 -14   0  -6  127.79   13.46
 -14   0   6  130.39   11.48
  14   0  -6  121.84   14.23
 -14   0   7   83.52    9.04
  14   0  -7   76.75   11.38
 -14   0  -7   96.51   12.04
 -14   0   8    9.72    3.26
  14   0  -8    9.87    3.93
 -14   0  -9   28.59    8.02
  14   0  -9   13.09    5.15
  14   0 -10   65.11   10.88
 -14   0 -10   98.75   12.96
  14   0 -11    6.86    3.78
  14   0 -12   73.08   12.08
  14   0 -13   40.99    9.63
  14   0 -14   24.37    7.93
  14   0 -15    4.48    3.56
  14   0 -16   33.42    8.83
 -14   0  16   28.15    6.59
  14   0 -17    4.31    3.30
 -14   0  17    2.09    1.48
 -14   0  18    1.34    1.05
 -14   0  19    3.51    3.14
 -14   0  20   11.68    4.87
 -14   0  21   18.28    6.48
 -15   0   0    7.46    3.34
 -15   0   1   -3.14    2.75
 -15   0  -1    0.04    1.18
 -15   0  -2    0.90    1.68
  15   0  -2   -4.13    3.59
 -15   0   2   -2.70    2.79
 -15   0  -3    0.58    1.97
 -15   0   3    2.11    2.09
  15   0  -3   -3.68    3.86
 -15   0   4    3.08    2.15
  15   0  -4   -0.35    1.80
 -15   0   5    0.47    1.31
  15   0  -5   -1.39    2.06
  15   0  -6    0.24    1.92
 -15   0  -6    9.67    4.50
  15   0  -7   -0.76    1.45
 -15   0  -7    7.04    4.02
  15   0  -8   -1.95    2.14
 -15   0  -8    5.74    4.30
  15   0  -9    1.51    1.54
 -15   0  -9   14.35    5.66
 -15   0 -10   11.86    5.70
  15   0 -10   -1.10    2.17
 -15   0 -11   13.00    5.67
  15   0 -11   -1.63    1.68
  15   0 -12    3.41    2.83
 -15   0 -12   16.20    6.55
 -15   0 -13   20.53    7.18
  15   0 -13    0.48    2.15
  15   0 -14    3.08    3.57
  15   0 -15    4.05    3.89
 -16   0   0    3.45    1.91
 -16   0   1    8.13    3.02
  16   0  -1    9.46    3.95
 -16   0  -1    5.05    2.64
 -16   0  -2   61.42    9.49
 -16   0   2   66.36    9.12
  16   0  -2   61.15   10.39
  16   0  -3   56.41   10.11
 -16   0  -3   56.97    9.24
 -16   0   3   57.05    8.50
  16   0  -4   16.52    5.53
 -16   0  -4   22.95    6.07
  16   0  -5   -0.61    1.96
 -16   0  -5    5.39    3.45
 -16   0  -6   13.33    4.89
  16   0  -6    5.93    3.69
  16   0  -7   68.23   11.70
 -16   0  -7   77.79   11.47
 -16   0  -8   18.77    6.24
  16   0  -8    8.81    4.72
 -16   0  -9   22.48    6.82
  16   0  -9   17.19    6.29
  16   0 -10   13.96    5.33
 -16   0 -10   15.11    5.64
  16   0 -11   14.49    6.00
 -16   0 -11   24.59    7.50
  16   0 -12    7.24    4.46
 -16   0 -12   24.57    7.38
  16   0 -13   86.75   14.23
 -16   0 -13  104.34   14.66
 -16   0 -14   20.94    7.90
  17   0   0   -2.04    2.63
 -17   0   0   -1.36    1.95
 -17   0   1   -1.72    2.18
  17   0  -1   -1.96    3.27
 -17   0  -1   -1.47    2.38
  17   0  -2    0.39    2.70
 -17   0  -2    0.14    0.88
  17   0  -3   -0.54    2.70
 -17   0  -3   -0.19    0.89
 -17   0  -4   -0.24    1.36
  17   0  -4   -3.14    3.23
  17   0  -5   -2.35    2.74
 -17   0  -5    0.25    1.25
  17   0  -6   -2.87    2.56
 -17   0  -6    0.70    2.13
  17   0  -7    1.71    2.25
 -17   0  -7    1.72    2.37
 -17   0  -8    4.09    3.77
  17   0  -8    2.07    2.57
  17   0  -9    1.45    2.00
 -17   0  -9    7.92    4.98
 -17   0 -10   11.92    5.63
  17   0 -10    3.96    4.18
 -17   0 -11    8.34    5.29
  18   0   0    9.49    4.27
  18   0   1   26.27    7.25
  18   0  -1   28.96    7.75
 -18   0  -2   16.59    5.18
  18   0  -2   16.96    6.12
 -18   0  -3   45.23    8.69
  18   0  -3   55.89   10.69
  18   0  -4   62.07   11.51
 -18   0  -4   53.92    9.89
 -18   0  -5   51.48    9.67
  18   0  -5   61.98   11.65
  18   0  -6   -1.15    2.03
 -18   0  -6    1.53    2.44
 -18   0  -7    8.57    4.11
 -18   0  -8    5.40    3.48
 -18   0  -9   31.13    7.95
  19   0   1   -3.29    3.22
  19   0   2   -2.54    3.22
 -19   0  -5   -0.99    1.77
 -19   0  -6   -0.40    1.78
   0   1  -2    1.01    0.53
   0  -1   3  653.72   12.97
   0  -1  -3  666.18   13.35
   0  -1  -3  675.46    8.20
   0   1  -3  646.84   12.69
   0  -1  -4    0.61    0.89
   0  -1  -4    0.86    0.67
   0   1   4   -0.78    0.70
   0   1  -4    1.74    1.20
   0   1   4   -1.29    1.34
   0  -1  -5 1441.06   16.36
   0   1   5 1377.78   22.36
   0   1   5 1363.27   15.96
   0   1  -5 1361.11   20.88
   0  -1  -5 1396.76   22.44
   0   1   6    1.46    1.51
   0   1   6    0.62    0.54
   0  -1  -6    6.54    2.50
   0  -1  -6    2.27    1.15
   0   1  -6    2.84    2.01
   0   1   7  764.84   19.22
   0   1   7  751.61   14.66
   0   1  -7  766.86   17.26
   0   1   8    4.59    2.60
   0   1   8    0.62    0.84
   0   1  -8    1.07    1.90
   0   1   9  819.88   17.76
   0   1  -9  816.85   19.43
   0  -1  -9  795.31   10.29
   0   1   9  838.70   22.40
   0   1  10    5.81    3.01
   0   1 -10    1.61    1.85
   0   1  10    1.95    1.15
   0  -1 -10    1.03    0.74
   0   1  11   27.38    4.82
   0   1  11   25.40    3.58
   0  -1 -11   22.22    2.05
   0   1 -11   26.14    3.66
   0   1  12    1.07    0.92
   0   1 -12   -0.59    1.37
   0  -1 -12   -0.23    0.45
   0  -1 -13   67.17    4.08
   0   1 -13   69.62    6.32
   0   1  13   68.15    7.84
   0   1 -14   -0.91    1.47
   0  -1 -14    0.59    0.51
   0   1  15   42.42    6.56
   0   1 -15   39.68    5.20
   0   1  16   -0.23    1.61
   0   1 -16   -0.94    1.31
   0   1 -17   10.79    3.08
   0   1  17    8.54    3.24
   0   1 -18   -0.29    0.98
   0   1  18    0.48    1.29
   0   1 -19    7.73    2.25
   0   1  19   11.03    3.85
   0   1  20   -0.48    1.82
   0   1 -20   -0.10    1.02
   0   1  21   54.11    9.04
   0   1 -21   50.37    6.84
   0   1  22    0.42    1.98
   0  -1  23    7.04    4.61
   0   1  23    1.11    1.91
   0   1  24    0.04    1.98
   0  -1  24    8.28    4.83
   0  -1  25    6.21    4.32
   0   1  25   -0.29    2.28
   0   1  26   -0.31    2.04
   0  -1  26    1.37    2.37
   0   1  27   -1.35    1.35
   0  -1  27    6.21    4.27
  -1   1  -2   22.10    2.16
  -1   1  -2   41.71    3.12
   1  -1   3 1039.56   16.91
  -1   1   3 1109.37   17.61
  -1   1  -3 1054.97   16.68
   1  -1  -3 1064.80   17.47
  -1  -1  -3 1049.16   16.21
   1  -1   4 1304.01   20.08
  -1  -1  -4 1344.97   19.68
   1  -1  -4 1363.55   21.26
   1  -1  -4 1363.98   17.25
   1   1   4 1362.85   19.68
  -1   1  -4 1330.99   20.01
  -1   1   4 1366.63   21.27
   1  -1  -5  432.42   10.51
   1   1   5  419.01    7.73
  -1  -1  -5  439.63   12.26
   1   1   5  429.40   12.05
  -1   1  -5  431.09   12.00
   1  -1   5  422.50   12.01
   1  -1  -5  443.42   13.05
  -1   1   5  438.66   12.86
   1   1   6  806.49   17.81
  -1   1   6  798.75   15.54
  -1  -1   6  806.75   18.84
   1   1   6  774.18   12.35
  -1   1  -6  805.96   17.21
   1  -1   6  803.72   17.11
   1  -1  -6  814.78   15.57
  -1  -1  -6  815.07   17.74
   1  -1  -6  811.15   18.85
  -1   1   6  815.41   18.97
   1  -1  -7  434.68   12.32
  -1   1   7  437.83   12.36
   1   1   7  445.05   10.45
   1   1   7  437.00   14.13
  -1   1  -7  429.58   13.05
  -1  -1   7  451.28   14.92
  -1   1   7  449.62   15.03
   1  -1   7  445.78   13.34
  -1   1   8  293.09   10.70
  -1   1   8  300.31   13.07
   1   1  -8  299.85   11.53
   1  -1   8  293.64   11.34
  -1  -1   8  300.69   12.85
  -1   1  -8  297.61   11.50
   1   1   8  290.84    9.37
   1  -1  -8  293.93   10.98
   1   1   8  298.16   12.52
  -1   1   9  448.60   14.08
   1   1   9  453.77   16.13
  -1   1  -9  454.53   14.69
   1  -1   9  458.01   14.66
  -1   1   9  465.46   17.09
   1   1   9  446.90   12.63
   1   1  -9  449.27   14.90
   1  -1  -9  456.24   14.46
   1   1 -10  373.81   14.03
   1  -1  10  380.70   13.95
   1   1  10  385.78   12.62
  -1   1  10  377.36   16.39
  -1   1  10  389.56   13.79
   1   1  10  376.30   15.65
  -1   1 -10  390.95   14.01
  -1   1 -11  222.18   11.03
   1   1  11  225.31   12.65
   1  -1 -11  209.07    7.13
  -1   1  11  223.44   13.35
   1   1  11  214.12    9.96
   1   1 -11  217.94   10.98
  -1   1  11  212.59   10.78
  -1   1  12  601.57   22.25
   1  -1 -12  586.27   12.47
   1   1  12  580.44   21.43
  -1   1 -12  603.08   18.75
   1   1 -12  595.16   18.80
   1   1  12  600.31   17.64
   1   1  13  281.40   15.85
  -1   1 -13  286.06   13.32
   1   1 -13  277.98   13.14
  -1   1  13  297.97   16.41
   1  -1 -13  274.00    9.00
   1   1  14   60.53    7.82
  -1   1  14   73.29    8.63
   1  -1 -14   61.39    4.45
   1   1 -14   62.27    6.44
  -1   1 -14   66.62    6.56
  -1   1  15   12.65    4.47
  -1   1 -15    8.42    2.54
   1  -1 -15    7.87    1.63
   1   1 -15    7.11    2.48
   1   1  15   11.47    3.99
   1   1 -16  124.56    9.69
   1   1  16  126.72   11.76
  -1   1  16  126.07   12.03
  -1   1 -16  125.07    9.57
   1  -1 -16  127.40    6.72
   1   1 -17   71.19    7.49
   1   1  17   73.99    9.46
  -1   1  17   80.24    9.94
   1  -1 -17   73.27    5.32
  -1   1 -17   76.91    7.61
  -1   1 -18   17.26    3.72
   1  -1 -18   18.05    2.72
  -1   1  18   17.75    5.60
   1   1 -18   17.75    3.71
   1   1  18   23.00    5.53
  -1   1 -19   75.21    7.84
  -1   1  19   78.72   10.61
   1   1 -19   74.23    7.89
   1   1  19   81.20   10.57
   1   1 -20   60.91    7.44
   1   1  20   59.50    9.24
  -1   1  20   64.02    9.72
  -1   1  21    7.67    4.03
   1   1  21   10.32    4.27
   1   1 -21    6.82    2.74
  -1   1  22   27.54    6.90
   1   1 -22   26.36    4.91
   1   1  22   30.66    7.00
  -1   1  23   36.78    8.16
   1   1  23   40.13    8.29
   1  -1  23   41.74    8.68
  -1   1  24    4.36    3.08
  -1  -1  24    4.62    4.32
   1  -1  24    5.52    4.09
   1   1  24    2.20    2.46
  -1   1  25   49.33   10.01
  -1  -1  25   51.42   10.23
   1  -1  25   49.19    9.78
   1   1  25   41.78    8.99
  -1   1  26   59.72   11.21
   1  -1  26   53.84   10.26
  -1  -1  26   54.60   10.72
   1   1  26   55.51   10.58
   1  -1  27    3.04    3.47
  -1  -1  27    8.35    4.84
  -1   1  27    4.16    3.40
   1   1  27    3.60    2.63
   1   1  28   18.17    6.50
   1  -1  28   20.10    6.67
  -2   1   0   -1.07    1.02
  -2  -1   0    0.13    0.39
   2  -1   0    0.43    0.55
   2  -1   1   19.86    2.50
  -2  -1   1   16.77    2.00
   2  -1  -1   16.26    2.00
  -2   1   1   18.89    2.27
   2   1  -1   18.52    1.89
  -2   1  -1   20.39    2.56
   2   1  -2   80.23    4.72
  -2   1  -2  108.68    5.86
   2  -1  -2   80.71    4.47
   2  -1  -2   79.77    4.63
  -2  -1   2   77.91    4.63
  -2   1   2   84.35    4.56
  -2   1   3  614.31   13.56
   2   1  -3  613.61   13.91
   2  -1  -3  596.39   13.46
  -2  -1  -3  608.18   11.70
   2  -1  -3  591.97   13.36
  -2  -1   3  596.97   13.94
   2  -1   3  602.49   13.82
   2   1  -4   72.77    5.13
  -2  -1  -4   65.80    4.26
  -2   1   4   69.44    4.91
  -2  -1   4   68.02    5.07
   2  -1  -4   74.91    5.23
   2  -1   4   62.59    4.76
   2  -1   5   11.80    2.28
  -2  -1   5   12.03    2.36
  -2   1   5   16.80    2.99
  -2  -1  -5   14.93    2.42
   2   1   5    9.50    1.39
   2  -1  -5   15.08    2.30
   2  -1  -5   22.17    3.44
   2   1   6  462.30   13.10
  -2   1   6  455.91   14.75
  -2  -1  -6  462.94   13.04
   2  -1  -6  464.55   13.22
  -2  -1   6  465.11   14.92
   2  -1   6  457.43   13.69
  -2  -1   7   54.11    5.39
   2  -1   7   48.87    4.60
   2  -1  -7   53.39    4.73
   2   1   7   51.72    4.72
  -2   1   7   54.46    5.56
  -2   1   8   85.62    6.28
   2   1   8   91.94    6.62
   2  -1  -8   89.80    6.60
   2  -1   8   91.84    6.57
   2   1   8   86.19    4.15
  -2   1   8   93.64    7.64
   2  -1   9   54.15    5.17
  -2   1   9   57.16    6.49
   2   1   9   50.91    5.36
  -2   1   9   55.83    5.20
  -2   1  -9   52.19    5.02
   2   1   9   53.36    3.29
   2  -1  -9   58.29    5.47
   2  -1  10   17.15    2.97
   2  -1 -10   22.22    3.86
   2   1  10   18.32    3.44
  -2   1  10   22.22    4.62
  -2   1 -10   14.79    2.79
  -2   1  10   19.06    3.20
   2   1  10   17.24    1.96
   2  -1  11   16.50    3.10
  -2   1 -11   16.41    3.14
   2  -1 -11   15.59    3.37
  -2   1  11   19.60    4.78
   2   1  11   13.84    1.91
   2   1  11   18.23    3.99
   2   1  12  317.45    9.12
  -2   1  12  314.56   16.60
   2   1  12  313.04   12.49
   2  -1 -12  324.71   14.91
   2   1  12  330.34   15.66
   2   1  13   24.83    3.72
  -2   1  13   29.92    6.22
   2   1  13   30.88    5.54
   2   1 -13   27.14    4.27
   2   1 -14   77.00    7.39
  -2   1  14   86.18    9.42
   2   1  14   79.95    8.29
   2  -1 -14   80.38    5.52
   2  -1 -15   20.57    2.97
   2   1  15   24.89    5.12
  -2   1  15   34.32    6.51
   2   1 -15   24.50    4.30
   2   1 -16   18.03    3.87
   2   1  16   18.31    4.73
  -2   1  16   20.29    5.24
   2  -1 -16   18.85    2.83
   2  -1 -17    3.13    1.23
   2   1  17    4.41    2.84
   2   1 -17    2.31    1.64
  -2   1  17    9.39    3.97
   2   1 -18   21.82    4.10
  -2   1  18   26.78    6.33
   2  -1 -18   23.85    3.29
   2   1  18   23.28    5.37
   2   1  19    3.59    2.96
  -2   1  19    6.06    3.82
   2   1 -19    1.42    1.14
  -2   1  20   21.34    5.84
   2   1  20   21.31    5.48
   2   1 -20   19.51    4.17
   2   1 -21    5.72    2.40
   2   1  21    6.85    3.48
  -2   1  21    8.87    3.73
  -2   1  22   15.43    5.20
   2   1  22    7.86    3.44
   2   1 -22    8.80    2.94
  -2   1  23    3.06    3.05
   2   1  23    0.91    1.59
   2  -1  23    7.84    4.30
   2   1  24    0.67    2.00
  -2   1  24   -0.67    1.80
  -2  -1  24    4.80    3.92
   2  -1  24    8.30    4.45
  -2  -1  25    5.14    3.89
   2   1  25    0.83    1.71
   2  -1  25    3.01    3.20
  -2   1  25   -2.67    2.81
  -2  -1  26   -0.67    1.73
  -2   1  26   -2.79    2.88
   2  -1  26    3.12    3.40
   2   1  26   -0.60    2.40
  -2   1  27    2.49    2.06
   2   1  27   -1.14    2.11
   2  -1  27    2.46    3.05
  -2  -1  27    3.12    2.47
   2   1  28    2.01    1.45
   2  -1  28    1.40    2.78
   3   1   0  431.52   10.25
   3  -1   0  428.33   11.74
  -3   1   0  425.02   11.79
   3  -1  -1  441.20   10.21
  -3   1   1  448.97   11.72
   3  -1   1  481.12   12.68
   3   1  -1  441.78   11.34
   3  -1  -1  445.45   12.06
  -3   1  -1  459.40   12.29
  -3  -1   1  448.35   11.43
  -3   1  -2  801.12   16.59
   3  -1  -2  774.79   14.56
   3  -1  -2  776.26   15.97
  -3  -1   2  789.87   16.21
   3   1  -2  762.07   16.06
  -3   1   2  781.37   15.82
  -3  -1   3 1939.62   27.18
   3  -1  -3 1936.58   25.88
  -3   1   3 1997.03   25.52
   3   1  -3 1946.52   27.25
  -3   1   3 1958.06   25.81
   3  -1  -3 1937.55   25.06
  -3   1   4  413.74   12.58
  -3  -1  -4  393.97   10.00
   3  -1  -4  400.05   12.25
  -3  -1   4  400.27   13.07
   3   1  -4  392.46   13.14
   3  -1  -4  411.23   12.25
   3  -1  -5   46.31    4.68
  -3  -1  -5   40.40    3.55
  -3   1   5   44.15    4.29
   3  -1  -5   37.18    3.81
   3   1  -5   36.25    2.07
   3   1  -5   43.58    4.67
  -3  -1   5   45.51    4.60
  -3  -1   6  613.34   17.81
   3   1   6  593.85   14.33
   3  -1   6  591.27   16.56
  -3   1   6  587.84   17.13
   3  -1  -6  588.76   16.69
  -3  -1  -6  593.01   14.23
   3   1  -6  602.92   18.09
   3   1   7  219.11    9.40
   3   1  -7  225.15   11.48
   3  -1  -7  212.06   10.33
   3  -1   7  213.39   10.22
  -3   1   7  213.96   11.03
   3   1  -8  105.63    8.47
   3  -1  -8  104.26    7.68
   3   1   8   97.44    6.71
  -3   1   8   99.04    8.02
   3  -1   8  103.24    7.27
   3  -1  -9  339.47   14.35
   3  -1   9  350.30   13.73
   3   1   9  346.84   13.38
  -3   1   9  350.51   15.66
   3   1  10  111.88    8.08
   3  -1 -10  117.29    8.90
   3   1  10  112.96    5.84
  -3   1  10  122.80    9.69
   3   1  11   40.55    5.22
   3   1  11   38.50    3.49
  -3   1  11   43.91    6.50
   3  -1 -11   41.98    5.36
  -3   1  12  192.02   13.33
   3   1  12  183.77    7.77
   3  -1 -12  193.64   12.18
   3   1  12  192.78   11.77
   3   1  13  251.57    9.42
   3   1  13  262.36   14.16
   3  -1 -13  251.36   14.40
  -3   1  13  261.79   15.91
   3   1  14   44.47    6.53
   3   1  14   39.76    3.81
   3  -1 -14   42.68    6.17
  -3   1  14   54.20    7.85
  -3   1  15   17.40    5.09
   3   1  15   16.81    4.27
   3   1  15   14.43    2.41
  -3   1  16   36.20    6.97
   3   1  16   32.81    5.64
   3   1 -16   34.39    5.50
  -3   1  17   90.08   10.80
   3   1  17   84.70    9.66
   3  -1 -17   92.93    7.09
   3   1 -17   92.92    9.13
  -3   1  18   10.04    4.18
   3  -1 -18    9.59    2.55
   3   1  18   10.85    4.06
   3   1 -18    7.57    3.23
   3   1  19   68.24    9.05
   3  -1 -19   71.21    6.20
  -3   1  19   72.36   10.19
   3   1 -19   71.72    8.14
  -3   1  20   37.08    7.58
   3   1  20   31.08    6.58
   3   1 -20   29.87    5.48
   3   1  21    2.49    2.22
   3   1 -21    2.89    1.87
  -3   1  21    3.90    3.19
   3  -1  22   22.75    6.37
   3   1 -22   20.81    4.70
  -3   1  22   25.32    6.71
   3   1  22   21.39    5.91
   3   1  23   70.55   10.54
  -3   1  23   70.65   11.42
  -3  -1  23   76.39   11.98
   3  -1  23   76.19   11.10
  -3  -1  24   24.31    7.37
   3  -1  24   21.28    6.30
   3   1  24   14.08    4.94
  -3   1  24   14.56    5.68
   3   1  25   26.02    6.85
  -3   1  25   23.09    6.86
   3  -1  25   25.55    7.15
  -3  -1  25   28.19    7.85
   3  -1  26   10.21    4.94
   3   1  26    5.99    3.64
  -3   1  26    8.42    4.69
  -3  -1  26    7.80    4.86
   3  -1  27   15.00    5.60
   3   1  27   13.81    5.20
   3   1  28   16.86    6.06
   3  -1  28   16.41    6.07
   4   1   0  121.99    6.47
   4  -1   0  134.20    7.32
  -4   1   0  125.36    7.01
  -4   1  -1   14.90    3.09
   4   1  -1   11.66    2.06
   4  -1  -1   16.44    2.72
  -4   1   1   10.43    1.41
   4  -1  -1   12.78    1.76
  -4   1  -2   57.92    5.59
  -4  -1   2   50.98    2.99
   4  -1  -2   44.28    3.73
   4  -1  -2   46.66    4.25
   4   1  -2   46.56    4.45
  -4   1   2   42.68    4.23
  -4   1   3   24.89    2.87
  -4   1   3   22.83    3.08
   4  -1  -3   26.70    3.12
  -4  -1   3   23.04    1.68
   4  -1  -3   22.69    2.79
   4   1  -3   26.42    3.54
  -4  -1   3   22.47    3.20
  -4   1   4  208.12    9.19
   4  -1  -4  212.51    9.32
   4  -1  -4  201.46    9.05
   4   1  -4  194.20    5.08
  -4   1   4  211.38    9.19
   4   1  -4  212.21   10.21
  -4  -1   4  212.64   10.28
  -4  -1   4  201.58    5.14
  -4  -1  -4  213.38    6.85
   4  -1  -5   52.13    4.76
  -4  -1  -5   54.47    3.84
   4   1  -5   56.84    5.78
   4   1  -5   49.15    2.68
  -4  -1   5   53.08    5.37
  -4   1   5   55.03    5.07
  -4   1   6   76.60    6.38
   4  -1  -6   68.60    6.15
  -4  -1  -6   72.90    4.86
   4  -1  -6   73.43    5.75
   4   1  -6   71.71    6.69
   4   1  -6   68.36    3.48
  -4   1   7   24.55    3.86
   4  -1  -7   22.20    3.48
   4   1   7   22.72    2.93
   4   1  -7   23.44    2.20
   4  -1  -7   22.92    3.19
   4   1  -7   23.80    4.06
   4   1  -8  117.03    9.16
  -4   1   8  108.53    8.42
   4  -1  -8  106.47    7.50
   4  -1  -8  107.02    8.36
   4   1   8  104.07    6.69
  -4   1   9   11.67    4.06
   4   1  -9    7.66    3.29
   4  -1  -9    4.56    2.08
   4   1   9    2.95    1.16
   4   1  10  347.72   14.03
   4  -1 -10  368.86   16.35
   4   1 -10  350.45   17.30
  -4   1  10  341.24   16.49
   4   1  11   53.18    4.69
  -4   1  11   58.11    7.29
   4   1  11   53.58    5.72
   4  -1 -11   56.43    6.83
   4   1  12   31.93    3.62
  -4   1  12   38.38    6.16
   4   1  12   31.21    4.55
   4  -1 -12   28.51    4.79
   4   1  13   25.62    4.50
  -4   1  13   34.45    6.11
   4   1  13   25.86    3.35
   4  -1 -13   28.40    5.05
   4  -1 -14   26.73    5.49
   4   1  14   26.63    4.72
   4   1  14   24.16    3.25
  -4   1  14   26.71    5.96
   4   1  15    3.04    1.10
   4   1  15    2.95    2.03
   4  -1 -15    6.30    3.30
  -4   1  15    9.19    4.09
  -4   1  16  152.56   13.53
   4  -1 -16  151.97   12.55
   4   1  16  146.45   11.89
  -4   1  17   16.99    5.64
   4   1  17   15.66    4.41
  -4   1  18   31.59    6.98
   4   1  18   28.45    5.75
   4   1 -18   32.51    5.71
  -4   1  19   26.10    6.50
   4  -1 -19   22.43    3.92
   4   1 -19   23.87    4.90
   4   1  19   20.36    5.18
   4   1 -20    0.99    0.83
   4   1  20    1.33    1.40
  -4   1  20    4.43    3.43
  -4   1  21    4.57    3.01
   4   1 -21    3.93    2.07
   4   1  21    3.89    2.35
   4  -1  21   11.13    4.49
   4   1  22    3.25    2.32
   4   1 -22    5.20    2.28
   4  -1  22    7.40    3.99
  -4   1  22    5.85    3.04
  -4   1  23    6.02    4.36
   4  -1  23    5.07    3.52
   4   1  23    3.04    1.57
  -4   1  24   20.04    6.16
   4   1  24   23.03    6.28
   4  -1  24   27.38    6.80
  -4  -1  24   26.86    7.44
  -4   1  25    1.04    1.69
   4   1  25    3.29    2.64
   4  -1  25    6.22    3.73
  -4  -1  25    6.81    4.33
  -4   1  26    1.09    2.01
   4  -1  26    3.65    3.28
   4   1  26    1.68    1.69
  -4  -1  26   -0.17    1.64
   4  -1  27    5.22    3.52
   4   1  27    0.98    1.96
   4  -1  28    3.99    2.69
   4   1  28    0.76    2.00
   5  -1   0   20.96    2.15
  -5   1   0   22.72    3.34
   5  -1   0   33.83    4.50
   5  -1  -1   26.44    2.69
  -5   1  -1   29.24    4.16
   5  -1  -1   30.02    3.97
   5   1  -1   22.52    3.02
  -5   1   1   23.15    2.89
  -5  -1   2   22.42    2.55
   5   1  -2   18.22    3.05
   5  -1  -2   20.39    2.65
  -5   1   2   17.65    2.78
  -5   1  -2   33.54    4.90
   5  -1  -2   22.07    3.30
   5   1  -3  140.17    8.75
   5  -1  -3  137.95    7.98
   5  -1  -3  142.91    7.25
  -5   1  -3  164.55    9.89
  -5   1   3  137.70    8.05
  -5   1   3  147.01    7.35
  -5  -1   3  138.92    5.38
  -5   1   4  932.34   20.94
  -5  -1   4  923.22   13.44
   5   1  -4  964.01   23.38
  -5  -1  -4  981.37   13.84
   5  -1  -4  964.70   21.31
  -5   1   4  949.84   20.46
   5   1  -5  187.27    5.95
  -5   1   5  208.79   10.11
   5   1  -5  196.35   11.19
   5  -1  -5  196.33    9.73
  -5  -1  -5  192.79    6.75
  -5   1   5  213.94   10.22
   5   1  -6  575.43   10.86
   5  -1  -6  590.98   17.31
  -5   1   6  574.78   17.77
   5  -1  -6  575.18   19.66
   5   1  -6  573.45   19.77
   5   1  -7    7.88    1.14
   5  -1  -7    8.19    2.30
  -5   1   7   10.84    2.92
   5  -1  -7    9.33    2.43
   5   1  -7    8.00    2.68
   5   1  -8   13.19    1.96
  -5   1   8   13.51    2.99
   5   1  -8   14.73    3.90
   5  -1  -8   13.81    3.17
   5   1   8   11.81    2.12
  -5   1   9   19.57    4.22
   5   1  -9   15.41    2.14
   5  -1  -9   13.74    3.34
   5   1  -9   18.99    4.20
   5   1   9   12.67    2.17
   5  -1 -10  271.32   14.93
   5   1 -10  267.96   15.65
  -5   1  10  260.36   14.73
   5   1 -10  260.64    9.57
   5   1  10  267.13   11.95
   5   1 -11  115.98   10.63
   5  -1 -11  119.49   10.19
  -5   1  11  128.27   10.79
   5   1  11  116.97    8.32
   5   1  12   71.18    6.79
   5  -1 -12   78.86    8.76
  -5   1  12   80.05    8.95
   5   1 -12   72.50    8.87
   5   1  13   50.08    6.12
   5   1  13   47.99    5.07
  -5   1  13   54.62    7.76
   5  -1 -13   55.17    7.33
   5  -1 -14  107.21   10.49
   5   1  14  104.00    9.13
  -5   1  14  111.26   11.07
   5   1  14  101.25    7.38
   5  -1 -15  171.73   13.53
   5   1  15  151.56   11.68
  -5   1  15  171.65   14.18
   5   1  15  147.66    8.98
   5  -1 -16  242.77   16.97
   5   1  16  235.80   15.05
  -5   1  16  240.23   17.58
  -5   1  17   31.12    7.03
   5   1  17   27.31    5.30
   5  -1 -17   23.51    5.35
  -5   1  18   26.90    6.55
   5   1  18   23.16    5.12
  -5   1  19   24.47    6.06
   5   1  19   24.92    5.43
  -5   1  20   -0.58    1.77
   5   1  20   -0.96    1.77
   5   1 -20    2.37    2.52
   5   1 -21   22.43    5.10
   5   1  21   18.17    5.04
  -5   1  21   25.51    6.84
   5  -1  21   26.71    6.09
   5   1 -22   12.93    3.91
   5   1  22   11.09    4.08
   5  -1  22   18.04    5.26
  -5   1  22   13.04    5.17
   5   1  23    0.11    1.66
   5  -1  23    5.53    3.49
  -5   1  23    2.71    2.88
  -5  -1  23    8.64    4.81
  -5   1  24    4.82    3.18
  -5  -1  24    6.51    4.77
   5  -1  24    5.34    3.38
   5   1  24    1.61    2.06
  -5   1  25   38.65    9.35
  -5  -1  25   36.19    8.87
   5   1  25   31.43    7.40
   5  -1  25   36.87    7.96
   5   1  26   33.25    7.81
  -5   1  26   33.11    8.82
   5  -1  26   38.56    8.43
  -5  -1  26   41.45    9.68
   5  -1  27   25.48    7.28
   5   1  27   19.59    6.01
   5   1  28    2.13    2.54
   5  -1  28    7.12    4.25
  -6   1   0    1.81    1.25
   6  -1   0    2.53    0.93
  -6   1   1    6.42    1.44
   6  -1  -1   10.55    1.87
  -6  -1   1   20.15    3.71
  -6   1  -1   15.50    3.80
   6  -1   1    8.24    1.28
   6   1  -1    6.67    1.46
   6  -1  -1   12.84    2.99
  -6  -1   2    4.14    1.66
   6  -1  -2    2.93    1.89
   6   1  -2    0.42    1.61
  -6   1  -3   69.96    7.33
  -6   1   3   47.91    4.24
  -6  -1   3   47.52    3.66
  -6   1   3   46.44    4.96
  -6  -1  -3   46.72    2.62
   6   1  -3   43.39    5.34
   6  -1  -3   50.47    5.10
  -6  -1  -4   61.94    3.20
   6   1  -4   59.90    6.37
  -6   1   4   64.25    5.87
   6  -1  -4   63.69    5.72
  -6  -1   4   61.75    4.00
  -6   1   4   63.22    5.43
  -6   1   5  352.31   13.54
  -6   1   5  342.92   13.55
   6   1  -5  343.59   15.60
   6  -1  -5  347.73   13.62
  -6  -1   5  337.16    9.31
  -6   1   6  246.68   11.97
   6   1  -6  242.73    7.77
   6   1  -6  256.42   13.99
   6  -1  -6  243.86   11.62
  -6   1   7  156.48   10.18
   6   1  -7  179.97   12.03
   6   1  -7  165.57    6.63
   6  -1  -7  161.97   11.21
   6  -1  -8   15.50    3.53
  -6   1   8   21.76    4.15
   6   1  -8   23.83    4.61
   6   1  -8   18.41    2.23
  -6   1   9   31.31    5.16
   6   1  -9   24.99    2.76
   6  -1  -9   24.51    4.65
   6   1  -9   28.41    5.58
   6   1 -10    5.51    3.17
   6  -1 -10    1.83    1.82
   6   1 -10    2.98    1.04
   6   1  10    0.72    1.23
  -6   1  10    3.20    2.49
   6   1 -11   43.85    7.01
   6   1  11   36.18    4.52
   6  -1 -11   44.83    6.73
   6   1 -11   41.05    3.97
  -6   1  11   42.40    6.33
  -6   1  12   48.67    7.16
   6  -1 -12   43.19    6.69
   6   1 -12   41.10    4.16
   6   1 -12   42.76    7.06
   6   1  12   40.20    5.04
   6   1  13   20.66    3.78
   6   1 -13   16.95    2.85
   6  -1 -13   24.30    5.60
   6   1 -13   22.31    5.35
  -6   1  13   23.05    5.57
   6   1  14  145.39   10.65
   6   1 -14  146.88    8.82
   6   1 -14  154.44   13.86
   6  -1 -14  164.45   13.55
  -6   1  14  166.01   13.88
  -6   1  15   61.16    8.76
   6  -1 -15   57.50    8.41
   6   1  15   53.48    6.77
  -6   1  16   16.23    5.02
   6   1  16   13.88    3.57
   6  -1 -16   17.19    4.85
   6  -1 -17   13.66    4.16
  -6   1  17   11.14    4.31
   6   1  17    7.55    2.52
   6   1  18    5.54    2.46
   6  -1 -18    8.73    3.53
  -6   1  18    9.87    3.71
  -6   1  19   19.92    5.80
   6  -1  19   24.23    5.49
   6   1  19   20.22    4.79
  -6   1  20   58.77    9.89
   6  -1  20   57.48    8.43
   6   1  20   51.89    8.07
   6  -1  21   17.55    5.15
   6   1  21   20.91    5.00
  -6   1  21   15.29    5.25
   6   1 -21   19.97    5.26
  -6   1  22    5.09    3.24
   6  -1  22    5.84    3.32
   6   1 -22    7.32    3.35
  -6  -1  22    8.22    4.63
   6   1  22    3.61    2.01
  -6  -1  23   19.85    6.81
  -6   1  23   16.71    5.92
   6   1  23   14.33    4.58
   6  -1  23   19.14    5.41
  -6   1  24    8.68    4.35
   6  -1  24    6.28    3.53
  -6  -1  24    9.07    4.98
   6   1  24    2.42    1.06
  -6   1  25   12.05    5.27
   6   1  25    6.95    3.32
   6  -1  25    7.22    3.59
  -6  -1  25    9.33    5.11
   6   1  26   15.02    4.92
   6  -1  26   13.57    4.88
  -7   1   0    1.80    1.39
  -7  -1   1   29.86    3.95
  -7   1   1   17.79    3.16
  -7   1  -1   28.41    4.60
   7  -1   1   18.28    1.87
  -7   1  -2  490.41   18.03
  -7   1   2  517.08   17.57
   7   1  -2  520.68   18.70
  -7  -1   2  480.07   13.74
   7  -1   2  476.94    8.27
  -7  -1  -3  266.47    5.61
   7   1  -3  282.15   14.26
  -7   1  -3  289.14   14.35
   7  -1   3  259.44    5.70
  -7  -1   3  272.25   10.01
  -7   1   3  274.10   10.79
  -7   1   3  286.22   13.04
  -7   1   4  141.65    8.39
   7   1  -4  144.30   10.25
  -7   1   4  140.80    9.15
  -7   1  -4  189.02   12.06
  -7  -1   4  137.28    6.80
  -7  -1  -4  135.84    4.07
  -7   1   5  219.61   11.05
   7   1  -5  228.62   13.39
  -7   1   5  225.83   11.60
  -7  -1   5  217.62    8.47
  -7   1   6  175.79   10.40
   7   1  -6  186.08   12.50
  -7  -1   6  167.29    7.42
  -7   1   6  182.16   10.49
   7   1  -7   73.71    8.29
   7  -1  -7   71.48    7.82
   7   1  -7   74.10    4.89
  -7   1   7   66.84    6.75
  -7   1   8   71.80    7.37
   7  -1  -8   67.77    7.97
   7   1  -8   66.07    4.68
   7   1  -8   70.49    8.31
  -7   1   9   10.50    3.33
   7   1  -9   13.51    2.16
   7  -1  -9   11.19    3.44
   7   1  -9   15.29    4.19
   7  -1 -10   29.32    5.25
   7   1 -10   30.76    5.41
   7   1 -10   29.81    3.22
  -7   1  10   30.36    5.27
   7   1 -11   87.63    9.91
   7  -1 -11   92.28    9.79
   7   1 -11   85.32    5.86
  -7   1  11   87.17    9.17
   7  -1 -12   77.22    9.46
  -7   1  12   76.78    9.02
   7   1 -12   71.79    5.56
   7   1 -12   74.54    9.38
   7   1  12   75.15    6.67
   7   1 -13   41.15    4.46
   7   1  13   42.16    5.19
   7   1 -13   49.30    8.02
  -7   1  13   47.85    7.34
   7  -1 -13   48.39    7.68
   7   1  14  414.16   17.53
   7  -1 -14  441.73   23.20
  -7   1  14  422.70   22.09
   7   1 -14  411.70   14.72
   7   1 -14  449.53   24.01
   7   1 -15   66.14   10.07
   7  -1 -15   53.05    8.10
   7   1  15   56.26    6.69
  -7   1  15   68.14    9.60
  -7   1  16  277.40   19.05
   7   1  16  269.38   15.38
   7  -1 -16  285.13   19.49
  -7   1  17   25.50    5.95
   7  -1 -17   24.99    5.97
   7   1  17   25.91    4.76
   7  -1  17   30.66    5.54
  -7   1  18   30.56    6.93
   7   1  18   32.52    5.74
   7  -1  18   34.78    6.07
   7  -1 -18   30.36    6.86
   7  -1 -19   28.82    6.65
   7  -1  19   26.15    5.58
   7   1  19   28.50    5.60
  -7   1  19   30.82    7.07
   7   1  20   36.25    6.58
   7  -1  20   37.33    6.92
  -7   1  20   31.46    7.65
  -7   1  21   19.39    6.11
   7   1  21   21.51    5.37
  -7  -1  21   28.33    7.52
   7  -1  21   27.53    5.96
  -7   1  22   38.66    8.64
   7   1  22   38.07    7.05
  -7  -1  22   44.94    9.32
   7  -1  22   39.23    7.29
  -7  -1  23    6.28    4.24
   7  -1  23    4.78    2.83
  -7   1  23    5.31    3.41
   7   1  23    4.87    2.85
  -7   1  24   85.69   13.45
  -7  -1  24   86.92   13.66
  -7   1  25   14.82    5.63
  -7  -1  25   17.80    6.45
  -8  -1   0   18.39    4.03
  -8   1   0    2.54    1.76
  -8  -1   1   55.86    5.41
  -8   1  -1   54.13    6.40
  -8   1   1   48.68    5.79
  -8  -1   2   44.68    4.66
  -8   1   2   37.69    4.80
   8   1  -2   38.65    5.38
  -8   1  -2   55.35    6.80
  -8  -1   3   23.97    3.18
  -8   1   3   24.40    4.16
   8   1  -3   22.21    4.19
  -8   1  -3   33.05    5.94
  -8   1   4    8.77    2.45
  -8   1   4    6.91    1.83
  -8  -1   4    5.26    1.13
   8   1  -4    7.01    2.58
  -8   1   5    4.76    1.48
   8   1  -5    5.84    2.17
  -8  -1   5    5.89    1.64
  -8   1   5    6.08    1.87
  -8  -1   6    7.27    1.64
   8   1  -6    7.22    2.95
  -8   1   6    5.98    1.95
  -8   1   6    6.10    1.89
   8   1  -7   32.51    6.11
  -8   1   7   30.01    4.61
   8  -1  -7   26.92    4.61
  -8   1   8   17.97    3.68
   8   1  -8   23.70    3.32
   8  -1  -8   12.68    3.11
   8   1  -8   18.06    4.93
   8  -1  -9    8.59    3.07
  -8   1   9    7.87    2.97
   8   1  -9   11.09    4.65
   8   1  -9   11.03    2.29
   8   1 -10   12.33    2.30
   8  -1 -10   11.70    3.08
   8   1 -10   18.61    5.20
  -8   1  10   12.65    3.60
  -8   1  11   21.32    4.47
   8   1 -11   19.99    2.98
   8   1 -11   23.50    5.52
   8  -1 -11   24.10    5.67
  -8   1  12    1.99    1.77
   8   1 -12    1.29    1.27
   8  -1 -12    2.78    2.93
   8   1 -12    0.75    0.67
   8   1 -13    3.42    2.68
   8  -1 -13    4.44    3.02
  -8   1  13    2.81    2.02
   8  -1  13    5.95    2.48
  -8   1  14    3.40    2.46
   8  -1  14    6.50    2.69
   8   1 -14    5.21    3.00
   8  -1 -14    7.21    3.85
   8   1 -15   11.63    4.53
   8  -1 -15    5.20    2.34
  -8   1  15    6.24    3.21
   8  -1  15    8.32    2.89
  -8   1  16   13.66    4.53
   8   1 -16   13.84    4.81
   8  -1  16   16.59    4.06
   8   1  16   12.86    3.23
   8  -1 -16   12.75    4.39
   8  -1 -17   22.80    6.38
   8   1  17   22.82    4.52
   8  -1  17   24.24    4.80
  -8   1  17   26.20    6.11
  -8   1  18   16.91    5.08
   8  -1  18   15.98    4.03
   8   1  18   13.79    3.55
   8  -1 -18   17.34    5.03
   8  -1  19   10.32    3.49
   8  -1 -19   10.86    4.76
   8   1  19    7.56    2.66
  -8   1  19    7.64    3.81
  -8   1  20    3.14    1.90
   8  -1  20    4.92    2.89
  -8  -1  20    8.76    4.89
   8  -1 -20    1.66    1.99
  -8  -1  21    5.04    3.70
  -8   1  21    0.10    1.37
  -8  -1  22    6.38    4.02
  -8   1  22    3.46    2.83
  -8  -1  23    3.67    3.92
  -8   1  23   -0.54    1.76
  -8  -1  24    5.44    4.00
  -8   1  24    3.47    2.89
  -9   1   0  507.46   20.17
  -9  -1   0  503.57   17.57
  -9  -1   1  325.09   13.82
  -9   1  -1  330.82   16.52
  -9   1   1  335.40   15.95
  -9   1   2  109.99    8.95
   9   1  -2  116.28   10.00
  -9   1  -2  122.35   10.38
  -9  -1   2  113.70    7.92
  -9   1  -3  223.23   14.00
   9   1  -3  216.09   14.03
  -9  -1   3  207.99   10.36
  -9   1   3  222.04   12.78
  -9   1  -4  166.33   12.36
  -9   1   4  150.08   10.53
   9   1  -4  153.46   12.14
  -9  -1   4  146.62    8.55
  -9   1   4  151.87    9.07
  -9  -1   5  217.92   10.27
   9   1  -5  225.68   14.97
  -9   1   5  226.73   12.97
  -9   1   5  224.77   11.63
  -9   1  -5  221.95   14.85
  -9  -1   6   92.58    6.44
  -9   1   6   91.41    7.84
   9   1  -6   96.95   10.01
  -9   1  -6  131.54   11.88
  -9   1   6   88.28    8.14
   9  -1  -7   90.37    9.59
   9   1  -7   86.28    9.71
  -9   1   7   89.78    8.17
  -9   1   7   87.23    8.15
   9   1  -8   88.14   10.25
   9  -1  -8   90.86    9.83
   9  -1   8   73.39    3.68
  -9   1   8   80.73    8.04
   9   1  -9  242.59   10.38
   9  -1   9  248.94    8.01
   9   1  -9  278.73   17.99
   9  -1  -9  265.94   17.65
  -9   1   9  255.44   15.02
  -9   1  10   23.84    4.94
   9  -1  10   28.35    3.18
   9  -1 -10   31.61    6.05
   9   1 -10   28.71    6.56
   9   1 -10   26.76    3.59
   9  -1 -11  396.46   22.56
   9   1 -11  359.83   12.82
   9   1 -11  392.33   22.77
  -9   1  11  385.77   19.78
   9  -1  11  381.95   12.32
   9   1 -12   50.31    8.44
  -9   1  12   46.19    7.23
   9  -1 -12   49.14    8.33
   9  -1  12   51.48    4.98
   9   1 -13    1.06    2.36
  -9   1  13    0.67    0.97
   9  -1 -13    2.65    2.56
   9  -1  13    3.55    1.93
   9   1 -14    0.15    1.82
   9  -1 -14    2.93    2.69
   9  -1  14    4.92    2.14
  -9   1  14    4.85    2.90
  -9   1  15  120.25   12.78
   9  -1 -15  136.89   14.42
   9  -1  15  127.97    9.40
   9   1 -15  129.49   14.10
   9  -1  16   36.46    5.38
  -9   1  16   37.45    7.38
   9   1 -16   38.20    7.66
   9  -1 -16   36.15    7.60
   9  -1 -17  213.37   18.49
  -9   1  17  204.41   17.54
   9   1 -17  210.62   19.05
  -9   1  18    7.50    3.96
  -9  -1  18    8.70    5.00
   9  -1 -18    4.82    4.30
  -9   1  19   22.69    6.31
   9  -1 -19   22.59    6.33
  -9  -1  19   30.57    7.59
   9  -1 -20   10.06    4.87
  -9  -1  20   11.73    4.92
  -9   1  20    7.27    3.71
  -9  -1  21   45.80    9.49
  -9   1  21   48.14    9.69
   9  -1 -21   54.85   10.34
  -9   1  22   25.90    7.48
  -9  -1  22   26.22    7.39
  -9   1  23    6.22    3.81
  -9  -1  23   10.61    5.03
  -9  -1  24    1.32    2.76
  -9   1  24    1.15    1.26
 -10  -1   0   20.45    4.70
 -10  -1   0   12.64    1.82
 -10   1   0   10.79    3.50
 -10   1   1   12.77    3.24
  10   1  -1   12.91    3.28
 -10  -1  -1   29.12    5.28
 -10   1  -1   18.37    4.31
 -10  -1   1   21.90    4.14
 -10   1  -2    5.48    3.21
 -10  -1   2    3.44    1.82
  10   1  -2    2.00    1.51
 -10   1   2    1.51    1.75
 -10  -1   3    1.71    1.01
 -10   1   3    3.19    2.35
  10   1  -3    1.39    1.16
 -10   1  -3    7.55    3.76
 -10   1   4    1.63    1.68
  10   1  -4    1.14    1.61
 -10  -1   4   -0.36    1.05
 -10   1   5   -0.62    1.52
 -10   1   5    0.17    1.22
  10   1  -5   -0.86    1.24
 -10  -1   5    1.12    1.09
 -10   1   6    9.40    2.34
 -10   1   6    7.13    2.66
 -10  -1   6    7.72    2.02
  10   1  -6    9.84    3.66
 -10   1   7   15.60    3.63
 -10   1   7   15.37    3.42
  10   1  -7   13.89    4.39
  10  -1  -7   13.49    3.16
 -10  -1   7   15.55    2.85
 -10   1   8    0.36    0.81
  10  -1  -8   -2.23    2.75
 -10   1   9    6.25    2.84
  10   1  -9   10.98    4.64
  10  -1  -9    0.47    2.44
  10  -1 -10    1.27    1.44
 -10   1  10    2.27    1.95
  10  -1 -11   -2.40    2.40
 -10   1  11    0.81    1.59
  10   1 -12   18.23    5.40
 -10   1  12   13.25    3.93
  10  -1 -12   14.69    4.82
 -10   1  13   11.58    3.55
  10  -1 -13   16.86    5.19
  10   1 -13   14.99    5.35
  10   1 -14   -1.44    1.66
  10  -1 -14    3.49    2.93
 -10   1  14   -0.92    1.65
 -10   1  15    5.33    2.82
  10  -1 -15   11.15    4.73
  10   1 -15    6.34    3.18
  10   1 -16    3.58    3.28
  10  -1 -16    3.02    2.55
 -10   1  16    6.37    3.08
 -10  -1  16    9.17    4.40
 -10   1  17    2.80    2.35
 -10  -1  17    9.16    4.50
  10   1 -17    8.13    4.69
  10  -1 -17    6.40    3.97
 -10  -1  18    6.26    4.16
 -10   1  18    3.28    2.61
  10   1 -18    1.68    2.79
  10  -1 -18    4.00    3.44
 -10  -1  19    5.50    4.02
  10  -1 -19    3.22    3.09
 -10   1  19    0.32    1.08
 -10  -1  20    6.50    4.02
 -10   1  20   -0.66    2.21
  10  -1 -20    7.21    4.04
  10  -1 -21    4.29    3.54
 -10   1  21    1.45    1.51
 -10  -1  21    4.50    3.66
  10  -1 -22    4.15    3.42
 -10  -1  22    6.98    4.33
 -10   1  22    2.45    1.63
 -10   1  23   -0.15    0.99
 -10  -1  23    4.14    3.46
 -11  -1   0    1.44    0.67
 -11   1   0   -1.61    2.16
 -11   1  -1   24.20    5.29
 -11   1   1   19.55    3.88
 -11  -1   1   27.59    4.81
 -11  -1  -1   38.41    6.13
  11   1  -1   21.61    4.51
 -11  -1   1   24.76    2.85
 -11  -1  -2  353.55   17.97
  11   1  -2  359.20   20.07
 -11   1  -2  372.60   19.51
 -11  -1   2  359.31   16.16
 -11   1   2  359.52   18.24
 -11  -1   2  360.80   11.73
  11   1  -3  148.78   12.90
 -11   1  -3  151.59   12.62
 -11  -1   3  132.58    9.59
 -11  -1   3  140.04    8.22
 -11   1   3  139.36   11.47
 -11  -1   4   15.01    3.17
 -11   1  -4   21.05    5.61
  11   1  -4   12.62    3.35
 -11   1   4   13.71    3.72
 -11  -1   5   21.24    3.67
 -11   1   5   20.39    4.46
  11   1  -5   20.69    5.19
 -11   1  -5   30.45    6.70
 -11   1   6   67.29    7.85
 -11   1  -6   76.84   10.06
 -11  -1   6   68.35    6.57
 -11   1   6   65.71    6.87
  11   1  -6   77.27   10.05
  11   1  -7  124.39   12.66
  11  -1  -7  114.88   12.23
 -11   1  -7  129.41   13.02
 -11  -1   7  118.35    8.49
 -11   1   7  115.99    9.56
 -11   1   7  117.72   10.38
  11   1  -8  111.86   12.10
 -11   1  -8  130.46   13.51
 -11   1   8   99.17    9.22
  11  -1  -8  103.01   11.73
 -11   1   9  101.15    9.68
  11   1  -9  108.83   12.57
  11  -1  -9   98.68   11.61
  11   1 -10   98.97   12.28
  11  -1 -10   97.08   11.86
 -11   1  10   95.46    9.91
 -11   1  11    9.89    3.59
  11  -1 -11   10.74    4.59
  11   1 -11   11.95    5.27
 -11   1  12  212.23   15.95
  11  -1 -12  233.67   18.98
  11   1 -12  215.98   18.70
  11  -1 -13  208.97   18.52
 -11   1  13  201.42   15.90
  11   1 -13  217.36   18.93
 -11  -1  13  208.41   16.17
  11   1 -14   92.72   12.59
  11  -1 -14   95.30   12.61
 -11   1  14   88.56   10.98
 -11  -1  14   85.59   11.09
  11   1 -15   27.36    7.00
 -11   1  15   28.00    6.48
 -11  -1  15   33.52    7.24
  11  -1 -15   33.00    7.48
  11  -1 -16    2.22    2.60
  11   1 -16    2.09    2.27
 -11   1  16    1.88    1.98
 -11  -1  16    6.71    4.07
  11  -1 -17   15.96    5.59
 -11   1  17   14.64    4.84
  11   1 -17   14.99    5.59
 -11  -1  17   14.09    5.28
  11  -1 -18  110.26   14.58
  11   1 -18  118.31   15.26
 -11  -1  18  107.00   13.41
 -11   1  18  104.60   13.23
 -11  -1  19   32.22    7.76
  11   1 -19   25.45    7.48
  11  -1 -19   25.56    7.10
 -11   1  19   27.72    7.16
 -11  -1  20    7.75    4.30
 -11   1  20    6.36    3.79
  11  -1 -20    9.92    4.93
  11  -1 -21    7.86    4.65
 -11   1  21    6.44    3.61
 -11  -1  21   12.11    5.17
  11  -1 -22    1.64    2.41
 -11   1  22    0.44    2.29
 -11  -1  22    2.22    2.92
 -11  -1  23    3.43    3.65
 -11   1  23    0.43    2.24
 -12  -1   0   11.67    3.62
 -12   1   0    8.09    2.96
  12   1  -1   18.27    4.66
 -12  -1   1   20.33    2.41
 -12  -1   1   20.59    4.33
 -12   1  -1   19.44    4.26
 -12   1   1   14.82    3.12
 -12  -1  -1   25.56    5.08
 -12  -1   2   55.64    4.58
 -12   1  -2   52.12    7.65
  12   1  -2   51.41    7.65
 -12  -1   2   48.64    6.33
 -12   1   2   41.44    6.19
 -12  -1  -2   53.46    7.55
 -12   1   3   89.40    9.52
  12   1  -3   81.94   10.07
 -12  -1   3   82.15    7.89
 -12   1  -3   84.34    9.95
 -12  -1  -3   95.78   10.36
 -12  -1   3   87.02    6.42
 -12  -1  -4   57.33    8.59
 -12   1  -4   34.24    6.65
  12   1  -4   37.19    6.88
 -12  -1   4   37.34    5.31
 -12  -1   4   39.43    4.77
 -12   1   4   38.39    6.19
 -12   1   5   16.33    4.13
 -12   1  -5   20.84    5.63
  12   1  -5   16.47    4.71
 -12  -1   5   15.39    3.45
 -12  -1   5   16.17    3.33
  12   1  -6    5.13    2.24
 -12   1   6    8.11    2.89
 -12  -1   6    4.42    1.70
 -12  -1   6    7.43    2.53
  12  -1  -6    2.98    2.87
  12  -1  -7   -2.64    3.83
 -12   1   7   -1.52    1.75
  12   1  -7    2.07    2.07
 -12  -1   7    2.29    2.10
 -12   1   7    1.32    1.31
 -12  -1   7    1.28    0.68
 -12   1   8    7.09    2.09
 -12   1   8    7.56    2.73
  12   1  -8    7.01    2.76
  12  -1  -8    4.55    1.66
 -12  -1   8   12.55    3.55
 -12  -1   9   22.42    4.82
 -12   1   9   13.94    3.51
  12   1  -9   21.19    6.13
  12  -1  -9   18.85    5.35
 -12   1  -9   34.71    8.05
 -12   1  10   13.93    3.47
  12   1 -10   20.83    6.20
  12  -1 -10   12.83    4.14
 -12  -1  10   16.34    4.31
 -12   1  11   16.76    4.12
  12  -1 -11   17.21    5.43
  12   1 -11   24.31    7.31
 -12  -1  11   24.92    5.56
  12  -1 -12    5.06    3.56
  12   1 -12    7.05    4.13
 -12  -1  12    7.00    3.39
 -12   1  12    2.67    1.54
 -12  -1  13    2.52    1.92
  12   1 -13    1.39    3.13
  12  -1 -13    6.16    3.82
 -12   1  13    0.06    1.11
 -12   1  14    3.49    2.09
 -12  -1  14    9.51    4.14
  12  -1 -14    5.50    3.67
  12   1 -14    6.10    4.08
 -12  -1  15    5.53    3.72
  12   1 -15    2.72    3.41
  12  -1 -15    3.65    3.39
 -12   1  15    3.12    2.52
 -12   1  16    1.16    1.46
  12  -1 -16    6.19    4.77
  12   1 -16    1.39    1.42
 -12  -1  16    4.85    3.30
  12   1 -17   19.13    7.01
 -12   1  17    9.05    3.67
 -12  -1  17   10.44    4.61
  12  -1 -17    9.27    4.51
  12   1 -18    2.48    3.75
 -12  -1  18    4.04    3.43
  12  -1 -18   -0.98    1.67
 -12   1  18   -0.58    1.67
 -12  -1  19    4.11    3.09
 -12   1  19    0.48    1.24
  12   1 -19    2.82    3.87
  12  -1 -19    0.19    2.48
 -12  -1  20    4.54    3.69
 -12   1  20    0.01    1.28
  12  -1 -20    2.09    2.88
 -12  -1  21    1.14    1.91
  12  -1 -21    7.62    4.19
 -12   1  21    2.79    2.61
 -12   1  22    2.69    2.29
 -12  -1  22    9.39    4.47
 -13   1   0  538.13   25.33
  13   1   0  554.88   26.84
 -13  -1   0  548.48   23.14
 -13   1   1   30.13    5.83
 -13  -1  -1   41.65    6.76
 -13  -1   1   35.19    5.59
 -13   1  -1   35.83    6.78
  13   1  -1   31.53    6.49
 -13   1  -2   60.51    8.62
 -13  -1  -2   61.11    8.48
 -13  -1   2   53.87    6.72
  13   1  -2   61.13    8.98
 -13   1   2   58.29    8.02
 -13   1   3   43.73    6.97
 -13  -1   3   38.11    5.51
 -13   1  -3   41.35    7.10
 -13  -1  -3   54.39    8.11
  13   1  -3   41.37    7.37
 -13   1   4   21.32    4.96
  13   1  -4   19.77    5.34
 -13  -1   4   24.63    4.62
 -13  -1  -4   38.76    7.32
 -13   1  -4   15.85    4.63
 -13  -1   5  151.40   10.92
 -13   1   5  159.92   13.20
  13   1  -5  156.35   14.94
 -13  -1  -5  163.47   14.16
 -13   1  -5  161.49   14.46
 -13  -1   6   29.58    4.72
 -13   1  -6   38.43    7.31
 -13   1   6   27.83    5.37
  13   1  -6   30.81    6.81
 -13  -1   6   28.38    4.70
  13  -1  -6   28.08    6.01
 -13   1   7   14.24    3.90
 -13  -1   7   16.53    3.51
 -13  -1   7   18.48    4.04
 -13   1  -7   27.89    6.99
  13   1  -7   17.68    5.16
  13  -1  -7   12.48    3.59
 -13  -1   8   10.32    3.42
 -13   1  -8   14.85    5.75
  13   1  -8   10.71    4.73
  13  -1  -8    4.58    1.69
 -13   1   8    5.44    2.39
  13   1  -9   60.35   10.11
  13  -1  -9   60.63   10.06
 -13   1  -9   79.94   11.25
 -13   1   9   61.93    7.81
 -13  -1   9   60.52    7.76
 -13   1  10   58.32    7.98
  13  -1 -10   60.75   10.39
  13   1 -10   61.95   10.34
 -13  -1  10   58.75    7.94
 -13   1 -10   68.91   10.70
 -13   1  11    1.60    1.16
  13   1 -11    6.87    4.04
  13  -1 -11   -0.01    1.67
 -13  -1  11    7.42    3.37
 -13   1  12   24.78    5.37
  13   1 -12   28.84    7.64
  13  -1 -12   30.23    7.32
 -13  -1  12   29.63    6.38
 -13   1  13    7.27    3.22
  13   1 -13    7.25    3.92
  13  -1 -13    7.87    4.32
 -13  -1  13    8.11    3.82
 -13   1  14   44.82    7.89
  13  -1 -14   45.55    9.58
 -13  -1  14   43.57    7.83
  13   1 -14   46.89    9.61
  13   1 -15   20.07    6.56
 -13  -1  15   23.37    6.03
 -13   1  15   18.95    5.49
  13  -1 -15   18.37    6.47
 -13  -1  16   51.89    9.09
  13   1 -16   51.53   10.40
  13  -1 -16   53.27   10.75
 -13   1  16   55.27    9.37
 -13  -1  17   12.46    4.89
 -13   1  17    9.38    3.94
  13   1 -17   10.52    5.19
  13  -1 -17    6.03    3.37
 -13   1  18   -1.25    2.02
  13   1 -18    1.62    2.26
  13  -1 -18    3.17    2.24
 -13  -1  18    3.34    2.45
 -13   1  19   -1.63    2.07
  13   1 -19    5.71    4.77
 -13  -1  19    4.64    3.10
  13  -1 -19    5.82    4.22
 -13   1  20   40.32    8.78
 -13  -1  20   39.23    8.95
 -13   1  21   24.89    7.16
 -13  -1  21   23.31    7.13
 -14  -1   0   32.11    5.90
  14   1   0   26.48    6.25
 -14   1   0   28.34    5.96
 -14   1   1   25.08    5.39
 -14  -1  -1   29.25    5.82
 -14  -1   1   25.99    5.03
  14   1  -1   29.25    6.58
 -14   1  -1   29.73    6.11
 -14  -1   2   21.75    4.59
 -14  -1  -2   26.87    5.69
  14   1  -2   23.34    6.04
 -14   1   2   30.31    6.19
 -14   1  -2   24.29    5.32
 -14   1  -3    5.05    2.33
 -14  -1  -3   10.95    4.53
 -14  -1   3    1.72    1.04
 -14   1   3    7.75    3.29
  14   1  -3    5.63    3.17
 -14   1   4    9.16    3.40
 -14  -1  -4   20.10    5.64
 -14  -1   4    7.53    2.71
 -14   1  -4    8.01    3.69
  14   1  -4    7.38    3.48
 -14   1  -5    0.63    1.38
 -14  -1   5    1.60    1.33
  14  -1  -5   -1.29    3.00
  14   1  -5    2.24    2.35
 -14   1   5   -1.14    1.54
  14  -1  -6   -2.25    3.59
 -14   1  -6    0.65    2.28
  14   1  -6    0.62    2.02
 -14   1   6    2.94    1.59
  14   1  -7   15.67    5.24
 -14   1   7   16.73    4.35
  14  -1  -7   12.61    4.12
 -14   1  -7   25.14    6.63
  14   1  -8    1.68    2.25
 -14   1   8    3.60    2.45
  14  -1  -8   -2.44    2.81
  14  -1  -9    4.00    2.24
  14   1  -9    9.35    4.22
  14  -1 -10    0.62    1.50
  14   1 -10    5.69    3.83
  14   1 -11    5.11    3.91
 -14   1 -11    8.80    5.28
  14  -1 -11   -0.85    2.83
 -14   1 -12   11.88    5.59
  14  -1 -12   -0.96    2.56
  14   1 -12    8.86    4.97
  14   1 -13    3.55    3.36
  14  -1 -13    2.62    3.16
  14  -1 -14    2.13    3.57
  14   1 -14    2.35    3.06
  14  -1 -15    6.24    4.34
  14   1 -15    4.02    3.16
  14  -1 -16    7.40    4.96
 -14   1  16    2.73    2.05
  14   1 -16    3.70    3.46
 -14   1  17   -0.80    1.38
 -14  -1  17    1.39    2.09
  14   1 -17   -0.05    2.26
  14  -1 -17    3.26    3.88
 -14   1  18    2.11    1.87
 -14  -1  18    6.60    3.81
 -14  -1  19    2.64    2.62
 -14   1  19    0.66    1.24
 -14   1  20   -1.32    2.46
 -14  -1  20    0.88    1.58
 -14   1  21    0.49    1.12
 -14  -1  21   -2.19    2.24
 -15   1   0   -1.84    2.76
  15   1   0   -1.07    2.31
 -15  -1   0   -0.79    1.13
 -15   1  -1   -2.85    3.03
 -15   1   1   -2.40    2.95
 -15  -1   1   -0.87    1.38
 -15  -1  -1    0.64    1.50
  15   1  -1   -1.70    2.16
  15   1   1   -2.26    2.75
 -15  -1   2    0.22    1.97
 -15   1   2    3.90    2.55
 -15  -1  -2    2.84    2.19
  15   1  -2    2.56    2.08
 -15   1  -2   -3.39    2.93
 -15   1   3   35.25    6.72
 -15  -1  -3   40.17    7.40
 -15   1  -3   40.31    7.60
  15   1  -3   34.57    7.53
 -15  -1   3   42.95    6.55
 -15   1  -4   16.92    4.96
 -15  -1  -4   26.19    6.12
  15   1  -4   17.18    5.36
 -15   1   4   19.40    5.09
 -15  -1  -5   22.96    5.85
 -15   1   5   14.76    4.37
  15   1  -5   19.96    6.11
 -15   1  -5   15.30    4.94
  15  -1  -5    8.85    3.11
 -15  -1  -6   12.55    5.15
 -15   1  -6    5.48    3.59
  15   1  -6    5.35    3.63
  15  -1  -6    3.54    2.27
 -15   1   6    4.21    2.33
 -15   1   7   52.17    8.07
  15  -1  -7   49.09    9.79
  15   1  -7   47.62    9.37
 -15   1  -7   55.58    9.52
 -15  -1  -7   65.77   10.07
 -15   1   8   17.23    4.66
  15   1  -8   16.79    5.61
  15  -1  -8   12.14    4.66
 -15   1  -8   19.10    5.75
  15   1  -9    1.45    2.47
  15  -1  -9    0.08    1.78
 -15   1 -10   16.73    6.20
  15   1 -10    8.78    4.51
  15  -1 -10    4.31    3.31
  15   1 -11    2.31    2.66
  15  -1 -11    1.64    2.03
 -15   1 -12   31.22    8.37
  15  -1 -12   11.43    4.80
  15   1 -12   18.38    6.75
 -15   1 -13   91.35   13.65
  15  -1 -13   81.71   13.37
  15   1 -13   71.93   12.18
  15   1 -14    8.13    4.99
  15  -1 -14    3.14    3.40
  15  -1 -15    5.36    4.41
  15   1 -15    0.59    1.90
 -16   1   0   -2.27    2.82
  16   1   0    0.43    1.08
 -16  -1   0   -0.45    1.53
  16   1   1   -1.04    2.45
 -16   1   1    2.56    1.80
 -16  -1  -1    1.00    1.04
  16   1  -1    0.72    1.82
 -16   1  -1   -0.55    2.53
 -16  -1  -2   -0.76    1.27
  16   1   2   -3.77    3.04
  16   1  -2    0.65    1.45
 -16   1  -2   -3.52    2.91
 -16   1   2    0.69    1.58
 -16  -1  -3   12.80    3.98
  16   1  -3   14.20    5.24
 -16   1   3   13.68    4.44
 -16   1  -3   10.66    3.85
 -16   1   4    2.34    2.07
 -16  -1  -4    3.39    2.84
  16   1  -4   -1.08    1.83
 -16   1  -4   -1.70    2.36
  16  -1  -4   -1.74    2.61
 -16  -1  -5    9.09    3.93
 -16   1  -5    9.09    3.68
  16   1  -5    9.58    4.68
 -16   1   5    8.19    3.39
  16  -1  -5    5.77    3.04
 -16   1  -6    2.79    2.30
  16   1  -6    4.59    3.04
  16  -1  -6    0.58    1.84
 -16   1   6    0.16    0.98
 -16  -1  -7    4.82    3.99
 -16   1  -7    2.00    2.27
  16   1  -7    4.97    3.85
  16  -1  -7   -0.94    1.84
 -16   1  -8    1.47    2.71
  16   1  -8    2.43    3.76
  16  -1  -8   -0.63    2.96
 -16   1  -9   10.77    4.92
  16   1  -9    4.23    4.23
  16  -1  -9    4.03    3.00
 -16  -1  -9   11.02    5.42
  16   1 -10    3.13    2.56
 -16  -1 -10   10.87    5.54
 -16   1 -10    7.26    4.55
  16  -1 -10    0.03    1.34
 -16   1 -11    7.48    4.88
  16   1 -11    0.58    2.86
  16  -1 -11    1.44    2.23
 -16   1 -12    8.60    5.32
  16   1 -12    1.95    3.59
  16  -1 -12    0.57    1.47
 -16   1 -13   18.64    6.88
 -17   1   0   28.92    6.66
  17   1   0   27.83    6.92
 -17   1  -1    3.49    0.97
 -17   1   1   10.94    4.40
  17   1  -1    8.87    3.74
  17   1   1    4.48    1.81
 -17   1  -2   12.36    4.16
  17   1  -2   16.24    5.36
 -17   1   2   17.87    5.44
 -17  -1  -2   18.39    5.10
  17   1   2   14.50    4.73
  17   1   3   26.43    6.63
 -17   1   3   28.42    6.71
 -17   1  -3   31.08    7.11
 -17  -1  -3   28.80    6.56
  17  -1  -3   30.04    7.78
  17   1  -3   33.15    8.03
 -17   1   4   28.41    6.44
 -17  -1  -4   28.60    6.73
  17   1  -4   27.81    7.56
  17  -1  -4   23.20    6.86
 -17   1  -4   27.74    6.81
 -17  -1  -5   10.45    4.26
  17   1  -5    9.62    4.80
 -17   1  -5    9.94    4.24
  17  -1  -5    5.01    2.79
 -17  -1  -6    7.80    4.22
 -17   1  -6    3.21    1.81
  17   1  -6    7.89    4.77
  17  -1  -6    6.05    3.62
  17  -1  -7   -0.95    3.07
 -17  -1  -7    7.08    4.25
  17   1  -7    4.38    3.94
 -17   1  -7    3.65    2.69
 -17   1  -8   11.01    4.56
  17   1  -8    9.73    4.93
  17  -1  -8    8.41    3.79
 -17  -1  -8   14.44    5.41
  17   1  -9   14.64    5.97
 -17   1  -9    8.58    4.39
  17  -1  -9   11.91    4.84
 -17  -1  -9   15.59    5.88
 -17   1 -10   14.90    5.72
  17   1 -10   11.21    5.30
 -17  -1 -10   21.88    6.76
 -17   1 -11   24.61    7.26
 -17  -1 -11   41.98    9.30
 -17  -1 -12   30.73    8.28
  18   1   0   -0.23    1.43
 -18   1   0    1.73    2.66
 -18   1  -1   -0.25    1.82
  18   1  -1   -0.14    1.61
 -18   1   1    3.10    2.75
  18   1   1    1.99    1.43
 -18   1  -2   -4.05    3.11
  18   1   2   -2.12    2.65
  18  -1  -2    1.66    2.54
  18   1  -2    0.66    1.33
  18   1  -3    4.45    3.23
  18  -1  -3   -1.75    2.91
  18   1   3    1.65    1.79
 -18   1  -3   -2.82    3.11
  18   1   4    0.13    1.50
  18   1  -4    4.49    3.18
  18  -1  -4   -0.99    2.82
 -18   1  -4   -4.52    3.36
  18   1  -5    5.11    4.24
 -18  -1  -5    0.29    1.40
  18   1   5   -2.14    2.88
 -18   1  -5    1.48    1.57
  18   1  -6   16.28    6.04
 -18   1  -6   11.91    4.73
 -18  -1  -6   16.07    5.43
 -18  -1  -7    3.88    3.53
 -18   1  -7    0.28    1.55
 -18   1  -8    0.09    1.69
 -18  -1  -8    5.53    3.60
 -18  -1  -9    4.65    3.19
 -18  -1 -10   27.38    7.65
  19   1   0    3.48    2.78
  19   1  -1   18.23    6.45
  19   1   1   18.34    6.07
  19   1   2   27.05    7.50
 -19   1  -2   21.53    6.25
 -19   1  -3    2.53    2.14
  19   1   3    6.00    3.61
  19   1   4   11.76    5.05
 -19   1  -4    5.36    3.02
  19   1   5   15.20    5.44
 -19   1  -5   16.49    5.95
   0   2   0 8292.12   49.98
   0  -2   0 8461.27   48.45
   0  -2   0 8402.20   50.94
   0   2   1    4.75    1.98
   0   2  -1    2.08    1.66
   0  -2   1    0.49    0.66
   0  -2  -1   13.39    2.74
   0  -2  -1   -1.32    1.18
   0   2  -1    1.89    0.93
   0  -2   1   14.04    2.98
   0  -2   2  326.41   11.14
   0   2  -2  326.42    8.93
   0  -2   2  322.50    8.96
   0   2  -2  330.94   11.03
   0   2   2  337.97    8.73
   0  -2  -2  323.20    8.87
   0   2   3    0.42    0.40
   0  -2   3    0.82    0.93
   0   2  -3    2.35    1.88
   0  -2  -3    1.50    0.79
   0  -2   3    6.27    2.13
   0   2  -3    1.58    1.15
   0   2  -4  815.50   19.22
   0   2   4  865.20   11.70
   0   2  -4  817.00   14.57
   0  -2   4  835.77   19.33
   0   2  -5    6.47    2.09
   0   2  -5    5.97    2.69
   0  -2  -5   -0.30    1.04
   0   2  -6  805.39   20.36
   0  -2  -6  852.26   21.19
   0  -2  -6  826.10   12.73
   0   2  -7    0.97    1.34
   0  -2  -7    2.58    1.06
   0  -2  -7    0.03    0.75
   0   2  -8   77.54    6.81
   0   2   8   80.02    7.12
   0  -2  -8   76.64    4.74
   0   2   9   -0.85    1.93
   0  -2  -9    1.62    1.31
   0   2  -9    0.03    1.53
   0   2  10 1078.51   28.75
   0   2 -10 1042.39   26.43
   0   2 -11    3.24    2.85
   0   2  11    0.33    0.49
   0   2  11    0.08    2.01
   0   2 -12  841.43   25.10
   0   2  12  845.09   19.99
   0   2  12  864.54   27.46
   0   2 -13    2.14    2.17
   0   2  13   -0.05    0.61
   0   2  13    1.79    1.86
   0   2  14  169.88   13.18
   0   2 -14  170.33   11.71
   0   2  15    3.07    2.71
   0   2 -15    0.98    1.59
   0   2  16  401.99   21.48
   0   2 -16  391.23   18.80
   0   2 -17    1.55    2.30
   0   2  17    9.38    4.03
   0   2  18   29.54    6.17
   0   2 -18   36.64    6.06
   0   2 -19   -1.10    0.87
   0   2  19   -1.14    1.21
   0   2 -20   72.24    8.77
   0   2  20   65.54   10.00
   0   2  21    0.09    1.53
   0   2 -21    0.64    2.20
   0   2  22   49.42    9.14
   0   2 -22   51.76    7.66
   0   2  23   -1.04    2.04
   0   2 -23   -2.11    1.65
   0   2  24    1.25    1.62
   0   2  25   -2.04    2.54
   0   2  26   74.30   12.35
   0   2  27   -0.47    2.13
  -1   2   0 3649.03   34.22
   1  -2   0 3592.56   34.15
  -1   2   0 3608.48   33.92
   1  -2   0 3651.51   34.55
  -1  -2   1 1978.64   20.48
  -1   2   1 2065.08   26.74
   1  -2   1 2061.29   27.29
   1  -2  -1 2047.19   26.71
  -1   2  -1 2041.00   25.25
   1  -2  -1 2051.68   24.50
   1  -2   1 2064.22   25.60
  -1   2   1 2047.93   24.44
  -1   2  -1 2031.57   26.95
  -1   2  -2 2118.51   25.66
   1  -2   2 2139.74   28.89
   1  -2  -2 2131.64   23.53
   1  -2   2 2122.12   25.74
  -1  -2   2 2110.09   19.75
  -1   2  -2 2115.09   28.81
   1   2  -2 2135.26   19.77
   1  -2  -2 2146.85   28.19
   1  -2  -3  650.04   12.52
   1  -2   3  676.27   16.85
   1   2  -3  667.10   10.85
   1  -2   3  654.30   14.37
  -1  -2   3  648.57   10.60
  -1   2  -3  662.97   14.65
  -1   2  -3  650.97   16.63
   1  -2  -4   92.82    6.55
   1  -2   4   87.31    6.23
  -1   2  -4   85.64    6.37
  -1   2  -4   88.07    5.51
   1   2  -4   86.01    3.97
   1  -2  -4   87.88    4.26
  -1   2  -5   17.78    3.18
   1  -2  -5   15.95    2.66
   1  -2  -5   15.79    1.67
  -1  -2  -5   16.59    2.84
   1  -2   5   17.57    2.79
   1   2  -5   15.16    3.04
   1   2   5   17.91    1.58
   1   2  -5   18.60    2.16
  -1   2  -5   21.29    3.79
   1  -2  -6  105.51    7.50
  -1   2  -6   97.46    7.02
   1  -2  -6  101.00    5.40
   1   2  -6  103.36    7.43
   1  -2   6  102.60    7.22
  -1  -2  -6  109.44    7.40
   1  -2  -6   95.95    3.87
   1  -2  -7   88.69    5.32
   1  -2  -7   81.62    3.28
  -1   2  -7   86.32    6.86
  -1  -2  -7   91.94    7.06
   1  -2   7   90.23    7.04
   1   2  -7   94.09    7.40
  -1   2   7   88.48    7.26
   1   2  -8   65.95    6.54
  -1   2  -8   63.19    6.19
  -1   2   8   61.73    6.27
   1  -2  -8   64.47    4.85
  -1   2  -9   91.61    7.51
  -1   2   9   90.75    8.06
   1  -2  -9   96.47    6.21
   1   2   9   87.87    4.67
   1   2  -9   96.27    7.77
   1   2   9   88.41    7.49
   1   2 -10   22.72    3.97
   1  -2 -10   25.76    3.56
  -1   2  10   26.64    4.53
   1   2  10   25.61    2.74
   1   2  10   23.80    3.87
  -1   2 -10   24.80    4.19
  -1   2  11    1.40    0.98
   1  -2 -11    1.53    1.22
   1   2 -11    0.16    1.11
   1   2  11    2.06    0.97
  -1   2 -11    3.72    1.82
   1   2  11    0.83    0.55
   1   2  12    3.22    1.10
  -1   2 -12    5.83    2.10
  -1   2  12    2.49    1.54
   1   2 -12    2.91    1.58
   1  -2 -12    7.68    2.35
   1   2  12    3.50    1.01
  -1   2 -13    8.30    2.44
   1   2 -13    6.79    2.45
  -1   2  13    7.18    2.99
   1   2  13    6.90    2.40
   1   2  13    6.71    1.79
   1   2 -14   52.28    6.55
   1   2  14   49.82    6.75
  -1   2  14   45.76    6.76
   1   2  14   49.13    5.02
  -1   2 -14   50.70    6.35
  -1   2  15    9.76    3.54
   1   2 -15    8.27    2.78
   1   2  15    9.01    3.08
  -1   2 -15   10.11    2.90
  -1   2 -16   14.20    3.49
   1   2 -16   15.13    3.62
  -1   2  16   14.36    3.93
   1   2  16   15.16    4.06
  -1   2 -17   15.20    3.66
   1   2 -17   13.46    3.40
   1   2  17   10.45    3.46
  -1   2  17   12.21    3.98
  -1   2 -18    5.69    2.46
   1   2 -18    9.61    3.00
   1   2  18    5.52    2.40
  -1   2  18    9.90    3.25
   1   2 -19   11.95    3.49
  -1   2  19   14.00    4.60
  -1   2 -19   14.51    3.91
   1   2  19   11.56    3.62
   1   2 -20   30.32    5.98
  -1   2  20   31.30    6.56
   1   2  20   24.69    5.82
  -1   2 -20   28.71    5.62
   1   2 -21    6.77    3.30
   1   2  21    5.80    3.02
  -1   2  21    3.21    1.80
  -1   2 -21    4.38    2.31
  -1   2  22    5.63    3.30
   1   2  22    7.10    3.52
   1   2 -22    6.29    2.47
  -1   2  23    3.07    2.30
   1   2  23    5.90    3.18
   1   2 -23    5.87    2.48
   1   2  24    5.13    2.91
  -1   2  24    6.88    3.73
   1   2  25    6.72    2.79
  -1   2  25   12.71    5.29
  -1   2  26    0.38    2.34
   1   2  26    0.38    1.41
  -1   2  27   -1.36    2.60
   1   2  27    0.47    1.54
  -2   2   0  126.30    7.08
  -2  -2   0  109.77    5.20
   2  -2   0  115.56    6.76
   2  -2   0  110.65    6.41
   2  -2  -1  564.39   14.86
  -2   2   1  557.71   14.83
   2  -2   1  578.15   15.06
  -2  -2   1  563.71   12.98
   2  -2  -1  579.28   14.11
  -2  -2  -1  548.59   10.32
   2  -2   1  571.10   14.66
  -2   2  -1  566.73   14.37
  -2  -2   2  208.36    5.45
  -2   2   2  212.65    9.43
  -2  -2   2  216.41    8.72
  -2  -2  -2  209.84    5.30
   2  -2   2  211.36    9.03
  -2   2  -2  214.71    9.02
   2  -2   2  222.27    9.65
   2  -2  -2  211.70    9.40
  -2  -2   3 1597.50   25.49
   2  -2  -3 1641.92   26.66
  -2  -2   3 1500.45   12.93
  -2   2  -3 1620.79   25.02
  -2   2  -3 1594.27   26.81
   2  -2   3 1558.60   24.36
   2  -2   3 1609.64   27.02
   2  -2  -4  112.77    7.28
  -2   2  -4  109.84    7.30
  -2  -2   4  112.90    7.35
  -2   2  -4  116.31    7.04
   2  -2   4  113.90    7.43
   2   2  -4  111.92    3.39
   2  -2  -4  117.55    7.54
   2  -2   5   49.48    4.89
   2   2  -5   45.36    2.32
   2  -2  -5   44.46    4.80
  -2  -2   5   53.09    5.40
  -2   2  -5   42.14    4.62
  -2   2  -5   58.83    5.56
  -2  -2  -5   46.31    4.56
  -2  -2  -6   19.86    3.04
   2  -2  -6   19.99    3.39
  -2   2  -6   21.50    3.60
  -2  -2   6   26.99    3.92
   2   2  -6   25.42    2.24
   2  -2   6   22.26    3.49
  -2   2   7  339.76   14.71
   2  -2  -7  334.02   11.85
  -2   2  -7  327.09   14.00
  -2  -2  -7  343.68   13.69
  -2   2   8   24.41    3.74
   2   2   8   23.38    1.90
  -2   2  -8   27.18    4.32
   2  -2  -8   23.38    3.12
  -2   2  -9  364.69   15.44
   2   2   9  339.29    8.36
  -2   2   9  375.61   16.58
   2  -2  -9  365.71   13.28
   2   2  10   72.56    4.28
  -2   2  10   68.72    7.37
  -2   2 -10   76.16    7.36
   2  -2 -10   73.68    6.34
   2   2  10   73.77    7.15
  -2   2 -11    4.22    1.93
   2   2 -11    2.28    1.77
  -2   2  11    2.24    1.49
   2   2  11   -0.35    1.79
   2  -2 -11    2.85    1.60
   2   2  11    2.04    0.96
   2   2  12  108.18    6.33
  -2   2  12  114.28   10.44
   2   2 -12  116.86    9.53
   2  -2 -12  115.33    8.52
   2   2  12  112.12    9.63
  -2   2 -12  115.97    9.43
  -2   2 -13  469.13   19.64
   2  -2 -13  482.98   18.15
   2   2 -13  485.02   19.79
   2   2  13  456.52   13.77
  -2   2  13  499.16   22.21
   2   2  13  489.47   20.83
  -2   2  14    4.65    2.43
   2  -2 -14    5.23    2.44
   2   2  14    1.49    1.40
   2   2  14    4.41    1.61
   2   2 -14    3.78    2.21
   2  -2 -14    3.76    0.94
  -2   2 -14    4.69    2.55
   2   2 -15   23.03    4.74
  -2   2 -15   22.60    4.52
   2   2  15   21.75    3.39
   2   2  15   22.95    4.62
  -2   2  15   23.34    5.01
   2  -2 -15   21.62    2.19
   2   2 -16    1.42    1.41
  -2   2 -16    3.02    1.71
  -2   2  16    4.02    2.80
   2  -2 -16    2.34    0.78
   2   2  16    1.16    1.71
   2   2  17  135.38   12.72
  -2   2  17  148.01   13.75
  -2   2 -17  153.82   12.10
   2   2 -17  146.00   12.06
   2   2 -18   27.61    5.40
  -2   2  18   32.91    6.93
   2   2  18   30.26    6.26
   2   2  19  120.70   12.60
  -2   2  19  128.24   13.53
   2   2 -19  120.81   11.50
   2   2 -20   10.62    3.50
   2   2  20    8.21    3.74
  -2   2  20    9.73    4.16
   2   2 -21    0.26    1.10
   2   2  21   -1.17    2.78
  -2   2  21    2.95    2.53
   2   2  22   -0.74    1.97
  -2   2  22    1.54    2.78
   2   2 -22    2.33    2.09
  -2   2  23  109.57   14.40
   2   2 -23  108.82   11.63
   2   2  23   96.43   12.99
   2   2  24    7.68    3.72
  -2   2  24   12.94    5.31
  -2   2  25   60.06   11.37
   2   2  25   51.58    9.87
   2   2  26    2.87    2.82
  -2   2  26    5.23    3.07
   2   2  27    2.60    2.05
   2  -2  27   14.41    5.62
   3  -2   0  173.91    8.87
  -3  -2   0  168.95    6.98
  -3   2   0  169.58    8.68
   3   2   0  165.61    7.00
  -3   2   1  179.17    9.14
   3   2  -1  186.08    7.91
   3   2   1  185.87    6.66
  -3  -2   1  186.72    7.93
   3  -2   1  188.01    9.12
  -3  -2  -1  186.74    6.59
  -3   2  -1  181.96    8.85
   3  -2  -1  188.14    9.09
   3  -2   2  417.93   14.20
  -3   2   2  422.13   13.90
   3  -2  -2  417.58   13.82
   3   2   2  402.35    8.82
  -3  -2   2  411.13   12.65
   3  -2   2  415.70   13.55
  -3   2  -2  406.63   13.66
   3   2   3  815.07   10.64
   3  -2  -3  853.00   19.77
  -3   2   3  832.96   20.20
  -3  -2   3  843.15   19.30
  -3   2  -3  812.46   19.66
   3  -2   3  856.19   20.94
   3  -2  -3  846.50   20.12
   3  -2  -4   25.79    3.62
  -3  -2   4   24.54    3.56
   3  -2  -4   25.67    3.42
  -3   2  -4   35.38    4.72
   3  -2   4   25.36    3.75
   3  -2  -5  139.55    8.71
  -3  -2   5  139.38    8.83
  -3   2  -5  146.66    9.12
   3  -2   5  143.74    8.83
   3  -2  -5  140.92    8.73
  -3  -2  -5  141.26    7.80
  -3  -2  -6  117.04    7.30
  -3   2   7   15.80    2.76
  -3  -2  -7   24.27    3.47
  -3   2   8   38.11    4.96
  -3  -2  -8   38.69    4.76
   3  -2  -8   38.24    4.54
   3   2   9    9.72    1.37
   3  -2  -9   10.37    2.34
  -3   2   9   10.91    2.81
  -3   2  10   36.37    5.53
   3  -2 -10   35.19    4.75
   3   2  10   35.60    2.97
   3  -2 -11  122.91    8.95
   3   2  11  111.62    4.81
   3   2  11  118.41    5.95
  -3   2  11  122.25   10.42
   3   2  11  119.87    9.31
  -3   2  12   25.31    5.14
   3   2  12   20.42    3.63
   3  -2 -12   22.31    4.04
   3   2  12   22.56    2.84
   3   2  12   19.95    1.96
   3   2  13    0.31    0.24
  -3   2  13   -0.47    1.97
   3   2  13   -1.60    2.19
   3   2  13    0.34    0.66
   3  -2 -13    0.82    1.27
  -3   2  14    2.68    1.86
   3   2 -14    2.88    2.28
   3   2  14   -0.91    1.80
   3   2  14    0.66    0.76
   3  -2 -14    2.49    1.90
  -3   2  15   19.82    4.65
   3   2  15   21.05    3.30
   3   2 -15   25.22    5.13
   3   2  15   19.06    3.97
   3  -2 -15   22.35    4.72
   3   2  16    8.66    2.80
  -3   2  16   11.88    3.85
   3   2 -16   10.90    3.47
   3  -2 -16   14.21    3.86
   3   2 -17    1.31    1.29
   3  -2 -17    1.57    0.97
  -3   2  17    1.70    1.60
   3   2  17   -0.50    1.91
   3   2  18   -0.23    1.82
   3   2 -18    1.82    1.58
  -3   2  18    0.77    1.27
  -3   2  19    9.60    3.70
   3   2  19    7.51    2.53
   3   2 -19    8.87    2.99
   3   2 -20    6.13    2.95
  -3   2  20    6.84    3.31
   3   2  20    3.27    1.63
   3   2 -21   18.03    4.67
   3   2  21   19.40    5.35
  -3   2  21   17.64    5.13
   3   2 -22    2.43    2.29
  -3   2  22    3.97    3.31
   3   2  22    1.20    1.29
   3   2 -23    8.91    3.51
  -3   2  23    6.25    3.58
   3   2  23    6.83    2.68
  -3   2  24    3.19    2.49
   3   2  24    0.28    1.21
   3   2  25   -1.58    2.56
  -3   2  25    2.01    2.13
   3   2  26   -0.28    1.41
  -3   2  26   -1.05    1.72
   3   2  27    5.45    3.20
   3  -2  27   16.16    6.17
   3   2  28    2.59    2.28
   3  -2  28    6.72    4.39
   4   2   0   47.57    4.23
   4  -2   0   49.76    5.10
  -4   2   0   44.97    4.46
  -4  -2   0   50.56    4.19
  -4  -2   1   46.37    4.23
   4  -2   1   48.48    5.13
   4  -2  -1   48.44    5.01
  -4   2  -1   42.50    4.51
  -4   2   1   46.73    4.75
   4   2  -1   44.78    4.28
   4   2   1   39.96    3.55
   4   2  -2   66.98    5.52
  -4  -2   2   65.04    5.28
   4  -2   2   69.16    6.26
  -4   2  -2   63.79    5.71
   4  -2  -2   58.43    5.50
   4   2   2   60.63    4.00
  -4   2   2   66.62    5.81
  -4   2   3  131.71    8.34
   4   2  -3  135.28    8.23
   4   2   3  133.98    5.44
  -4  -2   3  134.19    8.10
   4  -2  -3  133.00    7.98
  -4   2  -3  137.37    8.77
   4  -2  -3  140.40    8.56
   4  -2  -4  467.49   15.97
  -4  -2   4  452.94   15.65
  -4   2   4  449.40   15.78
   4   2  -4  432.78   15.62
   4  -2  -4  448.72   15.17
  -4   2  -4  449.68   15.78
   4   2   4  441.99    9.19
  -4   2  -5   33.67    5.54
   4   2  -5   21.34    3.88
   4  -2  -5   21.04    3.48
   4   2  -6    5.30    2.36
  -4  -2  -6    1.97    0.72
  -4   2   7   -0.73    2.04
  -4  -2  -7    4.00    1.50
  -4  -2  -8   11.44    2.56
   4  -2  -8    9.42    2.09
  -4   2   8    6.15    1.66
   4  -2  -9   43.13    5.13
  -4   2   9   46.65    5.94
  -4   2  10  143.19   11.05
   4  -2 -10  146.06   10.31
  -4   2  11   29.10    4.98
   4  -2 -11   28.71    4.66
  -4   2  12  112.60   10.64
   4  -2 -12  122.28    9.86
   4   2  13   54.54    4.08
  -4   2  13   60.27    7.74
   4   2  13   55.58    6.80
   4   2  13   58.04    4.77
   4  -2 -13   64.55    7.59
   4   2  14   24.66    4.34
   4   2  14   28.42    3.51
  -4   2  14   24.95    5.34
   4  -2 -14   28.23    5.19
   4   2  14   27.25    2.80
   4   2  15   66.36    4.34
   4   2  15   69.43    5.86
   4  -2 -15   72.00    8.42
  -4   2  15   74.19    9.50
   4   2  15   66.76    8.06
  -4   2  16  114.90   12.06
   4   2  16  112.85   10.98
   4  -2 -16  118.12   11.06
   4   2 -17    5.88    2.99
   4   2  17    2.33    1.26
   4  -2 -17    7.37    3.12
  -4   2  17    5.18    3.21
   4   2  18    5.78    2.26
   4   2 -18    8.96    3.82
  -4   2  18   10.25    3.95
   4   2  19   64.26    8.89
  -4   2  19   65.50   10.16
   4   2 -19   71.03    9.02
   4   2 -20    1.92    2.26
  -4   2  20    3.21    2.16
   4   2  20    4.98    2.89
   4   2 -21   34.84    6.48
  -4   2  21   33.36    7.79
   4   2  21   30.12    6.33
   4   2 -22   20.28    5.08
   4   2  22   22.72    5.73
  -4   2  22   25.69    6.68
   4   2 -23    1.48    1.57
  -4   2  23    1.25    1.65
   4   2  23    0.16    1.22
  -4   2  24    4.81    3.34
   4   2  24    2.86    2.30
  -4   2  25   31.65    8.28
   4   2  25   29.94    7.34
  -4   2  26   26.34    7.37
   4   2  26   22.54    6.71
   4  -2  26   26.94    7.32
   4  -2  27   27.20    7.57
   4   2  27   25.47    7.18
   4  -2  28    4.16    3.35
   4   2  28   -2.24    3.02
   5   2   0  200.77    9.38
  -5   2   0  203.29   10.86
   5   2   1   36.13    3.74
   5   2  -1   35.61    4.28
  -5   2  -1   31.34    4.13
  -5   2   1   37.29    4.57
  -5   2   2   79.31    6.86
   5   2  -2   70.83    6.26
  -5  -2   2   68.08    5.90
  -5   2  -2   73.55    6.90
   5   2   2   68.08    4.90
   5  -2  -2   73.82    5.72
  -5   2   3  153.58    9.62
   5   2   3  146.11    6.82
  -5  -2   3  160.10    9.41
  -5   2  -3  167.46   10.51
  -5  -2   3  141.43    4.44
   5  -2  -3  155.53    8.70
   5   2  -3  161.70    9.49
  -5   2   4   38.10    4.72
  -5   2  -4   40.53    5.83
   5   2  -4   36.71    4.73
   5  -2  -4   37.53    4.37
  -5  -2  -5   51.02    4.41
   5   2  -5   54.17    6.11
  -5   2  -5   65.31    7.23
   5   2  -6  190.14   11.72
  -5   2  -6  197.22   12.42
  -5  -2  -6  181.58    8.86
  -5  -2  -7  292.94   11.69
  -5   2   7  298.41   14.40
   5   2  -7  297.82   15.17
  -5  -2  -8   47.40    4.99
   5   2  -8   48.44    6.57
   5  -2  -8   44.62    5.59
  -5   2   8   44.47    5.68
  -5  -2  -9    5.59    1.93
   5   2  -9    3.12    0.61
   5  -2  -9    2.44    1.28
  -5   2   9    4.11    1.91
  -5   2  10   -0.65    2.08
   5   2 -10    0.52    0.36
   5  -2 -10   -0.79    1.83
   5   2 -11   40.63    3.09
  -5   2  11   40.61    6.12
   5  -2 -11   46.02    6.23
  -5   2  12    7.47    2.65
   5  -2 -12    8.54    3.00
  -5   2  13  156.03   12.96
   5  -2 -13  169.93   12.58
   5  -2 -14   68.34    8.77
   5   2  14   60.42    4.94
  -5   2  14   64.75    8.76
  -5   2  15  324.82   20.31
   5  -2 -15  339.16   18.98
   5   2  15  327.28   17.53
   5   2  16   41.54    6.47
   5  -2 -16   47.17    7.24
  -5   2  16   49.08    8.16
   5  -2 -17   21.04    5.09
  -5   2  17   21.16    5.40
   5   2  17   20.45    4.69
   5   2  18   13.73    3.99
  -5   2  18   18.01    5.33
   5  -2 -18   16.96    4.67
  -5   2  19   72.96   10.77
   5  -2 -19   83.65   10.38
   5   2 -19   80.06   10.34
   5   2  19   79.87    9.84
   5   2 -20   10.19    4.11
  -5   2  20    5.47    2.73
   5   2  20    8.89    3.30
  -5   2  21   -0.59    2.33
   5   2  21    1.55    1.81
   5   2 -21    1.07    1.04
   5   2 -22    5.72    2.82
  -5   2  22    6.69    3.47
   5   2  22    7.43    3.22
   5   2 -23   21.01    5.44
  -5   2  23   23.02    6.87
   5   2  23   19.33    5.35
   5   2  24    1.23    2.12
  -5   2  24    4.39    3.12
  -5   2  25   12.80    5.45
   5  -2  25   18.68    6.15
   5   2  25   11.72    4.17
   5  -2  26   12.04    4.79
   5   2  26    6.54    3.06
   5   2  27   -5.08    4.28
   5  -2  27    1.39    2.14
   5  -2  28    6.34    3.93
   5   2  28   -1.20    2.62
  -6   2   0   -0.84    2.21
   6   2   0   -0.36    0.86
   6   2   1   35.80    4.24
   6  -2  -1   37.44    3.95
  -6   2  -1   33.70    4.38
  -6   2   1   36.37    4.89
   6   2  -1   42.98    4.91
   6   2   2  211.24    9.68
   6   2  -2  211.34   11.24
  -6   2  -2  219.27   12.35
  -6   2   2  214.07   11.99
   6  -2  -2  220.63   10.10
  -6   2   3   25.43    3.98
   6  -2  -3   25.27    3.55
   6   2  -3   27.89    4.44
   6   2   3   22.84    3.02
  -6  -2   3   28.37    2.60
  -6   2  -3   28.22    5.07
  -6   2  -4    7.99    4.08
   6   2  -4    4.20    2.21
   6  -2  -4    3.33    1.71
  -6   2   4    4.20    1.64
  -6   2   5   34.67    4.79
  -6   2  -5   46.58    6.55
   6   2  -5   35.79    5.24
  -6  -2  -5   33.53    3.48
  -6  -2  -6  121.12    7.00
   6   2  -6  114.12    9.70
  -6   2  -6  137.42   10.77
  -6  -2  -7    6.27    1.66
  -6   2   7    6.46    1.90
   6   2  -7    9.31    3.11
  -6  -2  -8    9.12    2.38
   6   2  -8   10.29    3.64
  -6   2   8    7.28    2.03
  -6  -2  -9    4.54    1.89
  -6   2   9   -0.65    1.90
   6   2  -9    3.26    2.91
   6  -2  -9    0.92    2.05
  -6   2  10   28.73    5.10
   6   2 -10   28.85    5.72
   6   2 -10   23.82    1.90
   6  -2 -10   26.80    4.96
  -6   2  11   35.99    5.94
   6  -2 -11   42.69    6.50
   6   2 -11   33.72    2.59
   6   2 -12   45.24    3.39
   6  -2 -12   47.07    6.94
  -6   2  12   43.08    6.78
   6   2 -13   22.27    2.61
  -6   2  13   21.62    4.78
   6  -2 -13   21.43    5.06
  -6   2  14  256.15   17.69
   6   2 -14  255.39    9.58
   6  -2 -14  272.28   17.29
   6  -2 -15   87.21   10.13
  -6   2  15   71.93    9.66
  -6   2  16  110.37   11.98
   6  -2 -16  118.93   11.97
  -6   2  17    0.45    1.66
   6  -2 -17   -0.66    1.45
  -6   2  18   15.79    4.83
   6  -2 -18   12.90    4.32
  -6   2  19   -1.37    2.50
   6  -2 -19    1.49    1.88
   6   2 -20   18.18    5.39
   6  -2 -20   15.73    4.50
  -6   2  20   16.71    5.30
  -6   2  21    0.47    1.21
   6   2  21   -0.76    2.22
   6   2 -22    5.69    3.21
   6   2  22    2.29    1.62
  -6   2  22    7.21    3.65
   6   2 -23    3.24    2.84
  -6   2  23    2.52    1.91
  -6   2  24   29.67    8.06
   6  -2  24   32.50    7.56
  -6   2  25   -0.80    2.14
   6  -2  25    9.47    4.21
  -7   2   0   -1.99    2.42
   7  -2   0    0.44    0.39
   7   2   0    0.98    1.07
   7  -2  -1    0.84    0.73
   7   2  -1   -0.51    1.20
  -7   2   1    0.23    1.67
   7   2   1    0.81    0.72
  -7   2  -1    1.37    1.37
  -7   2   2   62.21    6.76
   7   2   2   58.25    5.68
  -7   2  -2   61.01    6.95
   7   2  -2   65.09    6.64
   7  -2  -2   62.98    5.43
   7  -2  -3  127.38    8.16
   7   2   3  119.48    7.86
  -7  -2   3  123.10    5.84
   7   2  -3  121.88    9.52
  -7   2  -3  134.20   10.30
  -7   2   3  128.23    9.64
  -7   2   4   20.18    3.96
  -7   2  -4   26.48    5.31
  -7  -2   4   19.36    2.08
   7   2  -4   26.38    4.96
  -7   2  -5  123.42   10.49
  -7  -2   5  115.10    4.66
  -7   2   5  118.74    9.53
   7   2  -5  130.52   10.63
  -7  -2  -5  132.20    6.75
  -7   2  -6   30.66    6.38
  -7  -2  -6   22.57    2.87
  -7   2   6   21.88    4.01
   7   2  -6   24.49    4.73
  -7  -2  -7    8.96    2.06
  -7   2   7    6.52    2.00
   7   2  -7    6.86    2.97
   7   2  -8  210.77   14.61
  -7   2  -8  219.44   14.78
  -7  -2  -8  198.88    9.48
  -7   2   8  200.82   12.85
   7   2  -9   96.50   10.30
  -7   2   9   91.09    8.85
   7  -2  -9   93.41    9.46
   7   2 -10   44.95    7.26
   7  -2 -10   42.12    6.24
  -7   2  10   41.54    6.39
   7   2 -11    7.59    1.24
  -7   2  11    6.96    2.45
   7   2 -11    7.99    3.69
   7  -2 -11    7.11    2.38
  -7   2  12   93.06   10.15
   7   2 -12   96.40   11.17
   7  -2 -12   94.36   10.36
   7   2 -12   82.81    4.30
   7  -2 -13   42.16    6.94
  -7   2  13   41.04    6.87
   7   2 -13   37.18    3.13
  -7   2  14   59.11    8.51
   7  -2 -14   58.21    8.43
   7  -2 -15   60.12    9.24
  -7   2  15   57.11    8.52
  -7   2  16  209.59   17.25
   7  -2 -16  217.34   17.09
  -7   2  17   17.49    5.16
   7  -2 -17   21.55    5.50
   7  -2 -18   44.16    8.20
  -7   2  18   38.44    7.88
   7  -2 -19    0.32    1.17
  -7   2  19   -0.63    1.69
  -7   2  20    7.65    3.55
   7  -2 -20   11.04    4.10
  -7   2  21   11.92    4.50
   7  -2 -21   19.78    5.65
   7   2 -22    1.38    1.28
  -7   2  22    1.52    1.98
   7   2 -23   11.68    4.38
  -7   2  23   10.59    5.14
   7  -2  23   18.18    5.47
  -7   2  24    2.63    1.55
   8   2   0   90.04    8.00
  -8   2   0   88.87    8.36
   8  -2   0   91.86    6.04
   8   2  -1  223.17   12.69
   8   2   1  216.52   12.08
   8  -2  -1  217.89    9.76
  -8   2  -1  218.59   13.36
  -8   2   1  222.96   13.33
   8  -2   1  224.11    9.09
  -8   2   2  227.88   13.52
   8   2   2  228.38   12.16
  -8  -2   2  221.05    9.54
  -8   2  -2  236.52   13.96
   8  -2  -2  225.56   10.44
   8  -2   2  234.45    8.85
   8   2  -2  230.81   13.25
   8   2  -3  131.01   10.41
  -8  -2   3  122.83    6.64
  -8   2  -3  130.47   10.84
   8  -2  -3  131.35    8.36
  -8   2   3  122.09   10.00
   8   2  -4  137.89   10.97
  -8   2  -4  140.89   11.51
  -8  -2   4  134.61    6.38
  -8   2   4  138.07   10.52
   8   2  -5  115.24   10.18
  -8   2  -5  124.90   10.96
  -8   2   5  111.42    9.56
  -8  -2   5  113.73    5.52
  -8  -2  -5  123.47    6.25
  -8  -2  -6    6.65    1.51
  -8  -2   6    6.16    1.11
   8   2  -6    9.78    3.75
  -8   2   6    6.18    2.11
   8   2  -7   65.07    8.16
  -8   2  -7   80.11    9.66
  -8  -2  -7   68.09    5.04
  -8   2   8   84.66    8.51
   8   2  -8   89.83    9.83
  -8   2  -8  100.03   11.03
  -8   2   9   61.28    7.32
  -8   2  -9   84.69   10.85
   8   2  -9   66.46    9.02
   8  -2  -9   59.02    7.73
  -8   2  10   16.22    3.79
   8   2 -10   18.42    4.85
   8  -2 -10   13.08    3.44
   8   2 -11  136.28   12.91
   8  -2 -11  142.89   12.65
  -8   2  11  120.73   11.33
   8   2 -12   78.15    9.99
   8  -2 -12   84.78   10.03
  -8   2  12   80.18    9.51
  -8   2  13    9.08    3.46
   8  -2 -13   12.20    3.96
   8   2 -13   12.43    4.88
  -8   2  14   34.90    6.53
   8  -2 -14   36.48    6.61
  -8   2  15   80.83   10.38
   8  -2 -15   89.90   11.14
  -8   2  16   34.40    7.04
   8  -2 -16   39.31    7.63
  -8   2  17   26.30    6.36
   8  -2 -17   30.72    6.93
   8  -2 -18   45.21    8.44
  -8   2  18   34.43    7.42
  -8   2  19    8.22    3.73
   8  -2 -19    7.01    3.35
  -8   2  20    2.78    1.50
   8  -2 -20   10.45    4.63
  -8   2  21   43.88    9.25
   8  -2 -21   41.58    8.57
   8  -2 -22   17.62    5.80
  -8   2  22   19.23    6.09
  -8   2  23    6.86    3.66
   8   2 -23    8.67    3.78
  -8   2  24   24.66    7.35
   9  -2   0   13.95    2.52
  -9   2   0   12.13    2.86
   9   2   0    8.27    2.17
   9  -2   1   27.37    3.14
  -9   2   1   23.20    4.45
  -9  -2   1   40.50    5.06
   9   2  -1   27.66    4.83
   9   2   1   21.88    3.86
  -9   2  -1   28.79    5.17
   9  -2  -1   27.32    3.53
  -9   2   2    7.65    2.92
   9  -2   2    7.32    1.52
  -9  -2   2   13.14    2.97
   9   2  -2    6.36    2.39
  -9   2  -2    6.71    2.42
   9   2   2    3.84    0.98
   9  -2  -2    9.96    2.58
   9  -2   3    5.01    1.13
  -9   2  -3    6.71    2.84
   9   2  -3    7.83    2.71
  -9  -2   3    5.95    1.79
  -9   2   3    4.58    2.46
  -9   2   4    2.31    1.56
  -9  -2  -4    1.64    0.52
   9   2  -4    5.52    2.77
  -9   2  -4    5.45    2.89
  -9  -2   4    1.49    0.48
  -9  -2  -5    1.67    0.69
  -9   2  -5    5.59    3.26
  -9  -2   5    2.81    1.16
   9   2  -5    4.66    2.94
  -9   2   5    1.03    0.86
  -9  -2  -6    5.55    1.46
  -9   2  -6    7.70    4.18
   9   2  -6    5.88    3.67
  -9   2   6    3.34    1.37
  -9  -2   6    4.13    1.11
  -9   2   7    8.79    2.97
   9   2  -7   14.55    4.67
  -9   2  -7   14.83    5.08
  -9   2  -8   25.28    6.57
   9   2  -8   19.33    4.79
   9   2  -9   -0.67    1.52
  -9   2   9   -2.31    2.49
   9  -2  -9   -2.39    2.85
  -9   2  10   -3.92    2.84
   9   2 -10    2.43    2.47
   9  -2 -10   -2.75    3.41
  -9   2  11    2.29    1.08
   9   2 -11    8.00    3.27
   9  -2 -11    7.75    3.13
  -9   2  12    8.13    2.79
   9   2 -12   11.80    4.77
   9  -2 -12    8.48    3.48
  -9   2  13    0.96    1.41
   9   2 -13    1.47    2.41
   9  -2 -13    3.88    2.51
  -9   2  14    2.72    0.96
   9   2 -14    2.71    1.62
   9  -2 -14    2.62    2.34
   9   2 -15    1.34    1.93
   9  -2 -15    1.76    2.48
  -9   2  15    0.34    1.70
  -9   2  16    2.13    1.99
   9  -2 -16    5.72    3.47
  -9   2  17   -1.22    3.41
   9  -2 -17    4.10    3.16
  -9   2  18    4.57    2.65
   9  -2 -18    6.72    3.46
  -9   2  19   -2.79    2.99
   9  -2 -19    1.68    2.24
   9  -2 -20   -2.21    3.05
  -9   2  20    0.42    2.38
  -9   2  21   -1.11    2.47
   9  -2 -21    0.24    1.96
  -9   2  22    1.12    2.17
   9  -2 -22    7.06    4.25
  -9   2  23   -2.03    2.74
 -10   2   0   25.89    4.69
  10   2   0   27.06    4.76
  10   2   1  122.92   10.34
  10   2  -1  118.66   10.62
 -10  -2   1  129.00    8.81
 -10   2  -1  121.85   10.90
  10  -2   1  121.16    6.42
 -10   2   1  123.63   10.75
 -10   2   2  180.92   13.31
  10   2   2  184.15   12.52
 -10  -2   2  185.35   10.20
 -10   2  -2  184.46   13.70
  10  -2   2  173.71    7.12
  10   2  -2  184.00   13.52
 -10   2   3  111.21   10.48
  10   2  -3  121.80   10.99
  10   2   3  107.01    9.21
 -10   2  -3  118.51   11.04
 -10  -2   3  115.34    7.69
  10  -2   3  108.63    5.30
  10   2  -4   68.95    8.41
  10  -2   4   66.63    3.94
 -10   2  -4   76.84    8.97
 -10  -2   4   65.27    5.37
 -10   2   4   72.79    8.45
 -10  -2  -4   67.06    3.81
 -10   2   5  119.45   10.74
  10  -2   5  104.19    4.88
 -10   2  -5  113.37   11.35
  10   2  -5  120.71   11.52
 -10  -2  -5  108.63    4.70
 -10  -2   5  112.33    6.86
 -10  -2   6   39.10    3.86
 -10   2   6   37.04    5.98
  10   2  -6   43.14    7.31
 -10   2  -6   51.06    8.32
 -10   2   7   38.37    6.18
  10   2  -7   42.87    7.45
 -10   2  -7   56.62    8.69
  10   2  -8   97.20   11.22
 -10   2  -8  105.68   11.85
  10   2  -9   87.43   10.66
  10  -2  -9   84.86   10.31
 -10   2  -9   96.17   11.65
  10   2 -10   44.19    7.87
  10  -2 -10   42.16    7.56
 -10   2  10   39.48    6.40
  10   2 -11  171.40   15.97
 -10   2 -11  182.72   15.99
  10  -2 -11  173.46   15.51
 -10   2  11  163.36   13.70
  10   2 -12   98.90   12.33
  10  -2 -12  103.30   12.20
 -10   2  12   94.65   10.79
  10   2 -13   43.87    8.25
 -10   2  13   37.88    6.87
  10  -2 -13   38.36    7.83
  10  -2 -14   48.16    8.62
  10   2 -14   52.82    9.46
 -10   2  14   43.28    7.59
  10   2 -15   69.30   10.99
  10  -2 -15   77.27   11.04
 -10   2  15   65.73    9.80
  10   2 -16   25.93    6.76
 -10   2  16   20.95    5.45
  10  -2 -16   24.82    6.64
  10  -2 -17   60.06   10.36
 -10   2  17   46.11    8.73
  10  -2 -18   49.05    9.49
 -10   2  18   47.48    8.94
 -10   2  19   15.88    5.21
  10  -2 -19   20.31    6.23
 -10   2  20    2.94    1.64
  10  -2 -20    5.91    3.80
  10  -2 -21   20.72    6.59
 -10   2  21   18.85    6.04
 -10   2  22    8.59    3.52
  10  -2 -22   12.75    5.22
 -10   2  23    4.77    3.30
  10  -2 -23   12.34    5.23
 -10  -2  23   11.33    5.11
  11   2   0   -0.76    1.96
 -11   2   0   -3.25    2.89
  11   2   1  108.35   10.15
  11   2  -1  116.82   10.89
 -11  -2   1  118.01    9.08
 -11   2  -1  114.92   11.02
 -11   2   1  106.66   10.38
 -11   2   2    5.88    2.83
 -11  -2   2   10.54    2.98
  11   2  -2    6.26    2.23
 -11   2  -2    4.94    2.33
  11   2   2    3.93    1.08
 -11   2   3  166.70   13.33
  11   2   3  157.54   12.06
  11   2  -3  159.99   13.38
 -11   2  -3  170.07   13.76
 -11  -2   3  170.79    9.98
 -11   2   4    1.07    1.07
 -11   2  -4    0.17    1.30
  11   2  -4    1.34    1.97
 -11  -2   4   -0.24    1.64
 -11   2  -5   12.89    3.77
 -11   2   5   12.88    3.43
  11   2  -5   14.34    4.32
 -11  -2   5   15.10    2.75
 -11  -2   6    1.89    0.82
 -11   2  -6    3.14    2.43
  11   2  -6    4.00    2.80
 -11   2   6    0.18    0.98
  11   2  -7   18.23    5.36
 -11   2   7    8.49    2.78
 -11   2  -7   17.22    5.09
 -11   2  -8   45.32    8.10
  11   2  -8   40.37    7.85
  11   2  -9    0.42    1.56
  11  -2  -9   -3.44    3.80
  11   2 -10    0.02    1.42
  11  -2 -10   -1.80    3.08
 -11   2  11   -0.45    2.79
  11   2 -11    4.57    2.70
  11  -2 -11    0.84    1.56
 -11   2  12   -1.21    2.97
  11   2 -12    1.96    2.45
  11  -2 -12    1.65    2.77
 -11   2  13    6.52    2.00
  11   2 -13   10.49    4.86
  11  -2 -13    6.70    3.46
 -11   2  14    5.14    2.03
  11  -2 -14    4.52    2.74
  11   2 -14    9.17    4.73
 -11   2  15   -0.23    1.88
  11   2 -15    0.02    1.50
 -11   2  16    0.40    1.09
  11   2 -16    4.19    3.46
  11  -2 -16    2.11    1.91
 -11   2  17   -0.98    2.94
  11  -2 -17    4.14    3.56
 -11   2  18   -1.77    3.08
  11  -2 -18    1.44    2.30
 -11   2  19   -2.52    2.86
  11  -2 -19   -1.23    1.90
 -11   2  20    1.12    1.67
  11  -2 -20    5.73    3.87
 -11   2  21   -2.78    2.52
  11  -2 -21    1.41    1.19
 -11  -2  22    7.69    4.66
 -11   2  22    0.80    1.20
  11  -2 -22    2.14    3.18
  11  -2 -23   17.88    6.45
  12   2   0  115.26   11.38
 -12  -2   0  124.78   10.28
 -12   2   0  112.02   11.34
  12   2   1  221.10   15.60
 -12  -2  -1  238.86   14.45
 -12   2  -1  236.50   16.87
  12   2  -1  227.40   16.24
 -12  -2   1  230.33   13.23
 -12   2   1  228.08   16.31
 -12   2   2  136.13   12.45
 -12  -2  -2  157.50   12.16
  12   2   2  132.28   11.93
  12   2  -2  130.53   12.38
 -12  -2   2  136.69    9.98
 -12   2  -2  139.01   12.97
  12   2  -3   19.03    4.65
 -12   2  -3   20.14    5.08
 -12   2   3   16.40    4.49
  12   2   3   14.23    3.32
 -12  -2   3   15.31    2.96
  12   2  -4  109.29   11.82
 -12   2  -4  101.79   11.37
 -12   2   4  101.58   10.90
 -12  -2   4   98.52    7.72
 -12   2   5   64.14    8.63
  12   2  -5   59.72    9.11
 -12   2  -5   60.35    8.74
 -12  -2   5   67.39    6.19
 -12   2   6   24.79    5.22
 -12   2  -6   27.46    6.31
  12   2  -6   25.56    6.33
 -12  -2   6   27.87    3.75
 -12   2   7   36.69    6.58
  12   2  -7   39.99    7.88
 -12   2  -7   37.48    7.29
  12   2  -8   82.58   11.27
  12  -2  -8   81.87   11.12
 -12   2  -8   95.75   11.79
  12  -2  -9   47.48    8.45
  12   2  -9   55.26    9.39
 -12   2  -9   58.34    9.58
  12   2 -10   28.23    6.87
 -12   2 -10   42.53    8.67
  12  -2 -10   22.52    5.30
  12   2 -11   26.08    6.79
 -12   2 -11   35.70    8.20
  12  -2 -11   24.56    6.68
  12   2 -12   53.24    9.97
  12  -2 -12   52.66    9.56
 -12   2 -12   62.81   10.64
  12   2 -13   75.07   11.70
  12  -2 -13   68.40   10.86
 -12   2 -13   82.19   12.04
 -12   2  13   62.82    9.17
 -12   2  14   30.18    6.09
 -12   2 -14   53.71   10.01
  12   2 -14   34.94    8.30
  12  -2 -14   29.19    7.40
 -12   2  15   10.73    4.05
  12   2 -15   13.38    5.28
  12  -2 -15   15.57    5.32
 -12   2  16    9.01    3.46
  12   2 -16   21.74    6.99
  12  -2 -16   12.61    5.32
  12  -2 -17   26.69    7.39
  12   2 -17   25.08    7.32
 -12   2  17   20.05    5.72
 -12   2  18   31.97    7.63
  12  -2 -18   35.10    8.34
 -12   2  19    6.36    3.45
  12  -2 -19   14.62    5.43
 -12  -2  19   19.74    6.33
 -12   2  20    5.53    2.94
  12  -2 -20    8.02    4.14
 -12  -2  20   17.07    5.94
 -12   2  21    3.87    3.22
  12  -2 -21    8.27    4.81
 -12  -2  22   15.68    6.15
 -12   2  22    6.57    3.74
  13   2   0  250.15   17.54
 -13  -2   0  242.43   14.76
 -13   2   0  242.20   17.58
 -13   2  -1   15.93    4.62
 -13   2   1   22.23    5.80
 -13  -2   1   20.75    4.26
 -13  -2  -1   24.21    5.06
  13   2  -1   17.03    4.87
  13   2   1   16.35    4.40
 -13   2  -2   17.04    4.62
 -13  -2  -2   25.02    6.04
 -13   2   2   20.43    5.23
  13   2  -2   15.34    4.51
 -13  -2   2   16.46    3.52
  13   2   2   13.47    3.70
 -13  -2  -3   50.11    8.00
  13   2  -3   34.40    6.78
 -13  -2   3   31.14    4.67
 -13   2  -3   38.11    6.98
  13   2   3   32.05    5.95
 -13   2   3   35.88    6.70
 -13   2   4   10.98    4.14
 -13  -2   4    7.78    2.31
  13   2  -4    9.47    3.96
 -13   2  -4    8.60    3.42
  13   2   4    6.50    2.50
 -13   2   5   -0.69    1.31
 -13   2  -5   -0.06    1.18
  13   2  -5   -0.19    1.82
 -13   2  -6   -0.33    1.70
  13   2  -6    4.62    3.23
 -13   2   6    1.73    1.54
  13   2  -7   21.67    5.87
 -13   2  -7   15.07    4.92
 -13   2   7   14.71    4.04
 -13   2  -8   28.71    6.85
  13   2  -8   32.06    7.61
  13  -2  -8   19.47    4.94
 -13   2  -9   10.53    4.70
  13   2  -9    7.46    4.11
  13  -2  -9    1.35    3.26
  13   2 -10    4.18    2.76
  13  -2 -10    1.90    1.73
  13  -2 -11   74.56   11.79
 -13   2 -11   81.15   11.78
  13   2 -11   80.03   12.06
 -13   2 -12   31.88    7.84
  13  -2 -12   23.96    6.70
  13   2 -12   26.35    7.34
  13   2 -13    4.33    3.50
  13  -2 -13    3.35    2.15
  13   2 -14    1.18    2.83
  13  -2 -14    1.53    2.06
  13   2 -15    1.33    2.72
  13  -2 -15    3.53    3.44
 -13   2  15    1.85    1.66
 -13   2  16    0.28    1.98
  13   2 -16    4.85    3.09
  13  -2 -16    2.96    3.23
 -13  -2  16    7.72    4.21
  13   2 -17   29.23    8.24
 -13   2 -17   41.48    9.90
 -13   2  17   26.14    6.65
  13  -2 -17   29.97    8.37
 -13  -2  17   32.17    7.74
 -13  -2  18    3.99    3.29
  13   2 -18    2.43    3.30
 -13   2  18   -3.52    3.07
  13  -2 -18    6.77    4.19
 -13   2  19   -2.32    3.22
  13  -2 -19    0.98    1.78
 -13  -2  19    4.02    3.62
 -13  -2  20    0.82    1.48
 -13   2  20   -2.26    3.27
 -13  -2  21   10.43    5.09
 -13   2  21    1.50    2.20
  14   2   0   95.97   11.65
 -14  -2   0   98.98    9.85
 -14   2   0  101.74   11.82
 -14   2  -1    2.86    1.22
 -14  -2  -1   13.90    4.21
 -14   2   1    8.65    3.52
 -14  -2   1    7.79    2.84
  14   2  -1    7.93    3.27
  14   2   1    4.99    2.26
 -14   2  -2    4.28    1.92
 -14  -2  -2   14.19    4.33
  14   2  -2    9.13    4.04
 -14   2   2    4.68    2.29
  14   2   2    5.06    2.36
 -14  -2   2    5.62    1.91
  14   2  -3   13.65    4.74
  14   2   3   10.20    3.29
 -14   2  -3   12.37    4.26
 -14   2   3   16.44    4.97
  14   2  -4   54.82    8.78
  14   2   4   46.50    7.53
 -14  -2  -4   65.36    9.57
 -14   2  -4   55.54    8.92
 -14   2   4   53.13    8.22
 -14   2   5   34.24    6.75
  14   2  -5   33.18    7.16
 -14   2  -5   36.18    7.10
  14   2   5   31.71    6.21
 -14   2   6   41.20    7.34
 -14   2  -6   38.23    7.91
  14   2  -6   35.27    7.72
 -14   2   7    9.26    3.61
 -14   2  -7   12.93    4.81
  14   2  -7   10.94    4.53
  14  -2  -7   10.20    4.49
 -14   2  -8   20.28    6.30
  14   2  -8   15.40    5.86
  14  -2  -8    7.60    2.92
  14   2  -9   54.01   10.20
 -14   2  -9   42.70    8.52
  14  -2  -9   40.77    8.57
 -14   2 -10   39.89    8.76
  14   2 -10   29.82    7.47
  14  -2 -10   27.25    6.85
  14   2 -11    3.91    2.77
 -14   2 -11    9.62    4.87
  14  -2 -11    2.86    2.60
 -14   2 -12   29.96    7.79
  14   2 -12   24.41    6.96
  14  -2 -12   21.18    6.77
 -14   2 -13   15.72    5.83
  14   2 -13   10.43    5.25
  14  -2 -13   12.94    5.00
  14   2 -14   35.80    8.67
 -14   2 -14   41.28    9.19
  14  -2 -14   35.26    8.76
 -14   2 -15   20.82    6.91
  14   2 -15    7.23    3.92
  14  -2 -15   18.61    6.99
  14   2 -16   28.10    8.32
 -14   2 -16   52.89   10.78
  14  -2 -16   33.69    8.69
  14  -2 -17    5.44    4.05
 -15   2   0    1.33    1.10
 -15  -2   0    0.03    0.82
  15   2   0   -0.13    2.10
 -15   2  -1   -1.90    2.76
 -15  -2  -1    0.68    0.97
 -15   2   1    1.62    1.55
  15   2  -1   -0.26    1.94
  15   2   1    0.56    1.33
 -15   2  -2   -4.25    3.58
 -15  -2  -2    3.05    2.79
  15   2  -2   -0.47    1.04
 -15   2   2    0.02    1.53
  15   2   2   -1.84    2.45
 -15  -2  -3    4.47    3.48
  15   2  -3    3.38    3.45
  15   2   3   -0.89    1.92
 -15   2  -3   -1.92    2.41
 -15   2   3   -0.44    1.36
 -15   2   4    2.21    2.06
 -15  -2  -4    8.53    4.04
  15   2  -4    4.67    3.42
  15   2   4   -0.66    2.05
 -15   2  -4   -0.64    2.69
 -15  -2  -5   14.88    5.45
 -15   2   5    8.12    3.58
  15   2  -5   10.00    4.18
 -15   2  -5    2.33    1.31
  15   2   5    1.68    1.37
 -15   2   6    3.33    2.38
  15   2  -6    2.85    3.26
 -15   2  -6   -0.15    1.26
  15   2   6   -1.02    2.43
 -15   2  -7    5.66    3.00
  15   2  -7    8.82    4.03
  15  -2  -7    9.81    3.77
 -15   2   7    5.89    2.92
 -15   2  -8    1.85    1.50
  15   2  -8    4.47    3.71
  15  -2  -8    0.35    2.73
 -15   2  -9    5.40    3.81
  15   2  -9    3.43    3.53
  15  -2  -9   -1.00    3.30
 -15   2 -10    9.69    4.38
  15   2 -10    4.48    3.64
  15  -2 -10    4.39    2.73
 -15   2 -11    4.19    3.56
  15  -2 -11   -0.14    2.49
  15   2 -11    4.51    3.54
 -15   2 -12    5.65    3.96
  15   2 -12    3.66    3.63
  15  -2 -12    1.09    2.03
 -15   2 -13   20.31    6.76
  15   2 -13   17.92    6.53
  15  -2 -13   21.33    7.03
 -15   2 -14   14.44    6.03
  15   2 -14    9.19    5.35
  15  -2 -14   10.80    5.05
 -16   2   0    0.99    1.94
  16   2   0   -0.03    1.57
 -16   2  -1   -0.82    2.35
 -16   2   1    3.63    2.43
  16   2  -1    3.52    2.35
  16   2   1    2.47    1.72
 -16   2  -2   -2.27    2.94
  16   2  -2    5.89    3.14
  16   2   2    1.52    1.52
 -16   2   2    5.30    2.96
  16   2   3   39.55    7.75
 -16  -2  -3   44.60    7.65
  16   2  -3   37.43    8.16
 -16   2   3   38.65    7.72
 -16   2  -3   43.47    8.59
 -16   2  -4    2.16    1.23
 -16   2   4    3.74    2.85
 -16  -2  -4    8.79    3.91
  16   2  -4    5.69    3.67
  16   2   4    2.01    1.44
 -16  -2  -5   10.58    4.42
  16   2  -5    8.38    4.53
 -16   2   5    2.85    2.29
  16   2   5    2.72    1.49
 -16   2  -5    6.43    3.07
 -16  -2  -6   11.21    4.78
 -16   2   6    6.24    3.31
  16   2  -6    8.49    4.41
 -16   2  -6    0.22    1.90
  16   2   6    1.27    1.11
  16  -2  -6   -1.36    3.40
 -16   2   7   36.70    7.54
 -16  -2  -7   44.43    8.63
  16   2  -7   32.21    7.91
 -16   2  -7   33.48    7.78
  16  -2  -7   27.83    7.13
  16   2   7   27.91    6.26
  16   2  -8    1.56    2.71
 -16   2  -8    3.46    1.34
  16  -2  -8    2.81    2.24
 -16   2  -9    9.43    4.33
  16   2  -9   10.35    5.00
  16  -2  -9    5.23    3.66
 -16   2 -10    4.16    3.74
  16   2 -10   -0.33    2.25
  16  -2 -10    1.57    1.51
 -16   2 -11   13.91    5.62
  16   2 -11   10.69    5.13
  16  -2 -11    8.33    3.85
  16   2 -12    7.82    4.12
 -16   2 -12   10.27    4.94
 -17   2   0   -0.76    1.85
  17   2   0   -0.90    2.04
 -17   2  -1    1.45    1.95
  17   2  -1   -1.44    1.95
 -17   2   1    1.86    2.45
  17   2   1   -1.42    2.25
 -17   2  -2   -1.55    2.20
 -17   2   2    2.35    2.26
  17   2  -2    1.36    1.55
  17   2   2   -0.44    1.69
 -17   2  -3   -4.05    3.79
 -17   2   3    1.51    1.86
  17   2  -3    0.19    1.52
  17   2   3    1.09    1.38
 -17   2   4    5.78    3.35
  17   2  -4    2.46    2.43
  17   2   4    2.72    1.60
 -17   2  -4   -0.75    1.67
  17   2  -5    4.55    3.21
  17   2   5   -0.62    1.73
  17  -2  -5   -2.01    3.48
 -17   2   5   -0.76    1.74
 -17   2  -5   -2.39    2.88
 -17  -2  -6   10.34    4.41
 -17   2   6    4.20    2.43
  17   2  -6    2.87    1.99
  17  -2  -6    3.87    2.44
 -17   2  -6   -0.93    3.17
 -17  -2  -7    4.73    3.29
 -17   2  -7   -1.76    2.41
  17  -2  -7    0.79    2.44
  17   2  -8    7.60    4.10
 -17   2  -8    3.36    2.39
  17  -2  -8    1.10    2.70
 -17  -2  -9   18.18    6.26
  17   2  -9    8.13    4.59
 -17   2  -9   12.60    5.37
 -17  -2 -10   19.22    6.58
 -17  -2 -11   19.05    6.99
 -18   2   0   26.85    7.10
  18   2   0   23.04    6.69
 -18   2  -1   35.23    8.16
  18   2  -1   34.87    8.24
  18   2   1   34.98    8.14
 -18   2   1   38.12    8.29
 -18   2  -2    8.18    3.32
  18   2  -2   13.33    5.59
  18   2   2    4.87    3.02
 -18   2   2    9.08    4.15
 -18   2  -3    0.48    1.93
 -18   2   3    5.61    3.30
  18   2  -3    7.48    4.06
  18   2   3    7.04    3.52
 -18   2  -4   21.56    6.23
  18   2  -4   18.02    6.19
  18   2   4   15.97    5.34
  18   2  -5   35.02    8.81
 -18   2  -5   26.50    7.23
  18   2  -6   10.81    4.94
 -18   2  -6   13.27    5.10
 -18  -2  -9    4.10    3.44
 -18  -2 -10   25.72    7.22
  19   2   0    0.42    1.41
 -19   2   0    2.77    2.35
 -19   2  -1   10.26    4.87
  19   2  -1    6.03    4.05
  19   2   1    4.11    3.34
 -19   2   1    4.30    2.97
 -19   2  -2    4.76    3.37
  19   2   2    1.58    2.36
  19   2  -2    2.07    2.81
   0   3   0    4.28    1.97
   0  -3   0    1.65    0.76
   0  -3   0    4.68    2.10
   0  -3  -1  818.56   18.93
   0   3  -1  788.30   17.63
   0  -3   1  788.06   17.47
   0   3   1  776.71   18.18
   0   3  -1  768.22   19.61
   0  -3   1  788.96   19.89
   0   3   2    0.65    0.77
   0   3  -2    1.37    1.73
   0  -3  -2    0.55    0.51
   0   3  -2    0.43    0.79
   0  -3   2   -1.00    1.24
   0  -3   3  393.01   12.05
   0   3   3  378.09   11.53
   0   3  -3  386.87   14.76
   0   3  -3  381.72   11.89
   0   3  -4    1.84    2.02
   0   3  -4    0.47    0.75
   0   3   4    0.87    0.68
   0   3  -5  309.91   13.92
   0   3   5  298.94    9.09
   0   3  -5  292.02   10.61
   0   3  -6   -0.80    1.23
   0   3  -6    1.35    0.86
   0   3  -7    6.12    2.04
   0   3  -7    9.67    2.30
   0  -3  -7    5.85    1.04
   0   3  -8    5.40    3.22
   0   3  -8    8.83    2.62
   0  -3  -8    0.63    0.59
   0   3  -9 1382.54   33.16
   0  -3  -9 1348.99   19.94
   0   3  -9 1284.21   24.55
   0   3 -10   -0.02    1.25
   0  -3 -10    0.59    0.63
   0  -3 -11   65.84    5.01
   0   3 -11   68.66    7.80
   0   3 -12   -0.25    1.79
   0   3 -13   66.02    8.01
   0   3 -14   -1.02    1.86
   0   3  15   45.54    6.94
   0   3 -15   55.24    7.50
   0   3 -16    0.50    1.34
   0   3  16   -3.07    2.67
   0   3 -17   23.05    5.01
   0   3  17   18.81    4.91
   0   3 -18   -0.10    1.06
   0   3  18   -0.56    2.32
   0   3 -19   64.07    8.97
   0   3  19   55.25    9.12
   0   3 -20   -0.28    1.84
   0   3  20    1.19    1.85
   0   3 -21   46.37    7.76
   0   3  21   46.52    8.83
   0   3  22   -1.19    1.53
   0   3 -22   -1.03    1.63
   0   3 -23   -0.48    1.84
   0   3  23    0.67    1.56
   0   3 -24   -0.82    1.64
   0   3  24   -4.63    3.87
   0   3  25   -4.08    3.45
   0   3  26    0.20    1.29
   1   3   0  965.91   21.21
  -1   3   0  950.55   21.25
  -1   3   0  966.95   21.08
  -1  -3   0  950.77   18.96
   1  -3   0  956.94   20.95
   1  -3   0  981.46   21.48
   1  -3   1  467.26   15.42
  -1   3  -1  460.98   14.23
   1   3  -1  458.85   15.35
  -1  -3   1  447.36   12.55
   1   3   1  466.23   14.08
   1  -3   1  466.63   14.46
  -1   3   1  465.69   14.17
  -1   3  -1  453.33   15.29
   1  -3  -1  467.69   15.09
   1  -3  -1  464.54   14.35
   1   3   2  114.26    6.69
   1  -3  -2  115.61    7.63
  -1   3  -2  111.26    7.13
  -1   3  -2  119.48    8.06
   1  -3   2  116.19    7.23
  -1  -3   2  112.14    5.99
   1  -3   2  131.86    8.33
  -1   3   2  119.08    6.91
   1  -3  -2  112.88    6.84
   1   3  -2  115.64    8.06
   1  -3   3  115.80    8.08
   1   3   3  111.62    6.34
   1  -3  -3  126.08    8.01
   1  -3   3  104.49    6.84
  -1  -3   3  105.72    5.78
  -1   3  -3  115.55    6.96
  -1   3   3  106.59    6.34
  -1   3  -3  115.52    8.31
   1  -3  -3  116.33    6.62
   1   3  -3  114.97    5.89
   1   3  -3  119.25    8.47
   1  -3   4  454.02   13.98
  -1  -3   4  449.32   11.49
  -1   3  -4  460.29   14.30
  -1   3  -4  463.99   16.99
   1  -3  -4  472.06   12.68
   1   3   4  473.39   12.28
   1   3  -4  470.90   17.16
   1   3  -4  462.63   11.83
   1   3  -5  161.40   10.25
   1   3   5  149.90    6.56
  -1   3  -5  146.57    8.23
   1   3  -5  146.89    6.61
  -1   3  -5  154.86   10.04
   1  -3  -5  150.57    6.84
  -1  -3  -6   34.34    2.01
  -1   3  -6   36.40    4.38
   1   3  -6   36.26    3.37
  -1   3  -6   40.12    5.36
   1   3  -6   38.54    5.45
   1   3   6   39.83    3.03
   1  -3  -6   38.01    3.18
  -1  -3  -7  260.09    5.71
  -1   3  -7  273.70   11.68
   1   3  -7  268.79   14.21
   1   3  -7  282.57    9.71
   1   3   7  271.99    7.29
  -1   3  -7  282.29   14.25
   1  -3  -7  274.38    8.06
   1   3   8   89.94    3.56
  -1   3  -8  102.43    7.76
   1   3  -8   99.05    6.06
   1  -3  -8   99.93    6.03
  -1   3  -8  100.04    8.72
   1  -3  -8   97.54    4.43
   1   3  -8   98.79    8.93
   1   3  -9  149.45   11.16
   1  -3  -9  136.55    4.67
   1  -3  -9  152.12    7.72
  -1   3  -9  155.93    9.48
   1   3  -9  150.81    7.75
  -1   3  -9  150.20   11.16
   1   3 -10  637.84   23.39
  -1   3 -10  658.42   23.30
   1  -3 -10  635.07   16.49
   1   3 -10  603.90   16.04
   1  -3 -11  128.50    7.78
  -1   3 -11  126.04   10.75
   1   3 -11  129.66   10.90
   1  -3 -12  172.83    9.53
  -1   3 -12  173.36   12.72
   1   3 -12  178.34   12.84
  -1   3 -13  432.04   20.47
   1  -3 -13  413.91   15.16
   1   3 -13  427.62   20.31
   1   3 -14  284.89   17.33
  -1   3  14  293.75   18.32
  -1   3 -14  301.91   17.34
   1   3 -15   40.07    6.58
  -1   3  15   38.91    6.89
  -1   3 -15   39.97    6.66
  -1   3  16  341.95   21.17
  -1   3 -16  366.62   19.93
   1   3 -16  366.26   20.12
   1   3  17  102.79   11.56
  -1   3 -17  102.50   10.81
   1   3 -17   98.92   10.82
  -1   3  17   96.41   11.32
  -1   3 -18   31.29    6.18
   1   3 -18   31.96    5.89
  -1   3  18   31.20    6.67
   1   3  18   29.38    6.56
   1   3 -19   76.41    9.81
  -1   3 -19   73.60    9.57
   1   3  19   71.02   10.44
  -1   3  19   80.90   11.23
   1   3 -20   76.30   10.05
  -1   3 -20   77.10   10.08
   1   3  20   78.00   11.08
  -1   3  20   82.46   11.72
   1   3 -21   15.47    4.62
  -1   3  21   12.59    5.04
   1   3  21   13.31    4.87
  -1   3 -21   14.47    4.39
  -1   3  22   72.00   11.21
   1   3 -22   70.57    9.99
  -1   3 -22   67.83    9.61
   1   3  22   63.99   10.55
  -1   3 -23   35.02    6.95
  -1   3  23   38.72    8.65
   1   3  23   32.41    7.82
   1   3 -23   36.51    7.36
   1   3 -24   12.13    4.45
  -1   3  24    7.32    3.30
   1   3  24    8.38    3.67
  -1   3  25   14.43    5.53
   1   3  25   14.95    5.12
  -1   3  26   36.09    8.77
   1   3  26   37.79    8.92
   2  -3   0   92.16    6.90
  -2   3   0   86.94    6.73
   2  -3   0   93.99    6.87
  -2  -3   1  783.74   15.63
  -2   3   1  800.74   20.84
   2  -3  -1  802.98   20.65
   2  -3   1  808.23   20.47
  -2   3  -1  785.30   20.77
   2  -3  -1  809.87   19.61
   2  -3   1  802.40   20.73
  -2   3  -1  787.53   20.12
  -2   3  -2   43.57    5.09
   2  -3   2   41.48    4.74
  -2   3  -2   44.58    4.68
   2  -3  -2   45.06    4.62
   2  -3   2   46.15    5.15
  -2  -3   2   45.23    3.51
   2  -3  -2   46.11    5.02
  -2  -3   3    8.61    1.42
  -2   3  -3    9.73    2.11
   2  -3   3   12.62    2.87
   2  -3  -3   11.36    2.17
  -2   3  -3    8.79    2.36
  -2   3  -4   10.61    2.65
   2  -3  -4   14.41    2.47
  -2  -3  -4   11.17    1.15
  -2  -3   4   12.70    1.84
   2  -3   4   16.45    3.28
  -2   3  -4    9.99    2.18
   2   3  -5  121.15    5.17
  -2   3  -5  125.75    8.16
  -2   3  -5  122.51    9.05
   2  -3  -5  119.50    6.63
   2  -3  -6    1.29    0.81
  -2   3  -6    2.67    2.08
   2   3  -6    1.01    0.43
  -2   3  -6    0.91    0.83
   2   3  -7   22.70    4.28
  -2   3  -7   25.16    4.57
   2   3  -7   21.26    2.22
   2  -3  -7   21.62    2.59
  -2   3  -7   20.00    3.53
   2  -3  -8    2.72    0.89
   2   3   8    2.99    0.87
   2   3  -8    2.99    1.70
   2   3  -8    2.99    1.16
  -2   3  -8   -0.21    1.67
   2  -3  -9   34.87    4.17
  -2   3  -9   47.12    6.38
   2   3  -9   37.33    3.57
  -2   3  -9   29.28    4.77
   2  -3  -9   33.23    2.89
   2   3  -9   35.01    5.60
   2   3   9   32.12    2.16
  -2   3 -10   27.83    4.65
   2   3 -10   27.94    4.77
   2  -3 -10   28.84    3.90
  -2   3 -10   49.31    6.53
   2   3 -10   33.29    3.73
   2  -3 -10   24.04    2.34
  -2   3 -11   28.36    4.99
   2   3 -11   30.50    5.05
   2  -3 -11   32.60    4.31
   2  -3 -11   29.31    2.37
  -2   3 -12   23.52    4.03
   2   3 -12   27.22    5.26
   2  -3 -12   33.29    4.68
   2  -3 -12   24.45    1.91
  -2   3 -13    1.52    1.52
   2   3 -13    0.36    1.58
  -2   3  13    1.82    1.77
   2  -3 -13    2.87    1.23
   2   3 -14    5.85    2.16
  -2   3 -14    7.98    3.11
  -2   3  14    3.70    1.74
   2  -3 -14    7.71    2.19
  -2   3 -15    3.53    1.29
   2   3 -15    3.55    1.96
  -2   3  15    2.46    1.68
   2  -3 -15    5.53    2.46
   2   3 -16    1.37    1.41
  -2   3  16   -3.73    3.28
  -2   3 -16    0.83    2.02
   2   3 -17   -0.02    1.49
  -2   3  17   -0.52    2.77
  -2   3 -17   -1.20    2.19
   2   3 -18    2.20    1.24
  -2   3 -18    1.63    1.25
  -2   3  18    0.57    2.28
   2   3 -19    0.90    1.72
  -2   3  19   -2.48    3.08
  -2   3 -19   -0.55    1.16
   2   3 -20    2.56    2.26
  -2   3  20    1.71    1.57
   2   3 -21    7.20    3.22
  -2   3  21    3.26    1.48
   2   3 -22    0.77    1.11
  -2   3  22   -3.90    4.09
   2   3 -23   -0.11    1.13
  -2   3  23    1.91    1.29
   2   3 -24   -0.51    0.87
  -2   3  24   -4.78    4.34
  -2   3  25    5.02    3.19
  -2   3  26   -0.99    2.15
  -3  -3   0  354.14   11.46
   3  -3   0  359.91   14.24
  -3   3   0  354.10   14.28
  -3   3   1  467.16   16.71
  -3   3  -1  475.38   16.41
  -3  -3   1  476.29   14.23
  -3  -3  -1  471.58   12.09
   3  -3  -1  473.21   15.98
  -3  -3   2  278.82    8.30
  -3   3   2  295.04   13.67
  -3  -3   2  291.55   11.97
  -3  -3  -2  300.44    8.55
  -3   3  -2  290.22   13.03
   3  -3  -2  311.62   12.66
  -3  -3   3 1733.27   30.61
  -3  -3   3 1627.35   17.93
  -3  -3  -3 1653.73   17.53
  -3   3  -3 1689.63   31.51
   3  -3  -3 1707.36   28.99
  -3  -3   4  827.61   11.63
  -3   3  -4  876.51   22.91
   3  -3  -4  874.71   20.12
  -3   3  -5   57.78    5.95
  -3   3  -6  475.39   17.42
  -3   3  -7  414.35   16.36
   3   3  -7  399.76    7.59
  -3   3  -8   32.66    5.69
   3   3  -8   18.20    1.74
   3  -3  -9  596.92   18.90
  -3   3  -9  582.81   20.15
   3   3  -9  558.95   10.81
  -3   3  -9  579.28   22.34
   3  -3 -10  117.21    8.60
  -3   3 -10  140.85   11.02
   3   3 -10  120.94    5.49
  -3   3 -10  127.44   10.67
   3  -3 -11   36.01    4.90
   3   3 -11   40.46    3.78
  -3   3 -11   37.70    6.10
   3  -3 -12  375.88   16.35
   3   3 -12  385.80   19.62
   3  -3 -13  232.43   13.15
   3   3 -13  226.97   15.53
  -3   3  13  226.53   15.93
   3   3 -14   14.19    4.33
  -3   3  14    9.46    3.34
   3  -3 -14   12.86    3.14
   3  -3 -15   60.35    7.21
   3   3 -15   62.26    8.56
  -3   3  15   52.29    8.03
   3   3 -16   33.57    6.34
   3  -3 -16   31.56    5.53
  -3   3  16   30.14    6.06
   3  -3 -17   38.41    5.94
  -3   3  17   35.85    7.05
   3   3 -17   36.19    6.55
   3   3 -18   53.94    8.02
  -3   3  18   45.43    8.07
   3   3 -19   35.60    6.82
  -3   3  19   30.83    6.95
   3   3 -20    7.11    3.38
  -3   3  20    3.19    1.29
   3   3 -21    4.80    2.35
  -3   3  21   -2.26    3.67
   3   3 -22    4.99    2.46
  -3   3  22    1.76    1.47
   3   3 -23   43.93    8.29
  -3   3  23   44.54    9.33
   3   3 -24    0.69    1.75
  -3   3  24    2.18    2.62
  -3   3  25   18.12    5.69
  -4  -3   0  202.99    9.04
  -4   3   0  197.82   11.39
  -4  -3   1   61.15    5.29
  -4  -3  -1   62.42    4.69
  -4   3  -1   72.40    6.75
  -4   3   1   63.63    6.41
  -4   3   2   31.75    4.59
  -4   3  -2   28.91    3.96
  -4  -3   2   32.52    4.21
  -4  -3  -2   31.29    3.05
  -4  -3   3   34.66    2.45
  -4   3   3   36.88    4.81
  -4  -3   3   41.19    4.95
  -4   3  -3   36.80    4.68
  -4   3  -4    7.65    2.19
  -4   3  -5   31.99    5.09
  -4   3  -6  222.20   12.51
  -4   3  -7   37.27    5.87
  -4   3  -8   13.24    4.22
  -4   3  -9   31.58    6.18
   4   3 -10    7.37    0.97
   4  -3 -10    9.94    2.52
   4   3 -11    7.08    1.35
   4  -3 -11    5.54    2.05
   4   3 -12   27.95    2.83
   4  -3 -12   22.03    4.29
  -4   3  13    8.83    1.83
   4  -3 -13   15.95    3.86
  -4   3  14   -7.92    4.06
   4  -3 -14    1.45    1.73
   4   3 -15   32.38    6.28
  -4   3  15   25.75    5.21
   4  -3 -15   26.60    5.39
   4   3 -16    5.33    2.69
  -4   3  16    6.69    2.53
   4  -3 -16    7.28    3.03
   4   3 -17   17.91    5.33
  -4   3  17   11.53    3.72
   4  -3 -17   15.56    4.17
   4   3 -18    5.49    2.80
  -4   3  18    3.85    2.60
   4  -3 -18    5.29    2.47
   4   3 -19    0.05    1.38
  -4   3  19    0.82    1.63
   4   3 -20   -0.07    1.30
  -4   3  20   -3.14    3.56
   4   3 -21    0.01    0.95
  -4   3  21   -5.24    3.60
   4   3 -22   -0.91    1.83
  -4   3  22    1.97    1.46
   4   3 -23   -0.44    1.04
  -4   3  23   -0.55    1.22
   4   3 -24   -0.88    1.81
  -4   3  24   -0.38    1.44
  -4   3  25   -4.13    3.98
   5   3   0  506.67   15.49
  -5  -3   0  520.77   15.58
  -5   3   0  537.58   19.60
   5   3  -1  697.92   19.04
  -5  -3   1  705.94   19.07
  -5   3  -1  718.74   22.62
   5   3   1  690.36   17.01
  -5   3   1  721.29   22.91
  -5   3   2  217.61   12.61
   5   3   2  214.65    8.88
  -5  -3   2  217.95   11.13
  -5   3  -2  206.68   12.23
  -5   3   3   92.31    8.18
   5   3   3   87.61    5.31
  -5   3  -3   84.46    7.76
  -5   3   4  127.53    9.74
   5   3   4  123.23    5.73
  -5   3  -4  131.68    9.76
   5   3   5  249.05    7.21
  -5   3  -5  260.97   14.28
   5   3   6  260.14    6.39
  -5   3  -6  291.37   15.04
  -5   3  -7   79.67    8.37
  -5   3  -8   17.08    4.91
  -5   3  -9   35.61    6.41
   5  -3 -10  101.84    9.11
  -5   3 -10  138.23   11.49
   5  -3 -11   60.32    7.03
  -5   3 -11   87.17    9.97
   5  -3 -12   33.29    5.33
   5   3  13    6.61    0.99
  -5   3  13    2.30    2.87
   5   3 -13   11.56    1.62
   5  -3 -13   12.45    3.76
   5  -3 -14   53.42    7.53
  -5   3  14   46.74    7.54
   5  -3 -15  269.25   16.79
  -5   3  15  268.33   18.89
   5  -3 -16   82.16    9.66
  -5   3  16   82.12   10.63
   5   3 -17   11.42    4.30
  -5   3  17    8.94    3.21
   5  -3 -17   13.25    3.71
   5   3 -18   12.95    4.59
  -5   3  18   12.52    4.21
   5  -3 -18   12.58    4.01
  -5   3  19   61.99   10.20
   5  -3 -19   69.87    9.41
   5   3 -19   67.34    9.87
   5  -3 -20   38.18    6.93
  -5   3  20   31.43    7.51
   5   3 -20   34.77    7.31
   5   3 -21   66.21   10.21
  -5   3  21   64.53   11.04
   5   3 -22   54.56    9.25
  -5   3  22   55.47   10.39
   5   3 -23    4.59    3.14
  -5   3  23    2.18    2.08
   5   3 -24    5.36    3.35
  -5   3  24   -0.65    2.57
  -5   3  25   60.01   11.48
   6   3   0   23.92    3.72
  -6   3   0   23.22    4.66
  -6   3  -1   33.24    4.81
   6   3  -1   42.19    4.99
   6   3   1   39.72    4.51
  -6   3   1   40.82    5.68
   6   3  -2   45.60    5.60
   6   3   2   44.05    4.48
  -6   3  -2   39.72    5.26
  -6   3   2   46.69    5.90
  -6   3   3  343.61   16.48
   6   3  -3  339.51   15.29
   6   3   3  321.55   11.37
  -6   3  -3  327.75   16.14
  -6   3   4  142.13   10.93
   6   3  -4  146.21   10.42
   6   3   4  145.01    7.17
  -6   3  -4  140.52   10.79
   6   3  -5  212.45   13.22
  -6   3   5  219.58   13.61
   6   3   5  208.58    8.02
  -6   3  -5  211.64   13.59
   6   3   6  159.83    6.47
  -6   3  -6  163.08   12.16
   6   3   7  161.41    6.03
  -6   3  -7  180.90   12.78
   6   3   8   28.13    2.34
  -6   3  -8   37.25    6.72
   6   3   9   25.34    2.09
  -6   3  -9   44.42    7.21
   6   3  10   10.58    1.28
   6  -3 -10    8.94    1.63
   6  -3 -11   79.83    8.77
  -6   3 -11   93.46   10.56
   6   3  12   30.11    2.29
   6  -3 -12   35.32    5.82
  -6   3  13   24.96    4.85
   6  -3 -13   29.06    5.56
   6  -3 -14   91.85   10.06
  -6   3  14   79.50   10.05
  -6   3  15   12.21    3.54
   6  -3 -15   17.71    5.29
  -6   3  16   24.93    5.92
   6  -3 -16   28.40    6.15
  -6   3  17   59.04    9.45
   6  -3 -17   65.00    9.05
  -6   3  18   21.47    6.12
   6  -3 -18   22.36    5.37
  -6   3  19   49.46    9.41
   6  -3 -19   53.68    8.59
   6   3 -19   59.61    9.74
   6   3 -20   23.40    6.51
  -6   3  20   20.58    6.25
   6  -3 -20   18.71    5.16
   6  -3 -21    5.23    2.87
   6   3 -21    8.29    4.06
  -6   3  21    3.28    1.83
   6   3 -22    2.10    2.49
  -6   3  22    0.55    1.65
   6   3 -23    4.52    3.32
  -6   3  23    0.83    2.48
   6   3 -24    4.67    3.01
  -6   3  24   -1.57    2.69
  -7   3   0    1.07    1.52
   7   3   0    1.36    1.06
  -7   3  -1    9.42    1.78
   7   3  -1   15.36    3.41
   7   3   1   16.90    3.17
  -7   3   1   14.64    3.69
   7   3  -2  520.62   19.48
   7   3   2  512.55   16.41
  -7   3  -2  515.02   21.24
  -7   3   2  527.15   21.30
   7   3   3   16.67    3.02
  -7   3   3   14.37    3.63
   7   3  -3   15.52    3.73
  -7   3  -3   12.66    3.17
  -7  -3   4    1.86    0.64
   7   3  -4    3.54    2.25
  -7   3   4    0.38    1.00
   7   3   4    2.25    1.16
  -7   3  -4    1.62    1.03
  -7   3   5   30.10    5.26
   7   3   5   30.84    3.57
   7   3  -5   34.44    5.56
  -7   3  -5   36.21    6.03
   7   3  -6  302.63   16.91
   7   3   6  299.48   10.44
  -7   3  -6  327.64   17.49
  -7   3  -7   19.81    5.39
   7   3  -7   14.78    4.67
   7   3   7   10.79    1.81
   7   3  -8  488.48   22.66
   7   3   8  477.11   12.00
  -7   3  -8  470.61   21.85
   7   3   9   17.08    2.17
  -7   3  -9   32.93    6.90
  -7   3 -10   28.55    6.57
   7  -3 -10   15.62    3.96
   7  -3 -11   47.67    7.13
  -7   3 -11   83.12   10.48
   7  -3 -12  532.58   24.80
  -7   3 -12  551.39   25.21
  -7   3 -13   60.65   10.19
   7  -3 -13    3.61    2.19
  -7   3  14  513.36   26.17
   7  -3 -14  512.28   24.68
  -7   3  15   13.38    4.51
   7  -3 -15   17.03    5.19
  -7   3  16    9.63    3.80
   7  -3 -16   10.05    4.05
  -7   3  17   14.49    5.14
   7  -3 -17   19.90    5.56
   7  -3 -18  238.99   18.62
  -7   3  18  238.26   19.87
  -7   3  19   11.61    4.96
   7  -3 -19   11.54    4.44
  -7   3  20   88.98   12.89
   7  -3 -20  105.29   12.70
   7   3 -21    3.21    2.99
  -7   3  21   -0.74    2.39
   7  -3 -21    1.27    1.75
   7   3 -22   -0.39    1.01
   7  -3 -22    1.05    2.51
  -7   3  22   -1.06    1.85
   7   3 -23    5.46    3.42
  -7   3  23    6.36    3.34
  -7   3  24   61.01   11.65
   7   3 -24   62.74   10.71
  -8   3   0    7.30    3.07
   8   3   0    5.16    2.45
  -8   3  -1    7.96    2.12
   8   3  -1    8.21    2.53
   8   3   1   12.15    3.38
  -8   3   1   11.74    3.71
  -8   3   2   25.56    4.90
   8   3   2   23.69    4.05
   8   3  -2   24.51    4.35
  -8   3  -2   21.68    4.18
  -8   3   3   17.49    3.85
   8   3   3   21.22    3.62
  -8  -3   3   28.22    3.21
   8   3  -3   19.74    4.38
  -8   3  -3   18.47    4.02
   8   3  -4    0.31    1.97
  -8  -3   4    0.50    0.38
   8   3   4    0.97    1.01
  -8   3  -4    0.74    1.23
  -8   3   4    0.64    1.26
   8   3  -5    6.70    2.89
  -8   3  -5    6.23    3.44
  -8   3   5    6.25    3.17
   8   3   5    4.30    1.46
  -8  -3  -6   15.03    2.84
   8   3  -6   17.01    4.69
  -8   3  -6   22.30    5.29
   8   3   6   14.84    2.64
  -8   3   6   14.74    3.75
   8   3   7   39.11    4.18
   8   3  -7   39.19    6.72
  -8   3  -7   45.01    7.23
  -8  -3  -7   37.65    4.61
   8   3   8   24.67    3.21
   8   3  -8   28.64    6.05
  -8   3  -8   32.41    6.62
   8   3   9   25.58    3.11
   8   3  -9   31.44    6.35
  -8   3  -9   31.44    6.75
  -8   3 -10   40.05    7.84
   8  -3 -10   17.27    3.56
  -8   3 -11   43.33    8.64
   8  -3 -11   16.06    3.93
  -8   3 -12   28.36    7.81
   8  -3 -12    1.16    1.67
  -8   3 -13   43.97    8.76
   8  -3 -13   14.80    4.20
  -8   3 -14   52.21    9.42
   8  -3 -14   26.90    6.17
  -8   3  15   24.44    5.77
   8  -3 -15   29.28    6.45
   8  -3 -16   52.83    8.95
  -8   3  16   48.90    8.92
   8  -3 -17   71.16   10.39
  -8   3  17   61.64   10.04
  -8   3  18    5.99    3.32
   8  -3 -18   11.72    4.49
  -8   3  19    3.00    1.55
   8  -3 -19    3.76    2.09
  -8   3  20   -2.43    2.76
   8  -3 -20    1.94    1.15
  -8   3  21    1.21    1.40
   8  -3 -21    2.79    2.95
   8   3 -22    2.10    2.56
  -8   3  22   -1.54    1.65
   8  -3 -22   -3.09    2.06
   8   3 -23    1.32    2.16
   8  -3 -23    1.85    2.46
  -8   3  23   -0.47    2.21
   8   3 -24   -0.89    2.00
  -9   3   0   15.07    5.11
   9   3   0   17.08    4.50
  -9   3   1 1112.38   33.54
   9   3  -1 1105.90   30.57
   9   3   1 1077.37   28.54
  -9   3  -1 1091.76   33.95
   9  -3   1 1093.07   24.86
   9   3  -2   25.04    5.72
   9   3   2   27.24    4.86
  -9   3   2   28.65    6.06
  -9   3  -2   19.93    4.72
  -9   3   3    2.90    2.10
  -9  -3   3    7.10    2.26
   9   3  -3    2.02    1.92
   9   3   3    3.26    1.96
  -9   3  -3   -0.70    1.72
  -9   3   4  335.53   18.94
   9   3  -4  349.09   18.68
   9   3   4  333.98   14.65
  -9  -3   4  324.11    9.65
  -9   3  -4  338.44   19.33
  -9   3   5  771.72   28.26
   9   3  -5  778.03   28.78
   9   3   5  747.87   21.31
  -9   3  -5  802.74   29.83
  -9  -3   5  702.74   11.88
  -9   3   6   44.60    6.95
  -9  -3  -6   36.36    4.37
   9   3  -6   47.63    7.57
   9   3   6   39.48    4.77
  -9   3  -6   44.71    7.32
   9   3  -7  595.48   26.19
   9   3   7  572.03   17.59
  -9   3  -7  571.35   25.87
  -9  -3  -7  558.56   17.43
  -9  -3  -8   54.14    5.50
   9   3   8   56.63    5.40
   9   3  -8   64.72    9.33
  -9   3  -8   62.90    9.13
   9   3  -9    5.68    4.04
   9   3   9    2.24    1.07
   9   3 -10  329.20   21.17
   9  -3 -10  340.42   20.89
  -9   3 -10  344.90   20.71
   9   3 -11  272.96   19.47
   9  -3 -11  272.05   18.66
  -9   3 -11  267.40   18.80
   9  -3 -12  210.07   16.67
  -9   3 -12  211.81   17.26
   9  -3 -13   47.70    8.08
  -9   3 -13   78.83   11.29
   9  -3 -14   50.51    8.57
  -9   3 -14   82.42   11.31
  -9   3 -15   68.04   11.33
   9  -3 -15   33.00    7.16
   9  -3 -16  222.87   18.39
  -9   3 -16  226.99   19.00
  -9   3  17   26.13    6.57
   9  -3 -17   24.80    6.81
   9  -3 -18   46.56    9.03
  -9   3  18   43.78    8.80
  -9   3  19   11.52    4.44
   9  -3 -19   13.53    4.80
  -9   3  20   -2.34    3.14
   9  -3 -20   -0.64    1.34
   9  -3 -21   51.35    9.59
  -9   3  21   49.01   10.16
   9  -3 -22   36.45    8.43
  -9   3  22   38.06    9.18
   9   3 -23    6.00    3.93
  -9   3  23    2.15    1.85
   9  -3 -23    7.06    4.48
   9   3 -24   12.60    5.31
 -10   3   0    9.34    4.31
  10   3   0    7.13    3.46
 -10   3  -1    6.94    2.36
  10  -3   1    7.27    1.97
 -10   3   1   11.87    4.38
  10   3  -1   11.52    3.89
  10   3   1   10.29    3.67
 -10   3  -2    3.48    2.26
  10  -3   2    2.89    1.08
 -10  -3   2   14.51    3.38
  10   3  -2    7.37    3.79
  10   3   2    5.74    2.42
 -10   3   2    3.54    2.36
 -10   3   3    1.63    1.03
  10  -3   3   -1.01    1.18
 -10  -3   3    3.56    1.72
  10   3  -3    4.68    3.38
  10   3   3    1.27    1.40
 -10   3  -3    0.95    1.29
 -10   3   4    8.87    3.05
  10   3  -4   11.42    3.92
  10   3   4    8.21    2.54
 -10   3  -4    9.93    3.72
 -10  -3   4    8.12    1.54
 -10   3   5   -0.72    1.27
 -10  -3  -5    0.08    0.73
 -10  -3   5    2.00    0.85
  10   3  -5    3.25    3.02
 -10   3  -5    2.78    2.20
  10   3   5    0.73    0.77
 -10  -3   6    7.02    1.12
  10   3  -6    9.41    3.83
 -10   3  -6    8.11    3.71
  10   3   6    5.75    1.82
 -10   3   6    4.87    1.84
 -10   3  -7   17.91    4.90
  10   3  -7   17.16    4.99
  10   3   7   11.45    2.71
 -10   3   7   12.77    3.53
  10   3  -8    1.66    2.48
  10   3   8   -0.89    1.18
 -10   3  -9    7.72    4.43
  10   3  -9    3.09    2.69
  10   3   9    3.15    1.33
 -10   3 -10   21.98    6.40
  10   3 -10   12.96    5.06
  10  -3 -10    8.52    3.16
  10   3 -11    1.95    2.86
  10  -3 -11   -1.19    2.20
  10   3 -12    9.14    4.71
 -10   3 -12   13.44    5.73
  10  -3 -12    3.82    1.79
 -10   3 -13   19.22    6.22
  10  -3 -13    7.86    3.26
 -10   3 -14   16.46    6.45
  10  -3 -14   -0.32    1.77
 -10   3 -15   16.66    6.85
  10  -3 -15    1.54    2.87
 -10   3 -16   34.10    8.46
  10  -3 -16   11.01    4.67
 -10   3 -17   16.71    6.59
  10  -3 -17    1.69    2.83
 -10   3 -18   26.62    8.11
  10  -3 -18    4.46    3.86
 -10   3 -19   18.79    7.23
  10  -3 -19   -2.17    3.44
 -10   3 -20   33.69    9.02
  10  -3 -20    2.00    2.80
 -10   3 -21   27.23    8.61
  10  -3 -21    3.93    2.99
  10  -3 -22    4.06    3.59
 -10   3 -22   26.34    8.25
  10  -3 -23    3.12    3.08
  10   3 -24    1.55    2.22
  10  -3 -24    4.37    3.56
  11   3   0   32.75    7.21
 -11   3   0   48.79    8.57
  11   3  -1  662.34   26.23
  11   3   1  674.32   25.45
 -11  -3   1  651.73   20.03
 -11   3  -1  670.94   28.72
 -11   3   1  682.15   28.63
  11   3  -2  134.75   12.33
  11   3   2  133.89   11.23
 -11  -3   2  143.79    9.03
 -11   3  -2  127.79   12.82
 -11   3   2  142.36   13.24
  11   3  -3  748.89   29.33
  11   3   3  733.82   25.60
 -11  -3   3  741.25   19.20
 -11   3  -3  765.66   31.08
 -11   3   3  746.27   30.15
 -11   3   4  101.81   11.33
  11   3  -4  113.03   11.72
  11   3   4  106.86    9.68
 -11   3  -4   98.18   11.44
 -11  -3   4  106.57    6.66
 -11   3   5  195.44   15.52
  11   3  -5  198.12   15.95
  11   3   5  201.85   12.85
 -11   3  -5  224.16   17.00
  11   3  -6   23.50    5.70
 -11   3  -6   26.46    6.12
  11   3   6   19.92    4.02
 -11   3   6   21.97    5.22
 -11   3   7   34.94    6.66
  11   3   7   38.61    5.40
  11   3  -7   35.25    7.27
 -11   3  -7   40.24    7.41
  11   3  -8  103.44   12.18
  11   3   8   98.59    8.45
 -11   3  -8  100.84   12.21
  11   3  -9  321.94   21.81
  11   3   9  321.34   15.09
 -11   3  -9  308.89   21.24
 -11   3 -10   19.93    5.93
  11   3 -10   15.47    5.04
  11  -3 -10   13.25    4.19
  11   3 -11   65.90   10.54
  11  -3 -11   59.49    9.52
 -11   3 -11   70.09   10.63
  11   3 -12   53.54    9.69
  11  -3 -12   48.77    8.95
 -11   3 -12   51.78    9.46
  11   3 -13   51.34    9.41
  11  -3 -13   48.86    9.19
 -11   3 -13   56.53    9.90
 -11   3 -14   45.71    9.13
  11  -3 -14   39.72    8.15
 -11   3 -15   19.29    6.62
  11  -3 -15   15.48    5.63
 -11   3 -16   15.11    6.83
  11  -3 -16    2.25    2.51
 -11   3 -17   51.80   10.41
  11  -3 -17   32.88    7.90
  11  -3 -18   47.88    9.63
 -11   3 -18   63.43   11.27
 -11   3 -19   36.34    9.06
  11  -3 -19   19.18    6.32
 -11   3 -20   30.70    8.72
  11  -3 -20   12.25    4.80
  11  -3 -21    8.51    4.53
  11  -3 -22    2.39    2.39
  11  -3 -23   22.49    7.26
 -12   3   0   12.33    4.51
  12   3   0   10.00    3.40
 -12   3  -1   10.88    3.34
 -12  -3   1   20.99    4.30
 -12   3   1   16.68    4.78
  12   3  -1   15.63    4.63
  12   3   1   13.46    4.06
  12   3  -2   76.16    9.57
  12   3   2   73.30    8.63
 -12  -3   2   73.98    6.78
 -12   3  -2   70.27    9.58
 -12   3   2   76.05    9.87
  12   3  -3  142.75   13.51
  12   3   3  150.39   12.28
 -12  -3   3  142.64    8.97
 -12   3  -3  156.06   14.63
 -12   3   3  142.89   13.61
 -12   3   4   77.75   10.10
  12   3  -4   87.82   10.82
  12   3   4   80.80    8.93
 -12   3  -4   75.18   10.25
  12   3  -5   11.96    3.86
  12   3   5   13.79    3.57
 -12   3  -5   12.95    4.12
 -12   3   5   11.40    3.74
  12   3  -6    2.06    2.54
 -12   3   6    1.07    1.31
 -12   3  -6    2.25    1.98
  12   3   6    0.99    0.79
 -12   3   7    3.09    1.73
  12   3  -7    3.66    2.79
 -12   3  -7    2.99    1.93
  12   3   7    2.41    1.73
  12   3  -8   10.03    4.11
 -12   3  -8   10.88    4.03
  12   3   8   11.91    3.05
 -12   3  -9   17.48    4.96
  12   3  -9   13.39    5.01
 -12   3 -10   23.14    6.45
  12   3 -10   21.34    5.52
  12  -3 -10   18.64    5.53
 -12   3 -11   23.16    6.40
  12   3 -11   16.60    5.32
  12  -3 -11   18.20    5.36
  12   3 -12   36.71    8.26
 -12   3 -12   43.94    8.91
  12  -3 -12   34.73    7.78
  12   3 -13    4.54    3.84
  12  -3 -13    1.81    2.10
  12   3 -14    6.52    4.33
  12  -3 -14    0.65    2.40
 -12   3 -15   13.91    6.24
  12  -3 -15    0.08    1.51
 -12   3 -16    7.20    4.60
  12  -3 -16    1.47    2.83
 -12   3 -17   18.72    6.76
  12  -3 -17    1.44    1.99
 -12   3 -18   22.42    7.70
  12  -3 -18   14.83    5.81
 -12   3 -19   10.33    6.01
  12  -3 -19    3.28    3.58
  12  -3 -20    3.24    3.38
  12  -3 -21    8.14    4.88
  13   3   0   43.60    7.33
 -13  -3   0   48.33    6.38
 -13   3   0   46.85    8.19
 -13   3  -1   10.95    4.15
 -13  -3   1   13.05    3.20
 -13  -3  -1   21.03    4.85
  13   3  -1   10.73    3.87
 -13   3   1    8.70    3.30
  13   3   1   11.34    3.61
 -13   3  -2   -0.78    2.09
  13   3  -2    3.00    2.62
  13   3   2    2.41    1.85
 -13   3   2    1.02    1.57
 -13   3   3   15.76    4.76
  13   3  -3   19.10    5.16
  13   3   3   15.47    4.30
 -13   3  -3   11.94    3.71
 -13   3   4  111.04   12.58
  13   3  -4  110.35   12.65
  13   3   4  106.94   10.72
 -13   3  -4  106.87   12.72
  13   3  -5    6.66    3.38
  13   3   5    3.33    1.68
 -13   3  -5    3.27    1.37
 -13   3   5    3.04    1.80
  13   3   6   29.05    5.30
  13   3  -6   32.81    7.14
 -13   3   6   30.49    6.69
 -13   3  -6   27.78    6.43
  13   3  -7   11.72    4.59
 -13   3  -7   13.40    4.52
  13   3   7   15.04    3.64
 -13   3   7   15.41    4.71
  13   3  -8   19.75    5.60
 -13   3  -8   24.31    6.06
  13   3  -9   18.08    5.85
 -13   3  -9   17.80    5.57
  13  -3  -9   16.25    4.97
  13   3 -10  140.68   15.93
  13  -3 -10  153.38   16.59
 -13   3 -10  142.13   15.57
 -13   3 -11   10.05    4.89
  13   3 -11    6.35    3.67
  13  -3 -11    5.35    3.54
  13   3 -12   72.15   11.65
  13  -3 -12   64.90   11.25
 -13   3 -12   73.30   11.46
 -13   3 -13   26.44    7.47
  13   3 -13   23.67    7.75
  13  -3 -13   20.34    6.39
  13   3 -14   63.63   11.48
  13  -3 -14   56.79   10.68
 -13   3 -14   65.18   11.56
 -13   3 -15   28.74    8.01
  13  -3 -15   17.37    6.40
  13  -3 -16  107.76   14.87
 -13   3 -16  109.48   14.78
 -13   3 -17   18.85    6.65
  13  -3 -17    5.68    3.72
  13  -3 -18    9.60    4.74
  13  -3 -19    9.01    5.13
  14   3   0   55.22    8.57
 -14   3   0   55.94    9.15
 -14   3  -1   12.34    4.66
 -14  -3  -1   21.81    4.86
  14   3  -1   18.71    5.32
  14   3   1   10.74    4.05
 -14   3   1   10.48    3.93
  14   3  -2   59.34    9.39
  14   3   2   61.72    8.89
 -14  -3  -2   72.61    8.86
 -14   3  -2   63.42    9.74
 -14   3   2   67.15    9.88
 -14   3  -3    1.59    1.96
 -14   3   3    9.35    3.86
  14   3  -3   14.78    5.01
  14   3   3    7.64    3.13
 -14   3   4   -0.38    1.36
  14   3  -4    3.81    3.21
  14   3   4    2.17    1.45
 -14   3  -4   -2.80    3.51
  14   3  -5   11.49    4.78
  14   3   5    8.20    2.96
 -14   3  -5    4.32    2.52
 -14   3   5    9.51    3.92
  14   3  -6    3.11    2.25
 -14   3   6    2.99    2.68
  14   3   6    4.22    2.21
 -14   3  -6    7.00    3.26
 -14   3   7    0.31    1.52
  14   3  -7    0.07    1.79
 -14   3  -7    0.16    2.13
  14   3  -8   -0.24    1.64
 -14   3  -8    0.21    1.71
  14   3  -9   -0.32    1.64
 -14   3  -9    1.31    1.53
  14  -3  -9   -0.65    2.82
  14   3 -10   27.69    7.52
 -14   3 -10   19.36    5.98
  14  -3 -10   15.78    5.10
  14   3 -11    2.93    3.28
 -14   3 -11    5.94    4.34
  14  -3 -11    1.83    1.87
 -14   3 -12    4.67    3.35
  14   3 -12    0.66    2.06
  14  -3 -12    4.72    4.08
 -14   3 -13    5.91    3.89
  14   3 -13    6.15    4.63
  14  -3 -13   -0.41    2.63
 -14   3 -14    7.77    4.26
  14   3 -14    7.20    4.56
  14  -3 -14    3.50    2.42
  14   3 -15    6.57    4.45
 -14   3 -15    8.17    4.87
  14  -3 -15    7.07    4.08
  14  -3 -16   13.64    5.80
 -15   3   0   18.72    5.39
  15   3   0   24.23    6.27
 -15   3  -1   16.05    5.21
  15   3  -1   15.44    5.26
  15   3   1   12.57    4.44
 -15   3   1   14.47    4.64
 -15   3  -2    6.81    3.13
  15   3  -2   17.95    5.51
  15   3   2   13.52    4.38
 -15   3   2   18.04    5.68
  15   3  -3   50.15    9.13
  15   3   3   42.65    7.66
 -15   3  -3   46.90    8.76
 -15   3   3   49.98    9.02
 -15   3  -4    7.15    3.22
 -15   3   4   11.50    4.45
  15   3  -4   12.47    5.05
  15   3   4   11.14    3.88
  15   3  -5   13.74    5.01
 -15   3  -5    8.35    3.87
  15   3   5    9.93    3.57
 -15   3   5   11.36    4.26
  15   3  -6   15.12    5.16
 -15   3   6   16.44    5.03
 -15   3  -6   16.02    5.25
 -15   3   7    9.94    3.88
  15   3  -7    9.18    4.09
 -15   3  -7    7.20    3.44
  15   3  -8   14.82    5.69
 -15   3  -8   10.89    4.16
  15   3  -9    6.92    3.51
 -15   3  -9    6.13    3.51
  15  -3  -9    7.68    3.65
  15   3 -10    3.02    4.00
 -15   3 -10    0.37    2.52
  15  -3 -10    4.11    3.15
  15   3 -11   12.13    5.59
 -15   3 -11    6.34    3.74
  15  -3 -11    5.26    2.78
  15   3 -12   34.73    8.81
 -15   3 -12   31.24    7.92
  15  -3 -12   31.22    8.26
  15   3 -13    3.51    3.25
  15  -3 -13    0.17    1.78
  15  -3 -14    9.30    4.45
  16   3   0    2.63    3.26
 -16   3   0    0.68    1.29
 -16   3  -1    1.45    2.71
  16   3  -1    0.39    1.87
  16   3   1    0.86    2.13
 -16   3   1    1.53    1.29
 -16   3  -2   -0.75    1.36
  16   3  -2    1.43    2.09
  16   3   2    0.45    1.88
 -16   3   2   -0.45    1.70
 -16   3  -3   -2.78    3.49
 -16   3   3   -0.44    1.80
  16   3  -3    3.23    3.07
  16   3   3    3.07    2.36
  16   3  -4    3.44    3.23
 -16   3   4    1.80    1.92
 -16   3  -4   -1.92    3.22
 -16   3   5    2.16    1.27
  16   3  -5    4.61    3.43
 -16   3  -5   -0.06    2.07
  16   3  -6   -2.55    3.52
 -16   3   6   -1.44    2.23
 -16   3  -6   -1.62    2.64
  16   3  -7    0.25    1.46
 -16   3   7    2.11    1.24
 -16   3  -7    2.33    1.44
  16   3  -8    1.37    2.35
 -16   3  -8   -3.64    3.80
  16  -3  -8   -3.65    4.39
  16   3  -9    1.00    2.37
 -16   3  -9   -1.48    2.62
  16  -3  -9   -0.57    2.80
  16   3 -10   -0.16    1.34
 -16   3 -10    0.08    1.75
  16  -3 -10   -2.96    4.03
  16   3 -11    7.77    4.95
  17   3   0    3.63    3.24
 -17   3   0    2.10    2.25
  17   3  -1   58.66   10.23
  17   3   1   61.99   10.26
 -17   3  -1   53.67   10.06
 -17   3   1   54.73   10.09
 -17   3  -2   30.86    7.71
  17   3  -2   27.14    7.13
  17   3   2   28.84    7.08
 -17   3   2   26.13    6.91
 -17   3  -3    2.68    2.38
 -17   3   3    3.47    2.61
  17   3  -3    6.34    3.86
 -17   3  -4   16.73    5.49
  17   3  -4   25.10    7.17
 -17   3   4   25.63    7.08
 -17   3  -5   23.10    6.66
 -17   3   5   21.97    6.39
  17   3  -5   24.69    7.15
 -17   3   6   -1.30    1.57
  17   3  -6    3.97    3.47
 -17   3  -6   -4.22    3.13
 -17   3   7    4.84    2.72
  17   3  -7    8.35    4.24
 -17   3  -7    6.82    3.83
  17   3  -8    2.25    3.01
  17   3  -9    5.89    4.07
  18   3   0    1.55    1.74
 -18   3   0    2.69    2.87
  18   3  -1    0.23    1.52
 -18   3  -1   -0.66    1.31
 -18   3   1    2.18    2.47
 -18   3   2    0.72    1.32
 -18   3  -2    2.45    2.55
  18   3  -2    1.18    2.78
 -18   3  -3    0.43    2.08
 -18   3   3   -2.93    2.77
  18   3  -3    1.46    2.09
  18   3  -4    4.53    3.61
 -18   3   4    5.43    3.33
 -18   3   5    0.90    1.55
  18   3  -5    3.79    3.29
 -18   3   6   23.42    6.64
  18   3  -6   18.11    6.29
  19   3  -1    6.53    4.00
  19   3  -2    9.24    4.62
   0   4   0  132.27    9.05
   0   4   1   -0.42    1.46
   0   4  -1   -1.52    1.51
   0  -4   1    0.30    0.70
   0   4  -2  277.96   11.92
   0  -4   2  277.53   11.98
   0   4   2  273.24   12.18
   0   4  -2  274.47   13.87
   0   4   3   -0.54    0.65
   0   4  -3   -0.73    0.70
   0  -4   3    0.03    0.96
   0   4  -4 1008.53   22.46
   0   4  -4  993.52   27.89
   0  -4   4 1010.37   22.11
   0   4   4  993.29   21.71
   0   4   5    0.32    0.95
   0   4  -5    7.10    4.00
   0  -4   5    6.15    2.20
   0   4  -5    1.56    1.47
   0   4  -6  492.90   20.57
   0   4  -6  476.96   15.46
   0   4   6  476.28   13.84
   0   4  -7    2.92    2.71
   0   4  -7   -2.01    1.71
   0   4  -8  272.50   16.15
   0   4  -8  270.34   12.02
   0  -4  -9    0.30    0.34
   0   4  -9    0.10    0.81
   0  -4 -10  962.93   17.26
   0   4 -10  957.03   23.68
   0   4 -10  973.24   31.61
   0   4 -11    7.77    4.33
   0   4 -11    5.41    2.53
   0  -4 -11    0.50    0.72
   0  -4 -12  374.20   11.52
   0   4 -12  364.90   15.39
   0   4 -12  385.20   20.33
   0   4 -13    6.62    3.98
   0   4 -13   -0.57    1.25
   0   4 -14   96.48    8.54
   0   4 -14   92.03   10.49
   0   4 -15   -0.92    1.51
   0   4 -15    9.97    4.56
   0   4 -16  395.54   17.58
   0   4 -16  378.98   22.13
   0   4 -17    0.35    1.94
   0   4 -17   18.69    5.33
   0   4 -18   85.96   10.92
   0   4 -19    0.68    1.07
   0   4 -20   22.87    5.90
   0   4 -21    0.85    1.45
   0   4 -22  134.11   14.65
   0   4 -23    2.16    2.26
   0   4 -24   -0.93    1.64
   0   4 -25   -1.05    2.37
  -1  -4   0  730.97   19.42
  -1   4   0  728.02   21.49
   1   4   0  714.55   21.13
  -1  -4  -1  288.41   12.54
  -1   4  -1  285.82   13.08
  -1  -4   1  279.68   11.72
  -1   4   1  287.09   13.05
  -1   4  -1  292.64   13.90
   1   4   1  279.24   12.94
   1   4  -1  291.82   13.98
  -1   4  -2  137.14    8.97
  -1  -4   2  143.12    8.04
  -1   4   2  143.53    8.94
  -1   4  -2  144.04   10.06
   1   4   2  135.78    8.75
   1   4  -2  135.53    9.87
   1  -4  -2  142.83    8.95
  -1  -4   3   37.72    4.02
  -1   4   3   38.46    4.53
  -1   4  -3   45.68    5.97
   1   4   3   44.42    4.81
   1   4  -3   40.72    5.68
   1  -4  -3   40.45    4.78
  -1   4  -3   40.91    4.78
   1   4  -4   42.13    4.28
  -1  -4   4   36.82    4.00
  -1   4  -4   39.79    5.71
  -1   4  -4   40.68    4.64
   1   4   4   37.67    4.23
   1   4  -4   39.62    5.34
   1  -4  -4   41.88    4.58
   1   4  -5   63.37    5.11
  -1   4  -5   61.64    6.02
  -1  -4   5   68.23    5.33
  -1   4  -5   60.72    7.15
   1   4   5   64.03    5.27
   1   4  -5   61.71    7.18
   1  -4  -5   69.80    5.59
   1   4  -6   50.72    6.51
   1  -4  -6   49.92    4.63
  -1   4  -6   43.73    4.86
  -1   4  -6   52.23    6.56
   1   4   6   49.12    4.41
   1   4  -6   50.82    4.60
   1   4   7    7.58    1.60
  -1   4  -7   10.10    3.10
   1   4  -7    9.28    3.31
   1  -4  -7    8.97    1.99
   1   4  -7    9.84    2.23
  -1   4  -7    6.35    1.53
  -1  -4  -8   87.93    3.71
  -1   4  -8   88.51    7.39
   1   4  -8   86.73    6.11
   1   4   8   90.18    5.18
  -1   4  -8   96.44    9.57
   1   4  -8   91.30    9.33
  -1  -4  -9  192.72    5.42
   1  -4  -9  198.86    9.21
  -1   4  -9  203.96   11.48
   1   4  -9  198.18    9.57
  -1   4  -9  201.80   14.00
   1   4  -9  197.10   14.03
   1  -4 -10  113.62    7.09
  -1   4 -10  110.67    8.75
   1   4 -10  114.56    7.58
  -1   4 -10  116.13   11.02
   1   4 -10  109.45   10.71
   1   4 -11   26.07    5.51
   1  -4 -11   24.13    3.38
  -1   4 -11   33.88    5.31
  -1   4 -11   27.84    5.58
   1   4 -11   26.80    3.90
   1  -4 -12   80.86    6.28
  -1   4 -12   82.46    7.93
   1   4 -12   80.52    6.79
   1   4 -12   83.93    9.70
  -1   4 -12   77.72    9.24
  -1   4 -13    2.37    1.55
   1   4 -13    2.54    1.45
  -1   4 -13   10.19    4.16
   1   4 -13    8.50    3.15
   1  -4 -13    3.41    1.34
  -1   4 -14    3.65    2.38
   1   4 -14    0.79    1.38
  -1   4 -14   10.66    4.54
   1   4 -14   10.83    3.25
   1  -4 -14    4.54    1.96
  -1   4 -15   22.34    5.03
   1   4 -15   21.88    5.34
  -1   4 -15   36.01    6.12
   1   4 -15   32.29    5.10
  -1   4 -16    8.73    3.18
   1   4 -16    8.27    3.23
  -1   4 -16   22.53    5.89
   1   4 -16   22.22    4.49
  -1   4 -17   12.47    3.68
   1   4 -17   13.47    3.97
  -1   4 -17   29.57    6.70
   1   4 -17   28.56    5.42
  -1   4 -18   10.14    3.71
   1   4 -18    8.91    3.39
  -1   4 -19    3.72    2.09
   1   4 -19    7.07    3.56
   1   4 -20    2.25    2.21
  -1   4 -20    1.91    2.58
   1   4 -21   20.94    5.71
  -1   4 -21   19.24    5.56
   1   4 -22   20.68    5.67
  -1   4 -22   13.32    4.77
   1   4 -23   13.31    4.90
  -1   4 -23   16.56    5.48
   1   4 -24    3.43    2.52
  -1   4 -24    2.72    1.88
   1   4 -25    2.77    2.22
   2   4   0  148.81   10.18
  -2  -4   0  132.52    8.04
  -2   4   0  132.89    9.80
  -2   4   0  139.64    9.70
  -2  -4   1 1188.68   23.10
  -2   4  -1 1223.73   28.05
  -2   4  -1 1180.62   29.03
   2   4   1 1200.22   27.06
   2   4  -1 1176.01   28.59
  -2   4  -2   31.60    5.10
  -2  -4   2   30.40    3.60
   2   4   2   35.63    4.90
   2   4  -2   38.58    5.96
  -2   4  -2   31.20    4.74
  -2   4  -3  261.08   12.87
   2   4   3  253.26   11.81
  -2  -4   3  250.33    9.84
  -2   4  -3  262.99   14.08
   2  -4  -3  252.00   11.93
   2   4  -3  254.87   14.13
   2  -4  -4   97.82    7.28
  -2  -4   4   93.31    5.87
  -2   4  -4   98.15    7.84
  -2   4  -4   95.85    8.88
   2   4   4   94.36    6.98
   2   4  -4  103.89    9.16
  -2   4  -5   26.07    4.70
   2   4  -5   26.81    4.95
  -2   4  -5   25.23    3.59
  -2  -4   5   31.02    3.39
   2  -4  -5   28.77    3.84
   2   4   5   26.91    3.56
   2   4  -6   40.87    3.79
  -2   4  -6   43.45    5.12
  -2   4  -6   45.38    6.17
   2  -4  -6   42.67    4.54
   2   4   6   43.53    4.28
   2   4  -6   46.98    6.63
  -2   4  -7   80.32    8.54
  -2   4  -7   89.29    7.49
   2  -4  -7   84.34    6.10
   2   4   7   85.16    5.67
   2   4  -7   84.29    8.93
   2   4  -7   86.65    5.39
  -2   4  -8   43.11    5.38
  -2   4  -8   41.08    6.51
   2   4  -8   43.08    3.91
   2   4   8   43.79    3.76
   2  -4  -8   41.35    4.08
   2   4  -8   41.76    6.40
  -2   4  -9  314.40   15.19
   2   4  -9  318.45   10.78
  -2   4  -9  313.85   17.73
   2   4   9  316.11    9.26
   2  -4  -9  309.33   10.55
   2   4  -9  319.93   17.91
   2   4  10    3.21    0.86
  -2   4 -10    4.37    2.12
   2  -4 -10    3.61    1.09
   2   4 -10    0.71    1.27
  -2   4 -10    8.33    3.28
   2  -4 -10    1.35    0.63
   2   4 -10    1.18    0.91
   2  -4 -11   39.24    3.21
  -2   4 -11   37.00    6.31
   2  -4 -11   40.23    4.83
  -2   4 -11   49.82    6.41
   2   4 -11   39.51    4.04
   2   4 -11   45.46    7.02
   2   4 -12   94.04   10.42
   2  -4 -12   99.51    7.80
  -2   4 -12  105.73    9.42
   2   4 -12   95.92    6.59
  -2   4 -12   96.38   10.41
   2  -4 -13  297.64   13.71
  -2   4 -13  296.31   15.88
  -2   4 -13  317.98   18.95
   2   4 -13  296.74   11.99
   2   4 -13  309.08   18.91
   2  -4 -14   48.95    5.75
  -2   4 -14   61.74    7.92
   2   4 -14   54.12    5.53
   2   4 -14   48.74    7.73
  -2   4 -14   49.89    7.98
  -2   4 -15   29.83    6.10
   2   4 -15   27.51    6.10
   2  -4 -15   30.46    4.72
  -2   4 -15   44.73    7.03
   2   4 -15   35.25    4.76
  -2   4 -16    2.16    1.60
   2   4 -16    2.91    1.79
   2   4 -16    8.22    2.99
   2  -4 -16    2.86    2.16
  -2   4 -17  128.56   11.80
   2   4 -17  123.61    9.01
  -2   4 -17  120.83   12.81
   2   4 -17  114.50   12.51
   2   4 -18   30.31    6.54
  -2   4 -18   34.04    6.95
  -2   4 -19  107.63   12.62
   2   4 -19  117.53   13.10
  -2   4 -20    5.38    3.00
   2   4 -20    3.67    2.58
   2   4 -21   -0.10    2.66
   2   4 -22    1.17    2.10
   2   4 -23   31.93    7.31
   2   4 -24    2.44    2.03
   2   4 -25   48.46    9.37
  -3   4   0   85.75    7.89
  -3  -4   0   89.30    6.41
  -3  -4   1  238.74   10.01
  -3   4   1  243.19   13.53
  -3  -4   1  245.25   11.29
  -3  -4  -1  246.22    9.99
  -3   4  -1  254.51   13.41
  -3  -4   2  205.41   10.95
  -3  -4  -2  202.64    8.40
  -3   4  -2  204.39   12.07
  -3  -4   2  195.21    8.60
  -3  -4  -3   77.08    4.66
  -3  -4   3   75.70    5.06
  -3   4  -3   74.77    7.19
  -3  -4  -4  109.67    4.74
  -3  -4   4  111.32    5.74
  -3   4  -4  115.85    8.98
  -3  -4  -5  158.38    4.32
  -3  -4   5  163.27    6.63
  -3   4  -5  171.46   11.00
   3  -4  -5  174.39    9.89
  -3   4  -6   39.10    5.05
  -3   4  -6   45.56    6.54
   3  -4  -6   41.92    4.79
  -3   4  -7   30.30    4.80
   3  -4  -7   30.22    3.89
  -3   4  -7   29.05    5.16
   3   4  -8   35.71    2.93
  -3   4  -8   32.72    5.61
   3   4  -8   39.15    6.28
  -3   4  -8   38.26    5.60
   3   4   8   36.29    3.83
   3  -4  -8   35.37    4.09
   3  -4  -9   30.58    3.81
   3   4  -9   32.91    6.08
  -3   4  -9   32.35    5.29
   3   4   9   33.33    3.40
  -3   4  -9   29.11    4.85
   3   4  -9   30.68    2.83
   3   4 -10   64.11    4.20
   3  -4 -10   63.36    6.31
  -3   4 -10   69.90    7.78
  -3   4 -10   64.35    8.00
   3  -4 -10   64.02    5.16
   3   4  10   63.75    4.26
   3   4 -10   62.56    8.32
  -3   4 -11   35.03    6.03
   3   4  11   30.84    2.58
   3  -4 -11   33.07    4.57
  -3   4 -11   42.06    6.41
   3   4 -11   31.79    2.99
   3  -4 -11   32.88    3.55
   3   4 -11   38.80    6.84
   3   4 -12    5.88    2.73
   3  -4 -12    7.07    1.50
  -3   4 -12   14.46    4.38
   3  -4 -12    7.89    2.31
   3   4 -12    6.07    1.28
  -3   4 -12    2.86    2.14
   3   4 -13   15.09    4.34
  -3   4 -13   25.16    5.41
   3   4 -13   12.40    2.23
   3  -4 -13   15.82    3.65
  -3   4 -13   12.09    3.69
   3   4 -14    0.64    1.71
   3   4 -14    0.79    1.11
   3  -4 -14    2.21    2.00
   3   4 -15   14.88    4.33
   3  -4 -15   13.06    3.17
   3   4 -15   19.67    3.10
  -3   4 -15   11.15    3.21
   3   4 -16    2.98    1.22
   3  -4 -16    4.12    2.07
   3   4 -17    1.67    1.82
   3  -4 -17    1.12    1.65
   3   4 -18    5.89    2.91
   3  -4 -18    5.55    2.37
   3   4 -19   18.45    5.08
   3   4 -20    2.71    2.20
   3   4 -21    5.49    2.57
   3   4 -22    0.99    2.21
   3   4 -23    6.03    3.38
   3   4 -24    3.83    2.94
   3   4 -25   17.46    5.78
  -4   4   0    8.24    2.87
  -4  -4   0    9.75    2.31
  -4  -4   1    2.43    1.19
  -4  -4  -1    4.80    1.52
  -4   4  -1    4.89    1.66
  -4   4   1    4.81    2.14
  -4   4   2    5.80    1.87
  -4  -4   2    5.87    1.46
  -4  -4  -2    5.97    1.56
  -4   4  -2    5.93    2.65
  -4  -4  -3   69.93    4.50
  -4   4  -3   67.69    7.33
  -4  -4   3   69.40    4.50
  -4  -4   4  177.90    6.58
  -4   4  -4  171.06   11.56
  -4  -4   5   49.16    3.13
  -4   4  -5   49.71    6.15
  -4   4  -6    9.43    2.85
  -4   4  -7   97.52    8.92
  -4   4  -8    9.50    3.22
   4  -4  -8   10.23    2.41
  -4   4  -9   61.86    7.55
   4  -4  -9   55.46    5.48
  -4   4 -10   91.08    9.29
   4  -4 -10   83.24    6.54
   4   4 -11   80.86    3.40
   4  -4 -11   91.07    8.43
  -4   4 -11   92.53    9.70
   4  -4 -11   82.14    6.39
   4  -4 -12   92.83    8.48
  -4   4 -12   95.66    9.90
   4   4 -12   85.39    3.99
   4   4  12   84.21    4.71
   4   4 -12   84.39   10.29
   4   4 -13   25.36    6.25
   4  -4 -13   25.74    4.86
  -4   4 -13   40.99    7.02
   4   4 -13   22.20    2.22
   4   4  13   20.89    1.90
   4  -4 -14   51.72    6.86
  -4   4 -14   64.47    8.82
   4   4 -14   49.70    3.70
   4   4 -14   56.45    8.77
   4  -4 -15  323.28   17.32
  -4   4 -15  309.26   18.76
   4   4 -15  314.78   20.82
   4  -4 -16   64.02    7.91
  -4   4 -16   72.94    9.87
   4   4 -16   64.53    9.63
   4   4 -17    7.63    4.08
   4  -4 -17    3.26    2.15
   4   4 -18    7.07    3.77
   4  -4 -18    7.22    2.88
   4   4 -19    5.05    2.90
   4  -4 -19    5.03    2.41
   4   4 -20   18.40    5.21
  -4   4 -20   41.26    8.23
   4   4 -21   40.37    8.17
   4   4 -22    7.66    3.59
   4   4 -23    7.83    3.94
   4   4 -24    7.56    3.53
   4   4 -25   11.81    4.53
  -5  -4   0   54.10    5.40
  -5   4   0   52.42    6.70
  -5   4   1    2.33    1.14
  -5  -4  -1    1.77    1.01
  -5   4  -1    2.66    1.80
  -5   4   2   14.76    3.39
  -5  -4  -2   15.95    2.45
  -5   4  -2   20.87    4.55
  -5   4  -3    4.61    2.32
  -5   4   3    2.86    1.80
  -5  -4   3    4.28    1.06
  -5   4  -4   50.65    6.44
  -5  -4   4   46.76    3.05
  -5   4  -5   32.94    4.99
  -5   4  -6  101.75    9.64
  -5   4  -7   37.14    5.85
  -5   4  -8   20.18    4.49
  -5   4  -9   73.73    8.41
  -5   4 -10    8.43    3.36
  -5   4 -11   30.82    6.15
   5  -4 -11   18.44    3.79
   5  -4 -12   73.61    8.28
  -5   4 -12   89.61    9.84
   5  -4 -13   51.27    7.09
  -5   4 -13   57.67    8.42
  -5   4 -14   21.48    6.06
   5  -4 -14    8.99    3.04
   5   4 -15   23.36    6.32
   5  -4 -15   20.66    4.88
   5  -4 -16   49.04    7.44
  -5   4 -16   70.61    9.76
   5   4 -16   47.42    8.60
   5  -4 -17  128.68   12.18
  -5   4 -17  147.79   13.80
   5   4 -17  129.49   14.02
   5   4 -18    6.17    3.45
   5  -4 -18    5.91    2.56
   5   4 -19    4.06    2.90
   5  -4 -19    4.92    2.69
   5   4 -20   34.42    7.49
   5  -4 -20   33.12    6.54
  -5   4 -20   46.26    8.93
   5   4 -21   13.85    5.27
  -5   4 -21   41.74    8.43
   5   4 -22    2.87    2.11
  -5   4 -22   27.88    7.17
   5   4 -23   15.38    5.43
  -5   4 -23   32.12    7.79
   5   4 -24   26.09    6.95
  -5   4 -24   45.88    9.41
   5   4 -25    3.62    2.27
  -5   4 -25   27.48    7.56
  -6  -4   0   61.30    6.00
  -6   4   0   66.61    7.93
  -6   4   1   42.87    6.11
  -6   4  -1   43.22    6.43
  -6   4   2   59.67    7.53
  -6   4  -2   60.65    7.50
  -6   4   3   97.41    9.68
  -6   4  -3   95.17    9.04
  -6   4  -4   -2.17    3.09
  -6   4   4    2.13    2.16
  -6  -4   4    1.61    0.59
  -6   4  -5  252.87   15.49
  -6   4  -6   35.44    5.79
  -6   4  -7   19.07    4.47
  -6   4  -8  237.85   15.40
  -6   4  -9   64.54    8.46
  -6   4 -10   28.51    5.82
   6  -4 -11   63.97    7.87
  -6   4 -11   80.69    9.77
   6  -4 -12  175.30   13.66
  -6   4 -12  179.98   14.60
   6  -4 -13   37.49    6.40
  -6   4 -13   47.60    8.24
  -6   4 -14   21.09    5.95
   6  -4 -14    5.61    2.71
  -6   4 -15   37.80    7.44
   6  -4 -15   22.51    5.27
  -6   4 -16   32.08    7.19
   6  -4 -16   22.90    5.51
   6   4 -17   31.72    7.21
  -6   4 -17   47.06    8.78
   6  -4 -17   28.59    6.14
   6  -4 -18  108.75   11.86
  -6   4 -18  109.80   12.73
   6   4 -18  108.37   13.46
   6   4 -19    4.13    3.62
   6  -4 -19    2.19    2.27
   6   4 -20   10.75    4.63
   6  -4 -20    8.83    3.53
   6   4 -21   15.96    5.68
   6  -4 -21   15.70    4.81
   6   4 -22   15.30    5.21
  -6   4 -22   31.71    7.85
   6   4 -23   11.71    4.67
  -6   4 -23   29.47    7.79
   6   4 -24   25.57    6.82
  -6   4 -24   43.77    9.32
   6   4 -25    4.49    3.47
  -6   4 -25   18.47    6.52
  -6   4 -26   20.60    6.97
  -7   4   0    0.56    1.69
  -7   4   1    4.05    2.22
  -7   4  -1    6.51    3.21
  -7   4  -2   13.89    4.55
  -7   4   2    2.62    1.77
  -7   4  -3   33.21    5.55
  -7   4   3   32.99    6.02
  -7   4  -4    0.45    2.05
  -7   4   4    0.57    2.36
  -7  -4   4    2.03    0.56
  -7   4   5   -0.90    2.44
  -7   4  -5    2.31    1.20
  -7   4  -6   27.38    5.29
  -7   4  -7  249.04   16.64
  -7   4  -8   36.59    6.42
  -7   4  -9    2.97    2.51
  -7   4 -10   21.49    5.59
   7  -4 -11   93.11    9.95
  -7   4 -11  115.14   11.74
  -7   4 -12   18.50    5.54
   7  -4 -12    8.49    1.88
   7  -4 -13   45.44    7.24
  -7   4 -13   59.06    8.94
   7  -4 -14   52.76    8.24
  -7   4 -14   69.13    9.87
  -7   4 -15   36.47    7.90
   7  -4 -15   22.27    5.40
  -7   4 -16   28.33    7.40
   7  -4 -16    9.12    3.42
  -7   4 -17   27.30    7.22
   7  -4 -17    6.18    3.54
   7  -4 -18   35.60    7.44
  -7   4 -18   50.13    9.50
   7  -4 -19   89.82   11.57
  -7   4 -19  106.01   13.21
   7   4 -19   97.77   13.20
   7   4 -20    4.00    3.41
   7  -4 -20   -0.69    1.70
   7   4 -21    4.99    3.34
   7  -4 -21    6.83    3.73
   7   4 -22   13.73    5.44
  -7   4 -22   36.55    8.80
   7   4 -23    0.18    1.84
  -7   4 -23   16.39    6.25
   7   4 -24    2.58    2.51
  -7   4 -24   14.95    6.08
   7   4 -25    2.71    2.44
  -7   4 -25   16.35    6.26
   8   4   0   33.34    5.06
  -8   4   0   39.55    7.00
   8   4  -1  270.69   14.58
   8   4   1  274.24   13.74
  -8   4  -1  278.74   17.61
  -8   4   1  278.11   17.61
  -8   4   2  151.63   12.94
   8   4  -2  148.32   11.21
   8   4   2  155.18    9.93
  -8   4  -2  156.56   13.17
  -8   4  -3   25.76    4.88
   8   4   3   25.23    3.99
  -8   4   3   23.85    4.82
  -8   4   4   82.24    9.42
   8   4   4   86.34    6.72
  -8  -4   4   78.79    3.69
  -8   4  -4   77.32    9.07
  -8   4   5  162.58   13.65
   8   4   5  169.94    8.95
  -8   4  -5  177.44   14.18
   8   4   6   11.72    2.23
  -8   4  -6    5.41    1.74
   8   4   7   52.14    4.24
  -8   4  -7   47.48    7.46
   8   4   8    6.36    1.36
  -8   4  -8   10.44    4.05
  -8   4  -9   24.65    5.76
  -8   4 -10   15.58    5.04
  -8   4 -11   66.75    9.64
  -8   4 -12   28.04    7.00
   8  -4 -12   13.94    3.57
  -8   4 -13   34.01    7.43
   8  -4 -13   15.60    4.03
  -8   4 -14   37.79    8.00
   8  -4 -14   22.35    5.60
   8  -4 -15   78.33   10.60
  -8   4 -15  100.02   12.20
   8  -4 -16   56.07    9.00
  -8   4 -16   73.74   10.78
  -8   4 -17   18.50    6.24
   8  -4 -17    4.29    3.00
  -8   4 -18   21.91    6.67
   8  -4 -18   14.48    4.81
  -8   4 -19   21.85    6.73
   8  -4 -19   11.57    4.17
  -8   4 -20    6.08    4.65
   8   4 -20    0.37    1.73
   8  -4 -20    1.08    2.10
  -8   4 -21   34.71    8.59
   8   4 -21   24.18    7.03
   8  -4 -21   25.73    6.89
  -8   4 -22   30.54    8.02
   8   4 -22   18.40    6.34
   8  -4 -22   17.48    5.79
  -8   4 -23   10.99    5.55
   8   4 -23    3.29    3.44
   8   4 -24   21.96    7.14
  -8   4 -24   42.95    9.68
   8   4 -25   18.11    6.39
   9   4   0  201.48   12.87
  -9   4   0  217.54   15.92
   9   4  -1    4.11    2.25
   9   4   1    2.50    1.85
  -9   4  -1    7.95    3.85
  -9   4   1    2.16    2.35
   9   4  -2   68.57    7.96
   9   4   2   72.13    7.16
  -9   4  -2   72.12    8.67
  -9   4   2   72.10    9.08
  -9   4  -3    4.71    2.91
   9   4  -3    9.37    2.90
   9   4   3   10.32    2.81
  -9   4   3    9.55    3.08
  -9   4  -4   29.75    5.36
  -9   4   4   23.65    5.10
   9   4   4   31.81    4.43
   9   4  -4   29.75    5.55
  -9  -4   4   30.01    2.53
  -9   4  -5   37.47    6.49
  -9   4   5   40.27    6.86
   9   4  -5   45.38    7.21
   9   4   5   41.62    4.90
  -9   4   6   92.87   10.66
   9   4   6   96.30    6.92
  -9   4  -6   96.80   10.90
   9   4   7    0.51    0.76
  -9   4  -7    0.51    1.67
  -9   4  -8   55.16    8.53
  -9   4  -9   84.56   10.65
  -9   4 -10    7.09    4.50
  -9   4 -11  113.91   12.75
  -9   4 -12   36.70    7.58
   9  -4 -12   30.94    6.59
  -9   4 -13    9.94    4.70
   9  -4 -13    0.51    1.64
  -9   4 -14   17.40    5.69
   9  -4 -14    8.98    3.43
  -9   4 -15   16.09    5.74
   9  -4 -15    8.92    4.20
  -9   4 -16   18.78    6.52
   9  -4 -16    2.41    2.73
   9  -4 -17   80.59   11.47
  -9   4 -17   85.03   12.15
  -9   4 -18   11.70    5.63
   9  -4 -18    2.60    3.25
  -9   4 -19    9.77    5.01
   9  -4 -19    0.40    2.28
  -9   4 -20    8.12    4.72
   9  -4 -20    1.10    2.35
  -9   4 -21    6.24    4.34
   9  -4 -21    1.89    2.25
   9   4 -22    1.15    2.19
   9  -4 -22    2.67    2.40
   9   4 -23    7.31    3.76
   9   4 -24   -0.88    1.52
  10   4   0   59.60    7.54
 -10   4   0   66.47    9.42
  10   4  -1  102.82   10.12
  10   4   1  100.15    9.47
 -10   4  -1  111.30   11.92
 -10   4   1   93.90   11.08
  10   4  -2  107.00   10.62
  10   4   2  111.24    9.60
 -10   4  -2  110.62   11.73
 -10   4   2  106.34   11.70
 -10   4  -3   26.05    5.21
  10   4   3   32.54    5.07
  10   4  -3   26.55    5.39
 -10  -4   3   34.91    3.66
 -10   4   3   29.92    6.22
 -10   4  -4   27.91    5.72
 -10   4   4   27.74    5.78
  10   4   4   29.34    4.61
  10   4  -4   27.16    5.65
 -10   4   5   62.11    8.82
  10   4  -5   67.87    8.81
  10   4   5   67.22    6.71
 -10   4  -5   66.58    9.22
  10   4   6   19.93    3.47
  10   4  -6   19.58    5.14
 -10   4  -6   16.53    4.09
 -10   4   6   14.17    3.35
  10   4  -7   17.29    4.93
  10   4   7   16.08    2.98
 -10   4  -7   13.25    3.83
 -10   4  -8   58.36    9.38
 -10   4  -9   39.29    7.59
 -10   4 -10   41.62    7.94
  10  -4 -11  106.59   12.85
 -10   4 -11  104.89   12.76
  10  -4 -12   55.79    9.26
 -10   4 -12   57.61    9.67
 -10   4 -13   42.27    8.57
  10  -4 -13   29.39    6.71
  10  -4 -14   37.97    7.91
 -10   4 -14   54.65    9.53
  10  -4 -15   44.05    8.42
 -10   4 -15   54.94    9.63
 -10   4 -16   22.33    6.81
  10  -4 -16   21.61    6.25
 -10   4 -17   37.08    8.66
  10  -4 -17   26.76    7.09
 -10   4 -18   51.88   10.23
  10  -4 -18   33.69    7.88
 -10   4 -19   22.09    6.88
  10  -4 -19   18.36    6.08
 -10   4 -20   18.67    6.57
  10  -4 -20    7.56    4.07
 -10   4 -21   23.12    7.51
  10  -4 -21   10.77    4.94
  10  -4 -22    9.08    4.19
  10  -4 -23    4.88    3.58
  11   4   0    2.60    2.13
 -11   4   0    5.39    4.08
  11   4  -1  105.13   10.88
  11   4   1  103.00   10.12
 -11   4  -1  107.63   12.13
 -11   4   1  110.49   12.39
  11   4  -2   78.91    9.39
  11   4   2   76.51    8.42
 -11   4  -2   76.80   10.67
 -11   4   2   74.51   10.18
 -11   4  -3   29.74    6.56
  11   4   3   33.01    5.55
 -11   4   3   34.97    6.83
  11   4  -3   31.62    6.19
 -11   4   4  311.95   20.66
  11   4  -4  315.98   19.68
  11   4   4  313.76   15.94
 -11   4  -4  294.19   20.47
  11   4  -5    2.28    2.49
  11   4   5    4.34    2.25
 -11   4   5    1.14    1.04
 -11   4  -5    1.42    1.69
  11   4  -6    3.72    3.09
  11   4   6    3.69    1.77
 -11   4  -6   -0.72    2.55
 -11   4   6    1.55    1.73
  11   4  -7    7.40    3.37
 -11   4  -7    6.81    3.46
  11   4  -8   50.24    8.98
 -11   4  -8   49.48    8.70
 -11   4  -9    2.41    1.98
 -11   4 -10   20.38    5.71
 -11   4 -11    3.03    1.52
  11  -4 -11    3.63    1.88
 -11   4 -12   20.99    6.28
  11  -4 -12   13.69    4.47
 -11   4 -13    2.24    3.11
  11  -4 -13   -0.58    1.87
 -11   4 -14    4.28    3.63
  11  -4 -14   -1.08    1.87
 -11   4 -15    7.29    4.15
  11  -4 -15    2.68    2.11
 -11   4 -16    3.96    4.00
  11  -4 -16    0.42    1.71
 -11   4 -17    9.51    5.02
  11  -4 -17    2.89    2.50
 -11   4 -18    4.20    3.86
  11  -4 -18    2.56    3.14
 -11   4 -19    7.04    4.50
  11  -4 -19    0.91    1.15
  11  -4 -20    4.29    3.82
  11  -4 -21    6.10    4.07
  11  -4 -22    8.33    4.55
  12   4   0   16.25    4.37
 -12   4   0   15.59    4.75
  12   4  -1   63.57    8.81
  12   4   1   68.38    8.65
 -12   4  -1   66.20    9.98
 -12   4   1   69.38   10.20
  12   4  -2  133.39   13.04
  12   4   2  134.99   11.76
 -12   4  -2  141.00   14.44
 -12   4   2  133.28   13.95
  12   4  -3  109.16   12.25
  12   4   3  110.92   10.52
 -12   4  -3  111.73   12.79
 -12   4   3  110.58   12.81
 -12   4   4  161.29   15.70
  12   4  -4  159.77   14.70
  12   4   4  161.59   12.23
 -12   4  -4  157.76   15.73
 -12   4   5   75.84   10.71
  12   4  -5   78.86   10.54
  12   4   5   72.99    8.07
 -12   4  -5   72.00   10.62
  12   4  -6   37.46    7.40
 -12   4   6   35.10    7.18
 -12   4  -6   28.77    6.77
  12   4  -7  106.13   12.66
 -12   4  -7   97.65   12.53
  12   4  -8   87.99   11.96
 -12   4  -8   83.13   11.68
  12   4  -9   35.97    7.84
 -12   4  -9   34.85    7.81
 -12   4 -10   10.92    4.32
 -12   4 -11    4.66    3.26
  12  -4 -11    2.49    2.36
 -12   4 -12    3.98    3.38
  12  -4 -12   -1.43    2.61
 -12   4 -13   18.64    5.92
  12  -4 -13   16.55    5.54
 -12   4 -14   13.21    4.99
  12  -4 -14   13.67    4.83
 -12   4 -15   12.35    5.24
  12  -4 -15    1.34    2.50
 -12   4 -16   11.64    5.30
  12  -4 -16   11.17    4.77
 -12   4 -17    7.47    4.50
  12  -4 -17    9.59    4.94
  12  -4 -18    8.92    4.78
  12  -4 -19    8.76    4.38
  12  -4 -20    8.45    4.91
  13   4   0    0.47    1.62
 -13   4   0    2.42    2.67
 -13   4   1   37.88    7.63
  13   4  -1   38.03    7.14
  13   4   1   34.87    6.42
 -13   4  -1   43.46    8.32
  13   4  -2   67.66    9.68
  13   4   2   60.78    8.41
 -13   4  -2   72.04   10.86
 -13   4   2   70.52   10.49
 -13   4  -3    1.18    2.23
 -13   4   3    5.70    3.28
  13   4  -3    2.94    2.40
  13   4   3    5.68    3.30
 -13   4  -4   10.61    3.94
  13   4  -4   15.57    5.14
  13   4   4   13.67    4.06
 -13   4   4    9.12    3.51
 -13   4  -5    0.39    2.42
  13   4  -5    5.82    3.66
 -13   4   5    1.18    1.38
 -13   4   6   43.06    7.98
  13   4  -6   43.39    8.31
 -13   4  -6   38.45    7.70
 -13   4  -7    1.87    1.64
  13   4  -7    5.61    3.29
  13   4  -8    2.17    2.01
 -13   4  -8   -1.45    2.60
  13   4  -9   74.35   11.47
 -13   4  -9   68.88   10.94
  13   4 -10    4.07    3.52
 -13   4 -10   -0.24    2.05
 -13   4 -11    1.25    2.49
  13  -4 -11   -3.11    2.98
 -13   4 -12    5.44    3.41
  13  -4 -12   -2.38    3.40
 -13   4 -13    0.47    2.53
  13  -4 -13   -2.78    2.35
 -13   4 -14    7.90    4.68
  13  -4 -14    0.29    2.02
 -13   4 -15   11.99    5.22
  13  -4 -15    9.24    4.36
  13  -4 -16   -0.44    1.65
  13  -4 -17   10.49    5.00
  13  -4 -18    5.44    4.10
  14   4   0  210.40   16.82
 -14   4   0  220.83   19.19
  14   4  -1   13.83    4.53
  14   4   1   19.91    5.19
 -14   4  -1   18.38    6.07
 -14   4   1   17.55    5.69
 -14   4   2    6.42    3.44
 -14   4  -2    6.03    3.27
  14   4  -2    5.49    2.82
  14   4   2    5.11    2.81
 -14   4  -3   27.88    7.03
  14   4   3   28.46    5.95
 -14   4   3   29.98    6.98
  14   4  -3   24.63    6.15
 -14   4  -4   28.60    6.98
  14   4  -4   38.99    7.79
 -14   4   4   33.28    7.46
 -14   4  -5    8.44    3.32
  14   4  -5    9.58    3.98
 -14   4   5   10.50    4.05
  14   4  -6   41.75    8.56
 -14   4   6   38.62    7.83
 -14   4  -6   35.21    7.59
  14   4  -7    7.40    4.10
 -14   4  -7    2.58    1.40
  14   4  -8    9.70    4.65
 -14   4  -8   10.29    3.88
  14   4  -9   29.79    7.62
 -14   4  -9   33.73    7.91
  14   4 -10   21.94    6.89
 -14   4 -10   19.14    6.10
  14  -4 -10   18.79    6.29
  14   4 -11   26.96    7.75
 -14   4 -11   26.93    6.98
  14  -4 -11   21.85    7.07
 -14   4 -12   19.79    6.36
  14  -4 -12   17.25    5.75
 -14   4 -13    4.56    3.01
  14  -4 -13    4.19    2.23
  14  -4 -14   20.22    6.60
  14  -4 -15    6.34    3.68
  15   4   0    9.71    4.02
 -15   4   0    8.01    4.11
 -15   4   1    7.24    3.60
  15   4  -1    0.81    1.04
  15   4   1    4.04    2.03
 -15   4  -1    5.76    3.37
 -15   4   2   -1.15    1.87
  15   4  -2    0.75    1.32
 -15   4  -2    3.21    2.60
 -15   4  -3    1.05    1.75
  15   4  -3    5.18    3.20
 -15   4   3    1.51    2.14
 -15   4  -4    2.67    2.66
  15   4  -4    5.01    3.08
 -15   4   4    2.89    2.56
 -15   4  -5    6.01    3.09
  15   4  -5    6.85    3.35
 -15   4   5    8.63    4.04
 -15   4  -6    4.17    1.89
  15   4  -6    9.36    4.27
 -15   4   6    3.54    3.04
  15   4  -7   16.57    5.79
 -15   4  -7   10.68    4.34
  15   4  -8   12.38    5.18
 -15   4  -8    7.82    3.67
  15   4  -9    7.10    4.00
 -15   4  -9    3.77    2.01
  15   4 -10    2.21    1.95
 -15   4 -10    2.60    2.38
  15  -4 -10   -2.24    3.39
  15   4 -11   20.98    7.00
 -15   4 -11   12.62    4.82
  15  -4 -11   13.47    5.10
  15  -4 -12    2.71    3.49
  16   4   0   -0.57    1.08
 -16   4   0    3.05    2.84
 -16   4   1    9.67    4.25
  16   4  -1    8.60    3.88
 -16   4  -1    9.00    4.20
 -16   4   2    4.35    2.92
  16   4  -2    3.04    1.97
 -16   4  -2    7.08    3.85
  16   4  -3   41.34    8.48
 -16   4   3   39.90    8.60
 -16   4  -3   41.75    9.13
 -16   4   4    3.66    2.96
 -16   4  -4    2.91    2.71
  16   4  -4    2.76    2.26
 -16   4  -5    9.18    4.13
  16   4  -5    8.74    3.81
 -16   4   5   12.37    4.92
 -16   4  -6   -2.85    2.90
  16   4  -6    3.96    3.60
 -16   4   6   -0.21    1.64
 -16   4  -7   19.13    6.10
  16   4  -7   22.45    6.67
  16   4  -8    4.72    4.04
  16   4  -9   20.88    6.53
  16   4 -10    7.38    4.12
 -17   4   0    4.92    3.09
 -17   4   1    7.79    4.24
 -17   4  -1    7.47    3.90
 -17   4   2   10.46    4.68
  17   4  -2    8.38    4.23
 -17   4  -2    5.95    3.47
  17   4  -3    4.75    3.47
 -17   4  -3    3.22    3.12
 -17   4   3    4.05    2.99
 -17   4   4    1.41    2.55
  17   4  -4    5.46    3.61
  17   4  -5   12.08    5.04
 -17   4   5   12.22    5.23
 -17   4   6    7.97    4.02
  17   4  -6    4.96    3.57
  17   4  -7    2.06    2.55
  17   4  -8    1.26    2.73
  18   4  -3    3.77    3.46
  18   4  -4    4.05    3.16
  18   4  -5   26.01    7.56
   0   5   0   -1.43    1.85
   0   5   1   24.41    4.10
   0   5  -1   22.40    4.06
   0   5   2   -0.22    1.09
   0   5  -2   -0.54    1.15
   0   5   3   91.51    7.95
   0   5  -3   96.57    9.13
   0   5   4   -0.77    1.11
   0   5  -4    1.08    1.56
   0   5  -4    1.25    0.97
   0   5  -5   85.41    7.44
   0   5  -5   86.51    9.31
   0   5   5   90.36    7.34
   0   5  -6   -0.54    0.98
   0   5  -6    1.17    1.08
   0   5   6    0.06    0.50
   0   5  -7   59.66    8.02
   0   5  -7   61.56    6.32
   0   5  -8   -2.15    2.50
   0   5  -8    0.86    1.00
   0   5  -9   -1.36    2.97
   0   5  -9    2.90    1.66
   0   5 -10   -0.88    2.74
   0   5 -10   -1.22    1.85
   0  -5 -10   -0.38    0.59
   0   5 -11    6.79    1.63
   0   5 -11    7.21    2.28
   0  -5 -11    9.18    1.79
   0   5 -12   -0.16    1.18
   0  -5 -12    0.29    0.52
   0   5 -13   22.72    5.41
   0   5 -13   21.01    3.65
   0   5 -14   -1.21    2.88
   0   5 -14   -0.21    0.69
   0   5 -15    2.89    2.18
   0   5 -15    6.60    2.42
   0   5 -16    0.13    1.44
   0   5 -16    1.87    1.55
   0   5 -17    1.96    1.90
   0   5 -17    2.41    1.79
   0   5 -18    0.93    1.96
   0   5 -19    1.84    1.33
   0   5 -20   -5.29    4.10
   0   5 -21    5.44    3.49
   0   5 -22   -0.39    1.18
   0   5 -23   13.72    4.87
   0   5 -24   -0.87    2.15
   0   5 -25    1.21    2.13
   0   5 -26   -2.24    3.34
   1   5   0  138.20   10.57
  -1   5   0  136.15   10.52
  -1   5   1   15.81    3.23
  -1   5  -1   14.37    3.55
   1   5   1   17.68    3.82
   1   5  -1   15.83    3.66
  -1   5  -2   38.95    5.31
  -1   5   2   35.66    5.13
  -1   5  -2   30.55    5.43
   1   5   2   33.24    5.05
   1   5  -2   32.17    5.54
  -1   5  -3  224.88   12.60
  -1   5   3  216.26   12.20
  -1   5  -3  219.20   14.35
   1   5   3  217.51   12.14
   1   5  -3  216.30   14.16
  -1   5   4  166.79   10.58
  -1   5  -4  162.63   10.82
  -1   5  -4  170.86   12.87
   1   5   4  164.28   10.23
   1   5  -4  168.46   12.83
   1   5  -5   39.70    4.68
  -1   5  -5   35.11    6.18
   1   5   5   39.30    4.91
   1   5  -5   39.13    6.59
  -1   5  -5   39.29    5.15
   1   5  -6  110.97    7.90
   1   5   6  105.59    7.65
  -1  -5   6  107.88    7.68
  -1   5  -6  104.62   10.49
   1   5  -6  114.30   11.01
  -1   5  -6  111.78    9.00
   1   5  -7  121.28    8.14
   1   5   7  123.06    7.90
  -1   5  -7  122.71    9.36
  -1   5  -7  124.16   11.72
   1   5  -7  129.72   11.70
  -1   5  -8   26.59    5.77
   1   5  -8   21.62    5.26
  -1   5  -8   24.74    4.67
   1   5   8   22.56    3.32
   1   5  -8   23.22    3.67
   1   5  -9  126.25    8.50
  -1  -5  -9  115.56    4.58
  -1   5  -9  119.15    9.34
  -1   5  -9  121.90   12.17
   1   5  -9  130.04   12.36
  -1  -5 -10  201.59    5.36
   1  -5 -10  218.76   10.12
  -1   5 -10  209.96   12.60
  -1   5 -10  227.23   16.44
   1   5 -10  213.81   16.25
   1   5 -10  216.55   11.10
  -1   5 -11   11.13    2.55
  -1   5 -11   15.99    5.03
   1   5 -11   19.73    5.42
   1   5 -11   13.85    2.83
   1  -5 -11   11.75    2.35
   1  -5 -12   85.21    6.34
  -1   5 -12   77.26    7.85
   1   5 -12   78.98    6.87
  -1   5 -12   86.51   10.72
   1   5 -12   87.70   10.62
   1  -5 -13  114.15    7.45
  -1   5 -13  107.98    9.45
   1   5 -13  115.42    8.48
  -1   5 -13  112.79   12.41
   1   5 -13  104.68   11.81
  -1   5 -14   43.70    7.65
   1   5 -14   38.46    7.27
   1  -5 -14   42.31    4.65
  -1   5 -14   35.42    5.39
   1   5 -14   35.55    4.86
  -1   5 -15   32.69    6.84
   1   5 -15   30.47    6.74
  -1   5 -15   32.60    5.53
   1   5 -15   34.02    4.78
  -1   5 -16  124.32   13.71
  -1   5 -16  129.58   11.07
   1   5 -16  129.76    9.65
   1   5 -16  124.60   13.70
  -1   5 -17   12.77    4.59
   1   5 -17    9.92    3.90
  -1   5 -17   15.05    4.06
  -1   5 -18    9.61    4.11
   1   5 -18   12.47    4.75
  -1   5 -18   16.72    4.37
  -1   5 -19   35.95    7.79
   1   5 -19   35.54    7.56
  -1   5 -19   42.06    6.72
  -1   5 -20   13.53    4.84
   1   5 -20   13.72    4.90
   1   5 -21   10.45    4.63
  -1   5 -21   10.41    4.34
  -1   5 -22   44.35    8.85
   1   5 -22   45.18    9.34
   1   5 -23   19.26    6.14
  -1   5 -23   19.71    6.50
   1   5 -24   -0.49    2.19
  -1   5 -24    0.07    2.19
   1   5 -25   11.11    4.80
   1   5 -26   12.46    4.99
   2   5   0   28.69    5.17
  -2   5   0   26.93    4.88
  -2   5  -1  258.44   14.21
  -2   5  -1  243.87   14.59
   2   5  -1  249.87   14.50
   2   5   1  240.28   13.59
   2   5   2    7.08    2.56
   2   5  -2   11.08    3.74
  -2   5  -2    5.31    2.31
  -2   5  -2    3.22    1.48
  -2   5  -3   66.69    7.03
  -2  -5   3   58.34    5.40
  -2   5  -3   61.58    7.34
   2   5   3   54.88    6.21
   2   5  -3   63.30    7.56
  -2   5  -4   56.05    7.52
  -2  -5   4   57.72    5.32
   2   5   4   60.41    6.34
   2   5  -4   57.43    7.61
  -2   5  -4   57.66    6.65
  -2   5  -5   16.51    3.79
   2   5   5   16.52    3.40
   2   5  -5   15.88    4.00
  -2  -5   5   18.80    3.06
  -2   5  -5   16.75    3.67
  -2   5  -6    3.81    1.80
   2   5   6    5.50    1.54
   2   5  -6    6.54    2.90
  -2  -5   6   12.52    2.76
  -2   5  -6    6.60    2.27
  -2   5  -7   -1.07    2.90
   2   5   7   -0.10    1.07
   2   5  -7   -0.06    1.28
   2  -5  -7    0.26    0.65
  -2  -5  -7    0.46    0.31
  -2   5  -7   -0.55    1.17
  -2   5  -8    0.03    1.84
   2   5   8    2.34    1.02
   2   5  -8    3.73    1.89
  -2   5  -8    0.12    2.23
   2  -5  -8    3.79    1.46
   2   5  -8    3.09    1.32
  -2   5  -9    6.88    2.64
  -2   5  -9    8.43    2.09
   2   5   9   10.80    2.10
   2   5  -9   11.89    3.45
   2  -5  -9   12.28    2.49
   2   5  -9   11.36    2.29
  -2   5 -10   16.39    4.14
   2   5 -10   10.31    3.90
   2   5  10   14.12    2.24
  -2   5 -10   12.78    3.17
   2   5 -10   16.10    2.84
  -2   5 -11    2.93    2.21
   2   5 -11    0.71    1.58
   2   5 -11    3.09    1.33
   2  -5 -11    0.79    0.99
  -2   5 -11    0.75    0.86
  -2   5 -12   20.59    4.88
   2   5 -12   24.22    5.54
   2  -5 -12   22.30    3.72
  -2   5 -12   22.95    4.54
   2   5 -12   21.85    3.32
   2  -5 -13   53.84    5.84
  -2   5 -13   58.50    7.33
   2   5 -13   48.71    5.03
  -2   5 -13   50.26    8.05
   2   5 -13   56.68    8.70
   2   5 -14    2.77    1.89
  -2   5 -14    3.22    1.63
  -2   5 -14    4.21    1.52
   2  -5 -14    6.48    2.26
   2   5 -14    4.55    1.36
  -2   5 -15    1.29    2.12
   2   5 -15    0.54    2.41
  -2   5 -15    2.59    1.92
   2  -5 -15    2.17    1.43
  -2   5 -16    4.89    2.68
   2   5 -16    5.64    2.43
  -2   5 -16    8.82    3.01
   2   5 -17    2.30    1.39
  -2   5 -17    3.56    2.44
  -2   5 -17    0.84    1.81
   2   5 -18   -0.94    2.78
  -2   5 -18    1.88    2.03
  -2   5 -18   -0.46    1.33
   2   5 -19    6.01    2.93
  -2   5 -19   10.27    3.78
  -2   5 -19    6.75    3.30
   2   5 -20    0.36    1.75
  -2   5 -20    3.02    2.90
  -2   5 -20   -0.01    1.28
   2   5 -21    2.85    2.28
  -2   5 -21   -0.11    1.55
   2   5 -22    9.32    3.73
   2   5 -23    5.04    4.03
   2   5 -24    1.78    2.86
   2   5 -25    7.92    4.13
   2   5 -26   -0.86    2.16
  -3   5   0   75.66    8.25
  -3  -5   0   79.00    6.73
   3   5   0   78.14    8.16
  -3   5  -1  161.30   11.65
  -3  -5  -1  152.99    8.94
   3   5   1  150.50   11.18
   3   5  -1  159.77   11.94
   3   5   2   11.16    3.08
   3   5  -2   13.85    4.49
  -3  -5  -2    9.53    2.27
  -3   5  -2   10.82    3.22
  -3  -5   2    8.57    2.25
  -3  -5  -3  128.11    7.09
  -3  -5   3  115.94    7.41
   3   5   3  123.40    9.47
   3   5  -3  125.77   11.10
  -3   5  -3  121.64   10.32
  -3  -5  -4   39.86    3.55
  -3  -5   4   38.60    4.08
  -3   5  -4   38.65    5.62
   3   5   4   41.04    5.38
   3   5  -4   40.03    6.44
   3   5   5    4.47    1.77
   3   5  -5    9.33    3.65
  -3  -5   5    6.16    1.77
  -3  -5  -5    5.56    1.19
  -3   5  -5    5.18    2.22
  -3   5  -5    8.16    2.79
  -3  -5  -6   39.82    2.24
  -3  -5   6   54.83    4.58
  -3   5  -6   51.96    6.71
  -3   5  -6   43.46    6.94
   3   5   6   48.88    5.59
   3   5  -6   48.39    7.69
  -3   5  -7   62.94    7.18
  -3   5  -7   66.42    8.57
   3   5   7   57.98    5.80
   3   5  -7   62.56    8.60
  -3   5  -8   14.45    3.36
   3   5   8   13.93    2.85
   3   5  -8   18.76    4.90
  -3   5  -8   13.59    4.09
  -3   5  -9  116.44   10.08
  -3   5  -9  118.50   11.99
   3   5   9  123.07    7.61
   3  -5  -9  111.62    7.98
   3   5  -9  116.62   11.97
   3   5 -10   31.64    3.31
   3   5 -10   32.50    6.38
  -3   5 -10   26.41    4.59
   3   5  10   32.36    3.63
  -3   5 -10   30.19    6.28
   3   5 -11   28.58    3.19
   3   5 -11   32.26    6.70
   3  -5 -11   24.90    4.15
  -3   5 -11   23.95    4.65
   3   5  11   26.51    2.97
  -3   5 -11   25.76    5.76
   3  -5 -12   70.53    7.10
  -3   5 -12   76.17    8.63
  -3   5 -12   70.31    9.69
   3   5 -12   74.87   10.17
   3   5 -12   74.57    5.26
   3  -5 -13  136.02   10.08
  -3   5 -13  141.99   11.89
  -3   5 -13  140.62   14.17
   3   5 -13  139.48   13.96
   3  -5 -14   45.06    5.99
  -3   5 -14   46.93    7.19
  -3   5 -14   41.32    7.87
   3   5 -14   53.61    9.06
   3   5 -15   42.92    7.96
   3  -5 -15   42.20    5.78
  -3   5 -15   39.35    6.65
  -3   5 -15   37.10    7.36
   3   5 -16   24.35    6.41
   3  -5 -16   25.16    4.61
  -3   5 -16   24.70    5.47
   3   5 -17   33.94    7.34
  -3   5 -17   38.31    6.85
   3   5 -18   19.52    5.39
  -3   5 -18   18.85    5.10
   3   5 -19   34.13    7.48
  -3   5 -19   39.30    7.18
   3   5 -20   18.57    5.61
  -3   5 -20   25.45    6.09
   3   5 -21    3.21    1.38
  -3   5 -21   10.57    4.28
   3   5 -22    6.17    3.48
   3   5 -23    8.55    4.02
   3   5 -24   10.23    4.73
   3   5 -25   15.32    5.42
   3   5 -26    6.92    4.08
  -4   5   0   15.19    3.95
  -4  -5   1   31.86    4.02
  -4  -5  -1   32.18    4.13
  -4   5   1   31.17    5.23
  -4   5  -1   29.80    5.21
  -4  -5   2    0.36    0.59
  -4   5  -2   -2.14    2.16
  -4  -5  -2    2.61    1.33
  -4  -5  -3   11.84    2.15
  -4  -5   3   11.10    2.19
  -4   5  -3    9.70    3.02
  -4  -5  -4   44.07    3.61
  -4  -5   4   41.77    3.88
  -4   5  -4   46.12    6.46
  -4  -5  -5    9.10    1.35
  -4   5  -5   12.84    3.75
  -4  -5   5   12.00    2.09
  -4   5  -6    6.54    2.40
  -4  -5   6   13.25    2.31
  -4   5  -7   11.38    2.76
   4   5  -7   13.07    4.33
   4   5   8    8.93    2.49
   4   5  -8   11.91    4.36
  -4   5  -8    7.37    1.85
   4   5  -9   14.66    4.71
  -4   5  -9   14.93    3.85
   4   5   9   17.46    3.16
   4   5 -10   28.84    6.33
  -4   5 -10   31.17    5.45
   4   5  10   32.05    3.91
   4   5  11    2.60    1.15
   4   5 -11    3.51    2.65
  -4   5 -11    4.77    2.50
   4  -5 -12   53.97    6.74
  -4   5 -12   55.21    7.74
   4   5 -12   55.22    9.18
   4  -5 -13   48.44    6.55
  -4   5 -13   48.12    7.30
   4   5 -13   52.59    8.80
   4   5 -14    8.23    4.29
  -4   5 -14    5.24    2.77
   4  -5 -14    3.33    1.93
   4  -5 -15   71.77    8.08
  -4   5 -15   72.68    9.19
   4   5 -15   71.50   10.65
   4  -5 -16   39.10    6.07
  -4   5 -16   42.57    7.33
   4   5 -16   39.96    7.95
   4   5 -17   43.56    8.59
   4  -5 -17   42.68    6.49
  -4   5 -17   35.55    6.66
   4   5 -18    9.73    3.69
  -4   5 -18   12.90    4.29
   4   5 -19    2.50    1.70
  -4   5 -19   10.05    4.11
   4   5 -20    3.49    2.61
  -4   5 -20   13.61    5.05
   4   5 -21   -0.85    1.53
  -4   5 -21    8.00    3.98
   4   5 -22    3.80    2.80
  -4   5 -22    7.52    4.25
   4   5 -23    3.14    1.48
   4   5 -24   12.37    5.22
   4   5 -25    1.77    1.80
   4   5 -26   -2.27    1.51
  -5   5   0  102.04   10.13
  -5  -5   1   29.44    3.81
  -5   5  -1   34.56    5.79
  -5  -5  -1   29.76    4.11
  -5   5   1   32.19    5.53
  -5   5  -2   19.77    4.57
  -5  -5   2   16.73    2.68
  -5  -5  -2   16.34    2.83
  -5   5   2   15.25    4.15
  -5  -5  -3   19.22    2.72
  -5   5  -3   27.46    5.20
  -5  -5   3   21.29    2.86
  -5   5  -4    7.88    3.05
  -5  -5   4    4.47    1.03
  -5  -5   5   82.19    4.64
  -5   5  -5   95.68    9.80
  -5   5  -6  151.52   12.30
  -5   5  -7    8.91    1.83
  -5   5  -8   10.58    3.08
  -5   5  -9   49.43    7.10
  -5   5 -10   23.92    5.18
  -5   5 -11   82.43    9.79
   5   5 -11   87.54   11.20
   5   5 -12   13.83    4.76
  -5   5 -12   12.45    3.79
   5  -5 -12   10.90    3.19
   5   5 -13    4.31    3.55
  -5   5 -13    0.58    1.95
   5  -5 -13   -2.05    2.18
   5   5 -14   29.74    7.08
  -5   5 -14   33.60    6.75
   5  -5 -14   26.81    5.25
   5  -5 -15   75.64    8.83
  -5   5 -15   70.61    9.58
   5   5 -15   78.08   11.37
   5   5 -16    0.47    1.60
  -5   5 -16    4.69    3.34
   5  -5 -16    2.67    2.16
   5   5 -17   28.38    7.06
   5  -5 -17   33.23    6.18
  -5   5 -17   33.39    6.95
   5   5 -18    3.32    2.80
  -5   5 -18    7.18    3.83
   5   5 -19    6.63    4.29
  -5   5 -19    8.09    3.97
  -5   5 -20   54.64    9.25
   5   5 -20   47.42    9.21
   5   5 -21   26.34    7.39
  -5   5 -21   27.71    6.69
   5   5 -22    2.36    2.62
  -5   5 -22    7.28    3.94
   5   5 -23    9.97    4.51
  -5   5 -23    9.28    4.66
   5   5 -24   31.49    8.12
   5   5 -25    8.27    4.58
  -6   5   0    9.79    3.48
  -6   5   1   10.13    3.32
  -6   5  -1   13.76    4.17
  -6  -5   2   30.40    3.58
  -6  -5  -2   27.12    3.79
  -6   5   2   30.28    5.73
  -6   5  -2   32.38    5.83
  -6   5   3   40.52    6.58
  -6   5  -3   38.29    6.40
  -6  -5   3   37.16    3.63
  -6  -5   4   36.23    3.12
  -6   5  -4   41.85    6.78
  -6   5  -5   21.01    4.24
  -6  -5   5   16.90    1.79
  -6   5  -6    0.13    2.94
  -6   5  -7    5.17    1.75
  -6   5  -8    8.34    2.25
  -6   5  -9   16.27    4.11
  -6   5 -10    4.80    2.43
  -6   5 -11    2.73    2.36
  -6   5 -12    4.78    2.92
   6  -5 -12   -1.08    2.35
  -6   5 -13   32.24    6.43
   6  -5 -13   31.20    5.83
   6   5 -14    8.62    3.95
  -6   5 -14    8.59    3.59
   6  -5 -14    6.18    2.19
   6   5 -15    8.37    4.18
  -6   5 -15    8.96    3.92
   6  -5 -15    6.88    2.76
   6   5 -16    7.00    3.97
  -6   5 -16    8.73    3.88
   6  -5 -16    5.18    2.48
   6   5 -17   11.75    5.08
  -6   5 -17   18.86    5.49
   6  -5 -17   14.36    4.42
   6   5 -18    5.03    3.73
  -6   5 -18    7.08    3.94
   6  -5 -18    3.59    2.59
   6   5 -19    0.71    2.19
  -6   5 -19    3.93    3.16
   6   5 -20    1.72    2.35
  -6   5 -20    5.13    3.53
   6   5 -21    8.12    4.16
  -6   5 -21   12.01    4.96
   6   5 -22    9.68    4.79
  -6   5 -22   12.60    5.07
   6   5 -23    1.88    2.46
  -6   5 -23    6.90    3.98
   6   5 -24    4.41    2.97
  -6   5 -24    9.96    4.78
  -7   5   0   -0.87    1.88
  -7   5  -1    7.64    3.69
  -7   5   1    4.12    1.84
  -7   5   2  136.78   12.79
  -7   5  -2  139.85   12.56
  -7  -5   3   24.96    2.89
  -7   5   3   28.29    6.13
  -7   5  -3   30.91    6.05
  -7   5   4   23.11    5.25
  -7   5  -4   26.39    5.54
  -7  -5   4   22.71    2.33
  -7   5  -5   14.72    3.76
  -7   5  -6    5.89    1.71
  -7   5  -7   29.07    5.79
  -7   5  -8  118.32   11.88
  -7   5  -9    5.09    2.35
  -7   5 -10    6.01    2.90
  -7   5 -11   21.98    5.38
   7  -5 -12   99.86   10.91
  -7   5 -12  102.16   11.66
  -7   5 -13    3.46    3.29
   7  -5 -13   -2.79    2.71
  -7   5 -14    7.21    3.46
   7  -5 -14    3.47    1.18
  -7   5 -15    7.91    4.15
   7  -5 -15    4.49    2.10
   7   5 -16    9.82    5.01
  -7   5 -16    5.81    4.02
   7  -5 -16    2.42    2.69
   7   5 -17   29.47    7.60
  -7   5 -17   32.46    7.39
   7  -5 -17   32.09    6.68
   7  -5 -18  102.98   12.02
  -7   5 -18  103.37   13.01
   7   5 -18  100.63   13.91
   7   5 -19   23.00    6.96
  -7   5 -19   33.27    7.58
   7  -5 -19   20.27    5.53
   7   5 -20    5.39    3.85
  -7   5 -20    4.80    3.45
   7   5 -21    9.82    5.25
  -7   5 -21    9.17    4.68
   7   5 -22   33.38    8.48
  -7   5 -22   36.89    8.26
   7   5 -23    5.78    3.80
  -7   5 -23    6.65    3.92
  -7   5 -24   38.95    8.87
  -8   5   0   12.02    3.74
  -8   5   1    8.20    3.15
  -8   5  -1   10.27    3.89
  -8   5  -2   15.61    4.80
  -8   5   2   12.34    4.00
  -8   5  -3   25.62    5.67
  -8   5   3   25.36    5.50
  -8   5   4   25.77    5.52
  -8   5  -4   26.59    5.79
  -8   5  -5    4.40    1.52
  -8   5  -6    4.99    1.75
  -8   5  -7   26.77    5.54
  -8   5  -8    5.36    2.84
  -8   5  -9    2.06    1.34
  -8   5 -10    0.63    1.52
  -8   5 -11    9.88    3.94
  -8   5 -12    9.94    4.12
   8  -5 -12    4.97    1.14
  -8   5 -13    5.02    2.63
   8  -5 -13    2.22    1.45
  -8   5 -14   18.50    5.50
   8  -5 -14   11.74    3.84
  -8   5 -15   21.29    6.20
   8  -5 -15   19.59    5.31
  -8   5 -16   18.27    5.55
   8  -5 -16   19.12    5.32
  -8   5 -17    7.64    4.10
   8  -5 -17    8.99    3.83
   8   5 -18    3.65    2.80
  -8   5 -18    6.90    4.09
   8  -5 -18    5.59    3.52
   8   5 -19    1.49    2.35
  -8   5 -19    3.66    2.95
   8  -5 -19    3.90    2.83
   8   5 -20   -1.54    2.74
  -8   5 -20    3.54    3.49
   8   5 -21    3.04    2.99
  -8   5 -21   11.87    5.37
   8   5 -22   -1.12    2.28
  -8   5 -22    6.46    4.33
  -8   5 -23    3.63    3.76
  -9   5   0   22.13    5.65
  -9   5   1  168.08   15.10
  -9   5  -1  180.52   15.47
  -9   5  -2    9.55    4.01
  -9   5   2    6.33    3.22
  -9   5   3    8.67    3.62
  -9   5  -3    9.02    3.73
  -9   5  -4   23.59    5.87
  -9   5   4   17.28    4.81
  -9   5   5  174.66   15.54
  -9   5  -5  177.84   15.46
  -9   5  -6    7.81    2.71
  -9   5  -7   17.79    4.61
  -9   5  -8   -1.74    2.96
  -9   5  -9    3.23    1.70
  -9   5 -10    3.02    1.67
  -9   5 -11   99.36   12.30
  -9   5 -12   17.05    5.21
   9  -5 -12   13.32    4.37
  -9   5 -13    5.31    3.14
   9  -5 -13   -3.67    3.49
  -9   5 -14   10.38    3.99
   9  -5 -14    6.67    2.58
   9  -5 -15   88.34   11.67
  -9   5 -15   82.50   11.94
  -9   5 -16   10.21    4.40
   9  -5 -16    7.42    3.72
  -9   5 -17    4.22    2.85
   9  -5 -17    3.28    3.07
  -9   5 -18    2.80    3.13
   9  -5 -18    0.32    2.13
   9   5 -19   10.73    5.51
  -9   5 -19   10.45    4.60
   9  -5 -19    8.94    4.04
   9   5 -20    4.94    4.18
  -9   5 -20    5.94    4.24
   9  -5 -20    1.23    1.92
   9   5 -21   23.44    7.09
  -9   5 -21   19.43    6.38
 -10   5   0   43.30    8.02
 -10   5   1   57.12    8.88
 -10   5  -1   65.52    9.69
 -10   5  -2   18.54    5.15
 -10   5   2   17.93    5.07
 -10   5   3    2.95    1.43
 -10   5  -3   12.20    4.46
 -10   5  -4   22.47    5.86
 -10   5   4   14.37    4.20
 -10   5  -5   -0.74    3.46
 -10   5   5    6.33    3.14
 -10   5  -6   -3.02    3.75
 -10   5  -7    5.80    2.67
 -10   5  -8    6.73    2.30
 -10   5  -9   -1.44    2.48
 -10   5 -10    4.99    2.69
 -10   5 -11    1.23    1.26
 -10   5 -12   -1.97    2.90
  10  -5 -12   -0.40    3.05
 -10   5 -13    1.50    1.56
  10  -5 -13   -4.51    3.36
 -10   5 -14    1.03    2.39
  10  -5 -14    0.36    1.98
 -10   5 -15    7.70    3.58
  10  -5 -15    7.05    3.30
 -10   5 -16    7.57    4.06
  10  -5 -16    5.91    2.99
 -10   5 -17    0.71    1.54
  10  -5 -17    1.06    1.97
 -10   5 -18    1.68    2.43
  10  -5 -18    1.09    1.94
 -10   5 -19    2.03    2.62
  10  -5 -19    1.07    2.04
  10  -5 -20    6.06    3.69
 -11   5   0    3.30    2.35
 -11   5   1   74.77   10.86
 -11   5  -1   82.52   11.12
 -11   5   2   44.14    8.18
 -11   5  -2   41.49    8.14
 -11   5   3   22.63    5.88
 -11   5  -3   27.15    6.76
 -11   5   4  126.65   13.95
 -11   5  -4  125.43   14.00
 -11   5   5    1.24    1.20
 -11   5  -5    0.28    1.94
 -11   5  -6    9.75    3.77
 -11   5  -7   17.34    5.70
 -11   5  -8  127.48   14.26
 -11   5  -9   34.87    7.79
 -11   5 -10   -3.45    3.40
 -11   5 -11    0.52    1.44
 -11   5 -12    6.30    3.15
  11  -5 -12    9.11    4.28
 -11   5 -13   29.88    7.50
  11  -5 -13   29.26    7.34
 -11   5 -14   33.76    8.00
  11  -5 -14   27.15    6.91
 -11   5 -15   14.66    5.46
  11  -5 -15    9.32    4.19
 -11   5 -16   -0.14    1.86
  11  -5 -16    2.90    2.36
 -11   5 -17   11.74    5.32
  11  -5 -17    8.17    4.28
 -11   5 -18   17.34    6.18
  11  -5 -18   15.91    5.57
  11  -5 -19   13.65    5.51
  11  -5 -20   19.07    6.64
 -12   5   0    7.90    3.85
  12   5   0    6.47    2.77
  12   5   1   18.17    4.43
 -12   5   1   14.38    4.86
 -12   5  -1   19.69    5.93
  12   5   2   25.27    5.15
 -12   5   2   25.95    6.28
 -12   5  -2   23.79    6.47
 -12   5   3    9.04    3.61
 -12   5  -3   15.76    5.47
 -12   5  -4    4.64    3.35
 -12   5   4    0.00    2.03
 -12   5  -5   -0.73    2.25
 -12   5   5   -1.94    2.86
 -12   5  -6  -10.12    4.32
 -12   5  -7    3.31    1.77
 -12   5  -8   -5.14    4.21
 -12   5  -9    5.27    2.06
 -12   5 -10   15.04    5.22
 -12   5 -11    2.22    2.03
 -12   5 -12    6.74    3.45
  12  -5 -12   -2.89    3.44
 -12   5 -13   11.74    4.90
  12  -5 -13    7.85    4.12
 -12   5 -14    0.63    1.52
  12  -5 -14   -3.53    3.70
 -12   5 -15   -1.76    1.72
  12  -5 -15    2.53    2.53
 -12   5 -16    1.74    2.53
  12  -5 -16   -2.89    3.07
  12  -5 -17    5.95    3.57
  12  -5 -18    3.81    3.06
  12  -5 -19    7.42    4.34
 -13   5   0    9.02    4.01
  13   5   0    8.63    3.35
 -13   5   1   60.69   10.61
  13   5  -1   57.03    8.48
 -13   5  -1   59.62   10.15
 -13   5   2   78.49   11.66
  13   5  -2   73.46    9.93
 -13   5  -2   80.60   11.70
 -13   5   3   32.90    7.44
 -13   5  -3   36.09    8.19
 -13   5   4   39.96    8.31
 -13   5  -4   41.82    8.81
 -13   5  -5   14.53    5.18
 -13   5   5   10.15    4.10
 -13   5  -6   30.38    6.64
 -13   5  -7   13.69    4.16
 -13   5  -8    2.57    1.69
 -13   5  -9   -0.43    2.33
 -13   5 -10   13.41    4.78
 -13   5 -11   31.55    7.82
  13  -5 -12    5.70    2.70
 -13   5 -12    8.65    3.98
 -13   5 -13    2.50    2.35
  13  -5 -13   -0.16    2.19
  13  -5 -14   10.07    4.56
  13  -5 -15    2.85    2.25
  13  -5 -16    9.76    5.09
  13  -5 -17   12.38    5.39
 -14   5   0   48.64    9.50
 -14   5   1   16.43    5.49
  14   5  -1   18.22    5.08
 -14   5  -1   19.65    6.29
  14   5  -2    3.62    2.32
 -14   5   2    5.18    3.48
 -14   5  -2    3.98    2.67
 -14   5   3    4.44    2.97
  14   5  -3    4.46    3.03
 -14   5  -3    3.50    2.96
 -14   5  -4    6.60    3.59
 -14   5   4    9.36    3.79
 -14   5  -5    1.19    2.69
 -14   5   5   -1.16    2.14
 -14   5  -6   -0.57    2.86
 -14   5  -7  -16.55    5.85
 -14   5  -8   -2.86    3.96
 -14   5  -9    5.08    3.14
 -14   5 -10    3.73    2.45
  14  -5 -11    3.33    2.22
 -14   5 -11    3.41    1.35
  14  -5 -12    3.86    2.51
  14  -5 -13    0.00    2.08
 -15   5   0   19.60    6.32
 -15   5   1   27.75    7.46
 -15   5  -1   29.60    7.85
  15   5  -2    1.31    2.04
 -15   5   2    0.73    1.16
 -15   5  -2    2.81    2.88
 -15   5   3   30.87    7.92
  15   5  -3   26.37    6.52
 -15   5  -3   27.28    7.44
  15   5  -4    9.49    4.33
 -15   5  -4    6.54    3.46
 -15   5   4    9.28    4.35
 -15   5  -5    1.62    2.28
 -15   5   5    2.00    2.26
 -15   5  -6   10.69    4.62
 -15   5  -7    4.52    2.15
 -16   5   0   -2.90    2.78
 -16   5  -1    3.51    2.51
 -16   5   1    6.06    3.92
 -16   5   2    1.61    2.59
 -16   5  -2    1.47    1.90
 -16   5   3    2.43    2.78
  16   5  -4    4.24    2.95
 -16   5   4    2.99    3.08
 -16   5   5    5.36    3.51
  16   5  -5    8.49    4.38
   0   6   0  554.38   23.09
   0   6   1    8.93    3.88
   0   6  -1   13.67    5.14
   0   6   2  700.73   25.32
   0   6  -2  700.55   27.27
   0   6   3    7.30    3.17
   0   6  -3   11.42    5.11
   0   6   4  404.27   18.08
   0   6  -4  417.67   21.87
   0   6   5    6.24    3.50
   0   6  -5   14.79    6.33
   0   6  -6  992.20   27.58
   0   6   6  967.55   26.75
   0   6  -6  995.86   34.78
   0   6  -7   10.23    5.49
   0   6  -7    3.67    2.66
   0   6  -8   19.79    5.45
   0   6  -8   20.82    4.04
   0   6  -9    2.30    2.69
   0   6  -9    0.66    1.63
   0   6 -10  171.47   15.34
   0   6 -10  171.45   11.48
   0   6 -11    1.35    1.90
   0   6 -11    1.08    1.24
   0   6 -12  133.32   10.16
   0   6 -12  133.42   13.94
   0   6 -13   -1.12    2.31
   0   6 -13    1.93    1.65
   0   6 -14    2.20    2.09
   0   6 -14    5.82    2.14
   0   6 -15   -0.59    2.02
   0   6 -16  104.53   13.46
   0   6 -17    0.61    1.64
   0   6 -18    0.36    1.44
   0   6 -19    4.38    3.57
   0   6 -20   42.52    9.20
   0   6 -21    3.24    3.51
   0   6 -22   88.44   13.65
   0   6 -23    0.41    1.85
   0   6 -24   16.04    6.18
  -1   6   0   20.75    4.33
   1   6   0   24.16    4.80
  -1   6   1   13.69    3.49
  -1   6  -1   13.52    3.17
   1   6   1   13.37    3.66
   1   6  -1   16.93    4.14
   1   6   2   49.10    6.79
  -1   6   2   44.98    6.30
  -1   6  -2   43.58    6.61
   1   6  -2   43.36    6.97
  -1   6   3   41.50    5.84
  -1   6  -3   39.83    6.63
   1   6   3   45.86    6.25
   1   6  -3   47.50    7.51
  -1   6  -4   61.47    7.44
  -1   6   4   56.73    6.71
  -1   6  -4   51.50    7.66
   1   6   4   58.28    6.78
   1   6  -4   61.78    8.40
  -1   6  -5   63.80    7.68
  -1   6  -5   62.34    8.76
   1   6   5   60.18    6.69
   1   6  -5   72.89    9.28
  -1   6  -6   44.65    6.32
   1   6   6   45.26    5.72
  -1   6  -6   41.68    7.32
   1   6  -6   47.62    7.67
  -1   6  -7   33.11    5.40
  -1   6  -7   28.22    6.02
   1   6  -7   30.03    6.26
   1   6   7   29.31    4.36
  -1   6  -8   -0.24    2.04
  -1   6  -8   -0.17    1.37
   1   6  -8    1.05    1.54
   1   6  -8    1.96    1.48
   1   6   8    0.70    0.85
   1   6  -9    4.03    1.48
  -1   6  -9    3.32    1.24
   1   6  -9    2.75    1.40
  -1   6  -9    3.95    1.90
  -1   6 -10    4.46    2.59
   1   6 -10    9.84    3.62
   1   6 -10    6.02    2.11
  -1   6 -10    7.73    2.70
  -1   6 -11    9.48    4.06
   1   6 -11    6.10    3.20
   1   6 -11    7.38    2.38
  -1   6 -11    7.29    2.61
  -1   6 -12    8.97    3.39
   1   6 -12   11.27    3.81
  -1   6 -12   14.74    3.66
   1   6 -12   15.04    3.24
  -1   6 -13    9.33    3.79
   1   6 -13   11.12    4.40
  -1   6 -13    9.61    2.78
   1   6 -13   12.36    2.98
  -1   6 -14    1.51    1.31
  -1   6 -14    1.89    0.70
   1   6 -14    0.77    2.42
  -1   6 -15   -2.98    3.86
   1   6 -15    1.37    1.86
  -1   6 -15    2.59    0.98
  -1   6 -16    0.85    1.50
   1   6 -16    2.84    1.91
  -1   6 -16    1.69    0.86
  -1   6 -17    1.67    1.79
   1   6 -17    1.14    1.78
  -1   6 -18   -1.05    2.45
   1   6 -18   -0.70    1.18
  -1   6 -19    4.15    2.99
   1   6 -19   -0.63    3.11
  -1   6 -20    2.14    1.52
   1   6 -20    2.12    2.13
   1   6 -21    2.05    2.25
  -1   6 -21    1.51    1.86
   1   6 -22   10.30    4.17
  -1   6 -22    1.08    1.31
   1   6 -23    1.78    2.03
  -1   6 -23    1.04    2.09
   1   6 -24    1.52    1.70
  -1   6 -24    1.05    2.69
   2   6   0   26.41    5.47
  -2   6   0   19.66    4.45
  -2   6  -1  224.35   15.25
   2   6   1  218.22   14.49
   2   6  -1  222.78   15.26
  -2   6  -2  113.56   10.39
  -2   6  -2  103.80   10.64
   2   6   2  110.75   10.09
   2   6  -2  115.08   11.05
  -2   6  -3  202.65   13.66
  -2   6  -3  196.16   14.78
   2   6   3  189.51   12.91
   2   6  -3  195.86   14.86
  -2   6  -4  279.37   16.21
  -2   6  -4  255.69   17.27
   2   6   4  267.41   15.03
   2   6  -4  274.91   17.86
  -2   6  -5   35.77    6.69
  -2   6  -5   30.23    5.62
   2   6  -5   35.10    6.74
   2   6   5   33.25    5.25
  -2   6  -6    6.13    3.21
   2   6   6    7.85    2.56
   2   6  -6    5.50    2.84
  -2   6  -6    8.17    2.95
  -2   6  -7  225.54   17.11
   2   6   7  221.85   12.37
   2   6  -7  231.22   17.42
  -2   6  -7  238.68   14.81
  -2   6  -8  147.76   14.14
   2   6   8  144.36    9.66
  -2   6  -8  143.59   11.73
   2   6  -8  153.50   14.54
  -2   6  -9  256.52   18.72
   2   6   9  250.15   12.14
  -2   6  -9  247.79   15.26
   2   6  -9  246.62   18.52
  -2   6 -10   23.49    5.90
   2   6 -10   23.85    5.96
   2   6 -10   24.10    3.77
  -2   6 -10   22.55    4.68
   2   6  10   24.68    3.63
   2   6 -11   52.41    5.48
   2  -6 -11   50.02    5.66
  -2   6 -11   47.14    6.66
  -2   6 -11   47.15    8.40
   2   6 -11   52.90    9.08
  -2   6 -12   12.02    4.86
   2   6 -12   11.43    5.09
  -2   6 -12    5.65    2.34
  -2   6 -13  321.04   18.06
  -2   6 -13  339.94   23.20
   2   6 -13  357.16   23.76
  -2   6 -14   27.24    7.07
   2   6 -14   32.27    7.57
  -2   6 -14   25.68    5.37
  -2   6 -15   65.96    8.43
  -2   6 -15   67.29   10.68
   2   6 -15   63.33   10.34
   2   6 -16    5.02    2.67
  -2   6 -16    5.39    2.10
  -2   6 -16    6.57    3.55
   2   6 -17   45.68    8.95
  -2   6 -17   42.45    7.02
  -2   6 -17   46.55    9.04
   2   6 -18    1.79    2.21
  -2   6 -18    5.13    3.27
  -2   6 -19   88.63   13.16
   2   6 -19   86.79   12.52
   2   6 -20    6.27    3.82
  -2   6 -20    6.08    3.63
   2   6 -21    7.75    3.83
   2   6 -22   10.94    4.85
   2   6 -23   13.36    5.52
   2   6 -24    9.22    4.80
   3   6   0   -0.25    1.55
  -3   6  -1   53.37    7.39
   3   6   1   47.63    6.85
   3   6  -1   52.51    7.45
  -3   6  -2   67.26    8.38
  -3  -6  -2   66.63    6.22
   3   6   2   65.95    7.77
   3   6  -2   64.27    8.18
  -3   6  -3   57.79    7.61
  -3  -6  -3   53.40    5.24
   3   6   3   51.73    6.82
   3   6  -3   52.32    7.64
   3   6   4    6.67    2.34
   3   6  -4    5.36    2.32
  -3   6  -4    9.39    3.15
  -3   6  -5   46.08    6.85
  -3   6  -5   43.78    6.90
   3   6   5   46.72    6.17
   3   6  -5   43.40    7.34
   3   6   6   10.51    2.92
   3   6  -6    9.49    3.99
  -3  -6   6   14.35    2.94
  -3   6  -6    6.67    1.44
  -3   6  -6   10.30    3.11
  -3   6  -7   48.95    8.06
   3   6   7   52.03    6.15
  -3   6  -7   53.01    7.43
   3   6  -7   51.59    8.15
   3   6  -8   23.31    5.80
  -3   6  -8   26.50    5.22
   3   6   8   21.25    3.80
  -3   6  -8   20.64    5.16
   3   6   9   17.50    3.30
   3   6  -9   15.65    4.75
  -3   6  -9   15.21    4.11
  -3   6  -9   12.20    4.33
   3   6 -10   18.73    5.63
  -3   6 -10   20.76    4.58
   3   6  10   18.27    3.10
  -3   6 -10   18.06    5.21
  -3   6 -11   40.72    6.56
   3   6 -11   44.96    8.47
  -3   6 -11   39.41    7.69
  -3   6 -12    4.52    1.44
   3   6 -12    6.65    3.46
   3  -6 -12    4.88    1.79
  -3   6 -12    6.44    2.94
  -3   6 -13   77.09    9.35
  -3   6 -13   79.30   11.37
   3   6 -13   80.00   11.54
   3   6 -14    8.06    4.00
  -3   6 -14    6.80    4.09
  -3   6 -14    6.31    2.97
   3   6 -15   35.35    8.06
  -3   6 -15   31.79    6.22
  -3   6 -15   32.29    7.36
   3   6 -16   12.25    4.90
  -3   6 -16   14.08    4.19
   3   6 -17    5.72    3.50
  -3   6 -17    4.59    2.51
   3   6 -18   11.14    4.90
  -3   6 -18   15.51    4.49
   3   6 -19   17.13    5.70
   3   6 -20    0.86    2.00
   3   6 -21    5.34    3.45
   3   6 -22   -0.71    2.68
   3   6 -23    1.38    1.08
  -4   6   0  101.68   10.50
   4   6   0   95.68   10.19
  -4   6  -1   75.15    9.09
   4   6   1   72.86    8.69
   4   6  -1   78.44    9.38
  -4   6  -2    8.90    3.15
   4   6   2   11.32    3.80
   4   6  -2    8.17    3.25
  -4   6  -3   63.01    8.19
   4   6   3   56.43    7.40
   4   6  -3   61.22    8.33
   4   6   4    3.46    2.09
   4   6  -4    5.15    2.71
  -4   6  -4    6.21    3.10
  -4  -6   4    1.26    0.65
  -4  -6   5  116.00    7.43
   4   6   5  125.25   10.37
  -4   6  -5  127.68   11.65
   4   6  -5  128.42   12.78
  -4   6  -6   84.65    9.55
   4   6   6   78.86    8.13
   4   6  -6   79.14   10.25
   4   6   7    7.10    2.69
   4   6  -7    5.07    3.04
  -4   6  -7    8.77    3.02
   4   6  -8   17.63    5.04
  -4   6  -8   20.48    4.82
   4   6   8   21.84    3.96
  -4   6  -9   88.64    9.86
   4   6   9   86.03    7.62
   4   6  -9   84.11   11.15
  -4   6 -10   37.78    6.13
   4   6  10   41.48    5.07
   4   6 -10   52.39    9.02
  -4   6 -11  189.50   14.72
   4   6 -11  204.29   17.76
  -4   6 -12   15.73    4.00
   4   6 -12   16.21    5.46
   4  -6 -12   12.93    3.17
   4   6 -13   14.48    5.55
   4  -6 -13    8.88    2.63
  -4   6 -13    7.56    3.10
  -4   6 -14   49.82    7.86
   4   6 -14   54.92   10.14
  -4   6 -15  204.15   16.22
   4   6 -15  208.12   19.20
   4   6 -16   10.97    4.91
  -4   6 -16    7.64    3.07
   4   6 -17   36.61    8.41
  -4   6 -17   34.67    6.74
   4   6 -18    9.69    5.16
  -4   6 -18    2.44    1.42
   4   6 -19    4.81    3.01
  -4   6 -19    5.12    2.86
   4   6 -20   58.20   10.77
   4   6 -21   28.52    7.73
   4   6 -22    9.81    4.90
   4   6 -23   16.78    6.00
  -5   6   0   35.95    6.47
  -5   6  -1   32.19    5.90
  -5   6   1   32.09    6.07
  -5   6  -2   36.63    6.48
  -5   6  -3   14.77    4.23
  -5  -6   3   13.07    2.60
  -5   6  -4   57.02    8.12
   5   6   5    6.49    2.67
   5   6  -5    6.15    3.44
  -5   6  -5    9.36    3.75
   5   6   6    4.38    2.16
   5   6  -6    4.56    3.01
  -5   6  -6    3.90    2.77
  -5   6  -7   42.57    6.99
   5   6   7   42.44    5.94
   5   6  -7   46.90    8.16
   5   6   8   16.64    3.81
   5   6  -8   21.40    5.88
  -5   6  -8   19.66    5.09
   5   6   9   17.32    3.59
   5   6  -9   20.99    6.08
  -5   6  -9   13.97    4.00
  -5   6 -10   -0.31    2.62
   5   6  10    4.16    1.87
   5   6 -10    6.45    4.18
  -5   6 -11    3.86    2.30
   5   6 -11    1.90    1.96
   5   6 -12   31.67    7.12
  -5   6 -12   30.38    5.98
   5   6 -13    7.35    3.32
   5  -6 -13    4.32    1.98
  -5   6 -13    3.54    1.08
   5   6 -14    4.54    3.22
   5  -6 -14    3.62    1.81
  -5   6 -14    3.49    2.07
   5   6 -15   18.64    6.18
  -5   6 -15   17.14    4.77
   5   6 -16   10.61    5.37
  -5   6 -16    9.76    3.68
   5   6 -17    5.64    3.37
  -5   6 -17    7.14    3.44
   5   6 -18    2.32    2.40
  -5   6 -18    1.63    1.71
   5   6 -19    1.92    1.60
  -5   6 -19    0.19    1.41
   5   6 -20    3.48    3.10
  -5   6 -20    2.41    2.28
   5   6 -21    1.30    2.11
   5   6 -22    2.51    2.60
  -6   6   0    1.22    1.56
  -6   6   1   35.28    6.81
  -6   6  -1   31.26    6.19
  -6   6  -2  145.24   13.24
  -6   6   2  153.77   13.87
  -6   6  -3    2.90    2.38
  -6   6  -4   88.87   10.19
  -6   6  -5   30.42    6.08
  -6   6  -6    1.03    2.79
  -6   6  -7   32.92    6.57
  -6   6  -8  169.58   14.78
  -6   6  -9   12.48    3.32
  -6   6 -10   -4.63    3.51
   6   6  10    1.40    1.43
   6   6 -10    3.15    3.67
  -6   6 -11   15.68    4.38
   6   6 -11   14.75    5.15
  -6   6 -12   64.05    9.36
   6   6 -12   72.05   11.16
   6   6 -13    6.15    3.58
   6  -6 -13    3.39    1.00
  -6   6 -13    7.28    2.77
   6   6 -14    1.08    1.85
   6  -6 -14   -1.26    2.34
  -6   6 -14   -0.26    2.13
   6   6 -15    5.31    3.42
   6  -6 -15    1.85    1.31
  -6   6 -15    2.65    1.61
   6   6 -16    0.09    2.23
  -6   6 -16   -1.22    1.65
   6   6 -17   13.11    5.50
  -6   6 -17   10.48    3.82
  -6   6 -18   79.01   11.26
   6   6 -18   84.18   13.12
   6   6 -19    6.65    3.63
  -6   6 -19    6.40    3.23
   6   6 -20    0.23    1.60
  -6   6 -20    0.69    1.41
   6   6 -21   12.97    5.25
  -6   6 -21   17.68    5.73
  -7   6   0    0.91    1.09
  -7   6  -1    7.27    3.12
  -7   6   1    9.15    3.52
  -7   6   2    8.29    3.34
  -7   6  -2    5.08    2.87
  -7   6  -3   -0.07    1.29
  -7   6  -4   10.15    3.90
  -7   6  -5   18.93    5.12
  -7   6  -6    2.81    2.73
  -7   6  -7    5.15    3.08
  -7   6  -8   -1.38    1.92
  -7   6  -9   -3.45    3.47
  -7   6 -10    2.81    1.34
  -7   6 -11    8.00    2.60
  -7   6 -12    4.87    1.95
   7   6 -13   11.54    4.59
   7  -6 -13   11.66    3.55
  -7   6 -13    9.84    3.67
   7   6 -14    6.92    4.57
   7  -6 -14    3.24    2.00
  -7   6 -14    1.07    1.92
   7   6 -15    4.51    3.24
   7  -6 -15   -0.19    1.55
  -7   6 -15   -0.16    1.78
   7   6 -16   -2.08    2.48
   7  -6 -16    1.29    1.83
  -7   6 -16    0.33    1.38
   7   6 -17    1.09    1.42
  -7   6 -17   -0.88    2.31
   7   6 -18    0.38    1.84
  -7   6 -18    2.41    2.55
   7   6 -19    1.85    1.42
  -7   6 -19    2.08    2.51
   7   6 -20    2.74    3.59
  -7   6 -20   -2.06    2.42
  -7   6 -21    6.48    3.85
  -7   6 -22   -3.11    2.76
  -8   6   0   44.42    8.05
  -8   6  -1   46.25    8.08
  -8   6   1   40.53    7.58
  -8   6  -2   34.76    7.07
  -8   6   2   39.28    7.36
  -8   6   3   25.58    6.10
  -8   6  -3   26.30    6.33
  -8   6  -4   10.28    3.79
  -8   6  -5  104.47   12.18
  -8   6  -6   78.87   10.57
  -8   6  -7   10.17    4.17
  -8   6  -8   16.46    4.83
  -8   6  -9   40.06    7.34
  -8   6 -10    8.49    3.29
  -8   6 -11   61.59    9.47
  -8   6 -12   32.37    6.94
   8  -6 -13   -2.27    2.51
  -8   6 -13    0.24    1.90
   8  -6 -14   25.91    6.13
  -8   6 -14   20.00    5.71
   8  -6 -15   47.07    8.28
  -8   6 -15   47.47    8.97
   8   6 -15   44.91    9.43
   8   6 -16   10.96    5.00
   8  -6 -16    9.70    3.95
  -8   6 -16    5.58    3.35
   8   6 -17   18.15    6.47
  -8   6 -17   11.04    4.38
   8   6 -18   19.11    7.06
  -8   6 -18   16.84    5.64
   8   6 -19   12.73    5.69
  -8   6 -19   11.12    4.64
  -8   6 -20    1.29    1.67
  -8   6 -21    9.14    4.31
  -9   6   0   31.32    7.03
  -9   6   1   22.06    5.81
  -9   6  -1   25.01    5.94
  -9   6  -2    4.01    2.56
  -9   6   2    0.99    1.78
  -9   6   3    1.61    1.75
  -9   6  -3    4.29    2.25
  -9   6  -4    7.17    3.18
  -9   6  -5    4.83    3.19
  -9   6  -6    3.03    2.88
  -9   6  -7   27.34    6.40
  -9   6  -8   21.42    5.26
  -9   6  -9   -1.91    3.90
  -9   6 -10    5.86    2.37
  -9   6 -11   -3.60    3.41
  -9   6 -12   -0.92    2.70
   9  -6 -13    2.70    1.21
  -9   6 -13    6.42    2.77
   9  -6 -14    4.12    2.43
  -9   6 -14    0.98    1.92
   9  -6 -15   17.92    5.39
  -9   6 -15   15.06    5.03
   9   6 -16   12.40    5.35
   9  -6 -16   12.05    4.58
  -9   6 -16    7.34    3.63
   9   6 -17    7.62    4.31
   9  -6 -17    4.85    3.27
  -9   6 -17    0.39    1.37
   9   6 -18    8.48    4.81
  -9   6 -18    5.80    3.25
  -9   6 -19    6.28    3.71
  -9   6 -20   -1.47    1.71
 -10   6   0   50.30    9.04
 -10   6  -1   50.88    9.30
 -10   6   1   42.29    8.18
 -10   6  -2   18.25    5.56
 -10   6   2   17.15    5.40
 -10   6   3   -0.30    2.43
 -10   6  -3    4.11    2.68
 -10   6   4   26.12    6.47
 -10   6  -4   26.60    6.63
 -10   6  -5   43.14    8.57
 -10   6  -6   15.49    5.44
 -10   6  -7    9.89    4.03
 -10   6  -8   28.14    6.81
 -10   6  -9   19.57    5.69
 -10   6 -10   13.05    4.62
 -10   6 -11   20.15    5.76
 -10   6 -12   16.84    5.13
  10  -6 -13   22.32    5.96
 -10   6 -13   24.75    6.63
  10  -6 -14   34.00    7.51
 -10   6 -14   31.04    7.84
  10  -6 -15   51.12    9.47
 -10   6 -15   52.74   10.27
  10  -6 -16   22.09    6.41
 -10   6 -16   19.65    6.01
  10  -6 -17   18.29    5.93
 -10   6 -17   18.31    5.91
 -10   6 -18   18.58    6.09
 -11   6   0    1.76    2.10
 -11   6  -1    5.77    3.55
 -11   6   1    3.91    2.87
 -11   6  -2   31.53    7.31
 -11   6   2   35.27    7.74
 -11   6   3    0.49    1.44
 -11   6  -3   -0.35    1.59
 -11   6   4    1.57    1.67
 -11   6  -4    4.20    2.45
 -11   6  -5    3.35    1.77
 -11   6  -6   20.62    6.09
 -11   6  -7    3.67    2.96
 -11   6  -8   12.66    4.83
 -11   6  -9   -2.80    3.36
 -11   6 -10    9.62    3.61
 -11   6 -11   -0.24    2.45
 -11   6 -12    0.32    1.27
  11  -6 -13    6.56    3.41
 -11   6 -13    3.90    2.59
  11  -6 -14   10.35    4.48
 -11   6 -14    3.07    2.70
  11  -6 -15    2.54    2.21
 -11   6 -15   -2.28    2.78
  11  -6 -16   -1.84    2.57
 -11   6 -16    0.17    1.27
  11  -6 -17   -1.58    2.08
 -12   6   0    0.08    1.92
 -12   6  -1   13.59    4.95
 -12   6   1   14.58    5.29
 -12   6   2   54.24    9.94
 -12   6  -2   59.95   10.61
 -12   6   3   66.68   11.03
 -12   6  -3   64.44   10.95
 -12   6   4   49.37    9.77
 -12   6  -4   43.60    9.13
 -12   6  -5   27.53    7.22
 -12   6  -6   14.50    5.49
 -12   6  -7   67.49   11.33
 -12   6  -8   53.86    9.86
 -12   6  -9    6.61    2.98
 -12   6 -10   21.81    6.54
 -12   6 -11    9.42    3.36
 -12   6 -12   -0.43    2.84
  12  -6 -13   37.28    8.65
 -12   6 -13   41.31    9.25
  12  -6 -14   24.56    6.83
  12  -6 -15   -0.42    1.30
  12  -6 -16    8.38    3.91
  12  -6 -17   17.94    6.12
 -13   6   0    5.43    3.83
 -13   6  -1    1.51    1.71
 -13   6   1    2.67    1.98
 -13   6  -2    0.53    1.07
 -13   6   2    7.60    4.30
 -13   6  -3    4.13    3.00
 -13   6   3    5.38    3.13
 -13   6   4   -2.91    2.38
 -13   6  -4    4.78    3.72
 -13   6  -5   -0.50    1.09
 -13   6  -6    2.05    2.89
 -13   6  -7    5.61    3.77
 -13   6  -8    5.54    3.95
 -13   6  -9   -2.62    3.28
 -13   6 -10   -3.91    3.73
  13  -6 -12    1.27    1.32
  13  -6 -13    0.28    1.99
  13  -6 -14   -3.00    3.22
 -14   6   0  115.66   15.55
 -14   6  -1   23.19    7.39
 -14   6   1   16.83    5.95
 -14   6  -2   19.05    6.33
 -14   6   2   13.65    5.43
 -14   6   3   17.59    6.31
 -14   6  -3   23.16    6.98
 -14   6   4   37.37    8.57
 -14   6  -4   39.77    9.12
 -14   6  -5    4.93    3.63
 -14   6  -6   50.33   10.33
   0   7   0   22.95    6.45
   0   7   1  656.47   27.16
   0   7  -1  666.06   28.25
   0   7   2    3.75    3.14
   0   7  -2    4.68    3.62
   0   7   3   22.32    4.73
   0   7  -3   26.15    6.00
   0   7   4   -0.29    1.20
   0   7  -4    1.01    1.48
   0   7   5  214.96   14.39
   0   7  -5  211.50   17.11
   0   7  -6    4.06    4.22
   0   7   6    2.77    2.04
   0   7  -7  356.14   22.88
   0   7  -8    1.76    2.60
   0   7  -8    2.07    2.04
   0   7  -9   65.69    7.60
   0   7  -9   62.15    9.98
   0   7 -10    0.65    1.83
   0   7 -10    0.47    1.21
   0   7 -11   11.31    4.12
   0   7 -11    9.78    2.78
   0   7 -12   -0.22    1.97
   0   7 -13   15.69    5.06
   0   7 -14   -1.16    2.78
   0   7 -15   10.43    4.38
   0   7 -16   -0.36    1.96
   0   7 -17   -0.49    2.87
   0   7 -18   -3.74    3.23
   0   7 -19    7.00    3.93
   0   7 -20   -0.21    2.24
   0   7 -21    5.23    3.56
  -1   7   0   25.17    5.44
   1   7   0   30.18    6.06
  -1   7  -1    3.51    2.39
   1   7   1    4.96    2.39
   1   7  -1    4.63    2.72
  -1   7   1    2.12    1.97
  -1   7   2   48.78    7.24
  -1   7  -2   49.68    8.03
   1   7   2   51.17    7.34
   1   7  -2   51.16    8.18
  -1   7   3  128.04   11.59
  -1   7  -3  134.73   13.02
   1   7   3  126.67   11.54
   1   7  -3  140.41   13.53
  -1   7  -4   58.80    9.03
   1   7   4   55.84    7.55
   1   7  -4   58.80    8.95
  -1   7  -5   30.61    6.51
   1   7  -5   27.44    6.76
   1   7   5   26.98    5.26
  -1   7  -6  105.79   10.29
   1   7   6   96.44    9.35
  -1   7  -6  104.21   12.36
   1   7  -6  103.23   12.32
  -1   7  -7   47.11    6.86
   1   7   7   47.44    6.46
  -1   7  -7   41.37    7.81
   1   7  -7   47.56    8.69
  -1   7  -8    2.54    2.11
   1   7  -8    1.02    1.34
  -1   7  -8    1.79    1.81
   1   7   8    2.78    1.87
  -1   7  -9   37.04    7.67
  -1   7  -9   41.47    6.42
   1   7  -9   39.58    7.68
  -1   7 -10   57.68    7.59
  -1   7 -10   59.71    9.77
   1   7 -10   59.74    9.80
  -1   7 -11    2.03    2.61
   1   7 -11    5.02    3.42
  -1   7 -11    1.35    1.29
  -1   7 -12   15.95    4.18
  -1   7 -12   15.12    4.87
   1   7 -12   10.89    4.18
  -1   7 -13   17.25    5.23
   1   7 -13   18.06    5.44
  -1   7 -13   19.00    4.47
  -1   7 -14    7.88    3.46
   1   7 -14    7.36    3.57
  -1   7 -15    1.89    2.14
   1   7 -15    2.87    2.10
  -1   7 -16   26.17    7.23
   1   7 -16   25.32    6.72
  -1   7 -17   12.55    5.18
   1   7 -17   11.98    4.81
  -1   7 -18    0.30    1.42
   1   7 -18   -0.97    1.62
   1   7 -19    8.44    4.36
  -1   7 -19   11.93    5.39
   1   7 -20    7.42    3.94
  -1   7 -20   11.83    5.04
   1   7 -21    2.46    1.54
  -1   7 -21   -0.10    1.54
   2   7   0    2.59    1.97
   2   7   1   15.43    4.39
   2   7  -1   14.55    4.47
  -2   7  -1   15.89    4.19
   2   7   2   14.78    4.49
   2   7  -2   13.76    4.67
  -2   7  -2   12.27    3.28
  -2   7  -3  164.39   14.61
   2   7   3  170.25   13.40
   2   7  -3  168.37   15.07
   2   7   4    4.59    2.71
   2   7  -4    6.36    3.64
  -2   7  -4    4.83    2.53
  -2   7  -5   79.44    9.26
  -2   7  -5   71.28    9.94
   2   7   5   75.57    8.52
   2   7  -5   78.83   10.61
  -2   7  -6   95.56   10.06
  -2   7  -6   88.90   11.26
   2   7   6   87.65    8.92
   2   7  -6   85.29   11.17
  -2   7  -7    2.00    1.33
   2   7   7    1.42    1.81
  -2   7  -7    2.36    1.97
   2   7  -7    2.55    2.73
  -2   7  -8   83.30    9.42
  -2   7  -8   76.48   10.48
   2   7   8   81.93    8.03
   2   7  -8   78.72   11.01
  -2   7  -9   34.70    7.50
  -2   7  -9   35.55    6.23
   2   7  -9   37.30    7.45
   2   7   9   37.17    5.24
  -2   7 -10   22.27    5.75
  -2   7 -10   24.79    5.17
   2   7 -10   27.58    6.81
  -2   7 -11   38.59    8.01
   2   7 -11   33.68    7.52
  -2   7 -11   44.37    7.20
   2   7 -12   42.71    8.72
  -2   7 -12   45.87    7.24
  -2   7 -12   37.36    7.83
   2   7 -13    9.56    4.30
  -2   7 -13   10.66    3.66
  -2   7 -13    9.29    4.03
   2   7 -14   36.17    8.09
  -2   7 -14   42.15    7.04
  -2   7 -14   41.49    8.60
   2   7 -15    1.20    1.85
  -2   7 -15    1.34    1.30
   2   7 -16    5.29    3.23
  -2   7 -16    4.20    2.15
   2   7 -17    1.49    1.62
  -2   7 -17    3.18    2.84
   2   7 -18   14.49    5.25
  -2   7 -18   15.76    5.36
   2   7 -19    6.54    4.66
  -2   7 -19    5.59    3.72
   2   7 -20   21.73    7.14
   3   7   0  105.11   11.47
   3   7   1  145.01   13.10
   3   7  -1  153.97   14.06
   3   7   2   51.99    7.83
   3   7  -2   51.98    8.33
  -3   7  -3   71.93    9.22
   3   7   3   72.46    8.92
   3   7  -3   75.92   10.12
  -3   7  -4   73.12    9.15
   3   7   4   63.46    8.19
   3   7  -4   67.65    9.59
   3   7   5   15.07    3.87
   3   7  -5   19.51    5.68
  -3   7  -5   17.51    4.60
  -3   7  -6   38.44    6.53
   3   7  -6   33.07    6.81
   3   7   6   36.79    5.93
   3   7  -7   18.25    5.66
  -3   7  -7   18.29    4.53
   3   7   7   22.92    4.63
   3   7   8    9.89    3.03
   3   7  -8    7.78    3.79
  -3   7  -8   10.65    3.68
  -3   7  -8    7.80    2.96
  -3   7  -9   56.51    9.47
   3   7  -9   57.34    9.75
  -3   7  -9   57.44    8.38
   3   7 -10   23.99    6.49
  -3   7 -10   20.36    5.82
  -3   7 -10   23.08    5.30
   3   7 -11    2.02    1.54
  -3   7 -11    4.08    2.66
  -3   7 -11    3.32    2.71
   3   7 -12   13.39    5.02
  -3   7 -12   11.11    3.90
  -3   7 -12   13.36    5.05
   3   7 -13   36.64    8.05
  -3   7 -13   34.57    8.16
  -3   7 -13   38.51    7.06
   3   7 -14   10.08    4.40
  -3   7 -14   13.64    4.40
   3   7 -15   12.23    5.35
  -3   7 -15   14.01    4.32
   3   7 -16   29.76    7.76
   3   7 -17   18.35    6.18
   3   7 -18    1.03    1.59
   3   7 -19   18.85    6.68
   3   7 -20    6.17    3.30
   4   7   0   11.66    3.97
   4   7   1    4.61    2.87
   4   7  -1    2.38    2.13
   4   7   2    6.05    2.77
   4   7  -2    6.76    3.55
  -4   7  -2    4.56    2.64
  -4   7  -3    4.35    2.39
   4   7   3    5.27    2.33
   4   7  -3    7.79    3.27
   4   7   4    2.58    1.45
   4   7  -4    1.44    1.40
  -4   7  -4    3.67    2.16
   4   7   5   10.56    3.38
   4   7  -5   11.42    3.99
  -4   7  -5    9.90    3.61
   4   7   6   12.39    3.57
   4   7  -6    9.33    3.74
  -4   7  -6   13.58    3.88
   4   7   7    0.03    1.30
   4   7  -7    3.58    3.79
  -4   7  -7    1.11    1.39
   4   7  -8   37.92    7.81
   4   7   8   36.45    5.61
  -4   7  -8   42.36    7.20
   4   7  -9    4.84    3.37
  -4   7  -9    2.34    2.37
  -4   7 -10   46.39    7.74
   4   7 -10   41.46    8.47
   4   7 -11   17.43    5.77
  -4   7 -11   18.49    4.98
   4   7 -12    1.27    1.57
  -4   7 -12    6.24    3.18
   4   7 -13   22.70    6.69
  -4   7 -13   27.35    5.91
   4   7 -14    8.01    3.99
  -4   7 -14    6.28    2.77
   4   7 -15    6.96    3.75
  -4   7 -15    0.09    1.72
   4   7 -16   10.41    4.57
  -4   7 -16    8.42    3.14
  -4   7 -17    0.92    0.92
   4   7 -17    4.94    2.82
   4   7 -18   15.33    5.77
   4   7 -19    7.35    4.28
   4   7 -20    8.48    5.29
   5   7   0    8.12    3.75
  -5   7  -1   45.72    7.88
   5   7   1   47.64    7.68
   5   7  -1   47.35    7.87
  -5   7  -2   19.78    5.10
   5   7   2   18.14    4.80
   5   7  -2   20.70    5.57
   5   7   3    6.89    3.17
   5   7  -3    7.19    3.71
  -5   7  -3    1.78    1.49
   5   7   4   18.45    4.67
   5   7  -4   18.13    5.10
  -5   7  -4   15.92    4.60
  -5   7  -5   48.00    7.91
   5   7   5   53.42    7.67
   5   7  -5   53.84    9.13
   5   7   6   25.01    5.19
   5   7  -6   27.39    6.79
  -5   7  -6   24.76    5.94
   5   7   7   49.56    7.05
   5   7  -7   51.65    9.35
  -5   7  -7   52.17    8.32
   5   7   8   48.91    6.70
  -5   7  -8   46.17    7.80
   5   7  -8   46.85    8.89
  -5   7  -9   47.29    7.93
   5   7  -9   40.37    8.64
  -5   7 -10   78.97   10.34
   5   7 -10   74.50   11.34
  -5   7 -11   51.29    8.37
   5   7 -11   53.05    9.94
   5   7 -12   10.38    4.61
  -5   7 -12   15.43    4.75
   5   7 -13   11.39    4.57
  -5   7 -13   13.77    4.18
   5   7 -14   13.39    5.68
  -5   7 -14    6.67    2.79
   5   7 -15    2.80    2.44
  -5   7 -15   -0.65    1.83
  -5   7 -16   22.93    5.79
   5   7 -16   24.06    7.37
  -5   7 -17   19.62    5.35
   5   7 -17   20.52    7.05
   5   7 -18   18.86    6.68
  -5   7 -18   17.01    5.21
   5   7 -19   19.10    6.87
   6   7   0    3.32    2.73
  -6   7   0    0.63    1.58
   6   7   1    5.95    3.15
   6   7  -1    9.92    4.03
  -6   7  -1    6.19    3.35
  -6   7  -2   55.36    8.90
   6   7   2   59.89    8.97
   6   7  -2   61.10    9.48
   6   7   3   19.22    5.01
   6   7  -3   20.45    5.85
  -6   7  -3   18.98    5.27
  -6   7  -4   44.79    7.93
   6   7   4   47.05    7.54
   6   7  -4   49.77    8.93
   6   7   5   13.83    4.06
   6   7  -5   14.08    5.15
  -6   7  -5   11.80    4.36
  -6   7  -6    5.73    2.82
   6   7   6    4.56    2.46
   6   7  -6    4.66    3.46
   6   7   7    7.91    3.09
   6   7  -7    9.92    4.77
  -6   7  -7    8.59    3.65
  -6   7  -8   37.73    7.37
   6   7   8   39.23    6.43
   6   7  -8   42.42    9.00
   6   7  -9    6.12    4.15
  -6   7  -9    7.34    3.50
   6   7 -10   25.68    7.14
  -6   7 -10   19.79    5.52
   6   7 -11    8.81    4.67
  -6   7 -11    6.52    3.65
   6   7 -12    5.17    3.16
  -6   7 -12    8.58    3.79
   6   7 -13   17.83    5.80
  -6   7 -13   14.51    4.70
   6   7 -14    2.88    2.60
  -6   7 -14    0.20    2.36
  -6   7 -15    7.16    3.32
   6   7 -15    8.03    4.62
  -6   7 -16    2.75    1.10
   6   7 -16    6.33    4.01
  -6   7 -17    6.78    3.38
   6   7 -17    7.99    5.02
   6   7 -18   24.18    7.79
  -6   7 -18   17.37    5.38
  -6   7 -19    6.11    2.97
  -7   7   0    0.84    1.33
  -7   7  -1    8.44    3.53
  -7   7   1    8.43    3.62
  -7   7  -2   67.28    9.90
  -7   7  -3    2.19    2.56
  -7   7  -4   48.79    8.65
  -7   7  -5   10.41    4.02
  -7   7  -6   17.46    5.28
   7   7  -6   24.01    6.75
   7   7   7    4.65    2.96
   7   7  -7    8.66    4.92
  -7   7  -7    6.55    3.49
  -7   7  -8  123.47   13.72
   7   7   8  120.50   11.47
   7   7  -8  122.06   14.75
   7   7  -9    5.90    4.44
  -7   7  -9    5.99    3.75
   7   7 -10    0.59    1.95
  -7   7 -10    0.65    2.13
   7   7 -11    7.18    4.20
  -7   7 -11    6.07    3.63
  -7   7 -12   71.30   10.59
   7   7 -12   91.03   13.36
   7   7 -13    5.31    3.91
  -7   7 -13    1.23    1.93
  -7   7 -14   13.21    4.38
   7   7 -14   19.73    6.79
  -7   7 -15   -1.66    2.56
   7   7 -15   -3.10    3.00
  -7   7 -16   -6.36    4.08
   7   7 -16    5.55    4.17
   7   7 -17   11.29    5.57
  -7   7 -17    5.41    2.92
  -7   7 -18   50.74    9.55
  -7   7 -19    0.47    1.16
  -8   7   0   46.79    8.66
  -8   7  -1   35.49    7.58
  -8   7   1   33.97    7.54
  -8   7  -2   14.06    4.64
  -8   7  -3   19.66    5.73
  -8   7  -4   15.89    5.37
  -8   7  -5   40.90    8.32
  -8   7  -6   11.04    4.24
  -8   7  -7   24.22    6.34
  -8   7  -8   23.12    6.20
  -8   7  -9    2.65    2.79
   8   7 -10   13.89    5.45
  -8   7 -10   13.61    5.01
   8   7 -11   25.73    7.28
  -8   7 -11   24.73    6.66
   8   7 -12   20.41    7.04
  -8   7 -12   19.51    5.80
  -8   7 -13    0.54    2.77
   8   7 -13    6.55    4.74
   8  -7 -13   -0.48    2.00
  -8   7 -14   -1.12    1.97
   8   7 -14    4.05    3.10
  -8   7 -15   -2.57    3.11
   8   7 -15   -0.24    2.17
  -8   7 -16   -1.02    2.56
   8   7 -16    4.16    2.49
  -8   7 -17   -3.51    3.34
  -8   7 -18   -0.29    1.89
  -8   7 -19   -0.26    1.74
  -9   7   0  115.22   13.89
  -9   7  -1   64.39   10.34
  -9   7   1   62.54   10.46
  -9   7   2    3.02    3.16
  -9   7  -2   -1.18    1.32
  -9   7  -3    9.64    4.03
  -9   7  -4    4.14    3.57
  -9   7  -5   93.40   12.57
  -9   7  -6   27.20    6.98
  -9   7  -7    6.26    3.57
  -9   7  -8    5.51    3.38
  -9   7  -9   20.85    6.23
  -9   7 -10    9.98    4.46
  -9   7 -11   75.18   11.74
   9   7 -12    1.20    2.27
  -9   7 -12    4.38    3.40
  -9   7 -13    1.24    1.74
   9   7 -13    7.01    4.48
   9  -7 -13    3.00    2.08
  -9   7 -14    0.93    1.08
   9   7 -14    2.74    3.21
   9  -7 -14    0.90    1.01
  -9   7 -15   66.68   11.39
  -9   7 -16   -1.00    2.43
  -9   7 -17    9.87    4.50
 -10   7   0   12.15    4.93
 -10   7  -1   16.38    5.28
 -10   7   1   24.66    6.64
 -10   7  -2    5.78    3.35
 -10   7   2    8.10    4.01
 -10   7  -3    6.22    3.09
 -10   7  -4    1.57    2.49
 -10   7  -5    2.67    2.44
 -10   7  -6    4.67    2.40
 -10   7  -7    0.63    1.80
 -10   7  -8    8.87    4.19
 -10   7  -9   12.62    4.91
 -10   7 -10   13.24    5.00
 -10   7 -11   13.90    5.22
 -10   7 -12   -1.60    2.25
 -10   7 -13    1.74    1.94
  10  -7 -13   -0.29    1.82
 -10   7 -14    5.80    2.96
  10  -7 -14    4.77    3.07
 -10   7 -15   -5.73    4.04
 -11   7   0    0.36    1.18
 -11   7   1    2.13    1.76
 -11   7  -1    2.13    2.10
 -11   7   2   10.35    4.46
 -11   7  -2   12.64    5.15
 -11   7  -3   58.95   10.59
 -11   7  -4   21.28    6.49
 -11   7  -5    3.12    2.68
 -11   7  -6   19.66    6.28
 -11   7  -7   53.43   10.49
 -11   7  -8   51.79   10.16
 -11   7  -9   16.50    5.93
 -11   7 -10    6.08    3.88
 -11   7 -11    3.48    3.58
 -11   7 -12   17.60    6.01
  11  -7 -13   21.12    6.29
  11  -7 -14   26.26    7.15
 -12   7   0    5.39    3.29
 -12   7   1   16.39    5.82
 -12   7  -1   12.51    4.96
 -12   7  -2    7.73    4.10
 -12   7   2    6.81    3.80
 -12   7   3   10.80    4.64
 -12   7  -3   10.27    4.84
 -12   7  -4   19.32    6.23
 -12   7  -5    1.40    2.25
 -12   7  -6    4.42    3.62
 -12   7  -7   14.26    5.40
 -12   7  -8    7.33    4.24
 -12   7  -9   31.30    8.27
  12  -7 -13   -0.05    2.14
  12  -7 -14   -1.13    2.16
  12  -7 -15    8.89    4.44
 -13   7   0    2.77    2.32
 -13   7   1    4.88    3.08
 -13   7  -1    4.73    3.09
 -13   7  -2   12.90    5.10
 -13   7   2   12.82    5.18
 -13   7  -3    6.14    3.82
 -13   7   3    8.78    4.65
   0   8   0   62.49    9.04
   0   8   1    0.37    1.05
   0   8  -1    2.74    2.29
   0   8   2   30.59    6.28
   0   8  -2   33.85    6.91
   0   8  -3   -1.86    2.01
   0   8   3   -0.53    1.64
   0   8  -4   28.91    6.77
   0   8   4   30.40    5.93
   0   8  -5    0.98    2.05
   0   8  -6   65.87   10.38
   0   8  -7    5.05    4.15
   0   8  -8    1.14    1.95
   0   8  -9   -2.15    2.56
   0   8 -10   32.22    7.58
   0   8 -11    1.06    2.29
   0   8 -12    6.93    3.76
   0   8 -13   -2.78    3.08
   0   8 -14    3.04    2.64
   0   8 -15    1.41    3.00
   0   8 -16   21.20    6.60
   0   8 -17   -0.62    3.00
   1   8   0   14.76    4.30
  -1   8   0   10.32    3.49
   1   8   1    1.00    1.47
   1   8  -1    4.38    2.36
  -1   8   1    2.95    2.17
  -1   8  -1    2.85    2.11
  -1   8  -2   33.04    6.94
   1   8   2   30.84    6.31
   1   8  -2   32.91    6.91
  -1   8   2   28.38    5.98
  -1   8  -3   13.68    4.88
   1   8   3   11.66    3.90
   1   8  -3   11.53    4.35
  -1   8  -4    5.52    2.73
   1   8   4    6.65    2.69
   1   8  -4    6.54    3.28
   1   8   5    9.67    3.33
  -1   8  -5   13.90    4.55
   1   8  -5   16.10    5.35
  -1   8  -6   37.51    7.50
   1   8  -6   37.66    7.68
   1   8   6   35.17    6.16
  -1   8  -7    1.65    2.34
   1   8  -7   -2.58    2.97
   1   8   7    0.87    0.76
  -1   8  -8    1.54    1.71
   1   8  -8    3.93    2.91
  -1   8  -9    1.20    1.87
   1   8  -9    0.27    1.22
  -1   8  -9    2.25    1.78
  -1   8 -10    2.74    2.83
   1   8 -10   -2.58    2.82
  -1   8 -10   -1.07    1.72
  -1   8 -11    0.67    1.58
   1   8 -11    4.62    2.48
  -1   8 -12   -0.90    1.91
   1   8 -12    0.14    1.97
  -1   8 -13    1.77    1.46
   1   8 -13    5.77    3.97
  -1   8 -14   -2.85    3.31
   1   8 -14   -0.95    3.07
  -1   8 -15   -2.41    2.77
   1   8 -15   -1.43    2.36
  -1   8 -16   -3.47    3.81
   1   8 -16    0.79    1.89
   1   8 -17   -0.98    2.85
  -1   8 -17   -0.95    2.58
   2   8   0    6.84    3.18
   2   8   1    8.92    3.58
   2   8  -1    4.31    2.56
   2   8   2    6.27    3.17
   2   8  -2    6.82    3.61
  -2   8  -3  106.70   12.78
   2   8   3  101.85   11.13
   2   8  -3  108.66   12.92
   2   8  -4   35.47    7.59
   2   8   4   34.80    6.55
  -2   8  -4   34.51    7.31
   2   8   5   12.20    3.78
   2   8  -5   12.67    4.84
  -2   8  -5   11.37    4.51
   2   8   6    7.96    3.08
   2   8  -6    7.42    3.52
  -2   8  -6    8.98    3.74
   2   8  -7   27.73    6.82
  -2   8  -7   29.78    6.07
   2   8   7   31.74    5.73
  -2   8  -7   30.88    7.06
   2   8  -8    3.47    2.41
  -2   8  -8    6.22    2.91
  -2   8  -8    2.75    2.32
   2   8  -9   23.28    6.36
  -2   8  -9   23.58    5.28
  -2   8  -9   28.86    7.15
   2   8 -10   -1.60    2.83
  -2   8 -10    3.18    1.90
  -2   8 -10    2.92    3.62
   2   8 -11   -0.31    2.17
  -2   8 -11    1.93    1.67
  -2   8 -11    0.88    2.19
   2   8 -12   -1.71    2.60
  -2   8 -12    1.81    2.60
   2   8 -13   14.88    5.50
  -2   8 -13   17.76    5.85
   2   8 -14    3.59    2.80
  -2   8 -14    5.10    3.76
   2   8 -15   -0.48    1.89
  -2   8 -15    1.97    2.67
   2   8 -16   13.42    5.45
  -2   8 -16   13.28    5.58
   2   8 -17   15.19    6.13
  -2   8 -17    6.22    3.92
   3   8   0    0.50    1.71
   3   8   1   14.65    4.44
   3   8  -1   14.28    4.42
   3   8   2    2.26    1.48
   3   8  -2    2.36    2.61
   3   8   3   11.68    3.87
   3   8  -3   13.27    5.02
   3   8   4   21.82    5.03
   3   8  -4   23.43    6.23
   3   8   5    8.11    3.33
   3   8  -5    5.35    3.11
   3   8   6    1.17    1.10
   3   8  -6    2.50    2.23
  -3   8  -6   -1.12    1.81
   3   8   7    8.37    3.02
   3   8  -7    6.97    3.43
  -3   8  -7    8.68    3.22
   3   8  -8    6.77    3.39
  -3   8  -8    6.22    2.39
  -3   8  -9   15.23    4.42
   3   8  -9   18.70    5.73
   3   8 -10    2.04    2.49
  -3   8 -10    4.13    2.24
   3   8 -11   -5.09    4.02
  -3   8 -11    0.96    1.71
   3   8 -12    5.16    3.35
  -3   8 -12    7.61    3.13
   3   8 -13   25.66    6.96
   3   8 -14    2.29    1.89
   3   8 -15   13.35    5.26
   3   8 -16    2.48    2.48
   4   8   0   66.18    9.81
   4   8   1   58.33    8.97
   4   8  -1   60.98    9.65
   4   8   2    7.18    3.18
   4   8  -2    5.27    2.95
   4   8   3    3.55    2.45
   4   8  -3    4.42    3.09
   4   8   4    7.01    2.99
   4   8  -4    7.63    3.57
  -4   8  -4    9.44    3.99
   4   8   5   17.20    4.53
   4   8  -5   18.29    5.71
  -4   8  -5   19.26    5.15
  -4   8  -6   59.09    9.01
   4   8   6   54.74    7.88
   4   8  -6   60.54   10.00
  -4   8  -7   39.49    7.29
   4   8   7   35.32    6.25
   4   8  -7   44.10    9.05
   4   8  -8    4.17    2.22
  -4   8  -8    5.86    3.05
   4   8  -9   11.21    4.67
  -4   8  -9   12.10    4.58
  -4   8 -10   64.58    9.56
   4   8 -10   58.90   10.60
   4   8 -11    8.42    4.55
  -4   8 -11    6.11    3.22
  -4   8 -12    3.45    2.64
   4   8 -12    2.21    1.76
   4   8 -13    4.20    2.93
  -4   8 -13   10.30    3.90
   4   8 -14    0.09    2.03
   4   8 -15    2.12    1.56
   4   8 -16   15.71    6.19
   5   8   0   40.91    7.79
   5   8   1   -0.23    1.45
   5   8  -1    1.49    2.17
   5   8   2    5.30    2.96
   5   8  -2    8.42    3.93
  -5   8  -3    0.62    1.58
   5   8   3    3.93    2.63
   5   8  -3    3.86    2.00
   5   8   4    7.36    3.07
   5   8  -4    6.26    3.10
  -5   8  -4    8.47    3.69
   5   8   5    2.09    1.99
   5   8  -5    1.86    2.53
  -5   8  -5    1.96    2.34
   5   8   6   16.32    4.46
   5   8  -6   12.18    4.90
  -5   8  -6   10.93    3.93
   5   8  -7   10.86    4.70
  -5   8  -7    9.20    3.86
   5   8  -8    8.64    3.93
  -5   8  -8    8.89    3.52
   5   8  -9    1.70    1.95
  -5   8  -9    1.37    1.94
   5   8 -10    2.96    2.76
  -5   8 -10    1.73    1.84
  -5   8 -11    1.76    2.04
   5   8 -11   -1.25    1.51
   5   8 -12    8.04    4.84
  -5   8 -12    7.55    3.09
   5   8 -13   -0.35    1.59
  -5   8 -13   -2.24    2.48
   5   8 -14   -1.34    2.30
  -5   8 -14    2.44    2.01
   5   8 -15   16.07    6.06
  -5   8 -15   12.86    4.53
   6   8   0   -0.41    1.16
   6   8   1    6.58    3.27
   6   8  -1   11.25    4.38
  -6   8  -2   36.28    7.57
   6   8   2   29.28    6.48
   6   8  -2   33.03    7.52
   6   8   3    0.88    1.93
   6   8  -3    2.34    2.99
  -6   8  -3    0.50    1.84
   6   8   4   23.57    5.63
   6   8  -4   21.73    6.14
  -6   8  -4   26.73    6.58
   6   8   5   16.64    4.71
   6   8  -5   14.69    4.96
  -6   8  -5   21.71    5.92
   6   8   6    7.64    3.24
   6   8  -6   10.75    4.95
  -6   8  -6    4.98    2.72
   6   8  -7   23.52    6.96
  -6   8  -7   18.79    5.45
  -6   8  -8   51.84    9.12
   6   8  -8   51.79   10.17
   6   8  -9    8.90    4.39
  -6   8  -9    9.70    4.11
  -6   8 -10   12.10    4.56
   6   8 -10   11.51    5.22
   6   8 -11   15.68    5.98
  -6   8 -11   15.06    5.30
   6   8 -12   22.03    6.73
  -6   8 -12   27.15    6.68
   6   8 -13   23.94    7.33
  -6   8 -13   20.90    5.77
   6   8 -14   16.95    6.12
  -6   8 -14   15.75    5.22
  -6   8 -15   11.82    4.84
  -6   8 -16    7.43    3.52
   7   8   0   -0.10    1.40
   7   8   1    3.48    2.19
   7   8  -1   -0.38    1.29
  -7   8  -2    1.95    1.24
   7   8   2    3.39    2.30
   7   8  -2    2.71    2.37
   7   8   3   -0.31    1.03
   7   8  -3    1.87    2.78
   7   8   4    1.57    1.56
   7   8  -4    2.69    2.63
  -7   8  -4    4.06    3.00
  -7   8  -5    3.54    2.77
   7   8   5    2.58    2.26
   7   8  -5    0.85    1.25
   7   8   6    6.50    3.09
   7   8  -6    5.57    3.61
  -7   8  -6    7.74    3.65
   7   8  -7   -1.31    2.50
  -7   8  -7   -2.31    2.26
   7   8  -8    4.68    3.61
  -7   8  -8    2.45    1.71
  -7   8  -9    2.58    2.54
   7   8  -9    5.10    3.40
   7   8 -10    2.61    3.54
  -7   8 -10   -1.85    2.21
   7   8 -11    7.07    4.44
  -7   8 -11    1.59    1.30
   7   8 -12    1.46    2.30
  -7   8 -12    0.87    1.72
   7   8 -13    4.41    3.97
  -7   8 -13    7.83    4.12
  -7   8 -14    5.58    3.41
  -7   8 -15    1.35    1.44
  -7   8 -16    0.51    0.96
  -7   8 -17    9.27    4.45
   8   8   0    1.07    1.10
  -8   8  -1   14.11    4.88
   8   8   1   15.66    5.33
   8   8  -1   16.07    5.34
   8   8   2   17.58    5.49
   8   8  -2   22.09    6.52
  -8   8  -2   17.69    5.83
   8   8   3    3.01    2.21
   8   8  -3    0.77    1.20
  -8   8  -3    2.27    1.58
  -8   8  -4    4.44    3.00
   8   8   4    8.02    3.72
   8   8  -4   10.23    4.90
   8   8   5   33.05    6.88
   8   8  -5   42.00    9.14
  -8   8  -5   35.95    8.00
   8   8   6   10.69    4.35
   8   8  -6    5.60    3.29
  -8   8  -6    9.54    4.43
   8   8  -7   10.62    5.08
  -8   8  -7   10.04    4.19
  -8   8  -8   27.29    7.24
   8   8  -8   23.30    6.81
  -8   8  -9   28.52    7.33
   8   8  -9   28.84    8.30
   8   8 -10    5.72    3.95
  -8   8 -10    3.31    2.57
  -8   8 -11   40.17    8.71
   8   8 -11   43.71   10.16
   8   8 -12   24.25    7.88
  -8   8 -12   18.40    6.11
  -8   8 -13    0.22    1.43
  -8   8 -14    9.01    4.62
  -8   8 -15   11.39    4.93
  -8   8 -16    1.26    2.60
  -9   8   0    2.38    2.64
  -9   8  -1    0.08    1.44
  -9   8  -2    7.22    3.25
  -9   8  -3    2.98    2.24
  -9   8  -4    2.76    2.57
   9   8   5    2.99    2.24
   9   8  -5    1.96    1.70
  -9   8  -5    1.86    2.07
   9   8  -6   11.05    5.23
  -9   8  -6    9.66    4.36
   9   8  -7   12.64    6.11
  -9   8  -7    2.82    2.64
  -9   8  -8    0.62    1.97
   9   8  -8    3.99    3.26
   9   8  -9    3.04    3.70
  -9   8  -9   -0.41    2.05
   9   8 -10    5.09    4.02
  -9   8 -10    3.37    2.29
  -9   8 -11    4.00    2.89
  -9   8 -12    2.35    2.47
  -9   8 -13    0.24    1.13
  -9   8 -14    5.35    3.68
 -10   8   0   11.23    4.65
 -10   8  -1   11.28    4.60
 -10   8  -2    2.78    2.22
 -10   8  -3    9.59    4.81
 -10   8  -4   29.83    7.93
 -10   8  -5   44.07    9.57
 -10   8  -6   26.92    7.43
 -10   8  -7    7.04    3.81
 -10   8  -8   24.12    6.95
  10   8  -8   25.61    7.79
 -10   8  -9   17.94    6.16
 -10   8 -10    9.41    4.67
 -10   8 -11   10.21    4.53
 -11   8   0    1.65    1.53
 -11   8  -1   19.51    6.58
 -11   8  -2    0.67    1.08
 -11   8  -3   -3.54    3.55
 -11   8  -4   -0.92    1.60
 -11   8  -5    1.78    3.13
 -11   8  -6    1.23    2.12
   0   9   0    1.04    1.88
   0   9  -1    0.96    1.44
   0   9   1    0.21    1.58
   0   9  -2    0.34    1.86
   0   9   2   -1.41    2.07
   0   9  -3   17.05    5.13
   0   9   3   12.02    4.09
   0   9  -4   -2.45    3.54
   0   9  -5   -2.16    2.87
   0   9  -6   -3.25    3.13
   0   9  -7    4.89    3.35
   0   9  -8   -0.31    2.01
   0   9  -9   10.94    4.84
   0   9 -10   -0.53    2.14
   0   9 -11   13.56    5.49
   0   9 -12   -1.23    3.12
   0   9 -13    0.01    1.40
   1   9   0   25.15    6.31
   1   9  -1    4.85    2.82
  -1   9  -1    4.85    2.70
   1   9   2   20.57    5.59
   1   9  -2   18.31    5.58
  -1   9  -2   17.81    5.37
   1   9  -3   31.16    7.28
   1   9   3   33.06    6.97
  -1   9  -3   34.10    7.64
   1   9  -4   32.40    7.65
  -1   9  -4   27.58    7.11
   1   9   4   31.53    6.64
   1   9  -5    2.67    3.06
   1   9   5   -1.22    1.53
  -1   9  -5    2.35    2.43
  -1   9  -6   50.03    9.53
   1   9  -6   44.39    9.24
   1   9  -7   24.35    6.92
  -1   9  -7   19.63    6.13
   1   9  -8    3.46    2.86
  -1   9  -8    0.87    1.50
   1   9  -9   12.24    5.07
  -1   9  -9    8.41    4.43
   1   9 -10   33.86    8.35
  -1   9 -10   26.41    7.67
   1   9 -11    5.72    3.21
  -1   9 -11    7.61    3.97
   1   9 -12   12.05    5.76
  -1   9 -12    6.46    3.30
   1   9 -13   18.53    6.45
  -1   9 -13   14.55    5.55
   2   9   0    4.27    1.87
   2   9   1    1.05    1.57
   2   9  -1    1.09    1.75
   2   9   2    3.98    2.74
   2   9  -2    3.25    2.65
   2   9   3   10.78    4.07
   2   9  -3   10.90    4.24
   2   9   4    8.06    3.44
   2   9  -4    8.68    4.22
   2   9   5    8.18    3.48
   2   9  -5    9.74    4.65
   2   9  -6   11.06    4.88
   2   9  -7   -0.04    1.40
  -2   9  -7   -0.75    2.29
   2   9  -8    1.22    2.00
  -2   9  -8   -1.44    2.00
   2   9  -9   -0.24    1.41
  -2   9  -9    2.99    3.47
   2   9 -10   10.77    5.01
  -2   9 -10   10.42    4.13
   2   9 -11    0.89    2.31
  -2   9 -11    1.94    2.01
   2   9 -12    6.24    4.45
  -2   9 -12   -0.32    1.96
   3   9   0   22.32    6.35
   3   9   1   43.77    8.15
   3   9  -1   41.89    8.51
   3   9   2   14.93    4.89
   3   9  -2   18.18    5.86
   3   9   3   61.18    9.47
   3   9  -3   50.68    9.37
   3   9   4   43.33    7.76
   3   9  -4   51.27    9.62
   3   9   5   27.92    6.25
   3   9  -5   28.83    7.83
   3   9  -6   32.74    8.24
   3   9  -7   30.84    8.20
   3   9  -8   18.31    6.48
   3   9  -9   37.90    8.95
  -3   9  -9   36.03    7.30
   3   9 -10   10.39    4.98
   3   9 -11    4.47    3.52
   3   9 -12   -2.37    3.49
   4   9   0   22.58    6.19
   4   9   1    7.92    3.94
   4   9  -1    7.17    3.90
   4   9   2    3.09    2.55
   4   9  -2    0.55    1.30
   4   9   3    7.28    3.47
   4   9  -3    9.00    4.47
   4   9   4    6.20    3.19
   4   9  -4    7.60    4.01
   4   9   5    1.30    1.76
   4   9  -5    1.12    2.61
   4   9  -6   -0.47    1.82
   4   9  -7    5.18    2.53
   4   9  -8   11.11    4.75
  -4   9  -8   13.58    4.78
   4   9  -9    6.44    3.58
  -4   9  -9    6.11    3.26
   4   9 -10   -2.58    3.09
  -4   9 -10   -1.74    1.40
   4   9 -11    0.06    1.57
   5   9   0   15.68    5.53
   5   9   1   57.75    9.87
   5   9  -1   57.22   10.06
   5   9   2    9.74    4.26
   5   9  -2    8.96    4.21
   5   9   3    1.48    1.80
   5   9  -3   -1.11    1.69
   5   9   4   20.24    5.42
   5   9  -4   17.90    6.09
   5   9  -5   40.14    9.02
   5   9  -6   10.34    4.93
  -5   9  -6   10.80    4.40
   5   9  -7   42.22    9.48
  -5   9  -7   39.29    8.20
   5   9  -8   12.83    5.35
  -5   9  -8   13.78    4.75
   5   9  -9   20.66    6.86
  -5   9  -9   21.38    6.07
   5   9 -10   22.86    7.47
  -5   9 -10   24.63    6.35
   5   9 -11   22.64    7.46
  -5   9 -11   25.63    6.74
   6   9   0    3.37    2.48
   6   9   1    7.49    3.65
   6   9  -1    7.68    4.40
   6   9   2   -0.02    1.26
   6   9  -2    2.01    2.58
   6   9   3    2.64    1.40
   6   9  -3    0.94    1.17
   6   9   4   -0.88    0.85
   6   9  -4    0.42    1.70
  -6   9  -5    6.85    3.43
   6   9  -5    7.67    3.94
   6   9  -6    4.86    3.46
  -6   9  -6    3.07    2.05
  -6   9  -7    8.27    4.37
   6   9  -7    9.61    4.62
   6   9  -8    2.70    3.01
  -6   9  -8    3.02    2.66
   6   9  -9    2.58    2.77
  -6   9  -9    0.92    1.46
   6   9 -10    2.95    2.41
  -6   9 -10    3.18    2.38
  -6   9 -11    1.34    1.31
  -6   9 -12    6.81    3.50
   7   9   0    1.82    2.60
   7   9   1    3.37    2.14
   7   9  -1    0.24    1.52
   7   9   2   47.14    8.90
   7   9  -2   43.08    9.20
   7   9   3    1.36    2.72
   7   9  -3    4.25    3.73
   7   9   4   26.88    6.67
   7   9  -4   33.29    8.30
  -7   9  -4   27.02    7.21
  -7   9  -5    3.73    3.15
   7   9  -5    7.42    4.27
   7   9  -6   17.29    6.36
  -7   9  -6   16.70    5.67
   7   9  -7    3.78    3.51
  -7   9  -7    5.31    3.77
  -7   9  -8   82.46   12.65
   7   9  -8   78.89   13.13
  -7   9  -9    5.06    3.52
  -7   9 -10    3.53    2.58
  -7   9 -11    2.49    2.33
  -7   9 -12   39.41    8.80
  -7   9 -13    1.96    2.44
   8   9   0    4.34    3.18
   8   9   1    0.78    1.55
   8   9  -1    1.80    1.88
   8   9   2    4.27    2.70
   8   9  -2    1.87    2.48
   8   9   3    2.92    2.75
   8   9  -3    5.47    3.87
   8   9   4    2.71    2.37
   8   9  -4    1.70    2.14
  -8   9  -4    2.77    3.02
   8   9  -5    7.51    4.59
  -8   9  -5    7.88    4.73
   8   9  -6    0.56    1.44
  -8   9  -6    4.74    3.95
   8   9  -7    0.66    2.41
  -8   9  -7    0.66    1.91
  -8   9  -8    4.84    3.43
  -8   9  -9   -3.24    2.76
  -8   9 -10    6.95    4.45
  -8   9 -11    4.15    3.18
  -8   9 -12    5.89    3.71
   9   9   0   30.23    7.72
   9   9   1   28.41    7.55
   9   9  -1   29.17    7.81
   9   9   2    4.53    3.54
   9   9  -2    4.70    4.06
   9   9   3    3.52    2.93
   9   9  -3    0.16    1.76
  -9   9  -3    0.50    1.17
   9   9  -4    6.77    3.70
  -9   9  -4    6.72    4.67
  -9   9  -5   64.53   11.67
   9   9  -5   63.27   12.06
  -9   9  -6   18.79    6.59
  10   9   0    8.32    4.87
  10   9   1    7.94    4.23
  10   9  -1    9.98    4.72
  10   9   2    0.44    1.65
  10   9  -2    3.87    3.40
  10   9   3    5.17    3.26
  10   9  -3    6.91    4.63
  11   9   0    7.80    4.62
  11   9   1    7.23    4.51
  11   9   2   12.58    5.47
  11   9   3   61.13   11.18
   0  10   0   53.24    9.90
   0  10  -1   -0.43    1.80
   0  10  -2    9.28    3.99
   0  10  -3    1.85    3.38
   0  10  -4   20.41    6.42
   0  10  -5    0.32    1.36
   0  10  -6   42.51    9.37
   0  10  -7    1.53    1.77
   0  10  -8   -2.91    3.13
   1  10   0    2.47    1.60
   1  10  -1    2.10    1.63
   1  10   1    0.82    1.33
   1  10  -2    4.44    2.69
   1  10   2    0.71    1.56
   1  10  -3    4.67    3.06
   1  10   3    4.49    2.73
   1  10  -4    9.75    4.22
  -1  10  -4   12.39    5.11
   1  10  -5    4.78    3.38
  -1  10  -5    0.42    2.09
   1  10  -6   16.13    5.64
  -1  10  -6   16.74    6.29
   1  10  -7    5.24    3.65
  -1  10  -7    8.47    4.61
   1  10  -8   -1.19    3.07
  -1  10  -8   -3.52    3.54
   2  10   0   -0.75    2.40
   2  10   1    1.60    2.32
   2  10  -1    4.21    3.29
   2  10   2   11.39    4.60
   2  10  -2    8.26    3.79
   2  10   3   17.26    5.49
   2  10  -3   18.56    6.02
   2  10  -4   10.69    5.18
   2  10  -5    3.53    3.25
   2  10  -6   11.20    5.21
   2  10  -7   35.02    8.77
   3  10   0    5.44    3.45
   3  10   1    7.94    4.04
   3  10  -1    4.46    3.58
   3  10   2    8.21    4.31
   3  10  -2   13.58    5.63
   3  10   3   50.79    9.37
   3  10  -3   54.36   10.62
   3  10  -4   27.34    7.74
   3  10  -5   20.25    6.95
   3  10  -6    4.94    3.83
   3  10  -7   -2.65    2.59
   4  10   0   20.30    6.17
   4  10   1   10.92    4.90
   4  10  -1    6.74    3.73
   4  10   2    5.13    3.20
   4  10  -2    3.52    2.70
   4  10  -3    1.27    1.98
   4  10  -4    8.33    4.09
   4  10  -5   14.85    5.65
   4  10  -6    9.00    4.16
   5  10   0   -1.46    2.12
   5  10   1    5.15    2.88
   5  10  -1    8.09    3.93
   5  10   2    6.81    3.96
   5  10  -2    4.27    2.30
   5  10  -3    1.41    1.62
   5  10  -4    0.28    1.84
   5  10  -5    4.37    3.62
   6  10   0   -0.04    1.70
   6  10   1    4.11    2.99
   6  10  -1    4.36    3.30
   6  10   2   14.41    5.31
   6  10  -2   16.45    5.88
   6  10  -3    3.76    2.61
   6  10  -4   14.40    5.98
  -6  10  -9    2.29    1.97
   7  10   0   -3.55    3.21
   7  10   1    2.69    2.91
   7  10  -1    0.86    1.21
   7  10   2   -2.86    3.12
   7  10  -2   -2.78    2.63
   7  10  -3   -0.11    1.23
   8  10   0    0.79    1.68
   8  10   1    6.34    3.80
   8  10  -1    6.09    3.64
   9  10   1    6.08    3.71
   1  11   0    6.68    4.11
   1  11  -1    7.87    4.28
   2  11   0    0.57    1.61
   2  11  -1    2.15    2.53
   3  11   0    1.54    1.30
   3  11  -1   -1.60    1.06
   4  11   0    5.86    3.76
TITL smz_f1_250 in Pnma
REM Pnma (#62, found as Pbnm in bca setting)
CELL 0.71073  14.489940  21.910647   8.208588  90.0000  90.0000  90.0000
ZERR    7.00   0.000505   0.000868   0.000371   0.0000   0.0000   0.0000
LATT  1
SYMM -x+1/2,-y, z+1/2
SYMM -x, y+1/2,-z
SYMM  x+1/2,-y+1/2,-z+1/2
SFAC C H N O S
UNIT 105.00 105.00 21.00 14.00 7.00
TREF
HKLF 4
END
_computing_structure_solution     'SHELXT 2014/4 (Sheldrick, 2014)'
;
_shelx_hkl_checksum              82596
loop_
_space_group_symop_operation_xyz
'x, y, z'
'-x, -y, z+1/2'
'x+1/2, -y+1/2, z'
'-x+1/2, y+1/2, z+1/2'
loop_
_atom_site_label
_atom_site_type_symbol
_atom_site_fract_x
_atom_site_fract_y
_atom_site_fract_z
_atom_site_U_iso_or_equiv
_atom_site_adp_type
_atom_site_occupancy
_atom_site_site_symmetry_order
_atom_site_calc_flag
_atom_site_refinement_flags_posn
_atom_site_refinement_flags_adp
_atom_site_refinement_flags_occupancy
_atom_site_disorder_assembly
_atom_site_disorder_group
S1 S 0.64612(7) 0.49570(14) 0.34413(5) 0.0329(3) Uani 1 1 d . . . . .
S2 S 0.57769(8) 0.49595(14) 0.65251(6) 0.0322(3) Uani 1 1 d . . . . .
O1 O 0.6893(2) 0.3712(4) 0.30871(14) 0.0435(8) Uani 1 1 d . . . . .
O2 O 0.54894(18) 0.5233(4) 0.33753(15) 0.0422(8) Uani 1 1 d . . . . .
O3 O 0.67503(19) 0.4675(4) 0.65893(15) 0.0421(8) Uani 1 1 d . . . . .
O4 O 0.5353(2) 0.6240(4) 0.68744(13) 0.0415(8) Uani 1 1 d . . . . .
N1 N 0.8421(3) 1.1162(5) 0.3123(2) 0.0491(11) Uani 1 1 d D . . . .
N2 N 0.6550(2) 0.4495(5) 0.41751(16) 0.0361(10) Uani 1 1 d D . . . .
N3 N 0.8142(2) 0.4098(4) 0.41740(17) 0.0366(9) Uani 1 1 d . . . . .
N4 N 0.7276(3) 0.4281(5) 0.50948(17) 0.0495(11) Uani 1 1 d . . . . .
N5 N 0.3803(3) -0.1205(5) 0.6959(2) 0.0634(14) Uani 1 1 d . . . . .
H5A H 0.3241 -0.1191 0.7085 0.082 Uiso 1 1 calc R U . . .
H5B H 0.4076 -0.2119 0.6894 0.082 Uiso 1 1 calc R U . . .
N6 N 0.5676(2) 0.5372(5) 0.57938(17) 0.0394(10) Uani 1 1 d D . . . .
N7 N 0.4098(2) 0.5856(5) 0.58016(17) 0.0392(9) Uani 1 1 d . . . . .
N8 N 0.4961(3) 0.5645(5) 0.48744(18) 0.0512(11) Uani 1 1 d . . . . .
C1 C 0.7047(3) 0.6777(5) 0.3345(2) 0.0302(10) Uani 1 1 d . . . . .
C2 C 0.7944(3) 0.6810(5) 0.31083(19) 0.0307(10) Uani 1 1 d . . . . .
H2 H 0.8233 0.5841 0.3000 0.040 Uiso 1 1 calc R U . . .
C3 C 0.8397(3) 0.8245(6) 0.3036(2) 0.0322(11) Uani 1 1 d . . . . .
H3 H 0.8996 0.8246 0.2885 0.042 Uiso 1 1 calc R U . . .
C4 C 0.7971(3) 0.9724(5) 0.31866(18) 0.0328(10) Uani 1 1 d . . . . .
C5 C 0.7069(3) 0.9676(6) 0.3429(2) 0.0405(11) Uani 1 1 d . . . . .
H5 H 0.6778 1.0642 0.3540 0.053 Uiso 1 1 calc R U . . .
C6 C 0.6617(3) 0.8224(5) 0.3503(2) 0.0373(11) Uani 1 1 d . . . . .
H6 H 0.6020 0.8210 0.3659 0.049 Uiso 1 1 calc R U . . .
C7 C 0.7375(3) 0.4291(5) 0.4493(2) 0.0349(11) Uani 1 1 d . . . . .
C8 C 0.8057(4) 0.4034(8) 0.5410(3) 0.0729(19) Uani 1 1 d . . . . .
H8 H 0.8030 0.3996 0.5834 0.095 Uiso 1 1 calc R U . . .
C9 C 0.8897(3) 0.3835(7) 0.5126(3) 0.0655(17) Uani 1 1 d . . . . .
H9 H 0.9432 0.3672 0.5352 0.085 Uiso 1 1 calc R U . . .
C10 C 0.8921(3) 0.3885(6) 0.4501(2) 0.0457(13) Uani 1 1 d . . . . .
C11 C 0.9798(3) 0.3701(7) 0.4146(3) 0.0641(16) Uani 1 1 d . . . . .
H11A H 0.9877 0.2581 0.4032 0.083 Uiso 1 1 calc R U . . .
H11B H 1.0310 0.4042 0.4393 0.083 Uiso 1 1 calc R U . . .
H11C H 0.9768 0.4364 0.3785 0.083 Uiso 1 1 calc R U . . .
C12 C 0.5188(3) 0.3155(5) 0.66597(19) 0.0296(9) Uani 1 1 d . . . . .
C13 C 0.5629(3) 0.1687(5) 0.6558(3) 0.0412(12) Uani 1 1 d . . . . .
H13 H 0.6235 0.1680 0.6418 0.054 Uiso 1 1 calc R U . . .
C14 C 0.5182(3) 0.0234(5) 0.6661(2) 0.0441(13) Uani 1 1 d . . . . .
H14 H 0.5489 -0.0746 0.6597 0.057 Uiso 1 1 calc R U . . .
C15 C 0.4264(3) 0.0230(6) 0.6861(2) 0.0405(12) Uani 1 1 d . . . . .
C16 C 0.3827(3) 0.1722(5) 0.6966(2) 0.0355(11) Uani 1 1 d . . . . .
H16 H 0.3221 0.1737 0.7106 0.046 Uiso 1 1 calc R U . . .
C17 C 0.4282(3) 0.3173(6) 0.6864(2) 0.0320(11) Uani 1 1 d . . . . .
H17 H 0.3982 0.4158 0.6932 0.042 Uiso 1 1 calc R U . . .
C18 C 0.4868(3) 0.5653(5) 0.5484(2) 0.0344(11) Uani 1 1 d . . . . .
C19 C 0.4186(4) 0.5963(8) 0.4570(3) 0.075(2) Uani 1 1 d . . . . .
H19 H 0.4208 0.5993 0.4146 0.097 Uiso 1 1 calc R U . . .
C20 C 0.3362(4) 0.6246(7) 0.4852(3) 0.0715(19) Uani 1 1 d . . . . .
H20 H 0.2839 0.6505 0.4627 0.093 Uiso 1 1 calc R U . . .
C21 C 0.3325(3) 0.6139(6) 0.5479(2) 0.0464(13) Uani 1 1 d . . . . .
C22 C 0.2459(3) 0.6341(7) 0.5840(3) 0.0670(17) Uani 1 1 d . . . . .
H22A H 0.1968 0.6678 0.5574 0.087 Uiso 1 1 calc R U . . .
H22B H 0.2552 0.7152 0.6149 0.087 Uiso 1 1 calc R U . . .
H22C H 0.2299 0.5324 0.6028 0.087 Uiso 1 1 calc R U . . .
H1N1 H 0.892(2) 1.126(6) 0.2901(19) 0.067(16) Uiso 1 1 d D . . . .
H2N1 H 0.807(3) 1.201(5) 0.321(3) 0.10(2) Uiso 1 1 d D . . . .
H1N2 H 0.608(2) 0.477(5) 0.4404(17) 0.030(12) Uiso 1 1 d D . . . .
H1N6 H 0.617(2) 0.504(5) 0.559(2) 0.056(16) Uiso 1 1 d D . . . .
loop_
_atom_site_aniso_label
_atom_site_aniso_U_11
_atom_site_aniso_U_22
_atom_site_aniso_U_33
_atom_site_aniso_U_23
_atom_site_aniso_U_13
_atom_site_aniso_U_12
S1 0.0307(5) 0.0369(6) 0.0311(6) 0.0033(6) -0.0008(5) -0.0019(5)
S2 0.0297(5) 0.0361(6) 0.0307(6) 0.0032(5) -0.0021(5) -0.0021(5)
O1 0.0485(19) 0.0389(18) 0.0431(19) -0.0042(16) 0.0000(16) -0.0024(17)
O2 0.0308(15) 0.056(2) 0.0397(19) 0.0084(18) -0.0064(16) -0.0047(16)
O3 0.0292(15) 0.055(2) 0.0419(18) 0.0061(18) -0.0060(16) -0.0027(15)
O4 0.0475(19) 0.0337(18) 0.0433(19) -0.0053(15) -0.0027(16) 0.0006(16)
N1 0.044(2) 0.036(2) 0.067(3) -0.007(2) 0.021(2) -0.008(2)
N2 0.0244(18) 0.054(3) 0.030(2) 0.009(2) -0.0022(17) -0.0012(18)
N3 0.0303(19) 0.041(2) 0.038(2) 0.0046(18) 0.0031(18) 0.0014(19)
N4 0.037(2) 0.079(3) 0.033(2) 0.003(2) -0.0029(19) 0.015(2)
N5 0.056(3) 0.036(2) 0.098(4) -0.004(2) 0.025(3) -0.008(2)
N6 0.0295(19) 0.056(3) 0.033(2) 0.011(2) 0.0056(18) 0.005(2)
N7 0.031(2) 0.046(2) 0.040(2) 0.0026(19) 0.0038(18) 0.002(2)
N8 0.038(2) 0.082(3) 0.034(2) 0.005(2) -0.0040(19) 0.015(2)
C1 0.030(2) 0.032(2) 0.029(2) 0.002(2) 0.002(2) 0.0023(19)
C2 0.033(2) 0.034(2) 0.025(2) -0.001(2) -0.002(2) 0.006(2)
C3 0.028(2) 0.042(3) 0.026(2) -0.003(2) 0.001(2) 0.001(2)
C4 0.036(2) 0.034(2) 0.029(2) -0.0012(19) -0.0012(19) -0.002(2)
C5 0.039(2) 0.039(3) 0.044(3) -0.005(3) 0.009(3) 0.005(2)
C6 0.031(2) 0.038(3) 0.043(3) -0.002(2) 0.011(2) 0.005(2)
C7 0.030(2) 0.036(3) 0.039(3) 0.007(2) -0.004(2) 0.003(2)
C8 0.051(3) 0.127(6) 0.040(3) -0.002(4) -0.011(3) 0.027(4)
C9 0.035(3) 0.111(5) 0.051(3) 0.003(3) -0.007(3) 0.019(3)
C10 0.033(3) 0.050(3) 0.053(3) -0.003(3) -0.002(2) 0.007(3)
C11 0.040(3) 0.080(4) 0.073(4) -0.005(3) 0.004(3) 0.008(3)
C12 0.032(2) 0.030(2) 0.027(2) 0.0020(19) -0.001(2) 0.001(2)
C13 0.030(2) 0.040(3) 0.054(3) -0.001(3) 0.009(3) 0.002(2)
C14 0.039(2) 0.030(2) 0.063(4) -0.006(2) 0.009(2) 0.006(2)
C15 0.043(3) 0.036(3) 0.043(3) -0.002(2) 0.004(2) -0.004(2)
C16 0.034(2) 0.039(3) 0.034(3) -0.004(2) 0.006(2) -0.004(2)
C17 0.034(3) 0.029(2) 0.033(3) 0.000(2) 0.001(2) 0.004(2)
C18 0.030(2) 0.037(3) 0.035(3) 0.003(2) 0.000(2) 0.000(2)
C19 0.051(4) 0.134(6) 0.039(3) 0.006(4) -0.008(3) 0.027(4)
C20 0.043(3) 0.116(5) 0.056(4) -0.009(4) -0.017(3) 0.032(3)
C21 0.036(3) 0.050(3) 0.052(3) 0.000(3) -0.001(2) 0.012(3)
C22 0.031(3) 0.090(5) 0.080(4) -0.008(4) 0.003(3) 0.012(3)
loop_
_atom_type_symbol
_atom_type_description
_atom_type_scat_dispersion_real
_atom_type_scat_dispersion_imag
_atom_type_scat_source
C C 0.0033 0.0016 'International Tables Vol C Tables 4.2.6.8 and 6.1.1.4'
H H 0.0000 0.0000 'International Tables Vol C Tables 4.2.6.8 and 6.1.1.4'
N N 0.0061 0.0033 'International Tables Vol C Tables 4.2.6.8 and 6.1.1.4'
O O 0.0106 0.0060 'International Tables Vol C Tables 4.2.6.8 and 6.1.1.4'
S S 0.1246 0.1234 'International Tables Vol C Tables 4.2.6.8 and 6.1.1.4'
loop_
_geom_angle_atom_site_label_1
_geom_angle_atom_site_label_2
_geom_angle_atom_site_label_3
_geom_angle
_geom_angle_site_symmetry_1
_geom_angle_site_symmetry_3
O1 S1 O2 119.3(2) . .
O1 S1 N2 109.2(2) . .
O2 S1 N2 102.11(19) . .
O1 S1 C1 109.7(2) . .
O2 S1 C1 109.5(2) . .
N2 S1 C1 106.1(2) . .
O3 S2 O4 119.1(2) . .
O3 S2 N6 102.5(2) . .
O4 S2 N6 109.3(2) . .
O3 S2 C12 109.1(2) . .
O4 S2 C12 108.9(2) . .
N6 S2 C12 107.3(2) . .
C4 N1 H1N1 122(3) . .
C4 N1 H2N1 113(4) . .
H1N1 N1 H2N1 121(5) . .
C7 N2 S1 125.4(3) . .
C7 N2 H1N2 114(3) . .
S1 N2 H1N2 116(3) . .
C7 N3 C10 115.9(4) . .
C7 N4 C8 115.0(4) . .
C15 N5 H5A 120.0 . .
C15 N5 H5B 120.0 . .
H5A N5 H5B 120.0 . .
C18 N6 S2 126.3(3) . .
C18 N6 H1N6 119(3) . .
S2 N6 H1N6 111(3) . .
C18 N7 C21 116.5(4) . .
C19 N8 C18 114.4(4) . .
C6 C1 C2 119.5(4) . .
C6 C1 S1 119.3(3) . .
C2 C1 S1 121.1(3) . .
C3 C2 C1 120.6(4) . .
C3 C2 H2 119.7 . .
C1 C2 H2 119.7 . .
C2 C3 C4 120.8(4) . .
C2 C3 H3 119.6 . .
C4 C3 H3 119.6 . .
N1 C4 C3 121.3(4) . .
N1 C4 C5 120.5(4) . .
C3 C4 C5 118.2(4) . .
C6 C5 C4 120.7(4) . .
C6 C5 H5 119.6 . .
C4 C5 H5 119.6 . .
C5 C6 C1 120.1(4) . .
C5 C6 H6 119.9 . .
C1 C6 H6 119.9 . .
N3 C7 N4 128.0(4) . .
N3 C7 N2 118.1(4) . .
N4 C7 N2 113.9(4) . .
N4 C8 C9 122.1(5) . .
N4 C8 H8 119.0 . .
C9 C8 H8 119.0 . .
C10 C9 C8 118.1(5) . .
C10 C9 H9 121.0 . .
C8 C9 H9 121.0 . .
N3 C10 C9 120.9(5) . .
N3 C10 C11 116.5(4) . .
C9 C10 C11 122.6(5) . .
C10 C11 H11A 109.5 . .
C10 C11 H11B 109.5 . .
H11A C11 H11B 109.5 . .
C10 C11 H11C 109.5 . .
H11A C11 H11C 109.5 . .
H11B C11 H11C 109.5 . .
C13 C12 C17 119.9(4) . .
C13 C12 S2 119.4(3) . .
C17 C12 S2 120.7(3) . .
C14 C13 C12 120.8(4) . .
C14 C13 H13 119.6 . .
C12 C13 H13 119.6 . .
C13 C14 C15 120.1(4) . .
C13 C14 H14 120.0 . .
C15 C14 H14 120.0 . .
N5 C15 C16 120.5(4) . .
N5 C15 C14 120.9(4) . .
C16 C15 C14 118.6(4) . .
C17 C16 C15 121.0(4) . .
C17 C16 H16 119.5 . .
C15 C16 H16 119.5 . .
C16 C17 C12 119.7(4) . .
C16 C17 H17 120.2 . .
C12 C17 H17 120.2 . .
N7 C18 N8 127.4(4) . .
N7 C18 N6 118.6(4) . .
N8 C18 N6 114.0(4) . .
N8 C19 C20 122.9(5) . .
N8 C19 H19 118.5 . .
C20 C19 H19 118.5 . .
C19 C20 C21 118.4(5) . .
C19 C20 H20 120.8 . .
C21 C20 H20 120.8 . .
N7 C21 C20 120.2(5) . .
N7 C21 C22 116.2(5) . .
C20 C21 C22 123.6(5) . .
C21 C22 H22A 109.5 . .
C21 C22 H22B 109.5 . .
H22A C22 H22B 109.5 . .
C21 C22 H22C 109.5 . .
H22A C22 H22C 109.5 . .
H22B C22 H22C 109.5 . .
loop_
_geom_bond_atom_site_label_1
_geom_bond_atom_site_label_2
_geom_bond_distance
_geom_bond_site_symmetry_2
S1 O1 1.428(3) .
S1 O2 1.434(3) .
S1 N2 1.657(4) .
S1 C1 1.731(4) .
S2 O3 1.436(3) .
S2 O4 1.438(3) .
S2 N6 1.644(4) .
S2 C12 1.735(4) .
N1 C4 1.356(6) .
N1 H1N1 0.87(2) .
N1 H2N1 0.88(2) .
N2 C7 1.395(5) .
N2 H1N2 0.87(2) .
N3 C7 1.322(5) .
N3 C10 1.349(6) .
N4 C7 1.326(5) .
N4 C8 1.341(6) .
N5 C15 1.371(5) .
N5 H5A 0.8600 .
N5 H5B 0.8600 .
N6 C18 1.373(5) .
N6 H1N6 0.89(2) .
N7 C18 1.326(5) .
N7 C21 1.345(6) .
N8 C19 1.332(6) .
N8 C18 1.342(5) .
C1 C6 1.385(6) .
C1 C2 1.400(5) .
C2 C3 1.357(6) .
C2 H2 0.9300 .
C3 C4 1.401(6) .
C3 H3 0.9300 .
C4 C5 1.412(6) .
C5 C6 1.369(6) .
C5 H5 0.9300 .
C6 H6 0.9300 .
C8 C9 1.376(7) .
C8 H8 0.9300 .
C9 C10 1.371(7) .
C9 H9 0.9300 .
C10 C11 1.497(6) .
C11 H11A 0.9600 .
C11 H11B 0.9600 .
C11 H11C 0.9600 .
C12 C13 1.382(6) .
C12 C17 1.388(6) .
C13 C14 1.376(6) .
C13 H13 0.9300 .
C14 C15 1.401(6) .
C14 H14 0.9300 .
C15 C16 1.397(6) .
C16 C17 1.379(6) .
C16 H16 0.9300 .
C17 H17 0.9300 .
C19 C20 1.364(7) .
C19 H19 0.9300 .
C20 C21 1.378(7) .
C20 H20 0.9300 .
C21 C22 1.493(7) .
C22 H22A 0.9600 .
C22 H22B 0.9600 .
C22 H22C 0.9600 .
loop_
_geom_torsion_atom_site_label_1
_geom_torsion_atom_site_label_2
_geom_torsion_atom_site_label_3
_geom_torsion_atom_site_label_4
_geom_torsion
_geom_torsion_site_symmetry_1
_geom_torsion_site_symmetry_2
_geom_torsion_site_symmetry_3
_geom_torsion_site_symmetry_4
O1 S1 N2 C7 60.3(4) . . . .
O2 S1 N2 C7 -172.5(4) . . . .
C1 S1 N2 C7 -57.9(4) . . . .
O3 S2 N6 C18 176.2(4) . . . .
O4 S2 N6 C18 -56.6(5) . . . .
C12 S2 N6 C18 61.4(5) . . . .
O1 S1 C1 C6 162.2(4) . . . .
O2 S1 C1 C6 29.5(4) . . . .
N2 S1 C1 C6 -79.9(4) . . . .
O1 S1 C1 C2 -17.4(4) . . . .
O2 S1 C1 C2 -150.1(4) . . . .
N2 S1 C1 C2 100.4(4) . . . .
C6 C1 C2 C3 0.5(6) . . . .
S1 C1 C2 C3 -179.9(3) . . . .
C1 C2 C3 C4 -1.1(6) . . . .
C2 C3 C4 N1 179.2(4) . . . .
C2 C3 C4 C5 1.5(6) . . . .
N1 C4 C5 C6 -179.1(5) . . . .
C3 C4 C5 C6 -1.3(7) . . . .
C4 C5 C6 C1 0.7(8) . . . .
C2 C1 C6 C5 -0.3(7) . . . .
S1 C1 C6 C5 -179.9(4) . . . .
C10 N3 C7 N4 -0.8(7) . . . .
C10 N3 C7 N2 -179.2(4) . . . .
C8 N4 C7 N3 -0.5(8) . . . .
C8 N4 C7 N2 178.0(5) . . . .
S1 N2 C7 N3 -15.4(6) . . . .
S1 N2 C7 N4 165.9(4) . . . .
C7 N4 C8 C9 1.1(9) . . . .
N4 C8 C9 C10 -0.4(10) . . . .
C7 N3 C10 C9 1.5(7) . . . .
C7 N3 C10 C11 -178.7(4) . . . .
C8 C9 C10 N3 -1.0(9) . . . .
C8 C9 C10 C11 179.3(6) . . . .
O3 S2 C12 C13 -26.0(4) . . . .
O4 S2 C12 C13 -157.5(3) . . . .
N6 S2 C12 C13 84.3(4) . . . .
O3 S2 C12 C17 154.4(4) . . . .
O4 S2 C12 C17 22.9(4) . . . .
N6 S2 C12 C17 -95.3(4) . . . .
C17 C12 C13 C14 -0.4(7) . . . .
S2 C12 C13 C14 179.9(4) . . . .
C12 C13 C14 C15 1.0(8) . . . .
C13 C14 C15 N5 179.2(5) . . . .
C13 C14 C15 C16 -1.3(7) . . . .
N5 C15 C16 C17 -179.4(4) . . . .
C14 C15 C16 C17 1.1(7) . . . .
C15 C16 C17 C12 -0.5(7) . . . .
C13 C12 C17 C16 0.2(7) . . . .
S2 C12 C17 C16 179.8(3) . . . .
C21 N7 C18 N8 -2.3(7) . . . .
C21 N7 C18 N6 179.6(4) . . . .
C19 N8 C18 N7 3.7(8) . . . .
C19 N8 C18 N6 -178.2(5) . . . .
S2 N6 C18 N7 10.7(6) . . . .
S2 N6 C18 N8 -167.6(4) . . . .
C18 N8 C19 C20 -1.1(9) . . . .
N8 C19 C20 C21 -2.4(11) . . . .
C18 N7 C21 C20 -1.6(8) . . . .
C18 N7 C21 C22 179.1(5) . . . .
C19 C20 C21 N7 3.8(9) . . . .
C19 C20 C21 C22 -177.0(6) . . . .
