#------------------------------------------------------------------------------
#$Date: 2017-09-28 15:45:52 +0300 (Thu, 28 Sep 2017) $
#$Revision: 201418 $
#$URL: file:///home/coder/svn-repositories/cod/cif/1/54/74/1547416.cif $
#------------------------------------------------------------------------------
#
# This file is available in the Crystallography Open Database (COD),
# http://www.crystallography.net/
#
# All data on this site have been placed in the public domain by the
# contributors.
#
data_1547416
loop_
_publ_author_name
'Anuradha R. Pallipurath'
'Jonathan M. Skelton'
'Mark R. Warren'
'Naghmeh Kamali'
'Patrick McArdle'
'Andrea Erxleben'
_publ_section_title
;
 Sulfamerazine: Understanding the Influence of Slip Planes in the
 Polymorphic Phase Transformation through X-Ray Crystallographic Studies
 and ab Initio Lattice Dynamics
;
_journal_name_full               'Molecular Pharmaceutics'
_journal_page_first              3735
_journal_page_last               3748
_journal_paper_doi               10.1021/acs.molpharmaceut.5b00504
_journal_volume                  12
_journal_year                    2015
_chemical_absolute_configuration ad
_chemical_formula_moiety         'C11 H12 N4 O2 S'
_chemical_formula_sum            'C11 H12 N4 O2 S'
_chemical_formula_weight         264.31
_chemical_name_common            Sulfamerazine
_chemical_name_systematic        4-amino-N-(4-methylpyrimidin-2-yl)
_space_group_crystal_system      orthorhombic
_space_group_IT_number           33
_space_group_name_Hall           'P 2c -2n'
_space_group_name_H-M_alt        'P n a 21'
_symmetry_space_group_name_Hall  'P 2c -2n'
_symmetry_space_group_name_H-M   'P n a 21'
_atom_sites_solution_hydrogens   mixed
_cell_angle_alpha                90
_cell_angle_beta                 90
_cell_angle_gamma                90
_cell_formula_units_Z            8
_cell_length_a                   14.46660(10)
_cell_length_b                   8.18680(10)
_cell_length_c                   21.8103(2)
_cell_measurement_reflns_used    11708
_cell_measurement_temperature    180
_cell_measurement_theta_max      29.4730
_cell_measurement_theta_min      1.8060
_cell_volume                     2583.11(4)
_computing_cell_refinement
;
CrysAlisPro, Agilent Technologies,
Version 1.171.37.35 (release 13-08-2014 CrysAlis171 .NET)
(compiled Aug 13 2014,18:06:01)
;
_computing_data_collection
;
CrysAlisPro, Agilent Technologies,
Version 1.171.37.35 (release 13-08-2014 CrysAlis171 .NET)
(compiled Aug 13 2014,18:06:01)
;
_computing_data_reduction
;
CrysAlisPro, Agilent Technologies,
Version 1.171.37.35 (release 13-08-2014 CrysAlis171 .NET)
(compiled Aug 13 2014,18:06:01)
;
_computing_molecular_graphics    OSCAIL
_computing_structure_refinement  'SHELXL-2014/7 (Sheldrick, 2014)'
_computing_structure_solution    SHELXT
_diffrn_ambient_temperature      180
_diffrn_measured_fraction_theta_full 0.997
_diffrn_measured_fraction_theta_max 0.997
_diffrn_measurement_device       'CrystalLogic Kappa (3 circle)'
_diffrn_measurement_device_type  'Rigaku Saturn724+ (2x2 bin mode)'
_diffrn_measurement_method
;
omega rotation with 1 degree frames
;
_diffrn_measurement_specimen_support 'MiTeGen loop'
_diffrn_radiation_monochromator  'double crystal Silicon 111'
_diffrn_radiation_source         'Diamond Light Source Beamline I19'
_diffrn_radiation_type           Synchrotron
_diffrn_radiation_wavelength     0.68890
_diffrn_reflns_av_R_equivalents  0.0483
_diffrn_reflns_av_unetI/netI     0.0455
_diffrn_reflns_Laue_measured_fraction_full 0.997
_diffrn_reflns_Laue_measured_fraction_max 0.997
_diffrn_reflns_limit_h_max       13
_diffrn_reflns_limit_h_min       -20
_diffrn_reflns_limit_k_max       11
_diffrn_reflns_limit_k_min       -11
_diffrn_reflns_limit_l_max       27
_diffrn_reflns_limit_l_min       -31
_diffrn_reflns_number            23176
_diffrn_reflns_point_group_measured_fraction_full 0.988
_diffrn_reflns_point_group_measured_fraction_max 0.967
_diffrn_reflns_theta_full        24.415
_diffrn_reflns_theta_max         29.472
_diffrn_reflns_theta_min         1.810
_exptl_absorpt_coefficient_mu    0.251
_exptl_absorpt_correction_T_max  1.00000
_exptl_absorpt_correction_T_min  0.97736
_exptl_absorpt_correction_type   multi-scan
_exptl_absorpt_process_details
;
CrysAlisPro, Agilent Technologies,
Version 1.171.37.35 (release 13-08-2014 CrysAlis171 .NET)
(compiled Aug 13 2014,18:06:01)
Empirical absorption correction using spherical harmonics,
 implemented in SCALE3 ABSPACK scaling algorithm.
;
_exptl_crystal_colour            Colourless
_exptl_crystal_density_diffrn    1.359
_exptl_crystal_description       Parallelepiped
_exptl_crystal_F_000             1104
_exptl_crystal_size_max          0.50
_exptl_crystal_size_mid          0.40
_exptl_crystal_size_min          0.20
_refine_diff_density_max         0.287
_refine_diff_density_min         -0.335
_refine_diff_density_rms         0.051
_refine_ls_abs_structure_details
;
 Flack x determined using 2555 quotients [(I+)-(I-)]/[(I+)+(I-)]
 (Parsons, Flack and Wagner, Acta Cryst. B69 (2013) 249-259).
;
_refine_ls_abs_structure_Flack   0.07(5)
_refine_ls_extinction_coef       .
_refine_ls_extinction_method     none
_refine_ls_goodness_of_fit_ref   1.027
_refine_ls_hydrogen_treatment    mixed
_refine_ls_matrix_type           full
_refine_ls_number_parameters     344
_refine_ls_number_reflns         7624
_refine_ls_number_restraints     1
_refine_ls_restrained_S_all      1.027
_refine_ls_R_factor_all          0.0549
_refine_ls_R_factor_gt           0.0444
_refine_ls_shift/su_max          0.063
_refine_ls_shift/su_mean         0.002
_refine_ls_structure_factor_coef Fsqd
_refine_ls_weighting_details
'w=1/[\s^2^(Fo^2^)+(0.0541P)^2^+0.3587P] where P=(Fo^2^+2Fc^2^)/3'
_refine_ls_weighting_scheme      calc
_refine_ls_wR_factor_gt          0.1063
_refine_ls_wR_factor_ref         0.1145
_reflns_Friedel_coverage         0.895
_reflns_Friedel_fraction_full    0.977
_reflns_Friedel_fraction_max     0.935
_reflns_number_gt                6449
_reflns_number_total             7624
_reflns_threshold_expression     'I > 2\s(I)'
_cod_data_source_file            Exp_Form-I2FSynchrotron_Form-I_180K.cif
_cod_data_source_block           180k_smz-f1_a
_cod_database_code               1547416
_shelx_space_group_comment
;
The symmetry employed for this shelxl refinement is uniquely defined
by the following loop, which should always be used as a source of
symmetry information in preference to the above space-group names.
They are only intended as comments.
;
_shelx_estimated_absorpt_t_min   0.885
_shelx_estimated_absorpt_t_max   0.952
_shelx_res_file
;
    180k_smz-f1_a.res created by SHELXL-2014/7
TITL 180k_smz-f1_a.res in Pna2(1)
REM Old TITL 014_180K_SulfamerazineF1_ in Pna2(1)
REM SHELXT solution in Pna2(1)
REM R1 0.089,  Rweak 0.019,  Alpha 0.002,  Orientation as input
REM Flack x =  0.066 ( 0.044 ) from Parsons' quotients
REM Formula found by SHELXT:  C25 N5 O4 S2
CELL  0.68890  14.4666   8.1868  21.8103   90.000   90.000   90.000
ZERR    8.000   0.0001   0.0001   0.0002    0.000    0.000    0.000
REM SG 33 4 4 Pna21 PGmm2 Orthorhombic
LATT -1
REM SG  ASUN  1  .5 .5 1.
REM SG  ORGN  on 2(1)
SYMM -X,-Y,0.5+Z
SYMM 0.5+X,0.5-Y,Z
SYMM 0.5-X,0.5+Y,0.5+Z
SFAC C H N O S
UNIT 88.00 96.00 32.00 16.00 8.00
L.S. 10
SIZE    0.50  0.40  0.20
BOND $H
FMAP 2
PLAN 20
ACTA
CONF
EQIV $1 x, y-1, z
HTAB N5 O4_$1
EQIV $2 -x+3/2, y+1/2, z-1/2
HTAB N1 O4_$2
EQIV $3 x, y+1, z
HTAB N1 O1_$3
HTAB N2 N8
HTAB N6 N4
LIST 4
WGHT    0.054100    0.358700
FVAR       0.53683   0.35344
S1    5    0.644199    0.494661    0.343709    11.00000    0.02152    0.02510 =
         0.02307    0.00215   -0.00134   -0.00155
S2    5    0.578007    0.497859    0.653169    11.00000    0.02082    0.02409 =
         0.02283    0.00236   -0.00093   -0.00131
O1    4    0.687460    0.370091    0.307844    11.00000    0.03583    0.02565 =
         0.03122   -0.00346   -0.00018   -0.00154
O2    4    0.546829    0.521985    0.337146    11.00000    0.02203    0.03720 =
         0.03035    0.00531   -0.00475   -0.00270
O3    4    0.675553    0.470388    0.659552    11.00000    0.02119    0.03778 =
         0.02842    0.00476   -0.00377   -0.00330
O4    4    0.535711    0.624903    0.688534    11.00000    0.03369    0.02498 =
         0.03020   -0.00202   -0.00076   -0.00091
N1    3    0.841386    1.117992    0.312380    11.00000    0.03167    0.02568 =
         0.04829   -0.00696    0.01390   -0.00409
N2    3    0.653346    0.447290    0.417095    11.00000    0.01933    0.03429 =
         0.02373    0.00554   -0.00065    0.00006
N3    3    0.813284    0.408219    0.416714    11.00000    0.02144    0.03095 =
         0.03114    0.00329    0.00163    0.00324
N4    3    0.727517    0.430677    0.509645    11.00000    0.02958    0.06319 =
         0.02705    0.00600   -0.00127    0.01171
N5    3    0.380015   -0.120007    0.694779    11.00000    0.03863    0.02631 =
         0.06701   -0.00414    0.01365   -0.00630
AFIX  93
H5A   2    0.323508   -0.118780    0.707018    11.00000   -1.30000
H5B   2    0.407410   -0.211573    0.688201    11.00000   -1.30000
AFIX   0
N6    3    0.568339    0.541076    0.579663    11.00000    0.02073    0.03904 =
         0.02380    0.00681    0.00170    0.00168
N7    3    0.409300    0.588283    0.580474    11.00000    0.02241    0.03138 =
         0.03211    0.00036    0.00160    0.00222
N8    3    0.494997    0.565618    0.487210    11.00000    0.02718    0.06407 =
         0.02637    0.00422   -0.00249    0.01149
C1    1    0.703239    0.677370    0.333634    11.00000    0.02161    0.02339 =
         0.02022    0.00238    0.00032    0.00053
C2    1    0.793159    0.678880    0.310150    11.00000    0.02249    0.02491 =
         0.02226   -0.00101    0.00064    0.00258
AFIX  43
H2    2    0.821924    0.581537    0.299239    11.00000   -1.30000
AFIX   0
C3    1    0.838902    0.825171    0.303260    11.00000    0.02084    0.02871 =
         0.02262   -0.00015    0.00344    0.00059
AFIX  43
H3    2    0.899021    0.825875    0.288160    11.00000   -1.30000
AFIX   0
C4    1    0.795930    0.973411    0.318745    11.00000    0.02487    0.02478 =
         0.02231   -0.00196    0.00063   -0.00112
C5    1    0.705181    0.969783    0.342732    11.00000    0.02539    0.02495 =
         0.02969   -0.00207    0.00477    0.00251
AFIX  43
H5    2    0.676035    1.066720    0.353708    11.00000   -1.30000
AFIX   0
C6    1    0.659770    0.823086    0.349903    11.00000    0.02237    0.02850 =
         0.02869    0.00016    0.00617    0.00185
AFIX  43
H6    2    0.600020    0.821249    0.365622    11.00000   -1.30000
AFIX   0
C7    1    0.735865    0.428500    0.448800    11.00000    0.02314    0.02780 =
         0.02746    0.00421   -0.00047    0.00270
C8    1    0.806330    0.406943    0.540951    11.00000    0.03882    0.09624 =
         0.03016    0.00410   -0.00468    0.02077
AFIX  43
H8    2    0.804305    0.405456    0.583567    11.00000   -1.30000
AFIX   0
C9    1    0.889853    0.384784    0.512126    11.00000    0.02618    0.08593 =
         0.03610   -0.00437   -0.00802    0.01430
AFIX  43
H9    2    0.943642    0.368015    0.534613    11.00000   -1.30000
AFIX   0
C10   1    0.891681    0.388085    0.449292    11.00000    0.02416    0.03833 =
         0.04122   -0.00034   -0.00105    0.00567
C11   1    0.978243    0.368286    0.412755    11.00000    0.02382    0.05994 =
         0.05231   -0.00621    0.00276    0.00717
AFIX 137
H11A  2    0.980229    0.260386    0.395572    11.00000   -1.30000
H11B  2    1.030865    0.384244    0.438894    11.00000   -1.30000
H11C  2    0.979291    0.447499    0.380308    11.00000   -1.30000
AFIX   0
C12   1    0.519093    0.316885    0.666071    11.00000    0.02139    0.02297 =
         0.02469    0.00127    0.00195    0.00127
C13   1    0.563790    0.169112    0.655263    11.00000    0.02200    0.02726 =
         0.03908    0.00049    0.00628    0.00224
AFIX  43
H13   2    0.624636    0.168471    0.641503    11.00000   -1.30000
AFIX   0
C14   1    0.517996    0.023692    0.664924    11.00000    0.02925    0.02268 =
         0.04809   -0.00157    0.00481    0.00400
AFIX  43
H14   2    0.548128   -0.074719    0.657563    11.00000   -1.30000
AFIX   0
C15   1    0.426138    0.023122    0.685811    11.00000    0.02853    0.02669 =
         0.03158   -0.00146    0.00169   -0.00246
C16   1    0.381901    0.172807    0.696446    11.00000    0.02363    0.02790 =
         0.02463   -0.00468    0.00397   -0.00191
AFIX  43
H16   2    0.320968    0.174133    0.710028    11.00000   -1.30000
AFIX   0
C17   1    0.427883    0.317910    0.686959    11.00000    0.02495    0.02369 =
         0.02221   -0.00215    0.00169    0.00105
AFIX  43
H17   2    0.398157    0.416626    0.694471    11.00000   -1.30000
AFIX   0
C18   1    0.485908    0.566549    0.548363    11.00000    0.02292    0.02987 =
         0.02593    0.00306   -0.00234    0.00257
C19   1    0.417077    0.595996    0.456707    11.00000    0.03664    0.09784 =
         0.02770   -0.00038   -0.00748    0.02051
AFIX  43
H19   2    0.419252    0.598519    0.414102    11.00000   -1.30000
AFIX   0
C20   1    0.333789    0.623747    0.484940    11.00000    0.02998    0.09359 =
         0.04258   -0.00526   -0.00968    0.02383
AFIX  43
H20   2    0.280860    0.647155    0.462391    11.00000   -1.30000
AFIX   0
C21   1    0.331663    0.615511    0.548407    11.00000    0.02484    0.03935 =
         0.03889   -0.00405   -0.00227    0.00735
C22   1    0.245138    0.636993    0.584836    11.00000    0.02569    0.06438 =
         0.05804   -0.00458    0.00290    0.00730
AFIX 137
H22A  2    0.245478    0.742568    0.603990    11.00000   -1.30000
H22B  2    0.241739    0.553784    0.615768    11.00000   -1.30000
H22C  2    0.192560    0.628439    0.558174    11.00000   -1.30000
AFIX   0
H1N1  2    0.891023    1.123298    0.292087    11.00000    0.03509
H2N1  2    0.809007    1.203374    0.316835    11.00000    0.05544
H1N2  2    0.612202    0.482206    0.439531    11.00000    0.02902
H1N6  2    0.618504    0.506693    0.559159    11.00000    0.06873
HKLF 4
REM  180k_smz-f1_a.res in Pna2(1)
REM R1 =  0.0444 for    6449 Fo > 4sig(Fo)  and  0.0549 for all    7624 data
REM    344 parameters refined using      1 restraints
END
WGHT      0.0551      0.2917
REM Highest difference peak  0.287,  deepest hole -0.335,  1-sigma level  0.051
Q1    1   0.5446  0.3996  0.6529  11.00000  0.05    0.29
Q2    1   0.8120  0.7619  0.3025  11.00000  0.05    0.28
Q3    1   0.8051  0.8985  0.2941  11.00000  0.05    0.25
Q4    1   0.5432  0.2524  0.6525  11.00000  0.05    0.25
Q5    1   0.4744  0.3090  0.6732  11.00000  0.05    0.25
Q6    1   0.6822  0.5908  0.3400  11.00000  0.05    0.25
Q7    1   0.4742  0.0279  0.6864  11.00000  0.05    0.24
Q8    1   0.4111 -0.0274  0.6891  11.00000  0.05    0.23
Q9    1   0.7503  0.6748  0.3337  11.00000  0.05    0.23
Q10   1   0.5735  0.5264  0.6105  11.00000  0.05    0.23
Q11   1   0.4838  0.5326  0.5205  11.00000  0.05    0.22
Q12   1   0.6810  0.7442  0.3472  11.00000  0.05    0.22
Q13   1   0.4064  0.2398  0.6904  11.00000  0.05    0.22
Q14   1   0.7562  0.4397  0.5228  11.00000  0.05    0.21
Q15   1   0.5892  0.5742  0.3422  11.00000  0.05    0.21
Q16   1   0.3691  0.6114  0.5695  11.00000  0.05    0.20
Q17   1   0.5321  0.1070  0.6409  11.00000  0.05    0.20
Q18   1   0.5397  0.5312  0.4617  11.00000  0.05    0.20
Q19   1   0.8158  0.3935  0.3878  11.00000  0.05    0.20
Q20   1   0.8185  0.8954  0.3152  11.00000  0.05    0.19
;
_shelx_res_checksum              43088
_shelx_hkl_file
;
   0   0 -29    1.70    3.08
   0   0 -28  542.91   29.64
   0   0 -27    1.82    2.58
   0   0 -26  947.42   37.80
   0   0 -25   -0.23    1.71
   0   0 -24   17.06    5.28
   0   0 -23   -0.72    1.96
   0   0 -22   78.84    9.98
   0   0 -21   -0.48    2.36
   0   0 -20 1011.52   34.06
   0   0 -19   -0.39    2.21
   0   0 -18   82.97    9.32
   0   0 -17    1.65    2.42
   0   0 -16  428.90   19.71
   0   0 -15    0.01    2.47
   0   0 -14   52.40    6.39
   0   0 -13    0.01    1.04
   0   0 -12 4608.52   56.52
   0   0 -11    0.06    1.00
   0   0 -10  342.47   13.90
   0   0  -9    2.92    1.70
   0   0  -7    0.59    0.86
   0   0  -5   -0.34    0.42
   0   0  -4 4988.86   33.51
   0   0  -3    0.73    0.47
   0   0  -2  286.37    5.69
   0   0   4 4842.79   25.50
   0   0   5    0.20    0.47
   0   0   7   -0.02    0.56
   0   0   9    0.99    0.95
   0   0  10  364.58   10.93
   0   0  11   -0.27    1.05
   0   0  12 4702.75   43.40
   0   0  13   -0.15    0.91
   0   0  14   49.34    4.85
   0   0  15    0.83    1.06
   0   0  16  488.17   16.44
   0   0  17    0.02    0.93
   0   0  18   71.40    6.75
   0   0  19   -0.73    1.17
   0   1 -31   17.07    6.13
   0   1 -30   -1.03    2.87
   0   1 -29    7.99    3.45
   0   1 -28   -1.72    3.09
   0   1 -27    0.65    2.08
   0   1 -26   -1.37    3.84
   0  -1 -25    0.67    3.36
   0   1 -25    6.29    1.99
   0   1 -24    2.25    2.51
   0  -1 -24   -1.82    1.97
   0  -1 -23    3.46    3.46
   0   1 -23    1.30    2.01
   0  -1 -22   -1.97    1.85
   0   1 -22    1.29    2.58
   0  -1 -21  172.15   14.26
   0   1 -21  160.69   14.13
   0   1 -20    1.87    2.59
   0  -1 -20   -1.00    1.81
   0   1 -19   36.06    6.47
   0  -1 -19   48.19    7.34
   0  -1 -18   -0.92    1.20
   0   1 -18   -0.10    1.28
   0   1 -17   33.10    6.06
   0  -1 -17   30.28    5.13
   0  -1 -16    0.15    0.99
   0   1 -16   -1.38    1.87
   0  -1 -15  105.25    9.34
   0   1 -15  101.62    9.64
   0   1 -14   -1.46    2.27
   0  -1 -14    1.12    1.90
   0  -1 -13  167.80   10.98
   0   1 -13  173.03   11.74
   0  -1 -12   -0.01    0.95
   0   1 -12    0.62    1.95
   0   1 -11   53.96    6.10
   0  -1 -11   59.42    5.83
   0   1 -10    1.16    0.71
   0  -1 -10   -0.28    1.01
   0   1  -9 2080.17   34.31
   0  -1  -9 2249.68   20.58
   0   1  -8   -0.81    0.90
   0  -1  -8   -0.32    0.54
   0  -1  -8    0.10    0.88
   0   1  -7 1898.08   29.79
   0  -1  -7 1812.85   25.04
   0  -1  -7 1856.88   17.64
   0  -1  -6   -0.03    0.39
   0  -1  -6    0.24    0.45
   0   1  -6    0.37    0.88
   0   1  -5 3181.40   33.48
   0  -1  -5 3065.27   26.83
   0   1  -5 3059.87   31.54
   0  -1  -5 3134.50   21.54
   0   1  -4    0.06    0.71
   0   1  -4    0.35    0.57
   0  -1  -4   -0.01    0.40
   0  -1  -4   -0.08    0.35
   0   1  -3 1525.58   19.30
   0  -1  -3 1560.59   15.53
   0  -1  -2    0.19    0.32
   0   1  -2    0.34    0.52
   0   1  -2   -0.18    0.41
   0  -1  -1  439.72    8.48
   0   1  -1  452.02    7.88
   0  -1   0    0.99    0.36
   0   1   0    0.26    0.20
   0   1   1  498.12    8.40
   0  -1   1  479.15    9.48
   0   1   2    0.13    0.23
   0  -1   2    0.08    0.32
   0   1   5 3093.64   18.67
   0   1   6   -0.05    0.30
   0   1   7 1893.16   16.61
   0   1   8   -0.03    0.55
   0  -1   8    1.24    0.78
   0  -1   9 2099.10   30.63
   0   1   9 2217.81   20.94
   0   1  10    0.82    0.77
   0  -1  10    0.05    0.80
   0  -1  11   63.27    5.63
   0   1  11   56.35    3.70
   0   1  12    0.66    0.88
   0  -1  12    0.94    0.75
   0  -1  13  169.62    9.90
   0   1  13  185.27    7.57
   0  -1  14    2.03    1.86
   0   1  14    1.31    0.74
   0   1  15  109.48    6.37
   0  -1  15  119.32    8.62
   0  -1  16    2.56    1.92
   0  -1  16    0.09    0.80
   0   1  16    0.68    0.65
   0   1  17   36.16    4.01
   0  -1  17   24.02    3.73
   0  -1  17   30.23    4.72
   0  -1  18   -0.39    1.56
   0  -1  18    0.68    1.20
   0  -1  19   46.68    6.29
   0  -1  20   -0.15    2.26
   0   2 -30  177.71   17.74
   0   2 -29   -1.57    3.10
   0   2 -28   79.05   11.55
   0   2 -27    2.60    4.47
   0   2 -26  245.32   19.19
   0   2 -25   -1.48    1.73
   0   2 -24   25.63    6.23
   0   2 -23   -0.06    2.52
   0   2 -22  168.86   14.95
   0   2 -21   -2.59    2.31
   0   2 -20  168.19   14.03
   0  -2 -19    2.89    2.51
   0   2 -19   -2.00    1.93
   0   2 -18  179.36   14.04
   0  -2 -18  153.07   12.69
   0  -2 -17   -1.08    1.47
   0   2 -17    0.13    2.02
   0   2 -16 1163.73   34.03
   0  -2 -16 1183.10   31.51
   0  -2 -15    2.22    2.05
   0   2 -15   -0.21    1.81
   0   2 -14  339.76   17.43
   0  -2 -14  354.20   16.45
   0  -2 -14  317.52   10.08
   0  -2 -13    1.25    1.40
   0  -2 -13   -0.15    0.55
   0   2 -13   -1.63    2.24
   0  -2 -12 2422.78   27.60
   0  -2 -12 2478.29   38.37
   0   2 -12 2432.17   43.76
   0  -2 -11    0.71    0.74
   0  -2 -11    0.31    1.20
   0   2 -11    0.94    1.55
   0  -2 -10 2728.19   28.67
   0   2 -10 2394.10   41.33
   0  -2  -9   -0.11    0.76
   0   2  -9   -0.26    1.01
   0   2  -8  134.15    8.79
   0  -2  -8  184.53    7.34
   0   2  -7    0.16    0.71
   0   2  -7   -0.13    0.77
   0   2  -6 2050.11   31.70
   0   2  -6 2123.95   33.53
   0  -2  -6 2150.54   25.47
   0   2  -5    0.68    1.26
   0   2  -5   -0.40    0.88
   0  -2  -5    1.25    0.61
   0   2  -4 1856.63   29.01
   0  -2  -4 1833.46   24.08
   0   2  -3    1.53    0.66
   0  -2  -3    0.97    0.90
   0   2  -3    1.33    0.72
   0  -2  -2  751.88   15.76
   0   2  -2  778.46   17.27
   0   2  -1    1.81    0.90
   0  -2  -1   -0.02    0.58
   0   2  -1   -0.25    0.92
   0  -2   1   -0.40    0.62
   0   2   1    0.28    0.66
   0   2   1    1.21    0.58
   0   2   2  736.94   14.57
   0  -2   2  730.26   16.30
   0   2   2  771.75   10.06
   0  -2   3    0.97    0.73
   0   2   3    1.77    0.88
   0   2   4 1782.42   20.78
   0  -2   4 1798.52   26.46
   0   2   5   -0.43    0.46
   0  -2   5    1.05    1.52
   0   2   6 2188.38   21.83
   0  -2   6 2083.75   30.32
   0   2   7    0.26    0.54
   0  -2   7    1.10    1.22
   0   2   8  187.55    6.27
   0  -2   8  171.51    8.95
   0   2   9    0.46    0.38
   0  -2   9   -0.47    0.64
   0  -2  10 2498.63   35.86
   0   2  10 2668.49   23.84
   0   2  11    0.34    0.61
   0  -2  11    1.20    1.53
   0  -2  11    1.41    1.64
   0  -2  12 2500.45   37.23
   0  -2  12 2456.88   41.26
   0   2  13   -0.52    0.53
   0  -2  13    0.58    1.91
   0  -2  13    1.87    1.77
   0  -2  14  352.98   16.68
   0   2  14  332.06    9.16
   0  -2  14  375.73   15.13
   0   2  15    1.09    1.06
   0  -2  15    0.94    1.48
   0  -2  15   -1.68    1.71
   0  -2  16 1203.48   31.77
   0  -2  16 1135.13   27.38
   0  -2  17    0.84    0.99
   0  -2  17    0.09    1.28
   0  -2  18  153.44   12.07
   0  -2  18  158.45   10.67
   0  -2  19   -0.28    2.00
   0  -2  19   -1.67    1.53
   0  -2  20  169.23   13.03
   0  -2  21    2.02    3.11
   0  -2  22  177.68   14.00
   0   3 -30   -1.95    2.00
   0   3 -29    0.12    2.33
   0   3 -28   -0.60    2.53
   0   3 -27   38.78    8.00
   0   3 -26   -3.02    4.64
   0   3 -25   -1.20    3.64
   0   3 -24   -1.02    2.12
   0   3 -23    1.90    1.95
   0   3 -22    0.36    2.72
   0   3 -21  136.25   13.38
   0   3 -20   -1.55    2.67
   0   3 -19  232.78   17.21
   0   3 -18   -1.92    3.11
   0   3 -17   57.08    7.89
   0   3 -16   -2.89    2.12
   0   3 -15  141.38   11.82
   0   3 -14   -1.87    2.50
   0  -3 -14   -0.42    0.80
   0   3 -13  227.88   14.18
   0  -3 -12   -0.68    0.81
   0   3 -12    1.94    2.38
   0   3 -11  199.22   12.86
   0  -3 -11  199.04    9.56
   0   3 -10    0.44    1.41
   0  -3 -10    0.92    0.64
   0  -3  -9 3580.79   41.07
   0   3  -9 3651.68   52.80
   0   3  -8    0.70    1.05
   0  -3  -8    0.71    0.70
   0   3  -8    1.31    1.75
   0  -3  -7   35.34    4.16
   0   3  -7   40.64    4.98
   0   3  -7   32.37    4.92
   0   3  -6    0.38    1.57
   0  -3  -6    0.29    0.96
   0   3  -6    0.88    1.10
   0   3  -5  580.59   19.39
   0   3  -5  617.25   17.86
   0  -3  -5  606.75   16.96
   0  -3  -4    0.30    0.61
   0   3  -4    0.18    1.04
   0   3  -4   -0.38    0.75
   0   3  -3  958.14   23.55
   0  -3  -3  938.39   21.61
   0   3  -3  910.67   19.76
   0   3  -2    0.33    0.49
   0  -3  -2   -1.10    0.60
   0  -3  -1 1961.15   31.86
   0   3  -1 2012.37   24.77
   0   3   0    0.03    0.74
   0  -3   0    1.27    1.27
   0   3   0   -0.37    0.77
   0   3   1 1833.41   29.40
   0  -3   1 1883.06   31.19
   0   3   1 1869.27   20.92
   0   3   2    0.05    0.86
   0   3   2    0.51    0.45
   0  -3   2    1.02    0.61
   0   3   3 1018.03   14.15
   0   3   3 1034.36   21.07
   0   3   4   -0.17    0.36
   0   3   4   -0.48    0.78
   0  -3   4   -0.23    0.83
   0  -3   5  640.87   19.03
   0   3   5  624.86   15.62
   0  -3   6   -0.92    0.81
   0   3   6    0.34    0.51
   0   3   7   37.34    3.63
   0  -3   8    0.48    0.96
   0   3   8   -0.92    0.85
   0   3   9 3632.59   34.53
   0  -3   9 3517.30   47.30
   0   3  10   -0.21    0.95
   0  -3  10    0.27    0.95
   0  -3  11  198.88   11.68
   0   3  11  222.31    8.05
   0   3  12   -0.75    0.55
   0  -3  12   -0.53    0.94
   0   3  13  199.53    7.32
   0  -3  13  234.71   13.05
   0  -3  13  211.88   13.56
   0  -3  14   -0.49    1.26
   0  -3  14   -1.00    1.78
   0   3  14    1.44    0.95
   0  -3  15  122.09    9.95
   0  -3  15  128.21   11.05
   0  -3  16    0.39    1.00
   0  -3  16   -1.08    1.36
   0  -3  17   76.69    8.81
   0  -3  17   77.30    8.13
   0  -3  18    2.39    2.32
   0  -3  18   -3.59    1.87
   0  -3  19  254.86   16.61
   0  -3  19  223.68   14.44
   0  -3  20   -0.79    1.95
   0  -3  21  126.31   12.33
   0  -3  22   -2.30    2.76
   0  -3  23   -0.38    2.67
   0   4 -29   -2.84    4.11
   0   4 -28    7.68    2.94
   0   4 -27   -6.00    5.34
   0   4 -26  110.70   13.17
   0   4 -25    1.16    3.76
   0   4 -24    3.81    2.21
   0   4 -23    1.57    2.42
   0   4 -22  511.03   26.70
   0   4 -21    0.78    3.75
   0   4 -20   53.08    8.15
   0   4 -19    1.27    2.68
   0   4 -18  397.50   22.09
   0   4 -17    0.70    2.51
   0   4 -16 1262.09   37.72
   0   4 -15   -0.12    1.66
   0   4 -14  190.69   13.93
   0  -4 -14  196.09   11.47
   0   4 -13   -0.49    2.51
   0  -4 -13    1.16    1.46
   0  -4 -12 1099.78   26.84
   0   4 -12  950.50   29.78
   0   4 -11    0.61    2.04
   0  -4 -11    2.21    1.89
   0   4 -10 2813.18   51.06
   0   4 -10 2741.60   48.29
   0  -4 -10 2714.17   41.55
   0  -4  -9    0.88    1.36
   0   4  -9    0.19    1.95
   0   4  -9    0.84    2.06
   0  -4  -8  729.57   21.85
   0   4  -8  770.05   25.94
   0  -4  -7   -0.31    1.36
   0   4  -7    2.13    2.64
   0   4  -7    1.63    1.76
   0  -4  -6 1433.49   30.61
   0   4  -6 1375.84   30.30
   0   4  -5    0.17    1.99
   0  -4  -5    0.74    1.85
   0   4  -5   -0.86    1.03
   0  -4  -4 2491.20   39.98
   0   4  -4 2421.20   43.24
   0  -4  -3   -0.36    1.37
   0   4  -3    0.98    2.05
   0   4  -3    0.10    0.71
   0   4  -2  797.43   23.59
   0  -4  -2  778.04   22.85
   0   4  -2  729.75   18.40
   0   4  -1    0.43    1.51
   0  -4  -1   -0.34    1.44
   0   4  -1   -0.04    0.59
   0  -4   0  420.39   17.00
   0   4   0  406.70   12.26
   0   4   0  418.50   16.72
   0   4   1   -0.35    0.62
   0   4   1    0.71    1.08
   0  -4   1    0.95    0.74
   0   4   2  777.69   14.93
   0  -4   2  807.00   23.42
   0   4   2  828.42   22.74
   0   4   3    3.77    0.95
   0   4   3   -0.42    0.87
   0  -4   3    2.25    1.48
   0   4   4 2402.24   24.26
   0  -4   4 2491.52   42.28
   0  -4   5    0.91    1.70
   0   4   5    2.03    0.96
   0   4   5    0.04    0.83
   0  -4   6 1440.73   32.67
   0   4   6 1462.44   19.67
   0   4   7   -0.51    0.68
   0   4   7    1.11    1.08
   0  -4   7    0.82    1.43
   0   4   8  750.56   19.38
   0  -4   8  728.77   23.98
   0  -4   9    0.13    1.27
   0   4   9   -0.96    0.90
   0   4  10 2763.49   36.11
   0  -4  10 2788.25   47.60
   0   4  11    0.20    1.34
   0  -4  11    0.37    1.28
   0  -4  12 1072.66   30.66
   0   4  12 1069.59   21.23
   0   4  13   -0.10    0.92
   0  -4  13   -0.54    0.98
   0  -4  14  194.17   14.31
   0  -4  14  176.18   12.63
   0  -4  15    3.44    2.66
   0  -4  15   -1.16    1.56
   0  -4  16 1233.43   37.06
   0  -4  17    1.42    1.70
   0  -4  17    2.32    3.13
   0  -4  18  353.51   19.45
   0  -4  18  397.61   22.45
   0  -4  19    5.22    3.38
   0  -4  19    5.61    3.68
   0  -4  20   43.91    7.06
   0  -4  20   22.27    5.84
   0  -4  21    0.43    2.21
   0  -4  22  526.68   26.68
   0  -4  23    2.86    2.36
   0  -4  24    6.35    4.68
   0   5 -28    3.60    3.70
   0   5 -27    5.21    2.68
   0   5 -26    7.27    3.44
   0   5 -25   13.28    5.23
   0   5 -24    6.00    4.79
   0   5 -23   33.41    6.33
   0   5 -22   -0.60    3.56
   0   5 -21    3.27    3.20
   0   5 -20   -0.40    2.40
   0   5 -19    7.03    2.72
   0   5 -18    1.55    2.41
   0   5 -17    4.37    2.59
   0   5 -16    0.79    2.03
   0   5 -15   31.02    5.80
   0   5 -14   -1.13    2.43
   0   5 -13   70.90    8.64
   0  -5 -13   71.31    7.96
   0  -5 -12   -0.37    1.68
   0   5 -12   -0.43    1.34
   0   5 -11   41.78    6.08
   0  -5 -11   38.20    5.70
   0   5 -10   -0.59    1.12
   0   5 -10   -0.26    1.28
   0  -5 -10   -0.61    1.51
   0   5  -9    3.11    2.40
   0  -5  -9   -0.47    1.12
   0   5  -9    4.15    1.20
   0  -5  -8    0.48    2.12
   0   5  -8    0.11    0.98
   0   5  -8    0.29    1.17
   0  -5  -7  183.09   12.21
   0   5  -7  184.40   13.56
   0   5  -7  183.07   12.06
   0   5  -6    0.72    1.31
   0  -5  -6    1.41    2.11
   0   5  -6    0.11    1.24
   0   5  -5  153.51   10.33
   0   5  -5  168.65   12.80
   0  -5  -5  174.34   11.81
   0   5  -4   -0.75    0.81
   0   5  -4    0.23    1.40
   0  -5  -4   -0.27    1.24
   0  -5  -3  216.41   13.30
   0   5  -3  217.23   13.85
   0   5  -2   -0.96    0.82
   0  -5  -2   -1.01    1.23
   0   5  -2    1.22    1.81
   0   5  -1   75.45    6.06
   0   5  -1   65.18    7.21
   0  -5  -1   69.60    7.57
   0   5   0    0.37    1.32
   0  -5   0    0.66    1.32
   0   5   0    0.09    0.81
   0  -5   1   49.43    6.41
   0   5   1   65.63    7.16
   0   5   1   69.88    5.21
   0   5   2    0.64    0.92
   0   5   2    0.24    1.23
   0  -5   2   -1.00    1.18
   0   5   3  230.27    8.73
   0   5   3  217.66   12.94
   0  -5   3  231.13   14.02
   0   5   4   -0.07    1.29
   0  -5   4    1.39    1.09
   0   5   4    0.50    0.69
   0   5   5  151.42   10.70
   0  -5   5  155.99   11.86
   0   5   5  149.76    6.34
   0   5   6   -0.01    0.66
   0   5   6    0.95    2.03
   0  -5   6    1.88    2.23
   0   5   7  154.63    6.86
   0  -5   7  174.45   12.84
   0   5   8   -0.15    0.93
   0  -5   8    0.30    1.00
   0   5   8   -0.03    0.82
   0   5   9    2.07    1.28
   0  -5   9    3.13    3.11
   0   5   9    1.00    0.81
   0   5  10    1.51    1.83
   0   5  10   -0.50    1.23
   0  -5  10   -1.05    3.37
   0  -5  11   40.60    7.21
   0   5  12   -0.75    1.02
   0  -5  12   -0.41    2.14
   0  -5  13   65.80    8.22
   0  -5  14   -0.05    2.10
   0  -5  15   23.94    5.32
   0  -5  15   32.04    6.05
   0  -5  16    1.07    2.88
   0  -5  16   -1.26    2.61
   0  -5  17    5.06    2.77
   0  -5  17    5.65    2.85
   0  -5  18   -3.41    3.33
   0  -5  18   -2.03    3.04
   0  -5  19    7.50    2.92
   0  -5  19   11.58    4.57
   0  -5  20    0.02    2.88
   0  -5  20    2.34    2.43
   0  -5  21   10.89    4.72
   0  -5  22    0.62    2.52
   0  -5  23   31.42    7.39
   0  -5  24   -1.73    2.90
   0  -5  25    2.37    2.83
   0   6 -26  204.83   18.71
   0   6 -25    5.69    4.36
   0   6 -24   69.79   10.82
   0   6 -23   -1.02    2.42
   0   6 -22  364.61   23.20
   0   6 -21    3.57    4.03
   0   6 -20  153.13   14.76
   0   6 -19   -1.57    2.59
   0   6 -18    8.62    3.94
   0   6 -17   -3.78    2.83
   0   6 -16  312.67   19.87
   0   6 -15    1.06    2.75
   0   6 -14   18.15    5.21
   0   6 -13   -1.36    2.14
   0  -6 -13    1.45    2.11
   0   6 -12  476.31   22.89
   0  -6 -12  434.35   20.97
   0   6 -11   -0.97    1.65
   0  -6 -11   -0.21    2.23
   0   6 -10  483.66   24.05
   0  -6 -10  504.42   22.53
   0  -6  -9    0.06    1.14
   0   6  -9    1.50    1.71
   0   6  -9    0.08    1.67
   0   6  -8   67.73    7.92
   0  -6  -8   82.80    9.18
   0   6  -8   82.17    9.93
   0   6  -7   -2.45    3.37
   0  -6  -7    1.59    2.83
   0   6  -7   -0.03    2.13
   0  -6  -6 2930.21   53.91
   0   6  -6 2737.38   55.49
   0  -6  -5    2.20    2.47
   0   6  -5    4.12    3.77
   0   6  -5   -0.29    1.26
   0  -6  -4 1295.81   35.49
   0   6  -4 1304.81   37.44
   0  -6  -3    0.65    1.36
   0   6  -3    2.31    2.27
   0   6  -3   -0.93    1.41
   0  -6  -2 2227.40   46.82
   0   6  -2 2267.65   48.05
   0  -6  -1    3.44    2.16
   0   6  -1    0.02    1.46
   0   6  -1   -0.31    1.52
   0   6   0 1611.66   29.78
   0  -6   0 1540.53   39.35
   0  -6   1    2.37    2.42
   0   6   1    3.29    3.04
   0   6   1    0.45    1.68
   0   6   2 2396.86   47.69
   0  -6   2 2459.19   49.65
   0  -6   3    2.11    3.44
   0   6   3    0.54    1.41
   0   6   3    0.36    0.88
   0   6   4 1099.90   19.56
   0  -6   4 1120.87   34.35
   0   6   5   -0.52    0.61
   0   6   5   -0.22    1.09
   0  -6   6 3148.70   57.22
   0   6   6 3037.81   52.42
   0  -6   7    0.45    2.22
   0   6   7   -0.93    2.20
   0  -6   8   72.14    9.07
   0   6   8   66.57    8.38
   0   6   9    1.29    1.67
   0  -6   9   -2.32    1.63
   0   6  10  518.96   20.55
   0  -6  11    0.04    2.60
   0   6  11    0.44    1.88
   0  -6  12  448.55   22.83
   0  -6  13   -0.13    1.88
   0  -6  14   13.82    4.57
   0  -6  15   -0.38    1.57
   0  -6  15    3.31    2.86
   0  -6  16  372.44   22.13
   0  -6  16  360.65   21.92
   0  -6  17   -0.60    2.06
   0  -6  17    0.12    3.47
   0  -6  18    8.66    4.04
   0  -6  18    6.03    3.94
   0  -6  19    2.56    3.13
   0  -6  19    5.84    3.28
   0  -6  20  139.83   14.11
   0  -6  20  160.64   14.96
   0  -6  21   -1.12    3.51
   0  -6  21    2.79    3.10
   0  -6  22  333.77   23.25
   0  -6  23    2.68    3.98
   0  -6  24   59.69   10.33
   0  -6  25    5.01    5.47
   0  -6  26  168.13   17.69
   0   7 -24    1.28    2.45
   0   7 -23   16.31    5.78
   0   7 -22    0.51    2.20
   0   7 -21   18.83    6.27
   0   7 -20   -0.84    3.06
   0   7 -19   36.46    7.19
   0   7 -18    2.47    3.28
   0   7 -17    7.40    3.22
   0   7 -16   -4.47    3.55
   0   7 -15   57.68    8.74
   0   7 -14    0.95    2.24
   0   7 -13   51.39    8.87
   0  -7 -12    0.81    1.43
   0   7 -12    5.89    2.66
   0   7 -11   30.27    6.30
   0  -7 -11   25.40    6.22
   0   7 -10   -0.76    2.88
   0  -7 -10    0.02    2.73
   0   7  -9  284.35   19.34
   0   7  -9  264.98   17.13
   0  -7  -9  251.27   17.25
   0  -7  -8    0.39    1.89
   0   7  -8   -0.67    1.70
   0   7  -8   -1.41    1.87
   0   7  -7 1067.46   32.94
   0   7  -7 1066.02   36.91
   0  -7  -7 1130.59   36.25
   0   7  -6    1.06    1.69
   0   7  -6    4.24    2.22
   0  -7  -6    0.32    3.20
   0  -7  -5  598.26   26.12
   0   7  -5  605.14   27.44
   0   7  -5  649.41   24.16
   0  -7  -4    5.20    1.27
   0   7  -4    0.90    2.73
   0   7  -4   -0.55    3.03
   0  -7  -3   62.72    8.42
   0   7  -3   66.30    7.30
   0   7  -3   54.96    8.49
   0  -7  -2    0.83    1.74
   0   7  -2   -1.49    2.60
   0   7  -2   -1.55    1.45
   0   7  -1 1863.72   36.17
   0   7  -1 1982.79   47.92
   0  -7  -1 1862.40   46.55
   0   7   0    5.16    4.49
   0  -7   0    0.19    2.43
   0   7   0   -1.52    1.37
   0  -7   1 1900.03   46.99
   0   7   1 2050.05   48.49
   0  -7   2    3.35    1.75
   0   7   2    0.73    1.97
   0   7   3   70.18    8.72
   0  -7   3   79.71   10.00
   0  -7   4    3.83    3.03
   0   7   4    0.22    1.73
   0   7   5  543.74   24.61
   0  -7   5  562.06   25.84
   0   7   6   -2.77    1.16
   0  -7   6    0.63    2.77
   0  -7   7 1133.36   36.76
   0   7   7 1017.27   33.59
   0  -7   8   -1.07    3.41
   0   7   8    3.71    2.88
   0   7   9  281.85   17.04
   0  -7   9  251.68   17.51
   0  -7  10    0.17    1.79
   0   7  10    0.35    1.52
   0  -7  11   27.87    6.52
   0  -7  12   -0.02    2.22
   0  -7  13   48.03    8.40
   0  -7  14   -0.18    2.07
   0  -7  15   65.70   10.33
   0  -7  15   62.50    9.45
   0  -7  16   -6.34    4.37
   0  -7  16    1.68    3.82
   0  -7  17    6.34    4.50
   0  -7  17    5.41    3.84
   0  -7  18   -0.11    2.60
   0  -7  18   -0.64    2.03
   0  -7  19   23.20    7.25
   0  -7  19   34.39    7.34
   0  -7  20   -2.07    2.73
   0  -7  20    1.41    5.10
   0  -7  21   19.00    5.52
   0  -7  21   22.54    7.18
   0  -7  22    2.80    2.80
   0  -7  23   17.22    6.67
   0  -7  24   -0.05    2.33
   0   8 -22   38.16    7.42
   0   8 -21   -3.98    4.46
   0   8 -20   61.99    9.95
   0   8 -19    5.07    4.08
   0   8 -18    4.82    3.80
   0   8 -17    0.41    2.78
   0   8 -16  108.55   12.66
   0   8 -15   -3.39    3.29
   0   8 -14   15.13    4.73
   0   8 -13    2.34    2.02
   0   8 -12   30.85    6.00
   0  -8 -12   40.26    8.81
   0  -8 -11    2.65    3.73
   0   8 -11    1.40    3.41
   0   8 -10   95.11   10.96
   0  -8 -10   91.17   11.06
   0  -8  -9    1.67    1.91
   0   8  -9   -1.71    2.71
   0  -8  -8   -2.41    1.44
   0   8  -8   -1.26    1.72
   0  -8  -7    0.06    1.76
   0   8  -7   -1.85    3.03
   0   8  -7   -0.15    3.52
   0   8  -6  267.09   17.26
   0   8  -6  260.40   18.93
   0  -8  -6  223.64   17.19
   0   8  -5   -2.35    1.91
   0  -8  -5   -0.55    1.95
   0   8  -5    4.04    3.23
   0   8  -4  126.16   11.20
   0  -8  -4  101.36   11.39
   0   8  -4  115.48   12.63
   0   8  -3   -1.33    1.97
   0  -8  -3   -1.00    2.27
   0  -8  -2  132.23   12.81
   0   8  -2  139.51   13.52
   0   8  -1   -0.44    1.53
   0  -8  -1    1.46    3.04
   0  -8   0  206.36   16.31
   0   8   0  192.52   16.21
   0  -8   1    1.00    2.79
   0   8   1    2.81    3.17
   0  -8   2  121.74   12.55
   0   8   2  125.67   12.66
   0   8   3    0.80    2.66
   0  -8   3    0.05    1.48
   0   8   4  119.70   12.65
   0  -8   4  130.08   13.62
   0   8   5   -1.03    1.68
   0  -8   5    2.84    2.03
   0  -8   6  236.09   18.07
   0   8   6  213.47   16.58
   0   8   7    0.18    2.77
   0  -8   7   -1.33    2.68
   0   8   8    0.52    2.16
   0  -8   8    1.15    2.33
   0   8   9   -0.54    2.70
   0  -8   9    0.76    2.43
   0  -8  10  125.70   13.56
   0  -8  11   -1.88    2.90
   0  -8  12   37.45    7.71
   0  -8  13   -1.19    2.21
   0  -8  14   10.59    3.33
   0  -8  14    6.48    3.56
   0  -8  15    3.61    4.03
   0  -8  15   -1.77    3.35
   0  -8  16   98.98   12.54
   0  -8  16   72.24   10.40
   0  -8  17   -1.99    2.05
   0  -8  17    5.15    4.98
   0  -8  18    4.30    2.88
   0  -8  18   -0.12    3.34
   0  -8  19   -0.35    3.56
   0  -8  19    1.15    2.53
   0  -8  20   59.05   10.16
   0  -8  20   63.09   10.60
   0  -8  21   -4.13    4.17
   0  -8  21   -1.41    3.99
   0  -8  22   53.10    9.91
   0   9 -19   14.11    5.28
   0   9 -18    3.71    4.45
   0   9 -17   47.94   10.16
   0   9 -16   -0.68    3.97
   0   9 -15    5.53    4.43
   0   9 -14    2.69    5.20
   0   9 -13    3.07    3.04
   0   9 -12   -3.78    3.46
   0   9 -11   50.07    8.26
   0  -9 -11   51.31    9.22
   0   9 -10   -1.65    3.36
   0  -9 -10    2.47    3.58
   0  -9  -9   27.16    6.88
   0  -9  -8   -1.49    1.85
   0  -9  -7   13.64    5.03
   0  -9  -6    0.42    2.76
   0   9  -5   -0.01    1.67
   0  -9  -5   -0.37    3.00
   0   9  -4   -1.52    3.00
   0  -9  -4    0.39    2.12
   0   9  -3   36.21    6.88
   0  -9  -3   39.11    7.20
   0  -9  -2    2.88    2.17
   0   9  -2   -3.19    3.52
   0   9  -1    7.24    3.02
   0  -9  -1   18.49    6.42
   0   9   0   -1.78    2.95
   0  -9   0    0.37    1.97
   0  -9   1   11.05    4.82
   0   9   1    8.03    4.49
   0  -9   2    1.24    2.90
   0   9   2    2.76    3.95
   0   9   3   42.65    8.05
   0  -9   3   46.09    8.38
   0  -9   4    0.64    2.34
   0   9   4    0.12    2.10
   0   9   5    4.05    3.70
   0  -9   5    0.75    3.20
   0   9   6    6.17    5.06
   0  -9   6   -3.13    3.45
   0   9   7   17.85    5.53
   0  -9   7   18.28    6.25
   0  -9   8   -1.93    1.89
   0   9   8    4.55    3.76
   0  -9   9   43.36    9.24
   0  -9  10   -2.72    2.80
   0  -9  11   38.88    7.29
   0  -9  12   -4.77    3.84
   0  -9  13   10.43    4.92
   0  -9  13    9.52    4.90
   0  -9  14   -2.96    3.56
   0  -9  14   -1.10    2.96
   0  -9  15    4.67    2.80
   0  -9  15    3.97    3.93
   0  -9  16   -5.16    4.97
   0  -9  16   -0.04    2.47
   0  -9  17   23.19    6.91
   0  -9  17   35.46    7.82
   0  -9  18    0.36    3.24
   0  -9  18   -0.44    3.48
   0  -9  19    4.62    3.28
   0  -9  19   13.82    5.52
   0 -10 -10  104.47   13.54
   0 -10  -9    8.58    5.24
   0 -10  -8    7.46    4.84
   0 -10  -7   -0.47    3.77
   0 -10  -6  158.21   15.92
   0 -10  -5    5.11    3.44
   0 -10  -4   72.82   11.18
   0 -10  -3    1.83    4.04
   0 -10  -2   44.85    8.74
   0 -10  -1   -4.27    2.81
   0  10  -1    3.09    4.02
   0 -10   0  221.75   18.61
   0  10   0  213.84   18.37
   0  10   1    1.87    4.00
   0 -10   1   -1.77    1.61
   0  10   2   33.62    7.43
   0 -10   2   54.23    9.62
   0  10   3    2.62    3.54
   0 -10   3    1.43    2.61
   0 -10   4   98.36   12.44
   0  10   4   77.88   10.91
   0  10   5    6.92    5.34
   0 -10   5    2.94    4.32
   0 -10   6  161.52   16.08
   0  10   6  124.55   14.59
   0 -10   7    5.97    3.52
   0 -10   8    1.99    3.02
   0 -10   9    1.54    2.42
   0 -10  10  109.36   13.05
   0 -10  11    7.49    4.97
   0 -10  11    0.32    2.56
   0 -10  12   36.76    7.82
   0 -10  12   41.41    8.58
   0 -10  13   -3.81    4.08
   0 -10  13    1.37    3.05
   0 -10  14    2.94    4.14
   0 -10  14   15.98    7.04
   0 -10  15   -4.80    4.06
   0 -10  15   -1.31    3.35
   0 -10  16   36.27    7.55
   0 -10  16   46.41    9.88
   0 -11  -9    8.52    3.46
   0 -11  -8   -4.88    5.10
   0 -11  -7    5.37    4.83
   0 -11  -6   -0.08    3.06
   0 -11  -5    2.78    3.67
   0 -11  -4    2.38    3.49
   0 -11  -3   19.02    5.75
   0 -11  -2    6.22    3.56
   0 -11  -1    2.27    2.49
   0 -11   0   10.62    5.12
   0 -11   1   -2.83    3.77
   0 -11   2   -4.61    5.05
   0 -11   3   25.13    6.98
   0 -11   4    1.72    4.17
   0 -11   5   -1.00    2.34
   0 -11   6   -2.41    2.83
   0 -11   7    8.95    3.53
   0 -11   8    2.23    2.71
   0 -11   8   -2.24    1.76
   0 -11   9   18.79    6.69
   0 -11   9   18.86    6.86
   0 -11  10   -5.34    4.14
   0 -11  10   -1.37    3.61
  -1   0 -31    0.81    4.49
  -1   0 -30    3.61    2.89
  -1   0 -29    1.99    2.43
  -1   0 -28    0.07    2.71
  -1   0 -27    1.99    3.71
   1   0 -26   -0.24    3.44
  -1   0 -26    3.17    2.69
  -1   0 -25   -2.02    1.79
   1   0 -25    0.13    1.62
  -1   0 -24   -2.11    2.49
   1   0 -24   -0.73    3.34
  -1   0 -23   -0.48    2.76
   1   0 -23    1.21    1.47
  -1   0 -22    0.25    2.94
   1   0 -22   -1.66    2.25
  -1   0 -21    3.67    2.48
   1   0 -21   -2.59    3.29
  -1   0 -20   -1.74    1.87
   1   0 -20    0.67    1.91
  -1   0 -19    0.11    1.90
   1   0 -19    0.07    1.85
  -1   0 -18    1.61    1.58
   1   0 -18   -1.54    2.57
  -1   0 -17   -1.51    1.62
   1   0 -17    0.40    2.81
  -1   0 -16   -0.16    1.98
   1   0 -16   -1.93    1.42
   1   0 -15    1.29    1.44
  -1   0 -15   -0.39    1.27
   1   0 -14   -0.06    1.22
  -1   0 -14    1.69    2.43
  -1   0 -13   -1.33    1.61
   1   0 -13    1.07    0.87
   1   0 -12    1.99    1.63
  -1   0 -12   -0.73    1.28
  -1   0 -11   -0.82    1.72
   1   0 -11    1.33    1.68
  -1   0 -10    0.27    1.31
   1   0 -10   -1.77    1.22
   1   0  -9    0.56    0.79
  -1   0  -9    0.03    0.75
  -1   0  -8    0.11    0.94
   1   0  -8   -0.20    1.11
  -1   0  -7    1.21    0.96
   1   0  -7    8.50    2.15
   1   0  -6   -0.14    0.84
  -1   0  -6   -0.85    1.02
  -1   0  -6   -0.40    0.39
   1   0  -5   -0.02    0.46
  -1   0  -5   -0.03    0.33
  -1   0  -5    0.19    0.38
  -1   0  -4    0.36    0.72
  -1   0  -4    0.65    0.59
  -1   0  -3   -0.61    0.55
  -1   0  -3    0.29    0.26
  -1   0  -2    0.65    0.38
  -1   0  -2    0.02    0.31
  -1   0  -1   -0.07    0.19
  -1   0   1   -0.14    0.26
  -1   0   2    0.01    0.37
  -1   0   3   -0.10    0.29
  -1   0   4    0.07    0.43
  -1   0   5    0.02    0.34
  -1   0   6    0.50    0.87
  -1   0   7   -0.16    0.69
  -1   0   8   -0.11    0.18
  -1   0   8   -0.10    0.69
   1   0   8    0.87    0.68
  -1   0   9   -0.04    0.60
   1   0   9    0.46    0.67
  -1   0   9   -0.08    0.42
   1   0  10    1.89    0.86
  -1   0  10    0.39    1.04
  -1   0  10   -0.10    0.29
  -1   0  11   -0.19    0.89
   1   0  11   -1.11    0.80
  -1   0  11    0.43    0.53
  -1   0  12    0.15    1.39
   1   0  12   -0.32    0.86
  -1   0  12    0.49    0.38
  -1   0  13    0.39    0.52
  -1   0  13   -0.79    1.14
   1   0  13    0.38    1.09
   1   0  14    0.49    0.92
  -1   0  14   -0.40    0.51
  -1   0  14    0.07    1.35
  -1   0  15    0.65    0.92
  -1   0  15   -0.15    0.50
   1   0  15   -0.51    0.96
   1   0  16   -0.42    1.07
  -1   0  16   -0.02    1.41
  -1   0  16   -0.88    0.77
   1   0  17   -0.83    1.83
  -1   0  17    0.72    0.93
  -1   0  18    0.97    1.96
   1   0  18   -0.53    0.99
  -1   0  19   -1.04    1.79
  -1   1 -30   40.89    7.99
   1   1 -29  117.70   14.09
  -1   1 -29  105.49   13.74
   1   1 -28   59.69   10.38
  -1  -1 -28   61.30   10.25
  -1   1 -28   88.35   11.89
  -1   1 -27    7.79    3.30
   1   1 -27   13.32    3.54
  -1  -1 -27   15.41    5.68
  -1  -1 -26  181.50   16.77
   1   1 -26  217.05   18.39
  -1   1 -26  191.10   16.93
  -1   1 -25  184.76   16.60
   1   1 -25  202.03   16.79
  -1  -1 -25  181.88   16.19
  -1  -1 -24    7.77    3.83
  -1   1 -24    9.86    4.25
   1   1 -24    4.18    1.68
  -1  -1 -23  103.54   11.70
  -1   1 -23  107.87   11.81
   1   1 -23  124.38   13.05
  -1  -1 -22   80.42   10.05
  -1   1 -22  120.46   12.94
   1   1 -22   87.78   10.31
   1  -1 -22   98.04   12.07
   1   1 -21   14.81    4.45
  -1   1 -21   16.86    4.92
   1  -1 -21   16.38    4.49
  -1  -1 -21   19.03    4.81
  -1  -1 -20  167.31   13.63
  -1   1 -20  173.53   14.19
   1   1 -20  194.55   15.42
   1  -1 -20  160.18   13.46
   1   1 -19  229.50   16.66
  -1  -1 -19  226.16   15.68
   1  -1 -19  224.08   15.73
  -1   1 -19  253.97   16.74
   1   1 -18   74.80    9.03
   1  -1 -18   74.70    8.72
  -1  -1 -18   46.43    7.22
  -1   1 -18   67.46    8.40
   1   1 -17  157.40   12.93
   1  -1 -17  178.61   13.25
  -1   1 -17  190.77   13.87
  -1  -1 -17  159.56   12.19
  -1  -1 -16  366.00   17.73
   1  -1 -16  316.70   16.98
  -1   1 -16  345.65   18.02
   1   1 -16  357.74   18.72
   1   1 -15   26.49    4.87
   1  -1 -15   31.88    5.48
  -1   1 -15   22.01    4.79
  -1  -1 -15   34.76    5.37
   1   1 -14  107.65    9.85
  -1  -1 -14  120.68    9.64
  -1   1 -14  115.13    9.94
   1  -1 -14  139.03   10.46
  -1  -1 -13  669.72   21.73
   1   1 -13  653.51   23.00
  -1   1 -13  701.27   23.52
   1  -1 -13  700.12   22.28
  -1   1 -12 1467.11   33.48
   1   1 -12 1496.30   33.36
   1  -1 -12 1478.97   31.59
  -1  -1 -12 1420.05   30.45
   1  -1 -11  486.67   17.30
  -1  -1 -11  490.08   16.60
   1   1 -11  485.54   18.42
  -1  -1 -11  532.48   13.23
  -1   1 -11  493.17   18.65
   1  -1 -10  813.81   20.96
  -1  -1 -10  811.64   15.95
   1   1 -10  743.38   22.30
  -1  -1 -10  780.54   19.69
  -1   1 -10  779.46   22.24
   1   1  -9 1077.85   25.00
  -1  -1  -9 1053.26   21.90
  -1   1  -9 1099.93   22.39
   1  -1  -9 1097.17   23.29
  -1  -1  -9 1117.62   18.54
  -1  -1  -8  774.95   17.33
  -1   1  -8  793.71   20.47
   1  -1  -8  801.30   18.96
  -1   1  -8  808.01   18.41
   1   1  -8  799.53   20.44
  -1  -1  -8  823.00   15.14
  -1  -1  -7 1083.38   18.84
  -1   1  -7 1071.65   20.57
   1   1  -7 1140.42   23.38
  -1  -1  -7 1121.07   17.26
  -1   1  -7 1156.93   23.73
  -1   1  -6 1843.88   25.36
   1   1  -6 1895.07   28.15
  -1  -1  -6 1852.93   22.07
  -1   1  -6 1827.44   28.36
   1   1  -5  951.35   18.81
  -1   1  -5 1003.98   17.89
  -1  -1  -5  925.77   15.14
  -1  -1  -5  997.50   14.71
  -1  -1  -4 2870.44   21.11
  -1  -1  -4 2812.01   25.09
   1  -1  -4 2911.58   18.35
  -1   1  -4 2839.74   30.63
  -1   1  -4 2763.93   28.69
  -1  -1  -3 2215.94   21.68
  -1   1  -3 2182.81   24.29
  -1   1  -2   66.92    4.04
  -1   1  -2   61.26    3.91
  -1  -1  -2   64.27    2.68
   1   1  -2   62.41    3.51
   1   1  -1 3468.02   22.19
  -1   1  -1 3375.26   27.77
  -1   1  -1 3465.28   27.05
  -1  -1  -1 3451.77   26.53
  -1  -1  -1 3471.21   22.34
  -1  -1   1 3435.67   26.51
  -1  -1   1 3388.79   26.83
  -1  -1   2   61.31    3.91
  -1  -1   2   58.89    3.48
  -1   1   2   66.84    3.66
  -1   1   3 2349.37   21.74
  -1  -1   3 2332.95   25.57
  -1  -1   3 2371.65   22.73
  -1  -1   4 2801.88   29.95
  -1  -1   4 2713.51   25.09
  -1  -1   5  959.48   18.36
  -1  -1   5  964.09   15.25
  -1  -1   6 1849.92   21.28
  -1  -1   6 1897.51   26.47
  -1  -1   7 1141.12   21.50
  -1  -1   7 1140.01   17.27
  -1  -1   8  807.08   14.99
  -1   1   8  812.80   14.95
  -1  -1   8  831.67   19.14
  -1  -1   9 1087.91   18.11
  -1  -1   9 1093.08   23.00
  -1   1   9 1114.18   18.24
  -1  -1  10  813.02   15.92
  -1  -1  10  837.57   20.49
  -1   1  10  844.20   16.54
   1   1  10  792.74   10.05
  -1  -1  11  504.63   13.07
   1   1  11  481.08    8.95
  -1   1  11  510.53   13.50
  -1  -1  11  519.21   16.68
   1  -1  12 1515.68   28.27
   1   1  12 1414.02   16.26
  -1  -1  12 1563.91   29.78
  -1   1  12 1462.57   23.67
  -1  -1  12 1513.98   23.04
   1  -1  13  689.42   19.67
   1   1  13  641.82   11.80
  -1   1  13  676.11   16.78
  -1  -1  13  690.17   16.07
  -1  -1  13  700.01   20.71
  -1  -1  14  138.88    7.36
   1  -1  14  128.12    8.73
   1   1  14  119.18    5.39
  -1  -1  14  129.61    9.32
  -1   1  14  123.61    7.35
  -1   1  15   23.19    3.44
   1  -1  15   22.67    4.03
  -1  -1  15   26.19    3.63
   1   1  15   24.57    2.47
  -1  -1  15   30.51    4.75
  -1  -1  16  323.51   11.69
  -1  -1  16  322.00   15.39
  -1   1  16  336.89   13.48
   1   1  16  318.69    9.75
   1  -1  16  349.89   15.09
  -1   1  17  163.91    9.65
  -1  -1  17  180.45   11.67
  -1  -1  17  161.86    8.40
   1  -1  17  192.23   11.52
  -1  -1  18   79.19    7.97
  -1   1  18   65.05    6.36
  -1  -1  19  252.97   14.81
   1  -1  19  226.30   13.39
  -1  -1  20  164.82   12.55
   1  -1  20  149.50   11.41
  -1  -1  21   21.51    4.58
   1   2 -30   19.42    5.80
  -1   2 -30   31.15    7.40
  -1   2 -29   28.32    6.45
   1   2 -29   20.43    5.89
   1   2 -28   33.85    7.91
  -1   2 -28   24.25    5.91
   1   2 -27   11.33    4.62
  -1   2 -27   10.77    4.66
  -1   2 -26   18.28    5.58
   1   2 -26   16.35    5.18
   1   2 -25   39.40    7.63
  -1   2 -25   33.14    7.88
  -1  -2 -24   31.35    7.25
   1   2 -24   38.28    8.02
  -1   2 -24   33.34    6.50
  -1   2 -23   13.26    4.78
  -1  -2 -23   12.65    5.08
   1   2 -23   27.40    6.33
   1   2 -22   33.36    6.07
  -1  -2 -22   26.06    6.20
  -1   2 -22   24.17    5.91
  -1   2 -21   14.08    4.26
   1   2 -21   16.60    5.55
  -1  -2 -21   16.64    4.44
   1   2 -20   93.23   10.68
  -1  -2 -20  101.71   10.63
  -1   2 -20   80.40   10.31
   1   2 -19   46.62    7.31
  -1  -2 -19   40.99    6.87
  -1   2 -19   49.97    7.38
  -1  -2 -18   22.75    4.88
  -1   2 -18   25.73    5.53
   1   2 -18   13.12    4.71
  -1  -2 -17   56.62    7.11
  -1   2 -17   65.53    8.66
   1   2 -17   39.64    6.60
  -1   2 -16   74.19    8.41
   1   2 -16   60.64    7.81
  -1  -2 -16   60.06    7.13
  -1  -2 -15   10.90    2.29
  -1  -2 -15   12.33    3.10
  -1   2 -15   12.74    3.62
   1   2 -15   11.52    3.65
  -1  -2 -14  144.91   10.17
   1   2 -14  131.53   11.07
  -1  -2 -14  121.41    7.36
  -1   2 -14  131.20   11.14
  -1  -2 -13   38.53    4.20
  -1   2 -13   32.74    5.42
   1  -2 -13   33.25    2.60
  -1  -2 -13   32.99    4.71
   1   2 -13   38.06    5.45
  -1   2 -12    8.61    3.19
  -1  -2 -12   15.73    2.63
   1   2 -12   17.41    3.74
   1  -2 -12   13.37    1.74
  -1  -2 -12   15.67    2.76
  -1   2 -11    2.84    1.82
   1   2 -11    6.50    2.29
   1  -2 -11    2.82    1.14
  -1  -2 -11    3.08    0.73
  -1   2 -11    6.87    1.76
  -1  -2 -11    6.62    2.17
  -1  -2 -10   49.99    4.45
   1  -2 -10   44.74    3.23
   1   2 -10   48.86    5.84
  -1   2 -10   47.95    5.57
  -1  -2 -10   41.89    4.44
  -1   2 -10   41.53    5.45
  -1   2  -9  193.07   10.81
  -1  -2  -9  196.80    8.64
  -1  -2  -9  199.74    8.76
   1  -2  -9  187.60    6.63
  -1   2  -9  188.48   11.22
  -1  -2  -8  131.15    6.51
  -1   2  -8  121.25    8.62
   1   2  -8  143.35    9.16
  -1   2  -8  141.25    9.04
  -1  -2  -8  130.44    6.97
   1  -2  -8  141.90    5.99
  -1  -2  -7  200.44    8.50
  -1  -2  -7  205.11    7.27
  -1   2  -7  191.98   10.27
  -1   2  -7  206.18   10.63
   1   2  -7  216.90   10.68
   1  -2  -7  206.11    7.45
  -1   2  -6  277.63   11.97
  -1  -2  -6  288.85    7.57
   1  -2  -6  281.17    8.79
  -1   2  -6  249.18   11.46
   1   2  -6  278.39   11.49
  -1  -2  -6  269.01    9.72
  -1  -2  -5   39.12    3.80
  -1   2  -5   37.03    4.19
  -1   2  -5   37.43    4.18
   1  -2  -5   37.45    3.34
   1   2  -4  197.16    8.55
   1  -2  -4  193.54    7.55
  -1   2  -4  176.14    8.58
  -1   2  -4  209.00    9.74
  -1  -2  -4  184.61    8.10
  -1   2  -3 1482.81   25.05
  -1  -2  -3 1504.91   23.22
   1  -2  -3 1496.12   21.20
  -1  -2  -2 4956.31   42.48
   1   2  -2 4970.55   44.30
  -1   2  -2 5097.93   44.94
   1  -2  -2 5009.16   40.46
   1   2  -2 4984.43   36.00
  -1   2  -1 4782.90   42.84
  -1  -2  -1 4785.23   41.62
   1   2  -1 4895.07   42.13
  -1   2  -1 4836.19   38.07
   1  -2  -1 4794.35   40.32
  -1   2   0 8666.78   48.25
  -1  -2   0 8114.92   54.45
   1   2   0 7858.73   53.01
   1  -2   0 8820.47   55.11
  -1  -2   1 4887.92   42.60
  -1   2   1 4914.18   41.93
   1   2   1 4923.50   38.83
   1   2   2 5012.70   37.44
  -1   2   2 4955.17   34.72
  -1  -2   3 1535.40   24.57
   1   2   3 1515.47   19.66
  -1   2   4  202.72    8.03
   1   2   4  217.35    6.75
   1   2   5   39.90    2.75
  -1   2   5   40.38    3.59
  -1  -2   5   46.44    4.41
   1   2   6  277.92    6.61
  -1   2   6  274.60    9.54
  -1  -2   6  271.84   10.84
   1   2   7  187.41    5.04
  -1  -2   7  201.06   10.60
  -1  -2   7  202.98    9.48
  -1   2   7  195.69    8.13
  -1   2   8  121.78    6.42
  -1  -2   8  146.04    9.07
  -1  -2   9  214.81   11.42
  -1  -2   9  195.69    9.51
  -1   2   9  202.92    8.10
  -1   2  10   58.93    4.40
  -1  -2  10   54.50    5.65
  -1  -2  10   56.07    5.08
  -1  -2  11    3.83    2.17
  -1  -2  11    6.34    1.82
  -1   2  11    5.35    1.37
  -1   2  12   14.93    2.37
  -1  -2  12   12.73    2.68
  -1  -2  12    7.20    2.56
  -1  -2  13   35.08    4.56
  -1  -2  13   29.86    4.93
   1  -2  14  120.62    9.54
  -1  -2  14  132.13   10.04
  -1   2  14  134.69    7.18
  -1  -2  14  135.38    8.99
   1  -2  15   11.69    2.80
  -1  -2  15   11.51    2.74
  -1   2  15   15.61    2.71
  -1  -2  15   19.12    3.71
  -1  -2  16   74.22    8.12
  -1  -2  16   60.64    6.25
  -1   2  16   61.23    5.26
   1  -2  16   61.04    7.15
   1  -2  17   59.96    7.44
  -1  -2  17   50.82    5.72
  -1  -2  17   58.33    7.08
   1  -2  18   16.28    3.79
  -1  -2  18   24.14    4.12
   1  -2  18   17.75    4.39
  -1  -2  18   26.13    4.87
  -1  -2  19   50.45    6.79
   1  -2  19   45.24    6.29
   1  -2  19   39.56    6.25
   1  -2  20   97.62   10.00
  -1  -2  20   94.20   10.20
   1  -2  21   23.59    5.06
  -1  -2  21   12.61    3.50
  -1  -2  22   31.44    6.28
   1   3 -30   33.56    7.48
  -1   3 -30   68.75   11.25
  -1   3 -29   64.28    9.55
   1   3 -29   59.83    9.78
  -1   3 -28   21.61    6.71
   1   3 -28   24.68    5.86
  -1   3 -27   17.83    5.44
   1   3 -27   14.86    5.28
   1   3 -26  100.53   12.42
  -1   3 -26  107.74   13.03
  -1   3 -25   55.39    9.34
   1   3 -25   73.08   10.39
   1   3 -24   47.45    8.13
  -1   3 -24   44.91    7.84
   1   3 -23   85.94   11.21
  -1   3 -23   96.14   11.53
  -1   3 -22  220.84   17.20
   1   3 -22  242.45   18.04
  -1   3 -21   46.72    7.97
   1   3 -21   37.38    6.90
  -1   3 -20  278.68   18.73
   1   3 -20  241.23   17.71
   1   3 -19  217.78   16.37
  -1   3 -19  216.81   16.30
   1   3 -18   93.78   10.64
  -1   3 -18   75.28    9.65
   1   3 -17  229.99   15.83
  -1   3 -17  246.50   16.62
   1   3 -16 1016.89   33.07
  -1   3 -16 1105.81   34.21
   1   3 -15  118.81   10.62
  -1   3 -15  108.22   10.77
   1   3 -14  747.64   26.79
  -1  -3 -14  740.59   20.22
  -1   3 -14  707.92   26.26
  -1   3 -13 1133.68   32.65
   1  -3 -13 1079.28   20.43
  -1  -3 -13 1059.32   24.94
   1  -3 -12  457.78   13.87
  -1   3 -12  490.22   20.50
   1   3 -12  466.01   19.96
  -1   3 -12  481.84   20.53
  -1  -3 -12  533.26   16.89
  -1   3 -11  287.66   15.44
   1   3 -11  295.03   15.54
   1  -3 -11  302.15   11.07
  -1   3 -11  313.18   16.01
  -1  -3 -11  296.69   12.61
  -1  -3 -10 1591.53   28.98
  -1   3 -10 1672.01   36.73
   1   3 -10 1672.82   35.56
   1  -3 -10 1703.82   26.50
   1  -3  -9  391.33   12.90
  -1  -3  -9  399.72   14.51
   1   3  -9  418.44   17.18
  -1   3  -9  366.09   16.53
  -1   3  -9  421.40   17.96
  -1   3  -8  229.78   12.97
  -1  -3  -8  237.10   11.11
  -1   3  -8  207.80   12.10
   1   3  -8  250.83   12.77
   1  -3  -8  223.09    9.90
  -1  -3  -7  711.45   18.98
  -1   3  -7  665.87   21.78
   1  -3  -7  675.25   17.68
  -1  -3  -6  111.31    7.54
  -1   3  -6  116.72    8.36
   1  -3  -6  102.07    6.86
   1   3  -6  112.53    7.92
  -1   3  -6  109.38    8.60
   1   3  -5  310.96   12.58
   1   3  -5  338.92   14.66
   1  -3  -5  312.97   12.22
  -1  -3  -5  325.13   12.99
  -1   3  -5  319.41   14.46
  -1   3  -5  349.75   13.87
  -1  -3  -4 1089.68   23.83
   1   3  -4 1163.02   22.77
   1   3  -4 1172.62   26.77
   1  -3  -4 1087.22   23.04
  -1   3  -4 1127.68   26.38
  -1   3  -4 1203.30   24.66
  -1   3  -3  289.25   12.89
   1   3  -3  262.47   12.45
  -1  -3  -3  259.56   11.68
   1  -3  -3  279.07   11.55
  -1   3  -3  279.21   11.27
   1   3  -3  290.81   10.66
   1   3  -2  285.48    9.81
   1  -3  -2  293.28   11.79
  -1   3  -2  295.08   12.91
   1   3  -2  301.36   13.11
  -1  -3  -2  286.02   12.29
  -1   3  -2  315.49   11.58
  -1  -3  -1 1079.81   23.66
   1   3  -1 1021.44   17.39
   1   3  -1 1112.74   24.39
  -1   3  -1 1158.77   21.08
  -1   3  -1 1199.12   25.39
   1  -3  -1 1151.16   23.86
   1  -3   0 2164.38   34.07
  -1   3   0 2307.90   34.90
  -1  -3   0 2239.42   34.58
   1   3   0 2251.03   22.51
  -1   3   0 2357.17   29.42
   1   3   0 2275.22   33.76
  -1   3   1 1118.74   19.50
   1   3   1 1085.77   22.66
   1  -3   1 1142.40   24.70
  -1   3   2  272.32   11.50
  -1  -3   2  282.62   12.46
   1   3   2  280.92   11.18
   1   3   2  287.52    5.54
   1  -3   3  267.87   12.24
   1   3   3  260.98   10.43
  -1   3   3  249.44    8.81
  -1  -3   3  249.63   11.99
  -1   3   3  288.30   11.66
   1  -3   4 1202.73   25.92
   1   3   4 1141.16   21.35
  -1   3   4 1126.69   18.72
  -1  -3   4 1137.22   25.46
  -1   3   5  329.28   12.38
   1   3   5  320.15   10.76
   1  -3   5  329.82   13.70
  -1  -3   5  308.99   13.12
   1   3   6  107.81    6.01
  -1   3   6  106.75    6.81
  -1  -3   6  101.28    7.84
   1   3   7  736.51   14.79
  -1   3   7  783.48   18.18
   1   3   8  240.21    8.12
  -1  -3   8  220.22   11.74
  -1   3   8  241.32   10.06
  -1  -3   9  414.47   16.10
  -1   3   9  414.25   13.25
   1   3  10 1573.00   18.38
  -1  -3  10 1616.44   32.84
  -1   3  10 1612.70   26.95
  -1  -3  10 1654.18   36.34
  -1  -3  11  288.25   15.63
  -1   3  11  324.60   11.66
  -1  -3  11  320.85   14.99
  -1  -3  12  503.15   18.58
  -1  -3  12  511.11   20.71
  -1   3  12  492.02   14.39
  -1  -3  13 1200.35   32.49
  -1  -3  13 1179.64   29.08
   1  -3  13 1112.56   29.13
  -1   3  13 1159.14   22.14
  -1  -3  14  730.70   25.95
  -1   3  14  678.67   17.05
  -1  -3  14  669.08   22.76
   1  -3  14  745.57   24.03
   1  -3  15  129.32   10.36
  -1  -3  15  127.58   10.98
  -1  -3  15  136.67   10.30
  -1   3  15  108.09    6.84
   1  -3  16 1032.95   31.81
  -1  -3  16 1027.41   28.42
  -1  -3  16 1057.86   32.67
   1  -3  16 1056.28   30.22
  -1  -3  17  274.36   16.83
  -1  -3  17  261.55   14.71
   1  -3  17  261.97   16.39
   1  -3  17  253.20   15.04
  -1  -3  18   95.96    9.20
   1  -3  18   85.81    9.30
   1  -3  18   72.85    8.35
  -1  -3  18   87.67    9.56
  -1  -3  19  209.19   14.08
   1  -3  19  241.16   16.45
  -1  -3  19  239.92   16.21
   1  -3  19  198.95   14.29
   1  -3  20  264.36   17.57
  -1  -3  20  228.98   16.39
   1  -3  20  251.06   16.04
   1  -3  21   57.79    8.57
  -1  -3  21   39.84    7.25
   1  -3  22  239.39   17.44
  -1  -3  22  222.73   16.77
  -1  -3  23  116.78   12.70
  -1   4 -29    1.02    3.24
   1   4 -29    3.96    2.88
  -1   4 -28   10.55    4.93
   1   4 -28   -1.47    1.96
   1   4 -27   -0.44    3.91
  -1   4 -27   -4.07    3.48
  -1   4 -26   11.87    4.11
   1   4 -26    6.81    4.20
  -1   4 -25   10.55    4.34
   1   4 -25   10.48    3.85
   1   4 -24   17.54    4.47
  -1   4 -24    9.67    4.46
  -1   4 -23   56.55    9.26
   1   4 -23   52.52    8.59
   1   4 -22   58.67    8.88
  -1   4 -22   45.74    8.96
  -1   4 -21   84.57   11.22
   1   4 -21   85.03   10.45
   1   4 -20   13.56    5.17
  -1   4 -20    7.67    3.37
   1   4 -19   19.89    5.40
  -1   4 -19    8.10    2.34
   1   4 -18   31.95    6.73
  -1   4 -18   29.52    6.39
  -1   4 -17   39.80    7.27
   1   4 -17   41.60    7.34
  -1   4 -16   21.67    4.98
   1   4 -16   18.52    5.48
   1   4 -15   35.02    6.31
  -1   4 -15   46.26    7.59
   1   4 -14   10.41    2.47
  -1   4 -14   14.88    4.54
  -1  -4 -14   13.70    3.35
   1   4 -13    9.99    3.57
   1  -4 -13    5.95    2.30
  -1   4 -13   11.12    3.48
  -1  -4 -13    7.84    2.78
  -1   4 -13   11.24    3.52
  -1   4 -12  232.72   15.35
   1  -4 -12  213.71   11.49
   1   4 -12  228.84   14.34
  -1  -4 -12  200.08   11.75
  -1   4 -12  214.06   14.18
  -1   4 -11   96.84    9.83
  -1   4 -11   69.59    7.63
  -1  -4 -11   77.66    7.40
   1   4 -11   79.81    8.20
   1  -4 -11   74.28    6.79
   1  -4 -10  299.97   13.52
   1   4 -10  347.86   16.87
  -1  -4 -10  305.48   14.50
  -1   4 -10  290.88   16.52
  -1   4 -10  332.31   16.85
  -1   4  -9  519.06   20.59
  -1   4  -9  554.06   22.44
   1  -4  -9  558.31   18.54
   1   4  -9  585.76   21.36
   1  -4  -8  224.10   11.73
  -1  -4  -8  216.96   12.11
   1   4  -8  197.26   12.00
  -1   4  -8  209.08   13.69
  -1   4  -7   11.75    2.85
   1  -4  -7   13.72    2.72
  -1   4  -7    9.36    3.24
   1   4  -7   12.16    2.33
  -1  -4  -7   14.17    3.46
   1  -4  -6  112.93    8.56
  -1   4  -6  113.73    9.77
  -1  -4  -6   94.61    7.94
  -1   4  -6  126.40    9.41
   1   4  -6  117.94    9.91
   1   4  -6  117.78    8.63
   1   4  -5  150.54    9.35
  -1   4  -5  141.99    9.44
   1   4  -5  129.42   10.19
   1  -4  -5  128.41    9.17
  -1   4  -5  152.29   10.86
  -1  -4  -5  137.40    9.66
  -1   4  -4   76.47    6.77
   1   4  -4   85.90    8.03
   1   4  -4   82.16    6.72
   1  -4  -4   78.71    7.27
  -1  -4  -4   88.24    7.85
  -1   4  -4  103.21    8.84
  -1  -4  -3  140.38    9.69
  -1   4  -3   94.31    8.36
  -1   4  -3  109.81    7.74
   1   4  -3  115.50    7.37
   1  -4  -3  136.54    9.58
   1   4  -3  105.89    9.07
   1   4  -2  412.37   17.16
  -1  -4  -2  397.66   16.43
  -1   4  -2  392.80   14.10
  -1   4  -2  374.63   16.53
   1  -4  -2  375.01   15.79
  -1  -4  -1  712.27   22.02
  -1   4  -1  699.74   18.25
   1  -4  -1  735.10   22.27
   1   4  -1  714.36   22.10
  -1   4  -1  775.94   23.36
  -1  -4   0 1790.20   35.04
   1   4   0 1819.83   23.46
   1  -4   0 1803.59   34.91
   1   4   0 1734.91   34.06
   1   4   1  787.45   22.44
   1   4   1  712.66   13.26
  -1  -4   1  750.92   22.91
  -1   4   1  754.95   22.39
   1  -4   1  734.40   22.09
   1   4   2  421.35   16.17
   1  -4   2  387.49   16.42
  -1   4   2  413.52   12.76
  -1   4   2  340.05   14.84
  -1  -4   2  357.63   15.93
   1   4   2  393.18    8.62
   1   4   3  114.40    3.92
  -1  -4   3  123.40    9.49
  -1   4   3  141.71    7.36
   1  -4   3  119.42    9.33
   1   4   3  116.37    8.43
  -1   4   3  136.62    9.29
   1   4   4   76.31    6.75
  -1   4   4   82.27    5.54
  -1  -4   4   91.23    8.17
   1  -4   4   87.43    7.99
  -1   4   4   87.06    7.32
  -1  -4   5  129.96    9.67
   1   4   5  146.14    9.12
   1  -4   5  133.66    9.92
  -1   4   5  128.54    9.08
  -1   4   5  145.19    7.39
  -1  -4   6  122.39    9.65
   1   4   6  126.85    8.14
  -1   4   6  104.65    7.89
  -1   4   6  112.86    6.79
   1  -4   7   11.36    3.11
   1   4   7    8.11    2.06
  -1  -4   7   11.58    3.11
   1   4   7    6.90    1.09
  -1   4   7   11.50    2.21
  -1  -4   8  203.88   12.57
   1   4   8  212.82    9.91
   1  -4   8  203.70   12.67
  -1   4   9  508.06   17.01
   1   4   9  519.79   14.95
   1  -4   9  521.87   20.58
  -1  -4   9  476.67   19.41
   1  -4  10  290.94   15.52
  -1   4  10  282.61   12.39
  -1  -4  10  291.26   15.41
   1   4  10  295.05   10.90
  -1   4  11   68.60    6.13
   1  -4  11   80.75    8.26
  -1  -4  11   89.20    9.27
  -1  -4  11   92.28    8.88
   1   4  11   73.85    5.21
  -1  -4  12  233.50   15.17
   1  -4  12  206.89   13.58
  -1  -4  12  228.91   14.02
  -1   4  12  217.59   10.76
   1  -4  13    4.44    2.96
  -1  -4  13   15.01    4.69
  -1   4  13    9.15    2.31
  -1  -4  13   11.55    2.79
  -1  -4  14   15.81    4.03
  -1  -4  14   12.05    4.44
  -1   4  14    7.57    2.60
   1  -4  14   11.84    3.31
  -1  -4  15   41.11    6.53
   1  -4  15   41.18    6.27
  -1  -4  16   20.04    5.46
   1  -4  16   15.94    4.53
  -1  -4  16   14.90    3.45
  -1  -4  17   35.48    6.34
  -1  -4  17   49.91    7.93
   1  -4  17   36.33    6.25
   1  -4  17   38.23    6.55
  -1  -4  18   43.97    7.11
   1  -4  18   36.38    6.63
   1  -4  18   37.05    7.00
  -1  -4  18   33.55    7.43
   1  -4  19   18.65    5.17
  -1  -4  19    7.19    2.55
  -1  -4  19   13.35    4.88
   1  -4  19   15.35    5.33
  -1  -4  20    6.56    3.97
   1  -4  20    6.02    2.04
   1  -4  20    5.59    1.96
   1  -4  21   70.69   10.39
  -1  -4  21   74.93   10.30
  -1  -4  22   54.96    9.08
   1  -4  22   45.10    9.05
   1  -4  23   53.24    8.52
  -1  -4  23   35.97    7.30
  -1  -4  24   18.29    6.16
  -1   5 -28   19.52    5.61
   1   5 -28   21.18    6.38
  -1   5 -27   -4.51    5.33
   1   5 -27    1.86    2.80
  -1   5 -26   33.20    7.58
   1   5 -26   39.67    8.17
   1   5 -25   35.05    7.29
  -1   5 -25   26.67    6.72
   1   5 -24   -1.09    3.87
  -1   5 -24    5.48    4.65
  -1   5 -23   47.89    7.93
   1   5 -23   43.87    8.25
  -1   5 -22  167.20   15.73
   1   5 -22  185.73   15.99
  -1   5 -21   33.95    7.75
   1   5 -21   41.79    7.85
   1   5 -20   54.13    8.99
  -1   5 -20   42.17    7.53
  -1   5 -19  155.07   14.25
   1   5 -19  151.59   14.00
  -1   5 -18   38.32    7.59
   1   5 -18   46.31    8.33
   1   5 -17   20.50    5.72
  -1   5 -17   28.36    5.89
   1   5 -16  315.99   19.48
  -1   5 -16  366.56   20.80
  -1   5 -15  100.10   10.81
   1   5 -15  105.50   11.09
   1   5 -14   87.75    9.60
  -1   5 -14   89.56   10.11
  -1  -5 -14   67.65    8.02
  -1   5 -13  307.26   18.40
  -1  -5 -13  285.81   15.95
  -1   5 -13  299.55   18.81
   1  -5 -13  280.95   15.05
   1   5 -13  249.82   16.14
  -1  -5 -12  235.10   14.32
   1   5 -12  265.19   16.28
   1  -5 -12  261.39   14.44
  -1   5 -12  267.81   17.79
  -1   5 -12  259.48   16.36
  -1   5 -11   45.71    6.63
   1  -5 -11   36.84    5.76
  -1  -5 -11   43.97    6.27
   1   5 -11   40.01    6.38
  -1   5 -11   45.54    7.21
  -1   5 -10  588.91   23.40
   1  -5 -10  599.81   21.93
   1   5 -10  624.86   23.74
  -1   5 -10  577.01   25.20
  -1  -5 -10  572.41   22.17
   1   5  -9  375.92   18.01
  -1   5  -9  338.36   17.37
  -1   5  -9  368.40   19.54
   1  -5  -9  368.28   17.20
  -1  -5  -9  346.26   17.05
   1   5  -8   62.16    6.92
  -1  -5  -8   73.84    7.52
   1  -5  -8   79.23    8.06
  -1   5  -8   56.47    7.62
  -1   5  -8   77.37    8.42
  -1  -5  -7  344.67   16.79
  -1   5  -7  318.83   18.09
  -1   5  -7  300.69   15.91
   1  -5  -7  320.56   16.03
   1   5  -6  336.89   15.82
  -1   5  -6  343.77   18.48
  -1  -5  -6  352.02   17.11
   1  -5  -6  339.35   16.58
  -1   5  -6  357.92   16.66
   1   5  -6  344.48   18.43
   1   5  -5   77.35    7.12
  -1   5  -5   87.92    9.06
  -1  -5  -5   92.33    8.98
   1  -5  -5   77.49    8.03
  -1   5  -5   80.28    7.85
   1   5  -5   81.40    8.58
  -1  -5  -4  448.20   19.29
   1  -5  -4  431.85   18.84
   1   5  -4  467.66   20.55
   1   5  -4  421.19   16.16
  -1   5  -4  432.15   20.03
  -1   5  -4  422.97   17.31
  -1  -5  -3  592.17   22.19
   1   5  -3  565.85   17.69
  -1   5  -3  658.65   20.54
  -1   5  -3  540.28   21.90
   1  -5  -3  584.16   22.05
   1   5  -3  627.52   23.71
  -1   5  -2  116.26   10.14
   1   5  -2  123.43    8.05
   1   5  -2  123.81   10.32
   1  -5  -2  113.46    9.64
  -1   5  -2  104.06    7.86
  -1  -5  -2  116.32    9.65
  -1   5  -1   43.33    5.09
   1   5  -1   48.67    4.95
  -1   5  -1   44.21    5.98
  -1  -5  -1   43.13    6.02
   1   5  -1   52.23    6.84
   1  -5  -1   41.65    5.95
  -1   5   0  322.95   16.51
   1   5   0  346.88   16.73
  -1  -5   0  351.82   17.17
   1  -5   0  299.72   15.85
  -1   5   0  330.36   13.34
   1  -5   1   53.73    6.70
   1   5   1   37.73    3.66
   1   5   1   47.23    6.27
  -1   5   1   51.20    6.46
  -1  -5   1   43.23    5.88
  -1   5   1   49.62    4.93
   1   5   2  115.70    9.52
   1   5   2   99.69    5.20
   1  -5   2  114.20    9.80
  -1  -5   2  109.83    9.98
  -1   5   2  105.36    9.23
  -1   5   2  123.07    7.68
   1   5   3  549.74   10.97
   1   5   3  571.64   21.09
  -1  -5   3  567.45   22.32
   1  -5   3  578.32   22.05
  -1   5   3  561.40   20.96
  -1   5   4  427.74   13.62
  -1   5   4  448.59   18.62
   1   5   4  452.69   18.40
  -1  -5   4  440.71   19.68
   1  -5   4  436.65   19.49
   1   5   4  390.39    7.32
   1   5   5   71.08    7.49
  -1  -5   5   70.31    8.15
  -1   5   5   83.21    8.12
   1  -5   5   71.30    8.31
  -1   5   5   73.94    5.65
   1   5   6  335.80   15.41
  -1  -5   6  313.24   16.93
  -1   5   6  333.59   12.08
   1  -5   6  314.08   17.11
  -1   5   6  356.88   16.46
  -1  -5   7  352.50   17.95
  -1   5   7  317.54   12.26
   1  -5   7  318.49   17.31
   1   5   7  308.30   14.63
  -1   5   7  304.18   14.94
  -1   5   8   67.28    7.07
  -1  -5   8   68.66    7.90
   1  -5   8   75.98    8.35
   1   5   8   70.33    6.88
  -1   5   8   60.23    5.56
  -1   5   9  371.32   16.49
  -1  -5   9  353.00   18.52
  -1   5   9  330.10   12.92
   1   5   9  344.06   14.99
   1  -5  10  578.03   23.84
   1   5  10  563.59   18.61
  -1  -5  10  567.87   23.18
   1  -5  11   41.89    7.35
  -1  -5  11   38.40    6.19
   1   5  11   44.99    5.22
  -1  -5  12  280.54   16.82
   1  -5  12  238.03   15.40
  -1   5  12  259.11   13.38
   1   5  12  250.90   11.65
  -1  -5  12  261.58   17.25
  -1   5  13  317.25   14.46
  -1  -5  13  308.29   17.89
   1  -5  13  287.34   17.76
  -1  -5  13  318.69   18.92
   1  -5  14   76.58    9.41
  -1  -5  14   83.93   10.15
  -1  -5  14   89.44    9.94
  -1  -5  15  126.15   12.21
   1  -5  15  102.09   10.91
  -1  -5  15  107.62   11.05
  -1  -5  16  370.28   21.48
   1  -5  16  380.06   20.88
  -1  -5  16  345.71   19.86
  -1  -5  17   25.32    6.69
   1  -5  17   28.70    6.25
  -1  -5  17   28.46    5.56
   1  -5  17   29.08    5.93
   1  -5  18   46.05    8.19
   1  -5  18   59.96    8.91
  -1  -5  18   68.26    9.12
  -1  -5  18   52.88    8.45
   1  -5  19  138.92   13.22
  -1  -5  19  133.73   13.60
  -1  -5  19  117.91   12.46
   1  -5  19  103.27   12.14
   1  -5  20   49.67    8.54
  -1  -5  20   35.48    6.59
  -1  -5  20   41.53    7.68
   1  -5  20   37.42    7.80
   1  -5  21   46.34    8.29
  -1  -5  21   48.26    7.81
   1  -5  22  144.85   15.61
  -1  -5  22  132.04   14.04
  -1  -5  23   55.55    9.26
   1  -5  23   55.84   10.11
  -1  -5  24    4.23    3.47
   1  -5  24   -4.01    3.86
  -1  -5  25   46.44    8.83
   1   6 -26    4.51    2.99
  -1   6 -26    2.92    2.08
   1   6 -25   11.50    4.89
  -1   6 -25   -1.44    3.81
   1   6 -24    2.49    3.97
  -1   6 -24    7.28    4.98
  -1   6 -23    5.08    2.71
   1   6 -23    2.35    4.48
   1   6 -22   26.00    5.86
  -1   6 -22   15.31    4.98
  -1   6 -21    6.22    2.20
   1   6 -21   19.93    5.89
  -1   6 -20    5.44    1.95
   1   6 -20    6.34    2.34
  -1   6 -19    3.55    2.98
   1   6 -19    8.77    2.78
   1   6 -18    0.44    2.22
  -1   6 -18    6.22    2.53
   1   6 -17   10.24    4.30
  -1   6 -17    9.36    3.32
   1   6 -16    7.40    3.21
  -1   6 -16    5.97    2.57
   1   6 -15   15.53    5.43
  -1   6 -15   26.05    6.27
   1   6 -14   18.28    4.65
  -1   6 -14    9.32    3.59
  -1  -6 -13   12.29    3.81
   1   6 -13   32.82    6.01
  -1   6 -13   23.70    5.46
  -1   6 -13   24.40    6.00
  -1   6 -12   44.49    6.27
   1  -6 -12   59.32    7.97
   1   6 -12   60.87    8.37
  -1   6 -12   46.43    7.63
  -1  -6 -12   55.13    7.54
  -1   6 -11   43.19    7.20
  -1  -6 -11   34.70    6.36
   1   6 -11   25.51    5.00
  -1   6 -11   32.48    6.45
   1  -6 -11   30.50    5.59
   1  -6 -10   19.30    4.82
   1   6 -10   22.46    5.11
  -1  -6 -10   20.19    5.11
  -1   6 -10   14.88    4.07
  -1   6 -10   19.94    4.89
   1  -6  -9   10.23    3.77
  -1   6  -9    5.22    2.79
   1   6  -9    0.72    2.67
  -1  -6  -9    5.43    2.66
  -1   6  -9    5.57    3.03
   1   6  -8    1.66    2.65
  -1   6  -8    1.21    2.08
  -1   6  -8    2.18    1.05
  -1  -6  -8    4.34    2.97
   1  -6  -8    0.57    1.68
   1   6  -7   84.85    8.62
  -1   6  -7   75.50    8.73
  -1   6  -7   83.12    9.62
   1  -6  -7   73.46    8.44
  -1  -6  -7   73.69    8.45
   1   6  -6  147.10   10.88
  -1  -6  -6  164.35   12.78
   1  -6  -6  137.02   11.54
   1   6  -6  175.08   14.15
  -1   6  -6  138.28   10.93
  -1   6  -6  169.91   13.64
   1   6  -5  147.54   10.69
  -1  -6  -5  142.82   12.10
  -1   6  -5  140.72   10.84
   1  -6  -5  117.97   10.66
   1   6  -5  152.74   12.99
  -1   6  -5  130.97   12.20
  -1   6  -4  182.43   14.19
   1   6  -4  149.38   12.95
  -1   6  -4  161.11   11.47
   1  -6  -4  170.73   12.77
  -1  -6  -4  152.95   12.29
   1   6  -4  148.48   10.46
  -1   6  -3  142.76   10.35
  -1  -6  -3  115.59   10.91
  -1   6  -3  144.83   12.44
   1   6  -3  162.94   10.49
   1  -6  -3  145.69   12.02
   1   6  -3  158.86   12.75
  -1   6  -2  168.59   10.96
   1   6  -2  138.02   11.91
   1  -6  -2  159.27   12.45
  -1   6  -2  162.29   12.94
   1   6  -2  174.04   10.28
  -1  -6  -2  162.63   12.54
   1   6  -1   32.34    4.35
  -1  -6  -1   34.89    5.97
  -1   6  -1   24.53    5.13
  -1   6  -1   41.64    5.26
   1   6  -1   28.09    5.72
   1  -6  -1   30.60    5.65
  -1  -6   0   52.90    7.28
  -1   6   0   50.94    7.05
  -1   6   0   44.46    5.47
   1   6   0   40.05    6.26
   1  -6   0   49.37    6.92
   1   6   0   56.97    5.28
   1  -6   1   41.52    6.39
  -1  -6   1   30.78    5.58
  -1   6   1   39.26    4.66
   1   6   1   31.65    3.62
  -1   6   1   32.41    5.94
   1   6   1   38.10    5.90
   1   6   2  169.67   12.75
  -1   6   2  153.61    9.25
   1  -6   2  138.87   11.68
  -1  -6   2  139.15   11.87
  -1   6   2  124.18   11.20
   1   6   2  149.62    7.17
   1   6   3  164.43   12.43
  -1   6   3  153.19   11.99
   1   6   3  128.34    5.91
  -1   6   3  174.71    9.73
  -1  -6   3  144.13   12.29
   1  -6   3  145.22   12.11
  -1   6   4  128.45    8.05
  -1   6   4  137.07   11.32
  -1  -6   4  158.35   13.10
   1  -6   4  166.30   13.14
   1   6   4  146.82   11.68
   1   6   5  143.60   11.35
  -1   6   5  141.97   11.54
   1  -6   5  154.59   12.71
  -1  -6   5  161.65   13.24
  -1  -6   6  152.01   12.79
  -1   6   6  161.70   12.19
   1  -6   6  144.88   12.52
   1   6   6  128.50   10.53
  -1   6   6  147.84    8.24
  -1   6   7   72.62    8.47
   1  -6   7   92.84    9.97
  -1   6   7   71.54    5.70
   1   6   7   69.98    7.95
  -1  -6   7   75.68    9.40
   1  -6   8    1.39    1.94
   1   6   8    1.07    2.01
  -1   6   8    6.29    3.18
   1   6   9    3.54    2.60
  -1   6   9   12.75    3.07
  -1  -6   9    8.02    3.80
   1  -6   9    7.73    3.47
   1  -6  10   24.75    5.18
   1   6  10   18.52    3.93
  -1  -6  10   22.30    5.56
  -1   6  10   17.46    4.13
   1  -6  11   36.67    6.22
   1   6  11   42.32    5.78
  -1  -6  11   40.79    7.20
  -1   6  11   27.87    5.17
  -1  -6  12   57.55    8.40
   1  -6  12   49.22    7.76
  -1  -6  12   65.11    9.03
  -1   6  12   51.83    6.63
  -1  -6  13   31.78    6.10
   1  -6  13   30.13    6.47
  -1  -6  13   31.03    6.71
  -1  -6  14   12.85    3.79
   1  -6  14   20.55    5.02
  -1  -6  14   21.17    6.34
  -1  -6  15   22.95    6.04
  -1  -6  15   23.72    5.11
   1  -6  15    7.63    3.40
  -1  -6  16    4.13    3.75
   1  -6  16    6.53    2.27
  -1  -6  16    6.50    3.61
  -1  -6  17   13.21    4.22
  -1  -6  17   15.42    5.57
   1  -6  17   10.95    3.91
   1  -6  17   14.19    5.82
  -1  -6  18    3.59    4.03
   1  -6  18    0.73    3.02
   1  -6  18    3.33    2.72
  -1  -6  18    7.34    3.56
   1  -6  19    9.97    4.96
   1  -6  19    9.61    4.08
  -1  -6  19    7.99    2.97
  -1  -6  19    2.30    2.10
  -1  -6  20    4.35    2.79
   1  -6  20    2.95    4.06
  -1  -6  20    6.34    2.87
   1  -6  20   -1.41    2.20
   1  -6  21   14.84    5.40
  -1  -6  21   20.15    6.06
   1  -6  21   13.95    4.34
  -1  -6  22    7.45    3.25
   1  -6  22   17.67    6.24
  -1  -6  23    9.76    5.40
   1  -6  23    6.42    4.23
   1  -6  24    6.05    4.19
  -1  -6  24    4.15    3.24
   1  -6  25    5.43    4.70
  -1  -6  25    2.61    4.75
  -1  -6  26   -1.25    4.15
   1   7 -24   16.28    5.63
  -1   7 -24   19.89    6.20
  -1   7 -23   82.54   11.85
   1   7 -23   62.42   10.82
  -1   7 -22   65.10   10.33
   1   7 -22   62.12   10.40
  -1   7 -21   10.01    4.91
   1   7 -21    7.53    2.32
   1   7 -20   38.80    8.25
  -1   7 -20   43.35    9.30
   1   7 -19   67.91   10.24
  -1   7 -19   46.16    8.65
   1   7 -18   12.57    4.07
  -1   7 -18    6.66    2.95
  -1   7 -17   36.09    7.97
   1   7 -17   37.47    7.91
   1   7 -16  111.18   12.65
  -1   7 -16   94.33   12.03
  -1   7 -15    9.52    3.80
   1   7 -15   19.77    6.60
   1   7 -14   25.39    6.87
  -1   7 -14   26.98    6.15
  -1   7 -13   40.73    6.94
  -1  -7 -13   42.92    7.08
   1   7 -13   43.62    7.61
  -1  -7 -12   34.38    7.06
   1  -7 -12   36.89    7.16
   1   7 -12   33.17    6.69
  -1   7 -12   35.06    6.57
  -1   7 -12   52.20    9.04
  -1   7 -11    8.70    3.81
   1   7 -11    9.06    3.52
  -1  -7 -11   14.55    4.78
  -1   7 -11    5.95    2.44
   1  -7 -11    6.34    3.45
   1  -7 -10  197.02   15.17
   1   7 -10  180.18   14.30
  -1  -7 -10  192.89   15.49
  -1   7 -10  205.20   16.61
  -1   7 -10  207.27   15.50
   1  -7  -9  115.85   11.61
  -1   7  -9  113.53   11.11
  -1   7  -9  129.24   12.98
   1   7  -9  128.84   11.56
  -1  -7  -9  109.01   11.14
  -1   7  -8    7.00    3.31
   1  -7  -8    2.36    2.29
   1   7  -8    3.67    2.47
  -1   7  -8    2.67    1.49
  -1  -7  -8    7.62    3.74
  -1  -7  -7  156.30   13.48
  -1   7  -7  122.53   11.53
   1  -7  -7  148.42   13.16
   1   7  -7  135.70   11.36
  -1   7  -7  117.68   12.59
  -1  -7  -6  367.92   20.72
  -1   7  -6  339.16   20.42
  -1   7  -6  323.54   18.09
   1  -7  -6  357.05   20.16
   1   7  -6  402.82   19.22
  -1   7  -5   85.94    9.10
  -1   7  -5   58.70    8.66
   1   7  -5   80.78    8.56
  -1  -7  -5   71.94    8.86
   1  -7  -5   65.70    8.95
   1   7  -5   81.36   10.10
  -1  -7  -4  175.85   14.37
   1   7  -4  147.69   11.44
   1  -7  -4  177.53   14.45
  -1   7  -4  163.24   14.14
  -1   7  -4  192.85   13.29
   1   7  -4  219.32   16.20
   1  -7  -3  425.24   22.45
  -1   7  -3  404.95   19.06
  -1   7  -3  416.55   22.47
   1   7  -3  473.26   18.80
  -1  -7  -3  437.80   22.52
   1   7  -3  459.12   23.33
  -1  -7  -2  202.79   15.42
   1  -7  -2  195.17   15.09
   1   7  -2  210.42   15.89
  -1   7  -2  189.35   12.62
   1   7  -2  227.92   12.58
  -1   7  -2  206.64   15.85
  -1   7  -1    1.76    3.12
   1  -7  -1   -1.00    1.23
   1   7  -1    8.57    2.34
  -1   7  -1    1.02    1.23
   1   7  -1    1.27    2.28
  -1  -7  -1    4.76    3.40
   1  -7   0   87.57    9.93
  -1  -7   0   87.28   10.07
  -1   7   0   74.70    7.53
   1   7   0   76.93    6.93
   1   7   0   76.27    9.44
  -1   7   0  112.05   11.56
   1  -7   1    7.65    3.39
   1   7   1    5.39    3.01
  -1   7   1    9.56    3.75
  -1   7   1    3.69    1.97
  -1  -7   1    5.51    3.32
  -1   7   2  154.42   10.21
   1   7   2  187.51   14.57
   1  -7   2  214.83   15.66
  -1   7   2  222.53   15.79
  -1  -7   2  183.39   14.73
  -1  -7   3  409.30   22.02
  -1   7   3  418.60   21.64
   1   7   3  457.05   22.63
   1  -7   3  411.70   22.23
  -1  -7   4  199.83   15.38
   1   7   4  163.97   13.56
   1  -7   4  177.02   14.89
  -1   7   4  170.37   13.83
  -1  -7   5   72.87    9.17
   1  -7   5   77.21    9.56
   1   7   5   52.81    8.04
  -1   7   5   69.05    8.58
   1   7   6  348.78   19.44
  -1  -7   6  379.37   21.64
  -1   7   6  356.62   19.82
   1  -7   6  370.56   21.20
  -1  -7   7  140.07   12.90
   1  -7   7  142.27   12.93
   1   7   7  147.09   12.37
   1   7   8    3.46    2.81
   1  -7   8    4.60    3.54
  -1   7   8   -2.34    1.63
  -1  -7   8    2.33    2.98
  -1   7   9  119.11   11.31
  -1  -7   9  140.10   13.36
   1  -7   9  114.92   11.96
   1   7   9  119.65   11.22
  -1   7  10  204.14   15.16
  -1  -7  10  175.83   15.35
   1  -7  10  177.14   16.13
   1   7  10  177.64   13.35
  -1  -7  11    5.78    3.81
  -1   7  11    4.56    2.19
   1  -7  11    8.56    3.70
  -1  -7  12   33.24    7.47
   1  -7  12   34.57    6.49
  -1  -7  12   30.59    6.83
  -1  -7  13   36.58    7.69
   1  -7  13   42.62    7.71
  -1  -7  13   48.10    8.37
  -1  -7  14   24.72    6.89
   1  -7  14   15.64    5.63
  -1  -7  14   16.25    5.52
   1  -7  15   12.84    4.94
  -1  -7  15   11.61    4.42
  -1  -7  15   23.36    5.97
   1  -7  16   90.71   12.33
  -1  -7  16   71.97   10.34
  -1  -7  16   80.52   11.45
   1  -7  17   36.82    7.11
  -1  -7  17   39.85    8.37
   1  -7  17   33.54    8.05
  -1  -7  17   47.02    8.72
   1  -7  18    4.43    2.32
  -1  -7  18    3.11    1.97
   1  -7  18    2.05    2.33
  -1  -7  18    6.51    4.25
   1  -7  19   61.35   10.37
  -1  -7  19   43.67    9.34
   1  -7  19   35.72    8.64
  -1  -7  19   60.65    9.95
  -1  -7  20   39.50    8.72
   1  -7  20   37.47    8.77
   1  -7  20   51.87    8.92
  -1  -7  20   50.77    9.14
  -1  -7  21    8.22    5.70
   1  -7  21    6.03    5.23
   1  -7  21    2.20    3.63
  -1  -7  21    3.86    3.95
   1  -7  22   62.61   11.62
  -1  -7  22   65.99   10.25
   1  -7  23   97.62   13.67
  -1  -7  23   78.03   11.78
  -1  -7  24   10.59    4.57
   1  -7  24   21.66    5.84
   1   8 -22    4.64    3.31
  -1   8 -22    9.90    4.90
   1   8 -21   -1.15    3.25
  -1   8 -21    3.21    3.77
  -1   8 -20   -1.93    2.17
   1   8 -20    8.71    4.20
   1   8 -19    8.19    4.61
  -1   8 -19    4.25    2.32
   1   8 -18    2.55    2.45
  -1   8 -18    3.72    4.17
  -1   8 -17    3.73    2.11
   1   8 -17    6.36    4.31
   1   8 -16    1.76    2.20
  -1   8 -16    3.51    2.35
  -1   8 -15    1.39    3.45
   1   8 -15    2.81    3.25
  -1   8 -14    7.90    4.67
   1   8 -14   -0.15    2.65
  -1   8 -13    5.22    1.78
   1   8 -13   11.81    4.57
  -1  -8 -12    2.39    2.42
  -1   8 -12    0.93    2.98
   1   8 -12    1.53    1.92
  -1  -8 -11   10.94    4.55
   1   8 -11   14.66    4.31
   1  -8 -11   21.34    5.59
  -1   8 -11   26.98    6.64
  -1   8 -11   19.80    5.14
   1  -8 -10    0.07    2.02
  -1   8 -10    0.77    1.52
  -1   8 -10    0.44    2.37
   1   8 -10    5.04    4.56
  -1  -8 -10    6.27    3.43
  -1   8  -9    2.83    3.09
  -1   8  -9    1.62    3.13
   1  -8  -9    8.11    4.43
  -1  -8  -9    2.46    1.59
   1   8  -9    2.82    2.41
  -1  -8  -8   12.69    4.57
   1  -8  -8   15.63    5.23
   1   8  -8    7.53    1.89
  -1   8  -8   14.51    4.04
  -1   8  -8    7.11    3.65
  -1   8  -7    7.66    3.41
  -1   8  -7    1.62    2.47
   1   8  -7    5.01    3.14
  -1  -8  -7    2.25    3.05
   1  -8  -7   -1.75    3.91
   1  -8  -6  141.40   13.40
  -1   8  -6  107.61   12.80
   1   8  -6  113.02   10.80
  -1  -8  -6  137.74   13.51
  -1   8  -6  117.20   11.61
   1  -8  -5   28.60    5.97
  -1   8  -5   22.88    5.09
   1   8  -5   27.44    5.37
  -1   8  -5   26.08    5.79
  -1   8  -4   28.83    6.99
  -1  -8  -4   28.47    6.69
  -1   8  -4   34.81    6.49
   1  -8  -4   24.13    5.86
  -1  -8  -3   46.54    7.56
   1  -8  -3   41.34    7.42
   1   8  -3   42.94    7.64
  -1   8  -3   28.61    6.12
  -1   8  -3   34.94    6.17
   1  -8  -2  107.52   11.74
   1   8  -2  118.31   13.03
  -1   8  -2  107.56   12.08
  -1  -8  -2  127.80   12.78
  -1   8  -1   14.01    4.29
   1  -8  -1   20.01    5.09
   1   8  -1   13.55    5.08
  -1  -8  -1   14.51    5.21
   1   8   0   26.84    6.24
  -1  -8   0   38.62    7.64
   1  -8   0   27.82    5.99
  -1   8   0   26.54    6.16
  -1   8   1   23.28    5.18
  -1  -8   1    2.70    3.29
   1  -8   1   10.33    3.98
   1   8   1   18.08    4.25
  -1   8   2  127.44   12.72
   1  -8   2  110.29   11.55
  -1  -8   2  132.59   13.16
   1   8   2  113.18   12.31
  -1  -8   3   47.21    8.32
   1  -8   3   45.93    8.31
   1   8   3   38.54    6.28
  -1   8   3   47.09    7.57
  -1   8   4   29.66    5.89
   1   8   4   21.51    5.23
   1  -8   4   27.07    6.63
  -1  -8   4   33.15    6.44
   1  -8   5   41.25    7.10
   1   8   5   35.74    6.32
  -1  -8   5   33.97    6.16
  -1   8   5   31.75    6.76
   1   8   6  107.06   12.06
  -1   8   6  124.33   13.11
  -1  -8   6  104.26   11.42
   1  -8   6  109.53   12.08
  -1   8   7    1.38    1.72
   1   8   7    3.93    2.36
   1  -8   7    2.77    1.96
  -1  -8   7    3.43    1.94
  -1  -8   8    7.18    4.01
   1  -8   8    6.76    5.37
   1   8   8    7.57    2.42
  -1   8   8   17.66    5.59
   1  -8   9    4.14    3.42
  -1   8   9    3.29    2.62
   1   8   9    3.53    4.19
  -1  -8   9    1.51    2.00
  -1   8  10   -2.54    2.58
   1  -8  10   -1.69    3.26
  -1  -8  10    6.79    2.68
  -1  -8  11   17.62    4.94
  -1  -8  11   16.62    5.59
   1  -8  11   18.02    4.86
   1  -8  12    5.89    4.62
  -1  -8  12    4.23    2.14
  -1  -8  12   13.78    5.02
   1  -8  13    4.87    3.67
  -1  -8  13    7.49    3.88
   1  -8  14    7.89    4.30
  -1  -8  14    3.68    4.21
  -1  -8  14    4.63    3.40
  -1  -8  15    2.83    2.58
   1  -8  15   -0.11    1.82
  -1  -8  15    4.28    4.22
   1  -8  16    8.80    5.01
  -1  -8  16   -0.28    2.29
  -1  -8  16    2.65    3.94
   1  -8  17    2.91    2.80
   1  -8  17    2.52    2.45
  -1  -8  17    1.00    3.97
  -1  -8  17    2.65    2.80
   1  -8  18    8.17    4.42
  -1  -8  18    4.15    4.63
   1  -8  18    3.56    2.63
  -1  -8  18   -4.36    2.82
  -1  -8  19    8.62    4.23
   1  -8  19    5.91    3.35
  -1  -8  19   -0.01    2.79
   1  -8  19    0.52    2.25
   1  -8  20    3.94    3.91
  -1  -8  20    4.63    3.98
  -1  -8  20    3.74    3.98
   1  -8  20    3.63    3.10
   1  -8  21    0.35    2.42
  -1  -8  21   -3.19    2.92
   1  -8  21    4.88    3.70
   1  -8  22   10.37    5.22
   1  -8  22    0.38    3.31
  -1  -8  22    5.01    2.62
  -1   9 -19   38.75    9.30
   1   9 -19   48.40    9.38
  -1   9 -18    8.11    4.00
   1   9 -18   14.46    5.03
  -1   9 -17   37.34    8.30
   1   9 -17   42.70    8.12
   1   9 -16   85.91   11.97
  -1   9 -16   85.31   11.74
   1   9 -15   11.53    5.28
  -1   9 -15   16.59    5.32
   1   9 -14   35.25    7.88
  -1   9 -14   34.81    7.73
   1   9 -13   46.71    8.54
  -1   9 -13   47.23    9.23
  -1   9 -12   21.25    6.30
   1   9 -12   29.86    7.36
  -1   9 -11   27.19    7.36
  -1  -9 -11   24.60    7.19
   1  -9 -11    7.18    5.86
   1   9 -11   15.19    4.92
  -1   9 -10   96.60   11.94
  -1  -9 -10  110.66   12.85
   1  -9 -10  110.39   13.03
   1  -9  -9   17.50    5.10
  -1   9  -9   27.31    6.11
  -1  -9  -9   45.71    8.86
  -1   9  -9   61.51   10.01
  -1   9  -8    8.74    4.39
   1  -9  -8    1.88    2.19
  -1   9  -8   14.72    6.01
  -1  -9  -8   11.53    5.73
  -1   9  -7  109.22   12.94
  -1  -9  -7   71.76   10.89
   1  -9  -7  108.27   12.43
  -1  -9  -6  178.94   16.41
  -1   9  -6  143.79   14.90
   1  -9  -6  161.72   15.51
  -1  -9  -5    2.21    1.85
   1  -9  -5    8.59    4.80
  -1   9  -5    3.47    3.71
  -1   9  -4  121.02   13.51
   1  -9  -4  100.37   11.92
  -1  -9  -4  105.21   12.95
  -1   9  -3  113.97   13.49
   1  -9  -3  128.91   14.16
  -1  -9  -3  134.81   13.87
   1  -9  -2   61.79    9.67
  -1   9  -2  104.74   12.22
  -1  -9  -2   85.44   11.21
  -1   9  -1   12.52    5.12
   1  -9  -1   14.81    5.19
  -1  -9  -1    2.17    2.26
   1  -9   0   86.11   11.47
  -1  -9   0   95.67   11.71
  -1   9   0  107.53   13.13
   1  -9   1   16.36    5.57
  -1   9   1    5.80    4.65
  -1  -9   1   13.73    4.99
   1  -9   2   79.23   10.23
  -1  -9   2   86.96   11.03
  -1   9   2   81.38   11.08
  -1   9   3  144.39   14.56
  -1  -9   3  135.68   13.95
   1  -9   3  139.40   14.41
  -1   9   4   94.14   11.80
  -1  -9   4  108.03   12.27
   1  -9   4   75.83   10.41
  -1  -9   5   -0.21    2.18
   1  -9   5   -1.04    4.14
   1  -9   6  149.10   14.82
  -1  -9   6  185.00   16.26
  -1   9   6  163.53   16.06
   1  -9   7   74.77   11.45
  -1   9   7   85.96   11.08
  -1   9   8    8.44    3.66
  -1  -9   8    9.40    4.61
   1  -9   8    6.44    4.49
  -1  -9   9   54.58    8.91
   1  -9   9   43.22    7.13
   1  -9  10  111.82   13.05
  -1  -9  10  105.41   13.12
  -1  -9  10  132.77   14.24
  -1  -9  11   10.83    5.57
   1  -9  11   20.78    6.77
  -1  -9  11   15.47    5.43
  -1  -9  12   25.62    6.58
   1  -9  12   39.20    8.19
  -1  -9  12   22.46    5.68
  -1  -9  13   68.74   10.73
   1  -9  13   81.63   11.79
  -1  -9  13   62.31   10.57
  -1  -9  14   22.67    5.81
  -1  -9  14   32.72    6.75
   1  -9  14   40.44    8.57
   1  -9  15   21.93    6.26
  -1  -9  15   25.93    7.21
  -1  -9  15   18.31    6.49
   1  -9  16   70.47   10.09
   1  -9  16   93.79   12.63
  -1  -9  16   89.84   12.34
  -1  -9  16   94.52   12.39
  -1  -9  17   33.83    8.02
   1  -9  17   30.04    8.37
  -1  -9  17   56.83   10.39
   1  -9  17   50.04    9.04
   1  -9  18   10.69    6.06
  -1  -9  18    2.97    3.41
  -1  -9  18   19.61    8.11
   1  -9  18    4.46    4.02
  -1  -9  19   39.75    8.51
   1  -9  19   46.05   10.01
   1  -9  19   48.83    9.78
  -1  -9  19   46.33    8.92
  -1  10 -16   -1.16    2.68
  -1 -10 -10   16.98    5.22
   1 -10 -10   33.13    9.40
  -1 -10  -9   20.66    5.89
   1 -10  -9   27.52    7.13
  -1 -10  -8   -0.66    2.87
   1 -10  -8    4.86    3.39
  -1 -10  -7   16.69    5.05
   1 -10  -7   24.02    7.10
  -1 -10  -6   64.82    9.98
   1 -10  -6   76.09   10.87
  -1  10  -6   72.10   10.90
   1 -10  -5   15.58    5.31
  -1 -10  -5    7.72    4.85
  -1  10  -5   11.07    5.44
  -1 -10  -4   46.50    9.00
  -1  10  -4   65.95   10.38
  -1  10  -3   15.44    4.55
   1 -10  -3   22.75    6.86
  -1 -10  -3    6.96    3.29
   1 -10  -2   20.45    5.74
  -1 -10  -2   16.49    4.77
  -1  10  -2   20.20    7.13
   1 -10  -1   11.09    5.54
  -1 -10  -1   10.83    3.19
  -1  10  -1   13.93    4.54
  -1 -10   0   19.07    5.18
   1 -10   0   16.82    6.32
  -1  10   0   17.87    5.89
   1 -10   1   13.11    4.28
  -1 -10   1   19.38    5.52
  -1  10   1   13.07    5.94
  -1 -10   2   17.58    6.28
   1 -10   2   15.37    4.78
  -1  10   2   21.22    6.21
   1 -10   3   15.09    5.98
  -1  10   3   14.09    5.06
  -1 -10   3    7.44    4.56
  -1  10   4   58.23   10.35
  -1 -10   4   56.81    9.77
   1 -10   4   49.72    9.30
  -1 -10   5    5.64    4.24
   1 -10   5   10.89    4.29
  -1  10   5   10.00    3.72
  -1 -10   6   49.45    8.30
  -1  10   6   55.94    9.45
   1 -10   6   75.67   10.92
  -1  10   7   27.05    7.26
  -1 -10   7   28.22    6.94
  -1 -10   7   25.71    6.68
   1 -10   7   19.58    5.90
  -1 -10   8    4.36    3.94
   1 -10   8    1.77    1.92
  -1 -10   8   -1.90    2.79
  -1 -10   9   23.31    5.75
  -1 -10   9   10.92    4.60
   1 -10   9   21.48    5.82
  -1 -10  10   31.01    8.34
  -1 -10  10   21.69    5.29
   1 -10  10   16.55    5.34
  -1 -10  11   19.34    5.92
  -1 -10  11   11.64    5.42
   1 -10  11   15.10    4.95
  -1 -10  12   28.12    6.58
   1 -10  12   25.83    6.58
  -1 -10  12   33.62    8.16
   1 -10  13   30.02    7.66
  -1 -10  13   18.24    5.38
  -1 -10  13   20.11    5.28
  -1 -10  14   12.07    5.45
  -1 -10  14   13.85    5.12
   1 -10  14    9.86    4.74
   1 -10  14   11.45    6.31
   1 -10  15   12.01    5.76
  -1 -10  15    7.73    2.56
  -1 -10  15   18.97    6.26
   1 -10  15   16.35    6.02
   1 -10  16    6.36    5.02
   1 -10  16    4.23    3.41
  -1 -10  16    5.89    4.13
  -1 -10  16    1.74    3.24
  -1 -11  -9   33.90    8.34
   1 -11  -9   46.01   11.39
  -1 -11  -8    8.61    5.34
   1 -11  -8    1.47    2.73
   1 -11  -7   44.81    9.27
  -1 -11  -7   40.98    9.88
  -1 -11  -6   49.66    9.39
   1 -11  -6   43.78    9.03
  -1 -11  -5    6.43    4.59
   1 -11  -5    6.91    5.12
   1 -11  -4   33.72    7.57
  -1 -11  -4   17.20    7.08
  -1 -11  -3   15.67    6.21
   1 -11  -3   27.60    7.58
  -1  11  -2   20.38    5.51
  -1 -11  -2   18.35    5.36
   1 -11  -2   12.63    4.66
   1 -11  -1   24.08    6.73
  -1  11  -1   17.91    6.67
  -1 -11  -1   23.55    6.56
  -1 -11   0   48.00    9.04
  -1  11   0   50.03   10.58
   1 -11   0   36.63    8.38
  -1 -11   1   24.88    7.00
  -1  11   1   23.88    6.86
   1 -11   1   33.73    7.81
  -1 -11   2   14.30    5.00
   1 -11   2    7.74    3.21
  -1  11   2   17.92    7.10
  -1 -11   2   26.74    8.30
  -1  11   3   36.90    8.86
  -1 -11   3   27.30    7.94
   1 -11   3   19.83    5.65
  -1 -11   3   27.79    7.78
  -1 -11   4   24.52    6.61
  -1  11   4   44.81    9.71
  -1 -11   4   38.96    8.43
   1 -11   4   24.17    6.95
  -1 -11   5    7.92    3.29
  -1  11   5   17.27    6.93
   1 -11   5    4.02    3.20
  -1 -11   5    8.98    3.62
   1 -11   6   38.30    8.31
  -1 -11   6   43.09    8.33
  -1 -11   7   32.78    7.67
  -1 -11   7   41.58    9.67
   1 -11   7   19.48    5.54
  -1 -11   8    1.78    3.89
  -1 -11   8   10.68    4.11
   1 -11   8    9.77    4.78
  -1 -11   9   35.80    7.99
  -1 -11   9   25.38    7.04
   1 -11   9   32.32    7.63
  -1 -11  10   39.22    8.40
  -1 -11  10   47.45    9.91
   1 -11  10   51.40    9.51
  -2   0 -31   16.92    4.90
  -2   0 -30   69.38   11.21
  -2   0 -29   59.74   10.23
  -2   0 -28   87.75   11.82
  -2   0 -27   21.89    5.66
  -2   0 -26    7.55    4.38
  -2   0 -25  198.35   16.51
  -2   0 -24  134.88   13.53
  -2   0 -23  320.32   20.36
   2   0 -22   72.32   10.50
  -2   0 -22  100.78   11.26
  -2   0 -21  270.34   17.95
   2   0 -21  284.52   18.66
  -2   0 -20   61.66    8.58
   2   0 -20   62.12    8.84
   2   0 -19 1036.65   34.06
  -2   0 -19 1071.62   34.29
   2   0 -18   13.12    4.09
  -2   0 -18   19.99    4.72
   2   0 -17  361.85   19.18
  -2   0 -17  380.19   18.94
   2   0 -16   40.77    6.24
  -2   0 -16   37.75    6.31
  -2   0 -15  863.86   27.10
   2   0 -15  912.01   28.63
   2   0 -14   72.26    7.72
  -2   0 -14   57.97    6.65
   2   0 -13 6621.95   71.68
  -2   0 -13 6451.39   69.07
   2   0 -12  106.96    8.70
  -2   0 -12  111.27    8.67
   2   0 -11  383.04   16.18
  -2   0 -11  389.31   15.92
   2   0 -10 3284.09   45.43
  -2   0 -10 3403.16   44.34
  -2   0  -9 2453.32   26.40
   2   0  -9 2457.52   37.23
  -2   0  -8  608.17   12.10
   2   0  -8  618.31   17.67
  -2   0  -7 9284.41   64.14
   2   0  -7 9635.35   67.89
  -2   0  -6  898.03   18.25
  -2   0  -6  885.98   13.31
  -2   0  -5 2628.54   28.15
  -2   0  -5 2683.80   22.16
  -2   0  -5 2664.30   29.75
  -2   0  -3 7919.97   45.80
  -2   0  -1  583.89   11.15
  -2   0  -1  553.22    9.86
  -2   0   0    5.25    1.17
  -2   0   0    5.30    1.10
  -2   0   1  556.35   11.02
  -2   0   1  586.43    9.92
  -2   0   5 2648.88   29.11
  -2   0   6  888.69   17.37
  -2   0   7 9999.00   60.44
  -2   0   8  598.27   15.72
  -2   0   9 2444.71   33.17
  -2   0  10 3199.31   39.28
  -2   0  11  426.07   14.62
   2   0  12  107.15    6.11
  -2   0  12  108.74    7.77
  -2   0  13 5935.47   60.02
   2   0  13 6384.16   48.83
   2   0  14   63.94    5.10
  -2   0  14   66.35    6.33
  -2   0  15  893.86   24.08
   2   0  15  868.15   19.50
  -2   0  16   37.48    5.36
   2   0  16   50.23    4.77
  -2   0  17  367.43   16.97
   2   0  17  382.72   13.82
  -2   0  18   24.55    4.34
  -2   0  19  985.10   29.11
  -2   0  20   64.19    7.37
  -2   1 -30    0.98    1.98
  -2   1 -29   -1.12    3.15
  -2  -1 -28   11.86    3.94
  -2   1 -28    4.49    2.83
  -2  -1 -27    8.60    4.36
  -2   1 -27    4.10    3.30
  -2   1 -26   -0.04    3.06
   2   1 -26   -2.75    4.50
  -2  -1 -26   -0.03    3.31
  -2   1 -25   -2.82    2.92
  -2  -1 -25    2.69    3.81
   2   1 -25    1.79    1.83
  -2  -1 -24    1.05    1.96
  -2   1 -24    1.28    2.46
   2   1 -24    6.03    3.33
   2   1 -23    2.84    1.60
  -2   1 -23    6.81    3.02
  -2  -1 -23    6.12    3.80
  -2   1 -22   35.61    7.34
   2   1 -22   32.66    7.74
  -2  -1 -22   36.45    6.88
   2   1 -21   17.87    4.85
  -2   1 -21   18.24    4.82
  -2  -1 -21   16.79    5.20
   2   1 -20   56.08    8.00
  -2  -1 -20   49.38    7.49
  -2   1 -20   45.74    7.32
  -2   1 -19   10.34    3.84
   2   1 -19   13.16    3.91
  -2  -1 -19    6.83    4.15
   2   1 -18   58.05    7.95
  -2  -1 -18   67.86    8.49
  -2   1 -18   62.84    8.24
   2   1 -17    6.12    3.23
  -2  -1 -17    9.36    2.77
  -2   1 -17    7.01    2.25
   2   1 -16   70.01    8.25
  -2   1 -16   66.09    8.09
  -2  -1 -16   68.11    7.98
  -2  -1 -15   74.17    7.69
  -2   1 -15   85.06    8.79
   2   1 -15   85.05    8.71
   2   1 -14  208.45   13.49
  -2   1 -14  201.31   13.24
  -2  -1 -14  198.24   12.10
  -2  -1 -13   55.66    6.28
  -2   1 -13   56.63    6.64
   2   1 -13   67.30    7.38
  -2  -1 -12  726.44   21.28
  -2   1 -12  714.16   23.13
  -2  -1 -11   51.36    5.45
  -2   1 -11   44.76    5.81
  -2   1 -11   48.57    5.13
  -2  -1 -11   54.41    4.82
   2   1 -11   44.23    5.66
  -2  -1 -10   58.90    5.56
   2   1 -10   55.63    6.20
  -2   1 -10   50.97    5.89
  -2  -1 -10   59.79    5.04
  -2   1 -10   59.38    5.35
  -2  -1  -9  123.55    7.04
  -2  -1  -9  123.90    7.43
   2   1  -9  120.58    8.65
  -2   1  -9  122.66    8.59
  -2   1  -9  104.55    7.05
   2   1  -8  216.67   11.07
  -2   1  -8  236.57   10.13
  -2  -1  -8  219.66    9.42
   2   1  -7  127.90    7.96
  -2   1  -7  118.93    7.07
  -2  -1  -7  124.77    6.61
  -2   1  -7  122.26    7.93
  -2  -1  -7  130.74    6.64
  -2  -1  -6 1106.32   17.94
  -2   1  -6 1058.60   19.84
   2   1  -6 1098.00   22.04
  -2   1  -6 1033.17   21.94
  -2  -1  -6 1108.23   19.23
  -2   1  -5   32.08    3.71
  -2  -1  -5   33.20    3.28
  -2   1  -5   29.89    3.30
   2   1  -5   26.58    3.08
  -2  -1  -5   27.25    2.63
  -2  -1  -4  151.25    6.78
   2   1  -4  158.86    7.39
  -2   1  -4  152.38    6.97
  -2  -1  -4  150.82    5.42
  -2   1  -4  143.72    7.39
  -2   1  -3 1296.73   20.01
   2   1  -3 1309.02   19.70
  -2  -1  -3 1311.24   19.84
  -2   1  -3 1270.20   21.45
  -2  -1  -3 1326.89   14.70
  -2   1  -2  170.52    7.19
  -2  -1  -2  169.99    5.31
  -2   1  -2  170.26    7.37
  -2  -1  -2  170.77    6.85
  -2  -1  -2  170.48    4.91
  -2  -1  -1   35.33    2.59
  -2  -1  -1   40.27    3.21
  -2   1  -1   43.52    3.52
  -2   1  -1   38.39    3.34
  -2   1   0   -0.10    0.49
  -2  -1   0    0.83    0.95
  -2   1   0    0.50    0.74
  -2  -1   0    0.12    0.55
  -2   1   1   39.24    3.36
  -2  -1   1   37.64    3.19
  -2  -1   2  158.89    6.39
  -2  -1   2  170.87    7.02
  -2   1   2  172.25    6.94
  -2   1   3 1315.12   19.27
  -2  -1   3 1327.63   20.70
  -2  -1   3 1340.39   18.45
  -2  -1   4  150.86    6.15
  -2   1   4  148.91    6.58
  -2  -1   5   33.00    3.51
  -2  -1   5   30.83    2.85
  -2   1   5   30.72    3.12
  -2  -1   6 1111.54   17.11
  -2   1   6 1112.15   19.06
  -2  -1   6 1089.95   21.28
  -2  -1   7  120.93    5.75
  -2  -1   7  126.40    7.47
  -2   1   7  130.52    6.77
  -2  -1   8  218.35    7.83
  -2   1   8  216.53    9.03
  -2  -1   8  231.60   10.59
  -2  -1   9  129.04    8.21
  -2   1   9  132.81    7.22
  -2  -1  10   59.37    5.75
  -2  -1  10   57.29    4.23
  -2   1  10   59.81    5.14
  -2  -1  11   49.71    3.97
  -2   1  11   39.21    4.22
  -2  -1  11   45.40    5.15
  -2  -1  12  732.93   15.49
  -2  -1  12  722.43   21.31
  -2   1  12  749.42   19.35
  -2   1  13   66.87    5.88
  -2  -1  13   55.24    6.05
  -2  -1  13   67.17    4.72
  -2   1  14  198.09   10.54
  -2  -1  14  197.62   11.89
   2  -1  14  202.54   10.74
  -2  -1  14  200.78    8.31
  -2   1  15   55.24    5.72
   2  -1  15   66.34    6.54
   2   1  15   57.05    3.18
  -2  -1  15   72.01    5.09
  -2  -1  15   74.44    7.38
  -2   1  16   63.50    6.28
  -2  -1  16   70.33    7.50
   2  -1  16   67.73    6.62
  -2  -1  16   54.18    4.56
   2  -1  17    9.72    2.86
  -2   1  17    7.73    2.39
  -2  -1  17    9.25    2.85
   2  -1  18   57.88    6.48
  -2   1  18   57.71    6.52
  -2  -1  18   66.36    7.77
  -2  -1  19    5.48    2.05
  -2   1  19    4.52    2.33
  -2  -1  20   65.22    7.78
  -2  -1  21   20.91    4.92
  -2   2 -30    8.03    5.54
  -2   2 -29  155.38   16.04
   2   2 -29  137.60   15.94
   2   2 -28   36.60    8.21
  -2   2 -28   38.20    7.67
  -2   2 -27   22.78    6.46
   2   2 -27    6.13    4.79
  -2   2 -26   20.64    5.99
   2   2 -26   11.68    4.14
   2   2 -25  228.79   18.23
  -2   2 -25  222.28   18.08
   2   2 -24   16.49    4.84
  -2  -2 -24   19.03    6.07
  -2   2 -24    7.85    3.19
  -2  -2 -23  346.96   21.29
  -2   2 -23  343.34   21.33
   2   2 -23  369.66   22.25
  -2  -2 -22    8.80    3.79
   2   2 -22   11.88    4.77
  -2   2 -22    3.03    3.68
  -2   2 -21   21.98    5.14
   2   2 -21   12.79    4.59
  -2  -2 -21   12.82    4.29
   2   2 -20   17.71    4.73
  -2   2 -20   33.14    6.40
  -2  -2 -20   33.86    6.66
  -2   2 -19  418.49   21.80
  -2  -2 -19  385.94   19.98
   2   2 -19  401.55   21.90
  -2  -2 -18   70.04    8.48
  -2   2 -18   87.90    9.94
   2   2 -18   78.34    9.43
  -2  -2 -17  397.00   18.94
   2   2 -17  368.70   20.11
  -2   2 -17  371.76   20.09
  -2   2 -16    8.22    3.66
  -2  -2 -16   10.14    3.90
  -2  -2 -16   11.82    3.47
   2   2 -16    4.65    2.49
   2   2 -15   94.12   10.21
  -2   2 -15  104.85   10.19
  -2  -2 -15   74.30    6.73
  -2  -2 -15   73.42    7.69
  -2   2 -14    5.19    1.90
   2   2 -14   11.00    2.84
  -2  -2 -14    8.59    2.68
  -2  -2 -14    8.75    2.66
   2   2 -13 1251.30   32.66
  -2   2 -13 1320.96   31.41
  -2  -2 -13 1283.04   28.25
  -2  -2 -13 1242.79   25.70
  -2   2 -13 1276.10   33.12
   2   2 -12  299.78   15.51
  -2  -2 -12  287.09   12.66
  -2   2 -12  269.96   15.03
  -2  -2 -12  267.20   11.85
  -2   2 -12  279.37   14.24
  -2  -2 -11    4.99    1.71
   2   2 -11    3.08    2.22
  -2   2 -11    3.17    1.47
   2  -2 -11    3.51    0.69
  -2   2 -11    2.98    1.87
  -2  -2 -11    1.96    1.18
  -2   2 -10  185.45   11.66
   2  -2 -10  172.69    5.58
   2   2 -10  182.15   11.20
  -2  -2 -10  172.20    9.20
  -2  -2 -10  186.25    8.88
  -2   2 -10  189.49   11.16
  -2  -2  -9  920.94   18.83
   2  -2  -9  922.27   13.85
   2   2  -9  871.33   24.22
  -2   2  -9  915.85   25.46
  -2   2  -9  938.65   23.72
  -2  -2  -9  964.85   21.11
   2  -2  -8   68.78    4.05
  -2   2  -8   65.25    6.48
   2   2  -8   72.48    6.54
  -2   2  -8   67.62    6.36
  -2  -2  -8   74.43    4.72
  -2  -2  -8   76.60    5.92
  -2  -2  -7  734.87   17.93
  -2  -2  -7  766.68   13.94
   2  -2  -7  764.99   13.91
   2   2  -7  732.48   19.97
  -2   2  -7  752.31   20.69
  -2  -2  -6   63.06    5.22
   2  -2  -6   59.52    3.92
  -2   2  -6   66.96    6.06
  -2  -2  -6   75.00    3.79
  -2   2  -6   62.46    5.69
   2   2  -6   67.79    5.75
  -2  -2  -5  110.68    3.88
  -2  -2  -5  111.68    6.72
  -2  -2  -5  118.04    4.69
   2   2  -5  112.21    7.06
  -2   2  -5  103.76    7.35
   2  -2  -5  109.60    5.58
  -2   2  -5  108.60    7.51
  -2  -2  -4  252.24   10.21
  -2  -2  -4  285.34    7.91
  -2   2  -4  249.09   10.96
  -2   2  -4  272.29   11.56
   2  -2  -4  261.01    9.08
   2   2  -4  280.70   10.43
  -2   2  -3 3802.78   41.02
  -2   2  -3 3759.51   41.68
   2   2  -3 3619.93   35.02
  -2  -2  -3 3716.54   31.26
  -2  -2  -3 3602.65   38.44
  -2  -2  -2  434.77   13.49
  -2  -2  -2  422.45   11.20
   2   2  -2  469.94   11.42
  -2   2  -2  431.94   13.70
  -2   2  -2  435.40   13.52
  -2  -2  -1 1242.95   20.04
   2   2  -1 1249.83   16.80
  -2  -2  -1 1230.18   22.25
  -2   2  -1 1229.45   23.12
  -2  -2   0  244.34    9.36
  -2   2   0  226.46    9.04
  -2  -2   0  246.80    9.95
  -2   2   1 1237.17   22.62
  -2  -2   1 1233.58   21.71
  -2   2   1 1272.58   20.97
  -2   2   2  437.05   12.40
  -2   2   2  467.40   13.59
  -2  -2   2  449.77   13.82
  -2  -2   2  430.22   13.27
  -2  -2   3 3765.50   40.90
  -2  -2   3 3875.36   39.57
  -2   2   4  279.49   10.42
  -2  -2   4  257.88   10.45
  -2  -2   4  279.43   11.56
  -2   2   5  113.33    6.65
  -2  -2   5  109.40    6.71
  -2  -2   6   67.44    5.39
  -2   2   6   63.22    5.09
  -2  -2   6   70.65    6.23
  -2  -2   7  719.74   18.08
  -2  -2   7  751.28   20.90
  -2   2   7  784.08   18.10
  -2   2   8   79.03    5.68
  -2  -2   8   70.09    5.76
  -2  -2   9  883.39   20.80
  -2   2   9  909.95   19.75
  -2  -2  10  192.71    9.71
  -2   2  10  186.39    9.09
  -2  -2  10  197.12   11.38
  -2  -2  11    4.52    1.44
  -2   2  11    4.60    1.50
  -2  -2  11    6.05    2.31
  -2  -2  12  304.67   15.00
  -2  -2  12  289.06   12.19
  -2   2  12  300.34   12.08
  -2  -2  13 1224.35   26.09
  -2  -2  13 1252.00   31.19
  -2   2  13 1256.50   25.15
  -2  -2  14   11.53    3.13
  -2  -2  14    9.64    2.34
  -2   2  14   16.48    3.18
  -2  -2  15   85.76    7.00
  -2   2  15   90.66    6.92
  -2  -2  15   98.85    9.05
  -2  -2  16   10.88    3.14
   2  -2  16    9.23    3.04
  -2   2  16    5.60    2.44
  -2  -2  16   10.89    2.56
  -2   2  17  338.37   14.30
  -2  -2  17  385.09   15.31
  -2  -2  17  350.85   17.91
   2  -2  18   83.40    8.79
  -2  -2  18   78.98    8.83
  -2  -2  19  397.37   20.17
   2  -2  19  395.74   19.75
   2  -2  20   25.62    5.16
  -2  -2  20   25.59    6.17
   2  -2  21   21.71    5.01
  -2  -2  21   12.82    4.05
  -2  -2  22    4.95    3.97
  -2  -2  23  350.02   21.11
  -2   3 -29   22.96    5.99
   2   3 -29   34.66    7.66
   2   3 -28    1.99    3.50
  -2   3 -28   -1.35    2.24
  -2   3 -27    1.03    3.80
   2   3 -27    0.49    3.31
  -2   3 -26    0.78    2.33
   2   3 -26    0.37    2.11
   2   3 -25   45.62    8.54
  -2   3 -25   28.76    7.03
   2   3 -24    3.81    1.55
  -2   3 -24    3.70    2.60
  -2   3 -23    1.42    2.37
   2   3 -23   12.32    5.45
  -2   3 -22    3.71    2.71
   2   3 -22    4.86    3.02
  -2   3 -21   22.86    5.84
   2   3 -21   31.36    6.50
  -2   3 -20    6.54    3.68
   2   3 -20    8.84    3.25
   2   3 -19    0.71    2.24
  -2   3 -19    2.62    2.06
   2   3 -18   10.07    3.44
  -2   3 -18    7.27    3.02
  -2  -3 -18    4.22    2.19
  -2  -3 -17    2.01    1.16
   2   3 -17   -1.52    1.77
  -2   3 -17    2.20    3.08
  -2   3 -16   14.79    4.90
  -2  -3 -16   11.79    2.89
   2   3 -16   10.59    4.23
  -2   3 -15   19.16    4.99
  -2  -3 -15   11.12    3.24
  -2  -3 -15   14.25    3.27
   2   3 -15   12.12    3.98
  -2  -3 -14   21.88    3.71
  -2   3 -14   11.00    3.40
  -2   3 -14   19.04    4.41
   2   3 -14   24.40    5.15
  -2  -3 -14   19.08    3.44
  -2  -3 -13    2.86    1.79
  -2  -3 -13    6.27    2.00
  -2   3 -13    3.19    2.07
   2   3 -13    3.11    1.83
  -2   3 -13    5.35    2.31
  -2  -3 -12   60.23    5.91
  -2   3 -12   45.38    6.48
  -2   3 -12   41.69    6.28
   2   3 -12   48.00    6.35
  -2  -3 -12   53.50    5.21
   2  -3 -12   44.06    3.90
  -2  -3 -11   72.53    6.78
   2  -3 -11   68.35    4.97
   2   3 -11   67.35    7.63
  -2  -3 -11   67.24    5.34
  -2   3 -11   72.88    7.88
  -2   3 -11   75.93    8.02
  -2   3 -10   71.73    7.68
  -2  -3 -10   62.97    5.93
  -2   3 -10   70.21    7.74
  -2  -3 -10   84.96    5.48
   2   3 -10   73.55    7.63
   2  -3 -10   75.69    5.40
  -2   3  -9   84.44    8.18
  -2   3  -9   87.41    8.41
  -2  -3  -9   72.84    3.86
   2   3  -9   96.24    8.47
   2  -3  -9   83.68    5.94
  -2  -3  -9   76.12    6.70
  -2  -3  -8   13.51    3.14
  -2  -3  -8   15.05    1.96
  -2   3  -8   22.16    4.35
   2  -3  -8   19.20    3.02
  -2   3  -8   21.23    4.00
   2   3  -8   17.80    3.72
  -2   3  -7   51.90    6.00
  -2   3  -7   57.58    6.55
  -2  -3  -7   67.16    6.13
   2  -3  -7   62.88    5.30
   2   3  -7   70.54    6.52
  -2   3  -6    2.38    1.58
  -2  -3  -6    2.73    1.42
   2   3  -6    2.88    1.55
   2  -3  -6    0.73    1.20
  -2   3  -6    4.04    2.21
  -2  -3  -5  259.15   11.90
  -2   3  -5  255.39   12.37
   2   3  -5  308.34   12.40
   2  -3  -5  261.08   11.09
  -2   3  -5  299.38   13.97
   2   3  -4   28.89    3.55
  -2  -3  -4   34.11    4.46
  -2   3  -4   33.94    4.61
   2  -3  -4   32.16    4.04
  -2   3  -4   26.19    4.19
   2   3  -3   27.10    3.25
  -2  -3  -3   28.94    4.01
   2  -3  -3   18.80    2.93
  -2   3  -3   34.77    4.26
  -2   3  -3   33.88    4.59
   2  -3  -2   59.08    5.58
  -2   3  -2   57.24    5.85
  -2  -3  -2   67.49    6.20
   2   3  -2   61.67    4.59
  -2   3  -2   62.47    5.58
  -2   3  -1 2002.43   34.00
   2   3  -1 1998.73   23.33
  -2  -3  -1 1934.94   32.58
  -2   3   0  194.21    9.31
  -2  -3   0  207.00   10.63
  -2   3   0  199.20   10.59
   2   3   0  217.54    6.80
  -2  -3   1 1877.29   32.45
  -2   3   1 1854.20   31.68
   2   3   1 2001.11   17.34
  -2   3   1 2059.33   29.72
  -2  -3   2   50.32    5.23
  -2   3   2   65.49    5.89
  -2   3   2   63.24    5.13
  -2   3   3   37.00    4.51
  -2  -3   3   30.70    4.06
  -2   3   3   28.38    3.53
  -2   3   4   38.78    4.62
  -2  -3   4   36.62    4.58
  -2   3   4   30.99    3.67
  -2  -3   4   39.72    4.92
  -2  -3   5  255.75   12.91
  -2  -3   5  290.22   12.88
  -2  -3   6    1.27    0.98
  -2  -3   6    1.18    0.93
  -2   3   6    2.04    0.87
  -2   3   7   65.71    5.88
  -2  -3   7   64.11    6.28
  -2  -3   7   56.10    6.26
  -2   3   8   20.96    3.39
  -2  -3   8   12.83    3.38
  -2  -3   8   22.31    3.98
  -2  -3   9   86.77    8.17
  -2  -3   9   75.67    7.14
  -2   3   9   87.73    6.82
  -2  -3  10   66.74    6.91
  -2   3  10   72.90    6.18
  -2  -3  10   73.32    7.66
  -2   3  11   82.72    6.56
  -2  -3  11   78.86    7.31
  -2  -3  11   84.56    8.32
  -2   3  12   43.92    4.94
  -2  -3  12   43.76    5.45
  -2  -3  12   57.63    7.09
  -2  -3  13    4.22    1.69
  -2  -3  13    3.99    2.18
  -2   3  13    0.92    0.89
  -2  -3  14   18.34    3.61
  -2   3  14   20.47    3.40
  -2  -3  14   24.33    4.85
  -2  -3  15   14.56    2.98
  -2   3  15    9.61    2.63
  -2  -3  15   12.23    3.37
  -2  -3  16    5.42    3.00
  -2   3  16    6.35    2.11
  -2  -3  16    6.98    2.26
  -2  -3  17   -0.05    2.24
  -2  -3  17    1.59    1.84
   2  -3  18    5.35    2.43
  -2  -3  18   11.46    4.48
  -2  -3  19    4.99    3.45
   2  -3  19    5.18    3.53
   2  -3  19   -0.27    1.54
   2  -3  20   12.68    3.82
  -2  -3  20   11.96    4.51
   2  -3  20    7.47    2.63
   2  -3  21   22.89    5.14
  -2  -3  21   32.37    5.91
   2  -3  22   10.84    4.04
  -2  -3  22    4.58    3.79
  -2  -3  23    5.54    3.98
  -2  -3  24    3.40    3.15
  -2   4 -29  123.27   14.56
   2   4 -29  123.06   14.23
   2   4 -28    9.56    5.13
  -2   4 -28   17.84    5.66
   2   4 -27    9.99    4.84
  -2   4 -27    4.97    2.78
  -2   4 -26   10.48    6.05
   2   4 -26    3.32    1.96
  -2   4 -25  218.35   18.35
   2   4 -25  177.07   16.55
  -2   4 -24    2.40    2.31
   2   4 -24    0.27    2.10
   2   4 -23  100.04   12.60
  -2   4 -23  114.61   12.61
   2   4 -22    8.05    2.02
  -2   4 -22    3.47    3.40
   2   4 -21   -1.59    3.24
  -2   4 -21    2.30    1.54
  -2   4 -20   12.41    4.98
   2   4 -20    8.90    3.01
  -2   4 -19  421.53   22.92
   2   4 -19  365.62   21.78
   2   4 -18  112.00   11.92
  -2   4 -18  115.61   11.95
   2   4 -17  330.28   19.49
  -2   4 -17  193.07   15.08
   2   4 -16   18.02    4.32
  -2   4 -16    4.04    2.45
  -2  -4 -15   85.33    8.77
   2   4 -15  104.67   10.74
  -2   4 -15  107.22   10.86
  -2   4 -14  135.90   12.10
  -2   4 -14  150.64   12.86
  -2  -4 -14  128.93   10.12
   2   4 -14  137.72   11.80
   2   4 -13  866.02   29.39
  -2  -4 -13  795.95   24.93
  -2   4 -13  839.40   29.87
  -2   4 -13  795.89   28.30
  -2   4 -12  243.95   16.02
  -2  -4 -12  258.47   14.09
   2  -4 -12  234.99   11.62
  -2   4 -12  280.36   16.64
  -2   4 -11   59.17    7.50
   2   4 -11   74.39    8.21
  -2  -4 -11   67.04    7.01
   2  -4 -11   83.73    7.08
  -2   4 -11   89.13    9.20
  -2  -4 -10    9.72    2.62
  -2  -4 -10    6.81    1.91
  -2   4 -10   10.35    3.54
   2  -4 -10    7.43    2.44
  -2   4 -10   13.08    3.92
   2   4 -10   10.75    2.88
   2   4  -9  878.22   26.23
  -2   4  -9  847.00   26.94
   2  -4  -9  887.24   23.26
  -2  -4  -9  902.17   25.52
  -2   4  -9  897.53   28.80
  -2   4  -8   84.81    8.63
  -2   4  -8  113.72    9.53
  -2  -4  -8   94.66    8.19
   2   4  -8  108.62    9.27
   2  -4  -8   92.67    7.60
   2  -4  -7  237.40   12.20
  -2   4  -7  227.79   14.14
   2   4  -7  213.38   12.01
  -2   4  -7  239.76   13.54
  -2  -4  -7  227.49   12.79
  -2  -4  -6  130.29    9.64
  -2   4  -6  123.99   10.13
   2   4  -6  125.24    8.76
  -2   4  -6  146.42   10.08
   2  -4  -6  118.84    8.59
  -2   4  -5   78.96    8.06
  -2   4  -5   75.85    7.25
   2   4  -5   71.23    6.48
  -2  -4  -5   77.77    7.72
   2  -4  -5   65.71    6.63
  -2   4  -4  248.46   13.98
  -2   4  -4  215.28   12.20
  -2  -4  -4  246.96   13.18
   2   4  -4  272.98   11.89
   2  -4  -4  256.85   12.91
  -2   4  -3  665.95   20.33
   2   4  -3  641.46   17.32
   2  -4  -3  599.91   20.06
  -2   4  -3  607.37   22.03
  -2  -4  -3  610.74   20.72
   2  -4  -2   61.92    6.58
  -2   4  -2   62.85    6.00
   2   4  -2   43.10    4.28
  -2  -4  -2   56.09    6.23
  -2   4  -2   52.52    6.57
  -2   4  -1 3114.23   47.74
  -2  -4  -1 3007.80   46.46
   2  -4  -1 3053.26   45.24
  -2  -4   0  320.96   15.15
  -2   4   0  302.59   14.68
   2  -4   0  334.10   15.10
  -2   4   0  318.09   13.33
   2   4   0  354.88    9.88
  -2   4   1 3065.10   46.14
   2   4   1 3023.55   25.82
  -2  -4   1 3130.98   47.18
   2   4   2   49.80    2.66
  -2   4   2   46.61    5.80
  -2  -4   2   46.03    5.96
  -2   4   2   45.67    4.86
   2  -4   2   51.66    6.39
   2   4   2   50.36    5.53
  -2   4   3  632.94   20.42
  -2   4   3  645.58   18.24
  -2  -4   3  663.59   21.84
   2  -4   3  610.13   21.23
   2   4   3  654.95   19.48
   2  -4   4  247.52   13.85
   2   4   4  263.26   12.13
  -2   4   4  244.29   11.12
  -2  -4   4  278.17   14.07
  -2   4   5   78.14    6.13
  -2   4   5   71.33    6.61
  -2  -4   5   78.11    7.82
  -2  -4   6  135.09    9.98
  -2   4   6  130.35    8.15
  -2   4   6  130.71    9.22
  -2  -4   7  231.23   13.63
  -2   4   7  204.50   11.47
  -2  -4   7  223.37   13.86
  -2   4   8   95.62    8.02
  -2  -4   8  102.44    9.55
  -2  -4   8   87.01    8.29
  -2  -4   9  924.09   29.18
  -2  -4   9  888.51   27.01
  -2   4   9  878.23   23.71
  -2  -4  10   14.87    3.44
  -2  -4  10    6.96    3.02
  -2   4  10   16.38    3.50
  -2  -4  11   69.57    8.65
  -2  -4  11   92.04    8.95
  -2   4  11   83.46    7.33
  -2  -4  12  224.29   15.19
  -2   4  12  259.40   12.87
  -2  -4  12  273.66   15.47
  -2   4  13  872.55   23.76
   2  -4  13  808.56   27.55
  -2  -4  13  850.57   27.61
  -2  -4  13  853.38   29.64
  -2  -4  14  138.11   11.40
  -2  -4  14  148.69   12.81
  -2   4  14  141.77    9.83
  -2   4  15  116.94    9.04
  -2  -4  15  110.93   11.03
  -2  -4  15  131.95   11.06
   2  -4  15  109.81   10.20
  -2  -4  16   16.75    4.86
  -2  -4  16   10.14    2.93
   2  -4  16    8.03    3.23
   2  -4  17  329.52   18.67
  -2  -4  17  309.15   19.01
  -2  -4  17  304.99   17.73
  -2  -4  18  108.71   11.36
   2  -4  18  106.73   11.17
  -2  -4  18  136.57   11.82
   2  -4  19  408.11   21.94
   2  -4  19  401.52   22.25
  -2  -4  19  384.16   20.11
  -2  -4  19  398.28   22.20
   2  -4  20   14.13    4.40
   2  -4  20    9.32    3.66
  -2  -4  20   19.11    5.19
   2  -4  21    2.82    3.68
  -2  -4  21    2.33    2.86
   2  -4  21    1.75    2.56
  -2  -4  22    4.05    2.12
   2  -4  22    8.87    5.77
   2  -4  23  117.53   13.15
  -2  -4  23  123.22   13.26
  -2  -4  24    4.50    3.45
  -2  -4  25  186.45   18.01
  -2   5 -28    2.65    2.56
  -2   5 -27   14.89    4.80
   2   5 -27    8.86    4.68
   2   5 -26   -1.81    2.35
  -2   5 -26   -0.03    3.96
  -2   5 -25   20.96    5.21
   2   5 -25   20.05    5.79
  -2   5 -24    2.44    2.53
   2   5 -24    5.36    1.97
  -2   5 -23   11.81    4.47
   2   5 -23   12.85    5.43
  -2   5 -22   29.08    7.17
   2   5 -22   39.62    8.31
  -2   5 -21    5.58    2.41
   2   5 -21   -0.03    2.51
   2   5 -20    4.43    3.97
  -2   5 -20   -1.07    2.53
  -2   5 -19   31.98    6.59
   2   5 -19   32.55    6.44
  -2   5 -18    2.21    2.06
   2   5 -18    3.15    3.30
   2   5 -17    3.05    2.83
  -2   5 -17    5.16    3.19
  -2   5 -16   20.95    5.02
   2   5 -16   21.13    5.54
  -2   5 -15    6.98    3.20
  -2   5 -15    8.00    4.08
   2   5 -15   13.47    3.80
  -2   5 -14   13.80    3.43
   2   5 -14   10.97    3.19
  -2   5 -14   12.70    4.66
  -2  -5 -14   11.83    3.02
  -2   5 -13  190.62   14.50
  -2   5 -13  197.63   15.54
   2   5 -13  157.37   12.95
  -2  -5 -13  159.44   12.01
  -2   5 -12   85.51   10.32
  -2  -5 -12   72.56    8.07
   2  -5 -12   81.90    8.14
   2   5 -12   92.43   10.04
  -2   5 -12   84.85    9.36
  -2   5 -11    6.81    3.01
   2  -5 -11    7.72    1.71
   2   5 -11    4.21    2.69
  -2  -5 -11    3.65    2.19
  -2   5 -11    5.03    1.98
   2  -5 -10   39.70    5.68
  -2   5 -10   38.66    6.67
  -2   5 -10   34.43    6.30
   2   5 -10   39.31    5.73
  -2  -5 -10   46.61    6.46
  -2   5  -9   40.33    6.31
  -2  -5  -9   36.33    5.62
  -2   5  -9   37.59    6.09
   2  -5  -9   20.67    4.08
   2   5  -9   33.73    5.36
  -2  -5  -8    2.33    1.63
   2  -5  -8    4.09    2.67
  -2   5  -8    2.19    2.20
  -2   5  -8    3.20    2.34
   2   5  -8    2.02    2.34
  -2   5  -7   -0.28    2.74
  -2  -5  -7    1.86    1.87
   2  -5  -7   -0.39    1.83
   2   5  -7    0.79    0.88
  -2   5  -7    2.52    1.75
  -2  -5  -6   22.21    4.16
   2  -5  -6   21.35    4.31
  -2   5  -6   12.85    3.06
  -2   5  -6   14.73    4.20
   2   5  -6   19.01    4.33
  -2   5  -5   35.63    5.35
   2  -5  -5   43.25    6.07
  -2   5  -5   47.35    6.65
  -2  -5  -5   37.68    5.65
  -2   5  -4  177.53   12.82
  -2  -5  -4  178.60   12.21
   2  -5  -4  162.07   11.52
  -2   5  -4  162.67   10.91
   2  -5  -3  164.89   11.67
  -2   5  -3  196.74   13.51
  -2  -5  -3  184.73   12.61
  -2   5  -3  165.56   10.91
   2   5  -3  165.47    9.63
  -2  -5  -2   39.00    5.91
   2   5  -2   36.69    4.40
  -2   5  -2   39.36    5.28
  -2   5  -2   22.25    4.71
   2  -5  -2   28.48    5.17
   2  -5  -1  754.39   24.89
  -2   5  -1  787.52   22.60
  -2   5  -1  788.88   26.31
  -2  -5  -1  729.01   24.78
   2   5   0   74.51    7.68
   2   5   0   59.04    4.66
  -2   5   0   66.60    6.38
  -2   5   0   59.28    7.24
   2  -5   0   55.46    6.78
  -2  -5   0   72.51    8.12
  -2  -5   1  673.30   24.37
   2   5   1  774.61   24.79
  -2   5   1  723.24   24.97
   2  -5   1  729.26   25.29
  -2   5   1  844.40   22.74
   2   5   1  809.05   15.18
   2  -5   2   41.65    6.01
  -2   5   2   42.96    6.12
  -2   5   2   38.18    4.81
   2   5   2   34.28    2.70
  -2  -5   2   30.47    5.37
   2   5   2   38.68    5.33
  -2   5   3  175.44   12.00
   2   5   3  168.55   11.37
  -2   5   3  173.00   10.10
   2  -5   3  173.34   12.45
  -2  -5   3  176.29   12.46
  -2  -5   4  153.34   11.61
  -2   5   4  163.54    9.69
  -2   5   4  178.10   11.86
   2  -5   4  164.75   12.16
   2   5   4  165.45   11.07
  -2   5   5   36.33    4.56
   2  -5   5   38.23    5.94
  -2  -5   5   44.17    6.30
   2   5   5   37.37    5.07
  -2   5   5   39.54    5.52
  -2   5   6   23.15    3.56
   2  -5   6   22.38    3.92
   2   5   6   19.28    3.63
  -2   5   6   19.07    4.12
  -2  -5   6   15.78    4.17
  -2   5   7   -0.48    1.84
   2  -5   7    3.17    2.68
  -2   5   7    1.88    1.86
  -2  -5   7   -0.85    0.92
  -2  -5   8    1.12    1.96
  -2   5   8    0.27    1.66
  -2   5   8    3.81    1.44
  -2  -5   8    1.15    1.43
  -2   5   9   35.75    5.24
  -2  -5   9   40.03    6.17
   2  -5   9   39.50    6.96
  -2  -5   9   41.94    6.69
  -2   5   9   29.71    4.35
  -2  -5  10   40.10    6.60
  -2   5  10   39.59    5.72
  -2  -5  10   40.94    6.48
   2  -5  10   37.89    6.23
   2  -5  11    8.70    2.29
  -2  -5  11    1.91    1.18
  -2   5  11   10.09    2.80
  -2  -5  11    5.92    3.39
  -2  -5  12   78.96    9.39
  -2   5  12   98.44    8.75
   2  -5  12   91.88    9.49
  -2  -5  12  100.34   10.48
  -2  -5  13  161.99   13.16
  -2   5  13  206.69   12.52
   2  -5  13  180.80   14.00
  -2  -5  13  205.88   15.73
  -2   5  14   13.64    3.35
   2  -5  14   12.85    3.59
  -2  -5  14    8.65    3.96
  -2  -5  14   15.48    4.96
  -2  -5  15    2.85    2.82
  -2  -5  15   10.06    3.87
   2  -5  15    9.70    4.14
   2  -5  16   18.53    4.58
  -2  -5  16   15.00    4.63
  -2  -5  16   10.88    4.25
  -2  -5  17    5.29    2.99
  -2  -5  17   16.99    4.61
   2  -5  17   14.29    4.90
  -2  -5  18    2.84    2.51
   2  -5  18    3.77    3.05
  -2  -5  18    7.90    4.00
   2  -5  19   21.16    5.39
  -2  -5  19   37.42    7.07
  -2  -5  19   36.21    6.83
   2  -5  19   26.25    6.09
  -2  -5  20    6.37    3.77
   2  -5  20    0.38    3.19
   2  -5  20    2.73    2.19
   2  -5  21    1.96    3.62
   2  -5  21    6.42    4.42
  -2  -5  21   -1.79    2.98
  -2  -5  22   34.41    7.48
   2  -5  22   32.21    7.21
  -2  -5  23   12.03    4.01
   2  -5  23   10.24    3.83
   2  -5  24    9.71    5.26
  -2  -5  24    5.35    3.47
  -2  -5  25   32.32    8.41
  -2  -5  26    0.37    2.99
   2   6 -26   10.95    4.00
  -2   6 -26   -2.13    4.25
   2   6 -25   93.41   12.36
  -2   6 -25   72.78   10.96
  -2   6 -24   56.04    9.70
   2   6 -24   38.51    7.79
  -2   6 -23   36.58    7.70
   2   6 -23   25.99    6.48
  -2   6 -22   47.15    9.38
   2   6 -22   38.82    7.90
  -2   6 -21   23.03    5.44
   2   6 -21   24.09    4.93
  -2   6 -20   23.86    5.66
   2   6 -20   33.22    7.46
   2   6 -19  361.43   22.62
  -2   6 -19  333.17   21.82
   2   6 -18   11.65    4.27
  -2   6 -18    6.39    3.85
   2   6 -17  138.39   13.27
  -2   6 -17  140.30   13.97
   2   6 -16   15.77    3.84
  -2   6 -16   18.16    4.47
  -2   6 -15  247.40   18.57
  -2   6 -15  224.16   16.89
   2   6 -15  284.85   19.00
  -2  -6 -14   77.14    9.27
  -2   6 -14   88.65   10.60
   2   6 -14   61.81    8.50
  -2   6 -14   80.35   10.89
   2   6 -13  976.86   33.85
  -2   6 -13 1107.36   38.21
  -2   6 -13  993.01   34.51
  -2  -6 -13 1015.15   33.69
  -2  -6 -12   28.62    5.69
   2  -6 -12   27.96    5.82
  -2   6 -12   36.20    6.70
  -2   6 -12   38.08    7.16
   2   6 -12   32.99    5.66
   2  -6 -11  154.52   12.38
  -2   6 -11  114.37   12.44
   2   6 -11  122.55   11.67
  -2   6 -11  114.35   11.27
  -2  -6 -11  143.29   12.42
   2  -6 -10   83.12    8.89
  -2  -6 -10   65.72    8.34
   2   6 -10   64.91    8.06
  -2   6 -10   50.53    7.74
  -2   6 -10   65.00    9.01
  -2  -6  -9  763.49   27.97
   2  -6  -9  769.74   27.72
  -2   6  -9  851.33   29.99
  -2   6  -9  785.23   31.00
   2   6  -9  737.34   27.29
   2   6  -8  427.63   19.84
  -2   6  -8  403.84   22.06
   2  -6  -8  426.26   20.29
  -2   6  -8  410.51   20.31
  -2  -6  -8  446.07   21.42
  -2   6  -7  640.24   24.92
   2   6  -7  724.27   25.21
  -2   6  -7  692.51   28.21
  -2  -6  -7  709.35   27.20
   2  -6  -7  759.31   27.47
   2   6  -6   16.20    3.51
  -2  -6  -6   21.46    5.06
  -2   6  -6   16.21    4.33
   2  -6  -6   25.97    5.36
  -2   6  -6   15.42    4.85
   2   6  -5   64.27    6.99
   2  -6  -5   71.49    8.37
  -2   6  -5   70.20    8.07
  -2   6  -5   41.88    6.48
  -2  -6  -5   69.52    8.74
   2   6  -4  718.84   22.75
   2  -6  -4  778.32   27.73
  -2   6  -4  825.42   26.14
  -2   6  -4  796.11   29.54
  -2  -6  -4  785.69   28.21
   2   6  -3  589.18   19.36
   2  -6  -3  636.69   24.93
  -2   6  -3  596.13   21.89
  -2   6  -3  507.75   23.46
  -2  -6  -3  544.44   23.45
  -2  -6  -2  267.82   16.68
   2  -6  -2  250.01   15.58
  -2   6  -2  265.52   16.87
  -2   6  -2  231.25   13.67
   2   6  -2  252.09   12.45
   2  -6  -1  596.00   24.31
   2   6  -1  616.57   18.35
  -2   6  -1  677.53   22.38
  -2  -6  -1  700.26   26.76
  -2   6  -1  679.53   26.74
  -2   6   0   54.10    7.54
  -2  -6   0   65.83    8.23
   2  -6   0   50.94    6.86
   2   6   0   56.53    5.31
  -2   6   0   56.64    6.49
  -2   6   1  703.05   26.58
  -2  -6   1  645.09   25.65
  -2   6   1  715.28   22.26
   2  -6   1  673.51   26.14
   2   6   1  657.05   25.29
  -2   6   2  241.78   15.40
  -2   6   2  230.17   12.88
   2   6   2  271.64   15.87
  -2  -6   2  232.67   15.61
   2   6   2  248.28    8.20
   2  -6   2  286.22   16.93
  -2   6   3  502.54   18.14
   2   6   3  548.38   22.49
  -2  -6   3  516.75   23.28
   2  -6   3  576.26   24.04
  -2   6   3  563.12   23.70
  -2  -6   4  751.06   28.45
  -2   6   4  720.57   21.62
   2   6   4  745.08   25.95
   2  -6   4  777.35   28.24
   2   6   5   56.09    7.24
  -2   6   5   57.31    5.79
  -2  -6   5   64.70    8.41
  -2   6   5   56.43    7.51
   2  -6   5   68.50    8.37
  -2   6   6   11.00    3.20
   2  -6   6   15.34    4.74
  -2   6   6   20.52    4.22
  -2  -6   6   15.85    3.79
  -2  -6   7  733.34   28.19
  -2   6   7  719.60   26.50
  -2   6   7  631.73   20.41
   2  -6   7  698.65   27.11
  -2  -6   8  461.99   22.34
  -2  -6   8  404.46   21.45
  -2   6   8  404.35   19.67
   2  -6   8  412.14   21.64
  -2   6   8  382.29   15.70
  -2  -6   9  747.19   29.07
  -2  -6   9  769.58   29.84
  -2   6   9  705.02   26.90
   2  -6   9  813.87   30.12
  -2  -6  10   76.46    9.11
  -2  -6  10   48.62    7.65
  -2   6  10   76.95    8.87
   2  -6  10   82.01    9.62
   2  -6  11  136.01   12.90
  -2  -6  11  150.64   13.27
  -2   6  11  159.44   12.52
  -2  -6  11  167.34   14.38
  -2  -6  12   32.01    7.10
  -2  -6  12   28.92    6.20
   2  -6  12   23.66    6.23
  -2   6  12   21.49    4.88
  -2  -6  13 1019.86   36.07
   2  -6  13 1050.87   35.28
  -2  -6  13 1111.57   36.56
  -2  -6  14   81.01   10.70
  -2  -6  14   68.77    9.55
   2  -6  14   68.48    9.54
   2  -6  15  270.08   18.36
  -2  -6  15  259.59   17.99
  -2  -6  15  237.92   18.20
  -2  -6  16   21.09    6.34
   2  -6  16   14.19    4.03
  -2  -6  16   17.89    4.37
   2  -6  17  133.60   13.22
  -2  -6  17  135.06   14.03
  -2  -6  17  141.02   13.47
  -2  -6  18   17.77    5.68
  -2  -6  18   13.55    4.45
   2  -6  18   16.87    5.36
   2  -6  19  373.04   23.59
  -2  -6  19  311.69   20.95
  -2  -6  19  349.01   22.55
   2  -6  19  365.61   22.74
   2  -6  20   44.14    8.36
  -2  -6  20   21.24    6.87
  -2  -6  20   30.52    6.74
   2  -6  20   22.10    5.55
  -2  -6  21   23.58    6.72
   2  -6  21   21.69    6.49
   2  -6  21   32.06    7.68
   2  -6  22   42.57    8.97
   2  -6  22   43.34    8.47
  -2  -6  22   55.56    9.56
  -2  -6  23   44.03    8.11
   2  -6  23   33.55    8.07
  -2  -6  24   23.29    6.04
   2  -6  24   27.59    7.30
   2  -6  25   72.25   12.51
  -2  -6  25   78.53   12.04
  -2  -6  26   -4.71    4.88
  -2   7 -24    1.08    2.65
   2   7 -24    0.94    2.72
   2   7 -23   14.25    5.43
  -2   7 -23    7.23    5.15
   2   7 -22    2.38    2.93
  -2   7 -22   -0.54    4.18
  -2   7 -21    8.61    2.90
   2   7 -21    9.60    2.90
   2   7 -20   93.58   12.17
  -2   7 -20   84.10   11.35
   2   7 -19    7.20    2.52
  -2   7 -19   15.53    4.91
   2   7 -18   49.61    9.01
  -2   7 -18   38.27    7.51
   2   7 -17    8.38    3.41
  -2   7 -17    8.28    4.12
   2   7 -16   40.56    7.72
  -2   7 -16   30.61    6.37
   2   7 -15    4.12    3.75
  -2   7 -15    4.50    3.46
  -2   7 -14  132.20   12.58
  -2   7 -14  153.45   15.39
   2   7 -14  137.64   13.58
  -2  -7 -13   24.16    5.64
   2   7 -13   45.00    8.17
  -2   7 -13   36.15    7.66
  -2   7 -13   37.88    7.43
  -2  -7 -12  110.41   11.63
  -2   7 -12  139.08   12.98
   2   7 -12  127.13   12.42
  -2   7 -12  114.97   12.77
   2  -7 -11   92.43   10.57
  -2  -7 -11  126.98   12.70
  -2   7 -11  110.31   11.67
   2   7 -11   89.87   10.57
  -2   7 -11  105.86   12.36
  -2   7 -10  105.81   11.49
   2  -7 -10  111.60   11.63
   2   7 -10   90.94   10.15
  -2  -7 -10  103.07   11.35
  -2   7 -10   85.36   10.82
  -2   7  -9  119.27   12.91
   2  -7  -9  112.50   11.66
   2   7  -9  107.73   10.74
  -2  -7  -9  114.78   11.74
  -2   7  -9  108.85   11.25
  -2   7  -8  237.91   16.14
   2  -7  -8  229.88   16.40
   2   7  -8  298.85   17.75
  -2  -7  -8  275.70   18.12
  -2   7  -8  254.05   18.30
  -2  -7  -7    4.53    2.90
   2  -7  -7   -1.33    1.89
  -2   7  -7   -1.16    2.00
   2   7  -7   -0.37    2.03
  -2   7  -7    1.20    1.59
   2  -7  -6  236.04   16.34
  -2   7  -6  248.62   15.98
  -2   7  -6  250.41   18.42
   2   7  -6  243.52   15.02
  -2  -7  -6  227.75   16.09
  -2  -7  -5  196.62   15.15
   2   7  -5  199.78   13.30
   2  -7  -5  225.10   16.23
  -2   7  -5  198.07   14.29
  -2   7  -5  253.57   17.62
   2  -7  -4    7.13    2.93
  -2  -7  -4   12.73    3.78
   2   7  -4    8.65    3.08
  -2   7  -4   14.66    5.37
  -2   7  -4   13.20    3.97
  -2   7  -3  444.46   20.33
  -2  -7  -3  482.10   23.38
   2  -7  -3  449.00   22.74
   2   7  -3  423.12   18.09
  -2   7  -3  451.64   23.39
  -2  -7  -2   59.96    8.46
   2  -7  -2   71.73    9.00
   2   7  -2   54.03    6.13
  -2   7  -2   62.85    8.83
  -2   7  -2   62.68    7.58
   2  -7  -1   39.33    6.84
  -2   7  -1   38.19    6.95
  -2  -7  -1   50.32    7.70
  -2   7  -1   42.83    6.26
   2   7  -1   30.10    4.46
   2  -7   0    5.46    3.13
  -2  -7   0    6.20    2.20
  -2   7   0    2.62    2.30
  -2   7   0    2.13    2.66
  -2   7   1   44.30    6.11
  -2  -7   1   37.94    7.06
   2  -7   1   37.65    6.31
  -2   7   1   35.77    6.87
  -2   7   2   76.80    7.42
  -2  -7   2   56.02    8.61
  -2   7   2   73.04    8.93
   2  -7   2   51.53    8.22
   2  -7   3  464.62   23.09
  -2  -7   3  511.20   24.48
  -2   7   3  488.14   19.21
   2  -7   4   15.66    4.71
  -2   7   4    8.82    4.74
  -2  -7   4    2.16    2.84
  -2  -7   5  208.87   16.09
   2  -7   5  220.85   16.42
  -2   7   5  218.16   15.71
  -2  -7   6  220.97   16.49
  -2   7   6  229.82   16.17
   2  -7   6  244.16   16.87
   2  -7   7   -0.83    2.36
  -2   7   7   -0.12    1.84
  -2  -7   7    0.94    2.65
   2  -7   8  247.89   17.77
  -2  -7   8  275.52   18.07
  -2   7   8  276.75   18.13
  -2  -7   8  233.24   17.26
  -2  -7   9   95.30   10.78
   2  -7   9  104.54   11.82
  -2   7   9  121.74   11.40
  -2  -7   9   87.64   10.34
  -2   7  10  109.75   11.09
   2  -7  10   95.10   11.66
  -2  -7  10  100.00   11.08
  -2  -7  10   91.22   10.45
  -2   7  11   97.37   10.46
  -2  -7  11   92.46   11.22
   2  -7  11   90.65   11.30
  -2  -7  11  100.15   11.69
  -2  -7  12  102.06   11.65
  -2  -7  12  109.85   12.02
   2  -7  12   85.18   10.98
  -2  -7  13   24.68    6.14
   2  -7  13   17.66    5.78
  -2  -7  14  137.07   13.88
  -2  -7  14  124.55   12.82
   2  -7  14  112.57   12.35
  -2  -7  15   -2.34    2.42
  -2  -7  15   -4.12    3.35
   2  -7  15    1.03    1.80
   2  -7  16   25.57    5.63
  -2  -7  16   27.75    6.28
  -2  -7  16   35.51    7.17
   2  -7  17    6.77    3.07
  -2  -7  17   12.08    3.95
  -2  -7  17    7.73    3.85
   2  -7  18   33.58    7.12
  -2  -7  18   42.70    7.94
  -2  -7  18   40.31    8.37
   2  -7  19   12.34    4.32
   2  -7  19    4.13    3.95
  -2  -7  19    8.26    4.12
  -2  -7  19   10.66    5.09
   2  -7  20  120.47   14.02
   2  -7  20  125.37   13.46
  -2  -7  20   99.06   12.31
  -2  -7  20   89.85   12.47
   2  -7  21   10.06    4.66
   2  -7  21   11.09    4.26
  -2  -7  21    4.17    3.71
  -2  -7  22    0.25    2.93
   2  -7  22   -4.23    3.95
   2  -7  22    4.70    6.18
   2  -7  23    1.91    3.11
  -2  -7  23    5.75    3.86
   2  -7  24    5.35    4.92
  -2  -7  24   -2.32    3.68
  -2   8 -22   27.88    7.57
   2   8 -22   25.02    7.26
  -2   8 -21    6.32    4.55
   2   8 -21    7.39    3.77
  -2   8 -20   10.52    4.01
   2   8 -20   20.41    6.12
   2   8 -19   44.41    8.68
  -2   8 -19   63.15   10.05
   2   8 -18    1.23    2.49
  -2   8 -18    3.75    2.00
   2   8 -17   56.82    9.58
  -2   8 -17   57.52    9.79
  -2   8 -16   55.72    8.53
   2   8 -16   44.36    8.20
   2   8 -15    5.47    3.35
  -2   8 -15    7.20    4.83
  -2   8 -14   13.69    3.79
   2   8 -14    8.46    4.25
  -2  -8 -13   47.94    9.22
  -2   8 -13   54.52    9.58
   2   8 -13   44.78    8.09
  -2   8 -13   41.48    7.71
   2   8 -12    9.07    4.26
  -2  -8 -12    3.28    1.95
  -2   8 -12    4.61    2.42
  -2   8 -12    7.02    3.65
  -2   8 -11    7.16    4.29
  -2  -8 -11    7.08    3.68
  -2   8 -11   11.54    4.75
   2  -8 -11   13.13    5.52
   2   8 -11   10.86    4.36
  -2   8 -10   21.80    4.56
   2  -8 -10   21.04    5.78
   2   8 -10   20.47    6.55
  -2   8 -10   18.99    5.67
  -2  -8 -10   16.15    4.83
  -2  -8  -9   72.25    9.74
  -2   8  -9   74.48   10.15
   2  -8  -9   72.15   10.45
   2   8  -9   82.44    9.75
  -2   8  -9   80.21   10.10
   2  -8  -8    5.93    3.50
   2   8  -8   12.23    4.10
  -2   8  -8   16.11    5.10
  -2   8  -8   11.38    4.63
  -2  -8  -8   13.75    5.02
   2   8  -7  129.46   11.80
  -2  -8  -7   96.82   11.38
  -2   8  -7  111.91   12.94
  -2   8  -7  105.00   11.18
   2  -8  -7  123.92   13.09
  -2   8  -6   26.48    6.48
  -2  -8  -6   25.20    5.77
   2   8  -6   32.89    6.32
   2  -8  -6   22.78    6.14
  -2   8  -6   32.11    6.56
  -2   8  -5   47.63    7.79
   2  -8  -5   45.18    8.05
  -2  -8  -5   35.81    7.48
  -2   8  -5   37.17    6.53
  -2   8  -4  102.98   10.77
  -2  -8  -4  113.38   12.51
  -2   8  -4  123.41   12.93
   2  -8  -4  114.22   12.43
  -2   8  -3  398.12   20.49
   2  -8  -3  379.91   22.49
  -2   8  -3  360.16   22.16
  -2  -8  -3  385.25   22.52
  -2  -8  -2    2.41    2.08
  -2   8  -2   15.45    4.38
  -2   8  -2   10.91    3.93
   2  -8  -2   15.31    4.64
   2  -8  -1    9.03    3.72
  -2  -8  -1   13.20    4.12
  -2   8  -1   10.22    3.77
  -2   8   0   25.28    6.31
  -2  -8   0   26.87    6.40
   2  -8   0   18.35    5.34
  -2   8   1   23.61    5.99
  -2  -8   1   11.16    4.04
   2  -8   1   13.63    4.74
  -2  -8   2    4.98    3.52
  -2   8   2   13.69    4.48
   2  -8   2   21.49    5.54
  -2   8   3  380.09   22.46
   2  -8   3  396.37   22.72
  -2  -8   3  394.15   22.77
  -2   8   4   89.49   10.76
   2  -8   4  130.51   13.48
  -2  -8   4  129.31   12.84
  -2  -8   5   51.83    8.60
  -2   8   5   45.48    7.95
   2  -8   5   37.50    7.19
  -2   8   6   21.88    5.72
   2  -8   6   22.82    5.09
  -2  -8   7  115.61   12.80
   2  -8   7  113.08   12.61
  -2  -8   7  104.98   12.36
  -2   8   7  111.49   12.25
  -2   8   8   18.22    4.79
  -2  -8   8   12.66    4.76
  -2  -8   8   13.59    4.81
   2  -8   8   11.02    3.94
  -2   8   9   81.42   10.44
   2  -8   9   84.74   11.48
  -2  -8   9   71.77    9.88
  -2  -8   9   87.38   11.45
   2  -8  10   18.58    5.61
  -2  -8  10   18.90    5.23
  -2  -8  10   16.55    5.18
  -2   8  10   16.57    5.21
   2  -8  11    8.81    3.93
  -2  -8  11    5.91    4.10
  -2  -8  11    4.71    2.06
  -2  -8  12    4.35    1.92
  -2  -8  12    1.51    2.26
   2  -8  13   40.39    8.32
  -2  -8  13   60.60    9.24
  -2  -8  13   49.41    8.76
   2  -8  14   21.64    6.18
  -2  -8  14   11.65    5.28
  -2  -8  14   18.61    6.88
   2  -8  15    7.25    3.91
  -2  -8  15    4.67    2.16
  -2  -8  15    1.18    1.77
  -2  -8  16   40.43    7.69
  -2  -8  16   60.26   10.46
   2  -8  16   35.89    8.33
   2  -8  17   45.64    8.64
  -2  -8  17   48.05    8.66
  -2  -8  17   54.02    9.76
   2  -8  18   -0.26    2.63
  -2  -8  18    1.06    3.65
  -2  -8  18    7.98    4.63
  -2  -8  19   51.01    9.76
   2  -8  19   36.12    9.85
  -2  -8  19   43.01    8.61
   2  -8  19   40.84    7.91
  -2  -8  20   15.79    5.75
   2  -8  20    3.84    3.42
   2  -8  20    3.70    4.45
  -2  -8  20   15.29    5.60
  -2  -8  21   10.25    4.02
   2  -8  21    9.11    5.34
   2  -8  21    4.11    5.19
  -2  -8  22   34.57    8.16
   2  -8  22   27.89    7.98
   2  -8  22   12.46    4.12
  -2   9 -19    3.99    4.09
   2   9 -19    3.21    3.60
   2   9 -18    7.94    4.80
  -2   9 -18   19.49    6.02
   2   9 -17   -0.33    3.46
  -2   9 -17    1.32    2.23
   2   9 -16    0.63    4.54
  -2   9 -16   11.63    4.61
   2   9 -15    0.98    2.45
  -2   9 -15    4.78    3.53
  -2   9 -14   15.13    5.26
   2   9 -14   17.42    5.19
  -2   9 -13    6.65    4.60
   2   9 -13    5.96    3.96
   2   9 -12    2.98    2.40
  -2  -9 -12    4.14    2.83
  -2   9 -12    1.55    2.41
  -2   9 -12    0.89    3.44
  -2  -9 -11    3.17    3.88
  -2   9 -11    4.96    3.65
  -2   9 -11   11.06    5.01
   2  -9 -10   23.50    6.42
  -2   9 -10   17.19    4.77
  -2   9 -10   25.35    6.15
  -2  -9 -10   17.90    5.19
   2  -9  -9    2.28    3.22
  -2  -9  -9    1.73    1.86
  -2   9  -9    0.01    1.93
  -2   9  -9    3.60    3.56
  -2   9  -8    5.06    4.07
  -2  -9  -8    2.93    2.21
   2  -9  -8    5.82    4.73
  -2   9  -8    8.46    4.33
   2  -9  -7    2.66    2.00
  -2  -9  -7    0.46    1.82
  -2   9  -7   -3.84    2.33
  -2   9  -7    2.98    1.78
  -2   9  -6   25.59    6.38
  -2  -9  -6   42.24    7.62
   2  -9  -6   22.45    6.47
  -2  -9  -5   20.13    5.52
  -2   9  -5   36.30    7.81
   2  -9  -5   22.00    6.13
  -2  -9  -4    5.58    2.94
  -2   9  -4   17.17    6.48
   2  -9  -4   20.47    6.45
  -2   9  -3   57.00    9.46
  -2  -9  -3   70.75   10.42
   2  -9  -3   50.57    8.27
  -2  -9  -2   19.72    6.15
  -2   9  -2   14.65    4.41
   2  -9  -2    8.60    2.84
  -2   9  -1   11.69    4.64
  -2  -9  -1   16.88    4.89
   2  -9  -1   12.64    4.78
   2  -9   0   10.64    4.91
  -2   9   0   18.43    5.03
  -2  -9   0    7.66    2.66
   2  -9   1   15.78    4.74
  -2  -9   1   10.28    5.08
  -2   9   1   14.34    4.17
  -2   9   2   15.94    5.41
   2  -9   2   19.82    5.72
  -2  -9   2    8.34    4.21
   2  -9   3   43.52    8.62
  -2   9   3   63.74    9.76
  -2  -9   3   52.00    8.72
  -2  -9   4   16.80    5.48
  -2   9   4   28.40    6.54
   2  -9   4   17.19    5.44
  -2  -9   5   36.83    7.61
  -2  -9   5   35.37    6.84
   2  -9   5   51.73    9.14
  -2   9   5   30.02    6.51
   2  -9   6   33.20    7.08
  -2   9   6   23.01    6.28
  -2  -9   6   33.86    7.39
  -2  -9   6   29.73    7.07
  -2  -9   7   -1.59    1.61
  -2  -9   7    5.79    3.46
  -2   9   7   10.01    5.52
   2  -9   7    0.32    2.94
  -2  -9   8    4.02    3.16
  -2  -9   8   -3.29    3.18
   2  -9   8    1.27    2.05
  -2   9   8    4.60    3.65
  -2   9   9    0.88    2.50
  -2  -9   9    3.23    2.64
   2  -9   9    5.28    5.40
  -2  -9   9    2.23    3.25
   2  -9  10   20.57    6.61
  -2  -9  10   31.74    6.69
  -2  -9  10   25.20    6.56
   2  -9  11    7.66    4.51
  -2  -9  11    7.38    3.52
  -2  -9  11    7.54    3.60
  -2  -9  12    0.62    2.14
  -2  -9  12    1.94    2.45
  -2  -9  13    3.23    3.79
  -2  -9  13    8.38    4.17
   2  -9  13    1.89    3.27
   2  -9  14   16.60    5.05
  -2  -9  14   24.50    6.20
  -2  -9  15    1.59    2.68
  -2  -9  15    3.91    3.62
   2  -9  15   -0.95    2.21
  -2  -9  16    3.74    3.40
   2  -9  16    4.14    3.94
  -2  -9  17    0.97    3.80
  -2  -9  17    0.52    2.79
   2  -9  17   -1.32    4.01
  -2  -9  18   12.38    4.54
  -2  -9  18    3.46    4.16
   2  -9  18   13.88    4.44
  -2  -9  19   -4.79    4.85
  -2  -9  19    3.49    5.01
   2  -9  19    0.54    3.15
   2  -9  19    0.03    4.41
  -2  10 -15   17.33    6.29
  -2 -10 -11   23.10    6.12
  -2 -10 -10    7.18    3.99
  -2  10 -10    6.57    4.97
  -2 -10  -9   35.96    7.25
  -2  10  -9   32.37    7.78
   2 -10  -9   20.09    5.89
  -2 -10  -8   25.69    6.93
   2 -10  -8    4.39    2.25
  -2  10  -8   22.45    5.68
  -2 -10  -7  167.26   16.51
  -2  10  -7  182.52   17.39
   2 -10  -7  188.93   17.51
  -2  10  -6   35.97    8.57
  -2 -10  -6   26.22    6.26
   2 -10  -6   22.25    5.94
  -2  10  -5    4.60    3.93
  -2 -10  -5    3.29    2.87
   2 -10  -5    8.24    4.49
  -2 -10  -4   20.84    6.06
   2 -10  -4   28.87    6.99
  -2  10  -4   33.93    7.93
  -2 -10  -4   36.50    8.66
  -2 -10  -3   76.08   11.25
   2 -10  -3   80.59   11.60
  -2  10  -3  109.64   13.78
  -2 -10  -3   90.14   11.69
  -2 -10  -2   20.10    6.12
  -2  10  -2   33.31    7.72
  -2 -10  -2   35.27    7.88
   2 -10  -2   27.70    8.00
  -2 -10  -1    0.24    2.26
   2 -10  -1    0.07    2.88
  -2 -10  -1    4.29    3.01
  -2  10  -1    3.28    3.54
  -2 -10   0   19.69    6.20
   2 -10   0   13.30    4.67
  -2 -10   0   18.23    5.17
  -2 -10   1    6.81    4.13
  -2 -10   1    0.73    2.55
  -2  10   1    3.16    3.17
   2 -10   1    3.79    3.45
  -2 -10   2   37.69    7.70
   2 -10   2   39.66    8.82
  -2 -10   2   26.96    6.74
  -2  10   2   36.35    8.05
  -2  10   3   96.65   13.13
  -2 -10   3   92.02   12.50
   2 -10   3  105.99   13.49
  -2 -10   3   97.66   12.34
  -2  10   4   31.89    7.68
  -2 -10   4   19.46    5.75
   2 -10   4   35.42    7.83
  -2 -10   4   20.07    6.26
   2 -10   5    6.40    3.00
  -2 -10   5    5.20    3.09
  -2  10   5    9.49    3.68
  -2 -10   5   11.18    4.86
   2 -10   6   31.20    7.22
  -2 -10   6   17.55    6.15
  -2  10   6   33.98    8.51
  -2 -10   6   30.46    6.98
   2 -10   7  198.19   17.67
  -2  10   7  175.83   17.58
  -2 -10   7  176.45   17.31
  -2 -10   7  165.39   15.48
  -2 -10   8    7.99    4.97
  -2 -10   8   25.21    6.84
   2 -10   8   10.14    5.70
   2 -10   9   30.56    7.68
  -2 -10   9   49.23    8.86
  -2 -10   9   43.13    8.24
  -2 -10  10    0.37    2.52
   2 -10  10    6.28    2.34
  -2 -10  10    2.50    2.20
  -2 -10  11   47.36    9.07
  -2 -10  11   53.87    9.62
   2 -10  11   30.08    7.24
   2 -10  12    8.88    4.92
  -2 -10  12    4.18    4.12
  -2 -10  12    8.64    4.44
  -2 -10  13   66.99   10.56
  -2 -10  13   45.26    8.73
   2 -10  13   79.84   11.79
  -2 -10  14   22.33    6.51
  -2 -10  14   24.28    6.95
  -2 -10  15   25.17    5.85
   2 -10  15   15.47    6.12
  -2 -10  15   19.29    6.82
  -2 -11 -10    5.56    3.74
  -2 -11  -9   -1.57    3.58
  -2 -11  -8   -2.14    2.75
   2 -11  -8    3.49    5.12
   2 -11  -7    3.61    3.23
  -2  11  -7   -0.22    3.27
  -2 -11  -7    5.59    4.69
  -2  11  -6   -1.29    4.26
  -2 -11  -6   14.73    6.13
   2 -11  -6    5.05    5.00
  -2  11  -5    0.33    3.19
   2 -11  -5   -5.03    4.49
  -2 -11  -5    3.11    3.91
  -2 -11  -4   -0.09    2.62
  -2  11  -4    6.87    2.66
   2 -11  -4   -0.25    4.78
  -2 -11  -3    8.86    4.57
  -2  11  -3    5.53    2.77
   2 -11  -3   16.08    6.21
   2 -11  -2    1.82    2.62
  -2 -11  -2    2.39    3.02
  -2  11  -2    2.42    2.46
  -2 -11  -2    0.76    2.27
  -2 -11  -1    7.36    2.63
  -2 -11  -1    7.97    3.60
   2 -11  -1   13.42    6.48
  -2  11  -1    9.83    5.23
  -2 -11   0   -0.32    2.75
  -2 -11   0    1.92    2.37
   2 -11   0   -4.25    5.10
  -2  11   0    2.42    4.26
  -2  11   1    6.89    5.18
   2 -11   1   19.01    6.90
  -2 -11   1    8.10    3.72
  -2 -11   1    8.40    3.29
  -2 -11   2   11.10    5.16
  -2  11   2   -1.33    4.64
   2 -11   2    5.71    3.05
  -2 -11   2    6.91    4.49
   2 -11   3   14.30    6.31
  -2  11   3    2.75    3.79
  -2 -11   3    3.77    3.76
  -2 -11   3    4.11    4.26
  -2 -11   4   -1.27    3.00
  -2 -11   4    3.79    3.65
   2 -11   4    9.34    5.05
  -2  11   4    6.97    4.96
  -2 -11   5    2.00    3.20
  -2 -11   5    4.35    2.15
   2 -11   5    0.38    2.95
  -2 -11   6   11.30    4.35
   2 -11   6   13.93    5.50
  -2 -11   6    5.64    5.15
   2 -11   7    1.13    1.96
  -2 -11   7    3.40    2.56
  -2 -11   7    3.88    4.16
   2 -11   8    1.81    3.49
  -2 -11   8    0.02    3.54
  -2 -11   8   -1.31    1.93
  -2 -11   9   10.15    4.46
  -2 -11   9    7.87    5.03
   2 -11   9   10.75    6.23
  -2 -11  10    1.72    2.35
   2 -11  10    2.32    3.73
  -2 -11  10   -3.09    2.33
  -3   0 -30   -0.85    4.92
  -3   0 -29   -4.48    4.52
  -3   0 -28    2.37    2.97
  -3   0 -27    0.36    3.59
  -3   0 -26   -4.82    4.45
  -3   0 -25   -0.12    2.47
  -3   0 -24   -4.55    3.59
  -3   0 -23    1.44    2.68
  -3   0 -22   -2.77    2.87
  -3   0 -21    1.77    2.53
  -3   0 -20    0.91    1.37
  -3   0 -19   -0.91    1.33
  -3   0 -18   -0.31    2.07
  -3   0 -17    0.13    2.09
  -3   0 -16   -0.02    1.25
  -3   0 -15   -2.19    2.11
  -3   0 -14   -1.39    1.66
  -3   0 -13   -1.78    1.59
  -3   0 -12    0.76    1.01
  -3   0 -12   -0.76    1.04
  -3   0 -11   -0.76    0.73
  -3   0 -11    0.21    0.58
  -3   0 -10    0.16    0.58
  -3   0 -10    0.47    1.25
  -3   0  -9    0.13    0.53
  -3   0  -9    0.58    1.38
  -3   0  -8    0.55    0.45
  -3   0  -8   -0.09    1.04
  -3   0  -7    0.46    0.60
  -3   0  -7    0.29    1.52
  -3   0  -6   -0.51    1.04
  -3   0  -6    0.79    1.33
  -3   0  -6   -0.15    0.45
  -3   0  -5    0.78    0.51
  -3   0  -5   -0.06    0.83
  -3   0  -5   -0.27    0.46
  -3   0  -4    0.48    0.67
  -3   0  -4   -0.83    0.67
  -3   0  -4    0.10    0.82
  -3   0  -3    1.05    0.86
  -3   0  -3    0.73    0.61
  -3   0  -3    0.22    0.50
  -3   0  -2    1.27    0.41
  -3   0  -2   -0.07    0.67
  -3   0  -2    0.23    0.43
  -3   0  -1   -0.78    0.96
  -3   0  -1    0.26    1.07
  -3   0  -1   -0.02    0.63
  -3   0   0    0.16    0.68
  -3   0   0   -0.54    0.73
  -3   0   1   -0.11    0.62
  -3   0   1    0.16    0.42
  -3   0   2   -0.75    0.50
  -3   0   2    0.13    0.37
  -3   0   3   -0.38    0.50
  -3   0   3   -0.41    0.86
  -3   0   4   -0.07    0.55
  -3   0   4    0.48    0.99
  -3   0   5    0.41    0.40
  -3   0   5   -0.25    0.91
  -3   0   6    0.50    1.03
  -3   0   6   -0.35    0.45
  -3   0   7   -0.16    0.44
  -3   0   7    1.09    0.98
  -3   0   8    0.37    0.89
  -3   0   8    0.29    0.51
  -3   0   9    0.21    0.22
  -3   0   9   -0.61    1.26
  -3   0  10   -0.18    0.96
  -3   0  11    0.72    1.02
  -3   0  12   -0.72    1.62
  -3   0  13   -0.91    0.95
  -3   0  14    0.40    1.68
   3   0  14   -0.44    0.85
  -3   0  15   -0.93    1.89
   3   0  15    0.96    0.71
   3   0  16    0.47    0.78
  -3   0  16    1.07    1.30
  -3   0  17    1.12    1.07
   3   0  17   -0.13    1.28
  -3   0  18   -0.48    1.15
  -3   0  19   -0.51    1.83
  -3   0  20    0.35    1.38
  -3   0  21   -0.65    2.15
  -3   1 -30   10.68    4.05
  -3   1 -29   73.72   11.13
  -3   1 -28   50.09   10.05
  -3  -1 -28    1.98    2.11
  -3   1 -27   48.48    8.55
  -3  -1 -27   42.21    8.63
  -3  -1 -26   15.01    5.00
  -3   1 -26   30.34    6.91
  -3   1 -25   91.39   11.91
  -3  -1 -25   69.52   10.31
  -3   1 -24   22.77    5.84
  -3  -1 -24   57.87    8.85
  -3  -1 -23  216.81   16.80
  -3   1 -23  222.66   17.31
  -3   1 -22   58.85    8.64
  -3  -1 -22   87.55   10.44
   3   1 -22   78.39   10.43
  -3  -1 -21    7.40    3.66
  -3   1 -21    8.45    2.33
   3   1 -21    5.66    3.08
  -3   1 -20  101.78   10.83
   3   1 -20  105.99   11.51
  -3  -1 -20   96.81   10.37
  -3  -1 -19  204.06   14.93
  -3   1 -19  200.35   14.99
   3   1 -19  219.97   16.13
  -3   1 -18   17.40    5.16
  -3  -1 -18   22.15    5.11
  -3  -1 -17  223.91   14.45
   3   1 -17  238.66   16.15
  -3   1 -17  218.53   15.23
  -3  -1 -16   76.94    8.06
  -3   1 -16   76.37    8.75
   3   1 -16   85.31    9.13
  -3   1 -15   49.71    6.89
  -3  -1 -15   53.18    6.28
   3   1 -15   46.53    6.49
  -3   1 -14  133.25    9.16
  -3   1 -14  157.26   11.84
   3   1 -14  129.21   10.90
  -3  -1 -14  142.15   10.28
  -3   1 -13  589.88   22.45
  -3  -1 -13  637.45   21.37
   3   1 -13  568.49   22.04
  -3   1 -13  606.83   19.22
  -3  -1 -12  561.28   17.65
  -3   1 -12  537.35   20.53
  -3   1 -12  560.01   17.95
   3   1 -12  534.04   20.67
  -3  -1 -12  527.15   18.29
  -3   1 -11  142.90    8.66
  -3   1 -11  144.51   10.56
  -3  -1 -11  142.69    8.64
   3   1 -11  140.96   10.27
  -3  -1 -11  144.40    9.23
  -3  -1 -10  233.90   11.04
   3   1 -10  244.92   13.24
  -3   1 -10  223.74   10.71
  -3  -1 -10  252.59   11.57
  -3   1 -10  253.78   13.30
   3   1  -9  886.33   23.91
  -3   1  -9  876.91   23.69
  -3  -1  -9  871.47   20.93
  -3  -1  -9  882.63   21.03
  -3   1  -9  887.07   20.70
   3   1  -8  311.35   13.60
  -3   1  -8  281.64   12.91
  -3  -1  -8  293.49   11.21
  -3   1  -8  269.35   11.34
  -3  -1  -7  454.24   13.16
  -3   1  -7  480.51   14.39
  -3  -1  -7  466.17    8.13
  -3  -1  -7  489.00   14.98
   3   1  -7  486.34   16.71
  -3   1  -7  486.49   16.44
  -3   1  -6 1461.56   27.89
  -3  -1  -6 1440.06   15.06
  -3   1  -6 1470.82   24.67
  -3  -1  -6 1404.69   24.59
  -3  -1  -6 1369.36   22.11
  -3  -1  -5   91.20    5.34
  -3  -1  -5  114.62    4.44
  -3   1  -5  101.99    7.37
  -3  -1  -5  107.79    6.72
  -3   1  -5  110.68    6.68
  -3   1  -4  829.60   19.63
  -3  -1  -4  791.74   13.09
  -3  -1  -4  867.10   18.50
  -3  -1  -4  849.16   15.48
  -3   1  -4  847.23   18.47
  -3  -1  -3 4478.35   31.73
  -3   1  -3 4395.86   41.30
  -3  -1  -3 4488.44   41.37
  -3  -1  -3 4435.43   34.43
  -3   1  -3 4489.03   44.54
  -3  -1  -2 1593.52   20.13
  -3   1  -2 1555.90   25.07
  -3   1  -2 1644.29   24.38
  -3  -1  -2 1589.79   24.19
  -3   1  -1 1009.25   18.93
  -3  -1  -1  904.04   16.01
  -3  -1  -1  922.40   18.14
  -3   1  -1  971.17   19.85
  -3  -1   0  880.40   16.61
  -3   1   0  880.43   18.01
  -3  -1   0  843.17   16.85
  -3   1   0  881.38   18.59
  -3   1   1  940.14   18.61
  -3  -1   1  953.44   17.69
  -3  -1   1  958.28   18.05
  -3   1   2 1660.90   24.89
  -3  -1   2 1660.73   24.50
  -3  -1   2 1653.32   23.13
  -3  -1   3 4560.29   38.10
  -3   1   3 4389.29   41.23
  -3  -1   4  861.17   16.36
  -3  -1   4  844.32   18.88
  -3   1   4  876.39   18.54
  -3  -1   5  110.83    5.76
  -3  -1   5  113.88    7.12
  -3   1   5  101.82    6.50
  -3  -1   6 1376.24   20.72
  -3   1   6 1454.39   24.85
  -3  -1   6 1418.04   26.22
  -3  -1   7  478.01   15.66
  -3  -1   7  484.16   12.40
  -3   1   7  448.08   14.33
  -3  -1   8  282.07   12.33
  -3   1   8  290.87   11.87
  -3  -1   8  299.26    9.64
  -3  -1   9  914.92   16.77
  -3   1   9  942.18   21.92
  -3  -1  10  233.10    8.54
  -3  -1  10  245.43   12.09
  -3   1  10  223.90   10.96
  -3   1  11  140.98    9.02
  -3  -1  11  151.84    9.84
  -3  -1  11  146.55    6.76
  -3  -1  12  536.47   13.11
  -3   1  12  525.34   17.52
  -3  -1  13  624.71   21.34
  -3   1  13  619.77   19.74
  -3  -1  13  608.56   14.21
  -3  -1  14  129.51    6.57
  -3   1  14  145.09    9.80
  -3  -1  14  125.40    9.83
  -3  -1  15   46.96    4.02
  -3  -1  15   46.65    6.05
  -3   1  15   54.96    6.26
  -3  -1  16   96.15    9.03
   3  -1  16   87.03    7.55
  -3   1  16   73.38    7.46
  -3  -1  16   73.18    5.12
  -3   1  17  241.83   13.79
  -3  -1  17  235.90   14.49
   3  -1  17  211.31   12.19
  -3   1  18   19.33    4.01
  -3  -1  18   25.66    4.96
   3  -1  18   25.36    4.70
  -3  -1  19  194.83   14.01
  -3   1  19  199.03   13.18
  -3  -1  20  106.99   11.02
  -3  -1  21    3.89    3.16
  -3  -1  22   70.91    9.55
  -3   2 -30    3.89    3.84
  -3   2 -29   37.44    7.00
  -3   2 -28   12.53    4.26
  -3   2 -27   22.25    5.77
  -3   2 -26    7.67    3.66
   3   2 -25   16.72    4.82
  -3   2 -25    8.55    4.40
  -3   2 -24   14.55    4.55
   3   2 -24    5.98    3.34
   3   2 -23   30.42    6.28
  -3  -2 -23   46.66    9.03
  -3   2 -23   40.68    7.75
  -3   2 -22    5.53    4.02
   3   2 -22   -1.36    3.13
  -3  -2 -22    0.52    2.52
   3   2 -21   62.51    9.26
  -3  -2 -21   64.12    8.82
  -3   2 -21   51.90    8.12
  -3   2 -20   26.59    5.91
   3   2 -20   19.86    5.31
  -3  -2 -20   28.23    5.65
  -3   2 -19   42.49    7.65
  -3  -2 -19   27.54    5.96
   3   2 -19   31.16    5.93
  -3  -2 -18   12.33    3.70
  -3   2 -18   12.29    3.82
   3   2 -18   10.41    3.81
  -3  -2 -17    5.38    2.22
  -3   2 -17    3.35    2.14
  -3   2 -16   16.13    4.28
   3   2 -16   19.14    4.48
  -3  -2 -16   22.12    3.88
  -3  -2 -16   24.45    4.42
  -3  -2 -15   62.37    6.97
  -3   2 -15   66.46    8.24
  -3   2 -15   66.97    7.84
  -3  -2 -15   61.75    6.63
   3   2 -15   62.63    7.88
  -3   2 -14   -0.91    1.46
  -3   2 -14    5.18    2.32
   3   2 -14    4.93    2.69
  -3  -2 -14    4.23    2.09
  -3  -2 -14    4.46    1.69
  -3   2 -13    1.10    1.68
   3   2 -13    1.91    2.09
  -3  -2 -13    0.50    1.25
  -3  -2 -13    2.54    1.39
  -3   2 -13    1.07    1.94
  -3  -2 -12   53.51    5.74
   3   2 -12   53.04    6.66
  -3   2 -12   49.44    6.56
  -3   2 -12   59.21    6.48
  -3   2 -11  338.35   16.82
   3   2 -11  298.57   15.26
  -3   2 -11  289.04   15.03
  -3  -2 -11  328.19   12.97
  -3   2 -10   93.27    8.02
   3   2 -10   88.50    8.16
   3  -2 -10   84.50    4.10
  -3  -2 -10   91.36    7.29
  -3  -2 -10   99.15    6.95
  -3   2  -9   20.28    4.13
   3  -2  -9   24.75    2.34
   3   2  -9   21.28    3.82
  -3  -2  -9   19.43    2.66
  -3   2  -9   19.88    3.78
  -3  -2  -9   19.46    3.63
  -3   2  -8   94.71    8.05
   3   2  -8  110.80    8.28
  -3   2  -8   92.19    7.52
  -3  -2  -8   95.32    5.70
  -3  -2  -8   85.11    6.77
   3  -2  -8   96.58    4.89
  -3  -2  -7   54.87    2.81
  -3   2  -7   64.14    6.54
  -3  -2  -7   57.99    4.16
  -3   2  -7   59.37    5.86
  -3  -2  -7   66.24    5.83
   3   2  -7   51.27    5.46
   3  -2  -7   56.49    3.89
  -3  -2  -6  275.12   11.81
  -3   2  -6  251.49   11.99
  -3  -2  -6  234.81    6.84
  -3  -2  -6  275.02    8.03
  -3   2  -6  242.76   12.21
   3   2  -6  234.22   11.05
  -3   2  -5  331.44   13.53
   3   2  -5  373.14   13.33
  -3  -2  -5  351.44    8.46
  -3  -2  -5  354.38   13.26
  -3  -2  -5  325.06    8.73
  -3   2  -5  326.09   13.76
  -3  -2  -4   55.43    5.05
  -3  -2  -4   65.31    3.44
  -3   2  -4   61.06    5.80
  -3  -2  -4   56.68    3.81
   3   2  -4   65.00    5.40
  -3  -2  -3 1933.64   24.20
  -3  -2  -3 1883.69   29.48
  -3   2  -3 1791.79   31.16
  -3   2  -3 1836.81   31.37
  -3  -2  -2 1006.80   18.62
  -3  -2  -2 1014.16   21.69
  -3   2  -2 1052.65   23.54
  -3   2  -2 1048.89   23.07
  -3  -2  -1  400.40   12.07
  -3   2  -1  426.13   14.79
  -3  -2  -1  417.05   13.71
  -3   2  -1  440.21   14.56
  -3   2   0  377.78   13.65
  -3  -2   0  387.02   13.41
  -3   2   0  388.73   13.41
  -3  -2   0  360.54   12.06
  -3   2   1  412.14   14.15
  -3  -2   1  428.94   13.64
  -3   2   1  407.58   13.53
  -3   2   2 1019.48   21.33
  -3   2   2 1056.28   22.18
  -3  -2   2 1063.97   22.06
  -3  -2   2 1021.01   21.75
  -3  -2   3 1849.45   29.10
  -3  -2   3 1906.14   30.92
  -3   2   4   46.60    4.67
  -3  -2   4   55.71    5.04
  -3  -2   5  362.00   12.82
  -3  -2   5  352.05   13.87
  -3  -2   6  246.46   10.70
  -3   2   6  237.56   10.90
  -3  -2   6  246.95   12.02
  -3  -2   7   50.34    4.81
  -3  -2   7   62.51    6.03
  -3   2   7   49.02    5.14
  -3   2   8   86.70    6.74
  -3  -2   8   93.28    7.53
  -3  -2   8   85.55    6.35
  -3  -2   9   24.82    3.31
  -3   2   9   18.78    3.30
  -3  -2   9   21.26    3.64
  -3  -2  10  104.04    8.39
  -3  -2  10  114.52    7.50
  -3   2  10   96.32    7.24
  -3   2  11  296.30   12.93
  -3  -2  11  340.52   13.07
  -3  -2  11  326.23   15.58
  -3  -2  12   51.17    6.36
  -3  -2  12   44.51    4.95
  -3   2  12   47.61    5.30
  -3  -2  13    4.20    1.78
  -3  -2  13    2.88    1.78
  -3   2  13    3.22    1.80
  -3  -2  14    4.82    1.55
  -3   2  14    4.74    1.67
  -3  -2  14    5.19    2.21
  -3  -2  15   62.87    5.94
  -3  -2  15   56.24    6.95
  -3   2  15   46.47    5.60
  -3  -2  16   21.74    3.90
  -3   2  16   14.94    3.33
  -3  -2  16   27.28    4.67
  -3  -2  17    7.21    1.85
  -3  -2  17    5.24    2.69
  -3   2  17    6.39    2.70
  -3  -2  18   18.10    3.92
  -3   2  18   13.91    4.00
   3  -2  18   13.02    3.67
   3  -2  19   36.89    6.32
  -3  -2  19   27.12    5.55
  -3  -2  20   34.24    6.18
   3  -2  20   23.75    5.35
  -3  -2  21   65.68    9.09
  -3  -2  22    3.46    2.27
  -3  -2  23   37.43    8.09
  -3   3 -29  125.67   14.05
  -3   3 -28   52.56    9.59
   3   3 -27  118.88   14.44
  -3   3 -27  103.63   13.26
  -3   3 -26   58.73    9.82
   3   3 -26   74.39   10.44
   3   3 -25   95.28   11.73
  -3   3 -25   92.92   11.59
   3   3 -24    5.67    2.65
  -3   3 -24    6.53    3.04
  -3   3 -23  155.26   14.60
   3   3 -23  143.63   14.19
  -3   3 -22   23.42    5.73
   3   3 -22   35.77    7.31
  -3   3 -21    3.54    3.05
   3   3 -21    8.95    3.43
   3   3 -20   12.03    4.83
  -3   3 -20   14.06    4.10
  -3   3 -19  120.78   12.37
   3   3 -19  110.76   11.83
  -3   3 -18  144.20   13.28
   3   3 -18  134.22   12.48
  -3  -3 -17   83.05    8.40
   3   3 -17  107.42   10.95
  -3   3 -17  100.78   10.73
  -3   3 -16   90.28    9.67
  -3   3 -16   84.81    9.66
  -3  -3 -16   81.27    8.29
  -3  -3 -16   76.47    7.88
   3   3 -16   78.89    9.53
   3   3 -15  192.22   14.11
  -3  -3 -15  176.66   11.54
  -3   3 -15  161.33   12.92
  -3   3 -15  172.10   13.07
  -3  -3 -15  179.15   11.35
  -3  -3 -14   40.85    5.41
  -3   3 -14   19.94    4.07
  -3  -3 -14   33.59    4.82
  -3   3 -14   13.59    3.85
   3   3 -14   33.60    5.74
  -3  -3 -13  657.49   21.72
  -3  -3 -13  621.22   18.60
   3   3 -13  697.45   25.84
  -3   3 -13  639.31   24.45
  -3   3 -12 1001.71   30.81
   3   3 -12  996.07   30.19
  -3   3 -12  958.28   29.43
  -3  -3 -12  975.45   22.03
   3  -3 -12  938.30   17.66
  -3  -3 -12 1004.02   26.66
   3  -3 -11   83.99    5.57
  -3  -3 -11   95.91    6.41
  -3   3 -11  108.41    9.71
   3   3 -11   97.12    9.12
  -3   3 -11  102.40    9.71
   3   3 -10  310.38   15.67
   3  -3 -10  313.94   11.05
  -3  -3 -10  297.23   10.31
  -3   3 -10  320.66   16.38
  -3  -3 -10  283.88   14.12
   3   3  -9 1468.54   33.27
  -3  -3  -9 1552.24   21.27
   3  -3  -9 1545.50   25.33
  -3  -3  -9 1447.74   16.52
  -3  -3  -9 1492.43   31.09
  -3   3  -9 1513.04   34.62
  -3  -3  -8   40.98    3.27
  -3   3  -8   47.64    6.16
   3  -3  -8   44.21    4.32
  -3  -3  -8   45.21    3.15
  -3  -3  -8   45.69    5.68
   3   3  -8   39.03    5.21
  -3   3  -8   38.43    5.54
  -3  -3  -7 1106.55   26.13
  -3  -3  -7 1024.44   13.23
  -3   3  -7 1030.13   27.72
  -3   3  -7 1086.28   28.27
  -3  -3  -7 1059.63   17.46
   3  -3  -7 1040.47   21.87
   3   3  -7 1017.38   25.73
   3   3  -6 1220.67   26.78
   3  -3  -6 1236.10   23.99
  -3   3  -6 1121.01   28.18
  -3   3  -6 1216.90   29.71
  -3  -3  -6 1187.11   26.95
  -3  -3  -6 1187.49   19.98
  -3  -3  -5  147.32    9.50
  -3  -3  -5  137.97    7.31
   3   3  -5  159.87    9.12
  -3   3  -5  153.67   10.10
   3  -3  -5  150.01    8.41
  -3   3  -5  148.15   10.36
  -3  -3  -4 2204.43   36.34
  -3   3  -4 2041.49   37.88
  -3   3  -4 2353.08   38.50
   3   3  -4 2379.53   33.86
  -3  -3  -4 2151.26   30.05
  -3  -3  -3 4353.82   43.39
  -3  -3  -3 4364.62   50.93
  -3   3  -3 4021.16   49.75
   3   3  -3 4117.75   41.99
  -3   3  -3 4426.08   53.42
  -3   3  -2  771.11   21.92
  -3   3  -2  788.37   21.45
   3   3  -2  783.75   17.33
  -3  -3  -2  754.52   21.25
  -3  -3  -2  772.79   19.08
  -3   3  -1 1135.36   26.69
  -3   3  -1 1098.33   24.85
  -3  -3  -1 1071.36   25.20
  -3   3   0  751.79   20.13
  -3   3   0  761.33   21.75
  -3  -3   0  789.94   21.72
  -3  -3   0  757.04   20.18
  -3   3   1 1127.71   26.37
  -3  -3   1 1020.40   24.61
  -3  -3   1 1036.92   24.39
  -3   3   1 1095.16   24.21
  -3  -3   2  807.23   21.92
  -3   3   2  776.85   22.13
  -3  -3   2  767.11   21.39
  -3  -3   3 4114.20   50.03
  -3   3   3 4183.79   47.47
  -3  -3   3 4224.96   51.36
  -3   3   4 2170.77   36.41
  -3  -3   4 2168.19   37.84
  -3   3   4 2242.70   34.42
  -3  -3   5  160.23   10.45
  -3   3   5  160.91    9.83
  -3  -3   5  148.91    9.60
  -3  -3   6 1176.73   26.94
  -3  -3   6 1214.87   29.72
  -3   3   7  990.99   24.29
  -3  -3   7 1014.44   25.24
  -3  -3   7  999.84   27.25
  -3  -3   8   41.52    5.16
  -3  -3   8   41.43    5.84
  -3   3   8   32.27    4.65
  -3  -3   9 1569.83   35.18
  -3   3   9 1503.86   30.77
  -3  -3   9 1519.56   31.38
  -3  -3  10  305.33   14.28
  -3  -3  10  305.95   15.86
  -3  -3  11   89.53    7.78
  -3  -3  11   90.80    9.02
  -3   3  11  106.80    8.20
  -3   3  12  962.33   25.20
  -3  -3  12 1035.93   30.47
  -3  -3  12 1013.65   26.64
  -3   3  13  590.33   20.06
  -3  -3  13  596.75   23.66
  -3  -3  13  618.43   21.21
  -3  -3  14   29.04    5.46
  -3   3  14   31.03    4.34
  -3  -3  14   28.76    4.67
  -3   3  15  176.25   11.27
  -3  -3  15  206.41   12.49
  -3  -3  15  182.13   13.35
  -3  -3  16   85.40    9.45
  -3  -3  16   79.60    7.87
  -3   3  16   85.05    7.85
  -3  -3  17  101.00    9.20
  -3  -3  17  103.35   10.50
  -3  -3  18  118.55    9.94
  -3  -3  18  156.59   13.22
  -3  -3  19  110.90   11.66
   3  -3  19   97.06   10.76
   3  -3  20   11.35    3.81
  -3  -3  20   16.24    4.51
   3  -3  21   -0.79    2.67
  -3  -3  21   -0.69    1.82
  -3  -3  22   30.51    5.92
  -3  -3  23  161.03   15.18
  -3  -3  24   -0.13    4.01
  -3   4 -28   13.84    5.24
   3   4 -28    8.89    4.69
   3   4 -27   67.67    9.74
  -3   4 -27   53.65    9.17
   3   4 -26   12.64    3.86
  -3   4 -26    9.47    3.11
   3   4 -25   50.50    9.41
  -3   4 -25   66.53    9.95
  -3   4 -24    3.40    3.01
   3   4 -24    3.09    2.55
  -3   4 -23   16.75    4.80
   3   4 -23    2.19    2.80
  -3   4 -22   24.10    6.17
   3   4 -22   14.70    5.59
  -3   4 -21   32.39    6.46
   3   4 -21   19.67    5.67
   3   4 -20   13.45    4.09
  -3   4 -20    4.09    1.88
   3   4 -19   74.30    9.67
  -3   4 -19   70.85    9.23
  -3   4 -18   24.69    5.60
   3   4 -18   11.54    3.57
  -3   4 -17    2.84    2.30
   3   4 -17    5.03    3.52
  -3   4 -17    1.77    1.60
   3   4 -16    9.31    2.50
  -3   4 -16   11.21    3.68
  -3   4 -16    9.94    3.03
   3   4 -15   41.56    6.93
  -3   4 -15   63.24    8.83
  -3  -4 -15   53.40    6.99
  -3   4 -15   45.81    7.69
  -3  -4 -14    0.08    1.29
  -3   4 -14    0.57    3.23
   3   4 -14   -1.36    2.28
  -3   4 -14    2.84    2.01
   3   4 -13   51.28    7.43
  -3   4 -13   44.35    6.95
  -3  -4 -13   40.77    6.36
  -3   4 -13   56.58    7.81
  -3   4 -12   25.61    5.53
   3  -4 -12   13.38    2.85
  -3   4 -12   11.53    3.59
   3   4 -12   26.04    5.56
  -3  -4 -12   21.70    4.23
   3  -4 -11   94.82    7.31
  -3   4 -11  103.33   10.28
  -3  -4 -11   82.43    7.97
  -3   4 -11   85.62    9.48
   3   4 -11  115.34    9.96
  -3  -4 -10  167.49   11.39
  -3   4 -10  169.46   12.72
   3  -4 -10  164.92   10.06
  -3   4 -10  174.10   13.04
  -3  -4 -10  162.41    7.22
   3   4 -10  172.24   12.23
  -3   4  -9   84.58    9.27
  -3  -4  -9  109.52    9.18
   3  -4  -9   92.39    7.43
   3   4  -9   88.06    8.58
  -3   4  -9  112.11   10.01
  -3  -4  -9  103.62    6.21
   3   4  -8   61.91    6.70
  -3   4  -8   48.63    6.37
   3  -4  -8   63.53    6.52
  -3  -4  -8   64.72    5.28
  -3   4  -8   70.65    8.22
  -3  -4  -8   60.73    6.73
  -3  -4  -7   69.51    7.12
   3   4  -7   72.73    7.04
   3  -4  -7   71.18    6.71
  -3  -4  -7   65.26    5.44
  -3   4  -7   68.09    7.71
  -3   4  -7   66.22    7.46
   3  -4  -6   95.22    7.90
  -3  -4  -6   98.83    7.08
  -3  -4  -6   81.40    7.86
  -3   4  -6   91.17    8.98
   3  -4  -5  438.68   17.02
  -3   4  -5  467.89   19.85
   3   4  -5  382.09   15.63
  -3   4  -5  414.73   17.84
  -3  -4  -5  428.12   17.86
  -3  -4  -5  469.14   15.74
  -3  -4  -4  276.37   14.44
   3  -4  -4  299.19   14.18
  -3  -4  -4  281.41   12.58
  -3   4  -4  299.55   14.77
  -3   4  -4  301.39   15.82
   3   4  -4  300.01   12.94
  -3   4  -3  222.18   12.44
  -3  -4  -3  196.28   12.25
  -3  -4  -3  207.83   11.13
   3   4  -3  213.34   10.20
   3  -4  -3  202.27   11.65
  -3   4  -3  190.50   12.69
  -3  -4  -2  401.92   17.15
   3   4  -2  396.87   13.08
  -3  -4  -2  429.92   16.22
   3  -4  -2  398.70   16.53
  -3   4  -2  420.73   16.87
  -3  -4  -1  582.73   19.46
   3  -4  -1  611.08   20.34
   3   4  -1  606.21   14.66
  -3   4  -1  550.10   19.21
  -3   4  -1  527.11   20.35
  -3  -4  -1  575.05   20.63
  -3  -4   0  212.84   11.95
  -3  -4   0  209.18   12.28
  -3   4   0  200.04   12.23
  -3   4   0  233.84   12.06
  -3   4   1  556.46   18.61
  -3  -4   1  559.19   20.48
  -3  -4   1  559.13   20.23
  -3   4   1  602.39   21.24
  -3  -4   2  432.51   17.81
  -3   4   2  430.23   18.06
  -3   4   2  459.97   16.62
  -3  -4   3  195.77   11.96
  -3   4   3  210.30   11.23
  -3  -4   3  187.46   11.87
  -3   4   4  325.73   13.96
  -3   4   4  290.60   14.41
  -3  -4   4  300.91   15.00
  -3  -4   5  412.05   18.41
  -3   4   5  398.54   17.07
  -3  -4   5  423.16   18.01
  -3   4   5  418.80   16.22
  -3  -4   6   98.74    8.81
  -3   4   6   95.28    7.73
  -3  -4   6   80.75    8.21
  -3   4   6   85.52    8.15
  -3   4   7   83.15    7.75
  -3  -4   7   76.78    8.17
  -3  -4   7   75.11    7.63
  -3   4   8   62.32    7.11
  -3  -4   8   71.91    7.61
  -3  -4   8   52.60    7.05
  -3  -4   9   77.98    7.82
  -3  -4   9  105.18    9.84
  -3   4   9   97.54    8.62
  -3   4  10  166.72   11.16
  -3  -4  10  187.26   12.39
  -3  -4  10  157.73   12.30
  -3  -4  11   93.26    9.01
  -3   4  11   99.00    8.66
  -3  -4  12   14.76    4.73
  -3  -4  12   19.84    4.20
  -3   4  12   14.86    3.66
  -3  -4  13   36.60    5.78
  -3  -4  13   57.12    7.37
  -3   4  13   48.68    6.21
  -3   4  14   -0.56    1.66
  -3  -4  14    0.96    1.70
  -3  -4  14    2.00    2.16
  -3  -4  15   50.15    6.85
  -3   4  15   51.32    6.38
  -3  -4  15   36.32    6.58
  -3  -4  16   23.99    5.45
  -3  -4  16   16.24    4.55
  -3  -4  17    2.26    2.83
  -3  -4  17    0.85    2.23
  -3  -4  18   18.56    5.07
  -3  -4  18   13.94    3.98
   3  -4  19   67.09    9.53
  -3  -4  19   59.01    8.63
   3  -4  20    8.54    4.58
   3  -4  20    2.99    1.87
  -3  -4  20    2.28    2.03
   3  -4  21   37.16    7.15
   3  -4  21   40.80    7.40
  -3  -4  21   46.13    8.35
   3  -4  22   12.51    4.28
  -3  -4  22   27.35    5.86
  -3  -4  23    6.63    3.56
  -3  -4  24    9.26    4.07
  -3  -4  25   54.43    8.86
  -3   5 -27   27.83    7.06
   3   5 -27   21.98    6.09
   3   5 -26   30.92    7.18
  -3   5 -26   43.15    8.78
   3   5 -25   70.22   10.98
  -3   5 -25   58.83    9.61
  -3   5 -24   18.65    5.32
   3   5 -24   20.41    5.80
  -3   5 -23   33.64    7.71
   3   5 -23   34.56    6.46
   3   5 -22   25.21    6.22
  -3   5 -22   26.89    6.41
  -3   5 -21   13.48    5.15
   3   5 -21   18.24    5.92
  -3   5 -20   65.85    9.85
   3   5 -20   59.62    9.21
  -3   5 -19   96.58   11.50
   3   5 -19  110.66   12.02
   3   5 -18   51.18    8.09
  -3   5 -18   52.00    8.63
   3   5 -17  109.69   11.73
  -3   5 -17   93.28   11.33
  -3   5 -17  116.87   12.41
  -3   5 -16   63.01    8.50
   3   5 -16   59.99    8.74
  -3   5 -16   77.38   10.01
   3   5 -15  120.92   12.02
  -3   5 -15  124.02   12.26
  -3   5 -15  139.78   13.60
  -3  -5 -15  106.65   10.62
   3   5 -14  122.91   12.22
  -3   5 -14  114.75   11.62
  -3  -5 -14  136.93   11.60
  -3   5 -14  123.02   12.11
  -3   5 -13  405.37   21.77
   3   5 -13  400.96   20.84
  -3   5 -13  413.99   22.52
  -3  -5 -13  423.58   20.45
  -3   5 -12  197.50   15.48
  -3   5 -12  225.97   15.72
   3  -5 -12  201.37   12.76
  -3  -5 -12  196.36   13.97
  -3   5 -11   71.81    8.97
  -3  -5 -11   71.50    8.30
   3  -5 -11   57.24    6.84
  -3   5 -11   84.66    9.69
   3   5 -11   70.89    8.37
   3  -5 -10   88.30    8.36
  -3   5 -10   75.57    9.06
  -3  -5 -10   89.82    9.30
   3   5 -10   89.97    9.05
  -3   5 -10   63.75    8.58
  -3  -5  -9  371.52   18.37
  -3  -5  -9  371.37   14.80
   3   5  -9  352.39   17.67
   3  -5  -9  328.54   16.33
  -3   5  -9  305.97   17.30
  -3   5  -9  360.12   19.92
   3   5  -8   29.07    4.59
  -3  -5  -8   28.23    4.21
  -3  -5  -8   23.87    4.61
  -3   5  -8   25.70    5.59
  -3   5  -8   25.37    5.11
   3  -5  -8   23.65    4.35
  -3   5  -7  164.42   13.18
  -3  -5  -7  172.48   10.56
  -3  -5  -7  159.17   11.97
   3  -5  -7  158.70   11.48
   3   5  -7  191.98   11.97
  -3   5  -7  199.90   13.24
  -3   5  -6  144.66   11.14
   3   5  -6  139.93    9.84
   3  -5  -6  129.53   10.28
  -3  -5  -6  107.82    8.55
  -3  -5  -6  127.98   10.70
  -3   5  -6  106.89   10.47
   3   5  -5   12.08    2.78
  -3   5  -5    7.94    2.54
  -3  -5  -5    8.17    2.56
   3  -5  -5   12.59    3.38
  -3  -5  -5   10.90    3.27
  -3   5  -5    6.41    2.54
   3  -5  -4   88.29    8.49
  -3   5  -4  102.46    9.25
   3   5  -4   97.39    7.86
  -3   5  -4   87.18    9.56
  -3  -5  -4   95.07    8.26
  -3  -5  -4   96.70    9.48
  -3  -5  -3  343.39   17.35
   3  -5  -3  345.83   16.97
  -3   5  -3  328.87   16.15
  -3   5  -3  349.39   18.15
   3   5  -3  360.42   14.27
  -3  -5  -3  300.78   15.01
  -3  -5  -2    9.26    2.92
  -3   5  -2   13.11    3.73
  -3  -5  -2   10.08    2.99
   3  -5  -2   11.05    3.66
   3   5  -2   10.94    2.39
  -3   5  -2    7.67    2.14
   3   5  -1  400.30   13.16
  -3  -5  -1  425.43   19.22
   3  -5  -1  407.08   18.82
  -3  -5  -1  450.41   18.98
  -3   5  -1  407.83   17.49
  -3   5  -1  414.59   19.56
  -3   5   0  205.68   13.72
  -3  -5   0  179.87   12.68
  -3   5   0  192.69   11.90
   3  -5   0  208.32   13.22
  -3  -5   0  196.93   12.85
   3  -5   1  429.68   19.32
  -3  -5   1  394.31   18.96
  -3   5   1  387.11   16.73
  -3   5   1  396.02   18.93
  -3  -5   1  391.73   18.07
  -3   5   2   14.15    4.34
   3  -5   2    8.86    3.04
  -3  -5   2   16.72    4.09
  -3  -5   2   11.54    3.30
  -3   5   2   15.62    3.17
  -3   5   3  314.73   16.62
  -3   5   3  338.57   15.36
   3  -5   3  324.07   16.85
  -3  -5   3  301.91   16.65
  -3  -5   3  329.78   17.23
  -3  -5   4   90.00    9.24
   3  -5   4   81.28    8.70
  -3   5   4   83.66    7.48
  -3   5   4  108.76    9.74
  -3  -5   4  106.69    9.61
  -3   5   5    8.10    2.33
  -3   5   5    6.12    2.67
  -3  -5   5    6.10    2.51
   3  -5   5    1.93    2.41
  -3  -5   5    9.27    3.45
  -3  -5   6  113.58   10.52
  -3   5   6  116.37    8.93
   3  -5   6  118.14   10.87
  -3   5   6  126.11   10.38
  -3  -5   6  120.34   10.45
  -3   5   7  167.99   10.96
  -3  -5   7  171.27   12.69
   3  -5   7  129.03   10.89
  -3   5   7  162.69   11.77
  -3  -5   7  154.15   12.59
  -3  -5   8   25.82    5.16
  -3   5   8   19.03    4.31
  -3  -5   8   25.84    5.46
   3  -5   8   30.01    5.55
  -3   5   8   28.62    4.40
  -3  -5   9  358.39   19.56
  -3  -5   9  364.35   18.80
   3  -5   9  407.62   19.92
  -3   5   9  372.86   16.73
  -3   5   9  381.21   18.14
   3  -5  10   90.14    9.58
  -3   5  10   78.26    8.33
  -3  -5  10   57.21    7.37
  -3  -5  10   77.82    8.95
  -3  -5  11   73.95    8.38
  -3  -5  11   73.43    9.13
   3  -5  11   78.06    9.34
  -3   5  11   63.10    7.31
  -3  -5  12  190.14   14.99
  -3  -5  12  182.30   13.78
  -3   5  12  191.91   12.97
   3  -5  12  189.16   14.35
  -3  -5  13  376.09   20.21
  -3  -5  13  403.77   21.58
  -3   5  13  340.63   17.48
  -3  -5  14  113.40   12.04
  -3  -5  14  129.20   11.58
  -3   5  14   90.25    9.30
   3  -5  14  112.79   11.76
   3  -5  15  125.63   11.85
  -3  -5  15  139.68   13.51
  -3  -5  16   73.83    9.51
  -3  -5  16   78.44   10.01
   3  -5  17  100.38   11.47
  -3  -5  17   81.38    9.87
  -3  -5  17   93.63   11.08
  -3  -5  18   38.62    7.01
  -3  -5  18   48.83    8.50
   3  -5  18   44.34    7.37
  -3  -5  19  117.60   12.30
   3  -5  19   97.26   11.75
  -3  -5  19  111.58   12.48
   3  -5  20   52.53    8.92
  -3  -5  20   67.10   10.05
  -3  -5  21    8.08    4.20
   3  -5  21   12.82    5.14
   3  -5  21    9.97    4.82
   3  -5  22   15.73    6.47
  -3  -5  22   33.40    7.48
   3  -5  22   17.88    5.81
   3  -5  23   26.73    7.36
  -3  -5  23   26.78    6.42
  -3  -5  24   18.88    5.69
  -3  -5  25   99.53   12.68
  -3  -5  26   18.41    5.71
  -3   6 -26    4.66    2.87
   3   6 -26   -0.82    2.44
  -3   6 -25   12.88    6.79
   3   6 -25   29.43    7.89
  -3   6 -24   10.54    4.90
   3   6 -24    6.45    3.97
   3   6 -23    6.50    2.66
  -3   6 -23    6.85    4.21
  -3   6 -22    1.29    3.41
   3   6 -22    7.46    3.57
  -3   6 -21   28.20    5.80
   3   6 -21   29.53    6.96
  -3   6 -20    4.82    4.36
   3   6 -20    2.81    3.56
  -3   6 -19   99.00   11.88
   3   6 -19   97.26   11.48
  -3   6 -18   49.85    8.55
   3   6 -18   49.24    7.92
  -3   6 -17   26.65    6.08
  -3   6 -17   23.28    6.40
   3   6 -17   12.90    4.26
  -3   6 -16   36.75    7.30
  -3   6 -16   49.55    8.56
   3   6 -16   55.59    8.55
   3   6 -15  126.10   12.55
  -3   6 -15  157.80   14.99
  -3   6 -15  122.60   12.60
  -3   6 -14   29.60    6.40
   3   6 -14   34.63    7.01
  -3  -6 -14   44.73    7.12
  -3   6 -14   43.89    7.78
  -3   6 -13  295.13   20.06
   3   6 -13  275.64   17.92
  -3   6 -13  330.98   20.15
  -3  -6 -13  280.56   17.90
  -3  -6 -12   21.01    4.76
   3   6 -12   22.22    5.13
  -3   6 -12   18.25    4.99
  -3   6 -12   20.51    5.32
  -3  -6 -11  135.30   12.38
  -3   6 -11  145.90   12.96
   3  -6 -11  124.23   10.99
   3   6 -11  121.73   11.52
  -3   6 -11  107.93   11.80
  -3   6 -10   65.45    9.16
  -3   6 -10   83.82    9.47
   3  -6 -10   56.86    7.43
  -3  -6 -10   69.18    8.63
   3   6 -10   73.82    8.65
   3   6  -9   67.77    7.95
  -3  -6  -9   69.49    8.70
   3  -6  -9   66.40    8.33
  -3   6  -9   66.87    8.99
  -3   6  -9   54.14    8.00
  -3   6  -8   49.01    7.55
   3  -6  -8   31.60    5.68
   3   6  -8   57.17    7.26
  -3   6  -8   46.77    7.24
  -3  -6  -8   54.75    7.42
  -3  -6  -8   41.30    6.07
  -3   6  -7  178.19   14.81
  -3  -6  -7  195.45   14.30
   3  -6  -7  187.87   13.52
   3   6  -7  187.00   12.76
  -3  -6  -7  150.90   11.27
  -3   6  -7  156.67   12.60
   3  -6  -6   28.09    5.23
  -3  -6  -6   25.02    4.44
  -3   6  -6   30.34    6.01
  -3   6  -6   30.56    5.50
   3   6  -6   33.54    5.23
  -3  -6  -6   30.04    4.97
  -3   6  -5  109.13   11.33
  -3  -6  -5  110.03   10.83
   3  -6  -5  117.22   11.07
   3   6  -5  133.13   10.17
  -3   6  -5  126.60   10.92
  -3  -6  -5  123.51   10.46
   3   6  -4   17.82    3.76
  -3   6  -4   26.97    5.32
  -3  -6  -4   27.92    4.95
  -3  -6  -4   21.35    4.63
  -3   6  -4   26.71    5.56
   3  -6  -4   15.91    4.46
  -3  -6  -3  148.55   12.37
   3  -6  -3  149.96   12.14
   3   6  -3  178.00   10.61
  -3   6  -3  146.93   11.55
  -3   6  -3  169.49   13.49
  -3   6  -2  173.45   13.60
  -3  -6  -2  152.25   12.56
   3  -6  -2  174.14   13.32
   3   6  -2  172.47    9.85
  -3   6  -2  180.58   12.51
   3  -6  -1  173.46   12.90
   3   6  -1  153.87    8.70
  -3   6  -1  161.22   11.81
  -3   6  -1  171.31   13.59
  -3  -6  -1  173.21   13.60
   3  -6   0    0.48    2.89
   3   6   0   -0.43    1.18
  -3  -6   0   -1.73    1.81
  -3   6   0   -0.35    2.11
  -3   6   0   -1.51    2.36
  -3  -6   0   -0.46    1.12
  -3   6   1  188.05   12.34
  -3  -6   1  187.29   14.08
  -3  -6   1  183.18   13.55
   3  -6   1  200.05   14.43
  -3   6   1  167.67   13.12
  -3  -6   2  171.89   13.46
   3  -6   2  183.68   13.53
  -3   6   2  160.23   12.54
  -3   6   2  182.03   12.00
  -3  -6   2  179.56   13.65
  -3   6   3  178.79   11.72
  -3   6   3  148.72   12.55
  -3  -6   3  127.16   11.84
  -3  -6   3  150.45   12.64
  -3  -6   4   15.62    4.01
  -3   6   4   24.81    4.50
   3  -6   4   22.42    4.77
  -3   6   4   22.58    4.50
  -3  -6   4   18.87    4.49
  -3  -6   5  111.12   10.95
  -3   6   5  110.76    9.27
   3  -6   5  116.99   11.20
  -3   6   5  119.88   11.16
  -3  -6   5  109.11   10.78
  -3   6   6   13.47    4.96
  -3  -6   6   30.45    6.08
   3  -6   6   30.03    5.46
  -3   6   6   29.11    4.86
  -3  -6   6   38.04    6.65
  -3  -6   7  176.78   13.99
  -3  -6   7  199.69   15.40
  -3   6   7  170.35   11.68
  -3   6   7  179.90   13.61
  -3  -6   8   59.73    8.34
  -3  -6   8   55.31    8.13
   3  -6   8   43.25    6.68
  -3   6   8   40.40    6.57
  -3   6   8   47.66    6.46
  -3  -6   9   71.00    8.97
  -3  -6   9   60.66    8.44
   3  -6   9   56.01    8.21
  -3   6   9   66.70    7.35
  -3   6   9   61.61    7.93
  -3  -6  10   83.46   10.06
  -3  -6  10   70.26    8.81
   3  -6  10   68.17    8.76
  -3   6  10   65.99    7.91
  -3   6  10   66.28    8.15
  -3  -6  11  102.89   11.47
  -3  -6  11  128.40   12.31
  -3   6  11  124.14   11.30
   3  -6  11  109.82   11.63
  -3   6  12   22.09    4.83
  -3  -6  12   11.87    3.38
   3  -6  12   22.64    6.06
  -3  -6  12   21.13    4.97
  -3   6  13  292.68   17.34
   3  -6  13  315.11   19.43
  -3  -6  13  319.27   19.57
  -3  -6  13  286.15   18.93
  -3  -6  14   45.06    8.05
   3  -6  14   32.31    6.34
  -3  -6  14   28.30    6.67
  -3  -6  15  113.24   11.84
   3  -6  15  139.38   13.09
  -3  -6  15  128.51   13.54
  -3  -6  16   54.60    8.36
   3  -6  16   63.96    9.63
  -3  -6  16   42.69    8.08
   3  -6  17    9.92    4.46
  -3  -6  17   20.57    6.07
  -3  -6  17   16.21    4.74
   3  -6  18   39.27    8.00
  -3  -6  18   64.11    9.66
  -3  -6  18   43.10    7.96
  -3  -6  19  103.32   11.55
  -3  -6  19   93.35   12.06
   3  -6  19   81.09   11.39
  -3  -6  20    5.86    2.08
   3  -6  20    6.79    4.37
   3  -6  21   19.18    5.44
   3  -6  21   26.67    7.24
  -3  -6  21   34.24    7.35
  -3  -6  22    4.63    2.25
   3  -6  22    6.65    2.62
   3  -6  22    4.54    3.39
   3  -6  23    8.17    6.10
  -3  -6  23    7.63    4.06
   3  -6  24    9.08    4.47
  -3  -6  24   11.39    5.22
  -3  -6  25   20.04    6.17
  -3  -6  26    2.28    3.88
  -3   7 -24   25.51    6.78
   3   7 -24   31.31    7.00
  -3   7 -23   40.66    7.92
   3   7 -23   21.78    5.96
   3   7 -22   47.37    8.71
  -3   7 -22   41.21    8.18
   3   7 -21   31.15    7.25
  -3   7 -21    9.00    2.68
   3   7 -20   20.30    6.78
  -3   7 -20   17.27    5.21
  -3   7 -19   79.40   10.70
   3   7 -19   79.68   10.53
   3   7 -18    5.79    2.11
  -3   7 -18    2.19    2.56
  -3   7 -17   69.66   10.42
   3   7 -17   46.02    8.36
   3   7 -16  125.70   13.07
  -3   7 -16   99.14   12.06
  -3   7 -16   95.93   12.25
   3   7 -15   36.15    7.92
  -3   7 -15   45.56    7.98
  -3   7 -15   36.98    7.92
  -3   7 -14   30.75    6.72
  -3  -7 -14   27.36    6.62
  -3   7 -14   21.82    6.40
   3   7 -14   34.71    7.22
  -3  -7 -13   84.75   10.85
   3   7 -13  120.27   12.01
  -3   7 -13   97.02   11.25
  -3   7 -12   40.05    8.17
  -3  -7 -12   53.87    8.92
   3   7 -12   34.08    5.99
  -3   7 -12   44.89    7.67
  -3   7 -11    4.65    3.37
  -3   7 -11    2.67    3.77
  -3  -7 -11    3.10    3.27
   3  -7 -11    4.93    3.28
   3   7 -11    1.04    1.66
  -3   7 -10   69.60    9.49
  -3   7 -10   78.41   10.42
  -3  -7 -10   81.79   10.14
   3  -7 -10   49.40    7.85
   3   7 -10   67.75    8.79
   3  -7  -9  184.13   14.84
   3   7  -9  216.58   15.49
  -3   7  -9  179.12   14.64
  -3   7  -9  214.56   17.12
  -3  -7  -9  201.26   15.79
  -3  -7  -8   25.75    6.15
   3  -7  -8   27.35    5.90
   3   7  -8   33.99    6.23
  -3   7  -8   26.22    5.51
  -3   7  -8   22.35    5.44
  -3  -7  -7   66.24    9.16
   3  -7  -7   73.52    9.24
  -3  -7  -7   84.30    9.28
  -3   7  -7   67.34    9.58
  -3   7  -7   57.82    8.08
   3   7  -7   43.77    6.31
  -3   7  -6  125.70   11.85
  -3  -7  -6  101.07   11.13
  -3  -7  -6   88.04    9.80
   3  -7  -6  118.75   11.84
   3   7  -6  121.71   10.72
  -3   7  -6  102.33   11.67
  -3   7  -5   54.66    8.71
  -3  -7  -5   45.46    7.65
   3  -7  -5   51.36    7.73
   3   7  -5   46.10    6.62
  -3   7  -5   56.31    8.18
  -3  -7  -5   54.09    7.43
  -3  -7  -4  235.46   16.75
  -3   7  -4  197.21   13.96
  -3   7  -4  259.00   18.00
  -3  -7  -4  225.65   15.66
   3   7  -4  183.77   12.36
   3  -7  -4  210.17   15.95
  -3  -7  -3  223.29   16.47
   3  -7  -3  196.15   15.32
   3   7  -3  227.79   12.94
  -3   7  -3  206.38   14.43
  -3   7  -3  221.53   16.93
  -3  -7  -3  246.67   16.36
  -3  -7  -2  117.93   11.71
  -3  -7  -2  119.83   11.92
   3  -7  -2  125.56   12.05
   3   7  -2  116.77    8.80
  -3   7  -2  115.22   12.43
  -3   7  -2  104.27   10.07
  -3   7  -1  511.34   25.03
   3  -7  -1  503.68   23.92
  -3  -7  -1  496.82   24.34
  -3  -7  -1  489.96   23.46
  -3   7  -1  533.58   22.39
   3  -7   0  305.43   18.70
  -3  -7   0  312.32   18.65
  -3   7   0  319.21   19.78
  -3  -7   0  302.23   19.03
  -3   7   0  308.23   17.18
  -3   7   1  442.55   23.27
  -3  -7   1  446.08   23.33
   3  -7   1  483.34   23.72
  -3   7   1  519.32   21.52
  -3  -7   1  422.90   22.08
  -3  -7   2  126.18   12.29
   3  -7   2  113.96   11.99
  -3  -7   2  119.59   11.63
  -3   7   2  121.98   11.87
  -3   7   2  136.97   11.07
  -3  -7   3  209.09   15.85
  -3   7   3  171.32   12.43
   3  -7   3  206.94   15.46
  -3  -7   3  220.66   16.04
  -3   7   3  212.75   16.14
  -3  -7   4  227.56   16.65
   3  -7   4  217.89   15.91
  -3  -7   4  233.49   16.90
  -3   7   4  213.76   13.84
  -3   7   4  210.46   15.84
  -3   7   5   49.75    6.72
  -3  -7   5   51.24    7.83
  -3   7   5   49.80    8.14
  -3  -7   5   52.61    8.40
   3  -7   5   55.64    8.39
  -3   7   6  104.46   11.22
   3  -7   6   93.80   10.60
  -3  -7   6  123.01   12.38
  -3  -7   6  109.05   11.61
  -3  -7   7   57.90    9.18
   3  -7   7   86.45   10.66
  -3  -7   7   79.96   10.31
  -3   7   7   59.68    8.75
  -3   7   8   27.97    5.47
  -3  -7   8   26.89    6.63
  -3  -7   8   32.23    6.68
   3  -7   8   22.66    6.49
  -3  -7   9  184.12   15.62
  -3  -7   9  204.89   16.13
   3  -7   9  187.08   15.74
  -3   7   9  195.75   15.19
  -3  -7  10   71.33    9.89
   3  -7  10   57.96    9.37
  -3  -7  10   76.55   10.29
  -3   7  10   41.67    7.54
  -3   7  11    7.06    4.02
   3  -7  11    4.69    1.99
  -3  -7  11    4.81    4.41
  -3  -7  11    3.97    3.89
  -3  -7  12   34.87    7.34
   3  -7  12   27.30    6.73
  -3   7  12   32.10    6.76
  -3  -7  12   45.24    8.18
  -3  -7  13  136.33   13.64
   3  -7  13  137.19   13.69
  -3  -7  13  101.19   12.13
  -3  -7  14   26.46    5.98
   3  -7  14   21.61    5.97
  -3  -7  15   27.84    6.35
  -3  -7  15   21.83    6.32
   3  -7  15   25.40    6.54
  -3  -7  16   98.28   12.46
   3  -7  16  120.95   12.98
   3  -7  17   60.85   10.23
  -3  -7  17   53.18    8.56
  -3  -7  17   80.32   10.62
   3  -7  18   -1.95    3.88
  -3  -7  18    8.29    4.43
  -3  -7  18    6.71    3.44
   3  -7  19   88.84   12.62
  -3  -7  19   81.99   11.69
  -3  -7  19   76.00   11.81
   3  -7  20   23.13    6.18
  -3  -7  20    9.45    3.41
  -3  -7  20   27.82    7.92
   3  -7  21   27.02    6.72
  -3  -7  21   15.29    5.67
   3  -7  21   13.16    3.25
   3  -7  22   47.82    9.24
  -3  -7  22   59.01   10.01
   3  -7  22   41.41    9.62
  -3  -7  23   17.84    4.86
   3  -7  23   39.94    8.74
   3  -7  24   34.63    8.22
  -3  -7  24   24.91    5.50
   3   8 -22   -3.62    4.28
  -3   8 -22    5.10    3.26
  -3   8 -21   16.23    5.50
   3   8 -21    5.66    3.81
  -3   8 -20    6.23    3.91
   3   8 -20   -1.18    2.24
  -3   8 -19   15.91    5.39
   3   8 -19   17.32    5.95
  -3   8 -18   -1.16    2.38
   3   8 -18    3.15    3.65
   3   8 -17   14.88    3.96
  -3   8 -17   24.71    7.35
  -3   8 -16   11.95    4.06
   3   8 -16   28.01    7.67
  -3   8 -15   41.41    8.47
   3   8 -15   44.01    7.95
  -3   8 -15   58.97    9.71
   3   8 -14   33.56    7.88
  -3   8 -14   40.65    8.53
  -3   8 -14   17.94    4.17
   3   8 -13  133.74   13.70
  -3  -8 -13  113.43   13.03
  -3   8 -13  137.29   14.92
  -3   8 -13  119.17   13.16
  -3  -8 -12   41.03    7.78
  -3   8 -12   40.15    8.30
   3   8 -12   51.92    8.90
  -3   8 -12   35.03    7.19
  -3   8 -11    6.08    2.97
  -3  -8 -11   -0.24    2.10
   3   8 -11    2.12    2.98
  -3   8 -11    2.60    2.68
   3   8 -10   28.29    6.45
  -3  -8 -10   25.87    6.02
  -3   8 -10   34.69    7.80
  -3   8 -10   14.33    3.98
   3  -8 -10   25.08    6.13
   3  -8  -9   70.46   10.07
   3   8  -9   76.45    9.94
  -3  -8  -9   68.01    9.58
  -3   8  -9   70.24    9.83
  -3   8  -9   72.55   10.49
   3   8  -8   22.13    5.34
  -3  -8  -8   15.83    4.87
   3  -8  -8   24.53    5.69
  -3   8  -8   18.36    5.22
  -3   8  -8   19.51    6.03
  -3  -8  -7   38.24    7.61
  -3   8  -7   35.28    7.13
   3   8  -7   28.32    5.66
   3  -8  -7   35.81    7.60
  -3   8  -7   23.61    6.98
  -3  -8  -6    9.12    2.70
  -3  -8  -6    4.18    3.65
   3  -8  -6    2.40    3.17
  -3   8  -6    5.09    5.37
  -3   8  -6    4.54    3.94
  -3  -8  -5   15.84    4.31
   3  -8  -5   10.81    3.97
  -3   8  -5   20.56    5.65
  -3  -8  -5   21.10    5.54
  -3   8  -5   17.51    4.64
  -3  -8  -4   65.87    9.40
   3  -8  -4   62.57    9.21
  -3   8  -4   66.76   10.29
  -3   8  -4   96.30   11.16
  -3  -8  -4   74.30   10.46
  -3  -8  -3   46.32    7.72
  -3   8  -3   50.98    7.84
  -3  -8  -3   58.81    9.13
   3  -8  -3   41.72    7.66
  -3   8  -3   45.00    8.59
  -3   8  -2    8.56    3.95
  -3  -8  -2    1.20    1.63
   3  -8  -2   11.03    4.05
  -3   8  -2   18.38    4.98
  -3  -8  -2   10.04    2.91
  -3  -8  -1   75.83   10.19
  -3  -8  -1   79.98   10.29
  -3   8  -1   56.72    8.98
  -3   8  -1   57.51    7.62
   3  -8  -1   71.50    9.78
   3  -8   0   17.95    5.67
  -3   8   0   18.90    5.25
  -3  -8   0   11.92    4.68
  -3   8   0   15.64    4.34
  -3  -8   0   12.58    4.24
  -3  -8   1   75.23   10.04
  -3   8   1   76.15   10.28
   3  -8   1   59.17    8.79
  -3  -8   1   68.92    9.40
  -3  -8   2    7.93    3.92
   3  -8   2   19.93    5.76
  -3  -8   2   13.23    3.48
  -3   8   2   10.61    4.08
  -3  -8   3   45.23    7.09
  -3   8   3   58.32    8.86
  -3  -8   3   44.44    7.55
   3  -8   3   35.88    7.20
  -3  -8   4   61.55    8.80
  -3  -8   4   53.22    8.69
  -3   8   4   60.38    8.80
   3  -8   4   76.64   10.38
  -3   8   5   31.09    7.32
   3  -8   5   18.24    4.37
  -3  -8   5   20.18    5.43
  -3  -8   5   20.72    5.74
   3  -8   6   10.72    4.98
  -3  -8   6    8.96    3.30
  -3   8   6    3.92    2.35
  -3  -8   6    0.27    1.77
  -3  -8   7   31.60    7.05
   3  -8   7   34.87    7.54
  -3   8   7   36.42    7.50
  -3  -8   7   32.81    6.75
  -3  -8   8   16.39    5.37
  -3  -8   8   13.39    3.86
   3  -8   8    9.75    3.26
  -3   8   9   70.42    9.89
  -3  -8   9   69.16    9.88
  -3  -8   9   63.50    9.68
   3  -8   9   68.18   10.12
  -3  -8  10   17.74    5.20
  -3  -8  10   19.82    5.62
  -3   8  10   19.86    5.97
   3  -8  10   24.57    6.64
  -3  -8  11    4.92    3.67
  -3   8  11    2.37    3.09
   3  -8  11    6.64    3.56
  -3  -8  11   -1.03    3.91
  -3  -8  12   39.16    7.74
  -3  -8  12   40.75    7.85
   3  -8  12   39.31    8.49
  -3  -8  13  102.21   12.96
  -3  -8  13  125.26   13.70
   3  -8  13   97.30   11.95
   3  -8  14   24.50    6.93
  -3  -8  14   25.42    5.80
  -3  -8  14   28.76    6.72
   3  -8  15   45.49    8.83
  -3  -8  15   62.97   10.17
  -3  -8  15   62.96    9.84
  -3  -8  16   12.11    4.83
   3  -8  16   23.57    6.65
  -3  -8  16   24.22    7.33
  -3  -8  17   19.20    6.38
  -3  -8  17   19.51    6.62
   3  -8  17   18.43    6.25
   3  -8  18    2.90    4.66
  -3  -8  18    4.18    2.42
  -3  -8  18    0.77    3.54
  -3  -8  19    6.79    4.75
   3  -8  19   12.28    5.94
  -3  -8  19   15.02    5.73
   3  -8  20    4.02    4.73
  -3  -8  20    6.91    4.92
   3  -8  20    3.97    4.18
  -3  -8  20    2.69    3.56
   3  -8  21    9.19    5.31
  -3  -8  21    3.53    2.79
   3  -8  21    3.40    4.30
   3  -8  22    3.34    3.35
   3  -8  22    9.68    6.00
  -3  -8  22    4.42    3.50
   3   9 -19   45.17    8.95
  -3   9 -19   66.81   11.25
  -3   9 -18   16.18    6.62
   3   9 -18    2.43    4.28
   3   9 -17    4.33    4.31
  -3   9 -17    6.14    3.54
   3   9 -16   24.71    6.54
  -3   9 -16   24.34    6.96
   3   9 -15   29.63    6.78
  -3   9 -15   27.86    6.13
  -3   9 -14   17.89    5.62
   3   9 -14   19.92    6.28
  -3   9 -14   25.30    6.38
  -3   9 -13   19.20    5.50
  -3   9 -13   41.30    8.39
  -3   9 -12    6.11    4.37
  -3  -9 -12    0.89    2.18
  -3  -9 -11    9.55    3.25
  -3   9 -11   23.46    6.42
  -3   9 -11   18.57    6.47
  -3   9 -10   57.00    9.93
  -3   9 -10   43.91    8.64
  -3  -9 -10   49.16    9.02
   3  -9  -9  167.20   15.72
  -3  -9  -9  155.40   16.06
  -3   9  -9  142.89   14.29
  -3   9  -9  158.83   15.89
  -3   9  -8   56.30   10.42
   3  -9  -8   46.24    7.64
  -3  -9  -8   40.56    8.03
  -3   9  -7  116.49   12.57
   3  -9  -7  124.64   13.85
  -3  -9  -7  122.53   13.61
  -3   9  -7  133.98   15.04
  -3   9  -6   76.42   11.17
  -3  -9  -6  117.18   13.26
  -3   9  -6   89.45   11.25
   3  -9  -6   98.95   11.87
  -3  -9  -5   98.86   12.32
   3  -9  -5  101.04   12.20
  -3  -9  -5  120.29   13.69
  -3   9  -5  112.97   13.30
  -3  -9  -4  150.19   14.88
  -3   9  -4  160.39   15.75
   3  -9  -4  117.02   12.85
  -3  -9  -4  172.54   15.97
  -3   9  -3  211.71   18.14
  -3  -9  -3  190.59   16.72
   3  -9  -3  248.89   19.25
  -3  -9  -3  210.51   17.34
  -3  -9  -2   44.26    8.36
  -3  -9  -2   36.97    7.43
   3  -9  -2   37.74    7.49
  -3   9  -2   40.54    8.62
  -3  -9  -1  123.35   13.36
  -3  -9  -1  150.57   14.66
   3  -9  -1  132.35   13.84
  -3   9  -1  123.87   13.72
  -3  -9   0   89.31   11.14
   3  -9   0   90.96   11.09
  -3  -9   0   72.45   10.55
  -3   9   0   66.70   10.17
   3  -9   1  136.71   13.98
  -3   9   1  126.58   13.90
  -3  -9   1  138.08   14.65
  -3  -9   1  169.54   15.68
  -3  -9   2   58.89    9.36
   3  -9   2   47.77    8.84
  -3  -9   2   48.08    8.66
  -3   9   2   29.73    6.85
  -3  -9   3  190.52   16.78
  -3  -9   3  240.45   19.05
   3  -9   3  177.27   16.45
  -3   9   3  233.48   18.62
  -3  -9   4  146.69   14.67
  -3  -9   4  148.19   14.92
   3  -9   4  169.82   15.66
  -3  -9   5  127.15   13.59
   3  -9   5   89.44   11.55
  -3  -9   5  134.55   13.98
  -3   9   5  113.83   13.10
  -3  -9   6  100.46   12.78
  -3  -9   6  109.50   12.47
   3  -9   6   87.86   11.39
  -3   9   6   93.36   11.98
  -3  -9   7  180.80   16.45
  -3  -9   7  160.14   15.83
   3  -9   7  140.99   14.86
  -3   9   7  134.35   14.60
  -3  -9   8   56.45    9.24
   3  -9   8   48.97    9.38
  -3  -9   8   47.50    8.53
  -3   9   8   67.96   10.33
  -3  -9   9  152.50   15.36
  -3   9   9  143.46   15.54
  -3  -9   9  141.06   14.66
   3  -9   9  148.08   15.21
  -3  -9  10   43.74    8.68
   3  -9  10   33.00    7.06
  -3  -9  10   37.79    7.45
   3  -9  11   14.79    5.78
  -3  -9  11   12.30    4.58
  -3  -9  11    9.09    4.93
  -3  -9  12    4.37    2.74
   3  -9  12   -1.62    3.99
  -3  -9  12    2.45    2.04
  -3  -9  13   36.70    7.99
  -3  -9  13   45.01    8.62
   3  -9  13   35.16    8.08
  -3  -9  14   18.71    5.60
   3  -9  14   10.45    5.05
  -3  -9  15   36.74    7.84
  -3  -9  15   35.70    7.68
   3  -9  15   30.93    7.45
   3  -9  16    4.64    4.46
  -3  -9  16   30.05    8.51
  -3  -9  16   23.64    7.30
  -3  -9  17    0.17    2.41
  -3  -9  17    5.31    3.31
   3  -9  17    3.11    5.25
   3  -9  18    1.78    3.80
  -3  -9  18   15.51    6.22
  -3  -9  18    2.47    4.98
  -3  -9  19   57.22   10.17
   3  -9  19   53.13   10.91
  -3  -9  19   57.97   10.71
  -3  10 -15    4.17    3.59
  -3  10 -14   -4.44    4.30
  -3  10 -13    5.99    3.90
  -3  10 -12   10.35    5.36
  -3 -10 -12   -4.61    3.05
  -3 -10 -11   53.31    9.36
  -3  10 -11   75.64   11.86
  -3  10 -10   18.65    5.77
  -3 -10 -10   25.89    7.00
   3 -10  -9   34.71   10.39
  -3 -10  -9   44.14    8.42
  -3  10  -9   43.30    9.34
  -3 -10  -8   55.71    9.55
   3 -10  -8   33.92    8.30
  -3  10  -8   49.65    9.81
   3 -10  -7    5.92    6.04
  -3  10  -7    2.02    3.06
  -3 -10  -7   -2.63    2.29
  -3 -10  -6   11.72    5.18
   3 -10  -6   11.44    5.50
  -3  10  -6    5.95    3.73
  -3 -10  -5   66.77   10.41
   3 -10  -5   70.58   11.02
  -3  10  -5   55.45   10.21
   3 -10  -4   70.48   10.33
  -3  10  -4   64.74   10.22
  -3 -10  -4   78.73   11.63
   3 -10  -3  223.24   19.27
  -3 -10  -3  183.72   17.61
  -3 -10  -3  215.63   18.62
  -3  10  -3  239.27   20.07
  -3 -10  -2   32.12    7.35
   3 -10  -2   34.71    7.30
  -3 -10  -2   19.05    6.27
  -3  10  -2   25.04    6.20
  -3 -10  -1   14.31    5.15
   3 -10  -1    7.31    3.41
  -3  10  -1   16.32    6.32
  -3 -10  -1   14.05    5.87
  -3 -10   0   22.52    6.27
   3 -10   0   27.07    6.68
  -3 -10   0   26.55    6.68
  -3  10   0   23.67    6.55
  -3 -10   1   17.03    5.40
  -3 -10   1   19.82    6.53
   3 -10   1   26.59    7.03
  -3  10   1   16.14    5.40
  -3 -10   2   31.33    7.29
  -3  10   2   36.85    7.89
  -3 -10   2   42.96    8.49
   3 -10   2   27.80    6.91
  -3 -10   3  215.11   18.92
  -3 -10   3  212.36   18.32
   3 -10   3  224.68   19.11
  -3  10   3  278.59   22.02
  -3  10   4   70.52   10.61
  -3 -10   4   86.84   11.55
   3 -10   4   65.10   10.57
  -3 -10   4   84.90   12.28
  -3 -10   5   79.94   11.10
  -3 -10   5   67.52    9.91
  -3  10   5   63.12   10.63
   3 -10   5   56.13    9.45
   3 -10   6    6.86    1.90
  -3 -10   6    2.19    2.99
  -3  10   6    4.75    4.06
  -3 -10   7    2.99    3.14
  -3 -10   7    0.78    3.95
   3 -10   7    6.45    3.64
  -3  10   7    7.95    3.13
  -3 -10   8   33.25    8.08
  -3  10   8   36.32    8.20
   3 -10   8   47.91    9.04
  -3 -10   8   40.51    7.46
  -3 -10   9   28.72    7.21
  -3 -10   9   19.41    5.87
   3 -10   9   16.56    6.24
   3 -10  10   22.84    6.06
  -3 -10  10   16.20    6.31
  -3 -10  10   16.22    5.45
  -3 -10  11   43.28    8.03
   3 -10  11   77.92   10.99
  -3 -10  11   62.46   10.66
  -3 -10  12    5.11    3.93
   3 -10  12   12.67    4.59
  -3 -10  12   11.14    6.05
  -3 -10  13   -1.03    3.50
  -3 -10  13    6.92    3.50
   3 -10  13   -2.35    3.67
   3 -10  14   14.93    5.60
  -3 -10  14   11.61    5.46
  -3 -10  14   10.91    4.62
  -3 -10  15   -0.78    3.75
  -3 -10  15   -0.80    2.84
   3 -10  15    1.55    2.52
  -3 -11  -9   19.76    5.10
  -3  11  -9   20.18    7.82
  -3  11  -8   71.35   11.49
   3 -11  -8   78.57   14.50
  -3 -11  -8   54.58   10.36
  -3 -11  -7   58.50   10.56
   3 -11  -7   60.30   10.76
  -3  11  -7   82.83   11.40
  -3 -11  -6    4.92    2.66
   3 -11  -6   16.19    5.22
  -3  11  -6   13.03    4.70
   3 -11  -5   20.08    6.14
  -3 -11  -5   18.30    6.40
  -3  11  -5   17.84    5.39
   3 -11  -4   25.55    5.46
  -3  11  -4   24.54    7.46
  -3 -11  -4   22.03    5.09
  -3 -11  -3   10.12    5.67
  -3  11  -3    5.78    2.99
   3 -11  -3    9.59    2.99
  -3 -11  -2    2.86    3.48
  -3  11  -2    2.41    3.40
   3 -11  -2    8.78    5.12
  -3 -11  -1    0.72    2.74
  -3 -11  -1    9.93    4.81
   3 -11  -1   10.65    4.20
  -3  11  -1    4.29    2.99
  -3 -11   0    6.90    5.71
  -3 -11   0    6.70    5.62
   3 -11   0   -1.04    2.05
  -3  11   0    0.02    3.26
  -3 -11   1   13.10    5.57
  -3 -11   1    2.01    2.61
   3 -11   1    4.59    3.80
  -3  11   1    6.31    2.64
  -3 -11   2    6.33    3.80
   3 -11   2    9.15    5.35
  -3  11   2    7.64    4.58
  -3 -11   2    8.95    4.84
   3 -11   3   21.81    6.24
  -3 -11   3    9.69    5.10
  -3  11   3    9.74    3.23
  -3 -11   3    8.98    3.16
  -3  11   4   28.87    7.23
  -3 -11   4   33.88    8.08
   3 -11   4   33.37    7.59
  -3 -11   4   14.88    6.07
  -3 -11   5   17.02    6.27
  -3 -11   5   24.21    6.60
  -3  11   5   14.29    5.24
   3 -11   5   25.67    6.26
  -3 -11   6   10.48    6.40
   3 -11   6    5.74    3.60
  -3  11   6   18.36    7.63
  -3 -11   6   14.25    5.80
  -3 -11   7   57.28   10.79
   3 -11   7   86.39   12.31
  -3 -11   7   55.24   10.46
  -3 -11   8   66.18   11.12
   3 -11   8   60.41    9.97
  -3 -11   8   60.16   11.15
  -3 -11   9   28.94    8.54
  -3 -11   9   25.94    8.06
   3 -11   9   25.90    8.01
  -4   0 -30   10.76    3.51
  -4   0 -29    4.66    4.32
  -4   0 -28   13.40    6.14
  -4   0 -27   94.00   12.13
  -4   0 -26  212.67   18.13
  -4   0 -25   37.20    7.60
  -4   0 -24   37.07    7.54
  -4   0 -23  119.85   12.90
  -4   0 -22  157.06   14.26
  -4   0 -21  151.44   13.87
  -4   0 -20  178.97   14.50
  -4   0 -19  204.98   15.30
  -4   0 -18  227.99   15.66
  -4   0 -17  994.12   31.68
  -4   0 -16  210.06   14.07
  -4   0 -15  323.80   16.90
  -4   0 -14  292.34   11.23
  -4   0 -14  304.88   16.19
  -4   0 -13  219.77   13.22
  -4   0 -13  195.17    9.09
  -4   0 -12  169.59   11.41
  -4   0 -11 1481.59   32.58
  -4   0 -11 1459.12   24.13
  -4   0 -10  128.75    9.20
  -4   0 -10  134.43    6.98
  -4   0  -9 1383.59   29.36
  -4   0  -9 1465.54   22.88
  -4   0  -8  443.01   16.12
  -4   0  -8  409.87   12.25
  -4   0  -7   52.51    4.32
  -4   0  -7   63.52    5.74
  -4   0  -7   48.81    5.30
  -4   0  -6  201.15   10.05
  -4   0  -6  199.77    8.32
  -4   0  -6  184.53    9.70
  -4   0  -5  395.01   11.73
  -4   0  -5  407.28   13.97
  -4   0  -5  382.71   13.85
  -4   0  -4  174.86    7.88
  -4   0  -4  191.05    9.39
  -4   0  -4  166.58    8.92
  -4   0  -3 1774.98   25.01
  -4   0  -3 1809.76   28.43
  -4   0  -3 1753.26   27.75
  -4   0  -2 1212.96   22.79
  -4   0  -2 1253.63   22.75
  -4   0  -2 1224.75   20.91
  -4   0  -1  648.51   15.72
  -4   0  -1  659.19   16.54
  -4   0  -1  649.89   16.20
  -4   0   0  893.51   18.91
  -4   0   0  772.97   17.68
  -4   0   1  638.65   16.44
  -4   0   1  670.92   15.55
  -4   0   2 1232.54   22.99
  -4   0   2 1160.98   20.19
  -4   0   3 1943.65   24.85
  -4   0   3 1792.43   28.61
  -4   0   4  189.28    7.54
  -4   0   4  168.08    9.19
  -4   0   5  401.39   14.14
  -4   0   5  405.92   10.66
  -4   0   6  232.47   10.96
  -4   0   6  187.33    7.16
  -4   0   7   62.26    5.84
  -4   0   7   53.78    3.63
  -4   0   8  417.36    9.83
  -4   0   8  421.76   15.42
  -4   0   9 1393.78   28.84
  -4   0   9 1381.37   17.42
  -4   0  10  116.41    8.58
  -4   0  11 1520.10   31.90
  -4   0  11 1410.06   15.47
  -4   0  12  184.61   11.39
  -4   0  13  178.99   11.44
  -4   0  14  312.84   15.53
  -4   0  15  366.36   17.29
  -4   0  16  196.90   12.99
   4   0  16  191.63    9.28
  -4   0  17  966.64   29.76
  -4   0  18  252.40   15.57
  -4   0  19  195.43   14.14
  -4   0  20  162.95   13.25
  -4   0  21  137.95   12.28
  -4   1 -30    6.46    4.84
  -4   1 -29   12.32    6.13
  -4   1 -28    7.10    2.93
  -4  -1 -27    0.03    4.80
  -4   1 -27   -5.18    4.06
  -4  -1 -26    7.72    4.40
  -4   1 -26    1.83    2.01
  -4  -1 -25   10.59    4.70
  -4   1 -25   15.89    5.82
  -4  -1 -24   70.06   10.19
  -4   1 -24   76.80   10.97
  -4  -1 -23    7.61    3.89
  -4   1 -23   10.37    4.15
  -4  -1 -22   21.19    5.75
  -4   1 -22   15.41    4.33
  -4   1 -21   15.21    4.48
  -4  -1 -21   16.68    3.96
  -4  -1 -20    8.66    3.84
  -4   1 -20    6.80    2.72
  -4  -1 -19   70.11    8.44
  -4   1 -19   67.42    8.81
  -4  -1 -18  101.31   10.17
  -4   1 -18  110.98   11.17
  -4  -1 -17   22.73    4.88
  -4   1 -17   21.56    4.60
  -4   1 -16  395.05   16.63
  -4   1 -16  452.08   21.29
  -4  -1 -16  457.38   20.34
  -4   1 -15   13.72    3.91
  -4  -1 -15   19.64    4.21
  -4   1 -15   15.42    3.66
  -4  -1 -14   53.38    6.40
  -4   1 -14   38.51    5.33
  -4   1 -14   53.28    6.77
  -4   1 -13   69.11    8.19
  -4  -1 -13   68.71    7.12
  -4   1 -13   73.45    6.83
  -4  -1 -13   85.22    7.79
  -4  -1 -12  118.45    8.70
  -4  -1 -12  100.74    8.19
  -4   1 -12   96.18    9.12
  -4   1 -12  109.18    8.33
  -4  -1 -11  150.10    9.76
  -4  -1 -11  140.35    9.55
  -4   1 -11  123.01    9.77
  -4   1 -11  126.50    8.57
  -4   1 -10  863.20   25.07
  -4  -1 -10  914.02   22.93
  -4  -1 -10  867.93   23.19
  -4   1 -10  887.71   22.48
  -4  -1  -9    8.29    2.41
  -4  -1  -9    7.39    1.29
  -4   1  -9    2.95    2.07
  -4   1  -9    6.85    2.32
  -4  -1  -9    5.73    2.01
  -4   1  -8  254.95   11.47
  -4  -1  -8  228.23    7.30
  -4   1  -8  265.91   13.44
  -4  -1  -8  247.21   11.11
  -4  -1  -8  250.35   11.97
  -4  -1  -7   86.23    6.48
  -4  -1  -7   82.61    4.54
  -4   1  -7   93.04    7.61
  -4   1  -7   89.67    6.77
  -4  -1  -7   71.78    6.53
  -4   1  -6  133.98    8.15
  -4   1  -6  133.67    8.86
  -4  -1  -6  121.83    5.61
  -4  -1  -6  134.07    8.41
  -4   1  -5  144.77    8.21
  -4  -1  -5  138.78    6.14
  -4   1  -5  123.21    8.59
  -4  -1  -5  134.09    7.31
  -4  -1  -5  133.29    8.11
  -4  -1  -4  507.48   14.04
  -4   1  -4  467.85   15.02
  -4  -1  -4  521.75   12.68
  -4   1  -4  507.07   16.66
  -4  -1  -4  496.54   15.49
  -4  -1  -3   57.15    5.24
  -4   1  -3   54.60    4.92
  -4   1  -3   55.93    5.46
  -4  -1  -3   58.83    4.73
  -4  -1  -3   60.67    4.46
  -4  -1  -2   87.82    5.66
  -4   1  -2   95.36    6.58
  -4  -1  -2  101.68    6.86
  -4   1  -2  105.30    7.41
  -4  -1  -2   98.49    5.96
  -4   1  -1   21.92    3.25
  -4  -1  -1   21.69    2.83
  -4   1  -1   23.76    3.39
  -4  -1   0  306.49   11.34
  -4  -1   0  289.70   10.83
  -4   1   0  303.32   12.11
  -4  -1   1   28.35    3.47
  -4   1   1   22.26    3.27
  -4  -1   1   25.20    3.38
  -4  -1   2   87.90    6.38
  -4   1   2   99.03    6.82
  -4  -1   2  100.56    6.33
  -4  -1   3   53.23    4.55
  -4   1   3   57.33    5.28
  -4  -1   3   59.99    5.34
  -4  -1   4  512.77   13.91
  -4  -1   4  512.25   16.14
  -4   1   4  490.83   15.52
  -4  -1   5  159.76    7.70
  -4   1   5  148.59    8.75
  -4  -1   5  142.75    8.63
  -4  -1   6  128.67    6.91
  -4  -1   6  144.14    9.14
  -4   1   6  133.48    8.39
  -4  -1   7   80.97    6.88
  -4  -1   7   76.52    5.14
  -4   1   7   85.29    6.91
  -4  -1   8  254.21    9.49
  -4   1   8  245.20   11.83
  -4  -1   8  250.80   12.55
  -4  -1   9    8.49    2.60
  -4  -1   9    7.81    1.80
  -4   1   9    5.39    2.15
  -4  -1  10  867.03   17.60
  -4   1  10  838.68   23.22
  -4  -1  11  147.50    7.21
  -4   1  11  140.16    9.60
  -4  -1  11  134.71    9.82
  -4  -1  12  105.79    6.12
  -4   1  12   87.84    8.00
  -4  -1  12   93.10    8.49
  -4   1  13   75.83    7.48
  -4  -1  13   76.28    5.07
  -4  -1  13   64.96    7.39
  -4  -1  14   47.46    4.04
  -4   1  14   49.70    6.23
  -4  -1  14   35.12    5.35
  -4  -1  15   14.44    2.36
  -4   1  15   18.46    4.07
  -4  -1  15   13.98    4.05
  -4   1  16  387.33   18.28
  -4  -1  16  403.23   19.10
  -4  -1  17   21.41    4.62
  -4   1  17   29.92    5.35
  -4  -1  18  101.13   10.45
   4  -1  18   82.41    8.01
  -4   1  18  110.93   10.14
  -4  -1  19   67.12    8.61
  -4   1  19   77.61    9.00
  -4   1  20    3.17    2.22
  -4  -1  20    6.80    3.70
  -4  -1  21   13.65    4.57
  -4  -1  22   12.90    4.35
  -4   2 -30   15.89    6.63
  -4   2 -29    6.27    4.00
  -4   2 -28   -0.79    3.75
  -4   2 -27  113.20   13.68
  -4   2 -26   81.13   11.33
  -4   2 -25   99.02   11.78
  -4   2 -24   23.41    5.90
  -4   2 -23   14.94    4.56
  -4  -2 -22   88.28   11.45
  -4   2 -22   79.39   10.17
  -4  -2 -21   78.11    9.46
  -4   2 -21  107.76   12.32
  -4  -2 -20    9.85    3.88
  -4   2 -20    1.82    2.10
   4   2 -20   15.47    4.51
  -4   2 -19  181.37   14.95
   4   2 -19  194.43   15.32
  -4  -2 -19  187.41   13.85
  -4   2 -18   24.36    5.03
  -4  -2 -18   22.66    4.76
   4   2 -18   24.62    5.71
  -4  -2 -17   26.30    5.04
   4   2 -17   14.05    3.50
  -4   2 -17   20.63    4.55
  -4   2 -17   23.47    5.15
  -4  -2 -17   24.92    4.77
   4   2 -16  338.05   19.09
  -4  -2 -16  336.05   16.73
  -4   2 -16  361.43   19.95
  -4   2 -16  356.53   18.05
  -4  -2 -16  303.07   15.97
  -4   2 -15  187.30   13.91
  -4  -2 -15  188.76   11.85
   4   2 -15  210.42   14.61
  -4   2 -15  186.18   12.75
  -4  -2 -15  164.74   11.20
  -4   2 -14   68.03    8.44
  -4  -2 -14   52.39    6.94
   4   2 -14   71.39    8.37
  -4  -2 -14   73.97    7.59
  -4   2 -14   62.01    7.49
  -4  -2 -13  166.65   10.54
   4   2 -13  160.79   12.42
  -4   2 -13  154.46   11.00
  -4   2 -13  146.99   12.04
  -4  -2 -13  153.48   10.50
  -4   2 -12  283.85   15.95
   4   2 -12  325.20   16.82
  -4  -2 -12  304.36   13.41
  -4  -2 -12  307.24   14.83
  -4   2 -12  293.46   14.97
  -4  -2 -11   82.70    6.77
  -4  -2 -11   80.37    7.38
  -4   2 -11   64.43    7.10
   4  -2 -11   49.78    3.21
  -4   2 -11   57.11    7.19
   4   2 -11   56.74    7.03
  -4   2 -10  295.26   15.70
  -4  -2 -10  351.68   15.18
   4  -2 -10  313.29    8.46
  -4  -2 -10  331.04   12.58
   4   2 -10  319.39   16.03
  -4   2 -10  298.56   14.76
  -4   2  -9  123.12    9.74
  -4  -2  -9  100.58    3.91
  -4  -2  -9  118.60    7.48
   4  -2  -9  118.33    5.63
  -4   2  -9  108.00    8.68
  -4  -2  -9  113.85    8.56
   4   2  -9  111.59    9.25
  -4  -2  -8   23.69    3.27
  -4   2  -8   29.14    4.72
  -4  -2  -8   23.88    3.88
  -4  -2  -8   27.24    2.30
  -4   2  -8   31.43    4.57
  -4  -2  -7    7.52    1.87
  -4   2  -7    3.99    2.10
  -4   2  -7    7.05    2.32
  -4  -2  -7    3.69    1.00
  -4  -2  -7    6.53    2.11
  -4  -2  -6    6.39    1.70
  -4  -2  -6    6.65    1.46
  -4   2  -6    8.48    2.56
  -4  -2  -6    8.22    1.70
  -4   2  -6    9.98    2.29
  -4   2  -5   45.25    5.18
  -4  -2  -5   52.28    3.94
  -4  -2  -5   48.65    5.24
  -4   2  -5   54.53    6.08
  -4  -2  -5   51.26    4.03
  -4   2  -4 1009.49   24.79
  -4  -2  -4 1022.70   24.00
  -4  -2  -4 1028.75   18.76
  -4  -2  -4  978.39   17.07
  -4   2  -3  318.56   13.79
  -4   2  -3  330.24   14.13
  -4  -2  -3  334.83   13.33
  -4  -2  -3  351.58   10.03
  -4  -2  -3  318.53   10.99
  -4  -2  -2  141.28    8.62
  -4   2  -2  138.06    9.02
  -4  -2  -2  131.70    7.20
  -4   2  -2  122.37    8.43
  -4   2  -1   76.40    6.61
  -4   2  -1   81.26    6.63
  -4  -2  -1   78.99    6.46
  -4  -2  -1   79.10    5.87
  -4  -2   0  114.00    7.23
  -4   2   0  127.59    8.38
  -4   2   0  116.89    8.22
  -4  -2   0  118.77    7.84
  -4   2   1   74.23    6.37
  -4  -2   1   85.00    6.43
  -4  -2   1   75.55    6.32
  -4   2   1   75.32    6.54
  -4   2   2  136.65    8.69
  -4  -2   2  123.92    7.92
  -4   2   2  120.68    8.25
  -4  -2   2  136.37    8.47
  -4  -2   3  321.34   12.60
  -4   2   3  329.02   13.46
  -4  -2   3  322.05   13.30
  -4  -2   4  999.71   22.41
  -4   2   4  994.62   23.60
  -4  -2   4  934.14   24.00
  -4  -2   5   47.26    5.35
  -4   2   5   50.63    5.41
  -4  -2   5   46.82    4.88
  -4   2   6    5.99    2.12
  -4  -2   6    9.77    1.97
  -4  -2   6    8.68    2.57
  -4  -2   7    4.72    1.37
  -4  -2   7    4.48    1.46
  -4   2   7    6.42    1.81
  -4   2   8   30.10    4.14
  -4  -2   8   30.04    3.94
  -4  -2   8   26.29    4.50
  -4  -2   9  123.11    7.81
  -4   2   9  100.58    7.90
  -4  -2   9  117.10    9.38
  -4  -2  10  329.83   13.32
  -4   2  10  324.89   14.40
  -4  -2  10  317.57   15.65
  -4  -2  11   62.07    6.86
  -4  -2  11   75.78    6.34
  -4   2  11   65.52    6.57
  -4  -2  12  320.13   13.22
  -4  -2  12  313.86   16.27
  -4   2  12  321.46   14.93
  -4  -2  13  150.78    9.16
  -4   2  13  162.68   11.00
  -4  -2  13  160.83   11.85
  -4   2  14   65.02    7.10
  -4  -2  14   55.20    7.24
  -4  -2  14   70.90    6.32
  -4   2  15  187.13   12.08
  -4  -2  15  170.13    9.89
  -4  -2  15  195.19   13.76
  -4  -2  16  347.20   18.43
  -4  -2  16  315.25   13.72
  -4   2  16  326.98   16.21
  -4   2  17   16.36    3.44
  -4  -2  17   25.31    5.64
  -4  -2  18   21.35    4.75
  -4   2  18   21.39    4.82
  -4  -2  19  210.73   15.47
  -4  -2  20   17.59    4.71
  -4  -2  21  100.69   11.30
  -4  -2  22   90.68   11.04
  -4  -2  23    9.10    4.25
  -4  -2  24   17.87    5.83
  -4   3 -29   29.32    7.51
  -4   3 -28    8.83    2.26
  -4   3 -27    5.30    2.73
  -4   3 -26   14.26    6.46
  -4   3 -25   -1.32    1.89
  -4   3 -24   -0.70    2.83
  -4   3 -23    4.65    3.64
   4   3 -23    4.27    2.85
   4   3 -22    4.43    2.68
  -4   3 -22    2.52    3.78
   4   3 -21    2.39    1.52
  -4   3 -21    0.79    3.22
  -4   3 -20   -0.31    1.83
   4   3 -20   -0.81    3.53
  -4   3 -19   14.65    4.62
   4   3 -19    6.55    2.05
  -4   3 -18   20.62    4.87
  -4   3 -18   22.10    5.00
   4   3 -18   26.95    6.25
  -4   3 -17   54.88    8.25
   4   3 -17   53.38    8.08
  -4   3 -17   52.00    7.66
  -4  -3 -16   23.58    4.51
  -4  -3 -16   32.96    6.14
   4   3 -16   31.27    6.23
  -4   3 -16   25.29    5.88
  -4   3 -16   19.36    3.86
  -4   3 -15   69.99    8.59
  -4  -3 -15   78.28    8.51
  -4   3 -15   79.27    9.27
  -4  -3 -15   71.75    7.27
   4   3 -15   72.95    8.80
   4   3 -14    2.75    2.88
  -4  -3 -14    1.70    1.18
  -4   3 -14    2.21    2.57
  -4  -3 -14   -0.67    1.44
  -4   3 -14    5.22    2.78
  -4  -3 -13   36.39    4.70
   4   3 -13   50.57    7.14
  -4   3 -13   42.42    6.82
  -4   3 -13   28.63    5.31
  -4  -3 -13   37.20    5.70
   4  -3 -12   51.37    4.50
   4   3 -12   63.82    7.64
  -4   3 -12   56.34    7.46
  -4   3 -12   74.10    8.09
  -4  -3 -12   56.70    5.40
  -4  -3 -12   52.24    6.55
   4   3 -11   14.86    3.33
   4  -3 -11   12.48    2.45
  -4  -3 -11   18.86    3.83
  -4   3 -11    8.18    3.15
  -4   3 -11   13.83    3.86
  -4  -3 -11   12.46    2.37
  -4  -3 -10   19.81    2.90
  -4  -3 -10   18.33    4.35
  -4   3 -10   24.30    4.99
   4  -3 -10   25.26    3.35
  -4   3 -10   28.89    5.00
   4   3 -10   21.73    4.15
  -4  -3 -10   19.12    1.86
   4   3  -9   51.33    6.33
   4  -3  -9   59.40    5.15
  -4   3  -9   47.40    6.34
  -4  -3  -9   64.24    4.49
  -4  -3  -9   59.86    3.73
  -4  -3  -9   57.30    6.46
  -4  -3  -8    4.85    1.86
   4  -3  -8    5.90    1.59
  -4  -3  -8    4.31    1.06
   4   3  -8    8.55    2.44
  -4   3  -8    2.10    1.00
  -4  -3  -8    7.97    1.59
   4  -3  -7   70.95    5.69
  -4  -3  -7   61.64    3.75
  -4   3  -7   72.11    7.42
   4   3  -7   61.50    6.38
  -4   3  -7   57.14    6.78
  -4  -3  -7   64.37    6.70
  -4  -3  -7   64.31    4.65
  -4  -3  -6  457.06    9.23
  -4  -3  -6  540.75   14.19
  -4  -3  -6  482.88   18.11
  -4   3  -6  509.20   19.68
   4   3  -6  501.34   17.82
  -4   3  -6  472.05   18.99
  -4  -3  -5   84.48    7.48
  -4  -3  -5   80.39    5.78
  -4   3  -5   71.05    7.55
  -4   3  -5   85.44    8.09
  -4  -3  -4   22.47    3.30
  -4   3  -4   24.71    4.45
  -4  -3  -4   28.50    4.52
  -4  -3  -4   22.08    2.06
  -4   3  -4   27.04    4.63
  -4  -3  -3   70.18    3.98
  -4  -3  -3   68.08    5.90
  -4  -3  -3   73.08    6.98
  -4   3  -3   78.39    7.43
  -4  -3  -2   87.03    6.70
  -4   3  -2   83.78    7.66
  -4  -3  -2   71.05    6.82
  -4   3  -2   76.44    7.15
  -4   3  -1  189.28   11.39
  -4  -3  -1  174.59    9.68
  -4  -3  -1  208.63   11.59
  -4   3  -1  182.04   10.72
  -4   3   0  482.06   18.22
  -4  -3   0  508.32   18.03
  -4  -3   0  471.16   16.43
  -4   3   0  527.21   18.41
  -4  -3   1  152.06    9.82
  -4   3   1  178.51   10.87
  -4   3   1  182.16   10.62
  -4  -3   1  188.10   10.51
  -4  -3   2   78.67    7.16
  -4   3   2   87.53    7.59
  -4  -3   2   65.28    6.45
  -4   3   2   76.00    6.89
  -4   3   3   78.89    7.24
  -4  -3   3   66.27    6.66
  -4   3   3   84.54    7.21
  -4  -3   3   77.13    6.94
  -4   3   4   30.11    4.24
  -4  -3   4   22.87    3.94
  -4  -3   4   24.15    4.25
  -4   3   4   27.79    4.09
  -4   3   5   86.36    7.74
  -4  -3   5   85.21    7.64
  -4  -3   5   79.14    7.68
  -4   3   6  486.84   18.12
  -4  -3   6  482.10   17.81
  -4  -3   6  487.71   19.25
  -4   3   7   58.56    6.27
  -4  -3   7   69.44    7.43
  -4  -3   7   70.36    6.77
  -4  -3   8    4.22    1.92
  -4   3   8    4.27    1.89
  -4  -3   8    3.53    1.78
  -4  -3   9   58.24    6.87
  -4  -3   9   69.96    6.87
  -4   3   9   47.13    5.82
  -4   3  10   29.55    4.74
  -4  -3  10   28.66    5.17
  -4  -3  10   26.78    4.24
  -4  -3  11   11.96    2.99
  -4  -3  11   16.68    3.20
  -4   3  11    8.66    2.57
  -4  -3  12   53.64    7.09
  -4  -3  12   51.49    6.05
  -4   3  12   55.53    6.62
  -4  -3  13   35.45    5.83
  -4  -3  13   40.37    5.28
  -4   3  13   35.73    5.51
  -4  -3  14    4.56    2.76
  -4  -3  14    4.85    2.42
  -4   3  14   -0.38    1.37
  -4   3  15   74.03    7.83
  -4  -3  15   77.35    7.84
  -4  -3  15   79.55    9.11
  -4  -3  16   21.84    4.02
  -4  -3  16   30.47    5.81
  -4   3  16   19.22    4.41
  -4  -3  17   55.75    7.61
  -4   3  17   44.95    5.93
  -4  -3  17   32.81    5.03
  -4  -3  18   18.04    4.67
  -4  -3  19    8.10    3.61
  -4  -3  20    0.03    2.88
   4  -3  21    0.61    3.25
  -4  -3  21    0.23    2.44
  -4  -3  22    2.32    2.04
  -4  -3  23   10.08    4.42
  -4  -3  24    5.73    3.04
  -4  -3  25    6.46    4.29
  -4   4 -28    4.18    2.68
  -4   4 -27   52.60    9.86
  -4   4 -26   64.27   10.41
  -4   4 -25   35.53    7.73
   4   4 -25   44.49    8.17
   4   4 -24   21.21    5.92
  -4   4 -24   20.64    5.16
  -4   4 -23   42.14    8.19
   4   4 -23   37.52    7.76
  -4   4 -22   34.27    6.96
   4   4 -22   38.33    8.02
   4   4 -21  133.38   13.81
  -4   4 -21  120.19   13.08
   4   4 -20   69.69   10.01
  -4   4 -20   68.96   10.05
   4   4 -19    9.82    4.01
  -4   4 -19    8.51    4.11
  -4   4 -18   18.55    5.51
   4   4 -18   19.42    4.64
  -4   4 -18   21.59    5.78
   4   4 -17    8.98    3.06
  -4   4 -17   12.47    3.99
  -4   4 -17    8.21    3.37
  -4   4 -16  256.78   17.59
   4   4 -16  276.60   17.93
  -4   4 -16  214.47   16.19
  -4  -4 -16  210.36   14.39
  -4   4 -15  830.17   31.47
   4   4 -15  776.47   29.77
  -4  -4 -15  867.15   29.02
  -4   4 -14  146.60   12.97
  -4  -4 -14  148.51   11.94
  -4   4 -14  140.46   12.58
   4   4 -14  111.06   10.70
  -4  -4 -13   65.42    7.65
  -4   4 -13   90.46    9.93
  -4   4 -13   85.78    9.72
   4   4 -13   88.80    9.41
  -4  -4 -12  239.02   14.84
  -4   4 -12  230.31   15.64
   4   4 -12  237.03   15.35
  -4   4 -12  229.03   15.62
  -4  -4 -11  221.73   13.99
   4   4 -11  212.09   13.91
   4  -4 -11  213.45   11.60
  -4   4 -11  219.45   14.75
  -4   4 -11  227.37   15.30
  -4  -4 -10  230.18   13.93
   4  -4 -10  223.83   11.95
   4   4 -10  226.36   14.00
  -4   4 -10  207.57   14.03
  -4   4 -10  226.63   15.18
  -4  -4  -9  143.22    7.49
   4   4  -9  149.63   11.17
  -4   4  -9  141.47   11.95
   4  -4  -9  133.42    9.30
  -4   4  -9  142.05   11.53
  -4  -4  -9  151.16   11.47
  -4  -4  -8   27.33    4.79
   4   4  -8   18.52    4.09
   4  -4  -8   31.22    4.52
  -4   4  -8   24.67    4.95
  -4   4  -8   26.21    5.02
  -4  -4  -8   26.63    3.77
  -4   4  -7  240.30   14.86
  -4  -4  -7  245.47   11.02
   4   4  -7  259.30   13.71
   4  -4  -7  236.00   12.41
  -4   4  -7  249.41   14.76
  -4  -4  -7  242.06   13.73
  -4   4  -6   19.18    3.99
  -4  -4  -6   26.94    4.80
  -4  -4  -6   31.08    3.99
   4  -4  -6   36.04    4.92
   4   4  -6   25.77    4.01
  -4   4  -6   32.43    5.35
   4   4  -5  154.92    9.94
  -4  -4  -5  139.70    8.83
  -4  -4  -5  122.31    9.75
   4  -4  -5  134.31    9.30
  -4   4  -5  143.02   10.82
  -4   4  -5  139.84   11.09
  -4  -4  -4  452.24   16.73
  -4  -4  -4  460.06   19.08
  -4   4  -4  480.35   20.43
  -4  -4  -3  175.36   11.72
  -4  -4  -3  165.25   10.15
  -4   4  -3  183.12   11.98
  -4   4  -3  182.32   12.45
  -4   4  -2   14.14    4.10
  -4  -4  -2   14.05    2.91
  -4   4  -2   19.50    4.23
  -4  -4  -2    9.35    2.42
  -4   4  -1   10.71    2.84
  -4   4  -1   16.24    3.72
  -4  -4  -1   14.44    2.80
  -4  -4  -1    5.06    1.48
  -4   4   0   17.87    3.87
  -4  -4   0   17.52    3.93
  -4  -4   0   13.49    3.12
  -4   4   0   15.91    3.61
  -4  -4   1    9.20    2.96
  -4   4   1   10.47    3.02
  -4   4   1    7.69    2.50
  -4  -4   1    5.93    1.95
  -4   4   2   13.00    3.11
  -4  -4   2   10.12    3.08
  -4  -4   2   12.64    2.92
  -4   4   2   10.17    2.88
  -4   4   3  178.64   12.07
  -4  -4   3  160.10   11.14
  -4  -4   3  158.07   11.10
  -4   4   3  171.67   11.03
  -4   4   4  532.24   20.65
  -4  -4   4  484.43   19.51
  -4  -4   4  485.69   19.83
  -4   4   5  120.69   10.04
  -4  -4   5  131.51   10.15
  -4  -4   5  101.23    9.51
  -4   4   5  125.23    9.59
  -4  -4   6   32.66    5.40
  -4   4   6   31.56    5.22
  -4   4   6   39.76    5.33
  -4  -4   6   30.27    4.88
  -4   4   7  218.42   13.28
  -4  -4   7  237.70   13.89
  -4  -4   7  210.06   13.69
  -4   4   8   35.09    5.42
  -4  -4   8   26.16    4.72
  -4  -4   8   31.50    5.88
  -4   4   9  135.99   10.61
  -4  -4   9  152.41   11.32
  -4  -4   9  140.48   11.53
  -4  -4  10  240.10   15.17
  -4   4  10  214.84   13.33
  -4  -4  10  227.23   13.97
  -4  -4  11  210.00   13.43
  -4  -4  11  233.71   15.45
  -4   4  11  229.29   13.95
  -4  -4  12  235.96   15.74
  -4   4  12  231.00   14.18
  -4  -4  12  236.72   14.44
  -4   4  13   76.55    8.35
  -4  -4  13   95.76    9.25
  -4  -4  13   74.30    9.03
  -4   4  14  127.97   10.57
  -4  -4  14  142.40   11.55
  -4  -4  14  139.78   12.79
  -4   4  15  821.32   27.18
  -4  -4  15  823.17   28.07
  -4  -4  15  864.34   31.27
  -4  -4  16  227.20   16.32
  -4   4  16  225.60   14.34
  -4  -4  16  210.14   14.36
  -4  -4  17   10.87    3.69
  -4  -4  17   19.59    4.71
  -4  -4  18   11.58    4.01
  -4  -4  18   19.11    5.56
  -4  -4  19   15.24    4.60
  -4  -4  20   82.52   10.74
  -4  -4  21  111.15   12.51
  -4  -4  22   26.50    6.23
   4  -4  22   24.00    7.19
  -4  -4  23   29.59    7.44
  -4  -4  24    8.42    3.97
  -4  -4  25   40.76    8.39
  -4  -4  26   71.52   11.36
  -4   5 -27    9.96    5.83
  -4   5 -26    2.27    2.55
   4   5 -26   -0.53    4.24
   4   5 -25   -0.01    2.51
  -4   5 -25    5.59    2.81
  -4   5 -24   50.46    9.03
   4   5 -24   33.51    7.49
   4   5 -23    3.08    1.96
  -4   5 -23    1.42    1.87
   4   5 -22   19.91    6.42
  -4   5 -22   12.68    5.32
   4   5 -21    4.36    3.51
  -4   5 -21    0.24    3.82
   4   5 -20   25.10    5.74
  -4   5 -20   24.24    6.36
  -4   5 -19   16.61    5.44
   4   5 -19    8.56    2.84
  -4   5 -18   40.57    7.46
   4   5 -18   27.86    6.75
  -4   5 -18   33.99    6.89
   4   5 -17   99.51   11.20
  -4   5 -17   92.55   10.91
  -4   5 -17  111.74   12.88
   4   5 -16  147.53   13.48
  -4   5 -16  140.59   13.38
  -4   5 -16  133.49   13.50
   4   5 -15  316.29   19.35
  -4   5 -15  275.32   18.54
  -4  -5 -15  262.42   17.00
  -4   5 -15  262.79   18.67
  -4   5 -14   30.09    6.39
  -4  -5 -14   27.60    5.73
   4   5 -14   22.44    5.05
  -4   5 -14   22.84    5.50
  -4  -5 -13  153.77   12.76
  -4   5 -13  167.04   14.05
   4   5 -13  173.57   13.84
  -4   5 -13  158.58   13.90
  -4  -5 -12  202.46   14.34
  -4   5 -12  183.38   14.89
  -4   5 -12  187.31   14.81
   4   5 -12  230.25   15.27
  -4   5 -11    6.70    4.10
  -4  -5 -11    8.58    2.87
   4   5 -11   12.55    4.29
   4  -5 -11    7.38    2.82
  -4   5 -11    4.82    2.74
  -4   5 -10  105.95   10.90
  -4   5 -10   96.29   10.41
   4  -5 -10   87.27    8.71
   4   5 -10   95.46    9.37
  -4  -5 -10  104.60   10.26
   4   5  -9   31.54    6.07
  -4   5  -9   38.44    6.76
   4  -5  -9   44.39    6.44
  -4  -5  -9   45.45    6.48
  -4  -5  -9   40.24    5.39
  -4   5  -9   46.11    7.00
  -4  -5  -8   25.61    5.01
   4  -5  -8   31.42    5.33
   4   5  -8   36.79    5.97
  -4   5  -8   18.83    4.21
  -4   5  -8   30.50    5.93
  -4  -5  -8   29.02    4.07
  -4   5  -7   43.13    6.73
   4   5  -7   41.23    5.55
   4  -5  -7   36.55    5.64
  -4  -5  -7   43.52    6.51
  -4   5  -7   43.30    6.80
  -4  -5  -7   41.08    5.43
  -4   5  -6   13.09    2.60
  -4  -5  -6   19.10    3.95
   4   5  -6   18.15    3.80
  -4  -5  -6   23.68    4.70
  -4   5  -6   22.68    5.26
   4  -5  -6   18.19    3.98
  -4  -5  -5   32.30    5.56
  -4   5  -5   25.50    4.83
   4   5  -5   35.52    4.92
   4  -5  -5   25.35    4.52
  -4  -5  -5   31.78    4.79
  -4   5  -5   26.21    5.52
  -4  -5  -4  150.31   11.59
  -4   5  -4  140.77   11.43
   4   5  -4  152.94    9.95
   4  -5  -4  159.97   11.57
  -4  -5  -4  126.83    9.88
  -4   5  -4  145.94   12.49
  -4  -5  -3   41.32    6.38
  -4   5  -3   45.55    6.15
   4  -5  -3   40.08    5.78
  -4   5  -3   32.70    5.73
  -4  -5  -3   48.63    6.09
  -4   5  -2    0.67    2.20
   4  -5  -2    2.84    2.49
  -4  -5  -2    1.77    1.27
  -4   5  -2    4.72    2.51
  -4  -5  -2    4.15    2.32
  -4  -5  -1   85.60    9.03
  -4  -5  -1  114.60    9.73
   4  -5  -1   89.58    8.98
  -4   5  -1  110.67   10.30
  -4   5  -1   93.22    8.92
  -4   5   0   30.12    4.94
  -4  -5   0   34.71    5.74
   4  -5   0   41.57    5.95
  -4   5   0   37.47    6.02
  -4  -5   0   36.53    5.87
  -4   5   1   95.75    8.86
  -4   5   1   88.10    9.12
  -4  -5   1  106.05    9.88
  -4   5   2    0.10    1.78
  -4  -5   2    4.47    2.59
  -4  -5   2    4.82    2.33
  -4   5   2    0.56    1.34
  -4  -5   3   29.63    5.41
  -4   5   3   36.56    5.32
  -4  -5   3   34.26    5.48
  -4  -5   4  133.91   11.06
  -4   5   4  172.44   11.72
  -4  -5   4  151.37   11.89
  -4   5   4  136.83   11.43
  -4  -5   5   33.41    5.66
  -4   5   5   22.14    4.61
  -4  -5   5   34.18    6.09
  -4   5   5   35.85    5.70
  -4   5   6   14.32    3.68
  -4  -5   6   17.99    4.60
  -4  -5   6   27.33    5.78
  -4   5   6   15.17    3.62
  -4  -5   7   43.27    6.48
  -4   5   7   52.14    6.94
  -4  -5   7   40.80    6.25
  -4   5   8   25.38    5.07
  -4  -5   8   14.95    3.21
  -4  -5   8   18.59    4.83
  -4   5   8   19.97    4.13
  -4  -5   9   34.04    5.87
  -4   5   9   39.06    6.04
  -4  -5   9   49.30    6.95
  -4   5   9   46.24    6.28
  -4   5  10  112.78   10.48
  -4  -5  10  101.88   10.20
  -4  -5  10  102.23   10.92
  -4  -5  11   -0.60    2.28
  -4   5  11    5.61    3.43
  -4  -5  11    5.25    3.34
  -4   5  12  171.60   13.53
  -4  -5  12  190.06   13.96
  -4  -5  12  203.39   15.47
  -4   5  13  146.59   11.95
  -4  -5  13  190.20   13.97
  -4  -5  13  164.91   14.15
  -4   5  14   27.31    5.27
  -4  -5  14   29.36    5.75
  -4  -5  14   19.81    5.20
  -4  -5  15  243.14   16.41
  -4  -5  15  264.07   17.90
  -4   5  15  243.96   15.70
  -4  -5  16  142.06   13.57
  -4  -5  16  123.00   12.07
  -4  -5  17  116.78   11.43
  -4  -5  17  145.15   13.85
  -4  -5  18   49.51    8.49
  -4  -5  18   37.73    7.14
   4  -5  18   37.73    7.16
  -4  -5  19   19.42    6.22
   4  -5  19    8.91    3.13
   4  -5  20   15.78    6.10
  -4  -5  20   21.70    6.56
   4  -5  21    3.44    4.52
  -4  -5  21    8.03    4.02
   4  -5  22    9.57    4.33
   4  -5  22   11.09    4.56
  -4  -5  22   13.83    4.87
   4  -5  23    9.88    5.09
  -4  -5  23    2.61    2.48
  -4  -5  24   52.04    9.61
  -4  -5  25    8.97    6.00
  -4  -5  26    0.81    3.61
   4   6 -26   50.44    9.66
  -4   6 -26   48.77    9.46
  -4   6 -25   12.90    3.19
   4   6 -25   20.99    6.31
  -4   6 -24   34.64    8.05
   4   6 -24   34.34    7.61
  -4   6 -23   78.81   11.29
   4   6 -23   66.71   10.18
   4   6 -22   54.89    9.71
  -4   6 -22   45.98    9.05
   4   6 -21   84.74   11.25
  -4   6 -21  111.54   13.40
   4   6 -20  245.56   19.13
  -4   6 -20  219.53   18.42
  -4   6 -19   24.98    7.08
   4   6 -19   15.90    5.06
  -4   6 -18   13.22    4.72
  -4   6 -18    7.49    2.90
   4   6 -18   11.66    3.28
  -4   6 -17  114.05   12.53
   4   6 -17  132.05   13.36
  -4   6 -17  124.07   13.31
  -4   6 -16   33.97    6.64
  -4   6 -16   35.81    8.75
   4   6 -16   52.36    8.23
  -4   6 -15  578.87   28.84
   4   6 -15  686.60   29.39
  -4   6 -15  745.87   31.62
  -4  -6 -15  630.76   28.16
  -4  -6 -14  194.56   15.57
   4   6 -14  178.97   15.08
  -4   6 -14  166.24   15.34
  -4  -6 -13   33.88    6.36
  -4   6 -13   33.31    6.55
   4   6 -13   47.45    7.26
  -4   6 -13   49.65    8.71
  -4  -6 -12   40.68    6.72
   4   6 -12   54.73    7.94
  -4   6 -12   37.91    6.95
  -4   6 -12   45.22    7.60
  -4  -6 -11  516.43   24.34
   4  -6 -11  481.66   22.25
   4   6 -11  560.72   24.70
  -4   6 -11  536.31   26.39
  -4   6 -11  523.04   25.01
  -4  -6 -10  140.63   12.45
  -4   6 -10  166.89   13.77
   4  -6 -10  147.16   12.40
   4   6 -10  126.70   11.25
  -4   6 -10  130.21   12.93
   4  -6  -9  191.41   14.01
   4   6  -9  149.68   12.69
  -4   6  -9  153.58   13.08
  -4   6  -9  233.59   17.41
  -4  -6  -9  208.86   15.18
  -4  -6  -8   60.39    8.42
  -4   6  -8   33.71    6.10
   4   6  -8   51.29    6.91
   4  -6  -8   68.20    8.49
  -4   6  -8   59.73    8.26
   4  -6  -7   27.61    5.77
  -4  -6  -7   34.80    6.13
   4   6  -7   33.67    5.51
  -4   6  -7   34.25    6.85
  -4  -6  -7   29.25    5.54
  -4   6  -7   24.99    6.06
   4   6  -6  276.67   15.26
   4  -6  -6  268.15   16.37
  -4   6  -6  278.63   17.04
  -4  -6  -6  292.63   16.00
  -4  -6  -6  265.38   16.98
  -4   6  -6  277.91   18.08
   4  -6  -5  339.20   18.35
  -4  -6  -5  333.24   18.71
   4   6  -5  379.56   17.21
  -4   6  -5  388.15   19.86
  -4   6  -5  370.01   20.77
  -4  -6  -5  361.79   18.19
  -4   6  -4    7.79    3.29
  -4   6  -4   13.39    3.59
  -4  -6  -4   16.29    4.13
   4   6  -4    9.09    2.75
   4  -6  -4    5.81    2.95
  -4  -6  -4   11.29    3.59
  -4  -6  -3  144.81   11.62
  -4   6  -3  122.21   11.55
  -4  -6  -3  129.42   11.64
   4  -6  -3  133.80   11.71
  -4   6  -3  137.88   11.58
  -4   6  -2   28.38    5.58
  -4  -6  -2   39.74    6.16
  -4  -6  -2   36.71    5.60
   4  -6  -2   30.86    6.01
  -4   6  -2   30.70    5.98
  -4  -6  -1  185.59   13.70
   4  -6  -1  203.44   14.74
  -4  -6  -1  205.10   14.71
  -4   6  -1  190.70   14.57
  -4   6  -1  178.45   13.00
  -4  -6   0  271.18   16.82
   4  -6   0  285.82   17.14
  -4   6   0  288.03   16.10
  -4  -6   0  243.28   15.56
  -4   6   0  242.61   16.49
  -4  -6   1  169.30   13.25
   4  -6   1  163.42   13.18
  -4   6   1  194.47   14.47
  -4  -6   1  173.65   13.42
  -4   6   1  194.95   13.25
  -4  -6   2   32.65    5.97
   4  -6   2   32.16    5.58
  -4  -6   2   36.60    6.14
  -4   6   2   30.40    5.45
  -4   6   2   37.88    6.52
  -4   6   3  108.54    9.96
  -4  -6   3  125.94   11.56
  -4  -6   3  148.55   12.46
   4  -6   3  109.90   11.58
   4  -6   4    8.52    3.28
  -4   6   4    8.57    3.68
  -4  -6   4    6.91    3.59
  -4   6   4    8.65    2.74
  -4  -6   4    2.17    2.54
  -4  -6   5  351.14   19.51
   4  -6   5  373.00   20.55
  -4   6   5  332.93   17.20
  -4   6   5  306.97   18.06
  -4  -6   5  342.03   19.28
  -4  -6   6  297.69   18.31
   4  -6   6  245.37   16.25
  -4  -6   6  255.19   17.26
  -4   6   6  269.37   16.55
  -4   6   6  262.58   15.52
  -4   6   7   20.07    4.78
   4  -6   7   19.79    5.67
  -4  -6   7   19.22    4.86
  -4  -6   7   25.35    5.07
  -4   6   7   21.72    4.78
  -4  -6   8   56.41    8.22
  -4   6   8   48.18    7.20
  -4   6   8   46.58    7.31
  -4  -6   8   58.12    8.52
   4  -6   8   42.71    8.38
  -4  -6   9  204.61   15.46
  -4  -6   9  187.29   15.11
   4  -6   9  191.86   15.62
  -4   6   9  237.33   14.87
  -4   6   9  219.17   15.35
  -4  -6  10  153.22   13.24
  -4   6  10  159.05   13.19
  -4  -6  10  125.40   12.34
  -4   6  10  127.93   11.32
  -4   6  11  484.05   22.69
  -4   6  11  530.86   24.00
  -4  -6  12   45.97    8.30
  -4  -6  12   47.16    7.65
   4  -6  12   42.16    7.30
  -4   6  12   47.95    7.71
  -4   6  12   37.68    6.97
  -4  -6  13   26.42    5.65
  -4   6  13   29.06    5.39
   4  -6  13   32.35    6.68
  -4  -6  14  156.37   14.41
  -4   6  14  137.28   12.38
  -4  -6  15  680.17   29.58
  -4  -6  15  623.76   29.08
  -4  -6  16   40.19    7.36
   4  -6  16   49.08    8.47
  -4  -6  16   42.52    7.46
  -4  -6  17  119.40   13.03
  -4  -6  17  111.66   12.34
   4  -6  17  131.80   13.76
  -4  -6  18   19.75    5.95
  -4  -6  18   17.08    4.41
   4  -6  18   16.29    5.68
   4  -6  19   20.56    6.26
  -4  -6  19   28.24    6.28
  -4  -6  19   37.37    7.92
  -4  -6  20  270.02   19.98
   4  -6  20  243.19   18.47
   4  -6  21  129.82   13.94
  -4  -6  21  123.50   13.81
   4  -6  22   41.43    8.88
   4  -6  22   41.03    8.09
  -4  -6  22   41.16    7.55
   4  -6  23   44.40    9.60
   4  -6  23   61.06   10.15
  -4  -6  23   47.24    8.91
  -4  -6  24   23.51    6.37
   4  -6  24   25.72    7.73
  -4  -6  25   15.45    6.59
  -4  -6  26   32.66    8.63
   4   7 -24   -2.40    4.49
  -4   7 -24    1.57    3.18
  -4   7 -23   14.17    5.36
   4   7 -23    6.88    3.52
  -4   7 -22   18.02    5.12
   4   7 -22   22.09    6.49
   4   7 -21   -0.92    2.25
  -4   7 -21    3.93    1.94
  -4   7 -20   33.70    7.48
   4   7 -20   28.38    6.28
   4   7 -19   46.54    8.72
  -4   7 -19   44.89    8.61
   4   7 -18   71.62   10.10
  -4   7 -18   73.55   11.05
  -4   7 -18   85.13   11.18
  -4   7 -17   19.26    5.12
   4   7 -17   12.32    4.38
  -4   7 -17   16.50    5.56
  -4   7 -16   36.50    7.33
   4   7 -16   35.03    7.25
  -4   7 -16   35.61    8.24
  -4   7 -15   33.83    6.55
   4   7 -15   31.91    6.73
  -4   7 -15   18.11    5.24
  -4   7 -14   13.25    4.21
  -4  -7 -14   17.39    5.33
   4   7 -14   18.97    4.97
  -4   7 -14   22.10    6.41
  -4   7 -13  104.14   12.65
   4   7 -13   83.80   10.46
  -4  -7 -13   98.09   11.80
  -4   7 -13  109.12   12.19
  -4  -7 -12   26.75    6.66
   4   7 -12   24.23    6.00
  -4   7 -12   22.94    5.73
  -4   7 -12   17.28    5.41
  -4   7 -11   67.44   10.09
  -4  -7 -11   56.01    8.41
   4   7 -11   64.97    9.27
  -4   7 -11   57.89    9.05
  -4  -7 -10  111.49   12.12
   4  -7 -10   97.89   11.09
   4   7 -10  124.80   12.17
  -4   7 -10  106.76   12.32
  -4   7 -10  121.38   12.61
  -4   7  -9   12.06    4.61
  -4  -7  -9   16.21    5.06
   4   7  -9   13.98    3.78
   4  -7  -9    7.17    3.39
  -4   7  -9   10.69    4.71
  -4   7  -8  133.89   13.62
  -4   7  -8  107.87   11.43
   4  -7  -8  126.75   12.26
   4   7  -8  137.63   12.18
  -4  -7  -8  145.15   13.61
  -4  -7  -7    8.54    3.71
   4   7  -7    4.95    2.64
   4  -7  -7    9.26    3.62
  -4  -7  -7   20.59    5.66
  -4   7  -7    6.15    4.46
  -4   7  -7   14.72    5.38
  -4  -7  -6   31.37    6.34
   4  -7  -6   34.91    6.99
  -4   7  -6   38.52    6.88
  -4   7  -6   38.88    7.40
   4   7  -6   29.53    5.32
  -4  -7  -6   37.28    6.47
  -4   7  -5   52.74    7.94
   4  -7  -5   36.66    6.40
   4   7  -5   48.17    6.49
  -4  -7  -5   41.66    7.03
  -4   7  -5   40.10    7.38
  -4  -7  -5   57.97    8.21
  -4  -7  -4   13.97    4.63
   4   7  -4   13.44    4.07
   4  -7  -4    7.06    3.23
  -4   7  -4   11.63    3.87
  -4   7  -4   14.21    4.64
  -4  -7  -4   12.39    3.91
  -4  -7  -3   24.24    5.56
  -4   7  -3   19.18    4.07
   4  -7  -3   22.79    5.48
  -4  -7  -3   18.71    4.91
  -4   7  -3   23.46    6.13
  -4  -7  -2   13.15    4.91
  -4  -7  -2    7.45    3.13
  -4   7  -2   13.45    4.10
   4  -7  -2   14.56    3.71
  -4   7  -2   10.60    4.22
  -4   7  -1    9.50    3.48
  -4  -7  -1   22.32    5.01
  -4  -7  -1   11.16    4.65
  -4   7  -1    9.25    3.19
   4  -7  -1   17.46    4.90
  -4  -7   0   62.40    8.61
   4  -7   0   81.27    9.69
  -4   7   0   55.01    8.30
  -4  -7   0   63.30    8.55
  -4   7   0   74.89    8.90
  -4  -7   1   15.37    4.55
  -4  -7   1   16.82    4.86
  -4   7   1    6.91    2.62
   4  -7   1   17.18    5.10
  -4   7   1    4.91    2.56
  -4   7   2    5.78    2.47
  -4  -7   2    7.41    3.03
  -4  -7   2    5.02    3.58
  -4   7   2   11.79    3.68
   4  -7   2    6.23    4.33
  -4  -7   3   20.63    4.34
  -4   7   3   31.38    5.50
  -4  -7   3   17.14    5.25
   4  -7   3   30.32    5.72
  -4   7   3   18.58    5.13
  -4  -7   4   12.41    3.69
   4  -7   4   14.94    4.72
  -4   7   4   16.12    4.59
  -4   7   4   20.25    4.36
  -4  -7   4   10.47    4.03
  -4  -7   5   54.12    8.20
   4  -7   5   38.64    7.19
  -4  -7   5   41.88    7.51
  -4   7   5   50.20    7.30
  -4   7   5   36.80    7.07
  -4   7   6   27.05    5.80
   4  -7   6   30.73    7.00
  -4  -7   6   29.82    6.52
  -4   7   6   26.47    5.36
  -4  -7   6   32.97    7.03
  -4   7   7    6.18    3.43
  -4  -7   7    7.67    2.89
   4  -7   7    8.04    3.34
  -4  -7   7    7.16    4.24
  -4  -7   8  121.46   12.31
   4  -7   8  144.96   13.46
  -4  -7   8  134.90   13.64
  -4   7   8  124.28   12.72
  -4   7   9   21.02    5.50
  -4  -7   9   18.90    4.42
   4  -7   9   19.17    4.45
  -4  -7   9    4.37    3.31
  -4  -7  10  120.64   12.98
  -4  -7  10  119.31   12.37
   4  -7  10  117.86   12.19
  -4   7  10  121.31   12.50
  -4  -7  11   63.35    9.24
   4  -7  11   58.06    9.09
  -4  -7  11   60.79    9.04
  -4   7  11   72.30    9.93
  -4   7  12   15.29    5.22
   4  -7  12   15.08    4.36
  -4  -7  12   24.74    5.71
  -4  -7  12   19.92    5.10
  -4  -7  13   83.07   10.36
   4  -7  13   88.29   11.18
  -4  -7  13  111.39   13.01
  -4  -7  14   16.60    5.61
  -4  -7  14   11.11    3.71
   4  -7  14   27.33    6.46
  -4  -7  15   45.93    8.58
   4  -7  15   37.72    6.91
  -4  -7  15   41.10    8.21
   4  -7  16   31.47    7.18
  -4  -7  16   34.04    7.56
  -4  -7  16   26.03    6.44
  -4  -7  17   17.53    4.89
   4  -7  17   23.91    5.87
  -4  -7  17   20.90    5.75
  -4  -7  18   71.51   11.11
  -4  -7  18   64.54   10.28
   4  -7  19   46.13    9.43
  -4  -7  19   47.97    9.12
  -4  -7  19   60.08    9.61
  -4  -7  20   17.34    5.66
   4  -7  20   25.90    8.28
   4  -7  21   -0.45    3.54
  -4  -7  21   -3.69    4.08
  -4  -7  22    8.21    4.78
   4  -7  22   15.41    5.93
   4  -7  22    7.12    4.42
  -4  -7  23   15.46    4.36
   4  -7  23    9.18    5.08
   4  -7  23   11.05    7.20
   4  -7  24    8.06    2.97
  -4  -7  24    5.40    5.23
   4   8 -21   47.42    9.23
  -4   8 -21   52.09    9.72
   4   8 -20   35.83    8.32
  -4   8 -20   31.60    7.51
   4   8 -19   60.24   10.72
  -4   8 -19   65.07   10.65
   4   8 -18   71.27   10.92
  -4   8 -18   68.36   11.54
  -4   8 -17    2.82    2.63
   4   8 -17    1.64    2.82
  -4   8 -17   -0.53    2.42
  -4   8 -16   20.74    6.17
  -4   8 -16   31.80    7.96
   4   8 -15    3.05    2.18
  -4   8 -15    9.71    5.40
  -4   8 -15    6.59    3.84
  -4   8 -14    3.79    5.55
   4   8 -14   -4.67    3.53
  -4   8 -14    4.56    3.72
  -4  -8 -13   25.90    7.34
  -4   8 -13   32.79    6.38
   4   8 -13   24.09    5.93
  -4   8 -13   29.35    6.85
  -4  -8 -12   15.05    5.77
   4   8 -12   10.38    4.09
  -4   8 -12    8.07    4.29
  -4   8 -12    8.26    3.06
  -4   8 -11   16.73    5.53
  -4  -8 -11   11.26    4.12
   4   8 -11   12.70    5.05
  -4   8 -11    2.77    2.01
  -4  -8 -10  195.50   16.63
   4  -8 -10  195.98   16.91
  -4   8 -10  199.87   16.59
  -4   8 -10  156.66   15.33
   4   8 -10  209.87   16.23
  -4  -8  -9   52.94    9.19
   4   8  -9   30.01    6.20
   4  -8  -9   29.22    6.57
  -4   8  -9   30.58    6.61
  -4   8  -9   49.74    8.34
  -4   8  -8   14.54    4.95
   4   8  -8   21.82    5.18
   4  -8  -8    9.38    3.92
  -4   8  -8    9.71    4.27
  -4  -8  -8   13.79    4.64
  -4   8  -7  124.04   12.89
  -4  -8  -7  144.23   14.22
   4  -8  -7  114.30   12.82
  -4   8  -7  125.14   13.99
  -4   8  -6  204.79   17.51
  -4  -8  -6  233.44   17.61
   4  -8  -6  211.20   17.09
  -4   8  -6  232.73   17.13
  -4  -8  -5   52.09    8.45
   4  -8  -5   57.65    8.67
  -4   8  -5   52.21    9.18
  -4   8  -5   46.29    7.69
  -4  -8  -5   54.26    8.63
   4  -8  -4   21.23    5.77
  -4   8  -4   27.26    5.68
  -4  -8  -4   22.23    6.11
  -4  -8  -4   35.67    7.10
  -4   8  -4   28.48    6.00
  -4  -8  -3    9.56    3.54
  -4  -8  -3   14.68    4.90
  -4   8  -3   24.35    5.56
   4  -8  -3   10.98    3.94
  -4   8  -3   28.06    6.20
  -4  -8  -2   15.91    5.34
  -4  -8  -2    6.94    3.99
   4  -8  -2    8.88    3.30
  -4   8  -2   10.17    4.10
  -4   8  -2    7.33    3.08
  -4  -8  -1  190.61   15.75
  -4  -8  -1  207.86   16.75
   4  -8  -1  157.51   14.71
  -4   8  -1  188.79   15.96
  -4   8  -1  169.92   14.28
  -4   8   0  250.22   18.77
  -4  -8   0  255.03   18.48
  -4  -8   0  255.83   18.68
   4  -8   0  220.79   17.14
  -4   8   0  279.44   17.85
  -4  -8   1  171.53   15.19
  -4  -8   1  164.15   14.91
   4  -8   1  161.06   14.43
  -4   8   1  181.14   14.48
  -4   8   1  148.78   14.49
  -4  -8   2   22.55    5.62
   4  -8   2   17.69    4.84
  -4   8   2   16.76    4.89
  -4  -8   2   18.61    4.99
  -4  -8   3   27.01    6.31
   4  -8   3    9.15    4.74
  -4   8   3   17.46    4.83
  -4  -8   3   15.79    4.84
  -4  -8   4   19.54    4.91
  -4  -8   4   28.23    6.33
   4  -8   4   13.25    4.49
  -4   8   4   30.01    6.49
  -4  -8   5   51.40    8.68
   4  -8   5   55.07    8.87
  -4   8   5   48.30    8.00
  -4  -8   5   60.72    8.86
  -4  -8   6  222.65   17.29
   4  -8   6  208.75   16.96
  -4  -8   6  192.19   16.32
  -4   8   6  220.93   17.59
  -4  -8   7  122.20   13.33
  -4   8   7  131.07   13.50
   4  -8   7  120.76   12.68
  -4  -8   7  143.90   14.35
  -4  -8   8   21.49    5.32
  -4  -8   8    9.07    3.03
  -4   8   8    9.78    4.76
   4  -8   8   23.13    7.20
  -4   8   9   52.31    8.97
  -4  -8   9   33.97    7.28
  -4  -8   9   46.99    8.15
   4  -8   9   35.93    7.24
  -4  -8  10  168.70   15.20
  -4   8  10  195.52   16.48
  -4  -8  10  154.92   15.18
  -4  -8  11    4.37    3.30
  -4  -8  11    7.47    3.59
   4  -8  11    5.53    2.78
  -4   8  11    5.60    3.69
   4  -8  12    0.58    3.16
  -4  -8  12   13.32    5.13
  -4  -8  12    5.38    3.85
   4  -8  13   25.58    5.92
  -4  -8  13   33.19    7.23
  -4  -8  13   20.81    5.94
  -4  -8  14    4.19    4.05
  -4  -8  14   12.19    5.70
   4  -8  14    1.73    3.59
  -4  -8  15    4.88    2.59
   4  -8  15    4.43    3.34
  -4  -8  15   12.27    4.37
  -4  -8  16   18.83    6.49
   4  -8  16   25.59    6.39
  -4  -8  16   32.22    7.97
   4  -8  17   -2.85    3.98
  -4  -8  17   -0.41    2.88
  -4  -8  17    3.64    4.81
  -4  -8  18   70.13   11.34
   4  -8  18   75.37   11.49
  -4  -8  18   64.21   10.37
  -4  -8  19   51.76    9.84
  -4  -8  19   58.63   10.47
   4  -8  19   68.20   11.32
   4  -8  20   27.79    7.80
  -4  -8  20   33.98    7.86
   4  -8  21   33.43    8.22
  -4  -8  21   54.58    9.74
   4   9 -18   -3.86    3.20
  -4   9 -18   -1.52    3.03
  -4   9 -17   15.72    5.93
   4   9 -17   12.06    4.51
  -4   9 -16   -0.31    2.91
   4   9 -16    1.14    2.85
  -4   9 -16    2.91    2.09
   4   9 -15    9.34    5.72
  -4   9 -15   14.26    5.65
  -4   9 -15    6.49    4.12
  -4   9 -14    5.61    2.79
  -4   9 -14    8.76    5.25
  -4  -9 -13   21.45    5.92
  -4   9 -13   40.86    8.48
  -4   9 -13   20.20    6.71
  -4  -9 -12   38.69    8.08
  -4   9 -12   57.87   10.15
  -4   9 -12   52.05    9.22
  -4   9 -11   10.56    4.37
  -4   9 -11    6.73    3.46
  -4  -9 -11    0.61    2.96
  -4   9 -10    1.84    2.93
  -4  -9 -10   -2.82    3.65
  -4   9 -10    5.32    3.63
  -4  -9  -9   27.32    6.73
   4  -9  -9   20.48    5.60
  -4   9  -9   28.25    7.10
  -4   9  -9   26.25    6.78
  -4   9  -8   33.23    6.86
  -4  -9  -8   40.62    8.11
  -4   9  -8   23.68    5.42
  -4  -9  -7   30.32    7.07
   4  -9  -7   33.85    7.44
  -4   9  -7   23.44    5.78
  -4   9  -7   40.74    7.96
   4  -9  -6    8.05    2.94
  -4   9  -6    9.93    4.56
  -4  -9  -6   11.76    4.62
  -4   9  -6    2.98    3.57
  -4  -9  -5    8.51    4.67
   4  -9  -5   -0.77    3.09
  -4   9  -5    0.98    3.59
  -4   9  -5    9.79    4.86
   4  -9  -4   19.91    5.89
  -4   9  -4   19.26    4.56
  -4  -9  -4   30.24    6.99
  -4  -9  -4   23.16    6.51
  -4  -9  -3   27.86    6.87
   4  -9  -3   29.88    7.27
  -4  -9  -3   26.13    7.28
  -4   9  -3   29.74    6.39
  -4  -9  -2   -1.17    2.89
  -4  -9  -2    2.48    3.41
   4  -9  -2    2.21    1.72
  -4   9  -2    1.98    2.82
   4  -9  -1   17.39    5.85
  -4  -9  -1   35.09    7.10
  -4   9  -1   36.42    8.22
  -4  -9  -1   33.56    7.48
  -4  -9   0  102.22   12.49
  -4   9   0  126.28   14.15
   4  -9   0  145.92   14.88
  -4  -9   0  121.09   13.59
  -4  -9   1   22.73    5.53
   4  -9   1   32.36    7.30
  -4   9   1   36.84    7.19
  -4  -9   1   33.98    6.95
   4  -9   2    7.79    4.81
  -4  -9   2    1.70    2.43
  -4  -9   2   -0.61    3.01
  -4   9   2    5.29    2.49
  -4   9   3   29.78    7.17
  -4  -9   3   31.87    7.43
  -4  -9   3   14.55    3.83
   4  -9   3   22.94    7.08
  -4  -9   4   28.88    6.52
  -4  -9   4   24.87    5.62
   4  -9   4   19.22    5.44
  -4   9   4   18.34    5.91
  -4  -9   5    4.24    3.31
  -4  -9   5    1.59    1.96
  -4   9   5    7.13    4.03
   4  -9   5    3.13    3.46
  -4  -9   6    9.56    4.25
   4  -9   6   12.54    4.98
  -4  -9   6    0.70    2.48
  -4   9   6    3.28    2.10
   4  -9   7   11.01    3.83
  -4  -9   7   38.24    7.97
  -4  -9   7   33.82    7.76
  -4   9   7   23.79    7.03
  -4  -9   8   32.88    7.49
  -4  -9   8   34.93    7.76
  -4   9   8   43.32    8.45
   4  -9   8   42.58    8.05
   4  -9   9   11.84    4.66
  -4  -9   9   22.31    6.65
  -4   9   9   21.52    6.01
   4  -9  10    2.05    3.45
  -4  -9  10    2.15    3.27
  -4  -9  10    1.36    4.54
  -4   9  10    0.60    4.21
  -4  -9  11    4.66    3.13
  -4  -9  11   13.65    5.29
   4  -9  11    5.62    4.50
  -4  -9  12   44.42    8.44
   4  -9  12   49.97   10.06
  -4  -9  12   38.04    8.48
   4  -9  13   19.51    6.32
  -4  -9  13   25.62    7.07
  -4  -9  13   33.42    6.89
  -4  -9  14    6.33    2.28
  -4  -9  14    6.10    4.12
   4  -9  14    8.16    5.23
  -4  -9  15   13.18    5.60
  -4  -9  15    4.27    2.67
   4  -9  15    8.39    5.96
  -4  -9  16   -3.07    3.82
  -4  -9  16   -2.03    4.08
   4  -9  16    5.13    4.85
   4  -9  17    5.32    3.65
  -4  -9  17    8.19    5.47
  -4  -9  17   13.69    6.68
  -4  -9  18    6.78    4.50
   4  -9  18    3.66    4.48
  -4  -9  18    1.85    4.91
  -4  10 -14    4.18    3.25
  -4  10 -14    4.84    3.39
  -4  10 -13   13.71    3.40
  -4  10 -13   10.23    3.20
  -4 -10 -12    6.06    4.46
  -4  10 -12    8.70    6.05
  -4  10 -12   -1.46    2.55
  -4 -10 -11   39.02    7.94
  -4  10 -11   33.00    7.35
  -4 -10 -10   48.87    9.00
  -4  10 -10   55.19    9.18
  -4 -10  -9   99.24   13.06
  -4  10  -9  122.59   14.84
  -4 -10  -8   30.82    7.29
   4 -10  -8   21.57    6.01
  -4  10  -8   16.05    6.10
  -4 -10  -7    9.51    5.56
  -4  10  -7   22.42    6.33
  -4 -10  -6   59.25   10.19
   4 -10  -6   63.10   10.16
  -4  10  -6   47.77    8.61
  -4 -10  -5   61.53   10.10
   4 -10  -5   72.21   11.19
  -4  10  -5   54.65    9.87
   4 -10  -4   25.80    7.69
  -4  10  -4   30.18    7.19
  -4 -10  -4   37.82    7.61
  -4 -10  -3   10.79    4.49
   4 -10  -3   13.78    5.50
  -4  10  -3   15.70    5.95
  -4 -10  -3    5.72    4.71
  -4 -10  -2    8.55    3.39
  -4 -10  -2    3.13    3.56
   4 -10  -2   10.86    4.92
  -4  10  -2    6.93    5.00
   4 -10  -1   26.54    7.29
  -4 -10  -1   18.66    5.80
  -4  10  -1   34.45    8.68
  -4 -10  -1   26.05    5.77
  -4 -10   0   84.81   11.83
  -4 -10   0  100.16   12.62
   4 -10   0   92.64   12.40
  -4  10   0   91.62   12.21
  -4 -10   1   23.60    6.54
  -4 -10   1   18.08    5.42
   4 -10   1   22.57    6.80
  -4  10   1   27.03    6.92
   4 -10   2   10.87    4.69
  -4 -10   2   13.67    5.65
  -4  10   2   11.19    4.59
  -4 -10   2   10.74    3.88
  -4 -10   3   10.73    4.46
  -4 -10   3    5.89    4.05
  -4  10   3   14.65    5.20
   4 -10   3   15.75    5.03
  -4  10   4   45.31    7.98
  -4 -10   4   42.08    8.27
   4 -10   4   45.29    8.90
  -4 -10   4   42.56    8.91
  -4 -10   5   64.90   10.79
   4 -10   5   63.05   10.25
  -4 -10   5   74.30   11.16
  -4  10   5   69.79   10.61
  -4 -10   6   50.85    9.14
   4 -10   6   47.49    9.28
  -4 -10   6   60.14   10.21
  -4 -10   7   24.93    7.03
  -4 -10   7   21.95    6.22
   4 -10   7   16.57    5.37
  -4  10   7   27.99    7.70
   4 -10   8   20.33    6.20
  -4 -10   8   12.85    5.90
  -4 -10   8   17.09    4.96
  -4  10   8   20.23    5.61
  -4 -10   9   87.98   11.77
  -4 -10   9   85.70   11.72
  -4 -10  10   46.97    8.26
  -4 -10  10   54.71    9.76
   4 -10  10   38.03    8.04
  -4 -10  11   33.67    7.36
  -4 -10  11   22.42    6.54
   4 -10  11   25.95    5.51
  -4 -10  12   10.57    4.72
  -4 -10  12    5.30    2.33
   4 -10  12    5.96    3.75
  -4 -10  13   10.07    4.42
  -4 -10  13   18.36    5.45
   4 -10  13   13.13    5.64
  -4 -10  14    8.52    4.21
  -4 -10  14    8.50    4.42
   4 -10  14    4.83    4.50
  -4 -11  -8   11.78    5.15
  -4  11  -8   16.35    6.78
  -4 -11  -7   43.73    9.46
   4 -11  -7   27.63    6.83
  -4  11  -7   49.07   10.02
  -4  11  -6   23.98    5.83
  -4 -11  -6   18.16    6.62
   4 -11  -6   14.11    3.58
  -4 -11  -5    0.99    2.54
   4 -11  -5    6.17    4.47
  -4  11  -5    4.52    3.90
  -4 -11  -4   -1.78    4.49
   4 -11  -4   -2.15    3.47
  -4  11  -4    6.14    3.37
  -4 -11  -3    5.10    4.47
   4 -11  -3    1.40    3.78
  -4  11  -3    8.26    4.80
  -4 -11  -2    6.34    4.16
  -4  11  -2    2.29    2.92
   4 -11  -2    6.23    4.88
  -4  11  -1   25.01    7.16
  -4 -11  -1   34.53    7.38
  -4 -11  -1   38.30    9.19
   4 -11  -1   32.93    7.60
  -4  11   0   13.09    3.71
  -4 -11   0   19.59    7.10
   4 -11   0   21.86    6.80
  -4 -11   0   30.91    7.67
  -4 -11   1   34.46    8.24
   4 -11   1   54.99    9.73
  -4 -11   1   34.36    7.08
  -4  11   1   27.96    7.33
  -4 -11   2    6.37    3.45
   4 -11   2    2.38    4.10
  -4 -11   2    6.25    2.83
  -4  11   2    9.12    5.70
  -4 -11   3    3.30    3.03
  -4 -11   3   14.32    6.43
   4 -11   3    3.21    3.02
  -4  11   3    8.57    4.10
  -4 -11   4    0.69    3.08
  -4 -11   4   -1.65    3.46
   4 -11   4    0.62    2.97
  -4  11   4    0.60    4.24
   4 -11   5    1.83    3.05
  -4  11   5    7.20    2.64
  -4 -11   5    6.94    4.63
  -4 -11   5    0.16    2.77
  -4 -11   6   10.78    4.42
  -4 -11   6   10.75    5.37
   4 -11   6   24.23    5.87
  -4  11   6   18.98    6.24
  -4 -11   7   56.30    9.87
  -4 -11   7   33.04    7.75
   4 -11   7   44.92    8.68
  -4 -11   8    9.76    5.09
  -4 -11   8   15.15    6.56
   4 -11   8   14.99    5.86
  -5   0 -30   -4.84    4.62
  -5   0 -29    0.55    3.29
  -5   0 -28    5.39    4.02
  -5   0 -27    4.31    4.35
  -5   0 -26   -0.47    1.90
  -5   0 -25   -2.92    4.51
  -5   0 -24    0.83    2.44
  -5   0 -23    0.18    3.49
  -5   0 -22    4.06    3.42
  -5   0 -21    0.12    2.42
  -5   0 -20   -1.15    1.96
  -5   0 -19   -1.48    1.84
  -5   0 -18    0.37    1.78
  -5   0 -17    1.63    1.94
  -5   0 -16    1.40    2.68
  -5   0 -15   -1.05    1.00
  -5   0 -14    2.23    2.63
  -5   0 -14    0.01    1.48
  -5   0 -13    0.18    1.07
  -5   0 -13    0.96    1.42
  -5   0 -12   -0.03    1.18
  -5   0 -12    0.45    0.71
  -5   0 -11    0.43    1.87
  -5   0 -11   -0.05    1.07
  -5   0 -10    0.21    0.86
  -5   0 -10    1.10    1.23
  -5   0  -9    0.71    0.93
  -5   0  -9    0.75    1.47
  -5   0  -8   -0.22    1.19
  -5   0  -8    0.23    1.02
  -5   0  -8    1.07    1.01
  -5   0  -7   -0.12    0.58
  -5   0  -7   -0.15    1.57
  -5   0  -7   -1.14    1.36
  -5   0  -6   -0.07    1.04
  -5   0  -6    0.04    1.63
  -5   0  -6   -0.47    0.97
  -5   0  -5    0.29    1.12
  -5   0  -5    0.12    1.03
  -5   0  -5    0.46    1.11
  -5   0  -4    0.47    0.92
  -5   0  -4   -0.14    0.64
  -5   0  -4   -0.15    1.51
  -5   0  -3    1.09    1.26
  -5   0  -3   -0.55    1.20
  -5   0  -3    0.84    0.93
  -5   0  -2   -0.56    0.83
  -5   0  -2   -0.78    0.93
  -5   0  -2    0.05    0.89
  -5   0  -1    0.90    1.07
  -5   0  -1    0.91    1.26
  -5   0  -1    0.80    0.91
  -5   0   0   -0.59    1.03
  -5   0   0   -0.09    0.91
  -5   0   1    2.17    1.00
  -5   0   1    1.34    1.06
  -5   0   2    1.20    1.01
  -5   0   2    1.75    1.53
  -5   0   3   -0.07    1.23
  -5   0   3   -0.03    0.53
  -5   0   4    0.39    1.03
  -5   0   4    1.16    0.94
  -5   0   5    0.32    1.07
  -5   0   5    0.38    1.21
  -5   0   6    0.13    0.53
  -5   0   6    1.94    1.82
  -5   0   7    0.81    1.02
  -5   0   7   -0.36    0.68
  -5   0   8    0.66    1.68
  -5   0   8    0.23    0.49
  -5   0   9    0.06    0.64
  -5   0   9    0.90    1.38
  -5   0  10    0.66    2.05
  -5   0  10    0.55    0.73
  -5   0  11    0.20    1.04
  -5   0  11    0.17    0.63
  -5   0  12   -0.29    1.71
  -5   0  12    0.00    0.63
  -5   0  13   -0.02    0.33
  -5   0  13    0.17    1.14
  -5   0  14   -0.33    1.82
  -5   0  15    2.93    2.23
  -5   0  16   -0.71    1.53
  -5   0  17    0.67    1.34
  -5   0  18   -0.76    2.62
  -5   0  19   -0.58    1.68
  -5   0  20   -0.44    1.63
  -5   0  21   -0.02    2.07
  -5   0  22   -0.09    3.16
  -5   1 -30    9.32    5.61
  -5   1 -29   26.29    6.20
  -5   1 -28   20.65    6.26
  -5   1 -27  102.64   13.16
  -5   1 -26  186.04   16.60
  -5  -1 -25  107.83   12.90
  -5   1 -25  120.67   13.26
  -5   1 -24   42.10    8.27
  -5  -1 -24   17.95    5.40
  -5  -1 -23    3.34    2.24
  -5   1 -23    8.75    2.80
  -5   1 -22   40.41    7.72
  -5  -1 -22   45.01    7.75
  -5  -1 -21   64.95    8.87
  -5   1 -21   80.32   10.36
  -5   1 -20    5.18    3.53
  -5  -1 -20    4.62    3.78
  -5   1 -19   70.31    9.39
  -5  -1 -19   53.00    8.13
  -5  -1 -18   55.96    7.55
  -5   1 -18   50.45    7.52
  -5  -1 -17   65.39    8.36
  -5   1 -17   85.24    9.81
  -5  -1 -16  847.62   27.88
  -5   1 -16  845.58   29.97
  -5   1 -15  381.50   16.72
  -5  -1 -15  377.47   18.36
  -5   1 -15  364.77   19.65
  -5   1 -14  262.71   13.51
  -5   1 -14  282.79   16.61
  -5  -1 -14  260.54   15.09
  -5   1 -13  109.90   10.24
  -5   1 -13  110.69    8.57
  -5  -1 -13  123.05    9.72
  -5  -1 -13  121.28    9.79
  -5  -1 -12  211.13   12.39
  -5  -1 -12  187.85    7.36
  -5   1 -12  191.33   12.93
  -5  -1 -12  214.46   12.69
  -5   1 -12  211.09   11.58
  -5   1 -11  242.10   14.43
  -5  -1 -11  272.70   13.54
  -5  -1 -11  263.65    8.72
  -5   1 -11  279.13   13.19
  -5  -1 -11  270.36   14.06
  -5  -1 -10  639.83   14.36
  -5  -1 -10  727.67   21.46
  -5   1 -10  662.66   23.19
  -5   1 -10  680.06   20.30
  -5  -1 -10  682.27   21.87
  -5   1  -9   29.05    4.08
  -5  -1  -9   30.19    3.09
  -5   1  -9   34.89    4.97
  -5  -1  -9   31.59    4.15
  -5  -1  -9   36.10    4.95
  -5  -1  -8   33.37    3.53
  -5  -1  -8   35.35    4.51
  -5   1  -8   31.54    5.23
  -5  -1  -8   36.95    4.76
  -5   1  -8   31.21    4.22
  -5  -1  -7   13.05    2.76
  -5  -1  -7   11.34    2.44
  -5  -1  -7   12.39    2.21
  -5   1  -7   10.47    2.97
  -5   1  -6 1435.18   28.70
  -5  -1  -6 1398.85   27.02
  -5   1  -6 1399.35   31.06
  -5  -1  -6 1456.94   22.89
  -5  -1  -6 1442.22   29.91
  -5  -1  -5  364.75   14.93
  -5   1  -5  402.50   14.88
  -5  -1  -5  405.11   14.15
  -5   1  -5  387.13   15.90
  -5  -1  -5  390.70   12.30
  -5   1  -4 2354.53   35.87
  -5   1  -4 2297.66   37.99
  -5  -1  -4 2347.04   36.56
  -5  -1  -4 2430.41   33.96
  -5  -1  -4 2253.91   31.19
  -5   1  -3  290.35   12.54
  -5   1  -3  284.63   13.21
  -5  -1  -3  303.80   11.92
  -5  -1  -3  284.89   11.21
  -5  -1  -3  317.18   13.18
  -5   1  -2   41.89    4.98
  -5   1  -2   31.25    4.13
  -5  -1  -2   35.98    4.00
  -5  -1  -2   34.19    4.00
  -5  -1  -1   46.36    4.99
  -5  -1  -1   63.67    5.36
  -5   1  -1   55.35    5.47
  -5   1  -1   53.47    5.65
  -5  -1   0   41.42    4.55
  -5   1   0   49.15    5.13
  -5   1   0   38.72    5.07
  -5  -1   1   64.35    5.61
  -5  -1   1   51.86    5.16
  -5   1   1   47.47    5.34
  -5   1   2   22.93    3.55
  -5  -1   2   27.09    3.77
  -5  -1   3  299.68   11.95
  -5   1   3  274.83   12.57
  -5  -1   3  288.51   12.79
  -5  -1   4 2313.54   36.61
  -5   1   4 2243.64   36.27
  -5  -1   4 2294.75   32.79
  -5  -1   5  438.15   14.30
  -5   1   5  417.70   15.80
  -5  -1   5  437.94   16.39
  -5  -1   6 1331.12   24.99
  -5  -1   6 1425.51   30.03
  -5   1   6 1400.14   29.50
  -5   1   7   13.65    2.88
  -5  -1   7   11.09    2.19
  -5  -1   7   20.01    3.77
  -5  -1   8   42.00    4.24
  -5  -1   8   33.86    5.24
  -5   1   8   39.39    5.19
  -5  -1   9   21.24    3.17
  -5  -1   9   29.16    4.45
  -5   1   9   27.32    4.25
  -5  -1  10  678.85   17.14
  -5  -1  10  658.34   22.56
  -5   1  10  689.36   22.07
  -5  -1  11  285.76   10.85
  -5   1  11  267.31   14.44
  -5  -1  11  265.60   14.65
  -5  -1  12  225.13    9.70
  -5  -1  12  212.45   13.23
  -5   1  12  205.24   12.76
  -5   1  13  124.00   10.09
  -5  -1  13  111.23    9.70
  -5  -1  13  131.82    7.27
  -5  -1  14  239.80    9.79
  -5  -1  14  260.90   15.46
  -5   1  14  225.36   13.88
  -5   1  15  366.70   18.01
  -5  -1  15  392.93   19.36
  -5  -1  16  858.44   29.42
  -5   1  16  759.33   26.70
  -5  -1  17   65.42    8.25
  -5   1  17   91.44    9.79
  -5   1  18   60.59    7.98
  -5  -1  18   52.74    7.93
  -5  -1  19   53.71    8.26
  -5   1  19   54.30    8.25
  -5   1  20    0.03    1.66
  -5  -1  20    5.38    3.11
  -5  -1  21   73.04    9.53
  -5  -1  22   31.84    5.93
  -5  -1  23    9.04    4.32
  -5   2 -29    5.12    4.32
  -5   2 -28   12.83    4.58
  -5   2 -27    1.65    2.49
  -5   2 -26   61.34    9.99
  -5   2 -25   69.34   10.10
  -5   2 -24    7.45    3.96
  -5   2 -23   75.79   10.50
  -5   2 -22   29.88    7.13
  -5   2 -21    6.25    3.55
  -5  -2 -21   19.56    5.84
  -5  -2 -20   16.03    4.68
  -5   2 -20   19.67    5.06
  -5  -2 -19  227.25   15.76
  -5   2 -19  254.10   17.78
  -5   2 -18   38.95    7.31
  -5  -2 -18   40.63    6.38
  -5   2 -17   47.20    7.11
  -5  -2 -17   50.09    6.69
  -5   2 -17   62.36    8.58
  -5  -2 -17   66.37    7.81
  -5  -2 -16  101.67    9.74
  -5   2 -16  104.18   10.96
  -5   2 -16  106.13    9.70
  -5  -2 -16  108.58    9.91
  -5  -2 -15 1138.75   30.10
  -5   2 -15 1036.59   30.69
  -5   2 -15 1041.24   33.76
  -5  -2 -15 1054.47   30.32
  -5  -2 -14  171.66   11.45
  -5   2 -14  192.14   13.99
  -5  -2 -14  172.19   12.17
  -5   2 -13  483.02   21.53
  -5  -2 -13  550.17   19.47
  -5   2 -13  478.95   20.27
  -5  -2 -13  528.74   20.75
  -5  -2 -12   17.32    3.74
  -5   2 -12   12.31    3.23
  -5   2 -12   12.83    3.97
  -5  -2 -12   11.85    2.89
   5  -2 -11   96.87    5.04
  -5  -2 -11  102.13    8.10
  -5   2 -11  100.09    9.61
  -5   2 -11   97.09    8.82
  -5  -2 -11  108.23    9.12
  -5  -2 -10    4.21    2.11
  -5  -2 -10    2.80    0.89
  -5  -2 -10    2.62    1.54
  -5   2 -10    1.99    2.39
  -5   2 -10    1.85    2.33
  -5   2  -9   11.46    3.20
  -5  -2  -9   19.54    3.74
  -5   2  -9   16.34    3.98
  -5  -2  -9   12.84    1.93
  -5  -2  -9   18.28    3.04
  -5  -2  -8  111.36    7.24
  -5   2  -8  133.89   10.54
  -5  -2  -8  128.43    6.31
  -5   2  -8  114.98    9.16
  -5  -2  -8  118.64    9.16
  -5  -2  -7  785.66   23.39
  -5   2  -7  760.70   24.39
  -5  -2  -7  789.35   18.53
  -5  -2  -7  727.08   16.09
  -5   2  -7  699.72   22.28
  -5   2  -6  381.93   16.38
  -5  -2  -6  398.51   16.39
  -5  -2  -6  425.45   12.67
  -5  -2  -6  409.29   13.22
  -5   2  -6  400.70   17.66
  -5  -2  -5  138.83    9.51
  -5  -2  -5  141.31    7.47
  -5   2  -5  137.46    9.84
  -5   2  -5  110.71    9.28
  -5  -2  -5  132.66    7.41
  -5  -2  -4   56.96    6.15
  -5  -2  -4   59.68    5.12
  -5   2  -4   68.11    7.08
  -5  -2  -4   74.91    5.52
  -5   2  -4   58.01    6.42
  -5  -2  -3  352.84   14.82
  -5   2  -3  362.11   15.69
  -5   2  -3  386.71   16.30
  -5  -2  -3  388.86   13.27
  -5  -2  -3  345.72   11.96
  -5  -2  -2  159.86   10.00
  -5   2  -2  183.09   10.85
  -5  -2  -2  173.89    9.15
  -5   2  -2  177.00   10.79
  -5  -2  -1   63.62    5.71
  -5  -2  -1   64.32    6.10
  -5   2  -1   64.14    6.42
  -5   2  -1   65.84    6.62
  -5  -2   0  552.51   17.22
  -5   2   0  542.52   18.86
  -5   2   1   68.90    6.50
  -5  -2   1   62.01    6.00
  -5   2   1   63.03    6.52
  -5  -2   1   59.37    5.79
  -5  -2   2  186.78   10.40
  -5   2   2  188.20   10.94
  -5   2   2  197.11   11.20
  -5  -2   2  187.75   10.56
  -5  -2   3  362.49   14.38
  -5   2   3  391.60   15.83
  -5  -2   3  389.45   15.43
  -5  -2   4   56.03    5.60
  -5   2   4   61.39    6.23
  -5  -2   4   64.18    6.48
  -5  -2   5  120.77    8.94
  -5  -2   5  124.38    8.43
  -5   2   5  139.71    9.65
  -5  -2   6  398.57   15.01
  -5   2   6  393.41   16.08
  -5  -2   6  407.25   16.72
  -5  -2   7  715.87   19.96
  -5   2   7  671.40   21.54
  -5  -2   8  129.13    8.52
  -5  -2   8  129.78    9.87
  -5   2   8  105.56    8.64
  -5  -2   9   11.96    2.95
  -5  -2   9   16.78    3.57
  -5   2   9   15.63    3.40
  -5  -2  10    2.49    0.98
  -5   2  10    0.28    1.14
  -5  -2  11   86.70    8.73
  -5  -2  11  106.20    7.66
  -5   2  11  112.70    9.24
  -5  -2  12   16.13    3.05
  -5  -2  12   14.14    3.82
  -5   2  12   16.81    3.59
  -5  -2  13  549.37   22.50
  -5   2  13  531.55   20.80
  -5  -2  13  533.37   17.84
  -5  -2  14  187.74   10.51
  -5   2  14  150.92   11.22
  -5  -2  14  161.46   12.42
  -5  -2  15 1001.87   24.38
  -5   2  15 1047.20   30.59
  -5  -2  16  128.31   11.90
  -5  -2  16  106.94    7.92
  -5   2  16  100.52    9.75
  -5  -2  17   65.08    8.76
  -5   2  17   47.57    6.58
  -5   2  18   42.80    6.49
  -5  -2  18   49.19    7.80
  -5  -2  19  246.27   17.46
  -5   2  19  228.58   15.74
  -5  -2  20   15.62    5.45
  -5  -2  21    4.29    3.69
  -5  -2  22   32.61    7.06
  -5  -2  23   76.05    9.96
  -5  -2  24   13.14    4.86
  -5   3 -29   12.25    3.66
  -5   3 -28   46.23    9.13
  -5   3 -27  167.23   16.59
  -5   3 -26   29.85    7.28
  -5   3 -25  205.63   17.83
  -5   3 -24    8.75    3.22
  -5   3 -23    6.11    3.16
  -5   3 -22  206.81   17.01
  -5   3 -21  203.53   17.10
  -5   3 -20  122.01   13.10
  -5   3 -19  193.34   15.76
  -5   3 -19  196.66   15.91
  -5   3 -18   36.40    7.33
  -5   3 -18   28.10    6.27
  -5   3 -17   25.78    5.17
  -5   3 -17   24.00    5.41
  -5  -3 -17   23.31    4.92
  -5   3 -16  210.68   15.49
  -5   3 -16  209.96   16.01
  -5   3 -15  726.79   28.85
  -5   3 -15  702.12   27.54
  -5  -3 -15  787.90   27.40
  -5  -3 -14  115.13    8.95
  -5   3 -14  149.77   12.96
  -5   3 -14  130.78   11.44
  -5  -3 -14  120.67   10.33
  -5  -3 -13   27.17    4.81
  -5  -3 -13   30.84    4.41
  -5   3 -13   40.08    6.49
  -5   3 -13   39.71    6.42
  -5  -3 -12   73.47    8.20
  -5  -3 -12   78.86    6.74
  -5   3 -12   69.16    8.20
  -5   3 -12   83.03    9.20
  -5  -3 -11  149.74   11.40
   5  -3 -11  148.61    8.04
  -5  -3 -11  168.55    8.85
  -5   3 -11  163.99   12.39
  -5  -3 -10  318.93   16.35
  -5  -3 -10  300.37   11.45
   5  -3 -10  320.80   12.15
  -5   3 -10  285.85   16.46
  -5  -3 -10  306.38    8.84
  -5   3 -10  300.93   16.54
  -5   3  -9   76.53    8.17
  -5  -3  -9   67.19    5.34
  -5   3  -9   62.70    7.80
  -5  -3  -9   68.77    4.78
  -5  -3  -9   71.17    7.36
  -5   3  -8   19.50    4.35
  -5  -3  -8   23.29    2.99
  -5  -3  -8   21.32    4.55
  -5   3  -8   23.76    5.14
  -5  -3  -7  155.92    8.13
  -5  -3  -7  163.48    7.19
  -5   3  -7  140.54   11.00
  -5   3  -7  171.44   11.72
  -5  -3  -7  155.14   11.09
  -5  -3  -6  785.21   24.48
  -5   3  -6  818.19   26.40
  -5  -3  -6  762.20   18.63
  -5   3  -6  784.25   25.31
  -5  -3  -5  557.53   20.56
  -5  -3  -5  583.82   13.22
  -5  -3  -5  627.58   17.44
  -5   3  -5  561.30   21.67
  -5   3  -5  639.96   22.72
  -5  -3  -4  280.84   14.12
  -5  -3  -4  307.85   12.56
  -5   3  -4  310.58   15.94
  -5  -3  -4  302.26    9.73
  -5   3  -4  293.98   15.26
  -5  -3  -3  174.69   11.26
  -5   3  -3  197.36   12.45
  -5  -3  -3  219.70   10.88
  -5   3  -3  214.63   12.96
  -5  -3  -3  212.77    8.41
  -5  -3  -2  462.51   18.25
  -5   3  -2  480.32   19.76
  -5   3  -2  492.32   19.38
  -5  -3  -2  480.56   16.57
  -5   3  -1 1696.64   35.38
  -5  -3  -1 1692.51   31.71
  -5   3  -1 1629.07   35.30
  -5  -3   0 1294.90   30.20
  -5  -3   0 1305.67   28.70
  -5   3   0 1372.60   31.86
  -5   3   0 1284.12   31.68
  -5   3   1 1664.60   35.69
  -5  -3   1 1684.02   33.89
  -5   3   1 1579.87   34.00
  -5  -3   1 1556.98   32.17
  -5  -3   2  492.71   18.40
  -5   3   2  485.70   19.16
  -5  -3   2  454.79   17.85
  -5   3   2  501.19   18.84
  -5  -3   3  178.63   11.39
  -5  -3   3  199.27   11.88
  -5   3   3  201.73   12.26
  -5   3   3  204.66   12.25
  -5  -3   4  298.46   14.85
  -5  -3   4  314.34   14.83
  -5   3   4  288.61   14.74
  -5   3   4  275.79   14.28
  -5  -3   5  605.26   21.52
  -5  -3   5  606.58   20.46
  -5   3   5  592.78   21.21
  -5   3   6  811.72   24.76
  -5  -3   6  788.28   23.39
  -5  -3   6  754.50   24.37
  -5  -3   7  156.26   11.29
  -5  -3   7  157.81   10.59
  -5   3   7  146.22   10.58
  -5  -3   8   31.55    5.03
  -5   3   8   24.21    4.15
  -5  -3   8   21.69    4.40
  -5  -3   9   63.24    7.51
  -5  -3   9   65.50    6.69
  -5   3   9   71.12    7.44
  -5  -3  10  335.20   15.52
  -5   3  10  323.54   16.35
  -5  -3  11  146.93   10.34
  -5   3  11  120.35   10.02
  -5  -3  11  128.72   11.04
  -5   3  12   65.11    7.53
  -5  -3  12   63.59    7.77
  -5  -3  13   34.42    5.78
  -5  -3  13   35.49    5.29
  -5   3  13   30.42    4.85
  -5  -3  14  133.98   10.22
  -5  -3  14  133.48   11.86
  -5  -3  15  697.69   23.69
  -5   3  15  721.66   25.94
  -5  -3  15  726.07   27.97
  -5   3  16  213.91   14.23
  -5  -3  16  202.50   12.78
  -5  -3  16  211.41   15.33
  -5  -3  17   34.98    5.44
  -5   3  17   35.81    6.38
  -5  -3  17   24.90    5.61
  -5   3  18   39.96    7.15
  -5  -3  18   36.82    6.71
  -5  -3  19  224.09   16.78
  -5  -3  20  116.59   12.71
  -5  -3  21  183.01   15.93
  -5  -3  22  210.87   17.54
  -5  -3  23    6.30    2.83
  -5  -3  24   11.67    4.72
  -5  -3  25  168.72   16.68
  -5   4 -28    5.92    4.14
  -5   4 -27   -1.86    1.86
  -5   4 -26   -3.32    2.29
  -5   4 -25   23.42    6.68
  -5   4 -24   79.33   11.23
  -5   4 -23   36.14    7.52
  -5   4 -22    9.58    4.31
  -5   4 -21   37.70    7.53
  -5   4 -20   89.59   11.35
  -5   4 -20  116.32   12.45
   5   4 -19   13.48    5.36
  -5   4 -19    4.71    2.49
  -5   4 -19    8.33    4.03
   5   4 -18   22.19    5.46
  -5   4 -18   18.86    4.79
  -5   4 -18   15.50    4.54
   5   4 -17  368.60   21.92
  -5   4 -17  412.08   23.05
  -5   4 -17  365.24   21.76
  -5   4 -16  174.90   14.80
  -5  -4 -16  160.35   13.19
   5   4 -16  126.90   12.59
  -5   4 -16  158.36   14.18
   5   4 -15   71.81    8.95
  -5   4 -15   75.86    9.63
  -5   4 -15   80.58    9.88
  -5  -4 -15   69.48    8.49
  -5   4 -14   23.14    5.34
  -5  -4 -14   16.93    4.46
  -5   4 -14   24.79    5.55
  -5   4 -13  192.39   14.81
   5   4 -13  153.83   13.07
  -5   4 -13  166.06   13.60
  -5  -4 -13  148.98   12.38
  -5  -4 -12  230.29   14.97
   5   4 -12  218.72   15.26
  -5   4 -12  239.52   16.05
  -5   4 -12  250.58   16.46
  -5   4 -11   52.90    7.60
  -5  -4 -11   61.00    8.05
   5   4 -11   69.57    8.87
   5  -4 -11   55.86    6.03
  -5   4 -11   55.74    7.93
  -5  -4 -10   23.91    4.60
   5   4 -10   29.72    5.86
   5  -4 -10   25.75    4.20
  -5   4 -10   18.93    4.79
  -5   4 -10   24.19    5.54
  -5  -4  -9  160.33   12.08
  -5  -4  -9  160.43    8.43
   5  -4  -9  167.50   10.33
  -5   4  -9  144.84   12.03
  -5   4  -9  151.74   12.62
  -5   4  -8   18.68    4.11
  -5  -4  -8   35.01    5.88
  -5   4  -8   32.97    5.85
   5  -4  -8   33.06    4.93
  -5  -4  -8   29.49    4.08
  -5  -4  -7   87.70    9.24
  -5   4  -7  106.98   10.00
  -5  -4  -7   90.83    7.08
  -5   4  -7   89.07    9.31
   5  -4  -7   91.77    7.92
  -5  -4  -6  263.27   15.27
  -5   4  -6  318.15   17.10
  -5  -4  -6  294.22   12.82
  -5   4  -6  250.47   15.62
  -5   4  -5   91.42    9.17
  -5  -4  -5   70.83    3.12
  -5  -4  -5   68.81    7.41
  -5   4  -5   71.63    8.13
  -5  -4  -5   73.73    6.84
  -5  -4  -4  159.02   10.11
  -5  -4  -4  155.56   11.45
  -5  -4  -4  134.61    5.21
  -5   4  -4  170.51   12.34
  -5   4  -4  158.75   12.24
  -5   4  -3    6.36    2.64
  -5  -4  -3    6.30    2.31
  -5   4  -3   13.14    3.30
  -5  -4  -3    6.46    2.25
  -5  -4  -3    8.55    1.48
  -5  -4  -2   41.00    5.39
  -5  -4  -2   35.09    5.45
  -5   4  -2   38.73    6.24
  -5   4  -2   45.45    6.19
  -5  -4  -1    4.88    2.57
  -5  -4  -1    4.20    1.78
  -5   4  -1    3.66    1.94
  -5   4  -1    1.03    1.26
  -5   4   0  120.97   10.27
  -5  -4   0  116.00    9.76
  -5  -4   0  132.22    9.92
  -5   4   0  121.07    9.68
  -5   4   1    0.08    1.14
  -5  -4   1    2.41    2.56
  -5  -4   1    3.08    1.41
  -5   4   1    5.66    2.21
  -5  -4   2   38.21    5.76
  -5  -4   2   34.37    5.06
  -5   4   2   39.03    5.95
  -5   4   2   36.86    5.47
  -5   4   3    6.80    2.74
  -5  -4   3    5.66    2.87
  -5  -4   3    6.71    3.04
  -5   4   3   10.15    3.64
  -5  -4   4  157.69   11.69
  -5  -4   4  158.14   11.49
  -5   4   4  163.23   11.55
  -5   4   5   71.92    8.15
  -5  -4   5   74.42    7.91
  -5   4   5   70.68    7.63
  -5  -4   5   65.30    7.57
  -5   4   6  299.09   16.27
  -5  -4   6  264.68   15.07
  -5  -4   6  252.56   15.21
  -5   4   6  290.29   15.68
  -5  -4   7   82.62    8.36
  -5  -4   7   85.25    9.12
  -5   4   7  107.62    9.94
  -5   4   8   35.80    5.83
  -5  -4   8   35.73    5.82
  -5  -4   8   29.41    5.08
  -5  -4   9  169.68   12.73
  -5  -4   9  178.59   12.48
  -5   4   9  151.05   11.68
  -5  -4  10   29.23    5.43
  -5   4  10   20.93    4.22
  -5  -4  10   27.27    5.48
  -5  -4  11   61.70    7.85
  -5  -4  11   56.81    7.16
  -5   4  11   53.06    6.95
  -5  -4  12  237.23   15.76
  -5  -4  12  263.46   15.55
  -5   4  12  253.40   15.31
  -5  -4  13  132.84   11.92
  -5   4  13  156.97   12.27
  -5  -4  13  131.47   11.14
  -5  -4  14   26.74    5.82
  -5  -4  14   26.63    5.21
  -5   4  14   26.20    4.99
  -5  -4  15   94.15   10.55
  -5  -4  15   70.31    8.11
  -5   4  15   68.45    8.15
  -5  -4  16  141.31   11.92
  -5   4  16  139.23   11.89
  -5  -4  16  140.15   13.05
  -5   4  17  357.16   19.76
  -5  -4  17  388.00   20.07
  -5  -4  17  413.21   22.92
  -5  -4  18   19.09    4.11
  -5  -4  19   11.68    4.25
  -5  -4  20  110.05   12.95
  -5  -4  21   45.62    8.15
  -5  -4  22    7.96    4.39
  -5  -4  23   55.58    9.76
  -5  -4  24   83.38   11.09
  -5  -4  25   14.56    4.49
  -5  -4  26   -1.69    4.33
  -5   5 -27   17.68    6.04
  -5   5 -26   17.59    5.50
  -5   5 -25   15.38    6.31
  -5   5 -24   76.31   10.85
  -5   5 -23   15.51    5.24
  -5   5 -22   12.18    4.70
  -5   5 -21   72.71   10.38
   5   5 -21   49.82    9.21
   5   5 -20  180.75   16.44
  -5   5 -20  202.06   16.76
  -5   5 -20  163.18   16.28
  -5   5 -19   17.29    6.46
  -5   5 -19    7.18    3.36
   5   5 -19   15.43    5.14
  -5   5 -18   20.27    5.31
   5   5 -18   16.33    5.48
  -5   5 -18   19.51    5.02
  -5   5 -17   86.82   10.94
   5   5 -17   85.11   10.58
  -5   5 -17   81.55   11.25
  -5  -5 -16    3.49    2.49
   5   5 -16    5.71    2.52
  -5   5 -16    1.38    1.99
  -5   5 -16    5.91    3.86
  -5  -5 -15  199.78   15.48
  -5   5 -15  211.12   16.40
  -5   5 -15  220.40   17.51
   5   5 -15  157.32   14.43
  -5   5 -14   94.43   11.14
  -5  -5 -14   77.00    9.25
   5   5 -14   81.60   10.07
  -5   5 -14   60.91    9.11
  -5  -5 -13    3.80    3.19
   5   5 -13   -0.71    2.57
  -5   5 -13   10.35    3.51
  -5   5 -13    5.92    3.59
  -5   5 -12   30.43    6.55
   5   5 -12   29.66    5.62
  -5  -5 -12   32.69    6.32
  -5   5 -12   25.66    5.34
  -5  -5 -11  218.75   15.23
   5  -5 -11  228.34   13.83
   5   5 -11  235.17   15.68
  -5   5 -11  212.90   16.02
  -5   5 -11  225.73   16.07
  -5  -5 -10   80.45    9.06
  -5   5 -10   85.29    9.99
   5   5 -10   90.92    9.73
   5  -5 -10   68.12    7.69
  -5   5 -10   73.32    9.38
  -5  -5  -9  132.65   11.66
   5   5  -9  158.01   12.54
   5  -5  -9  133.76   10.78
  -5   5  -9  135.10   12.81
  -5   5  -9  147.40   12.52
  -5  -5  -8   28.16    5.89
   5  -5  -8   32.08    5.11
  -5   5  -8   27.02    5.70
  -5   5  -8   27.42    5.99
  -5  -5  -8   27.59    4.19
  -5  -5  -7   43.19    5.42
  -5   5  -7   40.19    6.84
  -5  -5  -7   28.56    5.16
   5  -5  -7   28.95    4.96
  -5   5  -7   19.66    5.11
  -5  -5  -6  416.96   20.34
  -5  -5  -6  432.89   17.63
   5  -5  -6  444.84   19.91
  -5   5  -6  461.29   22.48
  -5  -5  -5  223.94   14.67
  -5   5  -5  244.79   15.41
  -5  -5  -5  238.28   13.38
   5  -5  -5  237.47   14.43
  -5   5  -5  248.77   16.19
  -5  -5  -4   19.62    4.16
   5  -5  -4   16.54    3.89
  -5  -5  -4   23.67    4.80
  -5   5  -4   20.22    5.02
  -5   5  -4   17.57    4.56
  -5  -5  -3   43.15    6.40
  -5  -5  -3   42.82    5.94
  -5   5  -3   36.87    5.92
  -5   5  -3   40.78    6.77
  -5  -5  -2   38.51    6.27
  -5  -5  -2   47.34    6.17
  -5   5  -2   35.83    5.98
  -5   5  -2   37.81    6.14
  -5   5  -1   77.02    8.64
  -5  -5  -1   63.46    7.73
  -5  -5  -1   65.65    7.42
  -5   5  -1   63.20    8.31
  -5  -5   0  274.94   16.11
  -5  -5   0  269.71   15.37
  -5   5   0  257.83   16.04
  -5   5   0  292.76   16.31
  -5  -5   1   80.64    8.45
  -5  -5   1   61.02    7.57
  -5   5   1   73.91    8.10
  -5   5   1   69.71    8.58
  -5  -5   2   29.42    5.19
  -5  -5   2   30.05    5.09
  -5   5   2   31.04    5.94
  -5   5   2   34.85    5.88
  -5  -5   3   32.40    5.61
  -5   5   3   44.94    6.30
  -5  -5   3   59.31    7.33
  -5   5   3   51.60    7.28
  -5  -5   4   19.37    4.47
  -5   5   4   24.31    4.83
  -5  -5   4   25.75    4.99
  -5   5   4   19.92    4.40
  -5   5   5  241.91   15.93
  -5  -5   5  200.68   13.72
  -5  -5   5  215.94   14.78
  -5   5   5  197.26   13.37
  -5  -5   6  447.13   20.96
  -5   5   6  440.53   20.94
  -5  -5   6  475.77   22.13
  -5   5   6  457.16   20.57
  -5   5   7   37.13    6.25
  -5  -5   7   50.19    7.37
  -5  -5   7   33.72    5.75
  -5   5   7   29.12    5.21
  -5   5   8   38.97    6.14
  -5   5   8   23.31    5.34
  -5  -5   8   32.08    5.94
  -5  -5   8   32.62    6.25
  -5  -5   9  104.89   10.54
  -5  -5   9  125.03   11.57
  -5   5   9  148.06   12.36
  -5   5   9  143.42   11.94
  -5   5  10   74.80    8.79
  -5  -5  10   78.77    9.00
  -5  -5  10   73.57    9.17
  -5   5  11  234.68   15.87
  -5  -5  11  194.11   14.90
  -5  -5  11  238.37   15.98
  -5  -5  12   20.01    5.49
  -5   5  12   22.13    4.93
  -5  -5  12   35.43    6.32
  -5   5  13    4.42    2.01
  -5  -5  13    4.54    2.25
  -5  -5  13    5.08    2.86
  -5  -5  14   74.65    9.21
  -5   5  14   87.34    9.87
  -5  -5  14   99.31   10.94
  -5   5  15  203.72   15.56
  -5  -5  15  199.22   14.90
  -5  -5  15  175.41   14.89
  -5  -5  16   -0.41    2.12
  -5  -5  16   -1.66    2.89
  -5  -5  17   97.60   11.42
  -5  -5  17   87.52   10.30
  -5  -5  18   17.67    5.36
  -5  -5  18   19.57    5.37
  -5  -5  19   12.74    4.03
  -5  -5  20  198.79   17.24
   5  -5  21   57.94    9.26
  -5  -5  21   53.43    9.21
  -5  -5  22   12.10    5.93
   5  -5  22    5.09    2.60
   5  -5  23    6.46    5.06
  -5  -5  23   15.68    6.36
  -5  -5  24   83.66   11.24
  -5  -5  25   10.92    4.22
  -5  -5  26   31.21    8.65
  -5  -5  27   11.73    4.82
  -5   6 -25   13.20    5.68
  -5   6 -24   20.78    5.70
  -5   6 -23    0.57    2.43
  -5   6 -22   14.53    5.99
   5   6 -21    1.74    4.80
  -5   6 -21   -3.42    2.72
  -5   6 -20    3.25    3.34
   5   6 -20    0.91    3.44
  -5   6 -20    1.39    3.60
  -5   6 -19    2.08    1.83
  -5   6 -19   -0.82    2.42
   5   6 -19   -1.01    2.60
   5   6 -18   10.36    4.18
  -5   6 -18   11.15    4.27
  -5   6 -18   16.76    5.24
   5   6 -17   23.04    5.55
  -5   6 -17   33.60    7.55
  -5   6 -17   20.84    6.73
  -5   6 -16   69.17   10.31
   5   6 -16   69.50    9.88
  -5   6 -16   87.58   10.99
  -5  -6 -15   57.95    9.00
  -5   6 -15   63.69    9.94
   5   6 -15   65.34    8.86
  -5   6 -15   62.78    9.81
  -5  -6 -14   19.54    5.85
   5   6 -14   31.21    6.86
  -5   6 -14   14.06    5.05
  -5   6 -14   15.44    4.31
   5   6 -13   15.66    4.80
  -5  -6 -13   21.24    5.36
  -5   6 -13   23.17    5.97
  -5   6 -13   17.50    5.37
  -5   6 -12  114.47   12.54
  -5  -6 -12  144.94   13.12
  -5   6 -12  101.67   10.87
   5   6 -12  155.20   13.41
  -5  -6 -11    9.83    3.88
  -5   6 -11   10.52    4.36
   5   6 -11   11.75    3.51
  -5   6 -11   19.67    4.79
  -5   6 -10   18.13    4.89
  -5  -6 -10    5.85    2.20
   5   6 -10    7.87    3.47
   5  -6 -10   13.42    3.91
  -5   6 -10    8.62    3.29
  -5   6  -9   42.30    7.12
  -5  -6  -9   42.94    6.79
   5   6  -9   43.46    6.72
   5  -6  -9   39.45    6.60
  -5   6  -9   39.58    7.53
   5   6  -8   43.60    6.94
   5  -6  -8   54.06    7.87
  -5   6  -8   43.59    7.27
  -5  -6  -8   44.38    7.09
  -5   6  -8   57.71    8.32
  -5  -6  -7  166.66   13.76
  -5  -6  -7  146.71   11.61
   5  -6  -7  147.45   12.21
  -5   6  -7  148.24   12.97
  -5   6  -7  135.85   13.03
  -5  -6  -6   11.06    3.54
   5  -6  -6    6.21    2.85
  -5  -6  -6   10.37    3.25
  -5   6  -6   10.72    4.67
  -5   6  -6    5.70    3.02
  -5  -6  -5   25.02    5.47
  -5   6  -5   20.19    4.70
   5  -6  -5   23.46    4.83
  -5  -6  -5   16.61    3.88
  -5   6  -5   20.82    5.30
  -5  -6  -4  194.80   14.57
  -5  -6  -4  214.23   14.17
  -5   6  -4  158.90   12.95
   5  -6  -4  205.38   14.70
  -5   6  -4  200.02   15.21
  -5  -6  -3   33.60    6.34
   5  -6  -3   44.80    6.91
  -5   6  -3   33.66    6.30
  -5  -6  -3   42.31    6.34
  -5   6  -3   37.19    5.94
  -5   6  -2   91.19   10.26
   5  -6  -2   83.53    9.34
  -5  -6  -2   83.32    9.36
  -5   6  -2   76.57    8.71
  -5  -6  -2   89.38   10.06
  -5  -6  -1  122.25   11.03
   5  -6  -1  112.47   11.16
  -5  -6  -1  118.97   11.20
  -5   6  -1  114.42   10.53
  -5   6  -1   97.69   11.18
  -5  -6   0  119.83   11.06
   5  -6   0  124.71   11.54
  -5  -6   0  118.70   11.41
  -5   6   0  103.83   10.50
  -5   6   0   98.51   10.38
  -5  -6   1  121.25   11.40
   5  -6   1  107.50   11.04
  -5   6   1  109.39   10.38
  -5   6   1  126.94   11.95
  -5  -6   1  123.98   11.49
   5  -6   2   89.49    9.98
  -5  -6   2   86.89    9.43
  -5  -6   2   80.96    9.58
  -5   6   2   84.96    9.26
  -5   6   2   98.74   10.22
  -5   6   3   29.49    5.94
  -5  -6   3   39.33    6.26
   5  -6   3   26.48    7.17
  -5   6   3   35.65    5.74
  -5  -6   3   39.46    6.67
  -5  -6   4  198.49   14.69
  -5   6   4  185.06   13.70
  -5   6   4  196.79   15.14
  -5  -6   4  182.30   14.42
  -5   6   5    8.12    3.18
  -5  -6   5   22.84    4.89
  -5  -6   5   24.67    5.26
  -5   6   5   13.80    3.39
  -5  -6   6   11.74    4.27
  -5   6   6    4.03    2.60
  -5  -6   6   12.55    4.94
  -5   6   6    8.07    3.07
  -5  -6   7  152.65   13.03
  -5   6   7  138.53   12.37
  -5  -6   7  143.05   12.67
  -5   6   7  143.12   11.91
  -5   6   8   44.46    6.94
  -5  -6   8   43.69    7.08
  -5  -6   8   42.84    7.28
  -5   6   8   42.49    7.15
  -5  -6   9   41.81    6.84
  -5  -6   9   36.66    6.88
  -5   6   9   46.50    7.28
  -5   6   9   56.61    7.84
  -5  -6  10    8.77    3.80
  -5   6  10   12.64    4.58
  -5   6  10   11.90    4.47
  -5  -6  10    7.94    2.70
  -5   6  11   18.76    4.81
  -5  -6  11    8.90    4.22
  -5   6  11   16.88    3.57
  -5  -6  11   14.45    4.47
  -5   6  12  131.50   12.15
  -5  -6  12  151.67   13.26
  -5  -6  12  129.51   13.34
  -5  -6  13   35.51    7.43
  -5  -6  13   24.25    5.67
  -5   6  13   18.82    5.49
  -5   6  13   23.09    5.75
  -5   6  14   16.49    5.71
  -5  -6  14   15.47    4.09
  -5  -6  14    5.63    2.45
  -5  -6  15   61.83    9.55
  -5  -6  15   68.54    9.54
   5  -6  15   64.91    9.38
   5  -6  16   42.03    9.10
  -5  -6  16   70.78   10.35
  -5  -6  16   65.71    9.40
   5  -6  17   24.21    6.28
  -5  -6  17   17.44    4.84
  -5  -6  17   23.54    5.80
   5  -6  18   11.84    5.41
  -5  -6  18    6.29    4.44
  -5  -6  18   15.04    4.86
  -5  -6  19    0.66    2.22
   5  -6  19   -5.41    3.45
   5  -6  20    9.68    5.07
  -5  -6  20    0.77    3.04
  -5  -6  21    8.01    4.35
   5  -6  21    4.33    4.36
   5  -6  22   14.32    4.11
  -5  -6  22   23.49    6.75
  -5  -6  23    0.79    2.10
   5  -6  23   -4.41    4.31
  -5  -6  24   19.93    6.16
  -5  -6  25    3.38    4.36
  -5   7 -23   -1.97    3.97
  -5   7 -22   37.25    8.32
   5   7 -21  102.20   13.32
  -5   7 -21   73.06   10.82
  -5   7 -20   40.80    8.47
   5   7 -20   45.28    8.88
   5   7 -19   52.55    9.26
  -5   7 -19   56.51   10.10
  -5   7 -19   73.67   10.99
   5   7 -18   95.17   12.26
  -5   7 -18   69.61    9.92
  -5   7 -18   70.65   10.51
   5   7 -17  100.78   12.26
  -5   7 -17   78.76   10.95
  -5   7 -17   82.24   12.07
  -5   7 -16   99.21   12.51
   5   7 -16   82.35   11.32
  -5   7 -16  101.02   12.81
  -5  -7 -15    9.16    4.50
   5   7 -15   10.33    4.98
  -5   7 -15   11.33    4.99
  -5   7 -15    6.54    3.72
  -5  -7 -14   32.59    6.75
  -5   7 -14   54.03    9.12
   5   7 -14   39.11    7.40
  -5   7 -14   46.03    8.58
  -5  -7 -13   50.96    8.91
  -5   7 -13   61.57    9.68
   5   7 -13   59.77    8.77
  -5   7 -13   49.99    8.77
  -5  -7 -12   57.96    8.82
  -5   7 -12   51.99    8.78
   5   7 -12   60.42    9.10
  -5   7 -12   51.66    8.57
  -5  -7 -11  154.49   14.72
   5   7 -11  117.67   11.78
  -5   7 -11  168.31   15.42
  -5   7 -11  156.86   14.99
  -5  -7 -10  214.68   16.79
   5  -7 -10  234.09   16.94
   5   7 -10  210.30   15.90
  -5   7 -10  191.49   15.51
  -5   7 -10  208.25   17.39
  -5   7  -9  141.53   13.57
  -5  -7  -9  130.16   13.03
  -5   7  -9  119.20   13.03
   5  -7  -9  118.67   12.13
   5   7  -9  128.38   12.26
  -5  -7  -8  128.83   13.13
   5  -7  -8  135.61   12.85
  -5   7  -8  169.49   14.47
  -5   7  -8  150.03   14.45
  -5   7  -7  173.83   15.51
   5  -7  -7  152.97   13.31
  -5   7  -7  185.96   15.09
  -5  -7  -7  189.19   15.38
  -5   7  -6   84.26   11.05
   5  -7  -6   71.05    9.28
  -5  -7  -6   63.28    8.30
  -5   7  -6   75.52    9.93
  -5  -7  -6   72.28   10.06
  -5  -7  -5  159.32   13.34
  -5  -7  -5  172.80   14.60
   5  -7  -5  170.21   14.36
  -5   7  -5  150.23   13.26
  -5   7  -5  135.99   13.42
  -5  -7  -4   69.70    9.62
  -5   7  -4   57.51    8.40
   5  -7  -4   54.26    8.42
  -5   7  -4   36.90    7.48
  -5  -7  -4   45.66    7.29
  -5   7  -3    3.34    2.64
  -5  -7  -3   -0.49    3.02
  -5  -7  -3    4.56    1.30
   5  -7  -3    5.06    3.79
  -5   7  -3    2.09    1.51
  -5  -7  -2   60.05    9.04
   5  -7  -2   42.50    7.18
  -5  -7  -2   47.77    7.62
  -5   7  -2   39.24    6.58
  -5   7  -2   38.71    7.35
  -5   7  -1  101.51   11.01
  -5  -7  -1  126.62   12.34
   5  -7  -1  140.15   12.82
  -5  -7  -1  121.67   11.87
  -5   7  -1  104.32   11.63
  -5   7   0   30.29    6.49
  -5  -7   0   23.64    5.62
  -5  -7   0   25.08    5.59
   5  -7   0   23.53    5.56
  -5   7   0   19.31    4.87
  -5  -7   1  134.54   12.78
   5  -7   1  150.15   13.39
  -5  -7   1  128.31   12.36
  -5   7   1  129.27   12.15
  -5   7   1  151.93   13.51
  -5   7   2   32.15    6.38
   5  -7   2   36.85    7.05
  -5  -7   2   60.20    8.37
  -5  -7   2   39.47    6.72
  -5   7   2   61.96    8.32
  -5   7   3    1.85    1.73
  -5  -7   3    6.26    4.23
  -5  -7   3    5.45    3.04
   5  -7   3    2.52    2.77
  -5   7   3    0.63    2.99
  -5  -7   4   74.72    9.58
  -5   7   4   41.04    6.65
  -5   7   4   48.29    8.32
   5  -7   4   69.24    8.89
  -5  -7   4   40.75    7.15
  -5   7   5  163.25   13.48
  -5  -7   5  157.66   14.12
   5  -7   5  123.21   12.83
  -5  -7   5  164.08   14.31
  -5   7   5  177.45   15.12
  -5  -7   6   86.80   10.52
   5  -7   6   79.44   10.16
  -5  -7   6   76.46    9.88
  -5   7   6   83.96    9.89
  -5   7   6   88.26   10.58
  -5  -7   7  174.28   14.55
   5  -7   7  178.73   15.05
  -5  -7   7  210.58   16.45
  -5   7   7  193.52   15.75
  -5   7   7  163.95   13.55
  -5  -7   8  150.29   13.99
  -5  -7   8  154.53   14.27
  -5   7   8  122.18   13.10
  -5  -7   9  127.74   13.25
  -5  -7   9  155.64   13.70
   5  -7   9  110.06   12.84
  -5   7   9  122.53   12.63
  -5  -7  10  254.78   18.68
  -5  -7  10  252.20   18.42
   5  -7  10  217.88   17.49
  -5   7  10  233.23   17.60
  -5  -7  11  154.03   14.99
  -5  -7  11  165.32   14.58
  -5   7  11  152.88   14.17
  -5   7  12   28.78    5.88
  -5  -7  12   68.17    9.35
  -5  -7  12   42.96    7.52
   5  -7  12   67.44    9.39
  -5  -7  13   37.10    7.16
  -5  -7  13   48.46    9.45
   5  -7  13   32.88    8.25
  -5   7  13   47.55    7.99
  -5  -7  14   45.23    8.38
   5  -7  14   28.12    6.82
  -5  -7  15    6.91    3.43
  -5  -7  15    2.40    2.47
   5  -7  15    7.42    4.36
  -5  -7  16   95.25   11.34
   5  -7  16  107.61   12.51
  -5  -7  16  110.53   12.43
  -5  -7  17   79.53   11.07
  -5  -7  17   95.16   12.22
   5  -7  17   65.91    9.76
  -5  -7  18   77.30   10.88
  -5  -7  18   80.17   11.18
   5  -7  18   72.12   10.80
  -5  -7  19   62.06   10.64
  -5  -7  19   67.32   10.71
   5  -7  19   45.54    9.94
  -5  -7  20   37.88    8.31
   5  -7  20   31.73    8.77
  -5  -7  21   89.55   12.35
   5  -7  21   66.07   11.24
   5  -7  22   12.89    5.82
  -5  -7  22   31.27    7.71
   5  -7  23    0.40    4.02
  -5  -7  23   -1.41    2.87
  -5   8 -21   -1.07    3.22
  -5   8 -20    8.40    4.38
  -5   8 -19   -2.63    3.32
  -5   8 -19   -0.17    3.60
  -5   8 -18    6.83    3.99
  -5   8 -18    0.35    3.49
   5   8 -18    8.02    5.38
   5   8 -17   20.42    5.33
  -5   8 -17   11.92    5.05
  -5   8 -17   29.74    7.83
  -5   8 -16    9.30    4.28
   5   8 -16    8.70    4.78
  -5   8 -16   10.24    4.44
  -5   8 -15   37.16    7.69
  -5   8 -15   56.24   10.36
   5   8 -15   45.59    8.86
  -5  -8 -14    2.82    2.51
   5   8 -14    3.46    4.73
  -5   8 -14    3.32    2.51
  -5   8 -14    0.83    2.23
  -5  -8 -13    0.59    2.09
   5   8 -13    7.16    3.38
  -5   8 -13    0.57    2.95
  -5   8 -13    3.79    3.19
   5   8 -12   29.78    5.65
  -5   8 -12   31.16    6.03
  -5   8 -12   29.29    7.33
  -5  -8 -12   28.27    7.70
  -5  -8 -11    1.50    2.95
  -5   8 -11    4.83    3.55
  -5   8 -11   -2.00    2.64
  -5   8 -10   17.31    4.94
  -5   8 -10   20.06    6.24
  -5  -8 -10   14.11    4.01
  -5  -8  -9   -2.47    2.78
  -5   8  -9   -1.52    2.12
  -5   8  -9    1.32    2.49
   5  -8  -9   -0.22    2.11
  -5  -8  -8   23.78    6.41
  -5   8  -8   32.45    6.66
   5  -8  -8   28.35    6.49
  -5   8  -8   38.34    7.68
  -5   8  -7   45.56    8.13
  -5  -8  -7   32.36    6.96
   5  -8  -7   43.84    8.01
  -5   8  -7   38.97    8.23
  -5  -8  -6   74.83   10.17
   5  -8  -6   81.48   10.51
  -5   8  -6   58.80    8.41
  -5  -8  -5   -0.67    2.33
  -5  -8  -5    0.45    2.80
   5  -8  -5    0.77    2.74
  -5   8  -5    0.38    1.87
  -5   8  -5    2.86    1.69
  -5   8  -4   32.28    7.69
  -5  -8  -4   31.44    6.50
  -5  -8  -4   43.38    7.36
  -5   8  -4   31.35    6.55
   5  -8  -4   26.59    6.37
  -5  -8  -3   23.45    5.34
  -5  -8  -3   13.79    5.38
   5  -8  -3    9.75    3.74
  -5   8  -3   21.02    5.66
  -5   8  -3   19.75    5.89
  -5  -8  -2   26.37    6.71
   5  -8  -2   25.29    5.74
  -5  -8  -2   24.42    5.98
  -5   8  -2   30.08    5.81
  -5   8  -2   22.53    5.70
  -5  -8  -1   11.41    4.53
  -5  -8  -1    4.16    2.55
  -5   8  -1    3.10    2.48
   5  -8  -1    3.26    2.84
  -5   8  -1    9.55    4.58
  -5  -8   0  159.25   14.84
  -5   8   0  158.63   14.08
  -5   8   0  135.40   13.84
  -5  -8   0  179.83   15.44
   5  -8   0  179.07   15.57
  -5  -8   1    3.09    2.62
  -5  -8   1    6.84    2.14
   5  -8   1    9.17    4.30
  -5   8   1    5.60    2.93
  -5   8   1    9.06    3.91
  -5  -8   2   26.66    6.28
  -5  -8   2   16.11    4.83
   5  -8   2   33.61    6.28
  -5   8   2   26.35    6.90
  -5   8   2   25.72    6.90
  -5   8   3   15.88    4.78
  -5  -8   3    9.74    3.21
  -5  -8   3    8.48    4.08
   5  -8   3   11.88    3.84
  -5  -8   4   46.90    8.08
  -5  -8   4   52.20    8.48
   5  -8   4   31.92    6.97
  -5   8   4   44.35    7.54
  -5  -8   5   -1.53    2.91
  -5  -8   5    1.26    2.44
   5  -8   5    6.64    4.27
  -5   8   5   -0.09    2.18
  -5  -8   6   65.21   10.24
  -5  -8   6   59.70    9.12
   5  -8   6   48.76    8.47
  -5   8   6   50.33    8.60
  -5  -8   7   33.96    6.47
  -5  -8   7   58.45    9.19
   5  -8   7   46.21    8.11
  -5   8   7   46.05    7.82
  -5  -8   8   30.35    6.91
  -5  -8   8   19.89    4.96
   5  -8   8   31.09    6.88
  -5   8   8   25.57    5.75
  -5  -8   9    3.47    2.18
  -5  -8   9   -0.50    2.99
   5  -8   9    1.79    2.46
  -5   8   9    1.11    1.93
  -5  -8  10   19.26    6.06
  -5  -8  10   12.98    4.23
   5  -8  10   23.12    6.40
  -5   8  10   20.48    5.90
  -5  -8  11    0.13    2.81
  -5   8  11    6.14    4.00
  -5  -8  11    2.58    3.01
   5  -8  11   -1.45    2.84
  -5  -8  12   22.11    6.45
  -5  -8  12   20.63    4.74
   5  -8  12   30.09    7.02
   5  -8  13    4.00    2.20
  -5  -8  13   -1.29    3.14
  -5  -8  13    6.80    4.13
  -5  -8  14    8.89    4.46
  -5  -8  14    8.39    4.39
   5  -8  14    3.97    3.27
  -5  -8  15   58.56   10.26
   5  -8  15   52.37    9.62
  -5  -8  15   46.92    8.58
  -5  -8  16   16.24    5.44
  -5  -8  16   14.86    4.59
   5  -8  16    9.24    5.67
   5  -8  17   14.79    6.20
  -5  -8  17    8.68    4.80
  -5  -8  17   13.73    4.58
  -5  -8  18   -1.31    5.24
  -5  -8  18    0.70    3.52
   5  -8  18    0.68    2.91
  -5  -8  19    1.03    3.15
  -5  -8  19    1.25    3.52
   5  -8  19   -1.96    3.66
  -5  -8  20    6.67    3.78
   5  -8  20    1.93    3.66
   5  -8  21   -0.38    3.56
  -5  -8  21    2.81    2.32
  -5   9 -18   42.00    9.27
  -5   9 -18   35.86    6.83
  -5   9 -17   59.22   10.37
  -5   9 -17   57.25   10.30
  -5   9 -16   89.61   11.94
  -5   9 -16   85.59   12.78
  -5   9 -15   12.47    4.18
  -5   9 -15   10.64    5.67
  -5   9 -14   17.29    5.35
  -5   9 -14    9.14    3.39
  -5  -9 -13   26.79    6.87
  -5   9 -13   25.77    7.09
  -5   9 -13   15.96    4.95
  -5  -9 -12   54.73   10.62
  -5   9 -12   68.05   10.92
  -5   9 -12   81.22   12.03
  -5  -9 -11   93.11   12.33
  -5   9 -11   81.05   11.05
  -5   9 -11   56.77   10.21
  -5  -9 -10   86.33   12.13
  -5   9 -10   84.64   12.10
  -5   9 -10   76.97   11.10
  -5   9  -9   73.13   10.84
  -5  -9  -9   56.42    9.62
  -5   9  -9   62.44    9.92
  -5  -9  -8   59.45    9.33
   5  -9  -8   48.21    8.73
  -5   9  -8   55.62    9.35
  -5   9  -8   45.00    8.36
  -5  -9  -7  118.75   13.17
   5  -9  -7  123.96   14.14
  -5   9  -7  139.26   15.63
  -5   9  -7  139.09   14.29
   5  -9  -6   26.78    6.70
  -5  -9  -6   48.42    8.67
  -5   9  -6   38.50    7.47
  -5   9  -6   37.01    8.02
  -5  -9  -5  131.83   13.94
   5  -9  -5  144.20   14.63
   5  -9  -4   66.94   10.09
  -5   9  -4   80.62   10.89
  -5  -9  -4   42.58    8.75
  -5   9  -4   52.68    9.34
  -5  -9  -4   72.06   10.34
  -5   9  -3    2.05    3.19
  -5  -9  -3   -0.88    2.55
  -5  -9  -3    3.07    3.52
   5  -9  -3    3.40    3.55
  -5  -9  -2   25.19    6.01
   5  -9  -2   24.11    5.80
  -5   9  -2   32.53    7.31
  -5  -9  -2   37.25    7.62
  -5  -9  -1  179.22   16.44
  -5   9  -1  190.58   17.61
   5  -9  -1  206.07   17.13
  -5  -9  -1  174.15   16.50
  -5  -9   0   64.06    8.97
   5  -9   0   66.38    9.95
  -5   9   0   78.22   11.38
  -5  -9   0   68.14    9.91
  -5  -9   1  191.82   17.17
   5  -9   1  181.36   16.39
  -5  -9   1  195.31   16.96
  -5   9   1  165.21   16.26
   5  -9   2   24.54    6.67
  -5  -9   2   29.73    6.30
  -5  -9   2   37.99    7.54
  -5   9   2   44.36    8.46
  -5  -9   3    5.35    3.17
   5  -9   3    5.62    3.79
  -5   9   3   -1.16    2.33
  -5  -9   3    2.26    2.95
  -5  -9   4   88.00   11.81
   5  -9   4   68.05    9.70
  -5  -9   4   68.72   10.68
  -5   9   4   65.02   10.90
  -5  -9   5  138.57   14.21
   5  -9   5  145.39   14.94
  -5  -9   5  158.60   15.73
  -5   9   5  135.74   14.84
  -5  -9   6   39.38    7.80
  -5  -9   6   50.59    8.54
   5  -9   6   34.10    7.76
  -5   9   6   37.59    8.15
  -5  -9   7  116.27   14.01
  -5   9   7  108.69   13.22
   5  -9   7  132.30   14.06
  -5  -9   7  136.79   14.68
  -5  -9   8   41.20    8.34
   5  -9   8   61.31    9.45
  -5  -9   8   50.02    9.29
  -5   9   8   49.50    8.86
  -5  -9   9   62.97   10.24
  -5  -9   9   61.22    9.37
   5  -9   9   62.68   10.53
  -5   9   9   56.50   10.06
  -5  -9  10   96.93   12.24
   5  -9  10   83.72   11.16
  -5  -9  10   79.09   11.12
  -5   9  10   71.38   11.01
  -5  -9  11   90.51   12.55
   5  -9  11  111.34   13.62
  -5  -9  11   73.34   10.97
   5  -9  12   71.87   10.80
  -5  -9  12   49.65    9.54
  -5  -9  12   70.46   11.40
  -5  -9  13   31.64    7.74
   5  -9  13   29.10    7.62
  -5  -9  13   29.95    6.60
   5  -9  14   13.66    4.25
  -5  -9  14   20.40    6.52
  -5  -9  14   25.35    6.23
   5  -9  15   15.57    5.93
  -5  -9  15   11.35    4.09
  -5  -9  16   84.79   11.82
  -5  -9  16  104.65   13.47
   5  -9  16   94.26   12.52
  -5  -9  17   46.74    9.06
   5  -9  17   51.50    9.32
  -5  -9  17   36.67    7.91
  -5  -9  18   29.08    7.17
   5  -9  18   26.13    8.39
  -5  10 -14   -1.59    3.73
  -5  10 -14   -2.76    4.11
  -5  10 -13    5.72    4.64
  -5  10 -13    2.45    5.09
  -5  10 -12   13.89    6.24
  -5 -10 -12    5.16    3.39
  -5  10 -12    6.33    3.73
  -5 -10 -11    2.69    3.19
  -5  10 -11    2.85    3.89
  -5  10 -11   -1.68    4.29
  -5 -10 -10   54.40    9.94
  -5  10 -10   31.84    8.28
  -5 -10  -9   -1.55    3.35
  -5  10  -9   -5.67    5.63
  -5 -10  -8    9.64    5.28
  -5  10  -8    0.51    2.19
   5 -10  -8    2.63    4.53
  -5 -10  -7    4.79    3.62
   5 -10  -7    1.13    2.70
  -5  10  -7   11.08    4.87
  -5 -10  -6    1.88    3.47
   5 -10  -6    2.30    2.46
  -5  10  -6   -0.51    2.15
  -5 -10  -5   12.08    5.00
   5 -10  -5   15.65    6.36
  -5  10  -5   14.43    5.55
  -5 -10  -4    5.01    3.25
   5 -10  -4    2.24    2.04
  -5  10  -4   -0.59    3.68
  -5 -10  -3    8.76    4.14
   5 -10  -3    6.68    2.95
  -5  10  -3    7.94    2.81
  -5 -10  -2   19.98    5.31
  -5 -10  -2   18.17    5.46
   5 -10  -2   11.74    3.43
  -5  10  -2   18.80    7.13
  -5 -10  -1   24.03    6.86
  -5 -10  -1   23.25    5.99
   5 -10  -1   28.41    7.04
  -5  10  -1   12.76    4.99
  -5 -10   0   -2.07    2.67
   5 -10   0   -1.08    2.33
  -5  10   0   -0.91    2.33
  -5 -10   0   -0.40    3.15
  -5  10   1   36.45    7.72
  -5 -10   1   38.29    8.35
   5 -10   1   25.86    6.65
  -5 -10   1   25.72    6.19
  -5 -10   2   31.72    8.05
  -5  10   2    8.77    3.07
  -5 -10   2   20.10    5.98
   5 -10   2   29.22    6.83
  -5 -10   3    7.56    4.08
  -5 -10   3    9.71    5.04
   5 -10   3    3.84    2.69
  -5  10   3    2.09    3.96
  -5  10   4   -2.01    4.64
  -5 -10   4    2.95    3.97
  -5 -10   4   -2.72    4.09
   5 -10   4    3.00    3.97
  -5 -10   5   21.12    6.49
  -5 -10   5   17.88    6.18
   5 -10   5    9.64    5.36
  -5  10   5   16.01    6.02
   5 -10   6    1.31    3.43
  -5 -10   6    3.67    3.20
  -5 -10   6   -0.10    2.13
  -5  10   6    2.38    4.69
  -5 -10   7   12.19    5.29
  -5 -10   7    8.21    2.19
   5 -10   7    3.41    3.43
  -5  10   7   17.03    6.61
  -5 -10   8   -0.06    2.87
  -5 -10   8    4.18    4.59
   5 -10   8    2.98    3.15
  -5  10   8   -1.11    4.55
  -5 -10   9   11.71    5.18
  -5 -10   9    7.06    4.80
   5 -10   9   -5.23    4.50
  -5 -10  10   44.46    8.37
   5 -10  10   30.19    8.92
  -5 -10  10   36.43    7.54
  -5 -10  11    4.66    3.77
   5 -10  11   -0.39    3.55
  -5 -10  11   -2.00    3.27
  -5 -10  12   11.71    5.19
   5 -10  12   11.57    5.21
  -5 -10  12    4.88    3.67
  -5 -10  13   -1.03    3.83
   5 -10  13    6.73    5.07
  -5 -10  13    2.32    2.30
  -5 -10  14   -1.29    3.21
   5 -10  14    4.92    4.37
  -5 -10  14   -0.23    2.31
  -5 -11  -7   -0.97    2.35
  -5  11  -7    5.91    3.83
  -5 -11  -6   16.85    6.03
   5 -11  -6   11.95    4.14
  -5  11  -6   29.97    7.48
  -5 -11  -5   39.31    8.56
   5 -11  -5   34.04    8.59
  -5  11  -5   38.21    8.00
  -5 -11  -4   -6.04    5.03
   5 -11  -4    8.90    5.20
  -5  11  -4    1.91    3.53
  -5 -11  -3    3.67    4.36
   5 -11  -3    8.82    4.76
  -5  11  -3    6.73    3.78
  -5 -11  -2   10.88    5.61
   5 -11  -2   10.41    5.76
  -5  11  -2    5.90    4.72
  -5 -11  -1    0.94    3.96
   5 -11  -1    0.21    3.38
  -5  11  -1   -4.04    4.04
  -5 -11   0   39.95    8.81
  -5 -11   0   48.31    9.11
   5 -11   0   35.15    8.08
  -5  11   0   45.52    9.45
  -5 -11   1   -1.88    2.18
   5 -11   1    3.49    3.96
  -5  11   1    6.00    3.01
  -5 -11   1    6.62    2.04
  -5 -11   2   12.10    5.62
  -5 -11   2   12.92    4.84
   5 -11   2    9.60    5.88
  -5  11   2   18.19    6.82
  -5 -11   3    5.01    2.47
  -5 -11   3    4.51    2.24
   5 -11   3    8.28    4.79
  -5  11   3    4.54    3.82
  -5 -11   4    6.62    3.43
  -5 -11   4   10.86    5.20
   5 -11   4   16.98    5.33
  -5  11   4   -1.43    2.52
  -5 -11   5   15.72    6.23
   5 -11   5   34.14    7.69
  -5  11   5   29.65    8.26
  -5 -11   5   36.33    8.40
  -5 -11   6    7.18    4.36
  -5 -11   6   20.31    7.46
   5 -11   6   12.48    3.55
  -5  11   6    6.79    4.02
  -5 -11   7    5.88    4.62
   5 -11   7    1.95    2.55
  -5 -11   7   -1.87    4.03
  -5  11   7   -0.40    3.68
  -6   0 -29   24.72    7.96
  -6   0 -28  298.15   23.25
  -6   0 -27  105.63   13.41
  -6   0 -26    8.67    5.35
  -6   0 -25   64.99    9.86
  -6   0 -24  259.60   19.31
  -6   0 -23   30.32    6.34
  -6   0 -22  250.59   19.02
  -6   0 -21   53.39    8.28
  -6   0 -20    7.66    4.49
  -6   0 -19   41.12    7.14
  -6   0 -18   15.16    4.87
  -6   0 -17  266.90   16.93
  -6   0 -16 2220.85   48.24
  -6   0 -15  558.17   23.81
  -6   0 -14 1079.30   24.99
  -6   0 -14 1286.56   35.15
  -6   0 -13  300.74   16.34
  -6   0 -13  298.82   13.21
  -6   0 -12  231.93   14.01
  -6   0 -12  212.24   10.93
  -6   0 -11  174.25    9.79
  -6   0 -11  163.82   11.58
  -6   0 -10  807.28   21.73
  -6   0 -10  789.05   25.29
  -6   0  -9  645.33   18.71
  -6   0  -9  563.86   20.85
  -6   0  -8  211.63   12.49
  -6   0  -8  201.71   10.36
  -6   0  -8  203.24   12.33
  -6   0  -7  131.68    9.63
  -6   0  -7  144.82    8.73
  -6   0  -7  150.22   10.48
  -6   0  -6  844.08   21.44
  -6   0  -6  844.62   24.12
  -6   0  -6  799.16   23.55
  -6   0  -5 2336.35   35.55
  -6   0  -5 2304.58   39.46
  -6   0  -5 2217.78   38.54
  -6   0  -4 1414.91   27.64
  -6   0  -4 1337.47   29.50
  -6   0  -4 1351.98   29.46
  -6   0  -3 1196.25   25.53
  -6   0  -3 1160.59   26.93
  -6   0  -2 5768.65   57.06
  -6   0  -2 5926.29   61.15
  -6   0  -1 2288.22   36.28
  -6   0  -1 2246.01   38.12
  -6   0  -1 2355.57   37.35
  -6   0   0  759.80   20.67
  -6   0   0  715.67   20.78
  -6   0   1 2102.23   35.91
  -6   0   1 2113.90   34.03
  -6   0   2 5594.92   55.60
  -6   0   2 6397.39   62.70
  -6   0   3 1137.84   26.91
  -6   0   3 1141.79   24.33
  -6   0   4 1407.78   30.39
  -6   0   4 1407.12   26.79
  -6   0   5 2250.27   39.63
  -6   0   5 2555.75   35.09
  -6   0   6  828.38   19.54
  -6   0   6  834.71   24.11
  -6   0   7  142.23    8.18
  -6   0   7  135.73    9.96
  -6   0   8  176.74    8.77
  -6   0   8  199.67   12.35
  -6   0   9  559.35   21.66
  -6   0   9  590.54   15.72
  -6   0  10  884.89   26.66
  -6   0  10  787.07   17.78
  -6   0  11  178.59   12.29
  -6   0  11  173.90    8.04
  -6   0  12  227.33   14.26
  -6   0  12  231.18    8.92
  -6   0  13  273.31   16.25
  -6   0  13  278.85    9.10
  -6   0  14 1319.66   35.78
  -6   0  15  599.96   24.22
  -6   0  16 2074.98   47.32
  -6   0  17  246.92   16.24
  -6   0  18   17.25    4.92
  -6   0  19   47.50    7.92
  -6   0  20    6.55    2.32
  -6   0  21   57.46    8.86
  -6   0  22  238.45   17.92
  -6   1 -29    3.12    3.91
  -6   1 -28   21.89    6.22
  -6   1 -27    4.67    4.14
  -6   1 -26   32.94    7.40
  -6   1 -25   27.08    5.94
  -6  -1 -24   17.97    6.13
  -6   1 -24   13.65    4.57
  -6  -1 -23   54.70    8.56
  -6   1 -23   62.63    9.71
  -6   1 -22   38.99    8.39
  -6  -1 -22   21.77    5.26
  -6   1 -21   60.73    9.12
  -6  -1 -21   39.49    6.77
  -6  -1 -20  151.41   13.80
  -6   1 -20  145.05   13.62
  -6  -1 -19   66.60    8.68
  -6   1 -19   58.20    8.70
  -6   1 -18   28.51    5.79
  -6  -1 -18   27.10    5.73
  -6  -1 -17   31.68    5.59
  -6   1 -17   34.01    6.16
  -6   1 -16   41.95    7.05
  -6  -1 -16   28.29    5.70
  -6   1 -15  157.72   11.24
  -6  -1 -15  154.19   12.13
  -6   1 -15  162.93   13.29
  -6   1 -14  480.48   22.08
  -6  -1 -14  454.14   20.29
  -6   1 -14  439.19   18.17
  -6  -1 -13   34.71    5.27
  -6   1 -13   38.86    5.95
  -6   1 -13   36.13    5.49
  -6  -1 -13   38.96    6.05
  -6  -1 -12  103.16    8.98
  -6  -1 -12  109.21    9.61
  -6   1 -12  104.78    9.99
  -6   1 -12  105.21    8.73
  -6  -1 -11  122.96    7.24
  -6   1 -11  144.42   10.17
  -6  -1 -11  131.40   10.16
  -6  -1 -11  150.24   10.96
  -6   1 -11  141.46   11.31
  -6   1 -10    5.64    2.10
  -6  -1 -10    8.04    1.89
  -6  -1 -10    2.80    1.88
  -6   1 -10   10.73    3.32
  -6  -1 -10    5.45    2.69
  -6   1  -9   62.52    6.51
  -6   1  -9   59.16    6.92
  -6  -1  -9   75.66    5.81
  -6  -1  -9   78.31    7.51
  -6  -1  -9   81.39    7.69
  -6   1  -8   53.53    6.14
  -6  -1  -8   53.42    4.88
  -6  -1  -8   61.39    7.07
  -6  -1  -8   63.20    6.63
  -6   1  -8   64.57    7.28
  -6   1  -7  394.95   16.19
  -6  -1  -7  405.56   13.82
  -6  -1  -7  426.11   16.53
  -6   1  -7  411.63   18.21
  -6  -1  -7  413.08   17.34
  -6  -1  -6  612.09   20.65
  -6   1  -6  643.23   22.29
  -6  -1  -6  624.20   19.68
  -6  -1  -6  644.97   17.33
  -6   1  -6  598.49   19.67
  -6   1  -5  809.43   24.68
  -6  -1  -5  764.58   19.62
  -6  -1  -5  802.69   23.54
  -6  -1  -5  801.95   21.84
  -6   1  -4  162.67   10.11
  -6   1  -4  172.81   11.23
  -6  -1  -4  173.51    9.42
  -6  -1  -4  176.90   10.28
  -6  -1  -4  171.84   10.79
  -6  -1  -3  132.65    8.71
  -6   1  -3  148.22    9.76
  -6   1  -3  128.00    9.65
  -6  -1  -3  137.07    8.58
  -6  -1  -3  124.79    9.03
  -6  -1  -2    2.76    0.68
  -6   1  -2    4.00    1.96
  -6  -1  -2    3.80    1.33
  -6   1  -2    3.18    1.25
  -6  -1  -2    5.04    1.69
  -6   1  -1   21.68    3.84
  -6   1  -1   19.13    3.52
  -6  -1  -1   20.29    3.53
  -6  -1  -1   25.43    3.99
  -6  -1   0    4.09    2.23
  -6  -1   0    2.87    1.60
  -6   1   0    2.85    2.03
  -6   1   0    1.85    1.76
  -6  -1   1   23.30    3.61
  -6   1   1   25.81    4.09
  -6  -1   1   18.62    3.27
  -6  -1   2    1.71    1.00
  -6   1   2    3.35    1.43
  -6  -1   2    2.65    1.19
  -6  -1   3  133.97    8.82
  -6  -1   3  112.45    8.64
  -6   1   3  133.47    9.44
  -6   1   4  185.17   11.35
  -6  -1   4  174.46    9.85
  -6  -1   4  163.50   10.58
  -6  -1   5  763.89   20.39
  -6   1   5  823.25   23.97
  -6   1   6  650.04   21.48
  -6  -1   6  639.51   18.37
  -6  -1   7  378.55   14.38
  -6  -1   7  415.38   17.78
  -6   1   7  415.07   17.64
  -6  -1   8   49.89    5.11
  -6  -1   8   55.78    6.70
  -6   1   8   53.78    6.39
  -6  -1   9   61.77    5.54
  -6  -1   9   70.25    7.38
  -6   1   9   68.32    7.28
  -6   1  10    4.93    1.64
  -6  -1  10    7.45    2.18
  -6  -1  10    7.76    3.02
  -6  -1  11  133.52    7.95
  -6  -1  11  141.98   11.09
  -6   1  11  146.00   11.10
  -6  -1  12  118.75    7.54
  -6   1  12  103.84    9.48
  -6  -1  12  110.67    9.98
  -6  -1  13   32.95    4.08
  -6  -1  13   37.95    6.30
  -6   1  13   33.77    5.81
  -6   1  14  435.36   20.17
  -6  -1  14  474.28   21.52
  -6  -1  14  468.63   14.84
  -6   1  15  154.95   12.56
  -6  -1  15  130.07   11.54
  -6   1  16   31.17    5.26
  -6  -1  16   42.54    6.72
  -6  -1  17   29.59    5.98
  -6   1  17   37.70    6.31
  -6  -1  18   25.47    5.93
  -6   1  18   29.23    6.17
  -6  -1  19   80.30   10.17
  -6   1  19   68.71    8.75
  -6  -1  20  189.41   15.34
  -6   1  20  161.73   14.73
  -6  -1  21   52.26    8.58
  -6   1  21   49.54    8.30
  -6  -1  22   26.85    6.60
  -6  -1  23   78.67   10.45
  -6   2 -29   17.58    5.50
  -6   2 -28   93.69   12.97
  -6   2 -27   22.04    6.19
  -6   2 -26    7.94    2.87
  -6   2 -25    5.19    3.72
  -6   2 -24  105.71   12.67
  -6   2 -23    1.58    2.34
  -6   2 -22   16.91    5.89
  -6   2 -21    3.85    2.49
  -6   2 -20   50.62    8.45
  -6  -2 -20   27.92    6.14
  -6   2 -19    4.09    1.95
  -6  -2 -19    9.76    2.98
  -6   2 -18   39.55    7.85
  -6  -2 -18   26.81    5.64
  -6  -2 -17    1.78    1.40
  -6  -2 -17    0.94    2.92
  -6   2 -17    0.41    1.40
  -6   2 -17   -1.71    1.49
  -6   2 -16  236.05   16.66
  -6  -2 -16  286.58   16.33
  -6   2 -16  289.34   18.30
  -6  -2 -16  266.26   16.28
  -6  -2 -15  208.29   13.79
  -6   2 -15  211.99   15.35
  -6   2 -15  212.72   14.32
  -6  -2 -14  704.32   26.14
  -6  -2 -14  645.29   23.32
  -6   2 -14  694.20   27.02
  -6   2 -14  708.83   25.69
  -6  -2 -13   68.46    7.20
  -6   2 -13   68.83    7.78
  -6   2 -13   70.42    8.34
  -6  -2 -13   75.03    8.31
  -6   2 -12   77.76    8.43
  -6  -2 -12   91.23    8.08
  -6   2 -12  101.09   10.00
  -6  -2 -12   78.44    8.48
  -6  -2 -11   78.83    5.07
  -6  -2 -11  110.96    8.44
  -6   2 -11  105.67   10.11
  -6   2 -11   95.50    9.08
  -6  -2 -11   86.27    8.80
  -6  -2 -10   70.29    6.51
  -6  -2 -10   64.72    4.90
  -6   2 -10   63.04    7.77
  -6   2 -10   68.85    7.73
  -6  -2 -10   76.85    8.06
  -6   2  -9    8.23    3.06
  -6  -2  -9    7.09    2.37
  -6   2  -9    9.10    2.60
  -6  -2  -9    5.33    1.24
  -6  -2  -9   11.16    3.37
  -6  -2  -8   24.99    3.30
  -6  -2  -8   23.40    4.04
  -6   2  -8   18.48    3.79
  -6  -2  -8   22.41    4.40
  -6   2  -8   26.13    4.72
  -6  -2  -7   26.28    3.84
  -6   2  -7   22.23    4.23
  -6   2  -7   27.10    5.02
  -6  -2  -7   19.74    3.16
  -6  -2  -7   21.40    3.80
  -6   2  -6  263.35   14.45
  -6  -2  -6  284.25   12.40
  -6  -2  -6  248.97   13.71
  -6   2  -6  261.84   14.86
  -6  -2  -6  277.07   11.46
  -6   2  -5   83.85    8.09
  -6  -2  -5   82.02    7.94
  -6   2  -5   95.47    9.14
  -6  -2  -5   91.70    6.74
  -6  -2  -5  100.34    7.09
  -6  -2  -4   12.70    3.34
  -6   2  -4   10.00    2.87
  -6  -2  -4    7.64    1.94
  -6   2  -4   12.56    3.43
  -6  -2  -4    5.48    1.63
  -6  -2  -3   57.91    5.53
  -6   2  -3   46.63    6.00
  -6   2  -3   59.14    7.01
  -6  -2  -3   52.51    5.33
  -6  -2  -2  476.79   16.53
  -6   2  -2  470.34   18.44
  -6   2  -2  458.84   19.00
  -6  -2  -2  445.67   15.25
  -6  -2  -1   97.63    8.16
  -6   2  -1   94.61    8.17
  -6  -2  -1   95.24    7.56
  -6  -2   0    3.12    1.57
  -6  -2   0    2.64    1.02
  -6   2   0    5.01    1.69
  -6   2   0    3.39    2.16
  -6  -2   1   82.14    7.49
  -6   2   1   78.05    7.52
  -6  -2   1   85.97    7.35
  -6   2   1   85.92    8.00
  -6   2   2  411.00   17.17
  -6  -2   2  451.08   17.33
  -6   2   2  469.36   18.80
  -6  -2   3   58.71    6.57
  -6   2   3   59.82    6.75
  -6  -2   3   44.98    5.42
  -6  -2   4   11.73    3.28
  -6  -2   4    8.04    2.49
  -6   2   4    8.76    2.81
  -6  -2   5   91.78    7.57
  -6   2   5  106.03    8.91
  -6  -2   5   88.47    8.04
  -6  -2   6  240.16   12.45
  -6   2   6  270.22   14.17
  -6  -2   6  240.34   13.79
  -6  -2   7   23.87    4.42
  -6  -2   7   13.68    3.25
  -6   2   7   16.23    3.27
  -6  -2   8   24.74    3.78
  -6  -2   8   22.54    4.51
  -6   2   8   18.01    3.92
  -6  -2   9    4.46    2.16
  -6  -2   9    6.92    2.61
  -6   2   9    5.30    2.14
  -6  -2  10   74.09    6.72
  -6  -2  10   66.62    7.89
  -6   2  10   80.76    8.21
  -6  -2  11   95.96    7.72
  -6   2  11  125.85   10.40
  -6  -2  11  105.47    9.93
  -6  -2  12   97.72    8.03
  -6  -2  12   95.23    9.57
  -6   2  12   92.85    9.00
  -6  -2  13   65.42    6.45
  -6  -2  13   60.71    7.75
  -6   2  13   54.12    6.84
  -6   2  14  733.41   26.40
  -6  -2  14  732.66   21.69
  -6  -2  14  718.07   27.57
  -6  -2  15  224.83   12.20
  -6  -2  15  213.03   15.43
  -6   2  15  211.61   14.62
  -6  -2  16  257.88   16.87
  -6   2  16  243.26   15.89
  -6  -2  17    4.79    3.16
  -6   2  17    0.60    2.70
  -6   2  18   32.47    6.14
  -6  -2  18   41.39    7.31
  -6   2  19    5.71    2.64
  -6  -2  19    7.67    3.30
  -6   2  20   47.68    6.71
  -6  -2  20   63.57    9.05
  -6  -2  21    7.03    3.00
  -6  -2  22    6.77    3.81
  -6  -2  23   11.64    4.53
  -6  -2  24  115.80   13.35
  -6   3 -28   -2.51    2.25
  -6   3 -27   30.32    7.92
  -6   3 -26   49.45    8.79
  -6   3 -25   79.32   11.00
  -6   3 -24   13.39    5.17
  -6   3 -23    6.50    3.84
  -6   3 -22    7.10    3.40
  -6   3 -21    9.32    4.08
  -6   3 -20   55.69    8.85
  -6   3 -19  137.94   13.85
  -6   3 -18  105.80   11.39
  -6   3 -18  100.19   11.49
  -6  -3 -18  111.07   12.29
  -6   3 -17  184.97   15.66
  -6   3 -17  199.56   15.61
  -6  -3 -17  199.97   14.50
  -6   3 -16   85.76   10.31
  -6   3 -16   78.42    9.58
  -6  -3 -16   91.10   10.10
  -6   3 -15   61.63    8.97
  -6   3 -15   59.41    7.96
  -6  -3 -15   69.20    8.25
  -6   3 -14  260.95   17.26
  -6   3 -14  272.47   17.24
  -6  -3 -14  235.30   15.92
  -6  -3 -13   70.55    6.56
  -6   3 -13   74.49    9.14
  -6   3 -13   65.98    8.51
  -6  -3 -13   77.53    8.61
  -6  -3 -12  110.12   10.25
  -6  -3 -12  100.43    7.94
  -6   3 -12  104.92   10.44
  -6   3 -12   86.94    9.63
  -6  -3 -11  226.01   11.08
   6  -3 -11  240.02   10.93
  -6   3 -11  231.69   15.18
  -6  -3 -11  196.05   13.53
  -6   3 -10   33.19    6.14
  -6  -3 -10   31.02    5.31
  -6  -3 -10   27.11    3.82
  -6  -3 -10   33.45    3.64
  -6   3 -10   30.23    5.93
  -6  -3  -9   84.57    8.89
  -6   3  -9   84.39    9.33
  -6  -3  -9   93.04    6.47
  -6  -3  -9   90.41    6.06
  -6   3  -9   96.03    9.66
  -6  -3  -8   96.17    6.43
  -6  -3  -8   92.98    8.89
  -6   3  -8  105.07    9.85
  -6   3  -8  100.43    9.54
  -6  -3  -8  107.37    7.21
  -6  -3  -7  406.17   19.03
  -6  -3  -7  435.47   14.59
  -6  -3  -7  360.83   12.72
  -6   3  -7  439.52   20.56
  -6   3  -7  393.21   19.22
  -6  -3  -6  432.39   15.39
  -6   3  -6  432.64   20.16
  -6  -3  -6  448.18   13.98
  -6   3  -6  413.74   19.21
  -6   3  -5  574.57   22.23
  -6  -3  -5  542.14   21.13
  -6  -3  -5  546.08   17.43
  -6   3  -5  541.90   22.33
  -6  -3  -5  518.90   14.80
  -6   3  -4  397.56   18.69
  -6  -3  -4  391.95   17.70
  -6   3  -4  397.60   18.72
  -6  -3  -4  391.28   15.03
  -6  -3  -4  379.49   13.25
  -6  -3  -3  909.71   26.75
  -6  -3  -3  891.06   23.74
  -6  -3  -3  887.31   20.20
  -6   3  -3  949.24   28.56
  -6  -3  -2  112.74    9.30
  -6   3  -2  123.29   10.17
  -6  -3  -2  108.30    8.36
  -6   3  -2  107.10    9.26
  -6  -3  -1   85.23    8.28
  -6   3  -1   91.59    8.75
  -6   3  -1   98.13    9.00
  -6  -3   0   53.03    6.47
  -6   3   0   65.23    7.67
  -6  -3   0   68.49    6.90
  -6  -3   1   99.13    8.78
  -6   3   1   86.28    8.34
  -6  -3   1   88.76    8.09
  -6   3   1   89.32    8.53
  -6  -3   2   91.81    8.30
  -6   3   2  103.23    9.20
  -6   3   2  114.11    9.69
  -6  -3   2  113.43    9.14
  -6  -3   3  898.67   25.97
  -6   3   3  877.53   26.79
  -6   3   3  919.54   27.64
  -6  -3   3  840.44   25.52
  -6  -3   4  349.51   16.36
  -6   3   4  365.85   17.45
  -6  -3   4  359.68   17.03
  -6  -3   5  515.43   19.73
  -6   3   5  539.30   21.23
  -6  -3   5  509.84   20.36
  -6  -3   6  439.65   18.01
  -6   3   6  423.59   18.99
  -6  -3   6  431.91   19.17
  -6  -3   7  431.40   18.15
  -6   3   7  425.64   19.00
  -6  -3   7  430.27   19.48
  -6  -3   8   80.32    7.72
  -6  -3   8   83.29    8.51
  -6   3   8   91.20    8.96
  -6  -3   9   88.11    8.25
  -6   3   9   87.55    8.69
  -6  -3   9   84.79    9.11
  -6   3  10   38.69    5.91
  -6  -3  10   25.74    4.79
  -6  -3  10   28.57    4.75
  -6  -3  11  211.41   12.90
  -6   3  11  215.46   14.40
  -6  -3  11  214.59   14.62
  -6  -3  12  101.70    8.96
  -6   3  12  100.51    9.84
  -6  -3  12   86.98    9.81
  -6  -3  13   83.81    8.10
  -6   3  13   67.09    8.20
  -6  -3  13   69.95    8.63
  -6  -3  14  276.44   15.20
  -6   3  14  280.59   16.72
  -6  -3  14  294.13   17.86
  -6  -3  15   50.94    6.70
  -6   3  15   56.44    7.99
  -6  -3  15   52.87    8.30
  -6  -3  16   73.76    8.07
  -6   3  16   62.73    8.01
  -6  -3  16   88.64   10.17
  -6   3  17  190.18   14.56
  -6  -3  17  194.80   15.39
  -6   3  18  105.93   10.89
  -6  -3  18  102.19   11.64
  -6  -3  19  177.67   14.99
  -6  -3  20   53.44    8.98
  -6  -3  21   16.88    5.04
  -6  -3  22    6.84    4.41
  -6  -3  23    9.78    3.92
  -6  -3  24   10.40    4.48
  -6  -3  25   79.13   11.35
  -6   4 -27    1.58    2.93
  -6   4 -26   10.96    3.78
  -6   4 -25    6.24    3.89
  -6   4 -24   91.30   11.98
  -6   4 -23   61.94   10.06
  -6   4 -22   32.08    7.44
  -6   4 -21   48.88    8.74
  -6   4 -20   54.74    8.00
  -6   4 -20   -6.36    3.07
  -6   4 -19   -0.33    2.45
  -6   4 -19    2.76    2.14
  -6   4 -18  297.01   19.79
  -6   4 -18  363.40   22.32
  -6   4 -17  118.84   12.94
  -6   4 -17  113.96   12.51
  -6  -4 -17  129.04   12.77
  -6  -4 -16   81.51    9.96
  -6   4 -16   80.39   10.28
  -6   4 -16   74.79    9.83
  -6   4 -15   66.99    9.57
  -6   4 -15   56.61    8.61
  -6  -4 -15   70.64    9.20
  -6  -4 -14    7.80    2.12
  -6   4 -14   10.52    4.02
  -6   4 -14    7.53    3.68
  -6  -4 -13  118.22   11.30
  -6   4 -13   98.78   10.99
  -6   4 -13  103.91   11.36
  -6  -4 -12  474.47   22.26
  -6   4 -12  542.17   24.91
  -6   4 -12  522.05   24.59
  -6  -4 -11  207.45   14.54
   6  -4 -11  199.47   12.22
  -6   4 -11  190.57   14.64
  -6   4 -11  207.67   15.13
  -6  -4 -10   33.33    6.05
   6  -4 -10   45.59    5.53
  -6   4 -10   49.40    7.74
  -6   4 -10   46.59    7.37
  -6  -4  -9  179.18    9.71
   6  -4  -9  173.11   11.31
  -6   4  -9  170.70   13.47
  -6  -4  -9  175.32   12.98
  -6   4  -9  157.11   13.02
  -6  -4  -8  614.52   24.27
  -6  -4  -8  599.11   18.45
  -6   4  -8  581.47   24.49
  -6  -4  -7   46.42    6.63
  -6  -4  -7   53.79    5.57
  -6   4  -7   45.46    6.61
  -6   4  -7   49.16    7.26
  -6  -4  -6   95.24    9.27
  -6   4  -6  101.76   10.10
  -6  -4  -6  101.21    8.09
  -6   4  -6   91.93    9.68
  -6  -4  -6   92.91    5.41
  -6  -4  -5  623.83   23.80
  -6   4  -5  609.67   24.81
  -6  -4  -5  610.44   20.23
  -6  -4  -5  574.22   13.37
  -6   4  -4    2.09    1.93
  -6   4  -4    1.03    1.75
  -6  -4  -4    4.06    2.87
  -6  -4  -4    0.33    0.90
  -6  -4  -4    1.39    1.27
  -6  -4  -3  243.47   14.83
  -6   4  -3  250.51   15.42
  -6  -4  -3  254.99   13.62
  -6  -4  -3  283.08   10.64
  -6   4  -3  267.12   15.99
  -6   4  -2  131.20   11.18
  -6   4  -2   94.18    9.48
  -6  -4  -2  113.46   10.04
  -6  -4  -2  120.99    9.52
  -6   4  -1   88.05    9.08
  -6  -4  -1  100.18    9.32
  -6   4  -1   96.30    9.55
  -6  -4  -1   90.76    8.25
  -6  -4   0  169.95   12.24
  -6   4   0  186.92   13.31
  -6   4   0  203.62   13.55
  -6  -4   0  176.54   11.81
  -6   4   1  100.34    9.80
  -6  -4   1   89.32    8.80
  -6  -4   1  105.40    9.19
  -6   4   1  111.12   10.08
  -6  -4   2  130.27   10.62
  -6   4   2  112.88   10.53
  -6  -4   2  123.03   10.15
  -6   4   2  115.30   10.19
  -6  -4   3  251.41   14.96
  -6  -4   3  237.54   14.46
  -6   4   3  257.82   15.15
  -6  -4   4    1.95    1.96
  -6  -4   4    2.95    1.45
  -6   4   4    2.21    1.39
  -6   4   4    6.99    2.66
  -6  -4   5  620.11   23.92
  -6   4   5  629.55   24.39
  -6  -4   5  639.88   23.85
  -6   4   5  606.02   23.93
  -6  -4   6   99.87    9.72
  -6   4   6  119.41   10.69
  -6  -4   6  119.85   10.55
  -6   4   6   88.74    9.12
  -6  -4   7   43.94    6.55
  -6   4   7   46.98    6.45
  -6  -4   7   44.65    6.27
  -6  -4   8  606.01   24.73
  -6   4   8  638.04   24.74
  -6  -4   8  610.25   23.38
  -6  -4   9  172.34   12.51
  -6   4   9  147.89   12.03
  -6  -4  10   37.73    5.95
  -6   4  10   40.91    6.43
  -6  -4  10   47.42    7.21
  -6  -4  11  217.64   14.35
  -6   4  11  216.58   14.85
  -6  -4  11  188.29   14.39
  -6  -4  12  487.56   21.70
  -6   4  12  549.86   23.91
  -6  -4  12  478.68   23.16
  -6  -4  13  110.26   10.25
  -6   4  13  101.37   10.17
  -6  -4  13  118.04   11.23
  -6  -4  14   12.52    3.49
  -6   4  14    7.16    2.58
  -6  -4  14    9.62    3.56
  -6  -4  15   80.32    9.03
  -6   4  15   89.23   10.21
  -6  -4  16   79.77    9.37
  -6  -4  16   86.44   10.67
  -6  -4  17  114.85   10.96
  -6   4  17   97.96   10.69
  -6  -4  18  333.43   21.03
  -6  -4  19   -1.35    2.24
  -6  -4  20   38.70    8.01
  -6  -4  21   46.75    8.86
  -6  -4  22   39.36    8.30
  -6  -4  23   38.59    7.65
  -6  -4  24  117.62   13.84
  -6  -4  25   10.34    4.32
  -6  -4  26    7.99    4.72
  -6   5 -26   28.37    6.65
  -6   5 -25   47.72    9.37
  -6   5 -24   15.14    4.90
  -6   5 -23    7.58    3.84
  -6   5 -22   26.83    7.10
  -6   5 -21   15.34    4.46
  -6   5 -21   -2.83    1.33
  -6   5 -20    8.40    3.74
  -6   5 -20   10.57    3.95
  -6   5 -19   -0.81    2.56
  -6   5 -19    4.81    2.55
  -6   5 -18   14.02    3.68
  -6   5 -18   17.86    5.08
  -6   5 -17   54.23    8.82
  -6   5 -17   39.27    7.86
  -6  -5 -16   22.14    5.39
  -6   5 -16   17.48    6.26
  -6   5 -16   23.85    5.76
  -6  -5 -15   15.43    4.88
  -6   5 -15   24.96    6.56
  -6   5 -15   29.03    6.90
  -6  -5 -14   25.75    5.44
  -6   5 -14   25.56    5.61
  -6   5 -14   33.58    6.72
  -6   5 -13   96.44   11.35
  -6  -5 -13   95.95   10.58
  -6   5 -13   86.10   11.13
  -6   5 -12    8.28    3.37
  -6  -5 -12   10.37    3.74
  -6   5 -12    5.22    2.05
  -6  -5 -11    0.44    2.05
  -6   5 -11    2.15    3.31
  -6   5 -11   -0.61    2.49
  -6  -5 -10   16.37    4.34
  -6   5 -10   21.90    4.96
   6  -5 -10   20.76    4.48
  -6   5 -10   16.05    5.24
  -6  -5  -9   31.86    6.23
   6  -5  -9   43.60    6.39
  -6   5  -9   53.25    7.80
  -6   5  -9   51.00    8.00
  -6  -5  -8   37.44    6.48
   6  -5  -8   31.95    5.82
  -6   5  -8   37.53    7.21
  -6  -5  -8   28.82    4.57
  -6   5  -8   30.08    6.24
  -6   5  -7   32.96    6.36
   6  -5  -7   27.56    5.22
  -6  -5  -7   30.42    5.85
  -6   5  -7   34.63    6.07
  -6  -5  -7   37.65    5.45
  -6   5  -6   10.11    3.38
  -6   5  -6   17.12    4.71
  -6  -5  -6   13.58    3.84
   6  -5  -6   12.42    3.16
  -6  -5  -6   15.59    3.68
  -6  -5  -5   50.42    7.05
  -6   5  -5   52.87    7.92
  -6   5  -5   48.18    7.42
  -6  -5  -5   49.06    6.44
  -6  -5  -4  131.74   11.44
  -6   5  -4  122.51   11.41
  -6   5  -4  154.31   12.87
  -6  -5  -4  124.98   10.16
  -6  -5  -3  106.84    9.47
  -6  -5  -3  117.55   10.90
  -6   5  -3  107.15   10.69
  -6   5  -3  116.94   10.99
  -6  -5  -2   94.90    9.21
  -6  -5  -2   94.41    9.51
  -6   5  -2   91.75   10.01
  -6   5  -2   96.66   10.14
  -6  -5  -1   39.07    6.01
  -6  -5  -1   35.44    6.08
  -6   5  -1   41.49    6.80
  -6   5  -1   55.53    8.01
  -6   5   0   29.31    5.52
  -6  -5   0   32.01    5.75
  -6  -5   0   21.42    4.57
  -6   5   0   24.73    4.94
  -6  -5   1   44.96    6.53
  -6  -5   1   45.01    6.60
  -6   5   1   45.24    6.74
  -6   5   1   44.05    7.45
  -6  -5   2  106.77   10.04
  -6  -5   2   98.45   10.31
  -6   5   2   89.82    9.48
  -6   5   2  115.77   11.09
  -6   5   3   87.89    9.81
  -6   5   3  107.50   10.37
  -6  -5   3   96.17    9.82
  -6   5   4  119.19   11.00
  -6  -5   4  136.09   11.85
  -6  -5   4  145.28   12.06
  -6   5   4  123.93   11.44
  -6   5   5   54.53    7.40
  -6  -5   5   41.95    6.92
  -6  -5   5   52.03    7.63
  -6   5   5   45.85    7.19
  -6   5   6   19.67    5.12
  -6   5   6   12.50    2.79
  -6  -5   6   18.12    4.31
  -6  -5   6   13.98    3.72
  -6  -5   7   27.20    5.59
  -6   5   7   28.23    5.44
  -6  -5   7   31.15    5.70
  -6   5   7   21.65    5.25
  -6  -5   8   42.08    6.99
  -6   5   8   36.84    6.18
  -6  -5   8   29.16    5.73
  -6   5   8   30.06    5.67
  -6  -5   9   47.45    7.52
  -6  -5   9   45.99    6.72
  -6   5   9   43.82    6.37
  -6   5   9   36.14    5.72
  -6   5  10   10.04    2.13
  -6  -5  10   21.09    5.18
  -6  -5  10   25.80    5.44
  -6  -5  11    5.37    4.29
  -6   5  11    0.79    2.53
  -6  -5  11    2.43    2.82
  -6  -5  12   11.77    4.07
  -6   5  12   15.20    4.78
  -6  -5  12   17.24    5.17
  -6  -5  13  100.39   11.21
  -6  -5  13  111.35   11.04
  -6   5  13   97.47   10.90
  -6   5  14   26.02    6.25
  -6  -5  14   25.38    5.64
  -6  -5  14   30.24    6.17
  -6  -5  15   18.00    4.47
  -6   5  15   27.34    6.33
  -6  -5  15   24.64    6.04
  -6  -5  16   24.15    5.85
  -6   5  16   29.90    7.05
  -6  -5  16   27.37    6.59
  -6  -5  17   35.38    5.91
  -6  -5  17   56.30    9.21
  -6  -5  18   23.85    5.87
  -6  -5  19    1.91    1.98
  -6  -5  20   -0.28    3.18
  -6  -5  21   14.31    5.07
  -6  -5  22   34.04    7.56
  -6  -5  23    2.35    4.33
  -6  -5  24    0.14    4.18
  -6  -5  25   34.06    8.91
  -6  -5  26   10.19    2.99
  -6   6 -25   35.71    8.00
  -6   6 -24   97.15   13.36
  -6   6 -23   12.29    4.07
  -6   6 -22  163.98   16.03
  -6   6 -21   67.79   10.37
  -6   6 -21   49.88   10.44
  -6   6 -20   -2.63    3.11
  -6   6 -20    9.91    4.73
  -6   6 -19   26.16    6.97
  -6   6 -19   43.20    8.42
  -6   6 -18  325.98   22.06
  -6   6 -18  294.07   21.92
  -6   6 -17   39.45    7.36
  -6   6 -17   37.42    8.28
  -6  -6 -16   -2.18    3.58
  -6   6 -16    0.73    3.60
  -6   6 -16    4.07    2.70
  -6  -6 -15    3.11    3.19
  -6   6 -15   11.44    4.94
  -6   6 -15   18.07    5.10
  -6  -6 -14    5.09    2.95
  -6   6 -14    7.33    4.13
  -6   6 -14    7.86    4.91
  -6   6 -13   22.63    5.73
  -6  -6 -13   35.21    7.09
  -6   6 -13   28.36    6.57
  -6   6 -12  211.78   16.91
  -6  -6 -12  247.27   17.55
  -6   6 -12  199.38   15.98
  -6  -6 -11   71.52    9.35
  -6   6 -11   57.95    8.65
  -6   6 -11   61.24    9.14
  -6  -6 -10   11.19    4.13
  -6   6 -10    8.09    3.60
   6  -6 -10    3.89    3.93
  -6   6 -10   10.13    3.85
  -6  -6  -9   59.41    8.44
   6  -6  -9   47.61    7.01
  -6   6  -9   40.96    6.73
  -6   6  -9   37.22    7.06
  -6  -6  -8  488.35   24.09
  -6   6  -8  501.55   25.64
  -6   6  -8  568.33   26.25
  -6   6  -7   88.49   10.41
  -6  -6  -7  112.11   11.34
   6  -6  -7  117.38   11.61
  -6   6  -7  125.13   12.66
  -6  -6  -7  117.80   10.64
  -6  -6  -6   -1.66    1.70
   6  -6  -6   -0.58    1.78
  -6  -6  -6   -2.15    2.38
  -6   6  -6    0.12    1.64
  -6   6  -6   -0.59    2.04
  -6  -6  -5   81.14    8.87
  -6  -6  -5   62.63    8.50
   6  -6  -5   73.07    8.83
  -6   6  -5   66.94    8.82
  -6   6  -5   98.78   11.16
  -6  -6  -4  235.21   15.15
  -6  -6  -4  232.85   16.20
   6  -6  -4  255.34   16.92
  -6   6  -4  237.72   16.63
  -6   6  -4  210.94   16.27
   6  -6  -3    3.17    2.15
  -6   6  -3   -0.10    1.77
  -6  -6  -3    1.75    1.99
  -6  -6  -3    0.70    2.17
  -6   6  -3    4.23    2.80
  -6  -6  -2  383.91   20.78
  -6   6  -2  406.79   22.29
  -6  -6  -2  412.44   20.43
  -6   6  -2  426.89   21.99
  -6  -6  -1   99.73   10.50
  -6   6  -1   95.93    9.91
  -6  -6  -1   98.97   10.17
  -6   6  -1   96.98   10.84
  -6   6   0    9.04    3.70
  -6  -6   0    3.54    2.76
  -6  -6   0    6.64    3.42
  -6   6   0    2.79    2.64
  -6  -6   1   87.52   10.37
  -6  -6   1  116.35   11.04
  -6   6   1   82.04    9.87
  -6   6   1  107.28   10.86
  -6  -6   2  426.74   21.84
  -6  -6   2  409.30   21.05
  -6   6   2  360.09   20.12
  -6   6   2  400.52   22.12
  -6   6   3    7.08    4.33
  -6  -6   3    8.23    3.59
  -6  -6   3    4.97    1.78
  -6   6   3    3.00    2.38
  -6   6   4  230.43   16.70
  -6  -6   4  218.78   15.74
  -6  -6   4  205.02   15.44
  -6   6   4  222.74   15.72
  -6   6   5   83.46   10.08
  -6  -6   5   75.10    9.45
  -6  -6   5   72.96    9.22
  -6   6   5   74.23    9.30
  -6   6   6    3.37    3.57
  -6  -6   6    0.66    3.28
  -6  -6   6    2.59    3.11
  -6   6   6    1.87    2.93
  -6  -6   7  111.98   11.62
  -6  -6   7  137.84   12.51
  -6   6   7   97.28   10.70
  -6   6   7  101.01   11.38
  -6  -6   8  561.13   25.55
  -6  -6   8  482.88   24.26
  -6   6   8  506.15   24.49
  -6   6   8  489.16   24.25
  -6   6   9   52.08    7.54
  -6  -6   9   57.85    8.74
  -6  -6   9   40.75    7.31
  -6   6   9   46.39    7.74
  -6  -6  10   -0.26    2.52
  -6  -6  10    5.78    1.51
  -6   6  10    3.76    3.19
  -6  -6  11   44.93    8.09
  -6  -6  11   54.34    8.18
  -6   6  11   53.74    8.27
  -6   6  11   58.42    8.08
  -6   6  12  232.32   17.51
  -6  -6  12  198.26   15.90
  -6   6  12  242.02   17.79
  -6   6  13   26.66    5.91
  -6  -6  13   15.37    5.10
  -6  -6  13   19.60    4.95
  -6   6  13   20.99    5.00
  -6   6  14    5.85    3.70
  -6  -6  14    3.96    3.10
  -6  -6  14   -1.42    2.85
  -6  -6  15   21.77    5.68
  -6   6  15   21.03    5.26
  -6  -6  15   16.25    5.34
  -6  -6  16    7.99    2.77
  -6  -6  16    5.03    2.74
  -6  -6  17   50.35    9.18
  -6  -6  17   53.48    8.73
  -6  -6  18  314.86   21.45
  -6  -6  18  323.75   21.90
   6  -6  19   31.89    7.12
  -6  -6  19   22.12    5.86
   6  -6  20    9.66    4.26
  -6  -6  20    1.92    3.16
   6  -6  21   81.15   11.77
  -6  -6  21   64.95   10.07
   6  -6  22  136.74   15.25
  -6  -6  22  185.32   17.81
  -6  -6  23   15.42    5.37
   6  -6  23   11.91    5.57
  -6  -6  24  100.41   13.36
  -6  -6  25   18.51    6.84
  -6   7 -23    4.45    3.11
  -6   7 -22    5.43    3.72
  -6   7 -21   49.86   10.00
  -6   7 -21   45.78    9.48
  -6   7 -20   43.41    8.06
  -6   7 -20   43.24    9.68
  -6   7 -19   33.09    7.71
  -6   7 -19   12.37    4.13
  -6   7 -18   75.88   10.97
  -6   7 -18   96.75   12.91
  -6   7 -17   14.62    6.33
  -6   7 -17   14.08    5.82
  -6   7 -16   29.96    6.72
  -6   7 -16   22.19    6.54
  -6  -7 -15   20.19    8.37
  -6   7 -15   36.67    7.42
  -6   7 -15   30.69    7.56
  -6  -7 -14   18.21    5.43
  -6   7 -14   20.78    6.06
  -6   7 -14   23.02    5.02
  -6  -7 -13   59.71    9.50
  -6   7 -13   68.44   10.48
  -6   7 -13   48.35    8.54
  -6  -7 -12   22.13    5.42
  -6   7 -12   28.81    6.40
  -6   7 -12   29.79    7.14
  -6  -7 -11   28.11    6.95
  -6   7 -11   22.28    5.95
  -6   7 -11   22.85    6.48
  -6  -7 -10   86.65   11.27
  -6   7 -10   74.78   10.97
  -6   7 -10   83.24   10.44
  -6  -7  -9   12.56    3.89
  -6   7  -9    6.03    1.60
  -6   7  -9    6.60    2.46
  -6  -7  -8  138.77   13.66
   6  -7  -8  127.48   12.76
  -6   7  -8  139.19   13.36
  -6   7  -8  128.33   14.05
  -6  -7  -7   36.35    6.58
   6  -7  -7   46.31    8.11
  -6   7  -7   42.93    7.17
  -6   7  -7   32.84    7.36
  -6  -7  -6   12.85    4.92
  -6  -7  -6   18.35    5.99
   6  -7  -6   10.69    3.59
  -6   7  -6    9.22    4.10
  -6   7  -6    9.42    3.60
  -6   7  -5   30.68    6.43
  -6  -7  -5   42.98    7.70
  -6  -7  -5   26.25    5.60
   6  -7  -5   41.97    6.82
  -6   7  -5   29.53    6.55
  -6   7  -4  158.78   13.94
  -6  -7  -4  146.86   13.37
  -6  -7  -4  144.18   12.62
   6  -7  -4  132.60   12.74
  -6   7  -4  137.95   13.93
  -6  -7  -3   53.64    8.40
  -6  -7  -3   44.63    7.26
   6  -7  -3   48.08    7.95
  -6   7  -3   46.59    7.86
  -6   7  -3   36.44    7.15
  -6   7  -2  159.15   14.33
  -6   7  -2  167.53   15.12
  -6  -7  -2  202.77   15.80
  -6  -7  -2  205.18   15.43
   6  -7  -2  210.94   16.11
  -6   7  -1   32.04    7.18
   6  -7  -1   34.13    6.61
  -6  -7  -1   45.77    7.46
  -6   7  -1   33.39    6.75
  -6  -7  -1   25.85    5.78
  -6   7   0    1.42    2.40
  -6  -7   0    3.56    2.86
   6  -7   0    3.23    3.64
  -6   7   0    9.28    3.98
  -6  -7   0    6.40    3.59
  -6   7   1   26.20    6.31
  -6   7   1   32.35    6.15
   6  -7   1   34.05    8.62
  -6  -7   1   23.51    5.38
  -6  -7   1   24.63    5.68
  -6  -7   2  200.28   15.84
  -6  -7   2  176.28   14.90
  -6   7   2  184.87   15.31
   6  -7   2  178.49   14.65
  -6   7   2  190.77   16.53
  -6   7   3   40.27    7.55
  -6  -7   3   52.30    7.44
  -6  -7   3   45.78    7.89
   6  -7   3   57.21    8.71
  -6   7   3   50.56    8.96
  -6  -7   4  159.13   13.93
  -6  -7   4  155.82   13.96
  -6   7   4  107.42   11.48
  -6   7   4  123.81   12.89
  -6   7   5   29.53    6.90
  -6  -7   5   38.73    7.25
  -6  -7   5   36.45    7.26
   6  -7   5   33.24    6.62
  -6   7   5   33.57    6.01
  -6   7   6   16.83    4.90
   6  -7   6    7.06    3.90
  -6  -7   6    6.79    4.08
  -6   7   6    7.80    3.60
  -6  -7   6   10.64    3.18
   6  -7   7   38.62    7.29
  -6   7   7   26.10    5.91
  -6  -7   7   36.29    6.78
  -6  -7   7   38.96    7.39
  -6   7   7   30.27    6.02
  -6  -7   8  124.78   12.93
  -6  -7   8  116.81   12.59
  -6   7   8  150.01   14.37
  -6   7   8  153.53   13.85
  -6   7   9   14.78    4.89
   6  -7   9   13.73    4.92
  -6  -7   9    9.67    4.21
  -6  -7   9   14.77    5.01
  -6   7   9    3.57    3.48
  -6  -7  10   66.46    9.50
  -6  -7  10   85.86   10.94
   6  -7  10   84.05   10.54
  -6   7  10   80.70   10.45
  -6   7  11   22.52    6.72
   6  -7  11   25.70    5.92
  -6  -7  11   20.04    5.67
  -6  -7  11   15.86    5.15
   6  -7  12   27.59    7.40
  -6   7  12   29.29    6.60
  -6  -7  12   33.10    6.93
  -6  -7  12   29.43    6.54
  -6  -7  13   69.70   10.56
  -6  -7  13   55.90    9.03
  -6   7  13   67.94   10.48
   6  -7  13   53.35    8.80
  -6  -7  14   11.36    4.52
  -6  -7  14   14.38    5.25
   6  -7  14   17.44    5.70
   6  -7  15   30.20    7.21
  -6  -7  15   25.54    6.43
  -6  -7  15   32.27    7.23
  -6  -7  16   36.28    7.78
  -6  -7  16   35.14    6.49
   6  -7  16   30.02    7.64
  -6  -7  17   12.69    5.42
   6  -7  17   15.06    5.22
  -6  -7  17   22.66    7.01
   6  -7  18   84.15   11.45
  -6  -7  18   85.13   11.84
  -6  -7  18  112.55   13.66
   6  -7  19   30.18    7.93
  -6  -7  19   36.21    7.72
   6  -7  20   28.66    8.00
  -6  -7  20   32.82    7.00
   6  -7  21   50.11    9.64
  -6  -7  21   46.68    8.77
   6  -7  22    3.54    4.88
  -6  -7  22    5.57    3.04
   6  -7  23   11.12    4.96
  -6  -7  23    0.69    2.61
  -6   8 -20   15.69    6.63
  -6   8 -20   24.59    7.28
  -6   8 -19   47.07    8.61
  -6   8 -19   42.87    8.76
  -6   8 -18   66.28   10.61
  -6   8 -18   93.61   13.19
  -6   8 -17   43.93    8.60
  -6   8 -17   41.78    9.31
  -6   8 -16   32.23    8.45
  -6   8 -16   36.69    9.10
  -6   8 -15   50.72    8.80
  -6   8 -15   35.15    6.68
  -6  -8 -14   44.36    8.97
  -6   8 -14   64.57   10.62
  -6   8 -14   58.55   10.14
  -6  -8 -13   95.69   12.63
  -6   8 -13   78.19   10.97
  -6   8 -13   91.78   12.44
  -6  -8 -12   64.37   10.30
  -6   8 -12   53.44    9.64
  -6   8 -12   63.39   10.41
  -6  -8 -11   36.66    7.26
  -6   8 -11   25.50    6.12
  -6  -8 -10   46.48    8.50
  -6   8 -10   50.98    8.74
  -6   8 -10   46.16    8.44
  -6   8  -9   25.57    6.90
  -6  -8  -9   24.04    6.18
   6  -8  -9   40.55    9.78
  -6   8  -9   32.55    7.28
  -6  -8  -8  160.15   15.20
  -6   8  -8  173.27   16.44
   6  -8  -8  161.04   15.71
  -6   8  -8  154.44   15.12
  -6  -8  -7   70.14    9.66
  -6   8  -7   87.13   11.08
   6  -8  -7   74.65   10.41
  -6   8  -7   78.73   10.83
  -6  -8  -6   22.91    6.53
   6  -8  -6   24.92    6.17
  -6   8  -6   15.07    4.75
  -6   8  -6   23.62    7.04
  -6   8  -5   61.71    9.14
  -6  -8  -5   54.08    8.75
  -6   8  -5   40.98    8.34
  -6  -8  -4   97.27   11.15
  -6   8  -4  104.02   12.12
  -6  -8  -4  112.64   12.65
  -6   8  -4   97.09   11.86
   6  -8  -3    0.23    2.61
  -6  -8  -3    1.85    1.99
  -6   8  -3    5.03    3.82
  -6  -8  -3    5.27    4.27
  -6   8  -3    0.86    3.40
  -6  -8  -2  104.53   11.76
  -6  -8  -2  122.49   12.77
   6  -8  -2  108.46   12.45
  -6   8  -2   95.95   11.45
  -6   8  -2   89.35   11.37
   6  -8  -1   24.88    5.75
  -6   8  -1   42.58    7.81
  -6  -8  -1   25.17    5.67
  -6  -8  -1   36.03    7.32
  -6   8  -1   45.46    8.11
  -6  -8   0    3.04    1.84
  -6   8   0   -0.06    2.31
  -6   8   0    2.63    2.16
   6  -8   0    2.39    2.08
  -6  -8   0    3.97    2.30
  -6  -8   1   27.05    6.33
  -6   8   1   25.17    6.25
   6  -8   1   27.58    7.16
  -6   8   1   24.23    5.42
  -6  -8   1   29.93    6.36
  -6  -8   2   95.79   11.60
  -6  -8   2  121.35   13.12
   6  -8   2  113.03   12.42
  -6   8   2  112.71   12.23
  -6   8   2  101.70   12.37
  -6  -8   3   -0.62    2.54
   6  -8   3    1.94    2.49
  -6   8   3    1.02    2.70
  -6  -8   3    2.02    3.48
  -6   8   3    5.46    3.50
  -6  -8   4  109.34   12.37
  -6  -8   4   84.40   10.87
   6  -8   4   86.10   11.20
  -6   8   4   96.47   11.68
  -6   8   5   60.77    8.92
  -6  -8   5   70.21    9.93
  -6  -8   5   66.17    9.40
   6  -8   5   72.55   10.27
  -6   8   6   13.40    5.31
  -6  -8   6   29.12    6.87
   6  -8   6   20.46    5.30
  -6  -8   6   23.25    6.48
  -6  -8   7   72.76   10.18
   6  -8   7   68.67    9.91
  -6  -8   7   62.99    8.91
  -6   8   7   79.61   11.04
  -6   8   8  174.68   16.00
  -6  -8   8  169.48   15.60
   6  -8   8  160.49   15.16
  -6   8   9   10.72    5.88
  -6  -8   9   25.03    5.59
   6  -8   9   30.18    6.95
  -6  -8   9   27.94    6.70
  -6   8  10   32.72    7.90
  -6  -8  10   51.57    8.82
  -6  -8  10   32.84    6.53
   6  -8  10   37.51    7.43
  -6   8  11   31.61    7.20
  -6  -8  11   48.86    8.42
  -6  -8  11   38.67    7.50
   6  -8  11   37.40    7.19
  -6   8  12   45.04    8.87
   6  -8  12   47.69    8.68
  -6  -8  12   56.75    9.16
  -6  -8  12   51.38    9.35
  -6  -8  13   84.47   11.30
  -6  -8  13   91.72   12.16
   6  -8  13  104.36   12.60
  -6  -8  14   53.92    9.14
  -6  -8  14   57.85   10.24
   6  -8  14   77.58   10.92
   6  -8  15   31.94    7.78
  -6  -8  15   47.57    8.70
  -6  -8  15   53.46    8.94
   6  -8  16   30.20    6.77
  -6  -8  16   33.26    7.12
  -6  -8  16   40.10    7.90
  -6  -8  17   18.44    5.55
  -6  -8  17   35.43    7.88
   6  -8  17   22.62    6.64
  -6  -8  18   80.63   11.85
  -6  -8  18   88.45   12.60
   6  -8  18   58.32   11.01
   6  -8  19   31.03    8.63
  -6  -8  19   42.64    8.32
   6  -8  20   17.85    6.95
  -6  -8  20   30.09    7.44
  -6   9 -17   -0.32    3.52
  -6   9 -17    0.71    4.14
  -6   9 -16   -1.77    2.51
  -6   9 -16    8.53    5.52
  -6   9 -15   -5.04    4.81
  -6   9 -15    1.83    1.91
  -6   9 -14   26.79    7.47
  -6  -9 -14   38.68   10.25
  -6   9 -14   26.99    7.81
  -6   9 -13    0.41    4.20
  -6   9 -13   -3.24    3.87
  -6  -9 -13    3.19    4.31
  -6  -9 -12   36.60    7.56
  -6   9 -12   39.36    8.45
  -6   9 -12   48.10    8.74
  -6  -9 -11   -4.17    4.70
  -6   9 -11    1.88    2.70
  -6   9 -11    0.69    2.20
  -6  -9 -10    4.38    4.36
  -6   9 -10    6.31    5.11
  -6   9 -10    6.02    4.02
  -6  -9  -9   10.32    3.81
  -6   9  -9    7.36    4.98
  -6   9  -9   12.01    2.50
  -6   9  -8   25.47    6.85
  -6  -9  -8   16.25    6.13
   6  -9  -8   27.85    7.57
  -6   9  -8   19.24    5.55
  -6  -9  -7    9.52    4.50
   6  -9  -7   13.08    5.49
  -6   9  -7   13.19    4.43
  -6   9  -7    6.50    2.42
  -6   9  -6   25.49    6.22
  -6  -9  -6   39.38    8.05
   6  -9  -6   22.92    6.41
  -6   9  -6   29.08    7.56
  -6  -9  -5   16.50    5.44
   6  -9  -5   16.28    5.76
  -6   9  -5   20.90    5.73
  -6   9  -5   20.54    6.02
  -6   9  -4    1.82    3.34
  -6  -9  -4    2.53    1.89
   6  -9  -4    4.40    3.34
  -6   9  -4    4.76    4.02
  -6   9  -3   17.20    4.65
  -6  -9  -3   32.11    6.84
  -6  -9  -3   26.42    6.78
   6  -9  -3   14.58    5.36
  -6   9  -3   23.17    6.41
  -6  -9  -2    4.35    3.88
   6  -9  -2   -1.02    3.77
  -6  -9  -2   -0.87    2.32
  -6   9  -2    5.67    2.43
  -6  -9  -1   32.40    7.02
   6  -9  -1   30.72    6.63
  -6   9  -1   38.09    7.92
  -6  -9  -1   22.27    5.49
  -6  -9   0   28.64    6.01
   6  -9   0   29.41    7.73
  -6  -9   0   26.01    6.54
  -6   9   0   18.26    5.66
  -6  -9   1   27.56    6.69
   6  -9   1   22.77    5.64
  -6  -9   1   28.60    6.34
  -6   9   1   24.45    6.53
   6  -9   2   -3.44    3.60
  -6  -9   2    6.27    3.64
  -6   9   2    8.18    4.18
  -6  -9   2    7.82    3.84
  -6  -9   3   13.93    4.27
  -6   9   3   28.66    6.60
  -6  -9   3   15.00    5.58
   6  -9   3   17.24    5.42
  -6   9   4    2.12    2.78
  -6  -9   4    9.55    5.17
   6  -9   4    3.37    3.52
  -6  -9   4    5.37    2.66
  -6  -9   5   22.70    5.29
   6  -9   5    8.77    3.36
  -6  -9   5   13.11    5.19
  -6   9   5   19.95    5.41
  -6  -9   6   34.42    7.74
   6  -9   6   28.57    6.98
  -6   9   6   42.17    8.39
  -6  -9   6   27.54    7.16
  -6  -9   7    6.19    2.39
  -6  -9   7   16.32    4.79
  -6   9   7    5.81    4.88
   6  -9   7   12.29    5.36
  -6  -9   8   16.72    5.78
   6  -9   8   28.64    7.30
  -6  -9   8   25.49    7.11
  -6   9   8   31.36    6.95
  -6  -9   9   17.68    5.27
   6  -9   9    5.94    3.59
  -6  -9   9   20.02    6.58
  -6   9   9    9.81    5.45
  -6   9  10    0.33    2.38
  -6  -9  10   14.28    5.05
   6  -9  10   12.11    4.92
  -6  -9  10    6.41    4.23
  -6  -9  11    0.80    2.28
   6  -9  11    2.20    3.98
  -6  -9  11    0.40    2.71
  -6  -9  12   27.34    5.72
  -6  -9  12   20.86    6.29
  -6  -9  13    0.07    4.54
  -6  -9  13    0.57    2.32
   6  -9  13    3.92    5.06
  -6  -9  14   31.47    8.04
  -6  -9  14   24.39    6.42
   6  -9  14   14.44    4.47
  -6  -9  15    6.37    4.27
  -6  -9  15    0.03    2.54
   6  -9  15    1.70    4.05
  -6  -9  16    3.47    4.65
  -6  -9  16   -0.09    3.47
   6  -9  16   -2.80    3.33
  -6  -9  17   -2.87    2.48
  -6  -9  17    3.01    4.16
   6  -9  17   -1.77    2.57
  -6  10 -13    5.10    2.76
  -6  10 -13    6.31    5.44
  -6 -10 -12   37.64    8.79
  -6  10 -12   31.18    7.61
  -6  10 -12   34.88    8.56
  -6 -10 -11    6.58    3.33
  -6  10 -11    6.37    3.49
  -6 -10 -10    6.93    5.29
  -6  10 -10    2.68    2.39
  -6  10 -10   10.02    4.40
  -6 -10  -9   11.83    3.53
  -6  10  -9   11.20    5.67
  -6 -10  -8   79.28   12.43
  -6  10  -8   72.19   11.81
  -6 -10  -7   10.03    4.91
   6 -10  -7    2.08    2.47
  -6  10  -7   12.16    4.63
  -6 -10  -6   11.04    5.15
   6 -10  -6   22.72    6.50
  -6  10  -6   20.92    5.77
  -6 -10  -5   40.78    8.84
   6 -10  -5   32.95    7.48
  -6  10  -5   49.97    9.43
  -6 -10  -4   48.34    9.60
   6 -10  -4   25.55    6.95
  -6  10  -4   41.44    9.24
  -6 -10  -3   15.16    5.97
   6 -10  -3   19.30    6.88
  -6  10  -3   17.01    6.61
  -6 -10  -2   54.60    9.15
   6 -10  -2   61.24    9.90
  -6  10  -2   71.92   11.63
  -6 -10  -1   22.24    6.48
   6 -10  -1   29.60    7.96
  -6 -10  -1   28.66    7.76
  -6  10  -1   22.55    6.63
  -6 -10   0    4.31    3.04
   6 -10   0    7.00    3.02
  -6 -10   0    5.70    4.27
  -6  10   0    4.85    3.04
  -6 -10   1   24.10    5.95
   6 -10   1   23.24    6.89
  -6 -10   1   24.54    7.68
  -6  10   1   21.16    7.01
  -6 -10   2   49.99    8.79
  -6 -10   2   51.25   10.25
   6 -10   2   58.46   10.03
  -6  10   2   52.09    9.83
  -6 -10   3   13.55    4.86
  -6 -10   3   16.74    5.94
   6 -10   3    6.57    3.46
  -6  10   3   17.72    6.16
  -6 -10   4   41.66    7.98
   6 -10   4   51.16    9.61
  -6 -10   4   41.53    8.42
  -6  10   4   44.93    9.33
  -6 -10   5   33.09    7.31
  -6 -10   5   24.45    5.71
   6 -10   5   32.93    7.29
  -6  10   5   21.89    6.93
  -6 -10   6   31.49    8.16
   6 -10   6   11.35    5.64
  -6 -10   6   19.62    6.23
  -6  10   6   17.15    4.98
  -6 -10   7   14.01    5.77
   6 -10   7   11.59    5.29
  -6 -10   7   17.29    5.64
  -6  10   7    7.17    3.72
  -6 -10   8   83.13   11.54
  -6 -10   8   62.86   10.92
   6 -10   8   64.55   10.72
  -6  10   8   62.36   10.79
  -6 -10   9   15.73    5.95
   6 -10   9   20.89    7.49
  -6 -10   9    9.43    3.98
  -6  10   9    3.28    3.47
  -6 -10  10    5.71    3.10
   6 -10  10    5.77    5.09
  -6 -10  10   14.80    5.58
  -6 -10  11   13.36    6.07
  -6 -10  11   14.04    5.96
   6 -10  11    7.62    4.70
  -6 -10  12   31.63    7.22
   6 -10  12   19.82    6.48
  -6 -10  13    5.39    3.06
   6 -10  13   -2.46    3.96
  -6 -11  -5    4.52    3.73
   6 -11  -5    9.19    4.73
  -6  11  -5    0.02    3.62
  -6 -11  -4   -1.84    4.89
   6 -11  -4    3.81    3.32
  -6  11  -4   -1.84    4.82
  -6 -11  -3    6.12    2.83
   6 -11  -3   15.78    5.85
  -6  11  -3   15.76    5.66
  -6 -11  -2   -2.47    3.93
   6 -11  -2    4.61    4.51
  -6  11  -2    8.66    5.14
  -6 -11  -1   19.99    6.70
   6 -11  -1   21.94    7.39
  -6  11  -1   19.64    7.25
  -6 -11   0   13.74    4.91
   6 -11   0   20.48    6.85
  -6  11   0   14.31    5.39
  -6 -11   1   21.44    7.05
   6 -11   1    6.99    2.52
  -6  11   1   17.31    6.68
  -6 -11   1   14.47    5.93
  -6 -11   2    5.69    3.91
   6 -11   2   -1.36    3.05
  -6 -11   2   15.84    5.96
  -6  11   2   13.86    5.52
  -6 -11   3   14.38    4.74
   6 -11   3   10.32    5.18
  -6 -11   3    3.36    2.96
  -6  11   3   15.30    6.22
  -6 -11   4   -0.91    3.87
   6 -11   4    4.68    3.93
  -6  11   4   -2.40    4.38
  -6 -11   4    5.92    4.52
  -6 -11   5    8.53    5.51
   6 -11   5   15.66    4.25
  -6 -11   5   12.31    4.36
  -6  11   5    2.93    4.58
  -7   0 -28   15.90    7.16
  -7   0 -27   -1.57    3.63
  -7   0 -26   -0.53    3.74
  -7   0 -25    6.04    4.68
  -7   0 -24   -3.47    3.61
  -7   0 -23   -0.86    2.04
  -7   0 -22    4.94    3.15
  -7   0 -21   -0.99    2.94
  -7   0 -20    1.51    3.39
  -7   0 -19   -2.40    1.64
  -7   0 -18    0.95    2.18
  -7   0 -17   -0.44    1.67
  -7   0 -16   -0.56    1.82
  -7   0 -15    2.24    2.73
  -7   0 -14   -4.35    1.70
  -7   0 -14   -2.06    2.18
  -7   0 -13    1.70    1.90
  -7   0 -13   -0.78    1.70
  -7   0 -12   -0.13    1.63
  -7   0 -12    0.52    1.82
  -7   0 -11   -0.27    1.71
  -7   0 -11    1.87    1.59
  -7   0 -10    0.72    1.73
  -7   0 -10   -0.36    2.14
  -7   0  -9   -1.06    1.45
  -7   0  -9    0.17    1.32
  -7   0  -8   -0.23    1.76
  -7   0  -8   -0.15    0.85
  -7   0  -8   -0.54    2.26
  -7   0  -7    1.38    1.27
  -7   0  -7    0.87    1.89
  -7   0  -7    0.35    2.32
  -7   0  -6    0.31    0.82
  -7   0  -6   -0.17    1.23
  -7   0  -6    0.38    1.64
  -7   0  -5   -0.48    0.84
  -7   0  -5    2.20    1.61
  -7   0  -5    0.20    1.13
  -7   0  -4    0.20    0.89
  -7   0  -4    0.54    0.82
  -7   0  -4   -0.18    0.83
  -7   0  -3    0.17    1.27
  -7   0  -3    1.77    1.78
  -7   0  -3    0.62    0.90
  -7   0  -2   -0.30    1.45
  -7   0  -2   -0.19    1.42
  -7   0  -2   -0.92    1.62
  -7   0  -1    0.14    1.00
  -7   0  -1    0.36    0.72
  -7   0  -1    0.88    1.33
  -7   0   0   -0.87    1.73
  -7   0   0   -0.68    1.05
  -7   0   1    0.30    0.89
  -7   0   1   -0.38    0.91
  -7   0   2   -0.21    1.62
  -7   0   2    0.58    1.75
  -7   0   3    0.79    1.71
  -7   0   3   -0.79    1.26
  -7   0   4   -1.00    1.52
  -7   0   4    0.32    0.89
  -7   0   5    0.89    1.61
  -7   0   5    0.58    1.45
  -7   0   6   -0.19    1.53
  -7   0   6    0.93    1.33
  -7   0   7    0.30    0.93
  -7   0   7   -0.01    1.04
  -7   0   8    2.18    1.49
  -7   0   8    0.60    1.57
  -7   0   9    1.74    1.54
  -7   0   9   -0.16    1.22
  -7   0  10    0.33    1.68
  -7   0  10    0.51    1.02
  -7   0  11    1.01    2.07
  -7   0  11   -0.25    0.92
  -7   0  12   -0.21    1.55
  -7   0  12   -0.52    0.82
  -7   0  13    0.80    1.41
  -7   0  13   -0.48    0.79
  -7   0  14    0.29    1.79
  -7   0  15    0.55    2.68
  -7   0  16   -1.26    1.91
  -7   0  17    1.06    2.83
  -7   0  18    0.35    1.93
  -7   0  19   -0.48    2.60
  -7   0  20   -2.17    1.61
  -7   0  21   -2.19    2.45
  -7   0  22   -0.37    2.03
  -7   0  23    1.00    2.67
  -7   1 -29   -3.40    5.08
  -7   1 -28  166.13   16.75
  -7   1 -27   11.57    3.80
  -7   1 -26   14.72    5.26
  -7   1 -25   59.61    9.99
  -7   1 -24  288.76   21.38
  -7  -1 -23   27.83    6.39
  -7   1 -23   23.19    6.01
  -7  -1 -22  120.58   12.82
  -7   1 -22  102.76   12.15
  -7   1 -21   67.00   10.12
  -7  -1 -21   40.90    7.71
  -7  -1 -20  147.92   13.46
  -7   1 -20  159.31   14.54
  -7  -1 -19   98.63   10.91
  -7   1 -19  106.46   11.86
  -7  -1 -18   82.43    9.85
  -7   1 -18   88.49   10.78
  -7  -1 -17   81.00    9.74
  -7   1 -17   92.82   10.69
  -7   1 -16  745.70   29.40
  -7  -1 -15  158.42   12.69
  -7   1 -15  148.64   12.77
  -7   1 -15  145.99   11.60
  -7  -1 -14 1261.96   34.51
  -7   1 -14 1221.42   36.19
  -7   1 -14 1213.59   32.04
  -7  -1 -14 1273.16   35.81
  -7  -1 -13   74.65    8.44
  -7   1 -13   72.72    8.65
  -7   1 -13   78.00    7.91
  -7  -1 -13   75.04    8.83
  -7  -1 -12  156.12    9.06
  -7  -1 -12  174.55   12.26
  -7  -1 -12  165.88   12.64
  -7   1 -12  129.61   10.45
  -7   1 -12  131.90   11.45
  -7  -1 -11  239.93   11.27
  -7  -1 -11  221.45   13.70
  -7   1 -11  263.87   15.98
  -7  -1 -11  226.25   14.35
  -7   1 -11  214.21   13.02
  -7   1 -10  121.22    9.75
  -7  -1 -10  108.21    9.60
  -7  -1 -10  109.81    7.79
  -7   1 -10  103.28    9.86
  -7  -1 -10  117.39    9.98
  -7   1  -9    8.68    2.64
  -7   1  -9   15.29    3.69
  -7  -1  -9   12.63    2.38
  -7  -1  -9   10.32    3.36
  -7  -1  -9   10.75    3.19
  -7   1  -8  162.06   11.28
  -7  -1  -8  161.73    9.75
  -7   1  -8  191.15   13.05
  -7  -1  -8  177.93   11.91
  -7  -1  -8  179.74   12.17
  -7   1  -7  207.41   12.37
  -7  -1  -7  212.69   11.02
  -7  -1  -7  196.82   12.25
  -7  -1  -7  230.39   13.66
  -7   1  -7  230.18   14.27
  -7  -1  -6  413.24   15.48
  -7   1  -6  396.93   17.04
  -7   1  -6  428.73   19.19
  -7  -1  -6  428.69   17.52
  -7  -1  -6  404.66   17.87
  -7   1  -5  508.48   19.33
  -7  -1  -5  503.47   18.78
  -7  -1  -5  491.01   16.90
  -7   1  -5  526.58   21.03
  -7  -1  -5  509.87   19.83
  -7   1  -4  358.09   16.21
  -7  -1  -4  378.47   15.32
  -7   1  -4  378.74   17.51
  -7  -1  -4  377.33   16.17
  -7  -1  -4  368.02   16.50
  -7   1  -3  638.31   21.58
  -7   1  -3  629.90   22.63
  -7  -1  -3  620.47   20.25
  -7  -1  -3  661.87   21.47
  -7  -1  -3  568.89   20.61
  -7   1  -2 1278.17   31.94
  -7   1  -2 1228.96   29.70
  -7  -1  -2 1275.83   29.68
  -7  -1  -2 1321.04   29.26
  -7  -1  -2 1343.98   30.99
  -7   1  -1   34.63    4.87
  -7  -1  -1   29.76    4.52
  -7   1  -1   29.74    5.04
  -7  -1  -1   37.26    5.53
  -7  -1   0    0.71    0.72
  -7   1   0    0.43    0.84
  -7  -1   0    0.45    1.05
  -7  -1   1   37.33    4.92
  -7   1   1   26.98    4.87
  -7   1   1   30.03    4.90
  -7  -1   1   23.78    4.15
  -7  -1   2 1352.28   31.17
  -7   1   2 1281.20   31.51
  -7  -1   2 1246.26   28.75
  -7  -1   3  629.71   21.59
  -7   1   3  624.79   21.82
  -7  -1   3  616.56   19.98
  -7  -1   4  383.24   16.75
  -7   1   4  362.83   16.81
  -7  -1   4  359.32   15.53
  -7  -1   5  508.31   19.97
  -7   1   5  542.02   20.60
  -7  -1   5  469.84   17.23
  -7  -1   6  419.16   16.25
  -7  -1   6  440.44   18.78
  -7  -1   7  231.00   13.72
  -7   1   7  236.23   13.94
  -7  -1   7  239.37   12.11
  -7  -1   8  188.93   10.58
  -7   1   8  173.87   12.22
  -7  -1   8  179.17   12.30
  -7   1   9   17.19    4.12
  -7  -1   9   20.58    3.45
  -7  -1   9   10.27    3.67
  -7  -1  10  103.72    9.78
  -7   1  10  116.42   10.06
  -7  -1  10  115.01    8.35
  -7  -1  11  240.94   15.00
  -7   1  11  196.19   13.65
  -7  -1  11  217.02   11.35
  -7  -1  12  174.89   13.16
  -7   1  12  172.72   12.92
  -7  -1  12  174.05    9.93
  -7  -1  13   56.31    7.77
  -7   1  13   62.95    7.92
  -7  -1  13   57.46    5.84
  -7  -1  14 1270.65   36.74
  -7   1  14 1168.85   34.98
  -7  -1  14 1196.16   25.65
  -7  -1  15  163.23   13.38
  -7   1  15  133.53   11.76
  -7  -1  16  741.55   28.97
  -7   1  16  744.71   29.14
  -7  -1  17   86.48   10.08
  -7   1  17   77.07    9.50
  -7  -1  18   97.04   10.99
  -7   1  18   98.64   10.99
  -7  -1  19  110.26   11.56
  -7   1  19   95.89   10.67
  -7  -1  20  132.88   13.13
  -7   1  20  134.29   13.58
  -7  -1  21   61.29    9.42
  -7   1  21   53.99    8.69
  -7  -1  22   99.84   11.86
  -7  -1  23   40.36    7.00
  -7  -1  24  320.64   23.04
  -7   2 -28   16.47    5.04
  -7   2 -27    1.05    2.45
  -7   2 -26   -0.23    2.76
  -7   2 -25   31.84    7.47
  -7   2 -24   21.40    6.36
  -7   2 -23   31.54    6.87
  -7   2 -22   10.98    4.18
  -7   2 -21   55.92    9.04
  -7   2 -20   40.77    7.39
  -7   2 -19    0.07    2.10
  -7  -2 -18  100.04   10.90
  -7   2 -18  103.14   11.66
  -7  -2 -17   44.97    6.68
  -7   2 -17   50.74    8.17
  -7  -2 -17   55.96    7.97
  -7  -2 -16  720.61   26.23
  -7   2 -16  746.99   29.83
  -7   2 -16  673.11   26.96
  -7  -2 -16  745.86   28.75
  -7   2 -15  162.43   13.44
  -7   2 -15  167.30   13.23
  -7  -2 -15  161.87   12.30
  -7  -2 -15  135.87   12.07
  -7  -2 -14  201.46   13.64
  -7   2 -14  187.65   14.32
  -7   2 -14  178.68   13.30
  -7  -2 -14  180.93   13.71
  -7   2 -13  107.52   10.30
  -7  -2 -13  101.15    9.13
  -7   2 -13  120.34   11.30
  -7  -2 -13  129.71   11.52
  -7  -2 -12  274.06   14.76
  -7   2 -12  279.83   16.44
  -7  -2 -12  302.80   17.25
  -7   2 -11   15.64    4.00
  -7  -2 -11   20.51    3.62
  -7   2 -11   14.22    3.84
  -7  -2 -11   13.45    3.48
  -7  -2 -11   18.83    3.37
  -7  -2 -10   67.16    7.42
  -7  -2 -10   79.08    6.20
  -7   2 -10   92.89    9.68
  -7  -2 -10   69.29    7.83
  -7   2 -10   80.08    8.47
  -7  -2  -9  232.34   10.94
  -7  -2  -9  247.93   12.81
  -7  -2  -9  243.87   14.82
  -7   2  -9  232.97   15.62
  -7   2  -9  229.15   14.23
  -7   2  -8  593.08   23.01
  -7  -2  -8  589.13   17.52
  -7   2  -8  605.60   24.31
  -7  -2  -8  614.84   20.46
  -7  -2  -8  569.90   22.59
  -7  -2  -7   21.95    4.31
  -7   2  -7   21.82    4.70
  -7  -2  -7   22.89    4.04
  -7  -2  -7   19.58    3.53
  -7   2  -7   26.85    5.14
  -7   2  -6   49.55    6.71
  -7   2  -6   60.27    7.20
  -7  -2  -6   56.30    5.89
  -7  -2  -6   61.49    6.10
  -7  -2  -6   55.49    6.90
  -7   2  -5  294.16   15.58
  -7   2  -5  323.63   17.20
  -7  -2  -5  348.18   14.52
  -7  -2  -5  303.93   13.78
  -7  -2  -5  311.88   15.91
  -7  -2  -4   36.49    5.38
  -7   2  -4   41.98    5.77
  -7   2  -4   47.00    6.50
  -7  -2  -4   56.25    5.86
  -7  -2  -4   45.49    5.42
  -7  -2  -3  331.12   16.49
  -7  -2  -3  346.88   14.86
  -7   2  -3  305.45   15.91
  -7   2  -3  318.07   16.62
  -7  -2  -3  337.71   14.75
  -7  -2  -2  126.37    9.84
  -7  -2  -2  134.49    9.42
  -7   2  -2  119.99    9.81
  -7   2  -2  134.05   10.82
  -7  -2  -2  125.18    8.94
  -7  -2  -1   -0.03    1.03
  -7   2  -1    1.80    2.08
  -7  -2  -1    3.87    2.19
  -7   2  -1    1.93    2.16
  -7  -2   0    1.53    0.88
  -7   2   0    1.47    0.94
  -7  -2   0    3.47    1.04
  -7   2   0    0.61    1.41
  -7  -2   1    2.83    1.98
  -7   2   1    2.53    1.65
  -7  -2   1    0.71    1.46
  -7   2   1    3.62    1.27
  -7  -2   2  138.60   10.28
  -7  -2   2  127.09    9.80
  -7   2   2  141.47   10.68
  -7   2   2  134.63   10.71
  -7  -2   3  331.85   15.61
  -7  -2   3  327.69   16.07
  -7   2   3  334.16   16.47
  -7  -2   4   54.78    6.87
  -7   2   4   48.01    6.24
  -7  -2   4   46.04    5.58
  -7  -2   5  304.42   14.74
  -7  -2   5  305.84   15.91
  -7   2   5  335.81   16.74
  -7  -2   6   72.31    7.03
  -7  -2   6   67.24    7.38
  -7   2   6   50.44    6.52
  -7  -2   7   18.72    3.53
  -7   2   7    8.15    2.67
  -7  -2   7   18.56    4.20
  -7  -2   8  603.03   20.63
  -7  -2   8  590.43   23.43
  -7   2   8  588.67   22.78
  -7  -2   9  254.89   13.33
  -7  -2   9  230.59   14.44
  -7   2   9  262.30   15.51
  -7  -2  10   69.56    6.99
  -7  -2  10   89.57    9.24
  -7   2  10   82.76    8.76
  -7  -2  11   18.66    3.70
  -7   2  11   16.95    4.13
  -7  -2  11   19.13    4.19
  -7  -2  12  314.74   14.72
  -7  -2  12  349.36   19.03
  -7   2  12  293.23   17.20
  -7  -2  13  129.05    9.78
  -7  -2  13  117.27   11.12
  -7   2  13  119.95   11.00
  -7  -2  14  180.59   11.33
  -7  -2  14  191.70   14.55
  -7   2  14  186.20   14.13
  -7   2  15  155.80   12.86
  -7  -2  15  178.50   14.46
  -7  -2  15  164.19   10.98
  -7  -2  16  708.85   28.98
  -7   2  16  625.66   26.20
  -7   2  17   51.89    7.98
  -7  -2  17   45.31    7.72
  -7  -2  18  100.66   11.03
  -7   2  18   97.03   10.76
  -7  -2  19    6.39    2.94
  -7   2  19   -0.09    2.54
  -7  -2  20   47.73    8.13
  -7   2  20   37.14    6.53
  -7  -2  21   48.80    8.65
  -7  -2  22   12.46    4.09
  -7  -2  23   40.94    8.08
  -7  -2  24   13.13    5.64
  -7  -2  25   23.03    6.61
  -7   3 -28   69.45   11.34
  -7   3 -27    6.88    4.11
  -7   3 -26   56.69    9.86
  -7   3 -25   10.72    4.84
  -7   3 -24  229.87   18.94
  -7   3 -23    7.76    4.53
  -7   3 -22   -0.34    3.23
  -7   3 -21    3.71    1.86
  -7   3 -20  393.45   23.16
  -7   3 -19   36.51    7.11
  -7   3 -18  774.08   31.56
  -7   3 -18  716.17   31.55
  -7  -3 -18  760.00   30.80
  -7   3 -17   24.54    5.87
  -7   3 -17   21.41    5.23
  -7  -3 -17   15.98    3.89
  -7   3 -16    8.91    3.81
  -7   3 -16    8.11    2.48
  -7  -3 -16   11.41    4.78
  -7  -3 -15   26.46    5.41
  -7   3 -15   40.01    7.36
  -7   3 -15   29.55    6.53
  -7   3 -14 1562.22   43.14
  -7  -3 -14 1637.77   42.18
  -7  -3 -13    6.80    3.76
  -7   3 -13    2.51    3.23
  -7   3 -13    7.08    3.48
  -7  -3 -12 1475.34   32.73
  -7   3 -12 1598.31   42.94
  -7   3 -12 1528.56   40.68
  -7  -3 -12 1472.97   38.66
  -7  -3 -11  117.44    9.00
  -7   3 -11  124.44   12.05
  -7   3 -11  114.03   11.20
  -7  -3 -11  112.50   10.52
  -7  -3 -10   56.11    5.89
  -7   3 -10   53.79    7.77
  -7   3 -10   51.52    7.20
  -7  -3 -10   46.92    6.64
  -7   3  -9   27.65    5.34
  -7  -3  -9   31.47    4.26
  -7   3  -9   24.83    5.26
  -7  -3  -9   30.67    4.43
  -7  -3  -9   26.79    6.06
  -7  -3  -8 1407.02   36.26
  -7   3  -8 1398.14   37.98
  -7  -3  -8 1294.52   27.69
  -7   3  -8 1278.02   36.05
  -7  -3  -8 1374.11   28.44
  -7  -3  -7   26.24    5.29
  -7  -3  -7   25.94    4.09
  -7   3  -7   27.19    4.91
  -7   3  -7   23.46    5.53
  -7  -3  -7   22.78    3.43
  -7  -3  -6  754.22   20.44
  -7   3  -6  796.82   27.93
  -7  -3  -6  822.48   27.06
  -7  -3  -6  820.00   22.49
  -7   3  -6  806.24   28.58
  -7   3  -5   84.30    9.05
  -7  -3  -5   71.45    6.81
  -7   3  -5   73.82    8.54
  -7  -3  -5   73.67    6.75
  -7  -3  -4    5.75    1.78
  -7   3  -4    5.79    3.01
  -7  -3  -4   12.09    2.86
  -7   3  -4    3.53    1.25
  -7  -3  -4    6.30    2.13
  -7  -3  -3   38.31    5.76
  -7   3  -3   29.01    5.43
  -7   3  -3   20.03    4.28
  -7  -3  -3   30.92    4.94
  -7  -3  -3   35.60    4.50
  -7  -3  -2 1382.16   34.50
  -7   3  -2 1337.73   35.32
  -7  -3  -2 1267.58   30.61
  -7   3  -2 1325.86   35.26
  -7  -3  -1   23.31    3.96
  -7   3  -1   25.58    5.32
  -7  -3  -1   26.27    4.70
  -7   3  -1   25.67    5.02
  -7  -3   0    1.13    0.94
  -7  -3   0   -0.24    1.49
  -7   3   0    1.25    2.26
  -7   3   0   -1.02    2.17
  -7  -3   1   21.49    4.29
  -7  -3   1   20.70    4.54
  -7   3   1   22.58    4.69
  -7   3   1   23.96    4.79
  -7  -3   2 1298.04   32.79
  -7  -3   2 1266.19   32.38
  -7   3   2 1327.40   34.74
  -7   3   2 1362.86   35.21
  -7  -3   3   30.43    5.19
  -7   3   3   20.69    4.70
  -7  -3   3   36.37    5.70
  -7   3   3   30.84    5.49
  -7  -3   4    1.98    1.20
  -7  -3   4    6.41    3.00
  -7   3   4    3.25    1.02
  -7   3   4    6.49    2.85
  -7  -3   5   68.25    7.59
  -7   3   5   73.70    8.31
  -7  -3   5   71.79    7.96
  -7   3   6  803.18   27.44
  -7  -3   6  821.58   27.26
  -7  -3   6  756.81   24.97
  -7  -3   7   31.99    4.93
  -7  -3   7   18.40    3.81
  -7   3   7   26.77    5.30
  -7  -3   8 1327.06   32.90
  -7   3   8 1285.38   35.31
  -7  -3   8 1382.57   36.45
  -7   3   9   25.04    5.06
  -7  -3   9   34.70    5.48
  -7  -3   9   34.17    6.51
  -7  -3  10   64.95    7.24
  -7   3  10   55.45    7.54
  -7  -3  10   57.50    7.99
  -7  -3  11  146.94   11.04
  -7   3  11  108.37   10.66
  -7  -3  11  131.09   11.70
  -7  -3  12 1549.89   36.30
  -7  -3  12 1590.98   41.93
  -7  -3  13    4.00    1.99
  -7  -3  13    7.64    3.08
  -7   3  13    3.59    2.19
  -7  -3  14 1706.06   38.64
  -7  -3  14 1653.45   43.74
  -7  -3  15   37.46    5.86
  -7   3  15   35.37    6.24
  -7  -3  15   35.28    6.26
  -7  -3  16   12.05    4.51
  -7  -3  16   11.41    3.53
  -7   3  16   10.60    4.53
  -7  -3  17   25.36    6.17
  -7   3  17   18.66    4.91
  -7   3  18  808.32   31.59
  -7  -3  18  758.54   31.54
  -7  -3  19   28.75    6.79
  -7   3  19   35.39    7.80
  -7  -3  20  351.29   22.36
  -7  -3  21    6.81    4.05
  -7  -3  22   -1.38    3.01
  -7  -3  23   16.22    4.92
  -7  -3  24  232.91   19.53
  -7  -3  25    9.36    3.82
  -7  -3  26   40.36   10.15
  -7   4 -27   41.59    8.63
  -7   4 -26    1.97    4.22
  -7   4 -25    8.62    3.81
  -7   4 -24    1.59    2.47
  -7   4 -23    0.62    2.65
  -7   4 -22   47.44    8.65
  -7   4 -21   25.47    6.37
  -7   4 -20   -0.41    2.14
  -7   4 -19  307.25   21.25
  -7   4 -19  314.65   21.81
  -7   4 -18  125.62   12.94
  -7   4 -18  121.47   13.04
  -7  -4 -17   30.18    6.04
  -7   4 -17   17.81    5.86
  -7   4 -17   21.71    6.29
  -7  -4 -16   17.39    4.84
  -7   4 -16   23.03    5.27
  -7   4 -16   20.08    5.88
  -7   4 -15   68.16    9.60
  -7  -4 -15   59.43    8.70
  -7   4 -15   54.70    8.52
  -7   4 -14  190.28   15.38
  -7   4 -14  196.21   15.79
  -7  -4 -14  186.66   14.67
  -7   4 -13  151.69   13.79
  -7   4 -13  120.93   12.21
  -7  -4 -13  140.90   12.60
  -7  -4 -12   32.74    6.16
  -7   4 -12   20.46    4.77
  -7   4 -12   21.55    5.98
  -7  -4 -11  257.47   16.72
  -7   4 -11  246.07   17.20
  -7   4 -11  258.35   17.34
  -7   4 -10   26.94    5.82
  -7  -4 -10   32.51    6.02
  -7   4 -10   29.98    6.25
  -7   4  -9    2.80    2.35
  -7  -4  -9    2.38    1.13
  -7   4  -9    4.11    2.08
  -7  -4  -8   71.87    8.89
  -7   4  -8   89.94   10.16
  -7  -4  -8   94.73    8.05
  -7   4  -8   80.17    9.95
  -7  -4  -7  613.56   25.69
  -7  -4  -7  654.74   21.53
  -7   4  -7  650.70   27.02
  -7  -4  -6   73.10    7.18
  -7  -4  -6  102.08   10.04
  -7   4  -6  100.04   10.64
  -7   4  -6   90.28   10.02
  -7  -4  -5    9.33    2.74
  -7   4  -5    7.02    2.92
  -7  -4  -5   16.19    4.08
  -7   4  -5    4.72    1.49
  -7  -4  -5   14.60    2.86
  -7  -4  -4   13.13    3.14
  -7  -4  -4    8.50    3.03
  -7   4  -4   11.96    3.25
  -7   4  -4   11.98    4.26
  -7  -4  -4    9.26    2.35
  -7   4  -3  117.24   11.06
  -7  -4  -3  107.87   10.13
  -7  -4  -3  121.14    9.65
  -7  -4  -3  123.65    8.19
  -7   4  -3  129.96   11.56
  -7  -4  -2   16.17    3.84
  -7   4  -2   16.50    4.20
  -7  -4  -2   22.80    4.09
  -7   4  -2   14.05    4.24
  -7  -4  -1    8.00    3.02
  -7   4  -1   15.91    4.58
  -7  -4  -1   11.35    3.39
  -7   4  -1   14.66    4.29
  -7  -4   0   -0.37    0.98
  -7   4   0    1.30    2.04
  -7  -4   0    0.05    1.85
  -7   4   0   -0.40    0.97
  -7  -4   1    8.90    2.99
  -7   4   1    7.60    2.59
  -7  -4   1    9.89    3.04
  -7   4   1    7.90    2.29
  -7  -4   2   21.61    4.60
  -7   4   2   18.10    4.00
  -7  -4   2   18.44    4.18
  -7   4   2   20.21    4.53
  -7  -4   3  122.08   10.46
  -7   4   3  125.54   11.23
  -7  -4   3  130.62   10.83
  -7   4   3  115.11   10.84
  -7  -4   4   15.86    3.93
  -7   4   4   11.95    3.18
  -7  -4   4    5.24    2.06
  -7   4   4    5.94    2.42
  -7  -4   5   12.77    3.81
  -7   4   5    8.99    3.27
  -7  -4   5    5.51    2.83
  -7   4   5   11.81    3.52
  -7  -4   6   79.62    8.78
  -7   4   6   81.52    8.87
  -7   4   6   68.20    8.30
  -7  -4   6   86.86    9.20
  -7  -4   7  684.84   25.21
  -7   4   7  631.46   25.66
  -7  -4   7  654.01   25.61
  -7  -4   8   88.47    9.08
  -7   4   8   71.41    8.69
  -7  -4   8   86.93    9.30
  -7  -4   9    7.72    3.20
  -7  -4   9    5.11    3.10
  -7   4   9    3.38    2.36
  -7  -4  10   36.87    6.46
  -7  -4  10   28.94    5.37
  -7   4  10   22.46    4.71
  -7  -4  11  275.89   16.36
  -7   4  11  282.85   17.44
  -7  -4  11  285.67   18.05
  -7  -4  12   37.71    6.18
  -7   4  12   27.77    5.90
  -7  -4  12   27.78    5.77
  -7  -4  13  117.78   10.78
  -7   4  13  134.87   12.36
  -7  -4  13  112.85   11.79
  -7  -4  14  165.34   13.05
  -7   4  14  178.21   14.39
  -7  -4  14  175.07   14.45
  -7  -4  15   63.11    7.78
  -7   4  15   62.82    8.65
  -7  -4  15   55.59    8.69
  -7  -4  16   32.46    5.47
  -7  -4  16   28.73    6.91
  -7   4  16   18.18    5.51
  -7  -4  17   23.78    5.25
  -7   4  17   23.12    5.85
  -7   4  18   74.65    9.99
  -7  -4  18  106.94   12.04
  -7  -4  19  298.47   20.33
  -7  -4  20    3.13    2.47
  -7  -4  21   19.81    6.39
  -7  -4  22   46.27    8.72
  -7  -4  23    1.65    3.25
  -7  -4  24    6.80    5.10
  -7  -4  25    7.53    5.39
  -7  -4  26    4.82    4.01
  -7  -4  27   34.25    8.33
  -7   5 -26    6.08    3.95
  -7   5 -25    9.24    3.94
  -7   5 -24  146.48   15.26
  -7   5 -23    8.14    4.37
  -7   5 -22  118.07   13.65
  -7   5 -21   10.18    4.24
  -7   5 -20   12.96    5.42
  -7   5 -20   10.73    4.91
  -7   5 -19   50.36    9.56
  -7   5 -19   48.98    8.26
  -7   5 -18  422.18   24.65
  -7   5 -18  378.37   24.81
  -7   5 -17  104.71   12.82
  -7   5 -17  102.44   12.12
  -7  -5 -17  116.25   12.81
  -7  -5 -16   -0.68    2.20
  -7   5 -16   -1.42    2.11
  -7   5 -16    2.62    2.77
  -7  -5 -15   11.92    4.06
  -7   5 -15   21.25    5.79
  -7   5 -15   15.57    4.88
  -7  -5 -14   21.30    5.43
  -7   5 -14   12.89    5.50
  -7   5 -14   17.78    4.49
  -7  -5 -13   -0.70    1.80
  -7   5 -13    0.52    2.44
  -7   5 -13    2.28    3.11
  -7  -5 -12  303.05   19.30
  -7   5 -12  364.08   21.54
  -7   5 -12  335.32   21.02
  -7  -5 -11   57.81    8.68
  -7   5 -11   74.31    9.37
  -7   5 -11   58.95    8.93
  -7   5 -10    8.26    2.87
   7  -5 -10    6.85    3.41
  -7  -5 -10   12.71    4.47
  -7   5 -10   16.92    5.07
  -7   5  -9   17.04    4.61
  -7  -5  -9   18.26    5.24
  -7   5  -9   15.78    4.95
   7  -5  -9   16.01    4.23
  -7  -5  -8  365.07   20.37
   7  -5  -8  364.27   18.91
  -7   5  -8  425.56   22.88
  -7   5  -8  391.82   21.90
  -7  -5  -7   95.80   10.17
  -7  -5  -7   82.83    8.18
  -7   5  -7   67.49    9.10
  -7   5  -7   84.75    9.98
  -7   5  -6   12.94    4.48
  -7  -5  -6   18.28    4.90
  -7  -5  -6   16.93    3.89
  -7   5  -6   17.92    5.41
  -7  -5  -5   57.06    8.13
  -7   5  -5   54.47    8.29
  -7  -5  -5   49.55    6.84
  -7   5  -5   49.66    7.90
  -7  -5  -4   61.42    8.01
  -7   5  -4   59.46    8.48
  -7  -5  -4   54.63    7.07
  -7   5  -4   68.57    9.43
  -7  -5  -3   93.31   10.02
  -7  -5  -3   81.07    8.73
  -7   5  -3   82.66    9.80
  -7   5  -3   93.48    9.98
  -7  -5  -2  363.36   19.19
  -7   5  -2  354.58   19.84
  -7  -5  -2  350.31   18.10
  -7   5  -2  395.12   21.61
  -7   5  -1   16.68    5.14
  -7  -5  -1   23.34    5.22
  -7  -5  -1   15.37    3.92
  -7   5  -1    6.31    1.62
  -7   5   0   -0.94    2.08
  -7  -5   0    3.68    3.12
  -7   5   0    1.76    1.91
  -7  -5   0    1.13    1.63
  -7   5   1   12.45    3.28
  -7  -5   1   14.42    4.82
  -7   5   1   11.63    3.58
  -7  -5   1    5.62    2.53
  -7   5   2  377.74   20.90
  -7  -5   2  391.12   20.14
  -7   5   2  388.87   20.86
  -7  -5   2  386.17   19.53
  -7   5   3   84.63   10.25
  -7  -5   3  101.23   10.45
  -7  -5   3   84.39    9.50
  -7   5   3   83.29    9.66
  -7   5   4   60.88    8.29
  -7  -5   4   83.16    9.35
  -7   5   4   67.45    8.58
  -7  -5   4   69.41    8.67
  -7   5   5   54.63    8.11
  -7  -5   5   41.88    6.88
  -7   5   5   49.97    7.16
  -7  -5   5   48.18    7.11
  -7  -5   6   14.05    3.89
  -7   5   6   13.73    4.34
  -7  -5   6   20.65    5.25
  -7   5   7   76.34    9.11
  -7  -5   7   93.13    9.99
  -7   5   7   58.50    8.54
  -7  -5   7   81.01    9.57
  -7   5   8  387.19   21.34
  -7  -5   8  385.72   20.31
  -7   5   8  359.04   20.34
  -7  -5   8  371.02   20.86
  -7  -5   9   29.63    6.25
  -7   5   9   13.29    4.96
  -7  -5   9   16.96    3.86
  -7   5   9   19.36    5.14
  -7  -5  10   14.44    4.46
  -7   5  10    6.52    3.91
  -7  -5  10    6.45    3.18
  -7   5  10   15.88    4.63
  -7   5  11   67.87    9.14
  -7  -5  11   62.95    8.17
  -7  -5  11   53.30    7.73
  -7   5  12  305.64   19.13
  -7  -5  12  321.55   19.13
  -7  -5  12  322.00   20.09
  -7  -5  13    4.60    3.79
  -7   5  13   -0.37    2.61
  -7  -5  13    1.13    2.62
  -7  -5  14   11.62    4.06
  -7   5  14   20.53    4.77
  -7  -5  14   24.77    5.99
  -7  -5  15   11.43    4.59
  -7   5  15   18.26    5.30
  -7  -5  15   10.03    4.00
  -7  -5  16   -3.14    3.60
  -7   5  16   -1.13    3.07
  -7  -5  16    0.35    2.56
  -7  -5  17  127.60   12.37
  -7  -5  17  121.29   12.96
  -7  -5  18  411.38   24.23
  -7  -5  19   66.50    9.83
  -7  -5  20   26.77    6.28
  -7  -5  21   25.73    7.20
  -7  -5  22   89.45   11.15
  -7  -5  23    3.32    2.68
  -7  -5  24  163.59   16.88
  -7  -5  25    4.69    2.98
  -7  -5  26   -1.28    4.77
  -7   6 -24   -3.20    2.62
  -7   6 -23    8.13    4.77
  -7   6 -22   -2.97    2.19
  -7   6 -21   22.10    6.10
  -7   6 -21   16.88    4.50
  -7   6 -20   -0.90    2.34
  -7   6 -20   -1.06    3.25
  -7   6 -19    5.18    4.41
  -7   6 -19   16.78    6.54
  -7   6 -18    4.56    3.79
  -7   6 -18    0.37    2.42
  -7   6 -17    2.48    2.31
  -7   6 -17    3.09    2.87
  -7  -6 -16    0.96    1.81
  -7   6 -16    0.72    2.51
  -7   6 -16    2.01    3.44
  -7  -6 -15    3.96    2.68
  -7   6 -15   14.23    4.81
  -7   6 -15    9.05    4.22
  -7  -6 -14   15.06    4.40
  -7   6 -14   10.95    4.26
  -7  -6 -13   47.43    7.94
  -7   6 -13   45.73    7.54
  -7  -6 -12   22.37    6.28
  -7   6 -12   11.67    3.99
  -7   6 -12   20.02    5.46
  -7  -6 -11   18.21    5.09
  -7   6 -11   29.03    6.23
  -7   6 -11   25.77    5.99
  -7  -6 -10   20.11    5.34
  -7   6 -10   17.17    4.51
  -7   6 -10   25.87    5.77
  -7  -6  -9   10.25    2.71
   7  -6  -9    3.81    2.13
  -7   6  -9    5.96    3.37
  -7   6  -9   11.91    4.26
  -7  -6  -8   -1.03    3.18
   7  -6  -8   -1.93    1.51
  -7   6  -8   -1.20    2.37
  -7   6  -8   -0.12    1.99
  -7   6  -7    4.90    2.18
  -7  -6  -7    8.09    2.79
  -7   6  -7    4.18    3.20
   7  -6  -7    6.97    2.49
  -7   6  -6    0.94    2.15
  -7  -6  -6    2.09    1.31
  -7  -6  -6    5.03    3.14
  -7   6  -6    4.51    2.57
   7  -6  -6    0.29    2.31
  -7  -6  -5   52.68    8.26
  -7   6  -5   66.47    8.81
   7  -6  -5   64.83    8.37
  -7  -6  -5   58.51    7.46
  -7   6  -5   57.11    8.55
  -7   6  -4   22.50    5.09
  -7  -6  -4   13.54    4.35
   7  -6  -4   25.20    5.95
  -7  -6  -4   29.10    5.83
  -7   6  -4   28.75    5.89
  -7   6  -3    9.00    2.38
  -7  -6  -3   16.05    4.64
  -7   6  -3    6.62    3.21
  -7  -6  -3    8.59    3.86
  -7   6  -2   29.99    5.92
  -7  -6  -2   30.35    6.21
  -7   6  -2   29.17    5.95
  -7  -6  -2   42.43    6.82
  -7  -6  -1   20.74    5.01
  -7   6  -1   23.36    5.83
  -7  -6  -1   26.39    5.62
  -7   6  -1   34.35    6.19
  -7  -6   0    2.25    2.93
  -7   6   0    3.52    3.36
  -7  -6   0   -3.92    2.66
  -7   6   0    5.79    3.93
  -7  -6   1   24.34    5.42
  -7   6   1   26.14    5.64
  -7  -6   1   24.70    5.30
  -7   6   1   16.10    3.70
  -7  -6   2   30.88    6.15
  -7   6   2   26.31    5.82
  -7  -6   2   32.65    6.51
  -7   6   2   20.15    5.71
  -7   6   3   12.20    4.74
  -7  -6   3    7.86    2.63
  -7  -6   3    6.85    2.61
  -7   6   3   13.15    5.13
  -7   6   4   28.40    5.90
  -7  -6   4   23.86    5.30
  -7  -6   4   27.10    5.32
  -7   6   4   25.29    6.34
  -7  -6   5   56.68    8.62
  -7  -6   5   57.19    8.54
  -7   6   5   63.78    9.51
  -7   6   5   57.74    8.48
  -7  -6   6   -0.02    2.54
  -7   6   6    7.89    3.60
  -7  -6   6    3.17    2.48
  -7   6   6    3.97    3.75
  -7  -6   7    6.11    2.26
  -7   6   7    9.53    3.71
  -7  -6   7    9.02    2.84
  -7   6   7    5.88    3.92
  -7  -6   8    2.29    3.01
  -7   6   8   -1.49    1.78
  -7  -6   8    1.80    2.76
  -7   6   8    4.09    3.77
  -7  -6   9    6.06    2.83
  -7   6   9    2.42    2.91
  -7  -6   9    7.70    3.50
  -7   6   9    7.60    4.13
  -7  -6  10   14.57    4.48
  -7   6  10   10.14    3.38
  -7  -6  10   18.99    5.25
  -7   6  10   27.27    6.78
  -7  -6  11   23.50    5.58
  -7   6  11    8.90    4.08
  -7   6  11   24.82    6.46
  -7   6  12   23.84    5.98
  -7  -6  12   20.90    5.20
  -7   6  12   15.32    4.44
  -7  -6  12   25.57    6.22
  -7  -6  13   60.88    9.25
  -7   6  13   51.90    8.65
  -7   6  13   75.37   10.80
  -7  -6  13   57.10    9.45
  -7   6  14   21.00    5.38
  -7  -6  14   19.67    5.62
  -7  -6  14   24.14    6.21
  -7   6  14   18.65    5.42
  -7  -6  15    4.50    2.10
  -7  -6  15   11.88    4.18
  -7  -6  16    4.56    3.49
  -7  -6  16    2.99    2.94
  -7  -6  17    5.35    4.43
  -7  -6  17    2.95    2.44
  -7  -6  18    1.09    3.09
  -7  -6  19   -2.39    3.07
  -7  -6  20    5.04    2.32
  -7  -6  21   19.32    4.71
  -7  -6  22    1.14    3.12
   7  -6  22    4.94    4.67
   7  -6  23    8.42    5.82
  -7  -6  23    1.44    3.86
  -7  -6  24   -0.51    2.64
   7  -6  24    0.36    3.38
  -7   7 -22   70.89   13.29
  -7   7 -22   49.00    9.71
  -7   7 -21    9.96    5.05
  -7   7 -21   11.56    4.46
  -7   7 -20   59.70   10.76
  -7   7 -20   70.70   10.29
  -7   7 -19   -1.61    3.70
  -7   7 -19    3.27    2.60
  -7   7 -18  208.06   19.79
  -7   7 -18  226.04   19.33
  -7   7 -17   24.60    6.36
  -7   7 -17   22.65    6.23
  -7  -7 -16   17.26    7.55
  -7   7 -16   12.50    5.51
  -7   7 -16   15.02    5.26
  -7  -7 -15    3.60    3.14
  -7   7 -15    7.79    4.11
  -7   7 -15    1.62    3.86
  -7  -7 -14   45.48    8.23
  -7   7 -14   59.09    9.30
  -7   7 -14   53.12    9.95
  -7  -7 -13   28.41    7.39
  -7   7 -13   16.60    5.40
  -7   7 -13   12.64    4.65
  -7  -7 -12  220.09   17.79
  -7   7 -12  231.22   18.69
  -7   7 -11    6.86    3.71
  -7  -7 -11   17.80    5.24
  -7   7 -11   16.52    4.87
  -7  -7 -10    0.30    1.87
  -7   7 -10    0.33    2.79
  -7   7 -10   -0.70    2.71
  -7  -7  -9   11.31    4.43
   7  -7  -9    4.88    3.13
  -7   7  -9   13.07    4.75
  -7   7  -9    4.98    3.69
  -7  -7  -8  432.67   24.24
   7  -7  -8  364.23   21.75
  -7   7  -8  449.56   25.39
  -7   7  -8  413.19   23.80
  -7  -7  -7   13.40    3.77
   7  -7  -7   16.69    4.87
  -7   7  -7    2.81    1.91
  -7   7  -7   16.34    5.37
  -7   7  -6   54.81    8.38
  -7  -7  -6   59.24    8.59
   7  -7  -6   39.35    7.53
  -7   7  -6   36.78    7.66
  -7  -7  -5   15.99    4.94
   7  -7  -5   20.11    5.89
  -7   7  -5   18.47    4.81
  -7  -7  -5   28.32    6.26
  -7   7  -5   19.23    5.91
  -7  -7  -4  156.16   13.84
  -7   7  -4  134.13   13.25
  -7  -7  -4  184.67   15.32
   7  -7  -4  138.62   13.27
  -7   7  -4  184.81   15.65
  -7   7  -3    1.31    4.65
  -7  -7  -3    2.87    2.61
  -7  -7  -3    0.40    2.18
   7  -7  -3    0.58    1.65
  -7   7  -3    1.12    2.04
  -7   7  -2  231.36   17.49
  -7  -7  -2  195.77   15.64
  -7  -7  -2  204.35   16.28
  -7   7  -2  189.58   16.46
  -7   7  -1   17.71    5.49
   7  -7  -1   12.86    4.68
  -7  -7  -1   20.95    5.23
  -7  -7  -1   28.24    6.61
  -7   7  -1   16.91    5.48
  -7   7   0    4.37    1.71
  -7  -7   0   -1.54    2.49
  -7  -7   0    6.52    3.32
  -7   7   0   -1.70    3.22
   7  -7   0    3.24    3.16
   7  -7   1   18.90    5.06
  -7   7   1   19.93    4.97
  -7  -7   1   26.60    6.32
  -7  -7   1   16.92    4.45
  -7   7   1   13.67    3.81
  -7   7   2  210.03   16.28
  -7  -7   2  197.88   16.09
  -7  -7   2  208.44   16.58
   7  -7   2  194.88   15.74
  -7   7   2  198.38   16.28
   7  -7   3    0.01    1.85
  -7   7   3    3.36    3.49
  -7   7   3    6.01    4.85
  -7  -7   3    4.28    3.64
  -7  -7   3    1.82    3.06
  -7  -7   4  162.66   14.50
  -7  -7   4  180.73   15.39
  -7   7   4  182.30   15.36
  -7   7   4  184.68   16.00
  -7   7   5   22.71    5.63
  -7  -7   5   17.25    4.34
  -7  -7   5   24.70    6.79
  -7   7   5   28.91    6.09
  -7  -7   6   50.59    8.37
  -7  -7   6   42.22    7.16
  -7   7   6   42.06    7.41
  -7   7   6   57.05    9.19
  -7   7   7   21.60    5.68
  -7  -7   7    7.84    3.90
  -7  -7   7   22.65    6.11
  -7   7   7    6.25    2.29
  -7  -7   8  411.39   23.46
  -7  -7   8  423.49   23.55
  -7   7   8  398.12   23.85
  -7   7   8  398.41   24.04
  -7   7   9    8.06    4.55
  -7  -7   9   -0.57    1.77
  -7  -7   9    2.53    2.23
  -7   7   9    8.23    2.79
  -7   7  10    4.27    3.91
  -7   7  10    3.25    2.38
  -7  -7  10    2.00    2.96
  -7  -7  10    3.75    3.21
  -7   7  11   19.26    6.21
  -7  -7  11   19.11    5.43
  -7  -7  11   12.10    4.56
  -7  -7  12  243.52   18.55
  -7  -7  12  225.07   17.81
  -7   7  12  266.19   19.99
  -7  -7  13   19.29    6.14
  -7   7  13   19.98    6.33
  -7  -7  13   20.24    4.77
  -7  -7  14   44.22    7.91
  -7   7  14   60.90    9.94
  -7  -7  14   43.62    7.91
  -7  -7  15   -1.43    2.54
   7  -7  15    2.22    1.98
  -7  -7  15    3.23    3.05
  -7  -7  16   14.60    5.35
  -7  -7  16   10.48    4.47
   7  -7  16    6.53    4.79
  -7  -7  17   20.11    4.62
   7  -7  17   24.15    6.27
  -7  -7  17   32.72    7.49
  -7  -7  18  219.94   18.89
   7  -7  18  199.05   19.33
  -7  -7  18  221.89   18.61
   7  -7  19    1.52    2.86
  -7  -7  19   -0.41    3.23
   7  -7  20   63.03   11.61
  -7  -7  20   62.05   10.64
  -7  -7  21   12.92    5.73
   7  -7  21   13.96    5.78
  -7  -7  22   39.42    9.43
   7  -7  22   38.29    9.64
  -7   8 -20   -0.75    2.73
  -7   8 -20   -1.13    3.82
  -7   8 -19    1.41    3.04
  -7   8 -19    3.48    3.06
  -7   8 -18   -2.14    3.56
  -7   8 -18    0.54    2.63
  -7   8 -17   20.44    5.80
  -7   8 -17    7.90    5.24
  -7   8 -16   -0.41    3.17
  -7   8 -16    1.56    2.55
  -7  -8 -15    5.68    2.80
  -7   8 -15    5.59    4.65
  -7   8 -15    8.40    3.81
  -7  -8 -14   23.69    6.21
  -7   8 -14   24.43    6.53
  -7  -8 -13    7.79    3.04
  -7   8 -13   19.43    6.22
  -7   8 -13   12.79    4.54
  -7  -8 -12   -0.99    2.46
  -7   8 -12    2.78    3.06
  -7   8 -12    3.58    1.61
  -7   8 -11   16.45    6.57
  -7  -8 -11    9.94    4.11
  -7   8 -11    5.63    2.14
  -7  -8 -10   -4.84    3.86
  -7   8 -10    4.25    3.05
  -7   8 -10   -0.10    2.59
  -7  -8  -9   17.33    5.49
  -7   8  -9   19.90    5.17
  -7   8  -9   12.91    3.78
  -7  -8  -8    4.65    4.27
   7  -8  -8    2.63    3.43
  -7   8  -8    1.15    2.02
  -7   8  -8    4.56    2.85
  -7   8  -7    0.62    4.07
  -7  -8  -7   14.96    4.50
   7  -8  -7   20.46    5.51
  -7   8  -7    4.55    3.28
  -7   8  -6   15.65    5.83
  -7  -8  -6   23.15    5.51
   7  -8  -6   18.24    5.63
  -7   8  -6   28.99    6.58
  -7  -8  -5    8.71    3.32
   7  -8  -5   12.81    5.06
  -7   8  -5    7.85    4.02
  -7   8  -5   12.04    4.56
  -7  -8  -4    6.92    3.03
  -7  -8  -4    4.56    3.72
   7  -8  -4    3.62    3.26
  -7   8  -4    0.73    2.72
  -7   8  -4   11.47    3.84
  -7  -8  -3    7.81    4.76
  -7  -8  -3    9.66    4.38
   7  -8  -3   -0.30    1.62
  -7   8  -3    2.25    3.40
  -7   8  -3    2.32    2.64
  -7  -8  -2    2.89    2.88
  -7  -8  -2    6.42    3.30
  -7   8  -2    9.37    4.64
   7  -8  -2    6.41    2.17
  -7   8  -2    3.36    2.14
  -7  -8  -1    4.22    2.57
  -7  -8  -1    8.86    4.97
   7  -8  -1    1.25    2.13
  -7   8  -1    9.10    4.31
  -7   8  -1    5.25    2.67
   7  -8   0    0.27    2.18
  -7  -8   0    2.49    1.96
  -7   8   0    0.52    2.59
  -7   8   0    0.15    2.66
  -7   8   1    2.02    1.76
   7  -8   1   11.60    4.58
  -7  -8   1    6.48    3.16
  -7  -8   1   11.49    4.57
  -7   8   1    2.17    2.46
  -7   8   2    4.18    3.68
  -7  -8   2    7.01    2.80
  -7  -8   2    9.42    4.14
   7  -8   2   11.26    4.38
  -7   8   2    9.62    4.02
  -7   8   3   13.21    4.29
  -7  -8   3   11.04    4.68
  -7  -8   3    4.26    1.80
  -7   8   3    1.81    2.96
   7  -8   3    4.31    3.90
  -7   8   4    0.71    2.24
  -7  -8   4    5.93    2.73
  -7  -8   4    3.55    2.91
  -7   8   4    3.76    2.39
   7  -8   4   -1.41    2.26
  -7   8   5   11.83    4.34
  -7  -8   5    4.35    3.43
  -7  -8   5    6.60    3.30
   7  -8   5    4.37    4.41
   7  -8   6   28.28    6.45
  -7   8   6   18.73    5.65
  -7  -8   6   27.83    6.97
  -7  -8   6   15.94    4.81
  -7   8   7    7.90    3.81
  -7  -8   7    8.25    4.62
  -7  -8   7    3.61    3.06
   7  -8   7    7.41    3.86
  -7   8   8    3.41    2.90
  -7  -8   8    4.25    3.22
  -7  -8   8    4.50    3.21
   7  -8   8    2.15    3.75
  -7   8   9   12.24    4.80
  -7  -8   9   13.58    3.91
  -7  -8   9   19.26    6.36
   7  -8   9    8.51    4.55
  -7   8  10    2.39    3.08
  -7  -8  10    3.37    2.79
  -7  -8  10    1.76    2.53
   7  -8  10   -0.28    2.69
  -7  -8  11   13.03    4.52
  -7  -8  11    6.76    4.20
  -7   8  11   10.55    4.38
   7  -8  11   10.85    5.15
  -7   8  12    0.50    2.82
  -7  -8  12    0.93    1.86
  -7  -8  12    4.82    3.20
   7  -8  12   -4.52    3.83
  -7  -8  13   12.90    4.87
  -7  -8  13   21.20    6.65
   7  -8  13    7.01    4.25
  -7  -8  14   38.13    8.28
  -7  -8  14   27.04    6.16
   7  -8  14   30.49    8.07
  -7  -8  15    8.13    4.43
   7  -8  15    6.22    4.29
  -7  -8  15   10.43    3.86
   7  -8  16   -3.45    4.36
  -7  -8  16    1.87    2.90
  -7  -8  16    3.27    3.78
  -7  -8  17    2.16    3.04
   7  -8  17   12.71    4.68
  -7  -8  17    6.98    3.38
  -7  -8  18   -1.53    4.82
   7  -8  18    6.08    4.24
  -7  -8  18    1.52    3.23
   7  -8  19    2.62    4.18
  -7  -8  19   -2.53    3.45
   7  -8  20   -0.97    3.50
  -7  -8  20    7.20    4.35
  -7   9 -16   13.63    5.81
  -7   9 -16    7.63    4.13
  -7   9 -15   15.59    5.74
  -7   9 -15   30.28    7.88
  -7  -9 -14  134.42   15.41
  -7   9 -14  112.31   13.24
  -7   9 -14  132.33   15.76
  -7  -9 -13    9.40    5.44
  -7   9 -13    7.60    4.46
  -7   9 -13    4.66    4.25
  -7  -9 -12  218.27   18.90
  -7   9 -12  157.80   16.11
  -7   9 -12  193.02   18.65
  -7   9 -11    4.75    3.20
  -7  -9 -11   13.57    4.82
  -7   9 -11   14.99    4.52
  -7  -9 -10   11.11    5.29
  -7   9 -10   12.81    4.68
  -7   9 -10   13.71    5.26
  -7   9  -9    6.16    4.91
  -7  -9  -9   20.05    5.76
  -7   9  -9   15.03    3.50
  -7   9  -8  370.96   24.73
  -7  -9  -8  363.62   24.15
  -7   9  -8  342.24   24.36
  -7   9  -7    7.38    4.72
  -7   9  -7    2.94    2.85
  -7  -9  -7    3.89    4.17
   7  -9  -7   13.88    6.15
  -7  -9  -6   74.37   10.84
   7  -9  -6   69.98   10.61
  -7   9  -6   66.54    9.82
  -7   9  -6   70.77   10.89
   7  -9  -5   14.82    4.59
  -7  -9  -5   11.84    4.64
  -7   9  -5    8.24    3.44
  -7  -9  -4  112.93   12.96
   7  -9  -4  104.16   13.14
  -7   9  -4  143.61   14.63
  -7   9  -4  100.51   13.29
  -7  -9  -3    6.22    4.30
   7  -9  -3    0.51    2.88
  -7   9  -3   -1.72    3.66
  -7   9  -3    0.50    3.01
  -7  -9  -2  162.41   15.70
  -7  -9  -2  186.59   17.16
   7  -9  -2  181.18   16.80
  -7   9  -2  157.78   15.83
  -7   9  -2  167.89   16.24
  -7  -9  -1   10.44    3.89
  -7  -9  -1    6.65    4.55
   7  -9  -1    2.98    3.21
  -7   9  -1    6.14    4.60
  -7  -9   0    4.95    4.28
  -7  -9   0   -1.53    2.22
   7  -9   0    2.71    3.37
  -7   9   0    6.01    3.69
  -7   9   1   -0.22    2.58
  -7  -9   1    8.73    2.97
  -7  -9   1    8.50    4.67
   7  -9   1   13.62    5.27
  -7  -9   2  175.14   16.36
  -7  -9   2  145.73   14.88
   7  -9   2  151.08   15.72
  -7   9   2  146.74   15.54
  -7  -9   3    4.77    2.90
  -7  -9   3    3.01    2.00
   7  -9   3    5.30    2.32
  -7   9   3   -0.71    2.42
  -7  -9   4  122.75   13.84
  -7  -9   4  109.56   12.55
   7  -9   4   98.71   12.09
  -7   9   4   96.21   12.65
  -7  -9   5   13.66    4.07
  -7  -9   5   13.93    5.39
   7  -9   5   23.60    6.87
  -7   9   5    0.84    3.14
  -7  -9   6   59.05    9.94
  -7  -9   6   77.14   10.82
   7  -9   6   79.42   11.83
  -7   9   6   94.74   12.93
  -7  -9   7    7.69    5.24
  -7  -9   7    8.01    5.12
   7  -9   7    7.45    4.66
  -7   9   7    0.17    2.79
  -7  -9   8  352.21   23.63
  -7  -9   8  375.32   24.43
  -7   9   8  305.95   23.22
  -7  -9   9   29.27    7.49
  -7  -9   9   12.21    5.69
   7  -9   9   10.69    4.30
  -7   9   9   12.76    6.20
  -7  -9  10    8.58    4.38
  -7  -9  10    2.99    1.83
   7  -9  10    5.03    4.05
  -7   9  10   13.30    5.87
  -7  -9  11    2.76    2.24
  -7  -9  11    9.25    4.74
   7  -9  11   13.08    4.54
  -7   9  11   11.43    5.41
  -7  -9  12  182.64   17.27
  -7  -9  12  194.55   17.81
  -7  -9  13    5.65    3.90
  -7  -9  13    6.72    3.89
   7  -9  13    8.37    5.30
  -7  -9  14  128.70   14.63
  -7  -9  14  133.57   14.77
   7  -9  14  123.57   15.62
  -7  -9  15    6.11    3.89
  -7  -9  15   15.33    5.20
   7  -9  15   12.66    5.52
  -7  -9  16   15.21    5.04
   7  -9  16    4.17    4.98
  -7  -9  16    1.67    4.04
  -7 -10 -12   -6.26    4.93
  -7  10 -12    5.92    4.91
  -7  10 -12    6.74    4.41
  -7 -10 -11   28.06    8.40
  -7  10 -11   12.52    3.24
  -7  10 -11   31.73    7.52
  -7 -10 -10    4.00    3.11
  -7  10 -10    1.07    2.74
  -7  10 -10    3.58    3.49
  -7 -10  -9    1.06    2.74
  -7  10  -9    1.66    4.13
  -7  10  -9   -2.42    3.70
  -7 -10  -8    8.77    2.62
  -7  10  -8   -1.89    2.83
  -7 -10  -7   30.55    7.34
  -7  10  -7   46.45    9.45
  -7 -10  -6    6.10    5.88
   7 -10  -6    0.19    3.88
  -7  10  -6    0.03    2.37
  -7 -10  -5   66.92   10.30
   7 -10  -5   59.74   10.00
  -7  10  -5   68.13   11.42
  -7 -10  -4    5.90    4.26
   7 -10  -4   -1.18    3.90
  -7  10  -4    1.58    3.34
  -7 -10  -3   -0.75    4.20
   7 -10  -3   -1.63    2.53
  -7  10  -3   -0.76    3.16
  -7 -10  -2    1.21    2.56
   7 -10  -2   -0.95    4.51
  -7  10  -2   -0.27    3.58
  -7 -10  -1    2.19    4.32
  -7 -10  -1   17.16    7.00
   7 -10  -1    7.93    6.25
  -7  10  -1    2.61    3.71
  -7 -10   0   -0.16    2.38
  -7 -10   0    4.07    3.89
   7 -10   0   -3.63    4.57
  -7  10   0   -0.66    2.74
  -7 -10   1   10.12    4.06
  -7 -10   1   18.69    7.11
   7 -10   1    9.66    2.95
  -7  10   1    8.73    4.50
  -7 -10   2   -1.98    3.18
  -7 -10   2    6.19    2.69
   7 -10   2    0.25    3.41
  -7  10   2    4.87    3.40
  -7 -10   3    4.94    3.78
  -7 -10   3    6.58    4.24
   7 -10   3    0.74    2.99
  -7  10   3    9.06    6.30
  -7 -10   4    4.56    2.22
  -7 -10   4    8.96    4.82
   7 -10   4    2.07    2.97
  -7  10   4    3.92    2.30
  -7 -10   5   72.98   11.35
  -7 -10   5   56.20   10.05
   7 -10   5   55.98   10.15
  -7  10   5   42.46    9.28
  -7 -10   6   -0.16    2.84
  -7 -10   6    2.24    3.21
   7 -10   6   -0.18    2.12
  -7  10   6    0.73    2.59
  -7 -10   7   39.57    7.66
  -7 -10   7   38.83    8.37
   7 -10   7   33.13    8.20
  -7  10   7   38.51    8.79
  -7 -10   8    3.82    4.21
  -7 -10   8    6.76    4.11
   7 -10   8    0.63    1.98
  -7  10   8   -5.41    2.50
  -7 -10   9    1.26    3.61
  -7  10   9    0.24    2.97
   7 -10   9    0.69    2.00
  -7 -10  10   -0.05    3.28
  -7 -10  10    5.99    2.93
   7 -10  10    2.91    3.05
  -7 -10  11   22.36    6.21
  -7 -10  11   21.27    6.47
   7 -10  11   14.07    7.27
  -7 -10  12    6.65    3.66
  -7 -10  12    6.85    3.17
   7 -10  12   -0.48    2.48
  -7 -11   0    4.65    4.63
   7 -11   0    1.99    4.00
  -7  11   0   -1.66    3.49
  -8   0 -26   96.14   12.70
  -8   0 -25   52.31    9.86
  -8   0 -24   36.14    7.76
  -8   0 -23    2.53    1.89
  -8   0 -22   25.76    6.38
  -8   0 -21   73.19   10.47
  -8   0 -20   25.22    6.36
  -8   0 -19   81.39   10.74
  -8   0 -18  258.89   18.39
  -8   0 -17  398.31   22.15
  -8   0 -16   33.09    6.61
  -8   0 -15  311.61   18.71
  -8   0 -14  161.86   13.30
  -8   0 -13   95.81   10.04
  -8   0 -13   96.83    8.90
  -8   0 -12  818.01   25.60
  -8   0 -12  749.56   28.62
  -8   0 -11  763.08   24.13
  -8   0 -11  720.06   26.56
  -8   0 -10   84.20    7.96
  -8   0 -10   92.18    9.43
  -8   0  -9 1443.14   32.91
  -8   0  -9 1473.82   37.45
  -8   0  -8 1014.06   27.57
  -8   0  -8 1066.89   31.74
  -8   0  -8 1062.00   30.99
  -8   0  -7   17.38    3.51
  -8   0  -7   12.73    3.62
  -8   0  -7   14.67    3.45
  -8   0  -6  475.47   18.98
  -8   0  -6  503.65   21.27
  -8   0  -5   78.44    7.76
  -8   0  -5   87.75    8.73
  -8   0  -5   99.62    9.27
  -8   0  -4  878.41   25.47
  -8   0  -4  941.47   28.44
  -8   0  -4  899.95   27.09
  -8   0  -3 1898.89   39.35
  -8   0  -3 1928.80   40.65
  -8   0  -3 1806.81   36.75
  -8   0  -2  837.42   24.98
  -8   0  -2  863.37   26.68
  -8   0  -2  832.65   25.49
  -8   0  -1  124.91    9.73
  -8   0  -1   94.89    8.95
  -8   0  -1  115.74    9.63
  -8   0   0 1263.39   31.82
  -8   0   0 1274.96   33.15
  -8   0   0 1326.73   31.83
  -8   0   1  138.08   10.59
  -8   0   1  105.87    8.92
  -8   0   2  907.86   27.19
  -8   0   2  961.66   26.46
  -8   0   3 2054.38   41.30
  -8   0   3 1908.89   36.52
  -8   0   4  875.52   27.34
  -8   0   4  839.72   24.52
  -8   0   5   73.61    8.23
  -8   0   5   78.34    7.34
  -8   0   6  532.40   21.49
  -8   0   6  516.07   18.86
  -8   0   7   17.27    3.89
  -8   0   7   14.85    2.87
  -8   0   8 1037.88   26.18
  -8   0   8 1107.83   32.15
  -8   0   9 1443.82   37.11
  -8   0   9 1417.35   29.93
  -8   0  10   96.85    9.86
  -8   0  10   85.19    7.29
  -8   0  11  739.38   20.84
  -8   0  11  728.81   27.40
  -8   0  12  801.31   21.21
  -8   0  12  865.59   30.22
  -8   0  13  104.46    7.70
  -8   0  13  120.10   11.37
  -8   0  14  169.17   13.70
  -8   0  15  290.20   18.35
  -8   0  16   30.61    5.79
  -8   0  17  367.82   21.51
  -8   0  18  260.61   18.25
  -8   0  19   95.31   11.75
  -8   0  20   14.48    4.78
  -8   0  21   93.51   12.23
  -8   0  22   17.73    3.88
  -8   0  23    2.95    3.05
  -8   1 -28    7.55    4.10
  -8   1 -27   13.94    5.89
  -8   1 -26   14.64    4.78
  -8   1 -25    0.91    2.17
  -8   1 -24   33.76    7.66
  -8   1 -23    1.24    1.97
  -8  -1 -23   -6.20    3.16
  -8  -1 -22   10.51    4.26
  -8   1 -22   18.58    4.88
  -8  -1 -21   13.17    4.06
  -8   1 -21    6.62    4.21
  -8  -1 -20   10.51    4.69
  -8   1 -20   10.41    4.23
  -8  -1 -19   27.74    6.45
  -8   1 -19   25.71    5.94
  -8  -1 -18   56.15    8.26
  -8   1 -18   62.95    9.01
  -8  -1 -17   74.66    9.19
  -8   1 -17   76.20    9.65
  -8   1 -16   38.55    6.76
  -8  -1 -16   54.34    7.78
  -8  -1 -15   21.31    4.95
  -8   1 -15    9.75    3.70
  -8   1 -15   14.57    4.41
  -8   1 -14    4.05    2.57
  -8  -1 -14    8.69    3.04
  -8   1 -14    6.77    2.84
  -8  -1 -14    5.44    2.77
  -8   1 -13    4.42    2.13
  -8  -1 -13    1.47    1.42
  -8   1 -13    5.62    3.44
  -8  -1 -13    5.93    3.50
  -8  -1 -12   11.25    4.19
  -8   1 -12    6.11    2.82
  -8  -1 -12    6.18    2.67
  -8   1 -12    7.44    3.58
  -8  -1 -12    1.97    2.11
  -8   1 -11   39.04    6.27
  -8  -1 -11   56.63    6.33
  -8  -1 -11   63.33    8.02
  -8  -1 -11   65.51    8.26
  -8   1 -11   51.03    6.67
  -8  -1 -10   30.83    4.47
  -8  -1 -10   34.37    5.40
  -8   1 -10   36.37    6.06
  -8   1 -10   24.37    5.48
  -8  -1 -10   31.16    5.93
  -8   1  -9   28.54    5.04
  -8  -1  -9   22.97    4.36
  -8   1  -9   23.07    4.97
  -8  -1  -9   25.66    5.02
  -8  -1  -9   28.94    5.24
  -8   1  -8   45.34    6.20
  -8  -1  -8   43.84    5.46
  -8   1  -8   55.50    7.29
  -8  -1  -8   56.94    6.89
  -8  -1  -8   49.59    6.76
  -8   1  -7   66.80    8.30
  -8   1  -7   67.60    7.74
  -8  -1  -7   68.29    6.91
  -8  -1  -7   72.38    7.99
  -8  -1  -7   64.62    7.66
  -8  -1  -6   15.69    4.12
  -8   1  -6   12.48    3.77
  -8   1  -6   17.89    4.33
  -8  -1  -6    9.66    2.75
  -8  -1  -6   11.69    3.04
  -8  -1  -5   10.20    3.17
  -8   1  -5   15.44    3.37
  -8   1  -5    8.97    2.71
  -8  -1  -5    9.64    2.85
  -8  -1  -5   14.20    3.41
  -8  -1  -4   15.01    4.56
  -8   1  -4   23.54    4.17
  -8   1  -4   16.50    3.64
  -8  -1  -4   19.13    3.97
  -8  -1  -4   21.08    3.82
  -8   1  -3   60.46    7.06
  -8  -1  -3   70.08    7.13
  -8   1  -3   64.35    7.72
  -8  -1  -3   77.20    7.74
  -8  -1  -3   57.66    6.98
  -8   1  -2  122.87    9.98
  -8  -1  -2  112.37    9.17
  -8   1  -2  114.45   10.31
  -8  -1  -2  124.05   10.04
  -8  -1  -2  102.33    9.26
  -8   1  -1  101.71    8.97
  -8   1  -1  118.64   10.13
  -8  -1  -1  109.50    9.21
  -8  -1  -1  101.56    9.06
  -8  -1  -1   93.82    8.60
  -8  -1   0    0.85    1.16
  -8  -1   0    0.40    1.29
  -8   1   0    2.24    1.60
  -8   1   0   -0.42    1.73
  -8   1   1  104.72    9.44
  -8   1   1   86.75    8.68
  -8  -1   1  102.78    9.09
  -8  -1   1  104.18    8.99
  -8   1   2  111.01    9.75
  -8  -1   2  113.27    9.58
  -8  -1   2  112.99    9.23
  -8   1   3   64.35    7.38
  -8  -1   3   69.50    7.16
  -8  -1   3   61.44    7.44
  -8  -1   4   17.60    3.60
  -8  -1   4   20.40    3.97
  -8   1   4   25.55    4.82
  -8  -1   5   14.54    3.02
  -8  -1   5    9.64    3.16
  -8   1   5   13.40    3.73
  -8  -1   6   15.35    3.20
  -8  -1   6   16.93    3.81
  -8   1   6   17.75    4.22
  -8  -1   7   61.38    7.40
  -8   1   7   80.61    8.45
  -8  -1   7   69.41    7.05
  -8  -1   8   58.49    7.27
  -8   1   8   57.15    7.30
  -8  -1   8   47.96    5.89
  -8   1   9   19.35    4.29
  -8  -1   9   23.71    5.12
  -8  -1   9   21.95    3.67
  -8   1  10   39.20    6.70
  -8  -1  10   27.21    4.74
  -8  -1  10   31.57    4.57
  -8  -1  11   54.31    7.50
  -8   1  11   49.74    7.48
  -8  -1  11   52.88    6.00
  -8  -1  12   10.51    2.42
  -8   1  12    7.82    2.56
  -8  -1  12    7.49    3.12
  -8  -1  13    1.19    2.10
  -8   1  13    6.94    3.96
  -8  -1  13    0.81    1.94
  -8  -1  14    1.68    1.55
  -8  -1  14    6.06    1.88
  -8   1  14    5.75    2.57
  -8   1  15   13.53    4.83
  -8  -1  15   11.71    4.05
  -8  -1  16   36.25    6.40
  -8   1  16   52.40    7.91
  -8  -1  17  101.52   11.03
  -8   1  17   67.99    9.32
  -8  -1  18   50.73    8.51
  -8   1  18   54.38    8.65
  -8   1  19   19.73    5.94
  -8  -1  19   33.67    7.53
  -8   1  20   10.65    3.26
  -8  -1  20    5.11    4.07
  -8   1  21    5.30    3.74
  -8  -1  21    5.54    2.02
  -8   1  22    8.64    3.73
  -8  -1  22    8.99    4.79
  -8  -1  23    3.30    2.05
  -8  -1  24   13.73    5.24
  -8   2 -28   31.00    8.23
  -8   2 -27   75.52   12.09
  -8   2 -26   26.50    6.55
  -8   2 -25   32.75    7.33
  -8   2 -24   80.97   11.47
  -8   2 -23   34.86    7.70
  -8   2 -22   39.70    7.99
  -8   2 -21  119.74   13.70
  -8   2 -20   31.81    6.42
  -8   2 -19   17.33    4.63
  -8   2 -18  110.32   12.69
  -8   2 -17   95.34   11.01
  -8  -2 -17   91.45   10.36
  -8  -2 -17  100.49   11.32
  -8   2 -16   70.25    9.35
  -8   2 -16   61.35    9.07
  -8  -2 -16   71.64    9.10
  -8   2 -15  254.35   17.92
  -8   2 -15  205.45   14.80
  -8  -2 -15  237.72   15.71
  -8  -2 -15  234.86   16.55
  -8  -2 -14  114.69   10.51
  -8   2 -14   99.24   10.43
  -8  -2 -14  110.00   10.94
  -8   2 -13   28.26    5.61
  -8   2 -13   30.71    6.89
  -8  -2 -13   35.07    6.31
  -8  -2 -13   39.59    6.01
  -8  -2 -12  218.84   13.88
  -8   2 -12  188.37   14.98
  -8   2 -12  187.14   13.52
  -8  -2 -12  180.16   13.86
  -8   2 -11  355.34   20.47
  -8  -2 -11  345.19   17.34
  -8  -2 -11  367.90   19.98
  -8   2 -11  358.29   19.03
  -8  -2 -10   48.87    6.41
  -8  -2 -10   55.98    5.71
  -8   2 -10   32.68    5.95
  -8  -2 -10   53.36    7.59
  -8   2 -10   57.09    7.37
  -8   2  -9  152.78   12.20
  -8  -2  -9  131.62    9.41
  -8  -2  -9  126.50   10.24
  -8   2  -9  139.00   12.42
  -8  -2  -9  143.55   11.93
  -8   2  -8  257.43   15.84
  -8  -2  -8  263.23   12.88
  -8   2  -8  259.41   16.70
  -8  -2  -8  233.98   13.75
  -8  -2  -8  234.52   15.04
  -8   2  -7  153.87   11.85
  -8  -2  -7  182.26   10.93
  -8   2  -7  181.20   13.73
  -8  -2  -7  161.61   11.54
  -8  -2  -7  153.28   12.02
  -8  -2  -6   15.15    4.14
  -8  -2  -6   12.28    3.17
  -8   2  -6   16.16    3.56
  -8   2  -6   12.86    3.58
  -8  -2  -6    9.66    3.32
  -8   2  -5  280.41   16.13
  -8  -2  -5  286.10   14.84
  -8  -2  -5  288.89   14.48
  -8   2  -5  311.61   17.67
  -8  -2  -5  274.20   15.77
  -8   2  -4  326.69   17.30
  -8   2  -4  322.54   17.87
  -8  -2  -4  336.16   15.93
  -8  -2  -4  343.17   15.91
  -8  -2  -4  352.47   17.92
  -8   2  -3  316.42   17.04
  -8   2  -3  346.21   18.31
  -8  -2  -3  361.97   16.44
  -8  -2  -3  341.24   15.84
  -8  -2  -3  322.95   16.78
  -8  -2  -2  645.68   23.47
  -8   2  -2  686.38   24.66
  -8   2  -2  682.52   25.67
  -8  -2  -2  702.71   23.34
  -8  -2  -1  576.98   21.82
  -8  -2  -1  550.98   20.66
  -8   2  -1  506.97   21.48
  -8   2  -1  539.09   22.71
  -8  -2   0  202.39   12.93
  -8  -2   0  180.01   12.07
  -8   2   0  196.57   13.36
  -8   2   0  191.28   13.38
  -8  -2   1  579.63   21.91
  -8  -2   1  545.51   20.99
  -8   2   1  551.26   22.22
  -8   2   1  554.78   22.89
  -8  -2   2  567.39   21.84
  -8  -2   2  636.41   23.13
  -8   2   2  603.76   23.20
  -8   2   2  664.39   25.23
  -8  -2   3  297.45   16.14
  -8   2   3  267.28   15.81
  -8  -2   4  317.53   15.96
  -8  -2   4  323.48   17.10
  -8   2   4  302.78   16.65
  -8  -2   5  273.42   15.40
  -8  -2   5  300.07   16.49
  -8   2   5  318.43   16.94
  -8  -2   6   17.26    3.73
  -8   2   6   11.81    3.00
  -8  -2   6    8.91    2.77
  -8  -2   7  173.58   11.76
  -8  -2   7  160.97   12.23
  -8   2   7  171.47   12.74
  -8  -2   8  263.16   14.46
  -8  -2   8  255.64   15.63
  -8   2   8  228.76   15.03
  -8  -2   9  145.15   10.82
  -8  -2   9  136.73   11.88
  -8   2   9  131.57   11.41
  -8  -2  10   44.00    5.83
  -8  -2  10   45.07    6.89
  -8   2  10   58.48    7.74
  -8  -2  11  350.74   17.16
  -8  -2  11  346.83   19.52
  -8   2  11  332.26   18.60
  -8  -2  12  202.60   12.54
  -8  -2  12  196.89   14.98
  -8   2  12  193.66   14.21
  -8  -2  13   40.57    5.69
  -8  -2  13   43.53    7.50
  -8   2  13   29.19    5.57
  -8  -2  14  105.13    9.21
  -8  -2  14  122.80   12.03
  -8   2  14  119.31   11.75
  -8  -2  15  223.83   13.29
  -8   2  15  244.07   17.09
  -8  -2  15  199.40   16.10
  -8  -2  16  107.08   11.32
  -8   2  16  103.73   11.10
  -8  -2  17  100.09   11.95
  -8   2  17   87.09   10.37
  -8   2  18  121.62   12.67
  -8  -2  19   16.99    5.01
  -8   2  19   21.35    5.36
  -8  -2  20   16.07    5.04
  -8   2  20   24.60    6.49
  -8  -2  21  122.68   14.06
  -8   2  21  114.09   13.07
  -8  -2  22   42.12    8.68
  -8  -2  23   29.33    7.01
  -8  -2  24  103.32   13.36
  -8  -2  25   36.16    7.98
  -8   3 -27    2.20    4.10
  -8   3 -26    1.32    4.19
  -8   3 -25    1.68    2.56
  -8   3 -24   12.01    3.87
  -8   3 -23    6.67    4.86
  -8   3 -22    9.95    4.32
  -8   3 -21   -0.29    2.78
  -8   3 -20    1.05    2.57
  -8   3 -19   24.67    7.10
  -8  -3 -19   34.73    7.93
  -8   3 -18   34.17    6.94
  -8  -3 -18   32.74    7.18
  -8   3 -17  183.36   15.59
  -8   3 -17  184.32   16.13
  -8  -3 -17  217.41   16.52
  -8   3 -16  167.47   15.05
  -8   3 -16  157.80   14.33
  -8  -3 -16  180.56   14.95
  -8   3 -15   96.32   11.04
  -8   3 -15   66.12    9.20
  -8  -3 -15   88.73   10.49
  -8   3 -14   71.63    9.34
  -8  -3 -14   70.55    9.45
  -8   3 -14   75.19    9.84
  -8   3 -13   56.22    8.41
  -8   3 -13   53.29    8.04
  -8  -3 -13   60.93    9.24
  -8  -3 -12    1.96    1.63
  -8   3 -12    1.28    1.67
  -8   3 -12    6.16    3.10
  -8   3 -11   67.18    8.90
  -8  -3 -11   55.62    6.87
  -8   3 -11   60.01    8.25
  -8  -3 -11   64.88    8.53
  -8   3 -10   67.06    9.13
  -8  -3 -10   63.17    7.12
  -8   3 -10   73.86    9.02
  -8  -3 -10   69.80    8.57
  -8  -3  -9   69.11    6.92
  -8  -3  -9   63.96    6.59
  -8   3  -9   70.75    8.93
  -8   3  -9   56.28    7.82
  -8  -3  -9   74.85    8.79
  -8   3  -8   91.97   10.15
  -8  -3  -8   81.82    7.56
  -8  -3  -8   77.27    7.33
  -8   3  -8   80.39    9.18
  -8  -3  -8   77.66    9.09
  -8  -3  -7   83.42    9.34
  -8   3  -7   93.41    9.87
  -8   3  -7  124.38   11.73
  -8  -3  -7   93.91    7.98
  -8  -3  -7  111.25    8.82
  -8  -3  -6   43.13    6.65
  -8   3  -6   33.43    6.21
  -8   3  -6   35.44    6.50
  -8  -3  -6   34.42    4.95
  -8  -3  -6   36.44    5.31
  -8  -3  -5   13.69    3.86
  -8   3  -5    6.51    3.31
  -8  -3  -5   18.04    3.99
  -8   3  -5   10.36    3.60
  -8  -3  -5   17.28    3.53
  -8  -3  -4   -1.02    2.24
  -8  -3  -4    1.82    1.43
  -8   3  -4    0.33    1.16
  -8   3  -4    0.38    2.22
  -8  -3  -4    3.30    1.91
  -8  -3  -3   41.06    6.29
  -8   3  -3   63.04    7.70
  -8  -3  -3   61.78    7.09
  -8   3  -3   40.76    6.55
  -8  -3  -3   56.83    6.26
  -8  -3  -2   55.93    7.65
  -8   3  -2   67.11    8.21
  -8  -3  -2   47.59    6.13
  -8   3  -2   49.88    7.06
  -8  -3  -2   44.47    5.77
  -8  -3  -1   14.92    4.23
  -8   3  -1   22.68    4.53
  -8  -3  -1   20.13    3.81
  -8   3  -1   27.19    5.47
  -8   3   0    5.13    2.47
  -8  -3   0    3.59    2.25
  -8   3   0    4.70    2.31
  -8  -3   0    7.28    2.98
  -8  -3   1   18.12    4.50
  -8   3   1   19.12    4.26
  -8   3   1   26.38    5.54
  -8  -3   1   20.31    4.53
  -8  -3   2   54.27    6.97
  -8   3   2   52.98    7.28
  -8  -3   2   53.81    6.83
  -8   3   2   51.41    7.53
  -8  -3   3   50.94    6.58
  -8   3   3   36.35    5.77
  -8  -3   3   45.42    6.31
  -8   3   3   40.65    6.34
  -8  -3   4   -0.31    1.51
  -8  -3   4    0.10    0.93
  -8   3   4    2.31    1.70
  -8   3   4   -1.11    1.40
  -8  -3   5   12.12    2.91
  -8  -3   5   16.83    3.90
  -8   3   5   17.27    4.20
  -8  -3   6   42.02    6.18
  -8  -3   6   39.54    6.27
  -8  -3   7   98.33    9.58
  -8   3   7  107.81   10.64
  -8  -3   7  100.84    9.93
  -8   3   8   76.42    8.95
  -8  -3   8   70.02    8.45
  -8  -3   8   83.88    8.85
  -8  -3   9   65.42    7.63
  -8   3   9   69.15    8.62
  -8  -3   9   66.31    8.53
  -8  -3  10   80.86    8.75
  -8   3  10   83.61    9.42
  -8  -3  10   85.98    9.88
  -8  -3  11   65.59    7.94
  -8   3  11   55.10    7.98
  -8  -3  11   47.50    7.60
  -8  -3  12    2.42    3.57
  -8   3  12    4.20    2.98
  -8  -3  12    2.69    2.13
  -8  -3  13   55.41    7.36
  -8   3  13   74.03    9.54
  -8  -3  13   61.27    9.00
  -8  -3  14   74.70    8.36
  -8   3  14   78.40   10.18
  -8  -3  14   65.76    8.91
  -8  -3  15   93.71    9.59
  -8   3  15   77.65    9.77
  -8  -3  15   75.48    9.88
  -8  -3  16  177.08   15.12
  -8   3  16  163.48   14.49
  -8  -3  17  196.15   16.47
  -8   3  17  198.87   16.48
  -8   3  18   20.00    5.70
  -8  -3  18   27.11    5.71
  -8   3  19   23.83    5.88
  -8  -3  19   26.65    6.16
  -8  -3  20    1.33    2.61
  -8  -3  21    0.79    2.23
  -8  -3  22    7.10    5.56
  -8  -3  23    4.79    3.28
  -8  -3  24    8.10    4.06
  -8  -3  25    5.29    2.81
  -8  -3  26    1.07    2.88
  -8   4 -26    6.29    3.23
  -8   4 -25   61.05   10.32
  -8   4 -24  118.85   13.60
  -8   4 -23   20.74    6.28
  -8   4 -22   60.47    9.89
  -8   4 -21   60.96    9.71
  -8   4 -20    3.65    1.93
  -8   4 -19   27.41    6.29
  -8   4 -18   37.12    7.25
  -8   4 -18   40.16    7.67
  -8  -4 -18   37.92    6.83
  -8  -4 -17   13.83    5.20
  -8   4 -17   20.08    5.55
  -8   4 -17    9.61    4.15
  -8   4 -16  180.40   15.59
  -8   4 -16  148.41   13.96
  -8  -4 -16  163.11   14.38
  -8   4 -15  225.88   17.50
  -8   4 -15  223.43   17.50
  -8  -4 -15  260.62   18.34
  -8   4 -14   95.34   11.58
  -8   4 -14   93.72   11.21
  -8  -4 -14  113.36   11.68
  -8   4 -13   86.55   10.36
  -8   4 -13   77.37   10.43
  -8  -4 -13   78.41    9.50
  -8   4 -12   45.29    7.52
  -8   4 -12   49.32    7.84
  -8  -4 -12   49.44    7.56
  -8   4 -11  166.88   14.42
  -8   4 -11  170.11   14.70
  -8  -4 -11  167.51   13.97
  -8  -4 -10   68.45    8.60
  -8   4 -10   58.05    8.60
  -8  -4  -9   50.50    7.43
  -8   4  -9   54.15    7.91
  -8   4  -9   41.03    6.97
  -8   4  -8   18.92    4.80
  -8  -4  -8   28.37    5.53
  -8  -4  -8   18.20    3.54
  -8   4  -8   25.46    5.81
  -8  -4  -7  149.94   12.58
  -8  -4  -7  142.16   10.42
  -8   4  -7  157.46   13.50
  -8   4  -7  169.13   14.21
  -8  -4  -6   25.86    5.85
  -8   4  -6   25.25    5.95
  -8  -4  -6   22.69    4.46
  -8   4  -6   22.34    5.06
  -8  -4  -5  419.99   21.39
  -8   4  -5  490.37   23.71
  -8  -4  -5  450.64   19.59
  -8  -4  -5  414.75   16.01
  -8   4  -5  468.71   23.13
  -8   4  -4  280.50   17.74
  -8  -4  -4  264.41   16.70
  -8  -4  -4  313.04   16.32
  -8   4  -4  281.40   18.10
  -8  -4  -4  308.14   13.94
  -8   4  -3   83.72    9.94
  -8  -4  -3   71.65    8.48
  -8  -4  -3   60.04    7.27
  -8   4  -3   70.83    9.25
  -8  -4  -3   55.28    6.05
  -8   4  -2  520.82   24.27
  -8  -4  -2  502.39   22.68
  -8  -4  -2  489.33   20.97
  -8   4  -2  526.29   24.06
  -8  -4  -1  734.47   27.50
  -8   4  -1  755.10   28.97
  -8  -4  -1  707.87   25.46
  -8   4  -1  675.99   27.28
  -8  -4   0   71.12    8.69
  -8   4   0   60.00    8.40
  -8  -4   0   66.06    8.01
  -8   4   0   60.21    8.00
  -8  -4   1  775.48   27.39
  -8   4   1  694.12   27.72
  -8  -4   1  682.29   25.83
  -8   4   1  730.20   28.32
  -8  -4   2  510.21   22.30
  -8   4   2  445.73   22.19
  -8  -4   2  451.57   20.89
  -8   4   2  478.87   22.83
  -8  -4   3   70.14    8.66
  -8   4   3   68.93    8.76
  -8  -4   3   69.91    8.45
  -8   4   3   69.06    8.77
  -8  -4   4  277.22   16.86
  -8   4   4  290.31   18.06
  -8  -4   4  280.40   16.70
  -8   4   4  258.51   16.89
  -8  -4   5  500.87   22.41
  -8   4   5  479.86   23.38
  -8  -4   5  469.47   22.06
  -8   4   5  471.14   23.32
  -8  -4   6   28.41    6.03
  -8  -4   6   24.37    4.93
  -8   4   6   27.05    5.41
  -8   4   6   30.49    5.86
  -8  -4   7  176.08   13.70
  -8   4   7  148.67   12.93
  -8  -4   7  168.47   13.41
  -8   4   7  156.27   13.68
  -8  -4   8   28.60    5.91
  -8  -4   8   20.35    5.28
  -8   4   8   24.65    5.30
  -8  -4   9   48.98    7.21
  -8   4   9   37.03    6.32
  -8  -4   9   46.78    7.31
  -8  -4  10   53.19    7.63
  -8   4  10   52.49    7.84
  -8  -4  10   52.86    8.19
  -8  -4  11  161.62   13.26
  -8   4  11  144.55   13.08
  -8  -4  11  156.61   13.72
  -8  -4  12   65.66    8.87
  -8   4  12   57.16    8.29
  -8  -4  12   51.23    8.17
  -8  -4  13   92.18    9.95
  -8   4  13   81.53    9.86
  -8  -4  13   68.34    9.48
  -8  -4  14   97.54   10.41
  -8   4  14   72.12    9.80
  -8  -4  14   86.73   10.59
  -8  -4  15  244.00   16.55
  -8   4  15  219.38   16.91
  -8  -4  15  224.90   16.98
  -8  -4  16  158.25   13.50
  -8   4  16  150.02   14.32
  -8  -4  16  152.62   14.64
  -8  -4  17   15.42    4.63
  -8   4  17   20.53    5.14
  -8  -4  18   47.82    7.83
  -8   4  18   34.13    6.60
  -8  -4  19   31.33    6.64
  -8  -4  20    0.23    1.80
  -8  -4  21   46.49    8.55
  -8  -4  22   45.60    9.08
  -8  -4  23    5.39    2.27
  -8  -4  24  113.28   13.75
  -8  -4  25   47.90    9.92
  -8  -4  26    1.08    2.68
  -8   5 -25    2.21    3.19
  -8   5 -24    5.87    4.57
  -8   5 -23    5.34    3.79
  -8   5 -22    2.33    4.58
  -8   5 -21    5.29    2.02
  -8   5 -20    1.89    2.93
  -8   5 -19    8.61    5.06
  -8   5 -19    1.39    3.50
  -8   5 -18   18.41    5.86
  -8   5 -18   14.68    5.34
  -8  -5 -17   31.98    7.22
  -8   5 -17   29.56    6.74
  -8   5 -17   17.82    5.58
  -8   5 -16   56.43    9.29
  -8   5 -16   72.57   11.00
  -8  -5 -16   54.70    9.54
  -8   5 -15   62.67    9.78
  -8  -5 -15   56.14    8.15
  -8   5 -15   72.26    9.90
  -8  -5 -14   46.35    7.91
  -8   5 -14   51.72    8.57
  -8   5 -14   49.91    9.44
  -8  -5 -13   31.14    6.62
  -8   5 -13   30.33    7.04
  -8   5 -13   22.21    6.23
  -8  -5 -12   27.46    6.50
  -8   5 -12   32.19    6.59
  -8   5 -12   28.05    6.26
  -8  -5 -11   28.76    6.37
  -8   5 -11   20.16    5.51
  -8   5 -11   22.73    5.74
  -8   5 -10    1.95    1.71
  -8  -5 -10    0.66    1.46
  -8   5 -10    1.16    2.47
  -8   5  -9   15.30    4.98
  -8  -5  -9   11.33    3.47
  -8   5  -9   20.38    5.69
  -8  -5  -8   38.46    7.10
  -8   5  -8   17.85    5.66
  -8   5  -8   27.47    6.11
  -8  -5  -7  108.18   11.33
  -8  -5  -7  106.34    9.66
  -8   5  -7   86.58   10.59
  -8   5  -7   76.69   10.00
  -8  -5  -6   38.35    6.50
  -8   5  -6   36.71    6.93
  -8   5  -6   47.38    7.96
  -8  -5  -6   28.96    5.06
  -8  -5  -5   33.86    6.65
  -8   5  -5   30.06    6.36
  -8  -5  -5   36.91    5.98
  -8   5  -5   29.39    5.93
  -8  -5  -4   94.28   10.17
  -8  -5  -4   98.83    9.72
  -8   5  -4   90.99   10.43
  -8   5  -4   95.27   10.69
  -8  -5  -3   93.90   10.26
  -8   5  -3   97.25   10.90
  -8  -5  -3   67.55    8.18
  -8   5  -3   92.78   10.63
  -8  -5  -2   52.80    7.81
  -8  -5  -2   45.95    6.79
  -8   5  -2   41.89    7.37
  -8   5  -2   42.56    7.51
  -8  -5  -1   34.41    5.96
  -8   5  -1   24.14    5.33
  -8  -5  -1   27.53    4.98
  -8   5  -1   23.45    5.40
  -8  -5   0   43.12    7.24
  -8   5   0   36.56    6.63
  -8  -5   0   38.69    5.89
  -8   5   0   30.64    6.74
  -8  -5   1   28.48    5.77
  -8   5   1   29.80    5.78
  -8  -5   1   14.43    4.99
  -8   5   1   22.93    5.54
  -8  -5   2   27.19    5.17
  -8   5   2   34.28    6.49
  -8  -5   2   37.10    6.25
  -8   5   2   33.52    6.82
  -8   5   3  108.61   11.54
  -8  -5   3   89.40    9.60
  -8   5   3  100.15   11.24
  -8  -5   3   81.90    9.64
  -8   5   4   98.14   11.11
  -8  -5   4  102.11   10.60
  -8   5   4  101.74   10.94
  -8  -5   4   86.27    9.92
  -8   5   5   43.57    8.13
  -8  -5   5   29.19    5.80
  -8  -5   5   26.59    5.39
  -8   5   5   25.54    6.24
  -8  -5   6   38.62    6.80
  -8   5   6   33.49    6.48
  -8  -5   6   38.29    6.69
  -8   5   6   31.72    6.31
  -8   5   7   77.11   10.09
  -8  -5   7  106.63   10.87
  -8  -5   7   92.67   10.29
  -8   5   7  104.01   11.10
  -8  -5   8   20.65    4.68
  -8  -5   8   29.41    5.61
  -8   5   8   26.16    5.57
  -8   5   8   25.26    6.28
  -8  -5   9   11.04    3.43
  -8  -5   9    9.11    3.18
  -8   5   9    4.07    2.58
  -8  -5  10    3.43    2.57
  -8   5  10    2.87    1.85
  -8  -5  10   -2.34    2.57
  -8   5  10    1.71    2.94
  -8  -5  11   27.41    5.65
  -8   5  11   17.48    5.07
  -8  -5  11   27.66    6.34
  -8  -5  12   39.34    6.89
  -8   5  12   33.12    7.01
  -8  -5  12   24.29    6.38
  -8  -5  13   13.87    4.89
  -8   5  13   20.94    6.61
  -8  -5  13   28.10    6.25
  -8  -5  14   44.39    7.93
  -8   5  14   44.22    8.02
  -8  -5  14   68.08    9.45
  -8  -5  15   68.07    9.20
  -8   5  15   58.30    9.14
  -8  -5  15   61.86    9.71
  -8  -5  16   75.46   10.03
  -8   5  16   69.23   10.36
  -8  -5  16   60.38    9.84
  -8   5  17   29.42    6.64
  -8  -5  17   57.23    9.64
  -8  -5  18   23.23    6.31
  -8  -5  19    8.43    3.79
  -8  -5  20    4.49    3.10
  -8  -5  21   18.48    6.33
  -8  -5  22   -0.74    2.62
  -8  -5  23    1.40    4.19
  -8  -5  24    9.26    5.10
  -8  -5  25    8.15    6.45
  -8   6 -23    7.88    5.57
  -8   6 -22    5.18    3.14
  -8   6 -21   35.80    7.78
  -8   6 -20   13.56    5.19
  -8   6 -20    5.44    5.86
  -8   6 -19   31.02    7.30
  -8   6 -19   35.72    8.60
  -8   6 -18   63.38   10.73
  -8   6 -18   61.56   10.53
  -8   6 -17   53.92   10.01
  -8   6 -17   67.02   10.91
  -8  -6 -17   72.68   11.60
  -8  -6 -16   24.71    6.44
  -8   6 -16   31.88    7.08
  -8   6 -16   21.85    6.18
  -8   6 -15  168.94   15.84
  -8   6 -15  150.62   15.16
  -8  -6 -15  168.03   15.91
  -8  -6 -14  120.78   13.38
  -8   6 -14   90.32   11.84
  -8   6 -14  104.04   13.00
  -8   6 -13    0.32    2.33
  -8   6 -13    4.82    3.72
  -8  -6 -12   93.46   10.98
  -8   6 -12  105.10   12.16
  -8   6 -12   95.64   11.85
  -8  -6 -11  176.00   16.03
  -8   6 -11  198.94   16.41
  -8  -6 -10   28.56    7.03
  -8   6 -10   17.97    5.31
  -8   6 -10   37.91    7.63
  -8  -6  -9  111.39   12.12
  -8   6  -9  116.67   13.01
   8  -6  -9  125.63   12.15
  -8   6  -9  129.01   13.34
  -8  -6  -8   72.32    9.47
   8  -6  -8   81.64    9.97
  -8   6  -8   79.70   10.84
  -8   6  -8   75.29   10.45
  -8   6  -7   36.69    7.23
  -8  -6  -7   33.21    6.29
  -8   6  -7   48.05    8.02
   8  -6  -7   31.97    6.01
  -8  -6  -6  247.67   17.73
  -8  -6  -6  201.87   14.84
   8  -6  -6  295.40   18.56
  -8   6  -6  218.11   17.42
  -8   6  -6  265.59   19.05
  -8  -6  -5  339.34   20.36
  -8  -6  -5  315.61   18.78
  -8   6  -5  326.96   20.91
  -8   6  -5  309.66   20.15
  -8  -6  -4   37.42    7.23
  -8  -6  -4   25.44    5.42
  -8   6  -4   49.53    8.22
  -8   6  -4   36.03    7.21
  -8  -6  -3   81.08    9.91
  -8   6  -3   78.50   10.07
  -8  -6  -3   69.48    9.41
  -8   6  -3   68.79    9.93
  -8  -6  -2  113.15   11.48
  -8   6  -2  100.64   11.22
  -8  -6  -2  107.45   11.23
  -8   6  -2   69.80    9.61
  -8  -6  -1  115.36   11.84
  -8   6  -1  123.43   12.65
  -8  -6  -1  136.10   12.40
  -8   6  -1  147.57   13.69
  -8  -6   0  115.91   11.73
  -8   6   0  129.11   13.35
  -8  -6   0  104.55   10.90
  -8   6   0  120.65   12.46
  -8   6   1  113.45   11.67
  -8  -6   1  146.78   13.09
  -8  -6   1  115.30   11.73
  -8   6   1  118.03   12.54
  -8  -6   2  122.83   12.36
  -8   6   2  123.82   12.60
  -8  -6   2  126.16   12.06
  -8   6   2  102.20   11.59
  -8  -6   3   60.61    8.77
  -8   6   3   78.97   10.15
  -8  -6   3   92.51   10.43
  -8   6   3   68.83    9.41
  -8   6   4   38.81    7.12
  -8  -6   4   36.72    6.66
  -8   6   4   32.85    7.08
  -8  -6   4   41.14    7.55
  -8   6   5  279.07   19.37
  -8  -6   5  318.62   19.44
  -8   6   5  322.75   20.76
  -8  -6   5  294.36   19.20
  -8   6   6  266.82   19.25
  -8  -6   6  247.17   17.42
  -8   6   6  247.43   18.41
  -8  -6   6  273.26   18.32
  -8   6   7   49.94    8.68
  -8  -6   7   43.28    7.52
  -8  -6   7   36.00    6.93
  -8   6   7   35.38    7.36
  -8   6   8   98.07   11.49
  -8  -6   8   64.28    8.68
  -8   6   8   90.54   11.08
  -8  -6   8   74.28    9.90
  -8   6   9  104.25   12.21
  -8  -6   9  134.66   13.23
  -8   6   9  108.50   12.43
  -8  -6   9  138.88   13.14
  -8   6  10   24.24    6.14
  -8  -6  10   22.14    5.53
  -8  -6  10   24.10    5.47
  -8   6  10   15.62    5.71
  -8   6  11  213.67   17.56
  -8  -6  11  218.88   16.73
  -8   6  11  210.19   17.38
  -8  -6  11  187.76   15.77
  -8   6  12   95.77   11.87
  -8  -6  12  104.42   11.51
  -8   6  12  121.13   13.52
  -8  -6  12  100.66   11.87
  -8   6  13   -1.60    3.51
  -8  -6  13    7.53    3.35
  -8  -6  13    4.46    3.60
  -8   6  13    3.95    3.54
  -8   6  14   83.47   11.42
  -8  -6  14  108.28   12.49
  -8  -6  14   94.44   11.62
  -8   6  14  106.94   12.95
  -8   6  15  182.57   17.19
  -8  -6  15  167.89   15.36
  -8  -6  15  176.88   15.85
  -8  -6  16   22.80    6.66
  -8   6  16   29.54    7.16
  -8  -6  16   28.69    6.63
  -8  -6  17   57.91    9.39
  -8  -6  17   62.14   10.08
  -8  -6  18   78.14   11.36
  -8  -6  19   17.68    6.34
  -8  -6  20   14.26    5.41
  -8  -6  21   49.54    9.54
  -8  -6  22   19.13    6.57
  -8  -6  23    2.27    3.34
  -8   7 -21    0.66    2.33
  -8   7 -21    2.91    2.69
  -8   7 -20    1.86    3.22
  -8   7 -20   -4.55    4.66
  -8   7 -19    2.77    2.20
  -8   7 -19    3.28    3.27
  -8   7 -18   14.47    5.79
  -8   7 -18    9.09    3.83
  -8   7 -17    2.18    2.69
  -8   7 -17    7.32    4.08
  -8   7 -16    2.33    2.08
  -8  -7 -16    4.64    2.75
  -8   7 -16    2.26    3.52
  -8  -7 -15    4.82    5.43
  -8   7 -15    0.26    3.46
  -8   7 -15   -1.34    2.51
  -8  -7 -14    2.83    2.08
  -8   7 -14    4.72    2.94
  -8   7 -14    3.79    3.57
  -8  -7 -13   12.90    4.75
  -8   7 -13   18.88    5.33
  -8   7 -13   19.80    6.42
  -8  -7 -12   58.52    9.49
  -8   7 -12   45.65    8.57
  -8   7 -12   52.92    8.57
  -8  -7 -11   74.41   10.69
  -8   7 -11   90.12   11.82
  -8   7 -11   96.41   12.14
  -8  -7 -10   48.05    8.36
  -8   7 -10   54.17    9.13
  -8   7 -10   51.70    9.20
  -8  -7  -9    5.50    3.06
  -8   7  -9    6.79    4.33
  -8   7  -9    0.37    2.86
  -8  -7  -8   70.29    9.94
  -8   7  -8   71.78   10.24
   8  -7  -8   65.94    9.36
  -8   7  -8   62.79    9.69
  -8  -7  -7   54.66    8.92
   8  -7  -7   55.14    8.42
  -8   7  -7   71.48   10.32
  -8   7  -7   73.29   10.79
  -8  -7  -6   15.35    5.15
   8  -7  -6   30.02    5.86
  -8   7  -6   22.98    5.95
  -8   7  -6   23.44    6.64
  -8  -7  -5   95.89   11.36
   8  -7  -5   99.30   11.96
  -8   7  -5  115.89   12.73
  -8  -7  -5  108.85   12.10
  -8   7  -5   92.06   11.76
  -8  -7  -4   39.95    7.15
   8  -7  -4   53.71    8.64
  -8   7  -4   53.23    8.89
  -8  -7  -4   47.25    7.81
  -8   7  -4   57.99    9.64
  -8  -7  -3   77.37   10.80
   8  -7  -3   95.29   11.08
  -8   7  -3   78.82   10.76
  -8  -7  -3   96.00   10.70
  -8   7  -3   79.98   11.41
  -8  -7  -2   64.02    9.31
   8  -7  -2   58.47    8.73
  -8   7  -2   51.62    8.74
  -8  -7  -2   55.24    8.33
  -8   7  -2   56.06    8.66
  -8  -7  -1   84.28   10.38
   8  -7  -1  111.57   12.34
  -8   7  -1  122.92   13.07
  -8   7  -1   88.10   11.63
  -8  -7  -1   89.72   10.83
  -8  -7   0  148.25   14.10
  -8   7   0  124.62   13.84
  -8   7   0  131.61   13.53
  -8  -7   0  150.33   13.70
  -8  -7   1  108.20   12.21
  -8   7   1  124.62   13.24
  -8   7   1   90.37   11.45
  -8  -7   1   87.40   10.77
  -8  -7   2   59.87    9.33
  -8   7   2   54.81    8.58
  -8   7   2   65.09    9.45
  -8  -7   2   69.93    9.86
  -8  -7   3   91.77   10.87
  -8   7   3   89.56   11.35
  -8   7   3   66.44   10.06
  -8  -7   3   79.84   10.47
  -8  -7   4   39.13    6.75
  -8   7   4   47.56    8.38
  -8   7   4   45.58    9.10
  -8  -7   4   58.44    9.02
  -8  -7   5  104.98   12.14
  -8   7   5  112.38   12.91
  -8   7   5  116.03   13.04
  -8  -7   5  104.41   12.05
  -8   7   6   14.49    5.76
  -8  -7   6   23.12    5.78
  -8   7   6   16.35    5.27
  -8  -7   6   14.05    4.57
  -8   7   7   44.05    7.89
  -8  -7   7   73.50   10.25
  -8   7   7   76.37   11.03
  -8  -7   7   51.29    9.07
  -8  -7   8   63.19    9.58
  -8   7   8   70.85   10.84
  -8   7   8   66.56   10.34
  -8  -7   8   60.80    9.37
  -8   7   9    1.27    2.32
  -8  -7   9    5.67    3.17
  -8   7   9    5.53    3.83
  -8  -7   9    4.27    3.86
  -8   7  10   35.41    8.06
  -8  -7  10   45.79    8.05
  -8   7  10   29.29    8.08
  -8  -7  10   30.59    7.34
  -8  -7  11   78.83   10.91
  -8   7  11   81.35   11.90
  -8  -7  11   82.41   10.77
  -8   7  11   65.38   10.49
  -8  -7  12   69.63   10.22
  -8  -7  12   67.41    9.52
  -8   7  12   53.12   10.11
  -8   7  13   16.05    6.06
  -8  -7  13   28.99    6.83
  -8  -7  13   19.34    5.84
  -8   7  14    5.45    3.12
  -8  -7  14    1.89    2.96
  -8  -7  14    6.14    2.04
  -8  -7  15    0.91    3.13
  -8  -7  15   -2.68    3.57
  -8  -7  16   15.34    6.19
  -8  -7  16    4.26    2.58
  -8  -7  17   14.40    6.32
  -8  -7  17   10.35    4.31
  -8  -7  18    7.18    4.18
  -8  -7  19    0.29    3.09
   8  -7  19    1.94    2.71
  -8  -7  20    5.61    4.33
   8  -7  20    5.50    3.74
   8  -7  21   10.35    5.26
  -8  -7  21   17.69    6.63
  -8   8 -19   14.84    5.23
  -8   8 -19    3.82    3.16
  -8   8 -18   36.61    8.82
  -8   8 -18   77.98   12.89
  -8   8 -17  149.01   16.11
  -8   8 -17  112.63   14.46
  -8   8 -16    8.53    4.48
  -8   8 -16    6.59    4.57
  -8  -8 -15   34.56    7.93
  -8   8 -15   29.74    6.46
  -8   8 -15   47.91    9.56
  -8   8 -14   30.40    6.80
  -8  -8 -14   15.75    5.97
  -8   8 -14   30.01    7.15
  -8   8 -13    2.29    1.96
  -8  -8 -13    8.42    5.13
  -8  -8 -12   90.35   12.34
  -8   8 -12   87.16   12.17
  -8   8 -12   83.18   12.14
  -8  -8 -11  128.91   14.76
  -8   8 -11  152.53   15.53
  -8   8 -11  115.58   13.74
  -8  -8 -10   10.48    4.96
  -8   8 -10    7.64    3.00
  -8   8 -10    7.33    4.97
  -8  -8  -9   84.16   11.58
  -8   8  -9   92.67   11.72
  -8   8  -9   89.83   12.33
  -8  -8  -8   90.90   12.23
  -8   8  -8  134.56   14.49
  -8   8  -8  118.69   13.49
  -8  -8  -7   26.25    7.20
   8  -8  -7   35.51    7.66
  -8   8  -7   35.36    7.85
  -8   8  -7   44.04    8.45
  -8  -8  -6   36.88    8.00
   8  -8  -6   29.08    6.32
  -8   8  -6   47.03    8.52
  -8   8  -6   32.32    7.81
  -8  -8  -5  138.60   14.23
  -8   8  -5  136.26   14.68
   8  -8  -5  136.22   14.13
  -8   8  -5  124.32   13.85
  -8  -8  -4   31.14    6.87
  -8   8  -4   16.38    4.95
  -8   8  -4   26.93    6.22
   8  -8  -3    6.02    2.63
  -8  -8  -3   13.95    5.05
  -8   8  -3    6.26    2.33
  -8  -8  -3   11.20    4.07
  -8   8  -3   16.09    6.62
  -8  -8  -2   80.48   10.80
   8  -8  -2   55.69    9.26
  -8   8  -2   58.42    9.47
  -8   8  -2   49.00    9.60
  -8  -8  -2   63.65    9.33
  -8  -8  -1   36.68    7.46
  -8   8  -1   55.21    9.87
   8  -8  -1   60.28    9.83
  -8   8  -1   65.98   10.46
  -8  -8  -1   31.31    6.37
  -8   8   0    4.35    3.52
  -8  -8   0    9.20    5.02
   8  -8   0    4.45    2.81
  -8   8   0    7.04    4.63
  -8  -8   0    3.23    1.89
  -8  -8   1   56.34    9.08
  -8   8   1   40.81    8.35
  -8  -8   1   43.50    8.44
   8  -8   1   48.10    8.80
  -8   8   1   42.66    8.15
  -8  -8   2   68.85    9.97
  -8  -8   2   54.17    8.37
   8  -8   2   71.81   11.03
  -8   8   2   61.85   10.38
  -8   8   2   73.46   10.57
  -8  -8   3    5.69    3.76
  -8   8   3   18.46    5.95
  -8  -8   3   18.07    5.67
   8  -8   3    8.36    2.80
  -8   8   3    5.58    4.51
  -8  -8   4   31.19    7.29
  -8   8   4   33.19    6.47
  -8  -8   4   30.34    6.70
   8  -8   4   23.02    6.16
  -8   8   4   41.42    8.99
  -8  -8   5  133.01   14.37
  -8  -8   5  123.17   13.56
   8  -8   5  130.31   13.72
  -8   8   5  101.92   12.96
  -8   8   5  123.50   13.99
  -8  -8   6   34.78    7.52
  -8   8   6   32.33    7.40
   8  -8   6   18.10    6.53
  -8  -8   6   38.03    7.63
  -8  -8   7   20.65    5.90
  -8   8   7   37.11    7.58
  -8  -8   7   45.67    8.03
   8  -8   7   32.64    7.55
  -8  -8   8  106.99   12.44
  -8  -8   8  121.94   13.37
   8  -8   8  125.63   14.21
  -8   8   8  103.10   14.00
  -8  -8   9   92.23   11.75
  -8  -8   9   96.76   12.72
   8  -8   9   75.18   10.56
  -8   8   9  103.48   12.30
  -8   8  10    4.51    2.47
  -8  -8  10   -0.20    3.07
   8  -8  10    3.79    4.50
  -8  -8  10    2.81    2.20
  -8  -8  11  145.12   14.96
   8  -8  11  133.58   15.58
  -8   8  11  157.89   16.46
  -8  -8  11  155.17   15.48
  -8  -8  12   79.02   10.97
   8  -8  12   67.29   11.73
  -8   8  12   70.63   11.09
  -8  -8  12   86.47   11.31
  -8   8  13    3.31    2.78
  -8  -8  13    9.63    7.14
   8  -8  13   16.25    5.70
  -8  -8  13    4.62    2.69
   8  -8  14   23.67    6.77
  -8  -8  14   38.77    8.28
  -8  -8  14   42.03    8.47
  -8  -8  15   30.00    7.25
   8  -8  15   24.04    7.50
  -8  -8  15   27.98    8.09
  -8  -8  16   10.77    5.13
  -8  -8  16   -2.20    4.11
   8  -8  16    2.13    3.30
  -8  -8  17  129.54   15.14
   8  -8  17   83.29   13.16
  -8  -8  17  121.44   14.59
   8  -8  18   63.43   10.49
  -8  -8  18   47.45    9.74
  -8  -8  19   10.50    5.56
   8  -8  19    4.30    4.10
  -8   9 -15   19.20    6.66
  -8   9 -15   11.38    4.82
  -8  -9 -14   13.15    6.47
  -8   9 -14   13.14    5.17
  -8   9 -14   14.05    5.77
  -8  -9 -13   32.53    7.67
  -8   9 -13   23.42    6.26
  -8   9 -13   32.89    7.52
  -8  -9 -12   11.63    4.45
  -8   9 -12   12.10    5.11
  -8   9 -12   19.82    5.71
  -8  -9 -11   22.62    6.07
  -8   9 -11    6.79    6.05
  -8   9 -11   10.70    3.05
  -8  -9 -10   24.72    6.95
  -8   9 -10   14.20    5.66
  -8   9 -10   18.96    6.04
  -8   9  -9    1.52    3.07
  -8  -9  -9    1.20    3.42
  -8   9  -9   -2.74    1.69
  -8  -9  -8   12.63    5.14
  -8   9  -8    9.56    3.71
  -8  -9  -7    2.67    3.41
  -8   9  -7    0.94    2.79
  -8   9  -7   -2.18    3.66
  -8  -9  -6    1.05    4.28
   8  -9  -6   -0.66    2.28
  -8   9  -6    1.36    2.52
  -8   9  -6   -2.22    2.74
  -8  -9  -5   40.33    8.62
   8  -9  -5   35.88    7.86
  -8   9  -5   48.20    9.02
  -8   9  -5   18.21    5.57
  -8  -9  -4    0.78    2.82
   8  -9  -4    2.07    2.17
  -8   9  -4    6.71    3.37
  -8   9  -4   -2.77    2.31
  -8  -9  -3    9.98    3.28
   8  -9  -3    8.87    5.44
  -8   9  -3    5.14    5.50
  -8   9  -3    4.51    4.28
  -8  -9  -2   22.83    6.20
   8  -9  -2   13.83    4.56
  -8   9  -2   14.51    6.29
  -8  -9  -2   14.43    5.45
  -8   9  -2   20.20    6.06
  -8  -9  -1   17.22    4.70
   8  -9  -1   22.23    6.46
  -8   9  -1   14.38    6.08
  -8  -9  -1   12.04    5.11
  -8   9  -1   13.07    4.79
  -8  -9   0    5.57    4.33
   8  -9   0    2.83    2.81
  -8  -9   0    6.35    3.51
  -8   9   0    4.86    2.20
  -8  -9   1   21.39    7.07
  -8  -9   1   12.44    4.64
   8  -9   1   13.33    5.27
  -8   9   1   12.16    4.66
  -8  -9   2    9.27    4.48
  -8  -9   2   13.51    4.46
   8  -9   2   20.26    6.12
  -8   9   2    6.84    4.85
  -8  -9   3    2.32    2.13
  -8  -9   3   -0.11    2.05
   8  -9   3    7.52    4.16
  -8   9   3    5.48    2.55
  -8  -9   4    2.50    3.36
  -8  -9   4    7.24    5.17
   8  -9   4    2.54    3.12
  -8   9   4   -0.27    3.72
  -8  -9   5   28.86    7.43
   8  -9   5   15.84    5.82
  -8  -9   5   29.48    7.54
  -8   9   5   27.83    7.32
  -8   9   6   -1.16    3.55
  -8  -9   6    1.03    1.90
  -8  -9   6    1.73    3.96
   8  -9   6    3.67    4.91
  -8   9   7    4.88    5.31
  -8  -9   7    1.73    4.52
  -8  -9   7    8.68    3.82
   8  -9   7    2.79    2.90
  -8   9   8   15.97    5.96
  -8  -9   8   13.83    6.02
   8  -9   8   23.65    6.55
  -8  -9   8   10.72    4.41
  -8   9   9   -3.21    4.25
  -8  -9   9    7.68    5.49
   8  -9   9    5.28    1.78
  -8  -9   9    1.58    2.01
  -8   9  10   19.80    5.84
  -8  -9  10   32.75    7.71
   8  -9  10    9.80    3.91
  -8  -9  10   27.60    6.26
  -8   9  11   12.78    4.78
  -8  -9  11    5.15    2.81
   8  -9  11    8.90    4.83
  -8  -9  11   14.53    5.02
  -8  -9  12   26.35    6.79
   8  -9  12   17.98    5.55
  -8  -9  12   25.34    6.11
  -8  -9  13   37.56    8.76
   8  -9  13   38.17    9.30
  -8  -9  13   35.37    7.93
   8  -9  14    8.76    3.47
  -8  -9  14   20.84    6.93
  -8  -9  14   17.01    6.02
  -8  -9  15   18.17    7.09
   8  -9  15   21.83    6.97
  -8  -9  15   19.26    5.55
  -8 -10 -10   -0.10    2.31
  -8  10 -10   -0.54    2.90
  -8  10 -10    0.16    3.45
  -8 -10  -9   54.65   10.56
  -8  10  -9   44.06    9.79
  -8  10  -9   53.16   10.13
  -8 -10  -8   52.81   10.19
  -8  10  -8   45.36   10.65
  -8  10  -8   40.90    8.38
  -8 -10  -7   10.36    5.14
  -8  10  -7   26.52    8.14
  -8 -10  -6   11.88    5.86
   8 -10  -6    1.02    4.70
  -8  10  -6    4.34    3.72
  -8 -10  -5   64.97   10.97
   8 -10  -5   45.07    9.54
  -8  10  -5   83.73   12.52
  -8 -10  -4   23.47    7.00
   8 -10  -4   18.71    5.91
  -8  10  -4   28.90    6.86
  -8 -10  -3   -1.31    1.97
   8 -10  -3   -0.94    4.50
  -8  10  -3    0.51    2.94
  -8 -10  -2   33.51    7.45
   8 -10  -2   26.30    7.12
  -8  10  -2   29.56    8.05
  -8 -10  -1   27.44    6.80
   8 -10  -1   21.36    6.07
  -8  10  -1   38.16    8.32
  -8 -10   0   -0.78    3.80
   8 -10   0    0.94    3.07
  -8  10   0    3.69    3.68
  -8 -10   0    3.91    2.36
  -8 -10   1   35.80    7.94
  -8 -10   1   18.58    5.51
   8 -10   1   24.28    6.00
  -8  10   1   35.12    7.55
  -8 -10   2   21.95    7.68
  -8 -10   2   31.39    7.64
   8 -10   2   38.82    8.49
  -8  10   2    9.90    5.83
  -8 -10   3    0.08    2.97
  -8 -10   3   -0.74    3.17
   8 -10   3    3.35    4.55
  -8  10   3   -1.44    3.01
  -8 -10   4   26.05    7.64
  -8 -10   4   25.81    5.61
   8 -10   4   21.02    7.03
  -8  10   4   17.51    6.15
  -8 -10   5   78.97   11.75
  -8 -10   5   64.44   10.70
   8 -10   5   66.59   11.49
  -8  10   5   49.56    9.10
  -8 -10   6    3.95    2.89
  -8 -10   6   12.27    5.18
   8 -10   6    3.39    2.41
  -8  10   6    8.54    4.64
  -8 -10   7   11.45    4.56
  -8 -10   7   10.58    3.93
   8 -10   7   26.19    7.31
  -8  10   7   12.57    5.06
  -8 -10   8   42.13    8.81
  -8 -10   8   41.28    8.74
   8 -10   8   37.19    8.25
  -8 -10   9   48.81   10.15
  -8 -10   9   65.97   11.31
   8 -10   9   34.39    8.00
  -8  10   9   47.75    9.71
  -8 -10  10    4.02    4.50
   8 -10  10   -1.57    3.59
  -8 -10  10   -3.13    2.76
  -9   0 -25    0.41    3.77
  -9   0 -24   -0.37    3.07
  -9   0 -23    1.69    3.08
  -9   0 -22    1.02    2.27
  -9   0 -21   -3.19    3.73
  -9   0 -20   -0.39    1.74
  -9   0 -19    2.73    2.58
  -9   0 -18   -1.13    2.07
  -9   0 -17    3.15    3.23
  -9   0 -16   -0.92    1.36
  -9   0 -15    0.03    1.49
  -9   0 -14   -1.02    2.43
  -9   0 -13    5.67    3.41
  -9   0 -13   -2.00    2.25
  -9   0 -12    1.09    1.97
  -9   0 -12   -0.62    1.87
  -9   0 -11    0.63    1.92
  -9   0 -11    0.27    1.97
  -9   0 -10   -0.69    1.56
  -9   0 -10    2.11    1.96
  -9   0  -9    0.19    1.12
  -9   0  -9    0.16    1.58
  -9   0  -8   -0.40    1.09
  -9   0  -8    0.21    1.01
  -9   0  -7   -0.65    1.96
  -9   0  -7   -0.90    1.26
  -9   0  -7    1.44    1.40
  -9   0  -6   -0.64    1.93
  -9   0  -6   -0.08    1.41
  -9   0  -6   -0.20    2.24
  -9   0  -5   -1.00    0.99
  -9   0  -5   -1.62    2.35
  -9   0  -5    0.60    0.98
  -9   0  -4   -0.99    1.20
  -9   0  -4    0.82    1.81
  -9   0  -4   -0.34    1.92
  -9   0  -3    0.56    1.21
  -9   0  -3    0.97    1.76
  -9   0  -3   -0.79    1.86
  -9   0  -2    1.32    1.88
  -9   0  -2   -0.58    1.22
  -9   0  -2   -0.14    1.05
  -9   0  -1    0.98    1.19
  -9   0  -1    0.37    1.57
  -9   0  -1    0.08    1.76
  -9   0   0    1.14    2.80
  -9   0   0   -0.55    1.61
  -9   0   0    1.29    1.79
  -9   0   1    1.29    1.85
  -9   0   1    0.54    1.56
  -9   0   2   -0.05    1.03
  -9   0   2    3.04    2.72
  -9   0   3    2.39    2.45
  -9   0   3    0.50    1.12
  -9   0   4   -0.88    1.64
  -9   0   4   -0.24    1.09
  -9   0   5   -0.38    1.14
  -9   0   5    0.69    1.75
  -9   0   6   -0.24    1.96
  -9   0   6    0.39    0.93
  -9   0   7    2.89    2.42
  -9   0   7    0.07    1.67
  -9   0   8   -1.96    1.80
  -9   0   8   -0.36    1.18
  -9   0   9   -1.21    1.67
  -9   0   9   -0.65    1.22
  -9   0  10   -0.63    1.40
  -9   0  10    0.68    1.77
  -9   0  11   -0.72    2.40
  -9   0  11    0.30    1.46
  -9   0  12    1.03    2.64
  -9   0  12    0.38    1.22
  -9   0  13    0.14    2.19
  -9   0  13   -1.14    1.59
  -9   0  14    0.87    1.74
  -9   0  15    0.05    1.41
  -9   0  16    1.12    1.96
  -9   0  17   -1.89    3.09
  -9   0  18    0.42    2.34
  -9   0  19   -0.65    2.84
  -9   0  20    3.50    3.07
  -9   0  21    0.47    2.95
  -9   0  22    3.37    3.12
  -9   0  23   -1.70    3.26
  -9   1 -27   94.08   12.51
  -9   1 -26   68.03   11.04
  -9   1 -25    9.88    4.02
  -9   1 -24    1.32    3.08
  -9   1 -23   48.57    8.89
  -9   1 -22   54.39    9.80
  -9  -1 -21  148.87   14.54
  -9   1 -21  175.97   16.04
  -9  -1 -20   21.40    5.61
  -9   1 -20   27.52    7.39
  -9  -1 -19   54.37    9.11
  -9   1 -19   63.02    9.67
  -9   1 -18    6.19    2.57
  -9  -1 -18    1.74    3.77
  -9  -1 -17  734.60   30.26
  -9   1 -17  697.20   30.30
  -9  -1 -16   90.14   10.59
  -9   1 -16   56.41    8.57
  -9  -1 -15  357.50   20.38
  -9   1 -15  397.70   22.10
  -9   1 -14    6.24    3.28
  -9  -1 -14    1.03    2.28
  -9   1 -14    3.11    2.20
  -9   1 -13    1.41    1.57
  -9  -1 -13    1.88    1.56
  -9   1 -13    1.52    2.19
  -9  -1 -12  115.69   11.07
  -9   1 -12  114.81   11.67
  -9  -1 -12  106.20   11.01
  -9   1 -12  104.34   10.46
  -9   1 -11 1196.45   34.74
  -9  -1 -11 1259.51   31.31
  -9  -1 -11 1159.80   34.31
  -9   1 -11 1294.41   38.40
  -9  -1 -11 1231.84   36.10
  -9   1 -10   27.35    5.47
  -9  -1 -10   21.43    4.61
  -9  -1 -10   23.36    5.14
  -9   1 -10   33.37    6.50
  -9  -1 -10   25.32    4.92
  -9   1  -9  686.74   25.73
  -9  -1  -9  681.98   23.56
  -9   1  -9  682.87   27.58
  -9  -1  -9  671.87   25.88
  -9  -1  -9  732.37   27.28
  -9   1  -8  246.07   15.18
  -9  -1  -8  247.00   14.11
  -9   1  -8  240.86   16.12
  -9  -1  -8  226.16   14.89
  -9  -1  -8  225.48   14.92
  -9   1  -7  293.50   16.31
  -9  -1  -7  277.10   15.22
  -9   1  -7  288.31   17.56
  -9  -1  -7  320.05   17.23
  -9  -1  -7  276.77   16.53
  -9   1  -6  199.55   13.53
  -9  -1  -6  239.79   13.77
  -9   1  -6  197.53   14.14
  -9  -1  -6  217.96   14.53
  -9  -1  -6  219.71   14.41
  -9   1  -5  619.25   23.78
  -9   1  -5  629.44   25.49
  -9  -1  -5  622.38   24.21
  -9  -1  -5  623.75   22.30
  -9  -1  -5  628.93   24.60
  -9   1  -4  309.15   16.87
  -9  -1  -4  336.20   16.44
  -9   1  -4  339.69   18.48
  -9  -1  -4  347.49   17.67
  -9  -1  -4  344.16   18.13
  -9   1  -3  545.77   22.33
  -9  -1  -3  566.64   21.81
  -9   1  -3  554.71   23.58
  -9  -1  -3  570.72   22.54
  -9  -1  -3  600.69   23.38
  -9   1  -2  303.23   16.69
  -9  -1  -2  280.44   15.40
  -9   1  -2  262.03   16.17
  -9  -1  -2  327.99   17.12
  -9  -1  -2  320.61   16.81
  -9   1  -1  979.36   29.74
  -9  -1  -1  975.51   29.02
  -9   1  -1  972.43   30.79
  -9  -1  -1  968.26   29.76
  -9  -1  -1 1025.80   29.87
  -9   1   0 1169.28   32.54
  -9  -1   0 1186.98   32.20
  -9   1   0 1224.05   35.17
  -9   1   1  976.15   30.00
  -9   1   1  958.32   30.66
  -9  -1   1  953.26   29.16
  -9  -1   1  978.47   28.95
  -9   1   2  292.85   16.57
  -9  -1   2  269.98   15.63
  -9  -1   2  306.76   16.02
  -9   1   3  531.73   22.36
  -9  -1   3  534.01   21.04
  -9   1   4  332.30   17.85
  -9  -1   4  302.91   16.97
  -9  -1   4  292.09   15.56
  -9  -1   5  700.36   24.03
  -9  -1   5  655.48   25.31
  -9   1   6  229.13   14.86
  -9  -1   6  220.92   13.26
  -9  -1   6  184.76   13.77
  -9  -1   7  284.88   16.81
  -9   1   7  262.04   16.05
  -9  -1   7  285.30   14.90
  -9  -1   8  229.95   15.49
  -9   1   8  223.38   14.83
  -9  -1   8  243.77   14.16
  -9  -1   9  695.17   27.06
  -9   1   9  652.31   26.03
  -9  -1   9  693.17   23.49
  -9   1  10   20.70    4.77
  -9  -1  10   24.35    5.71
  -9  -1  10   29.96    5.14
  -9  -1  11 1208.52   36.90
  -9   1  11 1204.29   36.42
  -9  -1  11 1306.33   31.85
  -9  -1  12  104.05   10.93
  -9   1  12  113.22   11.69
  -9  -1  12  112.28    9.02
  -9  -1  13    3.84    2.58
  -9   1  13    4.96    3.53
  -9  -1  13    2.44    2.44
  -9   1  14    0.38    2.65
  -9  -1  14    1.09    1.38
  -9  -1  15  375.85   21.78
  -9   1  15  400.63   22.19
  -9  -1  16   60.87    9.13
  -9   1  16   73.70    9.91
  -9  -1  17  707.64   30.62
  -9   1  17  696.80   30.72
  -9   1  18    6.27    2.34
  -9  -1  18    5.54    3.66
  -9   1  19   73.20   10.61
  -9  -1  19   59.66    9.56
  -9   1  20   22.22    5.98
  -9  -1  20   31.23    7.33
  -9   1  21  168.28   16.03
  -9  -1  21  181.43   16.74
  -9  -1  22   49.66    9.40
  -9   1  22   61.46   10.33
  -9  -1  23   28.51    7.58
  -9  -1  24    6.16    4.72
  -9   2 -27   -5.43    5.11
  -9   2 -26   10.11    3.70
  -9   2 -25    5.28    3.18
  -9   2 -24   -0.38    2.19
  -9   2 -23   -5.34    3.42
  -9   2 -22   13.78    4.87
  -9   2 -21    3.28    2.68
  -9   2 -20   -0.17    3.59
  -9   2 -19    4.60    4.70
  -9   2 -18   15.54    4.10
  -9   2 -17    0.53    2.58
  -9  -2 -17    2.36    1.51
  -9  -2 -16   23.63    5.63
  -9   2 -16   15.69    4.44
  -9  -2 -16   27.77    4.92
  -9   2 -15    2.48    3.55
  -9  -2 -15    0.98    2.41
  -9   2 -15    1.88    3.17
  -9  -2 -15    1.82    2.37
  -9   2 -14    7.10    3.03
  -9  -2 -14    7.53    3.41
  -9   2 -14   21.30    5.65
  -9  -2 -14   18.71    5.03
  -9   2 -13    4.24    2.79
  -9   2 -13    4.88    2.20
  -9  -2 -13    5.92    3.34
  -9  -2 -13    8.25    3.66
  -9  -2 -12   37.00    6.38
  -9   2 -12   45.14    7.36
  -9   2 -12   35.18    6.86
  -9  -2 -12   25.36    5.94
  -9   2 -11   12.63    4.05
  -9  -2 -11   11.54    3.43
  -9   2 -11   16.78    3.69
  -9  -2 -11   12.41    2.94
  -9  -2 -10    5.53    3.08
  -9   2 -10    1.13    2.65
  -9  -2 -10    2.89    2.05
  -9  -2 -10    0.07    1.23
  -9   2 -10    4.18    2.49
  -9  -2  -9    6.37    2.88
  -9   2  -9    2.51    1.53
  -9   2  -9    5.66    3.30
  -9  -2  -9    5.21    2.49
  -9  -2  -9    2.41    2.06
  -9   2  -8   64.05    8.58
  -9  -2  -8   59.37    6.57
  -9   2  -8   64.48    8.65
  -9  -2  -8   68.00    8.08
  -9  -2  -8   42.66    7.45
  -9  -2  -7   42.94    5.90
  -9   2  -7   30.52    5.62
  -9   2  -7   36.89    6.53
  -9  -2  -7   39.69    5.90
  -9  -2  -7   38.15    6.43
  -9  -2  -6   10.04    3.13
  -9  -2  -6    6.11    2.20
  -9   2  -6    5.40    2.93
  -9   2  -6   11.73    4.01
  -9  -2  -6    7.18    3.54
  -9  -2  -5    1.39    1.55
  -9  -2  -5    8.47    2.74
  -9   2  -5    3.90    2.18
  -9   2  -5    2.15    2.16
  -9  -2  -5    1.48    1.94
  -9  -2  -4   19.83    4.14
  -9  -2  -4   12.72    3.14
  -9   2  -4   16.49    4.53
  -9   2  -4   19.09    4.73
  -9  -2  -4   18.64    4.22
  -9  -2  -3   14.24    3.49
  -9  -2  -3   19.07    3.90
  -9   2  -3    9.93    3.23
  -9   2  -3   15.08    4.89
  -9  -2  -3   15.74    3.90
  -9  -2  -2   12.52    3.69
  -9  -2  -2   19.46    4.35
  -9   2  -2   10.50    2.92
  -9   2  -2   15.49    4.53
  -9  -2  -2   21.69    4.53
  -9   2  -1   79.66    8.87
  -9   2  -1   79.78    9.42
  -9  -2  -1   97.40    9.36
  -9  -2  -1   92.76    9.21
  -9  -2   0   28.21    5.00
  -9   2   0   31.56    5.58
  -9   2   0   35.39    5.88
  -9  -2   0   25.36    5.10
  -9  -2   1   74.47    8.10
  -9  -2   1   97.29    9.50
  -9   2   1   95.65    9.56
  -9   2   1   80.46    9.22
  -9  -2   2   13.95    3.88
  -9  -2   2   14.13    3.68
  -9   2   2   10.88    3.52
  -9   2   2   15.09    3.91
  -9  -2   3   16.80    3.85
  -9  -2   3   14.48    3.64
  -9   2   3   15.89    4.10
  -9   2   3   13.69    3.57
  -9  -2   4   22.09    4.68
  -9  -2   4   13.61    4.22
  -9   2   4   20.57    4.75
  -9  -2   5    3.84    2.50
  -9  -2   5    2.34    2.28
  -9   2   5    1.82    2.13
  -9  -2   6    7.86    2.82
  -9  -2   6   10.06    3.27
  -9   2   6    5.12    1.19
  -9  -2   7   45.24    6.37
  -9  -2   7   35.80    6.00
  -9   2   7   31.93    6.04
  -9  -2   8   54.51    6.80
  -9  -2   8   65.44    8.61
  -9   2   8   71.09    8.84
  -9  -2   9    5.98    2.72
  -9  -2   9    3.44    2.26
  -9   2   9    9.17    3.87
  -9  -2  10    5.20    2.58
  -9  -2  10    4.59    3.46
  -9   2  10    0.50    2.21
  -9  -2  11   16.71    4.33
  -9  -2  11   17.74    5.01
  -9   2  11   10.70    3.95
  -9  -2  12   41.63    6.04
  -9  -2  12   45.88    7.72
  -9   2  12   56.12    8.04
  -9  -2  13    2.65    2.25
  -9  -2  13    6.29    3.85
  -9   2  13    5.81    2.29
  -9  -2  14   16.57    3.87
  -9  -2  14   13.37    4.88
  -9   2  14   15.00    4.60
  -9  -2  15   -0.03    2.10
  -9   2  15    3.47    3.31
  -9  -2  16   21.05    5.68
  -9   2  16   17.65    4.92
  -9   2  17    0.24    2.66
  -9  -2  17    0.38    1.88
  -9  -2  18   24.60    5.60
  -9   2  18   18.62    4.97
  -9  -2  19    3.72    3.23
  -9   2  19    2.31    1.85
  -9  -2  20    1.80    1.73
  -9   2  20    0.23    2.83
  -9  -2  21    1.03    2.34
  -9   2  21   -3.52    3.05
  -9  -2  22    3.31    3.69
  -9  -2  23    6.85    3.88
  -9  -2  24    2.45    3.59
  -9  -2  25    6.92    3.69
  -9   3 -26   14.43    5.22
  -9   3 -25  167.02   16.46
  -9   3 -24   65.49   10.16
  -9   3 -23   23.87    6.18
  -9   3 -22  127.00   14.37
  -9   3 -21  222.96   18.58
  -9   3 -20   -2.46    2.24
  -9   3 -19   39.70    7.48
  -9  -3 -19   36.35    7.40
  -9   3 -18  162.92   15.32
  -9  -3 -18  129.89   13.39
  -9   3 -17  109.78   12.46
  -9   3 -17  122.68   13.38
  -9  -3 -17  104.15   11.83
  -9   3 -16  654.98   29.77
  -9   3 -16  616.41   28.88
  -9  -3 -16  697.77   30.39
  -9   3 -15   81.82   10.52
  -9  -3 -15   68.35    9.67
  -9   3 -14   99.17   11.25
  -9   3 -14  128.50   13.20
  -9  -3 -14  142.64   13.41
  -9   3 -13  129.77   13.01
  -9   3 -13  121.98   12.40
  -9  -3 -13  136.53   12.45
  -9   3 -12  488.62   25.24
  -9   3 -12  520.95   25.04
  -9  -3 -12  550.79   25.56
  -9   3 -11  863.30   32.66
  -9   3 -11  807.50   31.13
  -9  -3 -11  907.66   32.41
  -9  -3 -10  874.75   26.93
  -9   3 -10  914.41   33.38
  -9  -3 -10  882.47   31.56
  -9   3 -10  909.36   32.93
  -9  -3  -9    5.49    3.19
  -9   3  -9    4.21    2.78
  -9  -3  -9    2.47    2.55
  -9   3  -9    6.83    4.77
  -9  -3  -9    1.04    1.34
  -9   3  -8  189.64   14.89
  -9   3  -8  152.24   13.86
  -9  -3  -8  171.61   11.93
  -9  -3  -8  168.34   11.44
  -9  -3  -8  185.71   14.24
  -9   3  -7 1717.31   44.50
  -9  -3  -7 1680.92   36.95
  -9  -3  -7 1703.10   38.20
  -9  -3  -7 1663.05   42.37
  -9   3  -6   73.32    8.86
  -9   3  -6   63.58    8.89
  -9  -3  -6   61.15    7.02
  -9  -3  -6   66.95    7.84
  -9  -3  -6   65.54    8.38
  -9  -3  -5 2291.36   48.56
  -9   3  -5 2294.62   50.26
  -9   3  -5 2321.21   51.99
  -9  -3  -5 2227.12   43.48
  -9  -3  -4  766.31   28.19
  -9  -3  -4  835.21   26.91
  -9   3  -4  844.74   30.63
  -9   3  -4  859.78   31.30
  -9  -3  -4  813.65   25.73
  -9  -3  -3    3.21    2.70
  -9   3  -3   -0.20    1.17
  -9  -3  -3    0.38    1.04
  -9   3  -3    1.20    3.52
  -9  -3  -3    0.85    2.32
  -9  -3  -2   29.91    5.53
  -9  -3  -2   29.46    5.79
  -9   3  -2   24.90    4.98
  -9   3  -2   33.14    6.67
  -9  -3  -2   30.37    5.13
  -9  -3  -1 3496.42   58.98
  -9  -3  -1 3316.32   55.00
  -9   3  -1 3298.44   59.10
  -9   3  -1 3399.47   61.81
  -9  -3   0   -0.57    1.92
  -9   3   0   -0.07    2.31
  -9  -3   0    3.66    1.58
  -9   3   0   -0.85    1.39
  -9  -3   1 3288.90   57.91
  -9  -3   1 3252.87   56.11
  -9   3   1 3343.46   59.86
  -9  -3   2   25.76    4.76
  -9  -3   2   32.42    6.00
  -9   3   2   32.71    5.96
  -9   3   2   30.96    5.69
  -9  -3   3   -0.02    2.78
  -9   3   3    0.15    2.45
  -9  -3   3    1.19    1.52
  -9   3   3    0.62    1.72
  -9  -3   4  837.64   28.56
  -9  -3   4  852.32   29.34
  -9   3   4  819.21   29.91
  -9   3   4  853.03   31.11
  -9  -3   5 2173.69   46.23
  -9  -3   5 2220.33   48.32
  -9   3   5 2167.39   48.87
  -9   3   5 2286.49   51.12
  -9  -3   6   71.21    8.51
  -9  -3   6   65.48    8.78
  -9   3   6   65.82    8.49
  -9  -3   7 1830.28   42.35
  -9  -3   7 1787.14   44.03
  -9  -3   8  201.49   13.96
  -9  -3   8  163.48   13.75
  -9   3   8  178.31   14.38
  -9  -3   9    1.51    1.47
  -9   3   9    5.21    2.10
  -9  -3   9    6.11    3.72
  -9  -3  10  938.91   30.56
  -9  -3  10  887.49   32.41
  -9   3  10  857.55   32.06
  -9  -3  11  858.95   29.30
  -9  -3  11  857.18   32.13
  -9   3  11  841.11   31.73
  -9  -3  12  565.53   23.90
  -9  -3  12  533.40   25.48
  -9   3  12  530.65   25.70
  -9  -3  13  108.64   10.76
  -9  -3  13  131.54   13.05
  -9   3  13  105.21   11.76
  -9  -3  14  124.82   11.59
  -9  -3  14  118.10   12.38
  -9   3  14  120.39   12.65
  -9  -3  15   84.47    9.42
  -9  -3  15  118.04   12.37
  -9   3  15  112.73   12.28
  -9  -3  16  673.40   30.17
  -9   3  16  646.59   29.71
  -9  -3  17  104.91   12.28
  -9   3  17  121.84   13.28
  -9  -3  18  158.31   14.77
  -9   3  18  174.83   15.98
  -9   3  19   46.60    8.70
  -9  -3  19   37.24    7.70
  -9   3  20   -0.84    2.99
  -9  -3  20   -1.17    3.08
  -9  -3  21  207.10   18.45
  -9  -3  22  143.95   15.68
  -9  -3  23   17.14    5.05
  -9  -3  24   63.29   10.57
  -9  -3  25  178.18   17.92
  -9  -3  26    9.90    5.91
  -9   4 -25    3.68    4.12
  -9   4 -24    3.33    3.88
  -9   4 -23   23.20    6.87
  -9   4 -22   -1.22    2.21
  -9   4 -21    6.44    2.93
  -9   4 -20   -0.73    3.68
  -9   4 -19    3.48    3.13
  -9  -4 -19    1.57    1.80
  -9   4 -18    1.63    2.94
  -9   4 -18    5.14    5.10
  -9  -4 -18    1.55    2.67
  -9   4 -17  294.87   20.60
  -9   4 -17  323.57   21.56
  -9  -4 -17  298.31   20.81
  -9  -4 -16   -1.79    2.49
  -9   4 -16    2.34    2.27
  -9   4 -16    1.10    2.37
  -9  -4 -15   17.92    5.10
  -9   4 -15   25.96    5.65
  -9   4 -15   16.40    4.52
  -9  -4 -14   36.85    6.82
  -9   4 -14   37.79    7.08
  -9   4 -14   56.09    9.09
  -9   4 -13    3.26    2.42
  -9  -4 -13    8.60    4.21
  -9   4 -13    4.86    3.61
  -9   4 -12   59.37    9.34
  -9  -4 -12   78.22    9.65
  -9   4 -11  276.67   19.05
  -9   4 -11  329.27   20.62
  -9  -4 -11  345.43   20.47
  -9  -4 -10    9.30    3.93
  -9   4 -10    8.48    4.41
  -9   4 -10    4.49    1.52
  -9  -4  -9  219.66   16.00
  -9   4  -9  220.61   16.88
  -9   4  -9  209.38   16.51
  -9  -4  -8  142.20   13.16
  -9   4  -8  132.04   12.94
  -9  -4  -8  155.81   12.08
  -9   4  -8  147.54   13.41
  -9  -4  -7    0.15    1.67
  -9   4  -7   -0.74    1.67
  -9  -4  -7   -0.55    1.90
  -9   4  -7    0.72    2.25
  -9  -4  -6  238.71   16.53
  -9  -4  -6  254.93   15.06
  -9   4  -6  225.25   16.98
  -9   4  -6  252.54   17.66
  -9   4  -5  120.59   12.35
  -9  -4  -5   99.17    9.60
  -9   4  -5  116.03   12.27
  -9  -4  -4   83.00    9.52
  -9   4  -4   82.78   10.22
  -9  -4  -4   66.94    7.86
  -9  -4  -4   81.22    8.54
  -9   4  -4   70.55    9.50
  -9  -4  -3   35.91    7.04
  -9   4  -3   36.62    7.09
  -9  -4  -3   35.40    6.05
  -9   4  -3   18.53    5.72
  -9  -4  -3   24.68    4.75
  -9  -4  -2  163.85   13.36
  -9   4  -2  138.73   12.92
  -9  -4  -2  169.51   12.82
  -9   4  -2  189.75   15.05
  -9  -4  -2  161.76   11.50
  -9  -4  -1    0.14    2.62
  -9   4  -1   -0.21    1.45
  -9   4  -1    4.85    2.89
  -9  -4  -1    1.15    2.51
  -9  -4   0  528.00   24.35
  -9   4   0  538.03   25.05
  -9  -4   0  475.90   22.21
  -9   4   0  507.48   24.98
  -9  -4   1    1.52    1.68
  -9  -4   1    6.24    2.73
  -9   4   1    1.34    2.28
  -9   4   1   -0.23    2.29
  -9  -4   2  181.39   13.97
  -9   4   2  163.80   13.80
  -9  -4   2  176.68   13.46
  -9   4   2  182.01   14.53
  -9  -4   3   29.31    5.42
  -9  -4   3   25.05    5.26
  -9   4   3   26.79    5.81
  -9   4   3   40.24    6.75
  -9  -4   4   86.51    9.63
  -9   4   4   79.62    9.67
  -9  -4   4   97.39   10.39
  -9   4   4   75.94    9.74
  -9  -4   5  103.52   10.36
  -9   4   5  111.94   11.33
  -9  -4   5  109.90   10.89
  -9   4   5  109.09   11.53
  -9  -4   6  241.16   16.06
  -9   4   6  254.55   17.33
  -9  -4   6  250.67   16.75
  -9   4   6  303.50   19.42
  -9  -4   7    1.17    1.89
  -9  -4   7    2.93    1.48
  -9   4   7    0.95    2.07
  -9   4   7    2.10    3.57
  -9  -4   8  160.08   13.07
  -9   4   8  132.38   12.75
  -9  -4   8  133.38   12.40
  -9  -4   9  205.91   14.91
  -9   4   9  190.79   15.32
  -9  -4   9  169.84   14.19
  -9  -4  10    1.59    1.62
  -9  -4  10    4.62    2.59
  -9   4  10    2.96    2.08
  -9  -4  11  324.57   18.88
  -9   4  11  318.77   20.17
  -9  -4  11  335.98   20.29
  -9  -4  12   91.68    9.96
  -9   4  12   68.26    9.87
  -9  -4  12   75.49    9.85
  -9  -4  13    2.39    2.15
  -9  -4  13    3.45    2.91
  -9   4  13    5.34    1.76
  -9  -4  14   47.75    7.75
  -9  -4  14   30.08    6.86
  -9   4  14   29.13    6.36
  -9  -4  15   23.96    5.47
  -9  -4  15   23.77    5.07
  -9   4  15   24.32    5.90
  -9  -4  16    3.76    2.45
  -9   4  16    7.55    3.69
  -9   4  17  264.78   19.61
  -9  -4  17  273.36   19.70
  -9   4  18    1.00    2.77
  -9  -4  18    2.21    2.30
  -9   4  19    2.96    2.48
  -9  -4  19   -0.31    3.20
  -9  -4  20   -1.18    3.22
  -9  -4  21    5.69    4.11
  -9  -4  22   -1.01    2.57
  -9  -4  23   18.43    6.00
  -9  -4  24    3.85    3.84
  -9  -4  25    5.18    4.49
  -9   5 -24    5.01    4.39
  -9   5 -23   24.08    6.64
  -9   5 -22   22.60    6.88
  -9   5 -21   92.38   12.01
  -9   5 -20    5.85    2.55
  -9   5 -19   18.11    5.93
  -9   5 -19   20.30    5.85
  -9  -5 -18   -3.77    2.49
  -9   5 -18    1.29    3.73
  -9   5 -18    1.75    3.27
  -9  -5 -17   10.90    4.76
  -9   5 -17   18.30    5.02
  -9   5 -17   26.52    6.28
  -9  -5 -16   35.61    7.50
  -9   5 -16   25.31    6.40
  -9   5 -16   27.80    6.81
  -9   5 -15  248.40   19.02
  -9   5 -15  262.22   19.87
  -9  -5 -14   30.55    6.80
  -9   5 -14   30.48    7.28
  -9   5 -14   21.85    5.70
  -9  -5 -13    6.67    2.34
  -9   5 -13   14.60    4.80
  -9   5 -13   16.20    5.52
  -9   5 -12   57.27    8.69
  -9  -5 -12   54.76    8.53
  -9   5 -12   33.58    6.62
  -9  -5 -11  400.80   23.06
  -9   5 -11  364.44   22.45
  -9   5 -11  332.99   21.69
  -9   5 -10    8.80    4.30
  -9  -5 -10   12.40    4.17
  -9   5 -10   21.47    5.87
  -9   5  -9   20.46    5.46
  -9  -5  -9    7.54    3.89
  -9   5  -9   13.15    4.60
  -9   5  -8    1.98    1.80
  -9  -5  -8   -1.67    2.97
  -9   5  -8    2.91    1.72
  -9   5  -7   77.80   10.21
  -9   5  -7   69.61    9.87
  -9   5  -6   18.94    5.21
  -9  -5  -6   20.72    4.79
  -9   5  -6   20.86    4.56
  -9  -5  -6   25.55    4.94
  -9  -5  -5  608.45   27.20
  -9  -5  -5  646.58   25.35
  -9   5  -5  609.58   28.40
  -9   5  -5  577.85   27.55
  -9  -5  -4   47.72    7.37
  -9  -5  -4   37.82    6.53
  -9   5  -4   49.84    7.95
  -9   5  -4   43.84    7.76
  -9  -5  -3   15.87    4.25
  -9  -5  -3   17.07    4.54
  -9   5  -3   11.80    4.45
  -9   5  -3    4.19    3.18
  -9  -5  -2   16.31    4.12
  -9  -5  -2   10.45    4.72
  -9   5  -2   12.51    4.22
  -9   5  -2    9.97    4.97
  -9   5  -1  541.35   26.35
  -9  -5  -1  601.12   26.74
  -9  -5  -1  559.80   24.90
  -9   5  -1  589.26   27.56
  -9  -5   0   30.37    6.36
  -9  -5   0   29.58    5.97
  -9   5   0   32.95    6.82
  -9   5   0   31.59    6.09
  -9   5   1  529.39   26.25
  -9  -5   1  586.85   25.74
  -9  -5   1  581.45   25.61
  -9   5   1  552.50   26.49
  -9  -5   2   15.13    5.20
  -9  -5   2   18.14    4.66
  -9   5   2   13.40    4.78
  -9   5   2   10.62    4.67
  -9  -5   3   21.57    6.25
  -9  -5   3   11.51    3.90
  -9   5   3   13.59    3.99
  -9   5   3   12.16    4.75
  -9  -5   4   43.74    7.10
  -9   5   4   31.35    6.17
  -9  -5   4   51.23    7.97
  -9   5   4   53.79    8.30
  -9  -5   5  638.23   27.26
  -9   5   5  613.90   28.10
  -9  -5   5  614.86   27.02
  -9   5   5  679.63   29.74
  -9  -5   6   21.35    5.28
  -9   5   6   24.73    5.37
  -9  -5   6   25.97    5.37
  -9   5   6   18.16    5.08
  -9  -5   7   69.98    9.13
  -9   5   7   64.58    9.81
  -9  -5   7  100.19   11.02
  -9   5   7   84.49   10.64
  -9  -5   8    4.60    2.78
  -9  -5   8    1.73    2.38
  -9   5   8   -1.38    1.61
  -9   5   8    1.15    2.93
  -9  -5   9   15.80    5.09
  -9  -5   9    8.14    3.81
  -9   5   9   14.88    4.07
  -9   5   9   10.31    4.14
  -9  -5  10   12.79    4.12
  -9  -5  10   26.08    5.58
  -9   5  10   10.63    3.05
  -9   5  10   17.25    4.79
  -9  -5  11  396.27   21.92
  -9   5  11  346.29   21.83
  -9  -5  11  365.60   21.96
  -9   5  11  399.51   23.93
  -9   5  12   45.95    8.39
  -9  -5  12   49.53    7.59
  -9  -5  12   60.02    8.88
  -9  -5  13   19.34    5.21
  -9  -5  13   17.71    4.63
  -9   5  13    7.49    3.81
  -9  -5  14   26.37    6.43
  -9  -5  14   30.54    6.88
  -9   5  14   22.72    5.83
  -9  -5  15  310.93   20.29
  -9   5  15  255.33   19.36
  -9  -5  15  309.51   20.71
  -9  -5  16   38.33    7.99
  -9  -5  16   30.52    6.16
  -9   5  16   33.26    6.86
  -9  -5  17   22.90    5.75
  -9   5  17   28.25    6.41
  -9  -5  18   -3.50    3.47
  -9  -5  19   17.02    5.75
  -9  -5  20    6.78    4.30
  -9  -5  21   99.37   12.58
  -9  -5  22   36.06    6.94
  -9  -5  23   18.84    6.16
  -9  -5  24    2.77    4.10
  -9   6 -23    0.92    4.05
  -9   6 -22    6.97    3.78
  -9   6 -21    2.23    3.12
  -9   6 -20    6.69    4.88
  -9   6 -20   12.11    8.11
  -9   6 -19   27.26    7.25
  -9   6 -19   22.34    5.64
  -9   6 -18   24.90    6.84
  -9   6 -18   26.36    7.41
  -9  -6 -17    7.38    3.03
  -9   6 -17    7.84    3.92
  -9   6 -16   48.08    8.49
  -9   6 -16   37.93    8.46
  -9   6 -15   89.16   11.40
  -9   6 -15   93.36   12.45
  -9  -6 -15   92.73   12.16
  -9  -6 -14   -1.88    2.00
  -9   6 -14    3.68    3.59
  -9   6 -14   -0.11    3.49
  -9  -6 -13   30.10    5.99
  -9   6 -13   35.96    8.04
  -9   6 -13   37.25    8.07
  -9  -6 -12    5.13    3.44
  -9   6 -12   12.99    3.41
  -9   6 -12   11.09    5.11
  -9  -6 -11    0.35    2.30
  -9   6 -11    2.76    2.18
  -9   6 -11   -2.04    2.59
  -9  -6 -10   32.56    6.97
  -9   6 -10   31.50    7.02
  -9   6 -10   26.05    7.32
  -9   6  -9   13.46    5.15
  -9  -6  -9   17.44    5.57
  -9   6  -9   12.63    5.09
  -9  -6  -8   70.46   10.02
  -9   6  -8   85.39   11.23
  -9   6  -8   81.63   10.84
  -9  -6  -7  116.07   12.56
  -9   6  -7   92.62   11.25
  -9   6  -7   96.97   11.70
  -9   6  -6    8.24    4.17
  -9  -6  -6    8.05    3.89
  -9   6  -6    3.00    3.34
  -9  -6  -5    5.91    3.45
  -9   6  -5   18.53    5.17
  -9  -6  -5   16.55    4.57
  -9   6  -5   12.15    5.20
  -9   6  -4   26.97    6.50
  -9  -6  -4    7.25    3.72
  -9  -6  -4   19.39    5.38
  -9   6  -4   18.98    5.81
  -9   6  -3   15.54    5.16
  -9  -6  -3   12.87    5.16
  -9  -6  -3   10.27    4.16
  -9   6  -3   12.77    4.07
  -9   6  -2    4.68    3.02
  -9  -6  -2    4.04    2.59
  -9  -6  -2    6.83    4.28
  -9   6  -2    4.41    3.14
  -9  -6  -1  100.08   10.95
  -9  -6  -1   64.30    8.86
  -9   6  -1   73.13   10.07
  -9   6  -1   81.41   10.67
  -9  -6   0  117.03   11.51
  -9  -6   0  139.29   13.11
  -9   6   0  150.60   14.03
  -9   6   0  125.31   13.23
  -9  -6   1   92.08   10.77
  -9  -6   1   93.28   10.79
  -9   6   1   71.46   10.11
  -9   6   1   68.27    9.42
  -9   6   2    5.80    3.59
  -9  -6   2    4.68    2.53
  -9  -6   2    5.13    3.19
  -9   6   2    5.18    4.10
  -9   6   3   11.29    4.51
  -9  -6   3   13.19    4.48
  -9  -6   3    8.32    4.50
  -9   6   3   12.43    4.33
  -9   6   4   14.62    4.72
  -9  -6   4   12.50    4.57
  -9  -6   4   10.95    3.96
  -9   6   4   21.16    6.49
  -9  -6   5    8.26    3.97
  -9   6   5   11.07    4.08
  -9  -6   5   11.40    3.42
  -9   6   5   10.28    5.13
  -9  -6   6   -5.42    3.46
  -9   6   6    2.30    2.99
  -9  -6   6    0.42    2.96
  -9   6   6    2.85    2.67
  -9   6   7   96.14   12.10
  -9  -6   7   69.26    9.31
  -9  -6   7  103.35   11.59
  -9   6   7   90.65   11.91
  -9   6   8   78.67   11.05
  -9  -6   8   78.55   10.10
  -9  -6   8   80.17   10.28
  -9   6   8   84.32   11.70
  -9  -6   9   15.82    4.34
  -9   6   9   13.78    4.57
  -9  -6   9   12.81    4.45
  -9   6   9   11.79    3.81
  -9  -6  10   38.89    7.35
  -9   6  10   20.70    5.65
  -9  -6  10   41.90    7.69
  -9   6  10   21.24    5.78
  -9  -6  11    7.92    3.80
  -9   6  11    1.30    2.75
  -9  -6  11    4.92    2.61
  -9   6  11    1.35    2.85
  -9  -6  12   10.64    4.06
  -9   6  12   10.94    5.63
  -9  -6  12   13.72    4.69
  -9   6  12   14.69    5.69
  -9  -6  13   22.59    5.49
  -9   6  13   30.10    7.02
  -9  -6  13   35.37    7.57
  -9   6  13   23.63    6.18
  -9  -6  14    5.96    4.75
  -9   6  14    7.47    4.30
  -9  -6  14    3.85    3.44
  -9   6  14   10.88    5.07
  -9   6  15   63.01   10.75
  -9  -6  15   90.47   10.95
  -9  -6  15   92.29   11.50
  -9   6  15   92.85   12.41
  -9  -6  16   30.07    6.42
  -9   6  16   29.01    6.78
  -9  -6  16   25.68    6.32
  -9  -6  17    4.42    3.05
  -9  -6  18   13.15    4.45
  -9  -6  19   35.67    7.58
  -9  -6  20   -1.08    3.15
  -9  -6  21    3.20    2.99
  -9  -6  22    4.26    3.00
  -9  -6  23   -0.56    2.71
  -9   7 -20   27.29    7.04
  -9   7 -20   23.21    8.22
  -9   7 -19    2.78    2.63
  -9   7 -19    4.62    4.62
  -9   7 -18    8.50    3.35
  -9   7 -18    6.84    4.45
  -9   7 -17   80.53   11.90
  -9   7 -17   59.43   10.23
  -9  -7 -16    7.05    4.98
  -9   7 -16    6.30    4.19
  -9   7 -16    0.17    2.62
  -9  -7 -15  265.76   21.16
  -9   7 -15  282.98   21.19
  -9   7 -15  280.67   22.14
  -9  -7 -14    0.72    3.01
  -9   7 -14    5.77    1.76
  -9   7 -14   -3.05    2.73
  -9  -7 -13   16.73    5.49
  -9   7 -13   27.12    7.04
  -9   7 -13   24.99    7.74
  -9  -7 -12    8.63    5.04
  -9   7 -12    8.06    5.06
  -9   7 -12    2.41    2.13
  -9  -7 -11  258.32   19.85
  -9   7 -11  284.52   21.39
  -9   7 -10   23.55    6.01
  -9  -7 -10   18.18    6.17
  -9   7 -10   22.45    6.48
  -9  -7  -9   77.81   10.82
  -9   7  -9   59.81    9.53
  -9   7  -9   58.13    9.24
  -9  -7  -8   22.29    6.20
   9  -7  -8   21.78    7.01
  -9   7  -8   17.68    5.53
  -9   7  -8   18.71    5.76
  -9   7  -7   12.49    5.01
  -9  -7  -7    7.93    3.90
   9  -7  -7   17.36    3.99
  -9   7  -7   14.12    3.93
  -9  -7  -6   98.32   12.01
   9  -7  -6   65.07   10.03
  -9   7  -6   74.80   11.09
  -9   7  -6   74.42   10.77
  -9  -7  -5  321.64   21.35
   9  -7  -5  348.02   21.82
  -9   7  -5  371.80   23.16
  -9   7  -5  358.49   23.39
  -9   7  -4   -1.98    2.18
  -9  -7  -4   -0.12    2.51
  -9  -7  -4    1.10    2.93
   9  -7  -4    0.82    3.65
  -9   7  -4    1.12    2.85
  -9  -7  -3   35.12    7.04
  -9  -7  -3   44.24    7.65
  -9   7  -3   35.55    8.24
  -9   7  -3   45.40    8.53
  -9   7  -2    2.49    2.79
  -9  -7  -2    0.82    1.60
  -9  -7  -2    5.23    3.02
  -9   7  -2    5.09    4.17
  -9  -7  -1  212.20   17.69
  -9   7  -1  186.62   16.63
  -9  -7  -1  188.82   15.80
  -9   7  -1  164.50   15.58
  -9  -7   0  371.70   22.18
  -9   7   0  328.06   22.40
  -9  -7   0  361.09   21.84
  -9   7   0  404.54   24.13
  -9  -7   1  185.54   15.96
  -9   7   1  172.97   16.11
  -9  -7   1  199.18   16.30
  -9   7   1  174.78   16.31
  -9   7   2    1.87    2.27
  -9  -7   2    3.29    2.53
  -9  -7   2    9.78    4.83
  -9   7   2    4.88    4.71
  -9  -7   3   37.08    7.22
  -9   7   3   52.94    8.61
  -9  -7   3   36.36    6.45
  -9   7   3   41.94    8.09
  -9   7   4    3.22    2.80
  -9  -7   4    4.20    4.28
  -9  -7   4   -0.45    1.51
  -9   7   4    2.19    1.93
  -9  -7   5  366.50   22.54
  -9   7   5  297.75   21.44
  -9  -7   5  307.87   20.62
  -9   7   5  360.19   23.09
  -9  -7   6   88.40   11.19
  -9   7   6   83.15   11.18
  -9  -7   6   91.59   11.74
  -9   7   6   79.98   11.16
  -9   7   7   16.62    4.72
  -9  -7   7    2.76    3.56
  -9  -7   7   17.58    4.80
  -9   7   7   11.23    5.71
  -9   7   8   11.63    4.72
  -9  -7   8   19.56    6.80
  -9  -7   8   12.79    5.21
  -9   7   8    9.07    5.83
  -9  -7   9   62.09    9.21
  -9  -7   9   75.28   10.46
  -9   7   9   58.97   10.24
  -9   7   9   72.16   10.44
  -9   7  10   16.65    5.92
  -9  -7  10   21.40    4.91
  -9  -7  10   16.25    4.83
  -9   7  10   13.79    4.97
  -9  -7  11  253.08   19.21
  -9  -7  11  269.97   20.23
  -9   7  11  294.28   22.46
  -9   7  11  308.84   22.16
  -9   7  12    8.09    5.32
  -9  -7  12    5.17    4.26
  -9  -7  12    9.74    4.88
  -9   7  12   -1.21    3.86
  -9   7  13   23.06    7.48
  -9  -7  13   24.31    6.47
  -9  -7  13   11.06    4.56
  -9   7  14   -1.79    3.67
  -9  -7  14    4.96    3.91
  -9  -7  14    2.69    4.82
  -9  -7  15  273.81   20.92
  -9  -7  15  286.52   21.64
  -9  -7  16   12.11    6.94
  -9  -7  16    7.67    5.28
  -9  -7  17   75.45   11.19
  -9  -7  18    5.46    4.69
  -9  -7  19    8.06    4.60
  -9  -7  20   15.13    6.86
  -9   8 -18   25.02    5.84
  -9   8 -18   14.53    6.83
  -9   8 -17    8.53    3.93
  -9   8 -17    3.63    5.23
  -9  -8 -16    7.67    5.27
  -9   8 -16    0.03    2.69
  -9   8 -16    3.81    2.89
  -9  -8 -15    5.92    4.75
  -9   8 -15    8.43    5.15
  -9   8 -15    9.25    5.92
  -9  -8 -14    9.22    3.31
  -9   8 -14    8.80    4.50
  -9   8 -14   10.60    5.08
  -9  -8 -13   -9.78    5.95
  -9   8 -13   -2.00    2.93
  -9   8 -13   -1.12    3.03
  -9  -8 -12    7.75    5.56
  -9   8 -12    6.08    2.13
  -9   8 -12    3.11    3.25
  -9  -8 -11    2.60    3.42
  -9   8 -11    6.43    3.03
  -9   8 -11    8.83    5.72
  -9  -8 -10   19.03    5.75
  -9   8 -10   12.02    6.68
  -9   8 -10    1.35    3.41
  -9  -8  -9    0.69    4.46
  -9   8  -9    4.23    5.07
  -9   8  -9    9.74    4.81
  -9  -8  -8   12.15    3.69
  -9   8  -8    7.14    3.30
  -9   8  -8    8.23    2.90
  -9  -8  -7    7.42    3.76
   9  -8  -7   12.85    4.82
  -9   8  -7   21.93    5.54
  -9   8  -7   12.66    4.58
  -9  -8  -6   49.73    8.46
   9  -8  -6   55.12    9.84
  -9   8  -6   47.91    8.99
  -9   8  -6   33.82    7.17
  -9  -8  -5    0.43    3.88
   9  -8  -5    3.50    2.60
  -9   8  -5    5.67    4.57
  -9   8  -5   13.51    5.44
  -9  -8  -4    3.07    2.37
  -9   8  -4    0.71    3.06
  -9   8  -4    5.70    2.10
  -9   8  -3   18.78    5.62
  -9  -8  -3   16.91    5.42
  -9  -8  -3   25.73    7.79
   9  -8  -3   19.24    5.29
  -9   8  -3   10.58    3.12
  -9   8  -2   27.53    6.62
  -9  -8  -2   30.26    6.57
  -9  -8  -2   21.84    6.09
  -9   8  -2   36.90    7.42
   9  -8  -2   40.65    7.94
  -9   8  -1    0.55    2.86
  -9  -8  -1    5.96    3.13
  -9  -8  -1    5.50    3.44
   9  -8  -1    3.37    2.59
  -9   8  -1   -1.03    3.08
  -9   8   0   30.40    8.07
  -9  -8   0   28.76    6.34
  -9  -8   0   22.33    6.20
   9  -8   0   12.19    5.71
  -9   8   0   41.89    9.24
  -9   8   1    0.72    2.14
  -9  -8   1    4.86    3.87
   9  -8   1    1.34    2.78
  -9  -8   1   -1.48    2.16
  -9   8   1   -0.71    4.07
  -9   8   2   30.59    6.99
  -9  -8   2   31.70    7.15
   9  -8   2   41.33    7.51
  -9  -8   2   37.55    7.99
  -9   8   2   37.35    7.65
  -9   8   3   13.95    5.19
  -9  -8   3   16.48    4.97
   9  -8   3    2.19    3.47
  -9  -8   3   13.99    5.07
  -9   8   3   11.55    4.64
  -9   8   4    8.31    2.93
  -9  -8   4    5.15    3.94
   9  -8   4    3.95    4.33
  -9  -8   4    7.15    3.92
  -9   8   4    8.29    4.47
  -9   8   5    4.66    4.23
  -9  -8   5    5.83    4.37
   9  -8   5    7.93    3.72
  -9  -8   5    3.14    3.05
  -9   8   5    5.56    3.48
  -9   8   6   55.71    9.39
  -9  -8   6   43.93    7.77
   9  -8   6   45.46    8.81
  -9  -8   6   45.06    8.15
  -9   8   6   55.16    9.52
  -9   8   7   12.27    6.13
  -9  -8   7   16.20    5.12
   9  -8   7    7.32    3.66
  -9  -8   7   17.01    5.71
  -9   8   8   11.92    6.22
  -9  -8   8    8.18    4.03
  -9  -8   8    6.16    2.22
  -9   8   9    5.46    4.51
  -9  -8   9   -0.44    2.84
  -9  -8   9   -0.23    1.61
  -9   8  10   14.51    6.26
  -9  -8  10    9.84    2.28
  -9  -8  10    7.19    3.40
  -9   8  11   -0.71    2.89
  -9  -8  11    5.72    3.49
   9  -8  11   10.65    4.82
  -9  -8  11    9.18    3.37
  -9   8  12   13.51    4.92
  -9  -8  12    1.62    3.83
   9  -8  12   11.80    5.47
  -9  -8  12    4.41    4.22
  -9   8  13   -2.54    3.98
  -9  -8  13   -0.47    3.26
  -9  -8  13    1.43    3.76
   9  -8  13   -1.15    3.28
  -9  -8  14    7.33    4.35
  -9  -8  14   15.63    6.83
   9  -8  14    2.04    3.43
  -9  -8  15    6.81    3.29
   9  -8  15    7.36    3.52
  -9  -8  16    3.48    4.24
  -9  -8  16    8.05    4.24
   9  -8  16    4.41    3.34
  -9  -8  17    4.90    5.17
  -9  -8  17   -0.18    3.14
   9  -8  17   -0.28    3.46
  -9  -8  18   26.58    7.19
   9  -8  18    8.13    5.47
  -9  -9 -14    1.88    2.75
  -9   9 -14    8.28    5.40
  -9   9 -14   -1.19    3.49
  -9  -9 -13    7.13    5.52
  -9   9 -13    2.74    2.33
  -9  -9 -12    5.35    4.67
  -9   9 -12   10.68    6.21
  -9   9 -12    1.88    2.29
  -9  -9 -11   86.54   12.55
  -9   9 -11  101.91   13.34
  -9   9 -11  107.72   13.85
  -9  -9 -10   89.63   12.49
  -9   9 -10   94.46   12.77
  -9   9 -10   72.59   11.75
  -9  -9  -9   68.77   10.58
  -9   9  -9   79.62   11.32
  -9   9  -9   73.73   11.70
  -9  -9  -8   -3.46    4.21
  -9   9  -8   -2.85    4.01
  -9   9  -8   -1.01    3.39
  -9  -9  -7   64.88   10.55
  -9   9  -7   45.06    9.75
  -9   9  -7   82.40   12.22
  -9  -9  -6   55.33    9.54
   9  -9  -6   63.83   10.93
  -9   9  -6   67.87   11.15
  -9   9  -6   49.98    8.85
  -9  -9  -5  215.02   18.80
   9  -9  -5  274.59   21.26
  -9   9  -5  253.70   21.44
  -9   9  -5  294.45   22.28
  -9  -9  -4   12.77    4.68
   9  -9  -4    9.24    6.29
  -9   9  -4    0.45    4.40
  -9   9  -4   11.86    6.05
  -9  -9  -3   -0.13    2.80
  -9   9  -3   -3.12    4.88
   9  -9  -3    0.37    2.16
  -9   9  -3   -6.86    4.61
  -9  -9  -2   -0.79    1.89
   9  -9  -2   -2.05    2.81
  -9   9  -2   -0.45    3.50
  -9  -9  -1  129.33   13.84
   9  -9  -1  114.76   13.18
  -9   9  -1  115.50   13.51
  -9  -9  -1  122.81   14.50
  -9   9  -1  108.94   13.38
  -9  -9   0  102.91   13.14
   9  -9   0   95.47   12.56
  -9   9   0  105.33   13.50
  -9   9   0   89.70   12.50
  -9  -9   0   99.50   12.20
  -9  -9   1  119.64   13.22
   9  -9   1  129.65   14.58
  -9   9   1  105.60   13.88
  -9  -9   1  132.02   14.40
  -9   9   2   -1.29    2.21
  -9  -9   2    7.08    5.10
   9  -9   2    0.38    2.38
  -9  -9   2    3.61    4.09
  -9   9   3    0.81    3.11
  -9  -9   3    2.75    2.47
   9  -9   3   -1.18    2.34
  -9  -9   3   -3.39    3.58
  -9   9   4   14.81    4.99
  -9  -9   4    7.95    4.26
   9  -9   4    8.37    3.97
  -9  -9   4    9.77    2.91
  -9  -9   5  270.31   20.78
   9  -9   5  245.10   20.22
  -9   9   5  316.07   23.47
  -9  -9   5  276.03   21.05
  -9   9   6   65.85   10.95
  -9  -9   6   68.07   10.97
   9  -9   6   64.92   10.45
  -9  -9   6   63.16    9.99
  -9  -9   7   76.77   10.80
   9  -9   7   47.80    9.62
  -9   9   7   66.67   11.35
  -9  -9   7   68.04   10.79
  -9   9   8    9.79    6.00
  -9  -9   8   -1.81    3.47
   9  -9   8   -0.31    2.32
  -9  -9   8    2.04    3.88
  -9  -9   9   81.81   11.55
   9  -9   9   61.01   10.51
  -9   9   9   69.57   11.65
  -9  -9   9   68.04   11.48
  -9  -9  10  118.25   13.54
   9  -9  10  104.36   12.95
  -9   9  10   92.80   13.67
  -9  -9  10  108.87   13.59
  -9   9  11   65.86   11.97
  -9  -9  11  118.43   13.82
   9  -9  11  105.88   13.86
  -9  -9  11   97.05   13.36
  -9  -9  12   -3.70    4.23
   9  -9  12    4.79    4.00
  -9  -9  12    4.01    3.15
   9  -9  13   14.34    6.50
  -9  -9  13    9.22    3.60
  -9  -9  13    8.62    4.55
  -9  -9  14   -1.89    4.90
   9  -9  14    1.28    2.30
  -9  -9  14   -2.09    2.99
  -9 -10  -8   87.29   13.25
  -9  10  -8   98.76   13.91
  -9  10  -8   75.77   12.57
  -9 -10  -7   24.73    7.63
  -9  10  -7   21.14    7.48
  -9  10  -7   22.05    7.03
  -9 -10  -6  161.89   16.41
  -9  10  -6  138.80   16.73
  -9 -10  -5   39.14    9.41
   9 -10  -5   36.34    8.00
  -9  10  -5   27.67    6.95
  -9 -10  -4    8.49    4.22
   9 -10  -4    8.48    3.93
  -9  10  -4   14.74    6.79
  -9 -10  -3    4.38    2.93
   9 -10  -3   -4.49    2.12
  -9  10  -3    5.15    4.41
  -9 -10  -2   53.82    9.40
   9 -10  -2   75.10   11.25
  -9  10  -2   51.93    9.79
   9 -10  -1   12.66    5.29
  -9  10  -1    8.29    5.63
  -9 -10   0  170.77   17.17
   9 -10   0  171.11   17.55
  -9  10   0  155.57   17.16
  -9 -10   1   32.78    7.71
   9 -10   1   27.11    7.25
  -9 -10   1   19.27    5.56
  -9  10   1   16.53    5.29
  -9 -10   2   77.58   10.93
   9 -10   2   68.92   10.93
  -9 -10   2   58.91   10.13
  -9  10   2   88.68   12.71
  -9 -10   3    5.83    4.67
   9 -10   3    2.49    2.73
  -9 -10   3   -0.27    2.53
  -9  10   3    5.47    4.37
  -9 -10   4    5.49    3.82
   9 -10   4    9.59    3.98
  -9 -10   4    4.60    3.25
  -9  10   4    5.66    4.46
  -9 -10   5   46.55    9.13
   9 -10   5   42.44    9.61
  -9 -10   5   40.01    9.16
  -9  10   5   26.89    7.12
  -9 -10   6  168.73   16.82
   9 -10   6  110.90   14.06
  -9  10   6  132.24   15.58
  -9 -10   6  143.76   15.92
  -9 -10   7    5.74    4.12
   9 -10   7    7.60    4.91
  -9 -10   7   16.96    5.71
  -9  10   7    5.60    4.33
  -9 -10   8  104.23   12.94
   9 -10   8   88.03   12.27
  -9 -10   8   78.81   12.30
  -9  10   8   69.20   11.35
 -10   0 -24   77.70   11.07
 -10   0 -23  137.82   15.42
 -10   0 -22   62.04    9.51
 -10   0 -21  248.82   19.75
 -10   0 -20  112.99   12.70
 -10   0 -19   88.56   11.68
 -10   0 -18  166.88   14.89
 -10   0 -17  306.02   20.16
 -10   0 -16  135.89   13.09
 -10   0 -15  412.25   22.73
 -10   0 -14  179.33   15.05
 -10   0 -13  224.90   16.57
 -10   0 -12  327.15   18.26
 -10   0 -12  330.97   20.29
 -10   0 -11  380.41   19.83
 -10   0 -11  404.60   21.81
 -10   0 -10  101.68    9.92
 -10   0 -10  101.52   11.04
 -10   0  -9  271.47   16.35
 -10   0  -9  289.24   18.22
 -10   0  -8  270.74   16.35
 -10   0  -8  256.62   17.16
 -10   0  -7  158.06   12.33
 -10   0  -7  139.73   12.33
 -10   0  -7  148.61   12.46
 -10   0  -6   68.04    8.14
 -10   0  -6   46.30    7.41
 -10   0  -6   57.55    7.87
 -10   0  -5  277.13   16.41
 -10   0  -5  272.54   17.24
 -10   0  -5  311.40   17.79
 -10   0  -4  348.99   18.20
 -10   0  -4  350.49   19.38
 -10   0  -4  309.59   17.56
 -10   0  -3  251.84   15.45
 -10   0  -3  270.95   17.17
 -10   0  -3  279.12   16.55
 -10   0  -2  234.93   14.98
 -10   0  -2  236.09   15.96
 -10   0  -2  227.25   14.74
 -10   0  -1  164.34   12.56
 -10   0  -1  170.11   13.18
 -10   0  -1  176.26   12.77
 -10   0   0    2.95    2.54
 -10   0   0    4.43    2.35
 -10   0   0    1.48    2.16
 -10   0   1  163.39   12.88
 -10   0   1  172.04   13.41
 -10   0   1  152.95   11.85
 -10   0   2  210.59   14.59
 -10   0   2  189.01   13.13
 -10   0   3  279.69   17.17
 -10   0   3  256.01   15.21
 -10   0   4  314.22   18.16
 -10   0   4  367.47   18.23
 -10   0   5  332.32   18.69
 -10   0   5  282.60   15.83
 -10   0   6   55.07    7.54
 -10   0   6   62.43    7.38
 -10   0   7  134.81   11.88
 -10   0   7  152.43   11.54
 -10   0   8  284.30   18.13
 -10   0   8  247.66   14.65
 -10   0   9  268.75   18.06
 -10   0   9  264.24   14.91
 -10   0  10  111.47   11.55
 -10   0  10  111.41    9.59
 -10   0  11  368.05   21.04
 -10   0  11  406.98   18.67
 -10   0  12  322.77   20.11
 -10   0  12  328.96   16.02
 -10   0  13  243.01   17.46
 -10   0  14  210.37   16.31
 -10   0  15  373.36   22.47
 -10   0  16   87.49   11.52
 -10   0  17  333.85   21.42
 -10   0  18  233.29   18.45
 -10   0  19   90.85   12.37
 -10   0  20   83.26   11.70
 -10   0  21  294.46   21.82
 -10   0  22   61.54   10.06
 -10   0  23  144.73   15.70
 -10   0  24   87.61   12.58
 -10   1 -27    2.86    3.73
 -10   1 -26    1.85    3.69
 -10   1 -25    7.40    5.03
 -10   1 -24    4.83    5.06
 -10   1 -23    7.73    4.89
 -10   1 -22    6.65    4.27
 -10   1 -21   12.83    5.49
 -10  -1 -20    8.74    3.52
 -10   1 -20   12.33    4.16
 -10  -1 -19    2.69    3.66
 -10   1 -19   11.53    4.20
 -10  -1 -18   12.30    4.29
 -10   1 -18   12.66    5.81
 -10  -1 -17   22.16    5.62
 -10   1 -17   14.48    5.18
 -10  -1 -16    5.80    2.56
 -10   1 -16   13.43    5.26
 -10  -1 -15   22.09    5.23
 -10   1 -15   29.47    6.41
 -10   1 -14    6.48    4.81
 -10  -1 -14   -1.19    3.25
 -10   1 -14    2.32    2.82
 -10   1 -13   31.11    5.77
 -10   1 -13   44.39    7.63
 -10  -1 -13   41.34    7.19
 -10   1 -12   40.84    6.83
 -10  -1 -12   37.97    6.48
 -10   1 -12   38.12    7.32
 -10  -1 -12   36.15    6.30
 -10   1 -11   -0.39    1.75
 -10  -1 -11    0.85    1.48
 -10  -1 -11   -0.10    1.96
 -10   1 -11    0.97    2.10
 -10  -1 -11    0.81    2.11
 -10   1 -10    9.89    3.90
 -10  -1 -10    9.41    2.86
 -10   1 -10    5.01    3.67
 -10  -1 -10    7.50    2.89
 -10  -1 -10   11.68    4.31
 -10   1  -9   10.61    4.08
 -10  -1  -9   10.22    2.91
 -10   1  -9   14.01    4.20
 -10  -1  -9   10.63    3.44
 -10  -1  -9   14.89    3.93
 -10   1  -8    1.21    1.91
 -10  -1  -8    4.15    2.19
 -10   1  -8    1.06    1.63
 -10  -1  -8    1.65    1.23
 -10  -1  -8    2.50    1.35
 -10   1  -7   45.55    6.79
 -10  -1  -7   43.24    6.36
 -10   1  -7   52.43    7.63
 -10  -1  -7   48.40    7.44
 -10  -1  -7   54.01    7.62
 -10   1  -6   24.37    5.25
 -10   1  -6   22.94    4.97
 -10  -1  -6   29.69    5.58
 -10  -1  -6   26.80    4.68
 -10  -1  -6   20.34    4.88
 -10   1  -5   -0.77    1.67
 -10   1  -5    1.15    2.97
 -10  -1  -5   -0.66    1.79
 -10  -1  -5    0.22    1.39
 -10  -1  -5   -0.10    1.71
 -10  -1  -4    2.12    3.00
 -10   1  -4    2.27    2.17
 -10   1  -4   10.31    3.40
 -10  -1  -4    7.03    3.23
 -10  -1  -4    3.00    2.36
 -10  -1  -3    2.56    2.76
 -10   1  -3    5.71    3.30
 -10   1  -3    3.44    1.45
 -10  -1  -3    9.29    3.45
 -10  -1  -3    4.84    2.51
 -10  -1  -2    5.35    1.81
 -10  -1  -2   12.97    3.94
 -10   1  -2   16.17    4.22
 -10   1  -2   15.03    4.06
 -10  -1  -2   10.33    4.12
 -10  -1  -1   24.80    5.12
 -10   1  -1   33.07    5.76
 -10   1  -1   47.13    7.24
 -10  -1  -1   27.61    5.14
 -10  -1  -1   42.16    6.51
 -10   1   0   33.84    5.96
 -10  -1   0   27.50    5.55
 -10   1   0   19.36    5.28
 -10  -1   0   30.78    5.83
 -10  -1   0   39.08    6.22
 -10  -1   1   27.78    5.23
 -10   1   1   36.05    5.93
 -10   1   1   33.02    6.06
 -10  -1   1   36.06    5.64
 -10  -1   2   11.71    4.15
 -10  -1   2    9.88    3.67
 -10   1   2    7.03    2.75
 -10   1   2   10.36    3.96
 -10  -1   3    6.13    2.43
 -10  -1   3    3.26    2.26
 -10   1   3    4.37    2.99
 -10  -1   4    5.39    2.29
 -10  -1   4    4.57    2.28
 -10   1   4    7.61    3.33
 -10  -1   5    1.15    1.24
 -10  -1   5    1.28    1.69
 -10   1   5    2.89    3.15
 -10  -1   6   39.35    6.75
 -10  -1   6   31.47    5.38
 -10   1   6   23.87    5.49
 -10  -1   7   56.22    7.56
 -10  -1   7   41.68    6.05
 -10   1   7   36.53    6.07
 -10  -1   8    2.40    1.06
 -10   1   8    1.73    1.87
 -10  -1   9   18.86    4.21
 -10  -1   9   16.29    5.30
 -10   1   9   13.19    4.48
 -10  -1  10    9.42    3.51
 -10  -1  10    7.99    3.77
 -10   1  10    5.99    2.97
 -10   1  11   -0.85    3.60
 -10  -1  11    2.58    2.18
 -10  -1  11    2.67    2.58
 -10   1  12   36.84    6.85
 -10  -1  12   36.30    6.24
 -10  -1  12   29.67    5.47
 -10  -1  13   39.08    7.08
 -10   1  13   42.72    7.43
 -10  -1  13   34.49    5.99
 -10   1  14    4.09    3.41
 -10  -1  14    1.09    2.25
 -10   1  15   19.29    5.09
 -10  -1  15   22.63    5.98
 -10   1  16    8.77    4.40
 -10  -1  16   13.21    5.17
 -10   1  17    7.27    3.26
 -10  -1  17   13.77    5.07
 -10   1  18   15.12    5.32
 -10  -1  18    8.97    3.96
 -10  -1  19   11.99    3.45
 -10   1  19   19.72    5.83
 -10  -1  20    7.88    3.22
 -10   1  20   15.55    5.65
 -10  -1  21   26.65    6.81
 -10   1  21    6.44    3.45
 -10  -1  22   16.99    5.49
 -10   1  22   10.39    5.39
 -10  -1  23    5.86    3.90
 -10   1  23   -4.08    2.36
 -10  -1  24    5.20    3.09
 -10  -1  25   11.79    4.93
 -10   2 -26   20.96    6.08
 -10   2 -25   53.67   10.03
 -10   2 -24   60.52   10.19
 -10   2 -23   47.91    9.50
 -10   2 -22   42.87    8.62
 -10   2 -21  100.32   12.04
 -10   2 -20   23.32    6.49
 -10   2 -19   54.69    9.00
 -10   2 -18  166.15   15.46
 -10   2 -17  184.90   16.01
 -10  -2 -17  206.38   16.79
 -10   2 -16   71.86    9.94
 -10  -2 -16   68.30    9.74
 -10  -2 -15  223.90   16.55
 -10   2 -15  192.13   16.06
 -10   2 -15  223.45   16.97
 -10  -2 -15  209.79   16.87
 -10  -2 -14  132.90   11.89
 -10   2 -14  115.08   12.33
 -10   2 -14  140.99   13.63
 -10  -2 -14  141.53   13.77
 -10  -2 -13   71.41    9.10
 -10   2 -13   76.99   10.01
 -10  -2 -13   86.76   10.23
 -10   2 -13   77.15    9.84
 -10  -2 -12  214.70   15.62
 -10   2 -12  250.97   18.15
 -10  -2 -12  229.52   16.79
 -10   2 -12  250.18   17.57
 -10   2 -11  556.21   25.39
 -10  -2 -11  508.15   23.68
 -10  -2 -11  572.41   25.68
 -10   2 -10  131.71   12.63
 -10  -2 -10  132.63   11.53
 -10  -2 -10  116.08   11.26
 -10   2 -10  130.46   12.75
 -10  -2 -10  102.95   10.81
 -10   2  -9  183.60   14.75
 -10  -2  -9  188.20   12.85
 -10   2  -9  196.13   15.40
 -10  -2  -9  204.42   14.69
 -10  -2  -9  208.48   15.51
 -10   2  -8  203.46   15.29
 -10  -2  -8  232.56   14.58
 -10   2  -8  243.62   17.07
 -10  -2  -8  245.89   15.74
 -10  -2  -8  242.77   16.53
 -10   2  -7  109.23   10.81
 -10  -2  -7  111.52    9.91
 -10   2  -7  105.74   11.11
 -10  -2  -7  102.29    9.99
 -10  -2  -7  117.02   11.52
 -10   2  -6   60.64    8.15
 -10  -2  -6   85.35    8.86
 -10   2  -6   78.71    9.89
 -10  -2  -6   88.50    9.64
 -10  -2  -6   87.62    9.35
 -10   2  -5  292.92   18.24
 -10  -2  -5  331.13   17.27
 -10   2  -5  345.59   20.31
 -10  -2  -5  387.58   19.66
 -10  -2  -5  379.45   20.09
 -10   2  -4  157.72   13.21
 -10   2  -4  161.42   13.70
 -10  -2  -4  175.04   12.80
 -10  -2  -4  154.85   12.30
 -10  -2  -4  185.29   13.86
 -10   2  -3  260.02   16.46
 -10   2  -3  271.58   18.04
 -10  -2  -3  268.87   16.19
 -10  -2  -3  265.36   15.90
 -10  -2  -3  262.32   16.40
 -10   2  -2  430.34   21.62
 -10   2  -2  477.32   23.74
 -10  -2  -2  460.22   21.68
 -10  -2  -2  465.27   21.35
 -10  -2  -2  430.85   21.22
 -10   2  -1  389.20   20.46
 -10   2  -1  407.79   21.64
 -10  -2  -1  435.22   21.04
 -10  -2  -1  386.46   19.51
 -10  -2  -1  456.62   21.36
 -10   2   0   63.07    8.45
 -10   2   0   53.15    7.76
 -10  -2   0   45.57    6.70
 -10  -2   0   56.75    7.65
 -10   2   1  375.70   20.32
 -10   2   1  365.88   20.56
 -10  -2   1  373.98   19.43
 -10  -2   1  394.03   19.40
 -10  -2   2  440.77   20.99
 -10   2   2  473.03   22.73
 -10   2   2  425.66   22.27
 -10  -2   2  473.45   21.60
 -10  -2   3  262.50   16.79
 -10   2   3  263.57   17.13
 -10   2   3  260.44   17.39
 -10  -2   3  290.95   16.69
 -10  -2   4  165.89   13.24
 -10   2   4  155.79   13.10
 -10  -2   4  193.60   13.83
 -10  -2   5  329.59   18.88
 -10   2   5  355.47   19.57
 -10  -2   5  345.62   18.60
 -10  -2   6   91.29   10.07
 -10   2   6   80.19    9.27
 -10  -2   6   69.33    8.20
 -10  -2   7  115.81   11.24
 -10   2   7   90.79   10.16
 -10  -2   7  104.06   10.22
 -10   2   8  195.47   15.14
 -10  -2   8  216.64   14.58
 -10  -2   9  182.62   14.70
 -10   2   9  178.66   14.68
 -10  -2   9  201.70   14.08
 -10  -2  10  122.73   12.09
 -10   2  10  116.50   12.11
 -10  -2  10  117.61   10.73
 -10  -2  11  563.03   25.74
 -10   2  11  573.26   26.37
 -10  -2  11  564.62   23.35
 -10  -2  12  249.15   17.24
 -10   2  12  243.36   17.28
 -10  -2  12  231.94   15.00
 -10  -2  13   67.35    9.29
 -10   2  13   90.42   10.77
 -10  -2  13   79.99    9.08
 -10  -2  14  128.70   13.56
 -10   2  14  139.02   13.62
 -10  -2  14  128.25   11.34
 -10  -2  15  228.46   17.59
 -10   2  15  209.64   17.07
 -10  -2  16   76.11   10.61
 -10   2  16   43.17    7.85
 -10  -2  17  196.16   17.22
 -10   2  17  204.27   16.99
 -10  -2  18  165.31   15.66
 -10   2  18  161.79   15.61
 -10  -2  19   56.65    9.48
 -10   2  19   47.33    8.67
 -10  -2  20   36.45    7.75
 -10   2  20   23.54    6.39
 -10  -2  21   85.22   11.97
 -10   2  21  100.44   13.14
 -10  -2  22   39.94    8.67
 -10  -2  23   38.44    8.69
 -10  -2  24   65.46   11.03
 -10  -2  25   54.91   10.44
 -10  -2  26   15.43    4.31
 -10   3 -26    2.56    2.81
 -10   3 -25    2.53    2.71
 -10   3 -24    6.37    4.25
 -10   3 -23    9.48    4.84
 -10   3 -22    8.84    5.03
 -10   3 -21    4.63    4.70
 -10   3 -20   -0.90    2.74
 -10  -3 -19   -1.89    3.89
 -10   3 -19    0.13    1.75
 -10   3 -18   -0.93    2.65
 -10  -3 -18    0.16    2.39
 -10   3 -17    1.21    2.13
 -10  -3 -17    0.45    2.07
 -10   3 -16   15.79    5.15
 -10  -3 -16   10.37    3.46
 -10   3 -16   11.92    4.77
 -10   3 -15    0.02    2.48
 -10   3 -15   -3.68    2.73
 -10  -3 -15    0.30    2.41
 -10   3 -14    2.24    2.56
 -10   3 -14    1.34    2.96
 -10  -3 -14    1.99    1.53
 -10  -3 -13   28.00    6.46
 -10   3 -13   16.15    5.39
 -10   3 -13   34.76    6.78
 -10   3 -12    1.61    1.72
 -10   3 -12    5.57    2.92
 -10  -3 -11    4.58    3.36
 -10   3 -11    1.75    1.32
 -10   3 -11    1.62    2.80
 -10  -3 -10   22.66    5.01
 -10   3 -10   25.04    5.14
 -10   3 -10   13.84    4.63
 -10  -3  -9    6.74    2.75
 -10   3  -9    7.84    2.99
 -10   3  -9   11.06    4.83
 -10  -3  -9   14.91    4.70
 -10  -3  -8    0.92    1.65
 -10  -3  -8    3.05    3.15
 -10   3  -8   -0.01    2.00
 -10   3  -8   -0.62    2.80
 -10  -3  -8   -1.46    2.33
 -10   3  -7   58.87    8.86
 -10   3  -7   56.99    8.77
 -10  -3  -7   48.91    7.05
 -10  -3  -7   41.00    6.29
 -10  -3  -7   37.82    6.68
 -10  -3  -6   17.48    4.29
 -10  -3  -6   21.99    4.63
 -10   3  -6   12.57    3.86
 -10   3  -6   20.03    5.27
 -10  -3  -6   18.53    4.79
 -10  -3  -5    4.01    2.91
 -10  -3  -5    3.12    1.78
 -10   3  -5    3.27    2.42
 -10   3  -5    0.67    1.72
 -10  -3  -5    3.42    3.26
 -10  -3  -4   14.84    3.37
 -10  -3  -4   18.48    4.45
 -10   3  -4   15.65    4.70
 -10   3  -4   19.47    5.13
 -10  -3  -4   16.24    4.47
 -10  -3  -3    3.09    2.56
 -10   3  -3    4.65    3.84
 -10  -3  -3    4.90    2.84
 -10   3  -3    0.50    2.55
 -10  -3  -3    2.64    1.57
 -10  -3  -2    4.80    2.78
 -10   3  -2    7.64    3.39
 -10  -3  -2    4.39    2.07
 -10   3  -2    9.92    3.89
 -10  -3  -2   12.30    3.62
 -10  -3  -1   20.98    4.79
 -10   3  -1   18.57    4.41
 -10  -3  -1   25.06    5.06
 -10   3  -1   21.43    5.71
 -10  -3   0    6.34    4.08
 -10   3   0    0.22    2.27
 -10  -3   0    6.39    3.35
 -10   3   0    3.78    3.70
 -10  -3   1   29.65    5.75
 -10   3   1   16.97    4.95
 -10  -3   1   29.16    5.46
 -10   3   1   32.27    6.32
 -10  -3   2   15.95    4.09
 -10   3   2    5.49    2.89
 -10  -3   2   15.66    4.59
 -10   3   2    7.57    3.71
 -10  -3   3    3.66    2.85
 -10   3   3    5.79    3.66
 -10  -3   3    1.55    2.40
 -10   3   3    0.38    2.53
 -10  -3   4   19.25    3.73
 -10   3   4   14.33    4.53
 -10  -3   4   17.56    4.25
 -10   3   4   18.17    4.50
 -10  -3   5    0.08    2.51
 -10   3   5    3.39    2.26
 -10  -3   5    2.16    2.17
 -10   3   5    5.58    3.65
 -10  -3   6   18.28    5.44
 -10   3   6   22.80    5.11
 -10  -3   6   19.80    5.63
 -10  -3   7   45.98    7.77
 -10  -3   7   47.23    7.50
 -10   3   7   39.25    6.97
 -10  -3   8    0.60    2.47
 -10   3   8    1.42    2.10
 -10  -3   8    0.02    2.03
 -10  -3   9    5.65    3.88
 -10   3   9   13.83    4.50
 -10  -3   9    4.58    2.73
 -10  -3  10   22.47    5.97
 -10   3  10   24.46    5.91
 -10  -3  10   23.27    4.84
 -10  -3  11    2.36    3.24
 -10   3  11    4.82    3.29
 -10  -3  11    3.70    3.00
 -10  -3  12    4.71    3.28
 -10   3  12    8.19    4.51
 -10  -3  12   11.08    4.19
 -10  -3  13    8.22    2.62
 -10   3  13   21.31    5.25
 -10  -3  13   19.52    5.43
 -10  -3  14    0.05    3.78
 -10   3  14    1.18    2.67
 -10  -3  14    5.15    4.29
 -10   3  15   -0.38    2.71
 -10  -3  15   -0.41    2.97
 -10   3  16   16.84    5.59
 -10  -3  16   15.97    4.48
 -10   3  17    1.41    3.57
 -10  -3  17    2.56    2.54
 -10   3  18    0.16    2.86
 -10  -3  18    2.70    3.20
 -10   3  19   -1.24    3.75
 -10  -3  19   -1.89    3.64
 -10  -3  20    3.02    3.10
 -10   3  20    5.00    3.92
 -10  -3  21   -0.11    2.11
 -10  -3  22    4.93    4.69
 -10  -3  23    5.32    2.68
 -10  -3  24    7.06    4.56
 -10  -3  25    2.75    4.81
 -10  -3  26    2.71    3.00
 -10   4 -25   46.97    8.99
 -10   4 -24   91.73   13.07
 -10   4 -23   20.79    6.50
 -10   4 -22   27.45    7.79
 -10   4 -21   53.35   10.66
 -10   4 -20   26.22    6.87
 -10   4 -19   40.79    8.30
 -10  -4 -19   51.57    9.37
 -10   4 -18  112.00   13.06
 -10  -4 -18  132.16   14.33
 -10   4 -17  111.67   12.78
 -10   4 -17  117.10   13.28
 -10  -4 -17  121.04   13.84
 -10   4 -16   63.60    9.62
 -10   4 -16   49.37    9.35
 -10  -4 -16   59.86    9.49
 -10   4 -15  151.50   14.98
 -10   4 -15  171.42   16.09
 -10  -4 -15  160.84   14.76
 -10   4 -14  126.55   13.40
 -10   4 -14  125.86   13.78
 -10  -4 -14  120.28   12.97
 -10   4 -13   64.60   10.61
 -10   4 -13   66.36    9.97
 -10  -4 -13   84.51   11.00
 -10   4 -12  137.73   14.00
 -10   4 -12  157.11   14.55
 -10  -4 -12  160.87   14.83
 -10   4 -11  406.77   23.41
 -10   4 -11  367.98   22.78
 -10  -4 -11  376.15   22.25
 -10   4 -10  109.76   12.33
 -10   4 -10  103.26   11.95
 -10  -4 -10  106.73   11.82
 -10   4  -9   92.12   11.19
 -10   4  -9  105.28   11.85
 -10  -4  -9   89.06   10.73
 -10   4  -8  126.13   12.94
 -10   4  -8  164.67   14.84
 -10  -4  -8  126.27   12.90
 -10  -4  -7   41.40    7.24
 -10   4  -7   35.43    6.74
 -10   4  -7   49.21    8.19
 -10  -4  -7   42.19    6.52
 -10   4  -6   44.99    7.56
 -10  -4  -6   40.27    6.93
 -10   4  -6   30.79    6.45
 -10  -4  -6   35.44    5.87
 -10  -4  -5  211.00   15.79
 -10   4  -5  270.90   19.01
 -10  -4  -5  255.42   15.98
 -10   4  -5  232.51   17.52
 -10  -4  -4   80.52    9.56
 -10   4  -4   85.57   10.49
 -10  -4  -4   83.87    9.88
 -10   4  -4   82.72   10.65
 -10  -4  -3   74.47    9.15
 -10   4  -3  102.34   11.43
 -10  -4  -3   75.60    8.70
 -10   4  -3   87.14   10.64
 -10  -4  -3   82.52    8.96
 -10  -4  -2  305.90   18.81
 -10   4  -2  330.60   20.15
 -10  -4  -2  273.28   17.04
 -10   4  -2  343.95   21.11
 -10  -4  -2  274.01   16.16
 -10   4  -1  327.84   20.58
 -10  -4  -1  328.86   18.50
 -10   4  -1  346.10   21.25
 -10  -4   0  154.62   13.68
 -10   4   0  135.18   13.30
 -10  -4   0  149.44   13.26
 -10   4   0  157.46   14.32
 -10  -4   1  341.31   19.96
 -10   4   1  311.75   19.66
 -10  -4   1  322.48   19.14
 -10   4   1  323.24   20.51
 -10  -4   2  333.78   19.64
 -10   4   2  310.27   19.94
 -10  -4   2  288.00   18.19
 -10   4   2  280.50   18.92
 -10  -4   3   97.33   10.58
 -10   4   3  100.25   11.47
 -10  -4   3   87.72   10.01
 -10   4   3   89.00   10.61
 -10  -4   4   93.83   10.47
 -10   4   4   97.12   11.19
 -10  -4   4   87.19    9.88
 -10   4   4   82.03   10.69
 -10  -4   5  247.94   16.78
 -10   4   5  229.72   16.71
 -10  -4   5  216.19   15.87
 -10   4   5  250.46   18.70
 -10  -4   6   28.24    5.62
 -10  -4   6   50.36    7.76
 -10   4   6   35.06    6.90
 -10   4   6   47.74    8.18
 -10  -4   7   38.84    6.44
 -10  -4   7   48.66    7.81
 -10   4   7   38.26    7.23
 -10   4   7   40.83    7.45
 -10  -4   8  144.04   12.92
 -10   4   8  115.34   12.21
 -10  -4   8  145.69   13.40
 -10   4   8  149.35   14.73
 -10  -4   9  112.36   11.43
 -10   4   9   98.51   11.30
 -10  -4   9  118.28   12.31
 -10  -4  10  109.15   11.46
 -10   4  10  103.00   11.81
 -10  -4  10  101.77   11.51
 -10  -4  11  361.82   20.75
 -10   4  11  343.42   21.78
 -10  -4  11  341.84   21.49
 -10  -4  12  153.18   13.50
 -10   4  12  136.53   13.66
 -10  -4  13   68.38    9.39
 -10   4  13   57.57    9.10
 -10  -4  13   87.75   11.22
 -10  -4  14  140.22   13.11
 -10   4  14  106.63   12.45
 -10  -4  14  112.10   12.50
 -10  -4  15  162.53   14.42
 -10   4  15  144.32   14.58
 -10  -4  15  165.73   15.30
 -10   4  16   65.66   10.38
 -10  -4  16   66.08    9.76
 -10   4  17   87.92   11.46
 -10  -4  17  120.29   13.48
 -10  -4  18  137.99   14.38
 -10   4  18  120.47   13.92
 -10   4  19   53.78    8.85
 -10  -4  19   54.31    9.30
 -10  -4  20   21.41    4.23
 -10  -4  21   54.02    9.56
 -10  -4  22   34.46    8.48
 -10  -4  23   14.16    6.23
 -10  -4  24   73.46   11.95
 -10  -4  25   31.18    8.24
 -10   5 -23    1.60    2.39
 -10   5 -22    6.03    3.78
 -10   5 -21   13.05    5.60
 -10   5 -20    6.29    4.09
 -10   5 -19    5.09    3.87
 -10  -5 -18    3.25    3.24
 -10   5 -18    1.04    2.01
 -10   5 -18   -2.64    2.29
 -10  -5 -17    2.38    1.98
 -10   5 -17    7.28    3.08
 -10  -5 -16   13.65    5.90
 -10   5 -16   17.02    5.21
 -10   5 -16   13.79    4.95
 -10  -5 -15   33.94    7.57
 -10   5 -15   34.92    7.50
 -10   5 -15   30.10    7.90
 -10  -5 -14    4.47    3.50
 -10   5 -14    0.95    3.06
 -10   5 -14    3.30    3.49
 -10  -5 -13   -0.37    2.65
 -10   5 -13    3.51    5.62
 -10   5 -13   -1.15    4.08
 -10   5 -12    0.98    2.11
 -10  -5 -12    0.11    3.62
 -10   5 -12    2.62    3.45
 -10   5 -11   21.52    5.82
 -10  -5 -11   21.29    5.78
 -10   5 -11    9.61    4.01
 -10   5 -10   15.08    4.55
 -10  -5 -10   21.09    5.35
 -10   5  -9   15.11    4.23
 -10  -5  -9    9.81    4.41
 -10   5  -9    4.99    2.87
 -10  -5  -8   52.05    8.11
 -10   5  -8   32.74    7.21
 -10   5  -8   33.68    7.44
 -10  -5  -7   14.96    3.64
 -10   5  -7   12.75    4.12
 -10   5  -7   24.06    6.02
 -10  -5  -6    3.03    3.71
 -10   5  -6    3.64    3.70
 -10  -5  -6    6.43    2.83
 -10   5  -6    9.75    3.60
 -10  -5  -5    9.86    3.93
 -10   5  -5   11.00    4.10
 -10  -5  -5   12.12    3.76
 -10   5  -5    9.32    1.80
 -10  -5  -4   37.54    7.33
 -10   5  -4   51.24    8.78
 -10  -5  -4   38.83    6.52
 -10   5  -4   42.70    8.09
 -10  -5  -3   20.56    5.46
 -10   5  -3   23.44    5.93
 -10   5  -3   17.54    5.48
 -10  -5  -3   21.06    4.90
 -10   5  -2   72.63   10.06
 -10  -5  -2   61.46    8.80
 -10  -5  -2   71.77    9.15
 -10   5  -2   59.40    8.82
 -10   5  -1  151.68   14.15
 -10  -5  -1  132.22   12.86
 -10  -5  -1  162.82   13.82
 -10   5  -1  162.16   14.91
 -10   5   0  176.88   15.71
 -10  -5   0  210.80   16.12
 -10  -5   0  178.01   14.46
 -10   5   0  169.70   15.23
 -10   5   1  140.57   14.17
 -10  -5   1  139.40   13.08
 -10   5   1  156.10   14.75
 -10  -5   2   65.61    9.37
 -10   5   2   69.44    9.87
 -10  -5   2   68.94    9.00
 -10   5   2   50.83    8.75
 -10  -5   3   23.95    5.16
 -10  -5   3   19.36    4.74
 -10   5   3   22.86    6.43
 -10   5   3   20.55    5.00
 -10  -5   4   58.96    8.66
 -10   5   4   31.10    6.11
 -10  -5   4   50.89    7.95
 -10   5   4   36.61    7.39
 -10  -5   5    8.46    4.41
 -10  -5   5    6.28    3.79
 -10   5   5    2.44    2.02
 -10   5   5   11.58    5.00
 -10  -5   6    3.02    2.95
 -10  -5   6    8.72    4.08
 -10   5   6    7.56    3.65
 -10   5   6   10.68    4.94
 -10  -5   7   32.92    6.67
 -10  -5   7   20.28    5.85
 -10   5   7   18.71    5.60
 -10   5   7   11.11    4.25
 -10  -5   8   31.76    6.67
 -10  -5   8   32.84    6.31
 -10   5   8   32.40    7.64
 -10   5   8   43.87    7.85
 -10  -5   9    1.40    2.36
 -10  -5   9    9.82    4.23
 -10   5   9    7.74    4.10
 -10   5   9    8.21    3.27
 -10  -5  10   18.20    4.66
 -10  -5  10   28.10    6.35
 -10   5  10   23.29    5.44
 -10   5  10   24.43    5.37
 -10  -5  11   12.17    4.27
 -10  -5  11   16.68    5.24
 -10   5  11    7.33    3.16
 -10   5  11    7.70    5.00
 -10  -5  12    0.71    2.86
 -10  -5  12    1.63    3.26
 -10   5  12    2.54    3.01
 -10  -5  13    1.23    4.11
 -10  -5  13   -1.11    2.43
 -10   5  13    2.86    4.32
 -10  -5  14    0.59    1.67
 -10  -5  14    2.25    2.22
 -10   5  14   -1.87    2.26
 -10  -5  15   34.65    7.18
 -10  -5  15   43.74    8.15
 -10   5  15   32.37    7.61
 -10  -5  16   12.59    4.28
 -10   5  16   11.34    4.90
 -10  -5  17    1.17    2.33
 -10   5  17    3.89    2.91
 -10  -5  18    3.02    4.19
 -10   5  18    9.00    4.34
 -10  -5  19    8.91    5.29
 -10  -5  20    6.80    2.03
 -10  -5  21   11.95    4.92
 -10  -5  22    7.92    3.26
 -10  -5  23    1.49    2.94
 -10   6 -22   25.62    7.81
 -10   6 -21  119.38   14.82
 -10   6 -20   78.03   11.25
 -10   6 -19   36.65    9.25
 -10   6 -19   15.39    5.54
 -10   6 -18   80.32   11.85
 -10   6 -18   63.82   10.91
 -10   6 -17   82.37   11.25
 -10   6 -17   72.87   11.53
 -10  -6 -17   82.71   11.53
 -10   6 -16   78.30   11.93
 -10   6 -16   73.04   11.85
 -10  -6 -16   68.65   11.26
 -10   6 -15  235.58   19.05
 -10   6 -15  194.40   18.12
 -10  -6 -15  203.51   17.87
 -10   6 -14  102.25   13.03
 -10   6 -14  101.69   13.58
 -10  -6 -14  102.35   12.62
 -10   6 -13   68.60   10.88
 -10   6 -13   60.89   10.57
 -10  -6 -13   74.84   10.71
 -10  -6 -12   57.24    8.84
 -10   6 -12   75.61   10.86
 -10   6 -12   78.56   11.45
 -10  -6 -11   97.24   12.11
 -10   6 -11  103.13   12.95
 -10   6 -11   88.18   11.63
 -10  -6 -10   47.15    8.40
 -10   6 -10   57.00    9.36
 -10   6 -10   49.61    8.81
 -10  -6  -9  119.79   13.05
 -10   6  -9  107.14   12.78
 -10   6  -9  128.31   14.17
 -10  -6  -8  105.30   12.36
 -10   6  -8   97.92   11.84
 -10   6  -8   89.01   11.73
 -10   6  -7   20.56    5.99
 -10   6  -7   13.95    4.04
 -10  -6  -6   70.48   10.20
 -10   6  -6   67.12   10.12
 -10   6  -6   48.89    8.79
 -10  -6  -5  200.18   16.27
 -10  -6  -5  170.63   14.21
 -10   6  -5  179.48   16.73
 -10   6  -5  188.40   16.67
 -10  -6  -4   95.51   11.62
 -10  -6  -4   98.44   10.83
 -10   6  -4   88.31   11.23
 -10   6  -4   77.34   11.20
 -10   6  -3    7.38    4.19
 -10  -6  -3    3.09    2.77
 -10   6  -3    1.96    2.74
 -10  -6  -3    4.63    2.26
 -10  -6  -2   71.88   10.18
 -10  -6  -2   75.46    9.71
 -10   6  -2   61.90    9.62
 -10   6  -2   56.92   10.00
 -10  -6  -1  161.37   14.52
 -10  -6  -1  131.78   13.25
 -10   6  -1  151.61   15.25
 -10   6  -1  137.43   14.17
 -10  -6   0  178.40   15.80
 -10  -6   0  143.53   14.22
 -10   6   0  150.93   14.84
 -10   6   0  171.24   15.36
 -10   6   1  146.96   14.64
 -10  -6   1  163.62   15.04
 -10  -6   1  130.55   12.84
 -10   6   1  136.60   14.22
 -10   6   2   66.40    9.73
 -10  -6   2   64.54    9.34
 -10  -6   2   82.04   10.44
 -10   6   2   57.67    9.36
 -10  -6   3    7.40    3.20
 -10   6   3   14.15    4.76
 -10  -6   3    9.20    3.90
 -10   6   3    4.12    1.85
 -10   6   4   89.89   11.56
 -10  -6   4   62.76    8.93
 -10  -6   4   92.19   10.81
 -10   6   4   77.16   10.99
 -10   6   5  184.53   16.53
 -10  -6   5  138.71   13.86
 -10  -6   5  167.21   14.88
 -10   6   5  161.49   15.68
 -10   6   6   66.79    9.88
 -10  -6   6   35.52    6.99
 -10  -6   6   57.38    8.84
 -10   6   6   56.03    9.20
 -10  -6   7   20.33    4.61
 -10   6   7   14.33    4.65
 -10  -6   7   32.51    7.06
 -10   6   7   18.09    6.14
 -10   6   8   98.66   12.07
 -10  -6   8  106.87   12.15
 -10  -6   8  105.98   12.54
 -10   6   8   82.30   11.55
 -10   6   9  114.87   13.10
 -10  -6   9   96.42   11.16
 -10  -6   9  117.84   12.97
 -10   6   9  105.85   13.11
 -10  -6  10   80.16   10.35
 -10   6  10   44.66    8.45
 -10  -6  10   64.07    9.82
 -10   6  10   53.85    9.26
 -10   6  11   78.58   11.05
 -10  -6  11   81.14   10.09
 -10  -6  11   93.60   12.08
 -10   6  11   77.99   11.48
 -10  -6  12   85.44   11.10
 -10   6  12   47.37    8.92
 -10  -6  12   70.03   10.14
 -10   6  12   68.77   10.32
 -10   6  13   91.46   12.69
 -10  -6  13   69.78    9.71
 -10  -6  13   60.67    9.72
 -10   6  13   72.66   11.46
 -10   6  14  127.02   14.43
 -10  -6  14  107.73   12.08
 -10  -6  14   87.03   12.23
 -10   6  14  106.07   13.49
 -10  -6  15  200.16   16.97
 -10   6  15  186.70   17.76
 -10  -6  15  221.18   18.40
 -10   6  15  212.73   19.57
 -10   6  16   87.12   12.72
 -10  -6  16   60.22    9.79
 -10  -6  16   59.60   10.09
 -10   6  16   75.47   12.43
 -10  -6  17   90.34   11.79
 -10  -6  18   79.80   11.20
 -10  -6  19   30.69    7.48
 -10  -6  20   75.46   11.51
 -10  -6  21  116.69   14.06
 -10  -6  22   30.17    7.69
 -10   7 -19    0.87    3.23
 -10   7 -19   11.03    5.88
 -10   7 -18   21.14    6.32
 -10   7 -18   21.91    6.72
 -10   7 -17    4.13    2.89
 -10   7 -17    4.40    4.22
 -10  -7 -16   15.44    4.35
 -10   7 -16    9.49    4.00
 -10   7 -16   16.34    6.93
 -10  -7 -15   15.57    5.43
 -10   7 -15    9.74    4.77
 -10   7 -15    6.08    5.28
 -10  -7 -14   17.60    6.29
 -10   7 -14   20.07    7.00
 -10   7 -14    9.90    5.33
 -10  -7 -13   12.22    4.72
 -10   7 -13   15.17    5.77
 -10   7 -13   10.99    5.34
 -10  -7 -12   17.58    5.68
 -10   7 -12    8.23    4.40
 -10   7 -12   17.59    5.73
 -10  -7 -11   51.00    9.29
 -10   7 -11   38.47    8.00
 -10   7 -11   45.60    8.64
 -10  -7 -10   43.29    7.70
 -10   7 -10   41.47    8.57
 -10   7 -10   42.77    8.33
 -10  -7  -9   41.82    9.11
 -10   7  -9   41.74    8.71
 -10   7  -9   39.46    8.18
 -10   7  -8   34.60    7.87
 -10  -7  -8   28.60    6.63
 -10   7  -8   31.23    6.87
 -10   7  -7    4.52    3.64
 -10  -7  -7   -1.43    3.62
  10  -7  -7    0.03    2.04
 -10   7  -7    1.00    2.39
 -10   7  -6    3.26    3.20
 -10  -7  -6    4.98    2.61
  10  -7  -6    8.53    4.04
 -10   7  -6   11.79    4.45
 -10   7  -5    8.93    5.08
 -10  -7  -5   10.70    3.98
  10  -7  -5    2.24    2.54
 -10   7  -5    5.16    3.44
 -10   7  -4   13.74    4.39
 -10  -7  -4    2.51    2.06
 -10   7  -4   18.23    5.70
 -10   7  -3   26.28    5.47
 -10  -7  -3   17.25    5.41
 -10  -7  -3   19.82    5.27
 -10   7  -3   20.02    5.98
 -10   7  -2   30.06    8.25
 -10  -7  -2   27.37    6.44
 -10  -7  -2   29.42    6.84
 -10   7  -2   21.71    6.02
 -10  -7  -1   91.03   11.42
 -10  -7  -1   70.46   10.11
 -10   7  -1   60.41   10.05
 -10   7  -1   91.18   11.80
 -10   7   0   43.19    8.62
 -10  -7   0   46.76    7.72
 -10  -7   0   51.33    8.17
 -10   7   0   53.56    9.40
 -10  -7   1   76.08   10.68
 -10  -7   1   73.96   10.20
 -10   7   1   75.14   10.81
 -10   7   1   78.19   10.92
 -10   7   2   20.37    6.06
 -10  -7   2   33.38    6.83
 -10  -7   2   27.75    6.52
 -10   7   2   36.45    7.92
 -10   7   3    8.81    4.60
 -10  -7   3   16.25    6.05
 -10  -7   3   20.61    5.70
 -10   7   3   16.02    5.32
 -10   7   4   14.41    5.09
 -10  -7   4   10.96    4.20
 -10  -7   4    8.32    4.51
 -10   7   4    9.52    5.26
 -10   7   5    8.45    2.56
 -10  -7   5   -0.77    1.81
 -10  -7   5    1.78    1.90
 -10   7   5   10.04    5.20
 -10   7   6    9.87    3.99
 -10  -7   6   12.13    4.49
 -10  -7   6    6.97    4.46
 -10   7   6   11.01    5.72
 -10   7   7   -0.91    3.48
 -10  -7   7    0.81    2.05
 -10  -7   7    4.57    3.55
 -10   7   7    1.52    4.56
 -10   7   8   30.43    7.89
 -10  -7   8   32.75    6.94
 -10  -7   8   19.09    5.85
 -10   7   8   26.03    6.14
 -10   7   9   40.94    8.15
 -10  -7   9   32.87    7.17
 -10  -7   9   45.19    7.71
 -10   7   9   41.36    8.93
 -10   7  10   38.45    8.37
 -10  -7  10   44.00    7.48
 -10  -7  10   40.35    7.82
 -10   7  10   33.23    7.04
 -10   7  11   39.29    7.99
 -10  -7  11   43.85    8.16
 -10  -7  11   39.61    8.41
 -10   7  11   53.22   10.37
 -10   7  12    0.50    3.47
 -10  -7  12   11.55    3.50
 -10  -7  12   11.76    4.93
 -10   7  12    4.53    5.31
 -10   7  13    9.09    5.45
 -10  -7  13    7.14    4.30
 -10  -7  13   15.47    5.36
 -10   7  13   10.35    4.17
 -10   7  14   18.33    4.45
 -10  -7  14   29.44    7.26
 -10   7  15    2.06    4.30
 -10  -7  15   13.27    5.62
 -10  -7  15    6.31    4.56
 -10  -7  16   14.08    4.76
 -10  -7  16   17.59    6.23
 -10  -7  17    7.15    3.70
 -10  -7  18    7.32    4.11
 -10  -7  19   -1.39    3.26
 -10   8 -17   12.55    5.08
 -10   8 -17   12.02    5.24
 -10  -8 -16    6.33    4.81
 -10   8 -16    5.63    5.15
 -10   8 -16    8.07    5.43
 -10  -8 -15   84.70   12.44
 -10   8 -15   77.73   11.81
 -10   8 -15   85.74   12.85
 -10  -8 -14   55.11   11.78
 -10   8 -14   76.12   11.33
 -10   8 -14   84.25   13.03
 -10  -8 -13   21.53    5.97
 -10   8 -13   15.41    5.97
 -10   8 -13   12.41    5.44
 -10  -8 -12   26.94    5.90
 -10   8 -12   14.34    5.81
 -10   8 -12   29.73    8.09
 -10  -8 -11   30.41    7.73
 -10   8 -11   48.38    9.87
 -10   8 -11   26.76    6.66
 -10  -8 -10   22.64    6.47
 -10   8 -10   10.83    4.77
 -10   8 -10   17.22    6.26
 -10  -8  -9   66.91   10.46
 -10   8  -9   56.94   10.05
 -10   8  -9   63.39   10.59
 -10  -8  -8   87.40   11.78
 -10   8  -8  112.55   13.67
 -10   8  -8   91.94   12.45
 -10  -8  -7   19.69    5.84
 -10   8  -7   29.48    7.20
 -10   8  -7   15.44    5.38
 -10  -8  -6   94.23   12.72
  10  -8  -6  109.22   13.37
 -10   8  -6  101.29   13.28
 -10   8  -6   94.95   12.48
 -10  -8  -5  178.72   16.43
  10  -8  -5  179.46   17.15
 -10   8  -5  195.71   18.17
 -10   8  -5  195.50   18.18
 -10  -8  -4   90.83   12.23
  10  -8  -4   95.26   12.19
 -10   8  -4  112.38   13.44
 -10   8  -4   99.83   12.88
 -10   8  -3   17.20    5.72
 -10  -8  -3   27.48    5.81
  10  -8  -3   22.40    7.07
 -10   8  -3   33.65    8.34
 -10   8  -2   12.73    4.98
 -10  -8  -2   25.62    5.66
 -10  -8  -2   22.55    6.42
  10  -8  -2   29.91    7.32
 -10   8  -2   22.05    5.86
 -10   8  -1   45.07    8.33
 -10  -8  -1   29.78    6.13
 -10  -8  -1   51.29    9.24
  10  -8  -1   32.46    7.27
 -10   8  -1   51.33    9.83
 -10   8   0   50.76    9.19
 -10  -8   0   52.76    9.25
 -10  -8   0   43.06    8.24
  10  -8   0   34.64    8.87
 -10   8   0   38.01    7.92
 -10   8   1   43.80    9.26
 -10  -8   1   41.31    8.34
  10  -8   1   42.44    8.02
 -10  -8   1   52.87    9.37
 -10   8   1   58.29    9.96
 -10   8   2   32.46    7.38
 -10  -8   2   34.81    7.08
 -10  -8   2   16.27    5.30
 -10   8   2   33.49    8.20
 -10   8   3   19.55    6.54
 -10  -8   3    9.79    3.76
 -10  -8   3   15.69    4.64
 -10   8   3   24.44    7.24
 -10  -8   4  108.81   12.45
 -10   8   4  111.39   14.25
 -10  -8   4  101.46   12.10
 -10   8   4  102.05   13.03
 -10  -8   5  184.04   16.63
 -10   8   5  182.24   17.48
 -10  -8   5  207.40   17.79
 -10   8   5  165.81   16.45
 -10  -8   6  102.48   12.22
 -10   8   6   87.05   13.24
 -10  -8   6   99.03   12.33
 -10   8   7   18.33    5.57
 -10  -8   7   28.97    6.75
 -10  -8   7   14.53    4.74
 -10   8   7   19.46    7.23
 -10  -8   8  101.55   12.44
 -10  -8   8   96.70   12.74
 -10  -8   9   74.09   10.34
 -10  -8   9   59.27    9.66
 -10   8   9   67.40   11.16
 -10   8  10   11.86    6.28
 -10  -8  10   13.52    5.63
 -10  -8  10   13.30    5.03
 -10   8  11   54.19   10.30
 -10  -8  11   52.60    8.76
 -10  -8  11   38.29    7.75
 -10   8  12   19.09    7.40
 -10  -8  12   39.91    7.30
 -10  -8  12   18.58    6.46
 -10   8  13   15.21    6.51
 -10  -8  13    4.79    4.86
 -10  -8  13   21.68    6.82
 -10  -8  14   78.98   11.60
 -10  -8  14   77.77   11.31
 -10  -8  15  104.84   13.53
 -10  -8  15   70.51   11.09
 -10  -8  16    9.86    4.16
 -10  -8  16    5.07    3.74
  10  -8  16    1.22    2.39
 -10  -8  17    9.76    4.76
 -10  -9 -12   -3.02    4.24
 -10   9 -12   -1.71    3.04
 -10   9 -12    3.65    5.02
 -10  -9 -11   12.69    6.53
 -10   9 -11   22.76    6.98
 -10   9 -11   22.85    6.45
 -10  -9 -10   11.83    5.71
 -10   9 -10   14.81    6.28
 -10   9 -10   10.73    5.45
 -10  -9  -9    6.11    3.81
 -10   9  -9   -2.78    2.57
 -10   9  -9    5.00    4.05
 -10  -9  -8    8.52    4.91
 -10   9  -8    9.09    3.91
 -10   9  -8   19.47    5.99
 -10  -9  -7   11.87    5.70
 -10   9  -7   11.09    5.43
 -10   9  -7    7.03    5.76
 -10  -9  -6    4.94    2.34
  10  -9  -6   11.70    6.67
 -10   9  -6   11.81    5.67
 -10   9  -6    4.89    2.83
 -10  -9  -5    1.15    2.20
  10  -9  -5    0.64    3.96
 -10   9  -5    5.01    4.00
 -10   9  -5    0.29    2.58
 -10  -9  -4   15.15    5.34
  10  -9  -4    9.54    4.59
 -10   9  -4    2.37    4.84
 -10   9  -4    0.05    2.69
 -10  -9  -3   19.88    5.11
  10  -9  -3   18.26    5.05
 -10   9  -3   15.98    5.64
 -10   9  -3   11.78    4.07
 -10  -9  -2    6.76    4.11
  10  -9  -2    4.48    3.34
 -10   9  -2    9.54    3.80
 -10   9  -2    4.91    2.75
 -10  -9  -1   23.08    6.83
 -10  -9  -1   21.26    6.55
  10  -9  -1   16.99    6.79
 -10   9  -1   15.25    5.93
 -10   9  -1   18.33    6.18
 -10   9   0   29.77    7.39
 -10  -9   0   20.17    5.76
 -10  -9   0   19.38    6.45
  10  -9   0   28.43    7.43
 -10   9   0   26.70    7.29
 -10   9   1    5.28    4.91
 -10  -9   1   15.45    5.15
 -10  -9   1   16.48    5.77
  10  -9   1   16.50    5.11
 -10   9   1    4.03    2.82
 -10   9   2    7.52    5.29
 -10  -9   2   10.10    4.31
 -10  -9   2    4.51    4.11
  10  -9   2   13.57    5.33
 -10   9   3   22.84    6.24
 -10  -9   3   17.84    5.91
 -10  -9   3   13.00    4.73
  10  -9   3   26.21    6.37
 -10   9   4   13.95    6.01
 -10  -9   4    5.90    2.22
 -10  -9   4   17.00    5.93
  10  -9   4   11.72    5.80
 -10   9   5    0.36    2.38
 -10  -9   5    5.52    4.01
  10  -9   5    4.21    4.38
 -10  -9   5    6.45    3.19
 -10   9   6    3.55    3.49
 -10  -9   6    4.86    3.40
 -10  -9   6   -0.89    2.10
  10  -9   6    5.61    4.16
 -10   9   7    5.56    4.56
 -10  -9   7    3.87    2.12
 -10  -9   7   10.06    4.15
  10  -9   7    7.24    5.22
 -10   9   8   10.30    5.07
 -10  -9   8    4.30    3.72
 -10  -9   8   13.24    3.76
  10  -9   8   11.09    5.54
 -10   9   9   -2.96    3.35
 -10  -9   9   -0.30    2.57
 -10  -9   9    0.65    3.48
  10  -9   9    1.78    3.27
 -10   9  10   15.71    6.18
 -10  -9  10   11.08    4.97
 -10  -9  10    9.26    3.61
  10  -9  10    6.28    5.50
 -10   9  11   22.91    7.13
 -10  -9  11   19.42    6.08
 -10  -9  11   16.27    6.53
  10  -9  11   13.85    6.40
 -10   9  12   -1.67    3.68
 -10  -9  12    2.52    4.18
 -10  -9  12    0.57    2.25
  10  -9  12    2.55    3.30
 -10 -10  -5   45.50    9.19
  10 -10  -5   31.11    9.64
 -10  10  -5   50.92   10.55
 -10 -10  -4   22.90    7.28
  10 -10  -4   16.85    4.56
 -10 -10  -3    1.19    4.28
 -10  10  -3   -8.33    5.30
 -10 -10  -2   29.18    7.22
  10 -10  -2   28.61    8.75
 -10  10  -2   37.38    8.38
 -10 -10  -1   21.22    6.91
  10 -10  -1   24.53    7.22
 -10  10  -1   16.92    6.55
 -10 -10   0    5.40    4.52
  10 -10   0    1.06    2.74
 -10  10   0   -0.49    3.69
 -10 -10   1   23.63    7.01
 -10 -10   1   23.16    8.02
  10 -10   1   21.86    6.47
 -10  10   1   19.09    6.63
 -10 -10   2   39.18    8.36
 -10 -10   2   27.17    9.25
  10 -10   2   27.28    7.22
 -10  10   2   40.82    9.41
 -10 -10   3    1.91    2.66
 -10 -10   3   10.60    5.23
  10 -10   3   12.20    6.31
 -10  10   3   11.76    6.36
 -10 -10   4   35.96    8.96
 -10 -10   4   31.95    8.09
  10 -10   4   31.51    7.72
 -10  10   4   28.19    8.25
 -10 -10   5   50.96    9.48
 -10 -10   5   35.19    8.04
  10 -10   5   25.76    6.47
 -10  10   5   44.18    9.05
 -11   0 -24   -6.32    4.42
 -11   0 -23   -3.96    3.59
 -11   0 -22   -0.04    2.32
 -11   0 -21    2.73    2.98
 -11   0 -20   -0.72    2.40
 -11   0 -19   -1.10    3.35
 -11   0 -18   -0.25    2.08
 -11   0 -17    1.00    2.51
 -11   0 -16    0.36    1.74
 -11   0 -15   -1.32    2.21
 -11   0 -14   -1.20    3.03
 -11   0 -13   -1.54    3.03
 -11   0 -12    0.68    1.82
 -11   0 -12    1.13    2.65
 -11   0 -11    0.20    1.97
 -11   0 -11   -1.36    1.69
 -11   0 -10    2.18    2.53
 -11   0 -10   -1.58    2.48
 -11   0  -9   -0.36    1.33
 -11   0  -9   -0.37    2.59
 -11   0  -8   -0.20    1.28
 -11   0  -8    0.62    2.59
 -11   0  -7    1.70    3.06
 -11   0  -7   -0.82    2.21
 -11   0  -7   -0.04    2.11
 -11   0  -6   -0.07    1.61
 -11   0  -6    1.30    1.81
 -11   0  -6   -0.61    1.84
 -11   0  -5    0.98    2.35
 -11   0  -5   -0.37    2.38
 -11   0  -5   -1.23    1.67
 -11   0  -4    1.37    1.70
 -11   0  -4    1.00    1.82
 -11   0  -4    1.86    2.94
 -11   0  -3    0.32    2.09
 -11   0  -3    4.78    3.34
 -11   0  -3   -1.54    2.30
 -11   0  -2   -1.53    1.81
 -11   0  -2    0.44    2.83
 -11   0  -2   -1.67    1.83
 -11   0  -1    1.33    1.49
 -11   0  -1    0.44    2.38
 -11   0  -1    0.10    1.63
 -11   0   0    1.01    2.47
 -11   0   0    0.77    1.80
 -11   0   0   -1.00    2.06
 -11   0   1    0.40    2.50
 -11   0   1   -0.36    1.43
 -11   0   1    0.04    2.29
 -11   0   2    0.57    1.51
 -11   0   2    0.96    2.09
 -11   0   3    1.47    2.38
 -11   0   3   -0.84    1.66
 -11   0   4   -1.35    2.45
 -11   0   4   -1.42    2.42
 -11   0   5   -0.33    1.46
 -11   0   5   -0.65    1.31
 -11   0   6   -0.27    2.45
 -11   0   6   -1.23    2.17
 -11   0   7   -1.50    2.45
 -11   0   7   -1.07    1.78
 -11   0   8   -0.55    1.39
 -11   0   8    1.74    1.73
 -11   0   9   -0.62    2.37
 -11   0   9    0.54    2.00
 -11   0  10   -0.70    2.95
 -11   0  10   -0.73    1.65
 -11   0  11   -1.53    3.00
 -11   0  11   -0.07    1.94
 -11   0  12   -1.35    1.85
 -11   0  13    1.70    2.13
 -11   0  14    0.94    3.08
 -11   0  15    0.46    3.36
 -11   0  16   -1.41    3.63
 -11   0  17    3.73    3.17
 -11   0  18    1.63    2.72
 -11   0  19    2.88    3.50
 -11   0  20    1.11    2.07
 -11   0  21    0.60    3.83
 -11   0  22   -1.00    4.49
 -11   0  23   -2.43    4.24
 -11   0  24   -1.24    5.28
 -11   1 -26    8.37    4.55
 -11   1 -25   29.01    7.61
 -11   1 -24  129.82   14.90
 -11   1 -23   11.60    5.76
 -11   1 -22    0.26    2.44
 -11   1 -21   38.46    8.30
 -11   1 -20   27.80    7.31
 -11  -1 -19   95.53   13.13
 -11   1 -19   84.31   11.79
 -11  -1 -18  387.43   23.22
 -11   1 -18  394.70   23.85
 -11  -1 -17   20.98    5.41
 -11   1 -17   21.89    5.93
 -11  -1 -16   11.05    3.18
 -11   1 -16   14.14    5.37
 -11  -1 -15   96.98   11.44
 -11   1 -15   95.42   11.84
 -11  -1 -14  296.90   19.88
 -11   1 -14  325.24   20.93
 -11   1 -13  507.80   24.86
 -11  -1 -13  568.51   26.86
 -11  -1 -13  568.31   27.00
 -11  -1 -12  620.96   28.55
 -11   1 -12  679.62   29.84
 -11  -1 -12  679.53   29.51
 -11   1 -11   41.38    7.24
 -11  -1 -11   43.82    7.76
 -11   1 -11   61.08    8.85
 -11  -1 -11   33.01    6.49
 -11   1 -10  339.64   19.97
 -11  -1 -10  330.07   18.30
 -11   1 -10  307.30   19.95
 -11  -1 -10  336.88   20.50
 -11  -1 -10  338.98   19.98
 -11   1  -9  195.79   15.29
 -11  -1  -9  238.68   15.68
 -11   1  -9  247.81   18.10
 -11  -1  -9  257.53   17.48
 -11  -1  -9  295.23   18.66
 -11  -1  -8  289.24   17.30
 -11   1  -8  331.27   20.46
 -11  -1  -8  318.50   19.32
 -11   1  -7  318.54   19.14
 -11  -1  -7  332.27   18.38
 -11   1  -7  309.99   19.35
 -11  -1  -7  275.17   17.76
 -11  -1  -7  315.77   18.83
 -11   1  -6  211.29   15.44
 -11  -1  -6  228.29   15.03
 -11   1  -6  232.13   16.86
 -11  -1  -6  244.87   16.73
 -11   1  -5   65.22    8.71
 -11  -1  -5   60.08    7.88
 -11   1  -5   63.10    8.85
 -11  -1  -5   66.34    8.96
 -11  -1  -5   54.53    7.67
 -11   1  -4   58.29    7.83
 -11  -1  -4   50.33    7.43
 -11   1  -4   48.67    7.96
 -11  -1  -4   61.29    8.34
 -11   1  -3  308.48   18.39
 -11  -1  -3  325.00   18.12
 -11   1  -3  320.46   19.80
 -11  -1  -3  364.07   20.14
 -11  -1  -3  283.54   17.78
 -11   1  -2 1033.84   34.01
 -11  -1  -2  977.09   31.96
 -11   1  -2  973.53   34.20
 -11  -1  -2 1050.13   34.47
 -11  -1  -2 1046.28   33.37
 -11   1  -1   52.01    8.00
 -11  -1  -1   40.58    6.38
 -11   1  -1   51.84    7.86
 -11  -1  -1   35.82    6.53
 -11  -1  -1   54.84    7.64
 -11  -1   0    3.32    3.43
 -11  -1   0    4.44    2.41
 -11   1   0    2.30    2.34
 -11   1   0    7.32    2.60
 -11  -1   0    8.00    3.10
 -11   1   1   49.58    7.46
 -11  -1   1   54.69    7.77
 -11   1   1   61.27    9.44
 -11  -1   1   47.45    7.31
 -11   1   2  999.38   33.79
 -11  -1   2 1098.24   34.87
 -11   1   2 1087.64   36.20
 -11  -1   2 1144.18   34.10
 -11   1   3  278.27   17.80
 -11  -1   3  326.08   19.07
 -11  -1   3  297.48   17.29
 -11   1   4   54.98    8.13
 -11  -1   4   49.74    7.84
 -11  -1   4   63.70    8.12
 -11   1   5   55.12    8.29
 -11  -1   5   57.80    8.19
 -11  -1   5   41.06    6.47
 -11   1   6  205.42   15.58
 -11  -1   6  239.80   16.95
 -11  -1   6  221.98   15.13
 -11   1   7  306.63   19.09
 -11  -1   7  302.34   18.96
 -11  -1   7  312.59   17.62
 -11   1   8  277.75   18.13
 -11  -1   8  299.10   19.14
 -11  -1   8  274.10   16.50
 -11   1   9  266.90   17.98
 -11  -1   9  257.54   17.81
 -11  -1   9  253.24   16.07
 -11   1  10  313.22   19.44
 -11  -1  10  314.70   19.75
 -11  -1  10  318.02   18.03
 -11  -1  11   49.87    8.32
 -11  -1  11   54.42    7.73
 -11   1  11   37.15    7.02
 -11   1  12  732.78   31.02
 -11  -1  12  667.78   29.49
 -11  -1  12  690.25   26.79
 -11   1  13  577.27   27.52
 -11  -1  13  536.93   23.07
 -11  -1  13  534.94   26.56
 -11   1  14  387.92   23.27
 -11  -1  14  375.68   22.56
 -11   1  15   98.63   11.97
 -11  -1  15  115.12   12.71
 -11  -1  16   10.95    5.25
 -11   1  16   10.39    3.58
 -11  -1  17   30.47    7.49
 -11   1  17   29.49    6.01
 -11   1  18  389.69   24.36
 -11  -1  18  422.64   25.00
 -11   1  19   75.69   11.25
 -11  -1  19   88.13   11.67
 -11  -1  20   21.55    6.39
 -11   1  20   34.05    8.00
 -11  -1  21   33.87    7.72
 -11   1  21   23.79    7.05
 -11  -1  22   -2.47    4.41
 -11   1  22    1.13    2.65
 -11  -1  23    1.01    2.77
 -11   1  23   23.35    6.95
 -11  -1  24  121.40   15.15
 -11  -1  25   35.88    8.70
 -11   2 -25    9.88    4.98
 -11   2 -24   12.47    4.98
 -11   2 -23   49.66    9.27
 -11   2 -22    8.92    5.67
 -11   2 -21    1.89    2.68
 -11   2 -20   14.70    5.05
 -11   2 -19    2.26    4.13
 -11   2 -18    1.65    1.78
 -11   2 -17    1.36    1.66
 -11   2 -16    2.33    2.38
 -11  -2 -16    9.35    3.39
 -11   2 -15    4.20    1.91
 -11  -2 -15    1.99    3.60
 -11   2 -14   13.53    4.39
 -11  -2 -14   35.01    8.68
 -11   2 -14   22.87    6.18
 -11  -2 -14   27.58    5.98
 -11   2 -13   41.14    7.64
 -11  -2 -13   37.30    6.93
 -11   2 -13   30.60    7.07
 -11  -2 -13   40.36    8.04
 -11   2 -12    6.46    3.41
 -11  -2 -12    4.54    3.62
 -11   2 -12    5.76    3.10
 -11  -2 -12    7.00    2.81
 -11   2 -11    7.75    3.96
 -11  -2 -11    2.58    3.31
 -11   2 -11    7.57    2.78
 -11  -2 -11    5.56    2.06
 -11   2 -10    7.12    3.85
 -11   2 -10    7.79    2.95
 -11  -2 -10    9.06    3.02
 -11  -2 -10   12.16    4.44
 -11   2  -9    7.12    2.52
 -11   2  -9    1.92    1.50
 -11  -2  -9    2.45    3.10
 -11  -2  -9    2.08    1.70
 -11  -2  -9    3.31    3.43
 -11   2  -8   80.28   10.18
 -11  -2  -8  103.31   10.06
 -11   2  -8  112.86   12.71
 -11  -2  -8   89.39   10.13
 -11  -2  -8   88.95   10.46
 -11   2  -7   20.12    5.46
 -11   2  -7   28.79    6.28
 -11  -2  -7   19.29    4.92
 -11  -2  -7   19.20    5.05
 -11  -2  -7   37.16    7.08
 -11  -2  -6    2.07    1.95
 -11   2  -6    2.83    1.26
 -11   2  -6    4.13    3.44
 -11  -2  -6    6.23    3.72
 -11  -2  -6   -0.22    2.74
 -11   2  -5   45.57    7.28
 -11  -2  -5   45.98    6.66
 -11   2  -5   46.80    7.46
 -11  -2  -5   43.11    7.12
 -11  -2  -5   33.96    6.58
 -11  -2  -4    5.71    2.10
 -11  -2  -4    4.63    3.20
 -11   2  -4    3.55    1.71
 -11   2  -4    7.24    3.50
 -11  -2  -4   11.97    4.21
 -11   2  -3  431.59   22.35
 -11   2  -3  423.16   23.30
 -11  -2  -3  483.48   22.96
 -11  -2  -3  450.71   22.45
 -11  -2  -3  456.53   22.41
 -11  -2  -2   23.27    5.08
 -11  -2  -2   24.98    5.29
 -11   2  -2   29.83    6.01
 -11   2  -2   22.87    5.25
 -11  -2  -2   23.43    4.47
 -11   2  -1  368.49   20.90
 -11   2  -1  355.35   21.25
 -11  -2  -1  347.53   19.60
 -11  -2  -1  375.67   20.09
 -11  -2  -1  381.50   20.34
 -11  -2   0    3.78    2.38
 -11  -2   0    2.21    1.13
 -11   2   0    2.35    2.33
 -11   2   0    5.76    4.11
 -11   2   1  351.93   19.94
 -11   2   1  335.13   20.52
 -11  -2   1  362.47   19.77
 -11  -2   1  373.33   19.97
 -11  -2   2   29.64    5.53
 -11  -2   2   22.44    5.18
 -11   2   2   19.00    4.52
 -11   2   2   26.24    6.08
 -11   2   3  423.25   22.31
 -11   2   3  467.41   24.31
 -11  -2   3  432.49   22.13
 -11  -2   3  481.51   22.55
 -11  -2   4    3.12    3.08
 -11  -2   4    3.70    2.35
 -11   2   4    8.21    3.66
 -11   2   4    1.56    1.67
 -11  -2   5   33.56    6.30
 -11  -2   5   33.03    6.18
 -11   2   5   36.75    6.75
 -11  -2   6    5.07    3.00
 -11  -2   6    5.98    3.33
 -11   2   6    5.35    3.04
 -11  -2   7   24.43    5.37
 -11  -2   7   13.52    4.31
 -11   2   7   25.47    5.58
 -11  -2   8   94.92   11.05
 -11   2   8  111.01   11.36
 -11  -2   8   98.79   10.18
 -11  -2   9    3.14    2.39
 -11  -2   9    3.38    3.04
 -11   2   9   -1.00    2.09
 -11  -2  10    7.08    1.76
 -11  -2  10    6.31    3.08
 -11   2  10    2.14    2.75
 -11  -2  11    4.92    3.10
 -11  -2  11    2.50    3.39
 -11   2  11    8.63    4.91
 -11  -2  12    6.91    2.98
 -11  -2  12   10.58    3.97
 -11   2  12    3.26    1.55
 -11  -2  13   31.31    5.85
 -11  -2  13   33.37    6.61
 -11   2  13   45.61    8.16
 -11  -2  14   29.41    6.39
 -11   2  14   15.57    5.56
 -11  -2  15   -1.25    3.32
 -11   2  15    1.96    3.02
 -11  -2  16    7.72    3.25
 -11   2  16    6.63    4.09
 -11  -2  17   -0.60    2.88
 -11   2  17   -2.14    3.84
 -11  -2  18    8.60    5.09
 -11   2  18    0.56    2.24
 -11  -2  19   -1.09    2.48
 -11   2  19    6.37    2.24
 -11  -2  20   23.98    6.64
 -11   2  20   20.55    6.19
 -11  -2  21    3.24    3.71
 -11   2  21   -2.96    3.54
 -11  -2  22    9.99    5.15
 -11   2  22   -1.69    4.59
 -11  -2  23   33.55    8.20
 -11  -2  24   13.83    5.04
 -11  -2  25    6.15    2.91
 -11   3 -25  109.78   13.99
 -11   3 -24   99.03   13.00
 -11   3 -23   96.63   12.66
 -11   3 -22   28.70    7.23
 -11   3 -21   22.86    5.72
 -11   3 -20   43.90    8.81
 -11   3 -19   25.02    6.58
 -11  -3 -19   38.41    7.81
 -11   3 -18  186.57   16.92
 -11  -3 -18  187.93   17.24
 -11   3 -17  102.13   12.53
 -11  -3 -17   92.27   11.54
 -11   3 -16    2.32    3.30
 -11  -3 -16    1.29    2.21
 -11   3 -15   37.48    7.46
 -11   3 -15   39.34    7.87
 -11  -3 -15   27.85    6.54
 -11   3 -14  157.57   14.84
 -11   3 -14  155.71   14.80
 -11  -3 -14  133.98   14.11
 -11   3 -13  106.20   11.89
 -11   3 -13  129.71   13.27
 -11  -3 -13  106.85   12.46
 -11   3 -12  152.40   15.35
 -11  -3 -12  122.00   12.52
 -11   3 -12  143.08   14.26
 -11   3 -11  214.73   18.02
 -11  -3 -11  244.45   17.87
 -11   3 -11  222.58   17.48
 -11   3 -10   79.81   10.28
 -11  -3 -10   63.95    9.06
 -11   3 -10   75.61   10.29
 -11   3  -9  876.66   34.27
 -11   3  -9  832.95   33.99
 -11  -3  -9  841.96   33.64
 -11   3  -8  389.29   22.81
 -11  -3  -8  377.97   19.65
 -11   3  -8  419.19   23.81
 -11  -3  -8  385.17   20.84
 -11  -3  -8  379.82   21.87
 -11   3  -7   60.77    9.43
 -11   3  -7   61.76    9.18
 -11  -3  -7   62.82    8.33
 -11  -3  -7   73.64    8.83
 -11  -3  -7   64.34    9.15
 -11   3  -6   91.53   10.88
 -11   3  -6   88.48   11.12
 -11  -3  -6   69.96    8.90
 -11  -3  -6   77.74    8.89
 -11   3  -5  608.93   27.79
 -11   3  -5  630.10   28.74
 -11  -3  -5  540.36   24.11
 -11  -3  -5  569.20   24.72
 -11  -3  -5  594.28   26.66
 -11   3  -4  430.72   23.42
 -11   3  -4  437.37   23.77
 -11  -3  -4  399.80   20.84
 -11  -3  -4  393.28   20.34
 -11  -3  -4  411.20   22.08
 -11   3  -3 2122.73   51.74
 -11   3  -3 2161.63   53.20
 -11  -3  -3 2146.20   47.67
 -11  -3  -3 2051.74   46.97
 -11  -3  -3 2073.62   49.11
 -11   3  -2  461.30   24.09
 -11   3  -2  509.37   26.05
 -11  -3  -2  420.30   22.16
 -11  -3  -2  486.56   23.43
 -11  -3  -2  494.96   23.78
 -11   3  -1 1733.14   46.32
 -11  -3  -1 1822.37   45.01
 -11  -3  -1 1882.19   45.67
 -11  -3  -1 1791.16   45.85
 -11  -3   0  167.46   13.93
 -11   3   0  148.66   13.65
 -11   3   0  149.68   14.02
 -11  -3   0  128.31   13.00
 -11  -3   1 1826.47   45.31
 -11  -3   1 1719.86   45.00
 -11   3   1 1824.45   47.29
 -11   3   1 1822.94   49.17
 -11  -3   2  503.24   23.57
 -11  -3   2  479.15   23.65
 -11   3   2  482.77   24.58
 -11   3   2  462.51   24.37
 -11  -3   3 2063.43   48.66
 -11  -3   3 2124.76   49.25
 -11   3   3 2097.83   51.11
 -11   3   3 2138.50   53.20
 -11  -3   4  390.14   21.42
 -11  -3   4  407.08   22.24
 -11   3   4  462.23   24.04
 -11   3   4  396.99   22.92
 -11  -3   5  604.42   26.29
 -11  -3   5  631.75   27.31
 -11   3   5  621.72   27.86
 -11   3   5  548.74   27.00
 -11  -3   6   87.12   10.07
 -11  -3   6   72.43    9.42
 -11   3   6   87.29   10.53
 -11   3   6   83.48   10.36
 -11  -3   7  105.11   10.71
 -11  -3   7   85.33   10.11
 -11   3   7   94.13   10.77
 -11  -3   8  353.91   20.14
 -11  -3   8  379.84   21.81
 -11   3   8  384.94   22.41
 -11  -3   9  847.13   31.60
 -11  -3   9  878.92   33.60
 -11   3   9  924.27   34.61
 -11  -3  10   69.46    9.24
 -11  -3  10   63.17    8.73
 -11   3  10   65.91    9.24
 -11  -3  11  287.44   18.44
 -11  -3  11  251.18   18.54
 -11  -3  12  150.99   13.55
 -11  -3  12  121.95   13.06
 -11   3  12  147.98   14.44
 -11  -3  13  115.09   11.79
 -11  -3  13  110.93   12.21
 -11   3  13  118.24   12.80
 -11  -3  14  155.65   13.81
 -11  -3  14  147.12   14.20
 -11   3  14  166.02   15.49
 -11  -3  15   40.24    8.03
 -11   3  15   24.43    6.59
 -11  -3  16    1.53    2.58
 -11   3  16   -0.33    1.88
 -11  -3  17  110.15   13.01
 -11   3  17   74.56   11.46
 -11  -3  18  166.49   16.19
 -11   3  18  152.76   15.95
 -11  -3  19   37.53    8.11
 -11   3  19   30.80    7.51
 -11  -3  20   52.81    9.60
 -11   3  20   51.37    9.48
 -11  -3  21   18.86    6.21
 -11  -3  22   21.97    6.80
 -11  -3  23  104.72   13.49
 -11  -3  24  103.82   14.32
 -11  -3  25  103.08   14.48
 -11   4 -24   21.02    6.33
 -11   4 -23   16.29    6.04
 -11   4 -22   41.76    9.30
 -11   4 -21   13.65    4.72
 -11   4 -20    1.58    3.45
 -11   4 -19    2.75    3.13
 -11  -4 -19    1.85    2.07
 -11   4 -18    2.34    3.38
 -11  -4 -18    2.87    4.19
 -11   4 -17   -1.34    2.94
 -11  -4 -17    3.04    2.65
 -11   4 -16   -1.87    1.90
 -11  -4 -16    2.90    2.86
 -11   4 -15   13.36    4.06
 -11  -4 -15   12.03    3.43
 -11   4 -15   12.27    3.60
 -11  -4 -14   -1.52    1.84
 -11   4 -14    5.09    4.34
 -11   4 -14    0.75    2.21
 -11  -4 -13    5.08    4.44
 -11   4 -13   -2.52    2.84
 -11   4 -13    2.41    3.02
 -11   4 -12   34.13    6.98
 -11   4 -12   51.34    8.63
 -11  -4 -12   63.17    9.22
 -11  -4 -11   14.36    4.68
 -11   4 -11   11.77    4.50
 -11   4 -11   14.51    4.85
 -11   4 -10   44.21    7.96
 -11   4 -10   71.98   10.14
 -11  -4 -10   64.02   10.21
 -11  -4  -9    9.63    4.17
 -11   4  -9    8.05    3.63
 -11   4  -9    9.91    4.59
 -11   4  -8  119.23   13.37
 -11  -4  -8  127.74   12.58
 -11   4  -8  125.82   13.46
 -11  -4  -7   21.72    6.00
 -11  -4  -7   16.06    4.53
 -11   4  -7   19.43    5.38
 -11   4  -7   27.20    6.15
 -11  -4  -6   13.49    4.85
 -11   4  -6    5.93    2.90
 -11  -4  -6    7.96    2.64
 -11   4  -6   17.16    5.36
 -11  -4  -5    5.07    3.84
 -11   4  -5    1.98    1.67
 -11  -4  -5    5.08    2.88
 -11   4  -5    1.16    2.73
 -11  -4  -4 1001.47   35.61
 -11  -4  -4  929.95   32.78
 -11   4  -4  952.06   36.10
 -11  -4  -3  101.21   11.09
 -11  -4  -3  122.63   12.00
 -11   4  -3  102.58   11.58
 -11   4  -3   99.23   11.54
 -11  -4  -2  145.81   13.46
 -11  -4  -2  181.75   14.50
 -11   4  -2  204.42   16.57
 -11   4  -2  220.11   17.41
 -11  -4  -2  153.72   13.17
 -11  -4  -1  282.68   19.18
 -11  -4  -1  349.77   19.93
 -11   4  -1  320.15   20.56
 -11   4  -1  347.41   21.85
 -11  -4  -1  295.17   18.07
 -11  -4   0    9.34    3.21
 -11   4   0    4.71    2.78
 -11  -4   0    7.74    3.77
 -11   4   0    7.01    2.98
 -11  -4   1  318.51   19.46
 -11   4   1  302.46   20.13
 -11  -4   1  312.19   19.31
 -11   4   1  333.55   21.32
 -11  -4   2  174.47   14.52
 -11   4   2  202.22   16.08
 -11  -4   2  224.40   16.52
 -11   4   2  230.72   17.91
 -11   4   3  102.65   11.45
 -11  -4   3   86.82   10.32
 -11   4   3  112.30   12.40
 -11  -4   4  896.31   33.46
 -11   4   4  949.29   35.60
 -11  -4   4  958.82   34.16
 -11   4   4  922.95   35.58
 -11  -4   5    7.74    4.77
 -11   4   5    6.15    3.26
 -11  -4   5    8.72    4.29
 -11   4   5    5.65    5.04
 -11  -4   6   10.94    4.72
 -11   4   6   10.32    4.34
 -11  -4   6    4.90    3.44
 -11   4   6    3.90    1.93
 -11  -4   7   30.20    6.77
 -11   4   7   22.45    5.92
 -11  -4   7   13.80    4.09
 -11   4   7   24.23    6.14
 -11  -4   8  109.89   11.70
 -11   4   8  157.15   15.09
 -11  -4   8  115.26   12.11
 -11   4   8  123.17   13.34
 -11  -4   9    8.94    4.59
 -11   4   9    5.47    3.73
 -11  -4   9    7.01    2.79
 -11   4   9    2.03    3.14
 -11  -4  10   77.49   10.32
 -11  -4  10   65.88    9.65
 -11   4  10   55.06    9.04
 -11  -4  11   13.61    4.78
 -11   4  11   12.85    4.62
 -11  -4  11    9.52    4.48
 -11  -4  12   40.58    7.97
 -11   4  12   55.15    9.10
 -11  -4  12   33.93    7.21
 -11  -4  13    2.47    2.27
 -11   4  13    1.84    2.19
 -11  -4  13   -0.10    3.56
 -11  -4  14   -0.20    3.22
 -11   4  14    3.84    3.49
 -11  -4  14    2.27    2.15
 -11   4  15   11.24    4.63
 -11  -4  15   15.10    5.51
 -11   4  16    5.58    2.39
 -11  -4  16    0.89    2.42
 -11   4  17   -1.00    2.48
 -11  -4  17   -0.73    2.22
 -11   4  18    2.75    3.68
 -11  -4  18    5.38    3.78
 -11   4  19    5.52    4.01
 -11  -4  19    5.44    4.18
 -11  -4  20    0.44    2.91
 -11  -4  21   16.15    6.01
 -11  -4  22   27.92    6.79
 -11  -4  23   17.55    5.65
 -11  -4  24   15.64    6.06
 -11   5 -22   50.00    9.43
 -11   5 -21   15.08    4.72
 -11   5 -20   50.05    9.87
 -11   5 -19   34.32    7.21
 -11  -5 -19   -3.50    2.30
 -11  -5 -18   64.89    9.87
 -11   5 -18   73.87   11.04
 -11   5 -18   80.37   13.59
 -11  -5 -17   16.85    5.10
 -11   5 -17   18.00    5.82
 -11   5 -17   21.77    5.82
 -11  -5 -16    8.86    5.96
 -11   5 -16    4.24    3.06
 -11   5 -16    7.59    4.67
 -11  -5 -15   28.49    8.15
 -11   5 -15   39.51    7.67
 -11   5 -15   41.90    8.35
 -11   5 -14  100.73   12.85
 -11   5 -14  120.84   14.02
 -11  -5 -14  134.39   14.34
 -11   5 -13   81.11   10.43
 -11   5 -13   71.97   10.89
 -11  -5 -13   85.41   11.38
 -11   5 -12   22.10    6.26
 -11  -5 -12   29.58    6.80
 -11   5 -12   26.53    8.12
 -11   5 -11    2.15    3.25
 -11  -5 -11   -0.75    2.26
 -11   5 -11    3.04    2.87
 -11  -5 -10    5.46    2.49
 -11   5 -10    5.56    3.17
 -11   5 -10    2.68    3.28
 -11   5  -9  113.69   13.41
 -11   5  -9   93.16   11.77
 -11  -5  -9   97.23   12.17
 -11  -5  -8  476.04   25.33
 -11   5  -8  492.90   27.38
 -11   5  -8  407.96   24.98
 -11  -5  -7   71.26   10.18
 -11   5  -7   65.40   10.27
 -11   5  -7   57.65    9.66
 -11  -5  -6   45.84    8.06
 -11  -5  -6   44.99    8.51
 -11   5  -6   37.24    7.75
 -11   5  -6   48.25    8.39
 -11  -5  -5   21.92    5.31
 -11   5  -5    7.82    4.23
 -11  -5  -5   17.72    4.75
 -11   5  -5   17.88    5.81
 -11   5  -4  412.06   24.55
 -11  -5  -4  436.69   24.15
 -11  -5  -4  422.36   22.26
 -11   5  -4  433.46   24.84
 -11   5  -3   57.09    9.05
 -11  -5  -3   55.29    8.39
 -11  -5  -3   57.22    8.52
 -11   5  -3   56.88    9.41
 -11  -5  -2  156.05   14.50
 -11   5  -2  170.56   16.05
 -11  -5  -2  153.58   13.41
 -11   5  -2  153.87   15.11
 -11  -5  -1  229.18   17.58
 -11   5  -1  197.90   17.25
 -11  -5  -1  229.42   16.73
 -11   5  -1  218.63   17.98
 -11  -5   0    3.75    3.21
 -11   5   0    5.71    1.70
 -11   5   0    6.55    4.14
 -11  -5   0   12.28    4.69
 -11  -5   1  226.48   17.53
 -11   5   1  202.78   17.26
 -11  -5   1  237.30   17.24
 -11   5   1  211.81   17.41
 -11  -5   2  184.84   15.55
 -11   5   2  166.72   15.50
 -11  -5   2  193.00   15.60
 -11   5   2  165.45   15.08
 -11  -5   3   66.87    9.60
 -11   5   3   56.69    9.22
 -11  -5   3   69.68    9.57
 -11   5   3   57.55    9.62
 -11  -5   4  410.10   23.08
 -11   5   4  464.49   25.72
 -11  -5   4  373.71   22.48
 -11   5   4  425.85   25.32
 -11  -5   5   17.95    5.88
 -11   5   5   11.57    3.75
 -11   5   5   12.13    4.31
 -11  -5   5    8.74    4.42
 -11  -5   6   47.55    7.97
 -11   5   6   41.26    8.84
 -11   5   6   25.71    6.72
 -11  -5   6   38.21    6.91
 -11  -5   7   61.11    8.92
 -11   5   7   49.76    8.58
 -11  -5   7   50.92    8.36
 -11   5   7   56.05    9.29
 -11  -5   8  443.89   24.16
 -11   5   8  456.12   25.76
 -11  -5   8  499.17   26.27
 -11   5   8  410.90   24.99
 -11  -5   9  108.96   12.16
 -11   5   9   97.61   12.18
 -11  -5   9  121.52   12.77
 -11   5   9   92.54   12.19
 -11  -5  10    4.13    1.91
 -11   5  10    5.27    4.21
 -11   5  10    2.93    2.17
 -11  -5  10    1.68    2.05
 -11  -5  11    1.78    2.36
 -11   5  11    1.58    2.25
 -11   5  11    4.02    4.72
 -11  -5  11   -1.24    2.34
 -11  -5  12   31.23    6.32
 -11   5  12   31.14    6.75
 -11   5  12   23.87    6.48
 -11  -5  12   27.67    6.76
 -11  -5  13   90.37   11.40
 -11   5  13   66.41   10.78
 -11  -5  13   75.63   10.57
 -11  -5  14  127.15   14.11
 -11   5  14  108.40   13.64
 -11  -5  14  123.95   14.27
 -11  -5  15   41.52    7.69
 -11   5  15   37.99    8.22
 -11  -5  15   38.97    8.05
 -11   5  16   -1.23    3.24
 -11  -5  16    4.05    3.18
 -11   5  17   10.54    6.22
 -11  -5  17   10.36    2.42
 -11   5  18   74.58   12.56
 -11  -5  18   67.71   10.81
 -11  -5  19   34.62    7.19
 -11  -5  20   69.42   10.18
 -11  -5  21    6.27    4.29
 -11  -5  22   45.57    8.84
 -11   6 -20   34.56    9.14
 -11   6 -19   10.90    4.23
 -11   6 -19   -1.58    4.22
 -11  -6 -18    3.26    4.17
 -11   6 -18    1.16    3.17
 -11  -6 -17    1.44    2.25
 -11   6 -17    0.02    2.44
 -11  -6 -16    2.12    3.18
 -11   6 -16    2.56    2.19
 -11   6 -16    6.35    3.37
 -11  -6 -15   17.95    6.64
 -11   6 -15   19.23    6.83
 -11   6 -15   20.15    6.53
 -11  -6 -14   31.43    7.30
 -11   6 -14   34.69    7.48
 -11   6 -14   21.63    7.00
 -11  -6 -13   26.88    6.67
 -11   6 -13   14.20    4.93
 -11   6 -13   28.66    7.73
 -11  -6 -12    7.87    4.03
 -11   6 -12    3.50    3.08
 -11   6 -12    3.72    2.55
 -11   6 -11    7.60    5.32
 -11  -6 -11   12.13    5.91
 -11   6 -11    1.66    3.02
 -11  -6 -10   81.86   11.03
 -11   6 -10   65.91    9.85
 -11   6 -10   68.54   10.63
 -11   6  -9    2.69    2.08
 -11  -6  -9    6.79    1.87
 -11   6  -9   -0.15    2.52
 -11  -6  -8   52.82    8.89
 -11   6  -8   48.19    8.21
 -11   6  -8   48.18    8.75
 -11   6  -7    4.84    3.81
 -11  -6  -7    9.07    5.54
 -11   6  -7    7.25    4.53
 -11  -6  -6   51.65    9.18
 -11   6  -6   46.57    8.70
 -11   6  -6   59.69   10.12
 -11   6  -5   14.62    4.93
 -11  -6  -5   11.77    4.48
 -11   6  -5   18.00    5.02
 -11  -6  -4    8.62    5.36
 -11   6  -4   10.30    4.33
 -11   6  -4   10.63    5.15
 -11  -6  -4    8.74    4.33
 -11  -6  -3    2.22    2.50
 -11   6  -3   -0.78    1.92
 -11   6  -3   -0.44    2.48
 -11  -6  -3   -1.38    3.18
 -11  -6  -2  106.29   12.20
 -11  -6  -2  123.70   13.09
 -11   6  -2  140.66   14.73
 -11   6  -2  120.53   13.41
 -11  -6  -1   15.98    5.40
 -11   6  -1   12.28    5.16
 -11   6  -1   10.10    4.89
 -11  -6  -1   16.58    4.96
 -11  -6   0    2.60    3.63
 -11   6   0    3.00    4.01
 -11   6   0    3.49    4.95
 -11  -6   0   -0.06    1.79
 -11  -6   1   12.96    4.04
 -11   6   1   22.32    6.08
 -11   6   1    9.60    3.93
 -11  -6   1   11.18    4.28
 -11   6   2  129.31   14.38
 -11  -6   2   99.07   11.33
 -11  -6   2   87.06   11.08
 -11   6   2  140.88   14.88
 -11  -6   3    1.86    3.17
 -11  -6   3    1.43    2.07
 -11   6   3   -2.31    3.25
 -11   6   3   -0.05    3.28
 -11   6   4    2.01    2.28
 -11   6   4    5.21    3.35
 -11  -6   5   31.99    6.48
 -11  -6   5   17.59    5.09
 -11   6   5   17.45    5.85
 -11   6   5   34.19    7.57
 -11   6   6   57.01   10.09
 -11  -6   6   53.08    8.46
 -11  -6   6   50.36    8.83
 -11   6   6   71.99   11.25
 -11  -6   7   14.42    4.78
 -11  -6   7    8.86    3.95
 -11   6   7   10.50    4.86
 -11   6   7    4.70    2.94
 -11  -6   8   43.04    8.36
 -11   6   8   41.76    8.44
 -11  -6   8   71.18   10.58
 -11   6   8   53.97    9.43
 -11  -6   9   12.18    4.37
 -11  -6   9    9.63    4.34
 -11   6   9    0.22    3.38
 -11   6   9   11.77    5.78
 -11  -6  10   73.45   11.23
 -11   6  10   71.50   11.31
 -11  -6  10   72.16   10.28
 -11   6  10   80.18   11.52
 -11  -6  11    3.74    2.23
 -11  -6  11    3.96    3.66
 -11   6  11    1.94    3.27
 -11   6  11    5.97    3.52
 -11  -6  12    2.91    2.69
 -11  -6  12   12.95    5.18
 -11   6  12    4.98    3.40
 -11   6  12    3.44    3.67
 -11  -6  13   25.97    6.76
 -11  -6  13   21.17    6.94
 -11   6  13   25.10    6.12
 -11   6  13   13.30    5.65
 -11  -6  14   25.91    6.87
 -11  -6  14   25.73    6.28
 -11   6  14   28.17    7.37
 -11   6  14   34.10    8.91
 -11  -6  15    8.86    4.39
 -11  -6  15   12.27    5.35
 -11   6  15    8.80    5.25
 -11   6  15   20.78    5.25
 -11  -6  16    4.44    1.99
 -11   6  16    0.19    3.75
 -11  -6  17    1.61    2.25
 -11   6  17   -6.05    3.15
 -11   6  17   -3.33    2.59
 -11   6  18    6.32    4.12
 -11  -6  18    3.72    2.96
 -11  -6  19   17.92    6.53
 -11  -6  20   50.61    9.72
 -11   7 -18   50.16   10.01
 -11   7 -18   36.46    8.59
 -11  -7 -17    1.06    3.20
 -11   7 -17    2.43    2.64
 -11   7 -17    5.52    4.90
 -11  -7 -16    4.13    6.10
 -11   7 -16    4.30    2.14
 -11   7 -16    2.08    3.29
 -11  -7 -15   38.52    8.26
 -11   7 -15   20.91    6.52
 -11   7 -15   33.22    7.90
 -11   7 -14  101.13   12.65
 -11   7 -14  121.96   14.58
 -11  -7 -14  144.91   15.49
 -11   7 -13  110.14   13.71
 -11   7 -13   89.85   12.62
 -11  -7 -13   78.42   12.17
 -11  -7 -12   61.00    9.78
 -11   7 -12   61.05    9.93
 -11   7 -12   62.22   10.62
 -11  -7 -11    7.94    2.14
 -11   7 -11   15.36    5.62
 -11   7 -11   14.43    5.30
 -11   7 -10    6.36    3.44
 -11   7 -10    2.24    1.74
 -11  -7  -9   39.22    7.81
 -11   7  -9   48.03    9.07
 -11   7  -9   60.92   10.28
 -11  -7  -8  239.22   19.03
 -11   7  -8  225.93   19.22
 -11   7  -8  206.16   18.56
 -11  -7  -7  186.72   16.95
 -11   7  -7  196.82   17.77
 -11   7  -7  177.78   17.27
 -11  -7  -6   70.91   10.49
 -11   7  -6   80.69   11.90
 -11   7  -6   64.95   10.32
 -11   7  -5    9.33    5.30
 -11  -7  -5   12.05    4.93
 -11   7  -5    9.97    4.78
 -11  -7  -4   91.92   12.19
 -11   7  -4   65.67   10.52
 -11   7  -4   65.55   10.26
 -11  -7  -3  156.29   14.97
 -11  -7  -3  142.67   14.57
 -11   7  -3  105.91   13.37
 -11   7  -3  140.97   15.73
 -11   7  -2   47.73    8.69
 -11   7  -2   40.62    8.08
 -11  -7  -2   34.18    7.62
 -11  -7  -1    5.60    3.39
 -11   7  -1    2.55    3.45
 -11  -7  -1    5.64    3.91
 -11   7  -1   14.86    5.87
 -11  -7   0    0.75    2.63
 -11   7   0    1.74    3.02
 -11  -7   0    2.74    3.17
 -11   7   0   -0.16    4.13
 -11  -7   1    5.57    4.06
 -11   7   1   15.18    4.43
 -11  -7   1    6.05    3.79
 -11   7   1    8.53    4.07
 -11   7   2   52.03    8.84
 -11  -7   2   54.86    8.92
 -11  -7   2   62.86    9.62
 -11   7   2   64.00   10.48
 -11  -7   3  142.44   13.96
 -11  -7   3  167.14   15.63
 -11   7   3  141.35   15.67
 -11   7   3  143.88   15.25
 -11  -7   4   75.94   10.66
 -11  -7   4   86.94   11.49
 -11   7   4   59.09    9.50
 -11   7   4   97.14   12.26
 -11   7   5    8.99    4.06
 -11  -7   5    6.68    3.79
 -11  -7   5    6.63    3.63
 -11   7   5    6.55    3.66
 -11   7   6   68.54   10.91
 -11  -7   6   72.00   10.46
 -11  -7   6   72.15   10.49
 -11   7   6   64.07   11.22
 -11   7   7  188.16   17.24
 -11  -7   7  171.57   16.17
 -11  -7   7  227.50   18.38
 -11   7   7  186.57   17.74
 -11   7   8  215.17   18.83
 -11  -7   8  214.39   18.16
 -11  -7   8  201.32   17.43
 -11   7   8  204.72   19.38
 -11  -7   9   46.15    8.45
 -11   7   9   48.95    9.87
 -11  -7   9   65.55   10.34
 -11   7   9   55.76   10.79
 -11  -7  10    5.12    1.77
 -11   7  10    7.79    4.46
 -11   7  10    2.95    3.37
 -11  -7  11   16.58    6.19
 -11  -7  11   15.69    5.31
 -11   7  11   10.97    4.82
 -11   7  11   11.62    4.77
 -11   7  12   71.16   11.40
 -11  -7  12   46.32    8.12
 -11  -7  12   53.43    9.37
 -11   7  12   53.64   10.55
 -11   7  13   76.66   12.18
 -11  -7  13   90.28   11.40
 -11  -7  13   68.26   10.67
 -11   7  13   83.12   13.41
 -11  -7  14  139.56   15.37
 -11  -7  14  114.73   13.14
 -11  -7  15   38.77    7.64
 -11  -7  15   37.99    9.35
 -11   7  15   34.75    8.61
 -11  -7  16    4.86    4.92
 -11  -7  17    1.29    2.81
 -11  -7  18   50.47    9.78
 -11  -8 -15   -2.29    2.46
 -11   8 -15   -1.74    2.28
 -11  -8 -14    2.55    3.47
 -11   8 -14    0.23    2.66
 -11   8 -14   -3.30    3.72
 -11  -8 -13   -2.91    4.23
 -11   8 -13    1.98    2.84
 -11   8 -13    6.27    4.16
 -11  -8 -12    1.80    4.51
 -11   8 -12    2.88    4.62
 -11   8 -12    0.80    3.09
 -11  -8 -11    0.09    3.50
 -11   8 -11    3.69    2.82
 -11   8 -11   -0.02    1.92
 -11  -8 -10    4.29    2.06
 -11   8 -10   -0.93    4.13
 -11   8 -10    1.83    3.74
 -11  -8  -9    2.35    4.14
 -11   8  -9    5.83    3.46
 -11   8  -9   11.47    5.24
 -11  -8  -8    4.67    3.02
 -11   8  -8   10.27    3.76
 -11   8  -8    9.12    5.32
 -11  -8  -7   -0.13    2.06
 -11   8  -7   -0.81    2.33
 -11   8  -7    3.38    3.44
 -11   8  -6    2.05    3.78
 -11  -8  -6    3.52    3.19
  11  -8  -6   10.38    5.77
 -11   8  -6    7.90    4.87
 -11  -8  -5    1.17    2.34
  11  -8  -5    1.98    2.96
 -11   8  -5    1.47    2.11
 -11   8  -4    0.20    2.87
 -11  -8  -4    0.88    3.27
  11  -8  -4    2.41    3.20
 -11   8  -4   -2.03    3.51
 -11   8  -3    5.67    5.09
 -11  -8  -3    2.66    4.75
  11  -8  -3    5.23    3.51
 -11   8  -3   -0.38    2.38
 -11   8  -2   -2.40    3.79
 -11  -8  -2   -3.91    2.48
 -11  -8  -2    6.18    3.73
  11  -8  -2    5.20    3.27
 -11   8  -2    7.67    4.99
 -11   8  -1   56.78    9.90
 -11  -8  -1   41.23    8.51
 -11  -8  -1   43.41    8.46
  11  -8  -1   30.42    9.65
 -11   8   0    4.15    3.34
 -11  -8   0    9.30    4.67
 -11  -8   0    7.28    3.76
 -11   8   0   -0.77    3.22
 -11   8   1   52.54    9.09
 -11  -8   1   70.97   10.72
 -11  -8   1   45.43    8.27
 -11   8   1   60.20   10.68
 -11   8   2    7.19    4.29
 -11  -8   2    4.48    4.11
 -11  -8   2    3.47    1.85
 -11   8   2    4.43    2.45
 -11   8   3   -0.24    3.36
 -11  -8   3   -0.86    2.99
 -11  -8   3    0.14    2.57
 -11   8   3    0.06    3.70
 -11   8   4   -2.06    2.85
 -11  -8   4   -1.97    4.47
 -11  -8   4    3.54    3.86
 -11   8   4    6.73    6.11
 -11   8   5    6.61    2.73
 -11  -8   5    7.15    3.81
 -11  -8   5    6.13    3.78
 -11   8   5   -3.46    4.00
 -11   8   6    3.51    2.41
 -11  -8   6    0.90    2.05
 -11  -8   6   12.30    5.20
 -11   8   6    6.77    5.47
 -11   8   7    0.59    3.13
 -11  -8   7    3.52    4.18
 -11  -8   7    4.57    3.71
 -11   8   7    2.34    4.65
 -11   8   8    2.86    3.74
 -11  -8   8    1.73    2.63
 -11  -8   8    6.88    4.33
 -11   8   8    7.11    4.67
 -11   8   9    8.52    4.13
 -11  -8   9   12.15    5.47
 -11  -8   9   13.19    5.39
 -11   8  10    3.63    2.42
 -11  -8  10    2.93    3.00
 -11  -8  10    1.04    3.71
 -11   8  11    4.40    4.00
 -11  -8  11    5.51    3.05
 -11  -8  11   -1.10    2.02
 -11   8  12   -1.78    4.02
 -11  -8  12    0.02    3.40
 -11  -8  12    6.48    3.95
 -11   8  13    3.00    2.71
 -11  -8  13    2.79    1.96
 -11   8  14   -0.07    2.89
 -11  -8  14    1.00    3.44
 -11  -8  14   -2.12    2.08
 -11  -8  15    0.02    3.18
 -11  -8  15    8.34    5.29
 -11  -9 -10   -1.72    2.15
 -11   9 -10   -0.56    3.18
 -11   9 -10    6.39    4.41
 -11  -9  -9   37.87    8.60
 -11   9  -9   53.10    9.88
 -11   9  -9   58.77   10.24
 -11  -9  -8   53.07   10.03
 -11   9  -8   43.64    9.23
 -11   9  -8   43.91    9.35
 -11  -9  -7  111.16   13.94
 -11   9  -7   86.89   12.90
 -11  -9  -6   33.79    8.13
 -11   9  -6   34.67    7.57
 -11  -9  -5   64.92   11.26
  11  -9  -5   33.57    7.92
 -11   9  -5   42.24    9.24
 -11   9  -5   38.41    8.97
 -11  -9  -4    6.62    4.47
  11  -9  -4   15.95    5.33
 -11   9  -4   16.05    5.11
 -11   9  -4    9.64    5.03
 -11  -9  -3  211.73   18.89
  11  -9  -3  267.54   21.72
 -11   9  -3  255.82   22.13
 -11   9  -3  241.89   20.46
 -11   9  -2   60.69   10.46
 -11  -9  -2   53.15    9.83
  11  -9  -2   52.68   10.27
 -11   9  -2   54.92   10.26
 -11   9  -1    0.49    2.54
 -11  -9  -1    8.50    5.00
  11  -9  -1    6.46    5.11
 -11   9  -1    5.54    5.33
 -11   9   0    5.21    4.18
 -11  -9   0   10.01    5.07
 -11  -9   0    8.81    3.87
  11  -9   0    3.34    2.36
 -11   9   0    2.30    4.09
 -11   9   1    8.79    5.12
 -11  -9   1    4.10    2.68
 -11  -9   1   11.25    4.96
  11  -9   1    5.13    2.81
 -11   9   1   12.20    6.70
 -11   9   2   60.07   10.44
 -11  -9   2   66.04   11.07
 -11  -9   2   40.80    9.35
  11  -9   2   50.19    9.39
 -11   9   2   62.62   11.63
 -11  -9   3  241.31   19.98
  11  -9   3  252.75   21.02
 -11  -9   3  236.90   20.59
 -11   9   3  265.21   21.94
 -11   9   4   17.52    6.12
 -11  -9   4   18.09    5.53
 -11  -9   4   23.52    6.37
  11  -9   4    9.89    4.71
 -11   9   5   36.82    8.74
 -11  -9   5   20.43    5.87
 -11  -9   5   21.86    6.77
  11  -9   5   46.02    8.65
 -11   9   6   15.83    6.30
 -11  -9   6   33.81    8.07
 -11  -9   6   28.17    6.21
  11  -9   6   32.41    7.90
 -11  -9   7  104.00   13.94
 -11  -9   7   94.68   12.34
 -11   9   7  105.22   14.56
 -11   9   8   45.74    9.89
 -11  -9   8   31.83    7.48
 -11  -9   8   43.19    8.60
  11  -9   8   29.30    7.66
 -11   9   9   43.19    9.09
 -11  -9   9   42.47    8.59
 -11  -9   9   53.61    9.55
  11  -9   9   38.55    9.28
 -11   9  10    3.15    4.31
 -11  -9  10    5.27    5.93
 -11  -9  10    9.35    5.29
  11  -9  10    3.29    3.40
 -12   0 -22   12.41    6.10
 -12   0 -21    5.28    2.56
 -12   0 -20   56.91   10.39
 -12   0 -19  128.51   14.31
 -12   0 -18  124.33   13.65
 -12   0 -17  288.33   21.42
 -12   0 -16  132.73   13.87
 -12   0 -15   19.15    4.89
 -12   0 -14  398.91   23.27
 -12   0 -13  656.32   30.35
 -12   0 -11  263.12   18.05
 -12   0 -11  292.36   20.39
 -12   0 -10  386.49   22.39
 -12   0 -10  415.21   24.20
 -12   0  -9   43.10    7.30
 -12   0  -9   57.55    9.11
 -12   0  -8  278.82   18.31
 -12   0  -8  272.01   19.05
 -12   0  -7   30.54    6.69
 -12   0  -7   19.30    5.64
 -12   0  -6  223.32   16.38
 -12   0  -6  236.20   17.15
 -12   0  -6  213.39   15.95
 -12   0  -5  301.35   18.63
 -12   0  -5  324.35   20.24
 -12   0  -5  317.06   19.22
 -12   0  -4  167.16   13.93
 -12   0  -4  146.31   13.79
 -12   0  -4  169.87   13.76
 -12   0  -3   75.27    9.21
 -12   0  -3   70.38    9.97
 -12   0  -3   56.51    8.12
 -12   0  -2  728.04   29.16
 -12   0  -2  719.42   30.50
 -12   0  -2  741.87   29.09
 -12   0  -1 1299.93   38.97
 -12   0  -1 1329.90   40.95
 -12   0  -1 1402.28   39.98
 -12   0   0  501.83   24.24
 -12   0   0  517.58   25.73
 -12   0   0  493.78   23.49
 -12   0   1 1335.34   39.47
 -12   0   1 1323.20   41.32
 -12   0   1 1271.79   37.52
 -12   0   2  686.63   28.46
 -12   0   2  635.82   28.72
 -12   0   2  674.07   27.86
 -12   0   3   56.98    8.51
 -12   0   3   73.02    8.94
 -12   0   4  151.12   13.31
 -12   0   4  153.52   12.86
 -12   0   5  341.12   20.14
 -12   0   5  277.53   17.22
 -12   0   6  205.98   15.95
 -12   0   6  212.80   15.39
 -12   0   7   22.72    5.81
 -12   0   7   29.16    5.42
 -12   0   8  269.61   18.71
 -12   0   8  304.32   17.92
 -12   0   9   50.06    7.98
 -12   0   9   44.57    7.06
 -12   0  10  413.56   23.19
 -12   0  10  332.57   19.37
 -12   0  11  302.42   20.03
 -12   0  12  329.30   21.30
 -12   0  13  696.16   31.27
 -12   0  14  432.20   24.96
 -12   0  15   13.36    5.12
 -12   0  16  167.36   16.03
 -12   0  17  336.56   22.84
 -12   0  18  113.65   13.77
 -12   0  19  129.99   14.84
 -12   0  20   72.80   11.16
 -12   0  21    0.61    3.54
 -12   0  22   17.07    6.98
 -12   0  23    3.91    3.18
 -12   0  24   26.26    7.18
 -12   1 -25   -1.52    4.43
 -12   1 -24    6.73    4.71
 -12   1 -23   11.96    5.24
 -12   1 -22   26.32    7.23
 -12   1 -21   17.11    5.46
 -12   1 -20   20.27    5.78
 -12   1 -19    9.28    3.15
 -12  -1 -18    6.06    6.79
 -12   1 -18    1.26    3.31
 -12   1 -17   51.26    8.97
 -12  -1 -17   28.19    6.69
 -12  -1 -16   22.56    5.79
 -12   1 -16   23.25    6.18
 -12  -1 -15   15.12    5.59
 -12   1 -15   11.99    4.76
 -12  -1 -14   19.95    5.73
 -12   1 -14   15.23    4.60
 -12  -1 -13    9.59    3.37
 -12   1 -13    8.54    4.60
 -12   1 -12    6.75    4.80
 -12  -1 -12   10.17    3.72
 -12   1 -12   10.86    4.65
 -12  -1 -12   14.14    5.04
 -12   1 -11   65.22    9.58
 -12   1 -11   60.45    9.39
 -12  -1 -11   54.36    8.92
 -12  -1 -11   77.91    9.73
 -12   1 -10   65.05    9.10
 -12  -1 -10   74.03    9.41
 -12   1 -10   78.58   10.25
 -12  -1 -10   69.35    9.78
 -12  -1 -10   58.74    9.07
 -12   1  -9   50.70    8.14
 -12  -1  -9   47.24    7.04
 -12   1  -9   47.29    8.12
 -12  -1  -9   58.16    8.53
 -12  -1  -9   48.44    7.97
 -12   1  -8   31.35    6.05
 -12  -1  -8   24.08    5.33
 -12   1  -8   23.84    5.90
 -12  -1  -8   30.90    6.15
 -12  -1  -8   24.15    6.31
 -12   1  -7    2.83    2.03
 -12  -1  -7    0.29    1.71
 -12   1  -7    4.43    3.74
 -12  -1  -7    5.14    3.26
 -12  -1  -7    1.10    1.85
 -12   1  -6   12.61    3.55
 -12  -1  -6   16.95    4.12
 -12   1  -6   21.00    5.54
 -12  -1  -6   15.61    4.15
 -12  -1  -6   12.38    2.58
 -12   1  -5   43.16    7.72
 -12  -1  -5   59.44    8.36
 -12   1  -5   56.85    8.93
 -12  -1  -5   58.99    8.59
 -12  -1  -5   54.27    7.72
 -12   1  -4  118.76   12.10
 -12  -1  -4  110.86   11.06
 -12   1  -4  108.58   12.05
 -12  -1  -4   96.47   11.23
 -12  -1  -4   95.60   10.68
 -12   1  -3  279.79   18.27
 -12  -1  -3  244.22   16.54
 -12   1  -3  254.28   18.39
 -12  -1  -3  239.95   17.19
 -12  -1  -3  238.58   16.56
 -12   1  -2  121.32   12.10
 -12  -1  -2  139.27   12.71
 -12   1  -2  128.51   13.09
 -12  -1  -2  143.62   13.15
 -12  -1  -2  143.24   12.94
 -12   1  -1   68.83    9.06
 -12  -1  -1   71.23    9.57
 -12   1  -1   79.62    9.72
 -12  -1  -1   86.15   10.37
 -12  -1  -1   61.99    8.63
 -12  -1   0   15.65    4.57
 -12   1   0   19.49    4.75
 -12   1   0   19.40    4.79
 -12  -1   0   18.94    5.17
 -12  -1   0   16.05    5.34
 -12   1   1   80.09   10.08
 -12  -1   1   68.39    9.06
 -12   1   1   76.74   10.20
 -12  -1   1   72.48    9.37
 -12  -1   1   66.93    8.80
 -12   1   2  154.42   13.78
 -12  -1   2  138.40   12.78
 -12   1   2  131.52   13.14
 -12  -1   2  148.85   12.82
 -12   1   3  229.94   17.05
 -12  -1   3  242.12   17.58
 -12   1   3  235.17   17.47
 -12  -1   3  268.12   17.31
 -12   1   4  102.47   11.18
 -12  -1   4  101.14   11.00
 -12  -1   4   85.24   10.04
 -12   1   5   46.47    7.92
 -12  -1   5   37.76    6.87
 -12  -1   5   45.88    7.38
 -12  -1   6   11.57    3.24
 -12  -1   6   16.19    4.71
 -12   1   6   14.26    4.24
 -12  -1   7    2.73    2.34
 -12   1   7    3.04    2.53
 -12  -1   7    4.48    3.16
 -12  -1   8   31.43    6.51
 -12   1   8   30.64    6.67
 -12  -1   8   31.56    6.39
 -12   1   9   58.25    8.81
 -12  -1   9   48.08    8.11
 -12  -1   9   51.53    8.27
 -12   1  10   73.67    9.83
 -12  -1  10   51.92    9.39
 -12  -1  10   48.33    6.72
 -12   1  11   64.98    9.58
 -12  -1  11   72.83   10.22
 -12  -1  11   74.38    9.37
 -12  -1  12    8.81    3.79
 -12   1  12    7.17    3.56
 -12  -1  12   13.52    4.10
 -12  -1  13   11.05    4.48
 -12   1  13   11.94    3.99
 -12  -1  14   10.81    4.24
 -12   1  14   13.25    5.12
 -12  -1  15    5.86    3.15
 -12   1  15    3.00    2.86
 -12  -1  16   17.52    5.63
 -12   1  16   16.81    5.56
 -12  -1  17   38.33    8.03
 -12   1  17   46.31    8.32
 -12  -1  18    1.52    2.42
 -12   1  18    3.95    3.80
 -12  -1  19   10.43    5.36
 -12   1  19    3.25    3.43
 -12  -1  20    5.55    4.70
 -12   1  20   11.89    4.44
 -12  -1  21   16.96    6.86
 -12   1  21   27.24    7.84
 -12  -1  22   26.95    6.70
 -12   1  22   27.03    7.31
 -12  -1  23    1.67    3.09
 -12   1  23    2.62    4.12
 -12  -1  24    0.08    4.36
 -12  -1  25    1.60    5.19
 -12   2 -24   88.82   13.33
 -12   2 -23   11.68    5.24
 -12   2 -22   32.74    8.14
 -12   2 -21   21.85    6.45
 -12   2 -20   40.35    8.40
 -12   2 -19   43.44    9.02
 -12   2 -18  132.71   14.48
 -12   2 -17   91.05   11.79
 -12   2 -16   35.59    7.18
 -12  -2 -16   16.77    5.35
 -12   2 -15   36.79    7.93
 -12  -2 -15   35.50    6.73
 -12   2 -14  116.36   12.94
 -12  -2 -14  130.10   13.44
 -12   2 -14  123.22   13.52
 -12   2 -13  190.97   16.71
 -12  -2 -13  178.49   15.66
 -12   2 -13  212.36   17.04
 -12   2 -12  168.57   15.69
 -12   2 -12  137.31   14.66
 -12  -2 -12  164.06   14.85
 -12   2 -11   83.30   10.91
 -12  -2 -11   79.61   10.44
 -12   2 -11   90.61   11.72
 -12  -2 -11   79.72   10.11
 -12   2 -10   81.80   11.03
 -12   2 -10   79.94   10.70
 -12  -2 -10  114.33   12.04
 -12  -2 -10   85.22   10.94
 -12   2  -9  150.49   14.29
 -12  -2  -9  139.97   12.64
 -12   2  -9  137.16   14.05
 -12  -2  -9  138.15   13.32
 -12  -2  -9  133.45   13.18
 -12   2  -8  315.68   20.60
 -12  -2  -8  276.52   17.96
 -12   2  -8  291.01   20.14
 -12  -2  -8  300.52   19.53
 -12  -2  -8  258.27   18.56
 -12   2  -7   94.00   11.24
 -12  -2  -7  104.21   10.97
 -12   2  -7   93.16   11.61
 -12  -2  -7   94.39   10.79
 -12  -2  -7   90.56   10.50
 -12   2  -6   67.79    9.15
 -12  -2  -6   67.63    8.91
 -12   2  -6   67.43    9.98
 -12  -2  -6   62.81    8.98
 -12  -2  -6   76.23    9.87
 -12   2  -5  153.24   14.07
 -12  -2  -5  159.48   13.27
 -12   2  -5  158.40   15.09
 -12  -2  -5  165.15   14.11
 -12  -2  -5  169.32   14.41
 -12   2  -4  374.21   21.76
 -12  -2  -4  346.16   19.76
 -12   2  -4  353.82   22.05
 -12  -2  -4  344.30   20.74
 -12  -2  -4  362.15   20.75
 -12  -2  -3   21.62    5.59
 -12  -2  -3   36.04    6.24
 -12   2  -3   36.29    6.52
 -12  -2  -3   36.50    7.05
 -12   2  -3   38.61    7.12
 -12   2  -2  514.68   25.69
 -12  -2  -2  564.41   25.55
 -12   2  -2  503.09   26.37
 -12  -2  -2  500.23   24.90
 -12  -2  -2  500.70   24.30
 -12   2  -1  593.64   27.45
 -12   2  -1  578.75   27.86
 -12  -2  -1  606.51   26.60
 -12  -2  -1  585.90   27.18
 -12  -2  -1  640.37   27.73
 -12   2   0  211.34   16.40
 -12   2   0  213.26   17.05
 -12  -2   0  248.17   17.03
 -12  -2   0  226.10   17.08
 -12  -2   0  261.20   17.58
 -12   2   1  599.58   27.75
 -12   2   1  621.50   28.81
 -12  -2   1  641.08   27.61
 -12  -2   1  561.73   25.35
 -12   2   2  460.91   24.17
 -12   2   2  447.24   24.88
 -12  -2   2  466.97   24.00
 -12  -2   2  516.42   24.28
 -12  -2   3   31.75    5.74
 -12   2   3   24.27    5.95
 -12   2   3   31.79    6.78
 -12  -2   3   39.24    7.12
 -12   2   4  363.61   21.58
 -12   2   4  377.39   22.69
 -12  -2   4  343.58   20.73
 -12  -2   4  348.14   20.02
 -12   2   5  132.84   13.33
 -12  -2   5  153.82   13.76
 -12  -2   5  146.94   13.28
 -12   2   6   62.79    8.72
 -12  -2   6   61.52    8.66
 -12  -2   6   72.27    8.88
 -12   2   7   97.65   11.75
 -12  -2   7  101.63   10.48
 -12  -2   7   78.01   10.12
 -12   2   8  307.89   20.15
 -12  -2   8  295.16   18.65
 -12  -2   8  285.97   19.25
 -12   2   9  157.31   14.58
 -12  -2   9  147.40   13.28
 -12  -2   9  125.98   12.92
 -12   2  10  103.10   11.84
 -12  -2  10   95.57   10.87
 -12  -2  10   71.82   10.14
 -12   2  11   59.79    8.99
 -12  -2  11   79.60    9.84
 -12  -2  11   70.45    9.89
 -12   2  12  154.16   14.90
 -12  -2  12  140.41   13.54
 -12  -2  12  138.61   13.85
 -12   2  13  214.73   17.62
 -12  -2  13  170.12   14.80
 -12  -2  13  203.35   17.37
 -12   2  14  116.22   13.59
 -12  -2  14  139.19   14.27
 -12  -2  15   48.95    8.70
 -12   2  15   50.77    9.54
 -12  -2  16   36.76    8.11
 -12   2  16   15.54    5.58
 -12   2  17   48.26    9.45
 -12  -2  17   69.63   10.82
 -12   2  18  121.64   14.06
 -12  -2  18  119.41   13.80
 -12  -2  19   40.79    8.80
 -12   2  19   36.45    8.49
 -12  -2  20   29.85    5.51
 -12   2  20   41.98    7.96
 -12  -2  21   18.93    6.70
 -12   2  21   13.47    4.67
 -12  -2  22   18.81    6.40
 -12   2  22   18.40    5.81
 -12  -2  23    9.71    4.87
 -12  -2  24   68.04   10.98
 -12   3 -24   -1.49    2.19
 -12   3 -23   25.87    6.63
 -12   3 -22   28.11    6.58
 -12   3 -21    9.97    5.30
 -12   3 -20    8.05    4.72
 -12   3 -19    7.63    4.31
 -12  -3 -19    6.58    4.66
 -12   3 -18   66.10   10.17
 -12  -3 -18   39.99    8.08
 -12   3 -17    4.70    3.65
 -12  -3 -17    6.36    5.02
 -12   3 -16    5.57    3.08
 -12  -3 -16   -0.13    2.84
 -12   3 -15    3.29    3.73
 -12   3 -15   -0.28    3.28
 -12  -3 -15    5.04    2.54
 -12   3 -14    3.87    3.38
 -12   3 -14   11.13    4.55
 -12  -3 -14   11.77    2.47
 -12   3 -13    2.07    2.46
 -12   3 -13    8.80    5.07
 -12  -3 -13    1.99    2.44
 -12   3 -12  112.75   12.76
 -12  -3 -12  101.09   12.22
 -12   3 -12  102.53   12.22
 -12   3 -11   53.01    9.12
 -12  -3 -11   75.13   10.60
 -12   3 -11   57.52    9.74
 -12   3 -10  114.75   13.16
 -12   3 -10   80.94   10.74
 -12  -3 -10   82.63   10.81
 -12  -3  -9   35.30    7.05
 -12   3  -9   36.97    7.37
 -12   3  -9   32.99    6.96
 -12   3  -8   34.03    6.00
 -12   3  -8   27.17    7.16
 -12  -3  -8   41.98    8.15
 -12  -3  -7   11.78    4.02
 -12   3  -7    8.73    2.84
 -12   3  -7   13.11    4.71
 -12  -3  -7   12.53    5.15
 -12  -3  -7   12.46    3.75
 -12  -3  -6    7.42    1.68
 -12  -3  -6    5.25    3.13
 -12   3  -6   16.63    5.21
 -12   3  -6   11.13    3.98
 -12  -3  -6   11.31    4.08
 -12  -3  -5   37.01    6.55
 -12   3  -5   46.97    8.09
 -12   3  -5   53.92    8.80
 -12  -3  -5   39.80    7.20
 -12  -3  -5   46.41    7.62
 -12   3  -4  209.47   16.70
 -12   3  -4  204.95   16.89
 -12  -3  -4  188.80   15.40
 -12  -3  -4  192.18   15.17
 -12  -3  -4  238.81   17.25
 -12   3  -3  440.17   24.10
 -12   3  -3  411.25   23.67
 -12  -3  -3  406.55   22.45
 -12  -3  -3  425.69   22.35
 -12  -3  -3  448.91   23.87
 -12   3  -2  243.80   17.83
 -12   3  -2  217.76   17.47
 -12  -3  -2  223.82   16.70
 -12  -3  -2  210.09   15.90
 -12  -3  -2  261.26   17.75
 -12   3  -1   61.61    8.97
 -12   3  -1   54.91    8.88
 -12  -3  -1   51.84    8.43
 -12  -3  -1   68.28    9.25
 -12  -3  -1   54.45    9.29
 -12  -3   0   25.78    5.27
 -12  -3   0   21.82    5.02
 -12   3   0   28.40    6.14
 -12   3   0   25.20    5.50
 -12   3   1   68.15    9.78
 -12   3   1   61.82    9.28
 -12  -3   1   60.26    8.94
 -12  -3   1   57.95    8.38
 -12   3   2  223.36   17.34
 -12   3   2  233.39   18.06
 -12  -3   2  218.04   16.28
 -12  -3   2  221.87   16.38
 -12  -3   3  417.88   23.09
 -12   3   3  435.96   23.96
 -12   3   3  433.08   24.43
 -12  -3   3  441.81   23.45
 -12  -3   4  203.46   16.35
 -12   3   4  217.43   17.19
 -12   3   4  221.13   17.49
 -12  -3   4  213.11   15.80
 -12  -3   5   33.39    6.87
 -12   3   5   41.04    7.64
 -12   3   5   35.62    7.99
 -12  -3   5   44.61    7.48
 -12  -3   6   10.15    3.51
 -12  -3   6   18.34    5.55
 -12   3   6    5.93    3.87
 -12   3   6    6.17    2.72
 -12  -3   7    7.08    3.48
 -12  -3   7    8.49    3.25
 -12   3   7    9.58    3.41
 -12   3   7   12.75    3.06
 -12  -3   8   38.92    7.40
 -12   3   8   37.44    7.62
 -12  -3   8   42.32    7.86
 -12  -3   9   33.26    6.92
 -12  -3   9   37.48    7.32
 -12   3   9   37.06    7.73
 -12  -3  10   76.36   10.17
 -12   3  10   83.83   11.15
 -12  -3  10   74.71    9.80
 -12  -3  11   69.91    9.78
 -12   3  11   48.60    8.45
 -12  -3  11   58.50    8.86
 -12  -3  12  109.93   12.07
 -12   3  12  108.02   12.25
 -12  -3  12  104.14   11.83
 -12  -3  13    2.30    3.55
 -12  -3  13    3.95    2.13
 -12   3  13    6.78    3.79
 -12  -3  14   12.00    5.10
 -12   3  14   12.87    5.02
 -12  -3  15    1.53    3.51
 -12   3  15   -3.72    3.29
 -12  -3  16    1.96    3.80
 -12   3  16    4.76    3.90
 -12  -3  17   12.68    5.20
 -12   3  17    4.61    2.16
 -12  -3  18   37.15    8.11
 -12   3  18   49.58    9.54
 -12  -3  19    6.56    4.67
 -12   3  19    3.37    2.74
 -12  -3  20   18.28    6.43
 -12   3  20    6.39    4.03
 -12  -3  21   12.19    6.43
 -12   3  21    7.42    3.27
 -12  -3  22   23.42    6.28
 -12  -3  23   13.85    5.23
 -12  -3  24    6.91    6.09
 -12   4 -23   56.09   10.86
 -12   4 -22   82.06   12.21
 -12   4 -21   32.12    8.01
 -12   4 -20   19.99    6.60
 -12  -4 -20   -4.16    3.40
 -12   4 -19   12.75    4.34
 -12  -4 -19    1.86    2.56
 -12   4 -18   27.20    6.24
 -12  -4 -18   42.02    9.40
 -12   4 -17   14.71    5.95
 -12  -4 -17   16.80    6.07
 -12   4 -16   21.42    6.06
 -12  -4 -16   13.24    5.78
 -12   4 -16   12.73    6.22
 -12   4 -15   10.91    5.84
 -12   4 -15   12.35    5.64
 -12  -4 -15   11.94    5.88
 -12   4 -14   56.28    9.22
 -12   4 -14   76.75   11.30
 -12  -4 -14   57.02   10.05
 -12   4 -13   44.28    8.37
 -12   4 -13   50.73    9.41
 -12  -4 -13   47.03    8.93
 -12  -4 -12    1.53    3.10
 -12   4 -12    0.54    3.09
 -12   4 -12    1.38    2.63
 -12  -4 -11   11.42    4.62
 -12   4 -11    9.80    3.74
 -12   4 -11    8.87    3.07
 -12   4 -10   41.31    8.48
 -12  -4 -10   47.71    8.26
 -12   4 -10   40.55    8.37
 -12   4  -9   92.96   11.96
 -12  -4  -9   89.50   10.90
 -12   4  -9   82.66   10.81
 -12   4  -8  313.83   21.57
 -12   4  -8  338.63   23.01
 -12  -4  -8  357.13   22.48
 -12   4  -7  321.32   22.34
 -12   4  -7  274.79   20.56
 -12  -4  -7  291.11   20.08
 -12   4  -6   76.25   10.87
 -12   4  -6   75.51   10.31
 -12  -4  -6   85.26   10.28
 -12  -4  -6   61.90    9.16
 -12   4  -5  207.60   17.18
 -12   4  -5  234.55   19.11
 -12  -4  -5  199.91   15.82
 -12  -4  -5  207.82   16.69
 -12   4  -4  633.13   30.64
 -12   4  -4  529.57   27.96
 -12  -4  -4  602.80   27.20
 -12  -4  -4  634.98   28.87
 -12   4  -3  322.69   21.62
 -12   4  -3  345.73   22.46
 -12  -4  -3  342.63   20.64
 -12  -4  -2  558.20   26.70
 -12  -4  -2  427.26   23.38
 -12   4  -2  477.86   26.11
 -12   4  -2  565.15   28.88
 -12  -4  -1  172.03   15.17
 -12  -4  -1  170.29   14.78
 -12   4  -1  151.60   14.69
 -12   4  -1  174.43   16.20
 -12  -4  -1  147.55   14.30
 -12  -4   0   20.75    6.26
 -12   4   0   14.89    4.11
 -12  -4   0   24.43    5.51
 -12   4   0   15.15    4.75
 -12  -4   1  172.31   15.02
 -12  -4   1  160.14   14.36
 -12   4   1  166.01   15.01
 -12   4   1  181.36   16.81
 -12  -4   2  495.57   25.10
 -12  -4   2  458.68   24.86
 -12   4   2  523.22   27.30
 -12   4   2  511.98   27.76
 -12  -4   3  331.16   20.94
 -12  -4   3  319.56   20.48
 -12   4   3  331.05   21.71
 -12   4   3  359.37   23.27
 -12  -4   4  549.02   27.17
 -12   4   4  621.71   29.25
 -12   4   4  584.74   29.54
 -12  -4   5  211.30   16.53
 -12  -4   5  193.50   16.38
 -12   4   5  200.45   16.93
 -12   4   5  190.27   16.60
 -12  -4   6   79.82   10.21
 -12  -4   6   82.69   10.43
 -12   4   6   81.95   10.91
 -12   4   6   87.39   11.34
 -12  -4   7  308.83   20.32
 -12  -4   7  301.04   20.41
 -12   4   7  303.84   20.87
 -12   4   7  298.28   21.14
 -12  -4   8  371.20   22.26
 -12  -4   8  339.75   21.75
 -12   4   8  341.42   22.23
 -12   4   8  392.50   24.39
 -12  -4   9  104.68   12.03
 -12  -4   9   78.17   11.01
 -12   4   9  104.20   12.68
 -12   4   9  102.48   12.84
 -12  -4  10   41.80    8.27
 -12  -4  10   55.68    9.12
 -12   4  10   33.43    6.99
 -12   4  10   40.95    7.39
 -12  -4  11   19.10    6.17
 -12   4  11   17.10    5.77
 -12  -4  11   15.56    5.05
 -12  -4  12    6.90    5.06
 -12   4  12    2.73    3.22
 -12  -4  12    0.57    1.92
 -12  -4  13   57.96    9.37
 -12  -4  13   52.89    9.25
 -12   4  13   48.29    8.72
 -12  -4  14   59.19    9.28
 -12   4  14   56.02   10.29
 -12  -4  14   48.15    8.52
 -12   4  15    6.82    4.45
 -12  -4  15   19.11    5.56
 -12   4  16    7.28    4.08
 -12  -4  16   22.13    6.81
 -12   4  17   10.06    4.56
 -12  -4  17   18.78    5.68
 -12   4  18   19.01    6.14
 -12  -4  18   21.25    6.31
 -12   4  19   12.85    4.78
 -12  -4  19    8.77    2.65
 -12   4  20   30.90    7.54
 -12  -4  20   33.60    7.99
 -12  -4  21   17.10    6.13
 -12  -4  22   89.05   12.99
 -12  -4  23   65.97   12.03
 -12   5 -21    5.13    4.72
 -12   5 -20    5.85    4.33
 -12   5 -19    6.76    3.85
 -12  -5 -19   17.03    5.02
 -12   5 -18   21.16    6.35
 -12  -5 -18    0.28    4.23
 -12  -5 -17    8.50    5.37
 -12   5 -17   18.16    5.90
 -12   5 -17   19.10    7.13
 -12  -5 -16    3.32    2.25
 -12   5 -16    8.56    5.07
 -12   5 -16    6.55    4.47
 -12  -5 -15    4.57    3.25
 -12   5 -15    1.38    2.98
 -12   5 -15    4.61    5.10
 -12   5 -14    2.47    3.03
 -12  -5 -14   -2.16    2.02
 -12   5 -14    4.72    3.54
 -12   5 -13   26.48    7.25
 -12  -5 -13   32.08    7.37
 -12   5 -13   30.71    7.71
 -12  -5 -12   29.20    6.99
 -12   5 -12   14.98    6.11
 -12   5 -12   34.91    7.49
 -12  -5 -11   13.52    3.86
 -12   5 -11   12.90    4.04
 -12   5 -11   19.93    5.48
 -12  -5 -10   42.31    7.93
 -12   5 -10   48.05    9.14
 -12   5 -10   51.71    9.28
 -12  -5  -9   16.62    4.85
 -12   5  -9   17.63    5.94
 -12   5  -9   19.08    5.31
 -12  -5  -8    6.66    3.52
 -12   5  -8    4.33    4.29
 -12   5  -8    9.39    4.06
 -12  -5  -7    8.21    4.01
 -12   5  -7    7.58    3.71
 -12   5  -7   12.42    4.56
 -12  -5  -6    0.61    2.09
 -12   5  -6    0.40    3.13
 -12   5  -6    1.18    1.86
 -12  -5  -5    4.49    3.43
 -12   5  -5   -1.02    2.76
 -12  -5  -5    2.49    3.41
 -12   5  -5    1.57    5.02
 -12  -5  -4    3.66    2.82
 -12   5  -4    3.40    3.77
 -12  -5  -4    1.47    1.77
 -12   5  -4    9.94    3.70
 -12  -5  -3   30.17    6.91
 -12   5  -3   26.58    6.87
 -12  -5  -3   21.08    6.02
 -12   5  -3   14.12    4.67
 -12   5  -2  112.74   13.29
 -12  -5  -2   97.91   11.24
 -12   5  -2  114.58   13.57
 -12  -5  -1   46.10    8.37
 -12   5  -1   50.81    9.21
 -12  -5  -1   45.48    8.01
 -12   5  -1   43.08    8.05
 -12  -5   0   12.94    4.50
 -12   5   0   15.90    5.01
 -12  -5   0   15.13    4.51
 -12   5   0   19.43    5.70
 -12  -5   1   47.26    8.36
 -12  -5   1   47.67    8.17
 -12   5   1   32.60    7.04
 -12   5   1   52.03    9.09
 -12   5   2   93.13   11.80
 -12  -5   2  114.22   12.25
 -12   5   2  104.04   12.75
 -12  -5   3   20.42    6.47
 -12   5   3   17.62    5.55
 -12  -5   3   22.09    5.67
 -12   5   3   24.21    6.28
 -12  -5   4    6.09    4.13
 -12   5   4    5.36    2.15
 -12  -5   4   10.28    5.25
 -12   5   4    3.26    2.22
 -12  -5   5    1.42    4.25
 -12   5   5    2.43    4.40
 -12  -5   5   -0.55    1.68
 -12   5   5   -1.26    2.59
 -12  -5   6    1.42    3.54
 -12   5   6   -0.09    2.03
 -12  -5   6    2.57    2.03
 -12   5   6    1.85    2.15
 -12  -5   7   11.19    4.37
 -12   5   7   20.31    5.74
 -12  -5   7   16.64    6.17
 -12   5   7    9.02    5.01
 -12  -5   8    6.64    4.59
 -12   5   8    5.24    2.98
 -12  -5   8    8.26    3.97
 -12   5   8    6.50    3.59
 -12  -5   9   20.95    6.16
 -12   5   9   17.54    5.53
 -12  -5   9   22.66    5.92
 -12   5   9   21.89    5.18
 -12  -5  10   58.99   10.21
 -12  -5  10   49.01    8.90
 -12   5  10   41.21    7.67
 -12   5  10   38.89    7.92
 -12  -5  11   14.05    4.86
 -12   5  11   13.29    4.97
 -12  -5  11   14.23    4.09
 -12   5  11    6.16    3.14
 -12  -5  12   24.56    7.02
 -12   5  12   20.51    7.40
 -12  -5  12   27.08    6.29
 -12   5  12   24.86    4.74
 -12  -5  13   26.56    5.97
 -12   5  13   28.48    7.05
 -12  -5  13   32.71    7.79
 -12   5  13   22.11    6.88
 -12  -5  14    0.71    2.79
 -12   5  14    1.47    5.23
 -12  -5  14    1.09    3.17
 -12   5  15    2.89    3.14
 -12  -5  15    2.45    2.45
 -12   5  16    4.43    2.45
 -12  -5  16   -1.90    3.73
 -12   5  17    7.36    3.69
 -12  -5  17   17.16    5.17
 -12   5  18   20.98    7.05
 -12  -5  18    9.93    4.13
 -12  -5  19   10.56    4.51
 -12  -5  20   -1.59    2.64
 -12  -5  21    0.63    3.01
 -12   6 -19   44.36    8.58
 -12  -6 -18   15.90    5.58
 -12   6 -18   18.87    7.29
 -12   6 -18    6.69    4.17
 -12  -6 -17   38.32   10.06
 -12   6 -17   62.82   10.69
 -12   6 -17   71.54   11.38
 -12  -6 -16   32.20    8.40
 -12   6 -16   36.03    8.47
 -12   6 -16   44.64    8.54
 -12  -6 -15   13.30    4.57
 -12   6 -15   12.24    5.44
 -12   6 -15   10.10    5.17
 -12   6 -14  112.23   13.47
 -12   6 -14  116.03   14.50
 -12  -6 -14   96.22   12.39
 -12   6 -13  123.55   14.61
 -12   6 -13  114.21   13.84
 -12  -6 -13  125.90   14.46
 -12   6 -12   11.39    5.05
 -12  -6 -12    7.51    3.12
 -12   6 -12    6.29    3.14
 -12   6 -11   66.23   10.26
 -12   6 -11   47.99    9.60
 -12  -6 -11   78.03   10.91
 -12   6 -10   80.35   11.27
 -12   6 -10   61.86   10.52
 -12  -6 -10   53.61    9.04
 -12   6  -9   23.00    7.03
 -12  -6  -9   25.86    6.98
 -12   6  -9   22.16    4.84
 -12  -6  -8  236.62   19.09
 -12   6  -8  198.17   18.03
 -12   6  -8  231.27   19.28
 -12  -6  -7  229.39   18.63
 -12   6  -7  221.21   19.30
 -12   6  -7  245.15   19.95
 -12  -6  -6   47.73    8.33
 -12   6  -6   32.71    7.35
 -12   6  -6   35.17    7.72
 -12  -6  -5   60.38    9.77
 -12   6  -5   60.03   10.05
 -12   6  -5   62.69   10.06
 -12  -6  -4  156.66   15.29
 -12  -6  -4  177.49   16.13
 -12   6  -4  139.48   14.98
 -12   6  -4  143.77   15.54
 -12  -6  -3  187.15   16.81
 -12  -6  -3  191.46   16.39
 -12   6  -3  191.17   17.83
 -12   6  -3  185.97   17.19
 -12  -6  -2  238.84   18.47
 -12  -6  -2  217.13   17.71
 -12   6  -2  216.96   18.98
 -12   6  -2  248.58   19.68
 -12   6  -1   82.41   11.59
 -12  -6  -1   64.24    9.87
 -12  -6  -1   48.09    9.80
 -12   6  -1   64.51   10.87
 -12  -6   0    4.19    2.72
 -12   6   0   -0.69    2.85
 -12   6   0   -1.92    2.47
 -12  -6   0    2.80    2.85
 -12   6   1   51.77    9.59
 -12  -6   1   55.08    8.90
 -12   6   1   38.29    8.03
 -12  -6   1   41.59    7.94
 -12   6   2  189.03   17.58
 -12  -6   2  246.30   18.95
 -12  -6   2  211.97   17.56
 -12   6   2  242.75   20.01
 -12  -6   3  174.50   15.91
 -12   6   3  174.93   17.05
 -12  -6   3  176.24   16.26
 -12   6   3  208.94   18.19
 -12  -6   4  120.39   13.45
 -12   6   4  144.93   15.74
 -12  -6   4  157.07   15.43
 -12   6   4  140.34   14.40
 -12   6   5   62.86   10.61
 -12  -6   5   45.37    8.11
 -12  -6   5   69.44   10.01
 -12   6   5   73.48   11.29
 -12  -6   6   44.92    8.52
 -12   6   6   36.43    8.51
 -12   6   6   54.22    9.71
 -12  -6   6   37.75    7.28
 -12  -6   7  267.79   19.99
 -12   6   7  254.40   20.26
 -12  -6   7  217.50   18.18
 -12   6   7  249.15   20.48
 -12  -6   8  192.04   17.21
 -12   6   8  244.54   19.98
 -12  -6   8  225.33   18.41
 -12   6   8  223.80   19.21
 -12  -6   9   28.41    6.55
 -12   6   9   44.83    9.08
 -12   6   9   18.80    5.71
 -12  -6   9   31.78    7.25
 -12  -6  10   70.04   10.72
 -12   6  10   81.77   11.94
 -12  -6  10   74.31   10.72
 -12   6  10   92.57   12.75
 -12   6  11   77.91   11.36
 -12  -6  11   60.40    9.91
 -12  -6  11   62.62    9.89
 -12   6  11   40.58    8.12
 -12  -6  12   11.82    5.72
 -12   6  12    5.22    3.13
 -12   6  12    5.91    2.89
 -12  -6  12   12.90    4.99
 -12  -6  13  126.09   14.26
 -12   6  13  118.60   15.11
 -12  -6  13  109.29   13.46
 -12   6  13  130.53   16.35
 -12  -6  14  104.97   12.93
 -12   6  14   97.46   13.53
 -12  -6  14  109.04   13.64
 -12   6  14   96.85   14.10
 -12   6  15   18.10    5.88
 -12   6  15    9.72    4.19
 -12  -6  15   19.23    5.65
 -12   6  16   36.33    8.01
 -12   6  16   39.49    8.71
 -12  -6  16   46.67    8.93
 -12  -6  17   87.31   12.20
 -12   6  17   56.86   10.62
 -12   6  17   65.44   11.62
 -12  -6  18    8.61    4.24
 -12   6  18    7.23    3.88
 -12  -6  19   44.30    8.95
 -12   6  19   33.45    8.57
 -12  -7 -17    5.01    5.23
 -12   7 -17    9.78    6.13
 -12   7 -17   16.72    6.37
 -12   7 -16   -2.00    3.72
 -12   7 -16    3.64    2.88
 -12  -7 -15   61.81    9.79
 -12   7 -15   55.34   10.19
 -12   7 -15   54.35   10.90
 -12  -7 -14    4.35    2.90
 -12   7 -14    8.22    4.04
 -12   7 -14   10.40    5.74
 -12  -7 -13   42.08    8.63
 -12   7 -13   24.62    6.71
 -12   7 -13   23.08    6.52
 -12  -7 -12   25.33    6.43
 -12   7 -12   33.04    8.52
 -12   7 -12   18.38    5.56
 -12  -7 -11    2.38    3.79
 -12   7 -11    3.04    3.81
 -12   7 -11    0.59    3.69
 -12   7 -10   30.19    7.71
 -12  -7 -10   40.62    8.41
 -12   7 -10   31.53    7.44
 -12  -7  -9   96.28   12.58
 -12   7  -9   83.82   11.77
 -12   7  -9  112.48   14.56
 -12   7  -8    9.78    5.80
 -12  -7  -8   11.61    5.46
 -12   7  -8   14.98    5.41
 -12   7  -7   21.97    6.86
 -12  -7  -7   18.50    4.92
 -12   7  -7   32.81    6.90
 -12   7  -6    8.14    3.17
 -12  -7  -6    3.76    2.78
 -12   7  -6   10.31    4.39
 -12   7  -5   -0.61    2.94
 -12  -7  -5    0.19    2.97
 -12   7  -5   -1.50    3.33
 -12  -7  -4   82.68   12.08
 -12   7  -4   66.09   10.92
 -12   7  -4   78.01   11.51
 -12   7  -3   14.07    5.52
 -12  -7  -3    5.96    4.22
 -12   7  -3    9.53    3.66
 -12   7  -2   25.22    7.37
 -12  -7  -2   24.78    5.94
 -12   7  -2   33.92    8.33
 -12  -7  -2   38.27    8.06
 -12  -7  -1   43.97    8.21
 -12  -7  -1   53.56    9.27
 -12   7  -1   64.32   10.17
 -12   7  -1   55.80    9.86
 -12   7   0   26.03    6.66
 -12  -7   0   22.59    6.71
 -12   7   0   23.85    6.57
 -12  -7   0   26.52    6.14
 -12  -7   1   59.85    8.86
 -12   7   1   44.23    8.93
 -12   7   1   70.73   11.62
 -12  -7   1   46.44    8.92
 -12  -7   2   33.64    7.23
 -12   7   2   31.69    8.19
 -12   7   2   29.80    7.00
 -12  -7   2   26.14    6.95
 -12  -7   3    4.19    1.91
 -12   7   3   15.97    4.50
 -12   7   3   12.69    4.91
 -12  -7   3    7.08    3.43
 -12  -7   4   98.93   12.61
 -12  -7   4   61.86   10.40
 -12   7   4   78.42   11.63
 -12   7   4   67.23   11.30
 -12  -7   5    0.50    2.63
 -12  -7   5    5.53    3.82
 -12   7   5    5.47    4.27
 -12   7   5    4.14    4.53
 -12  -7   6    1.56    2.08
 -12  -7   6    4.60    2.50
 -12   7   6    9.10    5.46
 -12   7   6    5.01    3.51
 -12  -7   7   21.15    5.08
 -12  -7   7   23.98    5.52
 -12   7   7   29.46    7.44
 -12   7   7   32.29    7.54
 -12  -7   8   18.66    5.56
 -12  -7   8   19.28    6.38
 -12   7   8   25.77    7.23
 -12   7   8   16.71    5.80
 -12   7   9   78.56   11.95
 -12  -7   9   98.22   12.55
 -12  -7   9   92.33   12.91
 -12   7   9  117.45   15.13
 -12  -7  10   30.79    6.67
 -12  -7  10   42.05    8.10
 -12   7  10   24.60    6.87
 -12   7  10   25.51    6.57
 -12  -7  11   -3.63    3.57
 -12  -7  11    2.07    3.71
 -12   7  11    0.18    2.59
 -12   7  11   -8.10    5.05
 -12  -7  12   18.24    5.43
 -12  -7  12   24.22    7.46
 -12   7  12   30.04    7.94
 -12   7  12   23.86    6.12
 -12  -7  13   23.27    5.44
 -12  -7  13   30.55    7.40
 -12   7  13   32.95    8.99
 -12   7  13   26.06    7.39
 -12  -7  14    8.32    1.93
 -12  -7  14    8.48    5.38
 -12   7  14   14.27    5.11
 -12   7  14    3.50    6.88
 -12  -7  15   54.95    9.46
 -12  -7  15   50.74   10.53
 -12   7  15   70.90   12.37
 -12  -7  16    1.08    3.51
 -12  -7  17    6.33    5.12
 -12  -8 -13   40.52    8.38
 -12   8 -13   52.18    9.61
 -12   8 -13   41.38    9.21
 -12  -8 -12   51.32    9.24
 -12   8 -12   79.60   11.66
 -12   8 -12   89.23   12.94
 -12  -8 -11    8.52    3.08
 -12   8 -11   12.62    5.32
 -12   8 -11   15.58    6.48
 -12  -8 -10   15.11    5.91
 -12   8 -10   21.55    5.79
 -12   8 -10   20.47    7.24
 -12  -8  -9   22.37    5.91
 -12   8  -9   27.34    6.69
 -12   8  -9   33.68    7.37
 -12  -8  -8   45.16    8.51
 -12   8  -8   32.55    7.96
 -12   8  -8   42.57    8.73
 -12  -8  -7   67.87   11.49
 -12   8  -7   59.46    9.88
 -12   8  -7   69.16   11.51
 -12   8  -6   45.54    9.27
 -12  -8  -6   37.37    8.73
 -12   8  -6   46.83    9.42
 -12   8  -5    6.53    4.01
 -12  -8  -5   -2.26    2.97
  12  -8  -5    2.80    2.51
 -12   8  -5   10.14    4.63
 -12   8  -4   13.87    5.26
 -12  -8  -4   12.42    4.68
  12  -8  -4   13.60    4.81
 -12   8  -4   16.84    6.38
 -12  -8  -3   95.39   12.44
  12  -8  -3   90.21   11.85
 -12   8  -3   52.44    9.62
 -12   8  -3   74.26   11.64
 -12   8  -2   33.01    7.58
 -12  -8  -2   34.38    7.80
 -12   8  -2   43.46    8.98
 -12   8  -1    1.29    2.54
 -12  -8  -1    6.89    4.92
 -12   8  -1    6.29    4.53
 -12  -8  -1    0.32    3.04
 -12   8   0    1.56    2.18
 -12  -8   0    4.65    3.54
 -12   8   0    5.75    4.82
 -12  -8   0    3.50    3.73
 -12  -8   1    4.39    5.12
 -12   8   1    7.24    3.98
 -12  -8   1   -0.17    4.35
 -12   8   1    4.82    4.75
 -12  -8   2   33.67    6.99
 -12   8   2   29.73    7.72
 -12  -8   2   49.71    9.10
 -12   8   2   29.01    7.92
 -12  -8   3   95.31   11.97
 -12  -8   3   63.26   10.33
 -12   8   3   65.88   12.19
 -12   8   3   90.35   12.61
 -12  -8   4    5.98    2.66
 -12   8   4   12.55    5.38
 -12  -8   4   16.16    4.98
 -12   8   4    8.50    3.57
 -12  -8   5    3.48    3.58
 -12   8   5    3.49    2.46
 -12  -8   5    4.76    2.29
 -12   8   5    5.67    5.16
 -12  -8   6   39.38    8.50
 -12   8   6   30.36    7.46
 -12  -8   6   55.30    9.78
 -12   8   6   39.51    8.88
 -12  -8   7   85.46   12.24
 -12  -8   7   54.23    9.28
 -12   8   7   68.37   10.76
 -12   8   7   74.27   12.26
 -12  -8   8   35.54    7.44
 -12   8   8   29.46    8.12
 -12  -8   8   48.51    9.06
 -12   8   8   40.00    9.22
 -12  -8   9   28.61    7.79
 -12   8   9   23.51    8.18
 -12  -8   9   41.73    9.18
 -12   8   9   19.27    7.63
 -12  -8  10   27.90    6.83
 -12   8  10   12.66    5.96
 -12  -8  10   12.18    5.28
 -12  -8  11   19.78    6.27
 -12   8  11    9.30    5.13
 -12  -8  11   13.69    7.25
 -12   8  12   67.93   11.97
 -12  -8  12   52.64   10.10
 -12  -8  12   62.68    9.96
 -12  -8  13   55.47    9.74
 -12   8  13   40.91    8.65
 -12  -8  13   55.81   10.46
 -12  -9  -8    1.08    3.27
 -12   9  -8    5.85    3.24
 -12   9  -8    7.38    4.31
 -12  -9  -7    6.26    3.96
 -12   9  -7    3.98    2.66
 -12   9  -7    2.61    2.95
 -12  -9  -6    7.39    5.99
 -12   9  -6    2.59    3.11
 -12   9  -6   10.87    5.62
 -12  -9  -5    7.11    3.51
 -12   9  -5   16.92    5.26
 -12   9  -5   12.31    4.86
 -12  -9  -4    0.58    2.02
  12  -9  -4   -0.88    3.03
 -12   9  -4    2.36    4.20
 -12   9  -4   -1.33    3.74
 -12   9  -3   34.60    7.85
 -12  -9  -3   41.64    8.90
  12  -9  -3   28.50    8.01
 -12   9  -3   34.75    8.73
 -12   9  -2    5.96    4.99
 -12  -9  -2    1.11    2.89
  12  -9  -2    1.64    3.19
 -12   9  -2   -2.13    4.07
 -12   9  -1   12.76    5.92
 -12  -9  -1    8.10    2.86
  12  -9  -1   21.45    6.76
 -12   9  -1   10.95    4.17
 -12   9   0    3.60    2.83
 -12  -9   0   -0.20    3.36
  12  -9   0   10.31    6.40
 -12   9   0    2.50    3.39
 -12   9   1    2.44    3.92
 -12  -9   1   11.84    4.45
 -12  -9   1   15.17    6.30
  12  -9   1   14.22    5.66
 -12   9   1   20.09    8.39
 -12   9   2    0.33    2.95
 -12  -9   2   -2.29    3.29
 -12  -9   2    1.04    3.01
  12  -9   2    2.79    3.32
 -12   9   2    0.35    3.57
 -12   9   3   59.96   10.65
 -12  -9   3   39.78    7.85
 -12  -9   3   33.76    6.88
  12  -9   3   33.62    8.09
 -12   9   4    3.08    4.98
 -12  -9   4    8.63    6.46
 -12  -9   4   13.26    6.70
  12  -9   4    0.16    3.55
 -12   9   5    8.73    4.18
 -12  -9   5   16.93    5.95
 -12  -9   5   20.97    6.80
  12  -9   5   13.00    5.08
 -12   9   6    6.43    4.52
 -12  -9   6   -0.44    2.68
 -12  -9   6    8.24    3.35
  12  -9   6    2.96    3.58
 -12   9   7    6.97    5.41
 -12  -9   7    1.91    2.07
 -12  -9   7    1.60    3.29
  12  -9   7   -1.72    2.91
 -12   9   8    6.72    3.80
 -12  -9   8   10.47    3.76
 -12  -9   8   13.33    4.84
  12  -9   8    9.77    5.52
 -13   0 -21   -5.87    4.79
 -13   0 -20    0.46    3.38
 -13   0 -19    6.23    4.01
 -13   0 -18    2.25    2.52
 -13   0 -17    4.38    3.01
 -13   0 -16    6.48    4.56
 -13   0 -15    0.89    3.52
 -13   0 -14    3.31    4.32
 -13   0 -13   -0.30    2.16
 -13   0 -12    1.64    2.78
 -13   0 -11   -1.11    3.10
 -13   0 -11   -0.12    1.78
 -13   0 -10   -0.15    2.98
 -13   0 -10   -0.82    2.34
 -13   0  -9    2.33    3.37
 -13   0  -9   -0.57    3.18
 -13   0  -8   -0.51    2.21
 -13   0  -8    3.24    3.04
 -13   0  -7   -1.29    2.47
 -13   0  -7   -0.91    1.51
 -13   0  -6    0.23    2.52
 -13   0  -6    0.84    2.88
 -13   0  -5    1.41    1.37
 -13   0  -5   -1.90    3.52
 -13   0  -4   -1.06    1.80
 -13   0  -4    0.71    2.43
 -13   0  -4   -0.04    2.33
 -13   0  -3   -1.09    2.20
 -13   0  -3    2.50    3.10
 -13   0  -3    0.01    3.01
 -13   0  -2   -1.39    2.55
 -13   0  -2   -0.24    2.44
 -13   0  -2   -2.61    3.58
 -13   0  -1    1.51    2.85
 -13   0  -1    0.61    1.71
 -13   0  -1   -1.16    2.75
 -13   0   0    2.15    2.09
 -13   0   0   -1.18    2.06
 -13   0   0   -0.33    2.33
 -13   0   1   -0.73    1.73
 -13   0   1   -1.41    1.57
 -13   0   1   -1.04    2.53
 -13   0   2   -0.88    2.82
 -13   0   2   -0.16    1.63
 -13   0   2    3.45    3.01
 -13   0   3    1.26    2.10
 -13   0   3   -0.47    1.70
 -13   0   4    0.14    2.59
 -13   0   4    1.67    3.58
 -13   0   5   -0.36    2.66
 -13   0   5   -0.53    2.66
 -13   0   6    0.09    1.84
 -13   0   6    3.48    3.62
 -13   0   7   -0.32    2.20
 -13   0   7   -0.43    2.99
 -13   0   8   -3.04    3.34
 -13   0   8   -0.03    2.35
 -13   0   9   -0.11    2.04
 -13   0   9   -0.70    2.20
 -13   0  10    2.40    1.71
 -13   0  11    0.12    1.70
 -13   0  12    7.57    5.15
 -13   0  13    3.62    3.24
 -13   0  14   -0.30    2.80
 -13   0  15   -1.47    1.96
 -13   0  16   -0.01    3.90
 -13   0  17    2.16    4.03
 -13   0  18    1.26    4.01
 -13   0  19    3.14    4.02
 -13   0  20    0.76    3.59
 -13   0  21   -2.64    3.21
 -13   0  22   -2.39    4.03
 -13   0  23    0.63    4.70
 -13   0  24    1.93    3.46
 -13   1 -24    7.91    3.91
 -13   1 -23   12.38    5.43
 -13   1 -22   22.25    7.29
 -13   1 -21   95.85   13.32
 -13   1 -20  135.08   14.74
 -13   1 -19   10.34    4.95
 -13   1 -18    8.31    3.61
 -13  -1 -17   38.93    8.59
 -13   1 -17   49.51    8.64
 -13  -1 -16  137.80   14.86
 -13   1 -16  147.38   15.55
 -13  -1 -15   53.04    9.20
 -13   1 -15   72.10   10.52
 -13  -1 -14  122.19   13.69
 -13   1 -14  125.53   14.27
 -13  -1 -13   28.17    6.15
 -13   1 -13   18.64    5.53
 -13  -1 -12  108.13   12.43
 -13   1 -12  104.86   12.64
 -13   1 -11   26.50    6.74
 -13   1 -11   20.47    5.72
 -13  -1 -11   13.61    4.29
 -13  -1 -11   20.60    5.43
 -13   1 -10  145.65   14.50
 -13  -1 -10  175.73   15.68
 -13   1 -10  154.33   15.29
 -13  -1 -10  136.09   14.21
 -13  -1 -10  164.97   14.97
 -13   1  -9  180.40   15.62
 -13  -1  -9  186.50   15.49
 -13   1  -9  178.77   16.57
 -13  -1  -9  196.81   16.65
 -13  -1  -9  165.77   14.73
 -13   1  -8   27.00    6.36
 -13  -1  -8   34.83    6.77
 -13   1  -8   27.66    6.59
 -13  -1  -8   25.23    5.64
 -13  -1  -8   32.50    6.64
 -13   1  -7   57.58    8.85
 -13  -1  -7   65.03    9.16
 -13   1  -7   65.83   10.12
 -13  -1  -7   66.06    9.08
 -13  -1  -7   52.88    8.40
 -13   1  -6   62.18    9.05
 -13  -1  -6   73.30    9.35
 -13   1  -6   70.08   10.19
 -13  -1  -6   74.96    9.53
 -13  -1  -6   69.39    9.76
 -13   1  -5  395.23   22.80
 -13  -1  -5  418.18   22.67
 -13   1  -5  422.76   24.46
 -13  -1  -5  465.87   25.37
 -13  -1  -5  432.99   23.63
 -13   1  -4   73.98    9.82
 -13  -1  -4   67.53    8.91
 -13   1  -4   61.87    9.08
 -13  -1  -4   69.97    9.58
 -13  -1  -4   71.99    9.61
 -13  -1  -3  102.51   11.18
 -13   1  -3   90.20   11.33
 -13  -1  -3   84.47   11.42
 -13  -1  -3  110.81   11.90
 -13   1  -2  218.24   17.07
 -13  -1  -2  211.01   15.86
 -13   1  -2  193.15   16.78
 -13  -1  -2  206.86   16.68
 -13  -1  -2  201.85   15.42
 -13   1  -1  116.94   12.94
 -13  -1  -1  131.78   13.05
 -13   1  -1  150.14   14.20
 -13  -1  -1  150.57   14.14
 -13  -1  -1  144.85   13.23
 -13   1   0 1422.70   43.41
 -13  -1   0 1358.44   41.40
 -13   1   0 1431.95   44.54
 -13  -1   0 1439.87   44.54
 -13   1   1  156.98   14.12
 -13  -1   1  157.23   14.19
 -13   1   1  146.31   14.36
 -13  -1   1  157.73   14.54
 -13  -1   1  147.03   13.25
 -13   1   2  200.13   16.36
 -13  -1   2  186.20   15.49
 -13   1   2  210.07   17.20
 -13  -1   2  190.52   15.36
 -13   1   3   95.29   11.00
 -13  -1   3   88.61   10.92
 -13   1   3   90.50   11.51
 -13  -1   3   91.19   10.20
 -13   1   4   66.69    9.91
 -13  -1   4   70.93    9.61
 -13   1   4   77.65   11.04
 -13  -1   4   89.33   10.33
 -13   1   5  392.39   23.10
 -13  -1   5  415.17   23.72
 -13  -1   5  456.22   23.56
 -13   1   6   73.04   10.27
 -13  -1   6   51.03    8.62
 -13  -1   6   64.43    8.72
 -13   1   7   61.71    9.35
 -13  -1   7   50.18    8.77
 -13  -1   7   55.45    8.70
 -13  -1   8   38.78    7.18
 -13   1   8   37.00    7.38
 -13  -1   8   29.74    5.71
 -13   1   9  191.37   15.86
 -13  -1   9  216.00   17.22
 -13  -1   9  212.45   16.15
 -13   1  10  168.43   15.27
 -13  -1  10  158.42   15.01
 -13  -1  10  154.45   13.88
 -13  -1  11   23.73    6.62
 -13   1  11   18.23    5.98
 -13  -1  11    9.29    3.88
 -13   1  12   86.05   11.65
 -13  -1  12   71.46   11.18
 -13  -1  12   87.90   10.43
 -13  -1  13   32.22    6.66
 -13   1  13   27.90    6.60
 -13   1  14  130.93   14.12
 -13  -1  14  134.56   13.85
 -13   1  15   75.79   10.60
 -13  -1  15   89.24   11.86
 -13   1  16  145.12   15.14
 -13  -1  16  147.47   16.07
 -13  -1  17   49.42    8.69
 -13   1  17   33.89    8.23
 -13  -1  18    5.88    3.96
 -13   1  18    6.58    5.11
 -13  -1  19   10.22    6.08
 -13   1  19    4.38    3.92
 -13   1  20  127.56   14.89
 -13  -1  20  151.88   15.97
 -13   1  21  117.84   15.43
 -13  -1  21  122.39   14.87
 -13  -1  22    3.26    2.59
 -13   1  22    7.42    5.26
 -13  -1  23    6.49    6.80
 -13   1  23   16.03    7.67
 -13  -1  24   20.33    7.25
 -13   2 -23   24.72    5.90
 -13   2 -22    8.64    5.49
 -13   2 -21   23.10    6.12
 -13   2 -20    3.77    3.08
 -13   2 -19   -0.69    3.60
 -13   2 -18    6.03    4.96
 -13   2 -17   96.37   12.76
 -13   2 -16    4.31    3.04
 -13   2 -15   10.78    4.41
 -13  -2 -15    6.05    2.88
 -13   2 -14    9.86    4.51
 -13  -2 -14   10.78    4.53
 -13   2 -13   20.06    5.51
 -13   2 -13   11.00    5.03
 -13  -2 -13   15.85    5.28
 -13   2 -12   62.48    9.64
 -13   2 -12   69.21   10.32
 -13  -2 -12   71.85   10.50
 -13   2 -11  239.58   18.83
 -13   2 -11  240.91   19.15
 -13  -2 -11  257.41   19.30
 -13  -2 -11  276.57   20.12
 -13   2 -10   15.07    5.02
 -13   2 -10   20.60    6.46
 -13  -2 -10    9.36    3.10
 -13  -2 -10   18.52    4.58
 -13   2  -9   13.76    5.35
 -13   2  -9   15.91    5.19
 -13  -2  -9   13.49    4.61
 -13  -2  -9   12.84    4.52
 -13   2  -8   81.41   10.77
 -13  -2  -8   92.15   10.69
 -13   2  -8   76.69   11.02
 -13  -2  -8   90.92   10.97
 -13  -2  -8   99.89   11.34
 -13   2  -7   46.34    7.87
 -13  -2  -7   45.85    7.82
 -13   2  -7   42.32    8.09
 -13  -2  -7   35.75    7.18
 -13  -2  -7   41.72    7.11
 -13   2  -6    8.97    4.49
 -13   2  -6    3.09    2.36
 -13  -2  -6   10.18    4.34
 -13  -2  -6   10.48    4.26
 -13  -2  -6   15.25    4.89
 -13  -2  -5    1.98    2.24
 -13   2  -5   -0.85    3.09
 -13   2  -5    3.07    2.95
 -13  -2  -5   -0.14    1.90
 -13  -2  -5   -0.67    2.15
 -13  -2  -4   17.70    6.07
 -13   2  -4   14.83    4.84
 -13   2  -4   19.96    4.65
 -13  -2  -4   17.21    4.72
 -13  -2  -4   19.82    6.01
 -13   2  -3  113.40   12.50
 -13  -2  -3  137.55   13.28
 -13   2  -3   89.52   11.42
 -13  -2  -3  106.95   12.14
 -13  -2  -3  120.81   12.32
 -13   2  -2   54.43    8.76
 -13  -2  -2   60.15    9.21
 -13   2  -2   51.60    8.92
 -13  -2  -2   61.34    9.13
 -13  -2  -2   52.44    8.29
 -13   2  -1   84.79   10.90
 -13  -2  -1   71.61    9.79
 -13   2  -1   83.76   11.16
 -13  -2  -1   53.80    8.66
 -13  -2  -1   68.65    9.37
 -13   2   0  683.31   30.44
 -13  -2   0  685.49   29.62
 -13   2   0  745.94   32.77
 -13  -2   0  698.78   30.73
 -13  -2   0  633.99   29.07
 -13   2   1   85.49   10.91
 -13  -2   1   68.07    9.37
 -13   2   1   66.55    9.81
 -13  -2   1   82.47   10.79
 -13  -2   1   64.25    9.87
 -13   2   2   61.94    9.08
 -13   2   2   56.87    8.99
 -13  -2   2   80.46   10.23
 -13  -2   2   65.04    8.92
 -13   2   3  133.12   13.28
 -13   2   3  115.23   12.58
 -13  -2   3  117.94   12.58
 -13  -2   3  114.13   11.93
 -13  -2   4   14.36    4.26
 -13  -2   4   20.04    4.50
 -13   2   4   17.09    5.30
 -13   2   4   12.92    4.71
 -13  -2   5    0.44    2.17
 -13  -2   5    2.80    3.39
 -13   2   5    1.52    1.39
 -13   2   5    0.63    1.93
 -13  -2   6    6.54    4.10
 -13  -2   6   11.08    3.88
 -13   2   6    5.75    1.86
 -13   2   6    1.90    2.49
 -13  -2   7   41.84    7.28
 -13  -2   7   32.01    6.93
 -13   2   7   43.48    7.71
 -13   2   8   70.88   10.32
 -13  -2   8   54.77    8.63
 -13  -2   8   75.87   10.25
 -13  -2   9   20.07    5.02
 -13  -2   9   14.88    5.98
 -13   2   9   23.95    5.61
 -13  -2  10   12.99    4.61
 -13  -2  10   25.45    5.89
 -13   2  10   15.80    5.74
 -13   2  11  296.52   20.59
 -13  -2  11  243.93   19.30
 -13  -2  11  268.19   18.45
 -13   2  12   66.37   10.04
 -13  -2  12   69.20    9.58
 -13  -2  12   66.32   10.42
 -13  -2  13   12.81    5.62
 -13   2  13   12.03    3.01
 -13  -2  14    7.74    5.01
 -13   2  14    7.39    2.13
 -13  -2  15    8.01    2.40
 -13   2  15    9.90    4.66
 -13  -2  16   12.17    4.42
 -13   2  16    5.70    4.27
 -13   2  17   97.45   12.94
 -13  -2  17   86.62   12.12
 -13  -2  18    4.09    3.48
 -13   2  18   -2.51    5.29
 -13  -2  19   -0.80    3.63
 -13   2  19   -2.20    4.29
 -13  -2  20    6.62    4.66
 -13   2  20    0.98    2.28
 -13  -2  21   24.22    7.14
 -13   2  21   14.99    4.26
 -13  -2  22    5.73    3.33
 -13   2  22    9.16    3.07
 -13  -2  23   23.12    6.51
 -13   3 -22   64.41   11.27
 -13   3 -21   14.42    5.66
 -13   3 -20   33.60    7.72
 -13   3 -19   21.43    5.57
 -13   3 -18   19.46    5.09
 -13  -3 -18   31.85    8.00
 -13   3 -17   37.03    8.17
 -13  -3 -17   32.48    7.75
 -13   3 -16  337.39   23.38
 -13  -3 -16  356.33   24.13
 -13   3 -15   69.82   10.54
 -13  -3 -15   58.10    9.24
 -13   3 -14  166.48   16.06
 -13  -3 -14  209.10   17.90
 -13   3 -14  154.49   16.33
 -13   3 -13   83.22   11.64
 -13  -3 -13   58.65    9.33
 -13   3 -13   61.31    9.91
 -13   3 -12  235.51   18.97
 -13  -3 -12  213.19   17.84
 -13   3 -12  231.35   19.45
 -13   3 -11   27.00    6.73
 -13   3 -11   32.06    7.23
 -13  -3 -11   21.34    6.78
 -13   3 -10  437.16   25.81
 -13   3 -10  470.79   27.39
 -13  -3 -10  410.62   24.40
 -13   3  -9   59.18    9.75
 -13   3  -9   55.62    9.34
 -13  -3  -9   56.22    9.06
 -13   3  -8   61.06    9.74
 -13   3  -8   74.43   10.79
 -13  -3  -8   75.37   10.10
 -13   3  -7   55.61    9.55
 -13  -3  -7   61.08    9.18
 -13   3  -7   47.49    8.38
 -13  -3  -7   47.60    9.05
 -13   3  -6   83.54   11.33
 -13  -3  -6   91.03   11.29
 -13   3  -6   94.44   12.01
 -13  -3  -6  118.85   13.65
 -13  -3  -6  119.74   12.88
 -13  -3  -5    2.81    2.87
 -13  -3  -5   13.48    4.36
 -13   3  -5   13.46    4.06
 -13   3  -5    4.25    2.33
 -13  -3  -5    8.46    4.10
 -13   3  -4  354.01   22.07
 -13   3  -4  327.56   22.33
 -13  -3  -4  306.79   20.01
 -13  -3  -4  320.47   20.68
 -13  -3  -4  362.89   22.31
 -13   3  -3   58.13    9.24
 -13   3  -3   62.55    9.54
 -13  -3  -3   57.41    8.55
 -13  -3  -3   64.33    9.45
 -13  -3  -3   64.93    8.94
 -13  -3  -2    3.84    2.91
 -13  -3  -2    2.67    2.14
 -13   3  -2    6.48    3.01
 -13   3  -2    5.78    3.89
 -13  -3  -2    3.73    3.65
 -13  -3  -1   13.14    4.70
 -13  -3  -1   20.76    5.09
 -13   3  -1   17.91    4.94
 -13   3  -1   18.02    5.53
 -13  -3  -1   16.85    5.18
 -13   3   0  115.26   13.20
 -13   3   0  129.69   14.28
 -13  -3   0  128.60   13.22
 -13  -3   0  133.09   13.33
 -13  -3   0  129.53   13.67
 -13  -3   1   17.40    5.26
 -13  -3   1   24.71    5.90
 -13   3   1   25.33    6.04
 -13   3   1   21.01    5.37
 -13  -3   2    5.82    3.44
 -13  -3   2    6.05    3.32
 -13   3   2    3.71    3.88
 -13   3   2    9.98    5.05
 -13   3   3   59.36    8.69
 -13   3   3   56.01    8.80
 -13  -3   3   56.33    8.80
 -13  -3   3   63.16    9.22
 -13   3   4  326.72   21.47
 -13   3   4  323.57   22.19
 -13  -3   4  274.50   19.18
 -13  -3   4  345.58   21.75
 -13  -3   5   16.63    5.05
 -13  -3   5   11.91    4.58
 -13   3   5   14.38    5.00
 -13   3   5   14.09    4.66
 -13  -3   6   82.45   10.86
 -13   3   6   97.79   11.80
 -13   3   6  107.00   12.68
 -13  -3   6   80.94   10.35
 -13  -3   7   60.50    9.31
 -13   3   7   59.24    9.51
 -13   3   7   65.79   10.17
 -13  -3   7   63.11    9.53
 -13  -3   8   63.60    9.84
 -13   3   8   76.10   10.57
 -13   3   8   75.92   10.78
 -13  -3   8   71.61    9.64
 -13  -3   9   54.94    8.94
 -13   3   9   61.77    9.52
 -13  -3   9   50.61    8.51
 -13   3  10  363.34   23.46
 -13  -3  10  390.63   22.92
 -13  -3  11   20.09    5.49
 -13  -3  11   35.82    8.03
 -13   3  11   19.92    5.97
 -13  -3  12  220.65   18.46
 -13   3  12  249.07   19.88
 -13  -3  12  235.97   18.02
 -13   3  13   68.26   10.53
 -13  -3  13   58.34    8.60
 -13  -3  13   74.18   10.49
 -13  -3  14  157.65   15.97
 -13   3  14  192.89   17.72
 -13  -3  15   66.13   10.52
 -13   3  15   58.87   10.57
 -13  -3  16  304.91   22.32
 -13   3  16  304.48   22.83
 -13  -3  17   24.94    6.40
 -13   3  17   28.86    7.24
 -13  -3  18   22.57    6.92
 -13   3  18   29.53    7.95
 -13  -3  19   26.87    7.00
 -13   3  19   23.09    7.02
 -13  -3  20   51.27    9.34
 -13   3  20   56.28    9.82
 -13  -3  21   31.52    7.50
 -13   3  21   21.67    8.03
 -13  -3  22   97.85   13.14
 -13   4 -21   28.28    8.34
 -13   4 -20    7.61    4.04
 -13  -4 -20   10.14    4.88
 -13   4 -19   37.35    7.32
 -13  -4 -19   26.80    7.54
 -13   4 -18    3.58    3.71
 -13  -4 -18   -3.52    4.01
 -13   4 -17   35.42    8.35
 -13  -4 -17   24.78    7.47
 -13   4 -16    1.20    1.81
 -13   4 -16    5.50    5.18
 -13  -4 -16    1.79    1.98
 -13   4 -15   20.44    6.59
 -13   4 -15   17.90    5.47
 -13  -4 -15   15.37    5.09
 -13   4 -14    5.25    3.47
 -13  -4 -14    6.66    4.52
 -13  -4 -13    3.49    1.86
 -13   4 -13    5.23    2.33
 -13   4 -13    3.74    3.58
 -13  -4 -12    8.86    3.22
 -13   4 -12    6.81    4.44
 -13   4 -12   14.89    5.93
 -13  -4 -11    0.41    1.82
 -13   4 -11    0.86    2.92
 -13   4 -11    0.30    1.80
 -13  -4 -10   13.12    4.66
 -13   4 -10   21.86    5.93
 -13   4 -10   12.94    5.45
 -13   4  -9  283.06   21.31
 -13  -4  -9  268.42   19.65
 -13   4  -9  269.99   20.61
 -13  -4  -8    7.34    3.63
 -13   4  -8    2.57    2.89
 -13   4  -8    0.66    4.11
 -13  -4  -7   23.20    5.36
 -13   4  -7    9.66    3.70
 -13   4  -7   22.61    6.77
 -13   4  -6  143.01   14.70
 -13   4  -6  174.34   16.54
 -13  -4  -6  137.94   13.49
 -13  -4  -5   11.64    4.67
 -13  -4  -5   14.08    4.95
 -13   4  -5   11.30    5.06
 -13   4  -5   13.90    4.26
 -13  -4  -4   37.15    7.01
 -13  -4  -4   42.35    7.51
 -13   4  -4   46.59    8.10
 -13   4  -4   35.34    7.80
 -13  -4  -3   15.04    5.49
 -13  -4  -3   22.75    4.79
 -13   4  -3   16.33    5.56
 -13   4  -3   17.51    5.63
 -13   4  -2  178.87   16.18
 -13   4  -2  214.65   18.05
 -13  -4  -2  207.13   16.48
 -13  -4  -2  185.78   15.72
 -13   4  -1  110.47   12.56
 -13   4  -1  124.51   14.43
 -13  -4  -1  124.09   13.42
 -13  -4  -1  137.27   13.82
 -13  -4   0    6.78    3.42
 -13   4   0    9.16    3.47
 -13  -4   0    9.61    4.46
 -13   4   0    8.60    3.80
 -13  -4   0   11.31    6.06
 -13  -4   1  119.43   12.75
 -13   4   1  115.53   13.17
 -13   4   1  118.18   13.80
 -13  -4   2  243.78   18.15
 -13   4   2  181.58   16.41
 -13   4   2  186.42   16.76
 -13  -4   2  204.23   16.62
 -13  -4   3   12.11    4.22
 -13   4   3   19.02    5.65
 -13  -4   3   17.17    5.50
 -13   4   3   23.84    7.32
 -13  -4   4   55.84    8.83
 -13   4   4   49.40    8.76
 -13  -4   4   33.56    6.80
 -13   4   4   23.85    5.62
 -13  -4   5   11.68    4.51
 -13   4   5   13.50    5.23
 -13  -4   5   12.34    4.10
 -13   4   5    6.12    3.38
 -13  -4   6  146.23   14.22
 -13  -4   6  166.06   15.25
 -13   4   6  121.38   13.48
 -13   4   6  153.12   16.60
 -13  -4   7   23.73    5.56
 -13   4   7   15.69    5.54
 -13  -4   7   11.88    3.93
 -13   4   7   14.89    5.04
 -13  -4   8    3.90    3.60
 -13   4   8    3.54    3.38
 -13  -4   8    5.80    3.79
 -13   4   8    4.67    4.33
 -13  -4   9  244.83   18.59
 -13  -4   9  277.44   20.09
 -13   4   9  283.16   20.78
 -13   4   9  254.48   20.28
 -13  -4  10   19.47    6.04
 -13   4  10   11.57    3.72
 -13  -4  10   11.31    4.68
 -13   4  10   13.10    5.19
 -13  -4  11    0.99    2.40
 -13   4  11    2.85    3.69
 -13  -4  11   -0.82    2.00
 -13   4  11    0.97    3.02
 -13  -4  12   16.14    6.11
 -13   4  12   11.55    2.49
 -13  -4  12   18.41    5.90
 -13  -4  13    1.23    2.78
 -13   4  13   -0.58    3.53
 -13  -4  13   -2.01    1.93
 -13   4  14   12.16    4.84
 -13  -4  14    5.99    2.57
 -13   4  15   26.78    5.38
 -13  -4  15   29.36    6.93
 -13   4  16    3.43    2.65
 -13  -4  16    8.70    3.55
 -13   4  17   35.90    8.39
 -13  -4  17   28.52    7.07
 -13   4  18   -3.32    5.69
 -13  -4  18   -0.50    2.57
 -13   4  19   24.95    6.77
 -13  -4  19   31.08    7.98
 -13   4  20    8.34    6.08
 -13  -4  20   21.79    7.23
 -13  -4  21   19.10    5.69
 -13   5 -20   36.46    8.69
 -13   5 -19   20.30    6.90
 -13  -5 -19   17.90    6.42
 -13   5 -18   -0.88    4.11
 -13  -5 -18    9.08    4.50
 -13   5 -17   52.97    9.80
 -13  -5 -17   32.90    7.94
 -13  -5 -16   27.04    8.57
 -13   5 -16   33.21    7.50
 -13   5 -16   38.74    8.16
 -13   5 -15   14.43    5.48
 -13  -5 -15   13.81    5.67
 -13   5 -15    9.52    4.54
 -13  -5 -14   32.52    8.21
 -13   5 -14   43.84    8.44
 -13   5 -14   39.13    8.16
 -13  -5 -13   16.12    6.08
 -13   5 -13    6.97    3.90
 -13   5 -13    7.44    3.58
 -13  -5 -12   27.65    6.89
 -13   5 -12   17.83    5.15
 -13   5 -12   37.77    8.61
 -13   5 -11  112.97   13.36
 -13   5 -11  112.58   13.64
 -13  -5 -11  115.63   13.59
 -13  -5 -10   43.74    8.29
 -13   5 -10   38.29    8.32
 -13   5 -10   32.05    7.79
 -13  -5  -9    2.46    2.26
 -13   5  -9    0.67    2.95
 -13  -5  -8   23.78    5.94
 -13   5  -8   28.94    7.39
 -13   5  -8   10.64    5.13
 -13   5  -7   65.61   10.68
 -13  -5  -7   62.72    9.47
 -13   5  -7   76.04   10.84
 -13   5  -6  132.13   14.36
 -13   5  -6  143.22   15.35
 -13  -5  -6  114.91   12.67
 -13   5  -5   26.43    6.93
 -13  -5  -5   30.68    7.39
 -13   5  -5   39.83    7.87
 -13  -5  -5   49.03    8.40
 -13   5  -4   99.50   13.02
 -13   5  -4   88.98   12.07
 -13  -5  -4  105.81   12.24
 -13  -5  -4  107.58   13.21
 -13  -5  -3  102.15   12.21
 -13   5  -3  127.00   14.67
 -13   5  -3  108.57   12.84
 -13  -5  -3   93.05   11.31
 -13  -5  -2  285.59   20.44
 -13  -5  -2  255.25   18.77
 -13   5  -2  268.98   20.56
 -13   5  -2  299.97   21.94
 -13  -5  -1  218.86   17.48
 -13  -5  -1  218.63   17.51
 -13   5  -1  166.26   16.07
 -13   5  -1  175.77   16.50
 -13  -5   0    9.31    4.89
 -13   5   0    2.98    2.48
 -13  -5   0    8.15    4.00
 -13   5   0   14.15    5.21
 -13  -5   1  218.50   17.52
 -13  -5   1  211.97   17.16
 -13   5   1  207.20   18.20
 -13   5   1  205.80   18.21
 -13  -5   2  262.99   19.35
 -13   5   2  250.14   19.83
 -13  -5   2  269.08   19.97
 -13   5   2  239.85   19.89
 -13  -5   3  109.69   12.54
 -13   5   3   78.20   11.40
 -13  -5   3   97.32   12.17
 -13   5   3   93.81   12.51
 -13  -5   4  123.80   13.57
 -13   5   4  100.18   13.01
 -13  -5   4  125.87   13.46
 -13   5   4  113.45   13.68
 -13  -5   5   52.40    8.74
 -13   5   5   75.02   10.64
 -13  -5   5   41.19    7.35
 -13   5   5   51.62    9.50
 -13  -5   6  107.65   12.83
 -13   5   6  111.95   13.37
 -13  -5   6  140.43   14.65
 -13   5   6  144.35   15.26
 -13  -5   7   55.99    9.27
 -13   5   7   68.86   10.52
 -13  -5   7   40.72    7.81
 -13   5   7   52.83    9.81
 -13  -5   8   12.83    4.42
 -13   5   8   20.80    5.39
 -13  -5   8   16.47    5.87
 -13   5   8   21.01    6.55
 -13  -5   9    6.81    3.71
 -13   5   9    2.95    2.18
 -13  -5   9    9.09    4.51
 -13   5   9   -0.10    4.83
 -13  -5  10   55.42    8.77
 -13   5  10   39.31    9.04
 -13  -5  10   39.73    8.22
 -13   5  10   38.15    9.31
 -13  -5  11  122.13   14.19
 -13   5  11  125.98   14.22
 -13   5  11  115.14   14.66
 -13  -5  12   28.08    7.73
 -13   5  12   22.98    7.46
 -13  -5  12   24.41    7.68
 -13   5  12   25.67    7.64
 -13  -5  13   10.78    6.04
 -13   5  13   11.76    6.10
 -13  -5  13   10.55    5.81
 -13   5  13   10.54    3.10
 -13  -5  14   39.19    7.93
 -13   5  14   34.28    7.38
 -13  -5  14   52.75    9.04
 -13   5  14   42.12    9.03
 -13   5  15   18.83    6.28
 -13   5  15   11.16    3.78
 -13   5  16   21.11    6.55
 -13  -5  16   44.50    9.28
 -13   5  17   48.85   10.76
 -13  -5  17   41.34    8.20
 -13   5  18    9.71    4.39
 -13  -5  18   17.63    5.94
 -13  -5  19   19.62    7.38
 -13  -5  20   35.53    7.94
 -13  -6 -18   -1.11    3.95
 -13   6 -18    0.41    3.35
 -13  -6 -17   10.96    6.17
 -13   6 -17    6.50    3.76
 -13   6 -17    2.04    2.49
 -13  -6 -16   -2.95    4.67
 -13   6 -16    3.66    3.11
 -13   6 -16   -0.87    2.32
 -13  -6 -15    3.69    2.41
 -13   6 -15    6.03    3.56
 -13   6 -15    4.11    4.22
 -13  -6 -14   15.00    5.23
 -13   6 -14   10.64    4.47
 -13   6 -14   15.89    5.87
 -13  -6 -13    2.46    2.68
 -13   6 -13   10.05    3.49
 -13   6 -12    4.17    3.01
 -13  -6 -12    2.19    2.18
 -13   6 -12    1.08    2.17
 -13   6 -11   31.58    7.37
 -13  -6 -11   21.27    6.29
 -13   6 -11   18.78    5.96
 -13  -6 -10    3.72    2.05
 -13   6 -10    2.01    2.70
 -13  -6  -9    3.54    2.51
 -13   6  -9    2.70    3.01
 -13   6  -9    5.21    3.83
 -13  -6  -8    6.47    2.66
 -13   6  -8    6.99    4.40
 -13   6  -8    8.57    4.22
 -13  -6  -7   -2.06    3.53
 -13   6  -7    6.30    2.73
 -13   6  -7    8.74    4.67
 -13  -6  -6    4.94    4.18
 -13   6  -6    6.65    4.03
 -13   6  -6    2.95    3.29
 -13  -6  -5    2.24    3.47
 -13   6  -5    6.12    1.97
 -13  -6  -4    0.50    3.53
 -13   6  -4    3.45    4.94
 -13   6  -4    2.58    2.26
 -13  -6  -3   15.70    5.76
 -13   6  -3   20.42    5.25
 -13  -6  -3   18.96    4.83
 -13   6  -3   16.88    4.51
 -13  -6  -2   25.88    6.91
 -13   6  -2   30.19    7.32
 -13  -6  -2   14.34    5.36
 -13   6  -2   20.38    7.31
 -13  -6  -1   13.24    4.72
 -13   6  -1   32.13    8.08
 -13  -6  -1   19.73    5.15
 -13   6  -1   30.01    7.07
 -13  -6   0   -0.28    3.71
 -13   6   0    2.72    4.53
 -13  -6   0    0.88    2.44
 -13   6   0   -1.03    3.95
 -13  -6   1   10.10    5.08
 -13   6   1   15.80    5.69
 -13  -6   1   22.00    5.64
 -13   6   1   24.60    6.73
 -13  -6   2   16.34    6.29
 -13   6   2   12.90    5.38
 -13  -6   2   11.81    4.96
 -13   6   2   12.06    5.39
 -13  -6   3   17.73    4.63
 -13   6   3    6.01    2.86
 -13  -6   3   11.35    3.75
 -13   6   3   14.95    4.86
 -13  -6   4   -0.56    2.33
 -13   6   4   -2.00    2.11
 -13  -6   4   -0.11    4.71
 -13   6   4   -0.02    4.66
 -13  -6   5    1.30    3.06
 -13   6   5    5.92    3.36
 -13  -6   5    2.31    2.20
 -13   6   5    3.97    2.62
 -13  -6   6    6.19    3.83
 -13   6   6    3.84    4.36
 -13  -6   6    5.36    1.88
 -13   6   6    2.06    2.77
 -13  -6   7    9.55    4.82
 -13   6   7   11.79    3.77
 -13  -6   7    9.14    4.11
 -13   6   7    9.52    5.44
 -13  -6   8    2.61    2.26
 -13   6   8    3.75    2.68
 -13  -6   8   10.38    4.05
 -13   6   8    3.62    2.99
 -13  -6   9    3.75    4.09
 -13   6   9    1.61    2.76
 -13  -6   9    4.82    3.67
 -13   6   9    4.62    5.03
 -13  -6  10    7.75    4.52
 -13   6  10    3.68    2.63
 -13  -6  10   12.44    5.60
 -13   6  10    5.18    5.46
 -13  -6  11   13.36    6.31
 -13   6  11    8.27    3.82
 -13  -6  11   11.24    4.61
 -13   6  11    5.07    2.43
 -13  -6  12    7.64    6.14
 -13   6  12   -5.06    4.67
 -13  -6  12    2.07    3.25
 -13   6  12   -0.16    2.44
 -13  -6  13   15.29    6.75
 -13   6  13    9.04    4.40
 -13  -6  13    8.04    3.38
 -13   6  13    8.21    2.51
 -13  -6  14   14.84    5.98
 -13   6  14    0.53    3.69
 -13  -6  14   11.83    5.59
 -13   6  14   10.47    5.15
 -13   6  15   14.51    6.50
 -13  -6  15    3.86    2.84
 -13   6  15    7.15    5.37
 -13   6  16   -6.98    5.97
 -13  -6  16   -0.35    3.10
 -13   6  16   -2.88    4.75
 -13   6  17   -4.07    5.33
 -13  -6  17    2.80    3.81
 -13   6  17    6.88    5.30
 -13  -6  18    0.39    2.56
 -13   6  18   -2.44    4.22
 -13  -7 -15   24.28    7.32
 -13   7 -15   14.65    4.87
 -13   7 -15   10.02    3.34
 -13  -7 -14   22.99    6.74
 -13   7 -14   33.27    7.89
 -13   7 -14   22.90    6.80
 -13  -7 -13   10.91    4.32
 -13   7 -13    6.03    3.50
 -13   7 -13   12.20    5.32
 -13  -7 -12   15.46    5.66
 -13   7 -12   12.27    5.02
 -13   7 -12    7.81    4.85
 -13   7 -11   37.70    8.62
 -13  -7 -11   29.22    6.98
 -13   7 -11   36.14    8.38
 -13   7 -10   91.90   13.07
 -13   7 -10   96.81   13.05
 -13  -7 -10  108.65   13.49
 -13   7  -9   24.88    6.32
 -13  -7  -9   25.91    7.38
 -13   7  -9   12.39    5.55
 -13   7  -8   23.88    6.93
 -13  -7  -8   29.98    6.23
 -13   7  -8   23.55    6.58
 -13   7  -7   20.39    6.23
 -13  -7  -7   25.35    6.68
 -13   7  -7   31.17    7.42
 -13  -7  -6   73.59   11.36
 -13   7  -6  102.11   13.30
 -13   7  -6   84.98   12.59
 -13   7  -5   19.50    5.95
 -13  -7  -5   14.03    5.29
 -13   7  -5   27.13    7.17
 -13   7  -4   45.78    9.09
 -13   7  -4   54.49    9.96
 -13  -7  -3   38.60    7.78
 -13   7  -3   30.46    7.58
 -13   7  -3   25.09    5.70
 -13  -7  -2   44.79    8.87
 -13  -7  -2   49.47   10.00
 -13   7  -2   53.05   10.74
 -13   7  -2   55.79   10.32
 -13  -7  -1   30.19    7.61
 -13   7  -1   22.01    5.95
 -13  -7  -1   23.35    7.48
 -13   7  -1   36.69    7.75
 -13  -7   0   11.69    4.90
 -13   7   0   15.92    5.45
 -13  -7   0   10.65    5.16
 -13   7   0   11.15    4.64
 -13  -7   1   38.29    9.21
 -13   7   1   25.13    7.30
 -13   7   1   31.24    7.62
 -13  -7   1   14.56    4.81
 -13  -7   2   58.88    9.90
 -13  -7   2   68.28   11.09
 -13   7   2   40.74    7.84
 -13   7   2   69.74   11.40
 -13  -7   3   29.91    6.60
 -13   7   3   27.07    7.53
 -13   7   3   27.71    7.13
 -13  -7   3   32.53    6.58
 -13  -7   4   64.70    9.54
 -13   7   4   49.61    9.44
 -13  -7   4   73.70   10.64
 -13   7   4   59.14   10.02
 -13  -7   5   21.52    6.18
 -13   7   5   27.97    7.28
 -13   7   5   11.31    4.09
 -13  -7   5   16.64    4.73
 -13   7   6   81.06   12.32
 -13  -7   6   85.05   11.83
 -13  -7   6   91.48   12.23
 -13   7   6   96.44   13.82
 -13  -7   7   30.10    6.61
 -13   7   7   30.85    8.93
 -13   7   7   16.21    5.78
 -13  -7   7   19.16    4.88
 -13  -7   8   16.53    4.73
 -13   7   8   34.98    7.96
 -13   7   8   20.58    6.95
 -13  -7   8   18.27    5.86
 -13  -7   9   24.51    7.02
 -13   7   9   19.57    6.88
 -13   7   9   22.24    5.72
 -13  -7   9   11.36    3.98
 -13   7  10  130.00   15.72
 -13  -7  10   99.88   13.19
 -13  -7  10   99.65   12.71
 -13   7  10   94.38   14.17
 -13  -7  11   35.67    8.66
 -13   7  11   28.09    7.38
 -13   7  11   43.22    9.74
 -13  -7  11   45.86    9.16
 -13  -7  12    8.48    2.85
 -13   7  12    7.51    3.79
 -13   7  12   11.69    6.16
 -13  -7  12   12.90    6.75
 -13  -7  13    3.76    3.22
 -13   7  13    7.14    5.49
 -13   7  13    3.54    4.16
 -13  -7  13   17.30    5.99
 -13  -7  14   10.91    4.20
 -13   7  14   22.98    7.43
 -13   7  14   26.24    6.29
 -13  -7  14   27.59    6.83
 -13   7  15    7.65    3.78
 -13  -7  15    6.61    3.26
 -13  -8 -11   11.09    5.71
 -13   8 -11   10.72    6.12
 -13   8 -11    3.73    3.48
 -13  -8 -10   -1.21    2.78
 -13   8 -10    1.22    3.39
 -13   8 -10   -1.99    2.32
 -13  -8  -9   11.91    6.21
 -13   8  -9    7.35    4.74
 -13   8  -9   15.85    6.02
 -13   8  -8    4.39    3.95
 -13  -8  -8   16.89    4.96
 -13   8  -8   12.11    5.66
 -13   8  -7    6.12    2.61
 -13  -8  -7   18.45    5.84
 -13   8  -7   15.00    6.01
 -13   8  -6    6.70    4.04
 -13  -8  -6    8.77    5.40
 -13   8  -6    9.09    4.69
 -13   8  -5   16.16    6.17
 -13  -8  -5    7.49    3.90
  13  -8  -5    5.46    3.27
 -13   8  -5    8.21    3.49
 -13   8  -4    3.05    2.52
 -13  -8  -4   -2.73    3.32
  13  -8  -4    8.53    5.46
 -13   8  -4    2.79    4.28
 -13   8  -3    6.34    3.66
 -13  -8  -3    2.23    3.41
 -13   8  -3   12.03    5.70
 -13   8  -2   17.11    5.82
 -13  -8  -2   10.65    4.41
 -13   8  -2    8.56    4.00
 -13   8  -1    3.37    2.60
 -13  -8  -1    5.09    3.95
 -13   8  -1    1.16    4.24
 -13   8   0    4.77    5.11
 -13  -8   0   -0.40    3.98
 -13   8   0    4.73    5.68
 -13  -8   0   -1.86    3.48
 -13   8   1    6.76    5.54
 -13  -8   1    3.21    3.58
 -13   8   1    1.62    3.83
 -13  -8   1   -0.23    2.84
 -13   8   2    3.85    4.42
 -13  -8   2    8.65    4.64
 -13   8   2    4.61    5.19
 -13  -8   2    7.50    4.06
 -13   8   3    8.30    4.73
 -13  -8   3   13.02    4.62
 -13   8   3    7.87    3.83
 -13  -8   3   -2.34    2.23
 -13   8   4   -0.91    2.12
 -13  -8   4    1.00    3.12
 -13   8   4   -4.78    4.53
 -13  -8   4   -1.58    4.09
 -13   8   5   11.48    5.22
 -13  -8   5   14.05    5.66
 -13   8   5    8.16    4.72
 -13  -8   5   15.25    4.39
 -13   8   6    4.24    5.60
 -13  -8   6    5.33    4.58
 -13   8   6    3.88    3.90
 -13  -8   6    8.90    4.18
 -13   8   7    9.62    5.80
 -13  -8   7    9.45    5.25
 -13   8   7   11.11    6.28
 -13  -8   7    6.43    3.27
 -13  -8   8    8.82    4.08
 -13   8   8    5.98    5.41
 -13   8   8    8.23    5.95
 -13  -8   8   17.36    5.00
 -13  -8   9    2.90    3.52
 -13   8   9    1.12    3.91
 -13   8   9    2.52    3.94
 -13  -8  10    1.31    3.63
 -13   8  10    4.55    3.21
 -13  -8  10    1.00    2.33
 -13  -8  11    7.83    5.04
 -13   8  11   15.96    7.01
 -13  -8  11   15.28    5.88
 -13   9  -3    7.09    4.09
 -13  -9  -3   15.35    5.18
  13  -9  -3    9.76    2.56
 -13   9  -3    7.69    3.02
 -13   9  -2    2.35    3.67
 -13  -9  -2    4.57    3.39
  13  -9  -2    0.12    3.42
 -13   9  -2    0.33    4.38
 -13   9  -1    4.93    5.48
 -13  -9  -1   -3.16    3.65
  13  -9  -1    6.51    5.09
 -13   9  -1    5.72    5.15
 -13   9   0   36.71    8.05
 -13  -9   0   25.50    5.91
  13  -9   0   27.83    7.16
 -13   9   0   32.84    8.70
 -13   9   1    6.34    4.79
 -13  -9   1    3.51    4.24
  13  -9   1    3.45    4.62
 -13   9   1    3.16    4.53
 -13   9   2    7.98    5.85
 -13  -9   2    9.45    5.91
  13  -9   2    9.53    5.98
 -13   9   2    3.09    3.47
 -13  -9   2   -0.75    3.40
 -13   9   3   27.27    8.08
 -13  -9   3   12.29    5.85
  13  -9   3    8.57    3.28
 -13   9   3    1.42    4.16
 -13  -9   3   21.81    7.60
 -14   0 -20   32.89    8.49
 -14   0 -19   14.95    5.50
 -14   0 -18    2.31    4.65
 -14   0 -17    9.60    4.36
 -14   0 -16  124.65   14.42
 -14   0 -15   18.58    6.42
 -14   0 -14   47.95    8.72
 -14   0 -13  150.70   15.43
 -14   0 -12  217.98   18.68
 -14   0 -11   20.88    6.45
 -14   0 -10  221.14   17.82
 -14   0 -10  190.71   17.40
 -14   0  -9   24.57    5.99
 -14   0  -9   33.87    7.68
 -14   0  -8   38.07    8.10
 -14   0  -8   35.01    7.87
 -14   0  -7  245.51   18.79
 -14   0  -7  240.80   18.96
 -14   0  -6  356.47   22.21
 -14   0  -6  363.95   23.48
 -14   0  -5  205.45   17.16
 -14   0  -5  223.52   18.43
 -14   0  -4  286.79   19.84
 -14   0  -4  269.22   20.49
 -14   0  -3  104.73   11.93
 -14   0  -3   89.31   11.43
 -14   0  -2   92.22   11.39
 -14   0  -2   99.38   12.15
 -14   0  -1  192.13   15.89
 -14   0  -1  155.82   15.05
 -14   0  -1  201.05   16.16
 -14   0   0  181.58   15.43
 -14   0   0  180.95   16.61
 -14   0   0  203.51   16.26
 -14   0   1  164.40   15.01
 -14   0   1  153.59   15.32
 -14   0   1  186.57   15.48
 -14   0   2  101.75   12.18
 -14   0   2   87.09   11.34
 -14   0   2   83.57   10.17
 -14   0   3  138.14   13.53
 -14   0   3  113.41   13.27
 -14   0   3  119.53   12.39
 -14   0   4  279.68   19.46
 -14   0   4  257.41   17.92
 -14   0   5  225.43   17.61
 -14   0   5  211.99   16.39
 -14   0   6  337.03   21.86
 -14   0   6  322.88   20.41
 -14   0   7  273.02   19.40
 -14   0   8   29.85    7.18
 -14   0   9   19.12    6.13
 -14   0  10  244.76   18.77
 -14   0  11   10.64    3.67
 -14   0  12  187.61   17.11
 -14   0  13  151.93   15.12
 -14   0  14   37.34    7.92
 -14   0  15   18.81    5.76
 -14   0  16  111.95   13.61
 -14   0  17    4.62    4.15
 -14   0  18   -0.75    2.20
 -14   0  19   14.76    4.59
 -14   0  20   30.30    7.11
 -14   0  21   70.56   11.47
 -14   0  22   39.15    9.59
 -14   1 -22    4.70    4.68
 -14   1 -21    1.80    3.53
 -14   1 -20    1.26    2.57
 -14   1 -19    8.00    3.89
 -14   1 -18   15.83    5.40
 -14   1 -17   -0.50    1.93
 -14   1 -16   13.34    6.45
 -14  -1 -15   13.78    5.46
 -14   1 -15   18.15    5.89
 -14  -1 -14    4.69    3.75
 -14   1 -14    4.86    3.95
 -14  -1 -13    8.63    4.47
 -14   1 -13    0.49    2.92
 -14   1 -12    4.16    4.69
 -14  -1 -12    8.59    4.79
 -14   1 -12    2.18    4.17
 -14   1 -11   -2.69    3.49
 -14   1 -11    2.90    2.48
 -14  -1 -11    5.06    3.83
 -14   1 -10    9.79    5.05
 -14   1 -10    9.35    4.15
 -14  -1 -10   13.17    5.70
 -14  -1 -10   10.12    4.56
 -14   1  -9   36.24    8.35
 -14  -1  -9   28.07    6.64
 -14  -1  -9   45.34    8.93
 -14   1  -9   42.40    8.12
 -14  -1  -9   23.76    5.43
 -14   1  -8    9.47    4.60
 -14  -1  -8    4.84    2.94
 -14   1  -8    6.64    2.52
 -14  -1  -8    1.76    3.01
 -14  -1  -8    3.50    3.45
 -14   1  -7   60.05    9.63
 -14  -1  -7   42.97    8.31
 -14   1  -7   46.78    8.54
 -14  -1  -7   40.24    7.95
 -14  -1  -7   58.72    9.21
 -14   1  -6    3.88    3.55
 -14  -1  -6    3.49    3.45
 -14   1  -6    0.27    1.67
 -14  -1  -6    6.94    3.60
 -14  -1  -6    5.27    2.87
 -14   1  -5    0.10    3.06
 -14  -1  -5    1.69    2.03
 -14   1  -5    6.29    4.05
 -14  -1  -5    3.87    4.20
 -14  -1  -5    9.24    4.48
 -14   1  -4   34.00    6.69
 -14  -1  -4   14.33    3.67
 -14   1  -4   37.93    6.90
 -14  -1  -4   24.52    6.70
 -14  -1  -4   24.64    4.79
 -14   1  -3   21.52    5.71
 -14   1  -3   19.99    5.54
 -14  -1  -3   10.00    4.42
 -14  -1  -3   16.34    5.64
 -14  -1  -3   16.30    4.94
 -14   1  -2   71.43   10.93
 -14  -1  -2   59.80    8.72
 -14   1  -2   89.94   11.55
 -14  -1  -2   77.83   10.92
 -14  -1  -2   61.82    8.73
 -14   1  -1   93.96   11.62
 -14  -1  -1  109.23   12.37
 -14   1  -1   79.89   10.93
 -14  -1  -1  105.58   12.43
 -14  -1  -1   94.58   11.63
 -14   1   0   91.49   11.31
 -14  -1   0   79.21   10.48
 -14   1   0   75.76   10.70
 -14  -1   0   78.11   10.60
 -14  -1   0   85.09   10.51
 -14   1   1   98.99   11.92
 -14  -1   1  104.12   11.95
 -14   1   1  114.16   12.85
 -14  -1   1  112.51   13.09
 -14  -1   1   78.32   10.44
 -14   1   2   73.95   10.56
 -14  -1   2   70.64    9.94
 -14   1   2   81.00   11.26
 -14  -1   2   65.81    9.96
 -14  -1   2   79.01   10.09
 -14  -1   3    9.15    3.58
 -14   1   3    8.07    3.33
 -14   1   3   11.60    3.54
 -14  -1   3   18.29    4.57
 -14  -1   4   29.63    6.67
 -14   1   4   23.64    6.05
 -14   1   4   28.64    6.49
 -14  -1   4   15.30    5.14
 -14  -1   5    0.10    2.48
 -14   1   5    0.16    3.95
 -14   1   5    1.99    1.70
 -14  -1   5    1.71    3.86
 -14  -1   6    2.32    2.27
 -14   1   6    2.77    3.80
 -14  -1   6    3.62    2.90
 -14   1   7   56.50    8.74
 -14  -1   7   62.98    9.77
 -14  -1   7   53.45    8.24
 -14  -1   8    7.40    4.84
 -14   1   8    3.65    2.13
 -14  -1   8   10.03    4.53
 -14  -1   9   28.17    6.65
 -14   1   9   33.24    7.29
 -14  -1   9   34.18    6.81
 -14  -1  10   13.19    6.17
 -14   1  10    5.40    3.68
 -14  -1  10   10.89    3.96
 -14  -1  11    0.66    3.15
 -14   1  11    2.11    3.53
 -14  -1  11    3.93    4.35
 -14  -1  12    3.67    2.72
 -14   1  12   -1.84    1.96
 -14  -1  13    3.81    3.24
 -14   1  13   -1.44    2.79
 -14  -1  14    3.05    3.40
 -14   1  14    6.81    3.26
 -14  -1  15   33.48    7.58
 -14   1  15   23.91    6.52
 -14  -1  16   13.01    4.22
 -14   1  16    7.78    5.26
 -14  -1  17    0.48    2.22
 -14   1  17    0.78    3.53
 -14  -1  18   19.77    6.28
 -14   1  18   19.68    6.39
 -14  -1  19   28.30    7.47
 -14   1  19    9.60    3.42
 -14  -1  20    5.69    4.59
 -14   1  20    5.08    3.72
 -14  -1  21   -0.39    3.72
 -14   1  21    3.62    5.08
 -14  -1  22    6.86    5.62
 -14   1  22    4.64    5.13
 -14   2 -22   26.63    6.93
 -14   2 -21   46.77    8.44
 -14   2 -20   52.73   10.51
 -14   2 -19    2.75    2.39
 -14   2 -18    4.54    4.05
 -14   2 -17   31.47    7.38
 -14   2 -16   93.69   12.60
 -14   2 -15   50.15    8.92
 -14  -2 -15   45.28    8.67
 -14   2 -14  110.20   13.63
 -14  -2 -14   87.86   11.20
 -14   2 -13   30.00    8.96
 -14   2 -13   19.36    5.68
 -14  -2 -13   21.87    5.78
 -14   2 -12   79.90   11.79
 -14   2 -12   88.74   11.98
 -14  -2 -12   97.97   11.85
 -14   2 -11   29.08    6.75
 -14   2 -11   18.89    5.36
 -14  -2 -11   34.26    7.47
 -14   2 -10   69.15   10.55
 -14   2 -10   65.47   10.03
 -14  -2 -10   63.17   10.07
 -14  -2 -10   89.98   11.04
 -14   2  -9  169.37   16.49
 -14   2  -9  185.05   17.26
 -14  -2  -9  164.74   15.75
 -14  -2  -9  175.56   16.43
 -14   2  -8   23.29    6.06
 -14  -2  -8   32.80    6.55
 -14   2  -8   39.67    8.19
 -14  -2  -8   37.00    7.14
 -14  -2  -8   45.69    7.79
 -14   2  -7   22.77    5.76
 -14   2  -7   21.40    6.22
 -14  -2  -7   20.08    4.76
 -14  -2  -7   26.83    6.58
 -14  -2  -7   23.53    5.44
 -14   2  -6  109.66   13.29
 -14  -2  -6  107.39   11.92
 -14   2  -6  112.90   13.20
 -14  -2  -6  115.19   13.14
 -14  -2  -6  111.41   12.40
 -14   2  -5  137.53   14.15
 -14  -2  -5  122.82   12.60
 -14   2  -5  123.09   14.52
 -14  -2  -5  140.70   14.40
 -14   2  -4  117.63   13.29
 -14  -2  -4  144.94   13.98
 -14   2  -4  148.06   15.51
 -14  -2  -4  126.97   13.76
 -14  -2  -4  136.08   13.90
 -14   2  -3   26.13    6.15
 -14   2  -3   21.13    5.39
 -14  -2  -3   28.64    7.14
 -14  -2  -3   31.41    6.98
 -14  -2  -3   27.41    6.57
 -14  -2  -2   19.99    5.24
 -14   2  -2   14.91    4.84
 -14   2  -2   15.58    5.51
 -14  -2  -2   20.30    5.65
 -14  -2  -2   17.48    5.84
 -14  -2  -1   30.55    6.12
 -14  -2  -1   27.25    5.80
 -14   2  -1   29.31    6.69
 -14   2  -1   22.39    6.15
 -14  -2  -1   21.91    5.55
 -14   2   0  333.06   21.92
 -14  -2   0  315.88   20.57
 -14   2   0  307.71   21.77
 -14  -2   0  296.03   20.96
 -14  -2   0  296.17   20.28
 -14  -2   1   25.55    5.73
 -14  -2   1   15.19    4.97
 -14   2   1    9.28    3.50
 -14   2   1   15.31    5.08
 -14  -2   1   21.46    6.53
 -14  -2   2   27.82    6.28
 -14  -2   2   17.54    4.42
 -14   2   2   17.83    5.32
 -14   2   2   11.03    4.42
 -14  -2   2   14.24    4.48
 -14  -2   3   34.88    7.14
 -14  -2   3   34.58    7.27
 -14   2   3   29.54    7.38
 -14   2   3   16.40    5.37
 -14   2   4  145.09   14.68
 -14  -2   4  138.16   14.07
 -14   2   4  165.78   16.26
 -14  -2   4  139.27   13.64
 -14   2   5  141.22   14.30
 -14   2   5  135.59   14.52
 -14  -2   5  150.91   15.37
 -14  -2   5  167.52   14.33
 -14   2   6  107.66   12.54
 -14   2   6  114.97   13.89
 -14  -2   6  129.65   13.95
 -14  -2   6  129.67   13.29
 -14  -2   7   27.95    6.01
 -14  -2   7   28.81    7.02
 -14   2   7   23.28    6.53
 -14   2   7   22.60    5.58
 -14  -2   8   18.37    5.51
 -14  -2   8   36.47    7.29
 -14   2   8   31.57    7.27
 -14   2   9  179.55   16.64
 -14  -2   9  143.68   14.78
 -14  -2   9  164.55   15.10
 -14   2  10   92.29   12.38
 -14  -2  10   68.43   10.13
 -14  -2  10   79.74   11.03
 -14  -2  11   36.69    6.52
 -14  -2  11   26.81    6.64
 -14   2  11   39.29    8.14
 -14   2  12   84.92   11.49
 -14  -2  12  112.43   13.51
 -14  -2  12  103.61   12.46
 -14  -2  13   17.52    4.24
 -14   2  13   17.71    4.94
 -14   2  14  110.53   13.12
 -14  -2  14   88.19   11.95
 -14  -2  15   48.80    9.34
 -14   2  15   52.23    9.11
 -14   2  16   95.12   12.79
 -14  -2  16  102.86   12.96
 -14  -2  17   36.39    7.34
 -14   2  17   48.21    9.84
 -14  -2  18    1.88    2.85
 -14   2  18    5.67    3.67
 -14  -2  19    6.84    4.92
 -14   2  19   -0.52    3.05
 -14  -2  20   62.34   10.63
 -14   2  20   46.06    9.81
 -14  -2  21   55.72   10.94
 -14   2  21   37.24    8.74
 -14  -2  22   32.79    9.28
 -14   2  22   28.47    7.79
 -14   3 -21   -3.24    4.39
 -14   3 -20    7.57    5.02
 -14   3 -19    6.11    4.80
 -14   3 -18   21.52    5.16
 -14  -3 -18   10.74    5.72
 -14   3 -17    6.95    4.38
 -14  -3 -17   -1.00    2.88
 -14   3 -16   27.90    7.26
 -14  -3 -16   18.91    6.81
 -14   3 -15   20.73    7.12
 -14  -3 -15   12.21    4.34
 -14   3 -14   14.75    4.81
 -14   3 -14    8.31    4.63
 -14  -3 -14   11.99    5.60
 -14   3 -13   13.05    5.26
 -14   3 -13   12.10    5.83
 -14  -3 -13   12.81    4.94
 -14   3 -12    5.79    2.30
 -14   3 -12    1.85    3.40
 -14  -3 -12    3.81    3.35
 -14   3 -11   19.37    6.73
 -14   3 -11   18.71    6.29
 -14  -3 -11   14.27    5.21
 -14   3 -10   69.29   11.31
 -14   3 -10   81.33   11.70
 -14  -3 -10   57.55    9.29
 -14   3  -9   11.91    5.48
 -14   3  -9    8.73    4.36
 -14  -3  -9   12.87    4.78
 -14  -3  -8    0.01    2.95
 -14   3  -8   -2.44    4.17
 -14   3  -8    2.26    3.15
 -14  -3  -7    4.60    3.66
 -14   3  -7    8.09    4.24
 -14   3  -7    8.83    4.49
 -14  -3  -6   15.25    5.35
 -14   3  -6   14.69    4.44
 -14   3  -6   16.69    4.64
 -14  -3  -6   19.92    5.79
 -14  -3  -5   25.89    6.65
 -14   3  -5   26.06    6.97
 -14   3  -5   23.60    6.00
 -14  -3  -5   23.51    5.05
 -14  -3  -4    8.47    4.60
 -14  -3  -4   10.86    3.85
 -14   3  -4    3.65    1.98
 -14   3  -4    1.23    2.92
 -14  -3  -4    7.89    3.67
 -14  -3  -3   25.80    6.02
 -14  -3  -3   25.17    6.15
 -14   3  -3   16.45    5.22
 -14   3  -3   26.45    7.06
 -14  -3  -3   24.55    5.39
 -14   3  -2  237.34   18.93
 -14   3  -2  215.58   18.64
 -14  -3  -2  255.68   19.18
 -14  -3  -2  183.22   16.27
 -14  -3  -1   30.48    6.51
 -14  -3  -1   39.27    7.44
 -14   3  -1   29.97    6.22
 -14   3  -1   25.64    6.69
 -14  -3  -1   21.64    6.25
 -14   3   0  191.69   16.85
 -14   3   0  200.10   18.02
 -14  -3   0  184.08   16.46
 -14  -3   0  180.60   15.75
 -14  -3   0  217.52   17.30
 -14  -3   1   32.53    6.82
 -14  -3   1   32.44    7.10
 -14   3   1   24.54    6.46
 -14   3   1   20.54    6.69
 -14  -3   1   35.93    7.75
 -14   3   2  210.30   17.51
 -14   3   2  250.43   19.44
 -14  -3   2  239.78   18.65
 -14  -3   2  228.87   18.04
 -14  -3   3   26.17    6.19
 -14  -3   3   26.17    6.23
 -14   3   3   28.88    7.14
 -14   3   3   23.73    7.66
 -14  -3   4    8.59    3.97
 -14  -3   4    6.93    2.54
 -14   3   4   -0.09    3.41
 -14   3   4    9.02    4.07
 -14  -3   5   27.57    6.30
 -14  -3   5   20.14    5.44
 -14   3   5   30.05    8.19
 -14   3   5   30.44    7.70
 -14  -3   6   12.00    3.11
 -14  -3   6   17.14    5.32
 -14   3   6   23.65    5.82
 -14   3   6   20.49    6.35
 -14  -3   7   10.42    3.99
 -14  -3   7    3.77    2.14
 -14   3   7    1.13    2.92
 -14   3   7    0.38    3.06
 -14  -3   8    1.75    2.30
 -14  -3   8   -0.99    2.71
 -14   3   8   -1.56    2.85
 -14   3   8   -1.27    2.59
 -14  -3   9   12.63    5.73
 -14  -3   9    5.32    2.79
 -14   3   9    4.53    3.13
 -14   3   9    8.35    4.55
 -14   3  10   77.86   11.12
 -14  -3  10   82.65   10.95
 -14  -3  10   75.19   10.88
 -14  -3  11   12.42    4.62
 -14  -3  11   12.85    4.19
 -14   3  11   13.76    5.37
 -14  -3  12    5.28    4.33
 -14  -3  12    9.17    4.39
 -14   3  12    4.97    2.91
 -14  -3  13    6.95    2.66
 -14   3  13    5.80    4.70
 -14  -3  14   12.97    5.44
 -14   3  14   20.85    6.11
 -14  -3  15   19.18    4.92
 -14   3  15   24.91    6.72
 -14  -3  16   22.93    5.35
 -14   3  16   19.26    6.21
 -14  -3  17    5.96    4.58
 -14   3  17   -0.84    2.52
 -14  -3  18    5.85    2.82
 -14   3  18    2.73    3.60
 -14  -3  19    9.73    4.68
 -14   3  19    4.30    3.74
 -14  -3  20   10.26    4.52
 -14   3  20    7.12    4.87
 -14  -3  21    2.39    3.62
 -14   3  21   -3.44    5.95
 -14   4 -20   71.79   11.77
 -14  -4 -20   54.52   10.09
 -14   4 -19    2.36    3.85
 -14  -4 -19    1.59    3.66
 -14   4 -18    9.51    5.68
 -14  -4 -18   11.07    5.23
 -14   4 -17   88.37   12.39
 -14  -4 -17   80.68   12.36
 -14   4 -16   84.84   12.64
 -14  -4 -16   47.46    9.42
 -14   4 -15   53.24    9.92
 -14   4 -15   33.21    8.38
 -14  -4 -15   35.22    8.44
 -14   4 -14   49.09    9.86
 -14   4 -14   58.67    9.92
 -14  -4 -14   65.21   10.75
 -14   4 -13    5.41    3.36
 -14  -4 -13    9.08    4.07
 -14   4 -12   70.71   10.89
 -14  -4 -12   84.33   11.57
 -14   4 -12   65.81   10.52
 -14   4 -11  128.61   14.71
 -14  -4 -11  150.64   15.37
 -14   4 -11  148.05   16.03
 -14  -4 -10   34.99    7.86
 -14   4 -10   26.40    7.82
 -14   4 -10   26.44    6.78
 -14   4  -9  114.69   13.76
 -14   4  -9  117.87   13.80
 -14  -4  -9  115.18   13.33
 -14   4  -8   39.77    9.03
 -14   4  -8   33.22    7.35
 -14  -4  -8   48.41    8.66
 -14  -4  -7   15.74    5.86
 -14   4  -7    4.65    2.80
 -14   4  -7    6.36    4.31
 -14   4  -6  120.43   14.10
 -14   4  -6  149.80   15.91
 -14  -4  -6  121.22   13.57
 -14  -4  -5   45.81    7.86
 -14   4  -5   38.97    8.07
 -14   4  -5   39.55    8.16
 -14  -4  -5   51.85    8.81
 -14   4  -4  113.72   13.70
 -14   4  -4   95.82   13.24
 -14  -4  -4  109.09   12.28
 -14  -4  -4   95.99   11.77
 -14   4  -3   84.69   11.72
 -14   4  -3   53.98    9.68
 -14  -4  -3   87.81   11.22
 -14  -4  -3   71.00   10.62
 -14  -4  -2   28.87    6.54
 -14  -4  -2   27.64    6.36
 -14   4  -2   25.71    6.39
 -14   4  -2   14.95    5.25
 -14  -4  -1   50.74    8.55
 -14  -4  -1   41.32    8.12
 -14   4  -1   46.08    8.06
 -14   4  -1   35.58    7.30
 -14   4   0  696.58   32.87
 -14   4   0  723.83   34.33
 -14  -4   0  755.10   33.47
 -14  -4   0  751.65   32.83
 -14  -4   1   42.14    7.92
 -14   4   1   37.90    8.01
 -14   4   1   36.35    7.80
 -14  -4   1   41.88    8.60
 -14  -4   1   52.01    8.82
 -14  -4   2   22.81    6.12
 -14  -4   2   22.80    6.44
 -14   4   2   13.55    5.50
 -14   4   2   12.63    3.51
 -14   4   3   76.58   11.12
 -14   4   3   42.75    9.26
 -14  -4   3   62.03    9.34
 -14  -4   3   75.64   10.26
 -14  -4   4  111.00   12.91
 -14   4   4  108.21   13.45
 -14   4   4   83.35   11.80
 -14  -4   4   95.83   11.96
 -14  -4   5   42.78    8.21
 -14   4   5   43.60    8.26
 -14   4   5   38.30    8.22
 -14  -4   5   62.44   10.01
 -14  -4   6  134.88   14.50
 -14   4   6  108.51   13.46
 -14   4   6  112.86   13.65
 -14  -4   6  134.42   14.49
 -14  -4   7   10.03    4.33
 -14  -4   7    7.93    3.91
 -14   4   7    3.54    3.59
 -14   4   7    4.25    3.18
 -14  -4   8   41.10    8.26
 -14  -4   8   42.16    7.81
 -14   4   8   41.32    8.09
 -14   4   8   41.11    8.07
 -14  -4   9  124.08   13.82
 -14   4   9   99.13   12.70
 -14   4   9  131.85   14.99
 -14  -4   9  126.51   14.15
 -14  -4  10   47.49    8.26
 -14  -4  10   43.02    8.02
 -14   4  10   29.79    7.30
 -14  -4  11  115.78   13.43
 -14   4  11  128.34   14.36
 -14   4  11  152.37   16.59
 -14  -4  11  148.72   15.27
 -14  -4  12   93.14   11.86
 -14   4  12   60.94   10.27
 -14   4  12   65.04   10.90
 -14  -4  12   72.04   10.73
 -14  -4  13   13.20    3.30
 -14  -4  13   10.74    4.88
 -14   4  13    5.98    2.63
 -14  -4  14   55.20    9.71
 -14   4  14   54.91    9.99
 -14  -4  15   48.92    8.83
 -14   4  15   37.06    8.12
 -14  -4  16   43.92    9.30
 -14   4  16   56.05    9.94
 -14  -4  17   79.43   11.25
 -14   4  17   75.05   12.38
 -14  -4  18   17.47    6.41
 -14   4  18   13.23    6.54
 -14  -4  19    1.54    3.12
 -14   4  19    1.64    3.70
 -14  -4  20   77.54   12.05
 -14   4  20   54.78   11.55
 -14   5 -18   -0.92    2.56
 -14  -5 -18   -0.31    4.23
 -14   5 -17    7.29    4.10
 -14  -5 -17    0.18    3.76
 -14   5 -16   10.88    4.69
 -14   5 -16   19.12    7.13
 -14  -5 -16    3.55    4.83
 -14  -5 -15   -2.61    3.22
 -14   5 -15    2.18    2.63
 -14   5 -15   -2.47    2.10
 -14  -5 -14   20.17    5.88
 -14   5 -14    5.79    3.83
 -14   5 -14   17.18    5.17
 -14  -5 -13    4.94    3.52
 -14   5 -13   10.56    5.38
 -14   5 -13    2.11    2.07
 -14  -5 -12   20.35    5.10
 -14   5 -12   19.35    5.77
 -14   5 -12   21.54    6.15
 -14  -5 -11   27.80    6.42
 -14   5 -11   13.89    4.05
 -14   5 -11   28.68    7.22
 -14  -5 -10    6.14    2.94
 -14   5 -10   15.32    6.08
 -14   5 -10   13.49    4.73
 -14  -5  -9   27.81    7.23
 -14   5  -9   16.52    5.19
 -14   5  -9   13.78    4.11
 -14  -5  -8    1.44    2.20
 -14   5  -8    4.09    3.76
 -14  -5  -7   17.69    6.26
 -14   5  -7    7.48    3.32
 -14   5  -7   12.39    5.14
 -14  -5  -6    1.05    2.75
 -14   5  -6    0.97    3.90
 -14   5  -6   -2.11    2.88
 -14  -5  -5    2.56    3.22
 -14   5  -5    0.66    3.38
 -14  -5  -4   19.11    4.97
 -14   5  -4   13.62    5.61
 -14  -5  -4   24.64    6.02
 -14   5  -4   21.88    7.11
 -14  -5  -3   13.50    3.64
 -14   5  -3   24.97    7.33
 -14  -5  -3   24.99    6.68
 -14   5  -3   29.32    7.70
 -14  -5  -2   18.90    5.37
 -14   5  -2   20.38    6.30
 -14  -5  -2   30.72    7.98
 -14   5  -2   16.34    5.98
 -14   5  -1   96.12   12.68
 -14   5  -1   79.80   11.59
 -14  -5  -1   86.14   12.12
 -14  -5  -1   68.69   10.06
 -14  -5   0  130.28   13.94
 -14   5   0  158.88   16.05
 -14   5   0  140.07   15.28
 -14  -5   0  121.49   14.07
 -14  -5   1   85.78   11.65
 -14  -5   1   90.38   11.74
 -14   5   1   64.78   10.04
 -14   5   1   73.64   11.36
 -14  -5   2   20.78    6.69
 -14   5   2    9.53    3.55
 -14  -5   2   19.21    4.28
 -14   5   2   11.33    5.34
 -14  -5   3   21.26    5.11
 -14   5   3   25.36    6.94
 -14  -5   3   18.02    6.10
 -14   5   3    8.98    5.11
 -14  -5   4   20.13    5.40
 -14   5   4    9.92    4.67
 -14  -5   4   13.35    4.36
 -14   5   4   16.35    5.75
 -14  -5   5   -1.38    3.93
 -14   5   5    4.17    4.18
 -14  -5   5   11.41    5.08
 -14   5   5    4.55    3.30
 -14  -5   6   -1.49    2.34
 -14   5   6   -3.13    4.35
 -14  -5   6   -0.88    3.34
 -14   5   6   -0.44    3.25
 -14  -5   7    5.55    2.56
 -14   5   7    6.45    2.71
 -14   5   7   13.25    4.60
 -14  -5   8    6.71    2.57
 -14   5   8   10.84    5.49
 -14  -5   8    7.23    4.26
 -14   5   8    9.04    3.78
 -14  -5   9   18.00    5.16
 -14  -5   9    8.14    4.04
 -14   5   9   19.96    5.41
 -14  -5  10   22.74    5.80
 -14   5  10   11.54    5.60
 -14  -5  10   25.42    6.67
 -14   5  10   19.88    6.67
 -14  -5  11   24.30    5.77
 -14   5  11   28.66    7.03
 -14  -5  11   22.89    6.19
 -14   5  11   30.82    8.13
 -14  -5  12   28.72    6.99
 -14   5  12   17.90    7.05
 -14  -5  12   23.05    5.10
 -14   5  12   19.93    6.08
 -14  -5  13    9.30    2.41
 -14   5  13    3.37    3.42
 -14  -5  13    5.90    4.32
 -14   5  13    0.32    2.54
 -14   5  14    6.66    4.85
 -14  -5  14   20.66    6.16
 -14   5  14    9.52    4.87
 -14   5  15   -2.00    2.35
 -14  -5  15    4.14    4.23
 -14   5  15    0.53    3.48
 -14   5  16   16.38    6.50
 -14  -5  16   14.44    5.63
 -14   5  16   13.72    7.46
 -14   5  17   -0.97    2.87
 -14  -5  17    0.21    3.56
 -14   5  17   -1.97    4.80
 -14   5  18    0.10    5.18
 -14  -5  18    1.88    2.96
 -14  -6 -16   58.04   10.19
 -14   6 -16   65.05   11.04
 -14   6 -16   53.49   10.50
 -14  -6 -15   12.88    5.85
 -14   6 -15    8.06    4.41
 -14   6 -15    8.75    4.13
 -14   6 -14    9.29    2.89
 -14  -6 -14    8.79    4.48
 -14   6 -14    6.47    3.55
 -14   6 -13   12.49    6.74
 -14  -6 -13   14.77    5.72
 -14   6 -13   14.92    5.32
 -14   6 -12   47.22    9.40
 -14  -6 -12   54.09    9.67
 -14   6 -12   46.18    8.52
 -14  -6 -11   43.07    8.77
 -14   6 -11   44.10    9.33
 -14   6 -11   40.03    8.70
 -14   6 -10  130.80   15.05
 -14   6 -10  145.75   16.42
 -14  -6 -10  144.00   15.42
 -14  -6  -9   38.32    8.20
 -14   6  -9   35.14    9.12
 -14   6  -9   19.08    5.64
 -14  -6  -8   14.21    5.54
 -14   6  -8    3.41    3.61
 -14   6  -8   14.60    5.83
 -14  -6  -7   35.08    8.13
 -14   6  -7   22.69    6.61
 -14   6  -7   43.51    8.85
 -14   6  -6  212.61   19.42
 -14   6  -6  163.89   16.38
 -14  -6  -6  207.75   18.19
 -14  -6  -5    1.32    1.81
 -14   6  -5    7.12    3.28
 -14   6  -5   11.55    3.87
 -14   6  -4  123.38   14.66
 -14   6  -4  115.99   14.63
 -14  -6  -4  121.36   13.49
 -14  -6  -3   49.03    8.79
 -14   6  -3   53.02    9.41
 -14  -6  -3   30.34    8.06
 -14   6  -3   49.40    8.94
 -14  -6  -2   48.39    8.65
 -14   6  -2   35.82    8.66
 -14  -6  -2   51.54    9.23
 -14   6  -2   49.23    9.58
 -14  -6  -1   82.21   11.51
 -14   6  -1   83.88   12.03
 -14  -6  -1   87.17   11.84
 -14   6  -1   80.65   12.03
 -14  -6   0  298.80   22.07
 -14   6   0  355.11   24.83
 -14  -6   0  339.36   22.89
 -14   6   0  345.74   24.81
 -14  -6   1  101.26   12.47
 -14  -6   1   71.87   10.89
 -14   6   1   56.10    9.56
 -14   6   1   88.97   12.89
 -14  -6   2   47.44    9.46
 -14   6   2   46.89    8.73
 -14  -6   2   38.82    7.91
 -14   6   2   44.74    9.62
 -14  -6   3   51.85    9.33
 -14   6   3   37.43    8.49
 -14  -6   3   56.91    9.12
 -14   6   3   56.55    9.71
 -14  -6   4  138.57   15.00
 -14   6   4  112.15   14.37
 -14  -6   4  145.17   15.29
 -14  -6   5    2.35    3.06
 -14   6   5    0.56    2.60
 -14  -6   5    6.89    3.99
 -14  -6   6  195.81   17.99
 -14   6   6  192.22   18.19
 -14  -6   6  197.77   17.89
 -14   6   6  182.53   18.22
 -14  -6   7   34.36    8.33
 -14   6   7   39.43    8.55
 -14  -6   7   32.90    6.56
 -14   6   7   26.17    7.59
 -14  -6   8   12.18    2.70
 -14   6   8   13.60    4.44
 -14  -6   8    9.49    4.45
 -14   6   8   10.44    2.36
 -14  -6   9   32.05    6.71
 -14   6   9   24.06    7.00
 -14  -6   9   32.53    8.15
 -14   6   9   35.30    7.88
 -14  -6  10  147.32   15.38
 -14   6  10  133.27   15.75
 -14  -6  10  149.69   15.53
 -14   6  10  181.65   19.05
 -14  -6  11   28.69    7.30
 -14   6  11   31.28    7.63
 -14  -6  11   31.22    8.03
 -14   6  11   29.30    8.20
 -14  -6  12   40.02    8.72
 -14   6  12   71.03   11.61
 -14  -6  12   40.99    7.56
 -14   6  12   53.92   10.37
 -14  -6  13    6.17    2.86
 -14   6  13   12.16    5.88
 -14  -6  13   16.43    6.10
 -14   6  13   11.88    7.25
 -14   6  14   12.01    6.15
 -14  -6  14    8.00    3.85
 -14   6  14   13.99    3.43
 -14   6  15    9.23    4.46
 -14  -6  15    7.98    3.27
 -14   6  15    9.45    4.65
 -14  -6  16   63.81   10.67
 -14   6  16   79.05   12.46
 -14   6  16   44.65    9.56
 -14  -7 -13   11.88    5.18
 -14   7 -13   10.40    5.84
 -14   7 -13    2.55    3.75
 -14  -7 -12   13.90    6.37
 -14   7 -12   15.31    5.82
 -14   7 -12   11.85    4.66
 -14   7 -11    7.15    4.78
 -14  -7 -11    7.29    4.02
 -14   7 -11   17.27    7.41
 -14   7 -10    3.10    4.50
 -14  -7 -10    6.83    5.60
 -14   7 -10    5.27    2.61
 -14   7  -9    3.21    3.88
 -14  -7  -9   -0.55    3.38
 -14   7  -9   -2.54    2.75
 -14   7  -8   21.77    6.40
 -14  -7  -8   34.01    8.19
 -14   7  -8   15.21    5.94
 -14   7  -7   11.86    5.69
 -14  -7  -7    4.59    3.86
 -14   7  -7    5.12    3.28
 -14  -7  -6   48.70    9.04
 -14   7  -6   43.21    9.66
 -14   7  -6   58.73   10.68
 -14  -7  -5   26.14    6.55
 -14   7  -5   21.72    6.64
 -14   7  -5   25.61    7.28
 -14  -7  -4    3.33    2.79
 -14   7  -4    9.11    3.80
 -14   7  -4    3.18    3.72
 -14  -7  -3   22.93    7.11
 -14   7  -3   35.54    8.17
 -14   7  -3   23.02    7.65
 -14  -7  -2   35.21    7.79
 -14   7  -2   41.41    8.52
 -14   7  -2   25.57    7.20
 -14  -7  -1   -0.12    2.62
 -14   7  -1   -4.26    4.62
 -14  -7  -1   -4.04    3.88
 -14   7  -1    7.44    5.98
 -14  -7   0   58.31    9.64
 -14  -7   0   67.25   10.96
 -14   7   0   34.52    8.49
 -14   7   0   68.87   12.11
 -14  -7   1    2.86    2.98
 -14   7   1    2.48    2.44
 -14  -7   1    5.80    4.96
 -14   7   1    2.72    4.83
 -14  -7   2   19.18    8.06
 -14   7   2   22.93    6.46
 -14  -7   2   30.80    8.44
 -14   7   2   23.95    6.74
 -14  -7   3   19.12    6.58
 -14   7   3   24.66    6.62
 -14  -7   3   28.35    6.63
 -14   7   3   11.83    5.21
 -14  -7   4    8.60    6.15
 -14   7   4    3.10    3.05
 -14  -7   4    4.63    3.84
 -14   7   4   -0.13    2.48
 -14  -7   5   24.52    7.78
 -14   7   5   18.78    6.07
 -14  -7   5   40.30    8.01
 -14   7   5   27.78    7.43
 -14  -7   6   37.37    8.52
 -14   7   6   45.25   10.01
 -14  -7   6   33.17    8.47
 -14   7   6   43.35    9.06
 -14  -7   7    3.57    3.25
 -14   7   7    8.68    4.83
 -14  -7   7    6.74    3.47
 -14   7   7   11.26    6.45
 -14  -7   8   19.13    7.76
 -14   7   8   20.32    5.24
 -14  -7   8   17.35    6.46
 -14   7   8   24.09    8.00
 -14  -7   9    6.22    6.13
 -14   7   9    0.27    4.71
 -14  -7   9    2.29    3.00
 -14   7   9    2.17    5.19
 -14  -7  10    3.56    5.38
 -14   7  10   -2.30    4.58
 -14  -7  10    1.40    2.66
 -14   7  10   -3.30    5.61
 -14  -7  11    9.13    5.45
 -14   7  11   13.00    5.63
 -14  -7  11    8.98    3.06
 -14   7  11   16.71    7.10
 -14  -7  12   20.14    7.50
 -14   7  12    7.44    5.90
 -14  -7  12   11.90    3.78
 -14   7  12   19.80    7.28
 -14  -7  13    0.86    3.35
 -14   7  13   -1.24    3.12
 -14  -7  13    9.60    4.46
 -14   7  13    4.23    5.16
 -14   8  -8   13.39    5.72
 -14  -8  -8   17.02    6.23
 -14   8  -8   14.61    4.70
 -14   8  -7   13.61    5.73
 -14  -8  -7   11.20    5.12
 -14   8  -7   -1.43    4.46
 -14   8  -6   37.72    8.16
 -14  -8  -6   48.74   10.08
 -14   8  -6   27.48    7.94
 -14   8  -5    0.57    2.14
 -14  -8  -5   -1.49    4.48
 -14   8  -5    4.20    5.24
 -14   8  -4   64.30   10.40
 -14  -8  -4   49.00    9.69
 -14   8  -4   51.42   11.06
 -14   8  -3   18.49    5.56
 -14  -8  -3    6.24    4.16
 -14   8  -3   20.53    7.58
 -14   8  -2    9.99    4.73
 -14  -8  -2    3.53    3.32
 -14   8  -2    5.16    3.64
 -14   8  -1   17.94    4.88
 -14   8  -1   29.35    7.57
 -14   8   0   -1.12    2.73
 -14  -8   0   -2.62    4.25
 -14   8   0    2.38    2.83
 -14   8   1   24.86    5.88
 -14  -8   1   19.31    5.98
 -14  -8   1   19.42    6.43
 -14   8   1   30.04   10.08
 -14   8   2    2.85    3.65
 -14  -8   2    9.28    5.46
 -14  -8   2   12.68    4.97
 -14   8   2    4.57    4.07
 -14   8   3   18.98    6.78
 -14  -8   3    5.92    3.27
 -14   8   3   23.50    6.75
 -14  -8   3   12.32    4.20
 -14  -8   4   49.95    9.92
 -14   8   4   47.30    9.19
 -14   8   4   38.98    8.85
 -14  -8   4   53.42   10.61
 -14  -8   5   -0.84    2.47
 -14   8   5    3.08    3.70
 -14   8   5   -2.21    3.87
 -14  -8   5   -0.45    2.79
 -14  -8   6   39.76    8.53
 -14   8   6   48.67   10.42
 -14   8   6   34.78    9.86
 -14  -8   6   22.84    7.02
 -14  -8   7   13.66    5.31
 -14   8   7   14.62    5.70
 -14   8   7    2.74    5.06
 -14  -8   7    8.03    3.70
 -14  -8   8   22.51    7.52
 -14   8   8   14.31    6.63
 -14   8   8   11.45    4.56
 -14  -8   8   21.37    6.54
 -15   0 -19   19.20    7.20
 -15   0 -18   -1.37    3.42
 -15   0 -17   -2.78    3.48
 -15   0 -16   -1.45    3.29
 -15   0 -15   -1.46    2.54
 -15   0 -14    0.30    2.77
 -15   0 -13   -1.17    2.87
 -15   0 -12    2.79    3.83
 -15   0 -11    2.36    2.86
 -15   0 -10    9.05    5.19
 -15   0 -10    0.39    2.51
 -15   0  -9   -0.72    1.81
 -15   0  -9    0.54    2.53
 -15   0  -8    1.34    2.43
 -15   0  -8   -0.75    1.80
 -15   0  -7    1.34    2.02
 -15   0  -7   -1.13    2.16
 -15   0  -6    2.89    3.81
 -15   0  -6    0.11    2.04
 -15   0  -5   -2.64    3.16
 -15   0  -5    0.28    2.07
 -15   0  -4   -3.19    3.75
 -15   0  -4    1.32    1.86
 -15   0  -3   -0.33    2.65
 -15   0  -3    2.72    3.52
 -15   0  -2   -1.80    2.85
 -15   0  -2    1.71    2.36
 -15   0  -1    0.09    2.30
 -15   0  -1   -0.03    2.01
 -15   0   0    0.52    2.98
 -15   0   0   -1.69    3.22
 -15   0   1    1.81    3.77
 -15   0   1    0.08    2.62
 -15   0   2    0.28    2.04
 -15   0   2   -2.07    2.56
 -15   0   3    1.84    3.18
 -15   0   3   -1.83    2.15
 -15   0   4   -1.36    2.69
 -15   0   4   -0.42    2.40
 -15   0   5    0.92    2.49
 -15   0   6    0.15    2.42
 -15   0   7    3.80    3.07
 -15   0   8    2.18    3.01
 -15   0   9   -3.63    3.39
 -15   0  10    0.70    3.96
 -15   0  11    1.33    3.14
 -15   0  12   -2.13    2.92
 -15   0  13   -0.17    3.06
 -15   0  14   -0.63    2.55
 -15   0  15   -1.04    2.34
 -15   0  16   -1.14    2.57
 -15   0  17    0.42    2.45
 -15   0  18    2.27    2.88
 -15   0  19   -3.13    5.52
 -15   0  20   -0.27    3.54
 -15   0  21    4.71    5.61
 -15   1 -21   -0.64    3.50
 -15   1 -20    2.32    4.48
 -15   1 -19   16.15    5.81
 -15   1 -18    3.56    4.37
 -15   1 -17   53.89   10.37
 -15   1 -16   46.76    9.25
 -15   1 -15    9.60    5.28
 -15  -1 -14   27.19    7.65
 -15   1 -14   33.16    8.01
 -15  -1 -13  208.71   18.83
 -15   1 -12   53.52    9.72
 -15  -1 -12   46.40    9.27
 -15   1 -11    4.14    3.84
 -15   1 -11    6.23    4.89
 -15  -1 -11    2.16    3.11
 -15   1 -10   17.46    6.28
 -15   1 -10   22.53    6.34
 -15  -1 -10   25.39    7.56
 -15   1  -9    5.05    3.83
 -15  -1  -9    4.53    4.53
 -15  -1  -9    2.77    1.94
 -15   1  -8   54.42   10.25
 -15  -1  -8   60.22    9.71
 -15   1  -8   76.36   12.13
 -15  -1  -8   82.78   11.39
 -15  -1  -8   62.70    8.96
 -15   1  -7  156.77   15.65
 -15  -1  -7  149.46   15.10
 -15   1  -7  146.74   15.14
 -15  -1  -7  157.31   16.14
 -15  -1  -7  127.69   13.54
 -15   1  -6   11.40    3.74
 -15  -1  -6    8.74    4.17
 -15   1  -6   11.40    4.41
 -15  -1  -6    7.88    4.60
 -15  -1  -6   11.61    5.14
 -15   1  -5   68.15   10.37
 -15  -1  -5   60.36    9.48
 -15   1  -5   46.58    9.83
 -15  -1  -5   61.77    9.71
 -15  -1  -5   63.31    9.35
 -15   1  -4   85.44   11.68
 -15  -1  -4   58.49    9.20
 -15   1  -4   71.31   10.47
 -15  -1  -4   71.52   10.81
 -15  -1  -4   68.82    9.62
 -15   1  -3  102.21   12.19
 -15  -1  -3   93.28   11.49
 -15   1  -3   95.76   12.45
 -15  -1  -3   95.67   12.27
 -15  -1  -3   91.47   11.52
 -15   1  -2   13.18    4.86
 -15   1  -2   11.91    4.51
 -15  -1  -2   10.79    4.51
 -15  -1  -2   12.35    5.78
 -15  -1  -2   12.75    5.45
 -15   1  -1    2.29    2.92
 -15   1  -1    4.83    3.40
 -15  -1  -1    3.06    2.78
 -15  -1  -1    7.29    3.13
 -15  -1  -1    2.24    2.39
 -15   1   0   -1.00    3.41
 -15   1   0   -2.19    4.76
 -15  -1   0   -0.49    3.37
 -15  -1   0    1.32    3.39
 -15  -1   0   -0.48    1.87
 -15   1   1    4.63    1.57
 -15   1   1   -0.05    2.54
 -15  -1   1    3.86    4.26
 -15  -1   1    4.00    1.81
 -15  -1   1    0.52    2.51
 -15   1   2   16.35    4.54
 -15   1   2   26.57    7.41
 -15  -1   2   18.57    5.25
 -15  -1   2    7.97    1.80
 -15  -1   2   13.56    4.89
 -15   1   3   95.45   11.62
 -15  -1   3  107.91   12.40
 -15   1   3  101.52   12.66
 -15  -1   3  116.30   13.64
 -15  -1   3   90.71   11.37
 -15   1   4   61.79    9.77
 -15  -1   4   74.99   10.44
 -15   1   4   57.63    9.79
 -15  -1   4   59.24    9.64
 -15  -1   5   64.42    9.45
 -15   1   5   50.94    7.97
 -15   1   5   54.94    9.73
 -15  -1   5   44.33    8.44
 -15  -1   6   12.79    4.94
 -15   1   6   16.52    4.99
 -15   1   6    7.68    3.72
 -15  -1   6   11.87    4.48
 -15   1   7  146.56   14.85
 -15  -1   7  146.02   15.34
 -15  -1   7  148.91   14.70
 -15   1   8   56.16    9.67
 -15  -1   8   56.00    9.88
 -15  -1   8   45.91    8.22
 -15  -1   9   14.55    4.88
 -15   1   9    3.92    3.84
 -15  -1   9    4.33    3.80
 -15  -1  10   18.44    5.32
 -15   1  10   12.56    4.22
 -15  -1  10   28.14    6.96
 -15  -1  11    1.30    3.33
 -15   1  11    1.26    1.87
 -15  -1  11    4.20    2.59
 -15  -1  12   42.12    8.43
 -15   1  12   34.55    7.46
 -15   1  13  262.51   21.01
 -15  -1  13  273.94   20.99
 -15  -1  14   26.25    6.77
 -15   1  14   17.53    5.96
 -15  -1  15   10.89    4.92
 -15   1  15    3.44    2.89
 -15  -1  16   44.99    8.76
 -15   1  16   38.42    8.53
 -15  -1  17   53.02    9.80
 -15   1  17   48.52    9.23
 -15  -1  18    4.63    3.24
 -15   1  18    2.32    2.61
 -15  -1  19   14.35    6.00
 -15   1  19   19.58    7.06
 -15  -1  20   -0.31    4.06
 -15   1  20   -1.39    3.47
 -15  -1  21   -0.66    4.29
 -15   1  21    1.44    5.13
 -15   2 -20    0.49    2.68
 -15   2 -19    4.85    5.05
 -15   2 -18    5.01    2.82
 -15   2 -17    3.13    3.44
 -15   2 -16   21.63    5.62
 -15   2 -15   23.66    5.89
 -15   2 -14   27.50    6.40
 -15  -2 -14   32.63    7.74
 -15   2 -13   46.69    8.89
 -15  -2 -13   51.94    8.99
 -15   2 -12    6.69    3.07
 -15   2 -12   11.26    5.16
 -15  -2 -12    8.33    3.85
 -15   2 -11    9.01    4.85
 -15   2 -11    2.57    2.87
 -15  -2 -11    8.68    3.83
 -15   2 -10   25.97    6.53
 -15   2 -10   24.12    6.67
 -15  -2 -10   14.71    5.08
 -15   2  -9   17.95    5.67
 -15   2  -9    9.74    4.98
 -15  -2  -9   13.44    7.45
 -15  -2  -9   10.50    4.39
 -15   2  -8    7.13    3.79
 -15   2  -8    2.82    2.26
 -15  -2  -8    4.51    2.65
 -15  -2  -8    4.95    4.19
 -15   2  -7   23.27    5.61
 -15  -2  -7   25.06    7.32
 -15   2  -7   20.01    5.33
 -15  -2  -7   30.85    7.51
 -15  -2  -7   29.77    7.12
 -15   2  -6   12.35    6.03
 -15   2  -6    9.78    5.16
 -15  -2  -6   11.37    4.65
 -15  -2  -6   13.44    6.47
 -15  -2  -6   19.74    5.66
 -15   2  -5   23.20    5.85
 -15   2  -5   14.88    5.09
 -15  -2  -5    8.34    5.30
 -15  -2  -5   30.01    6.98
 -15  -2  -5   11.93    5.10
 -15   2  -4   18.28    5.46
 -15   2  -4   15.92    5.69
 -15  -2  -4   15.40    5.15
 -15  -2  -4   15.77    4.51
 -15  -2  -4   13.25    5.21
 -15   2  -3    2.53    4.07
 -15   2  -3    0.07    3.48
 -15  -2  -3   -1.35    2.01
 -15  -2  -3    0.10    1.83
 -15  -2  -3    1.16    2.01
 -15   2  -2    2.69    1.49
 -15   2  -2   -0.07    2.66
 -15  -2  -2    9.30    3.93
 -15  -2  -2    7.70    3.73
 -15  -2  -2    0.78    2.29
 -15   2  -1   -1.15    2.65
 -15   2  -1    0.56    2.02
 -15  -2  -1    2.33    3.30
 -15  -2  -1    0.97    2.01
 -15  -2  -1    2.55    3.92
 -15  -2   0    1.77    3.12
 -15   2   0    0.34    2.95
 -15   2   0    3.87    5.36
 -15  -2   0    0.42    1.75
 -15  -2   0    2.43    3.99
 -15  -2   1    1.57    2.14
 -15   2   1    5.35    3.77
 -15   2   1   -0.28    1.80
 -15  -2   1    5.50    4.45
 -15  -2   1    4.49    4.26
 -15   2   2    7.13    4.61
 -15   2   2    0.21    3.12
 -15  -2   2   -0.74    2.40
 -15  -2   2    0.85    2.23
 -15  -2   3    1.86    1.97
 -15   2   3    2.56    1.90
 -15   2   3    1.08    2.46
 -15  -2   3   -0.20    2.12
 -15  -2   4   12.27    4.49
 -15  -2   4   14.79    4.80
 -15   2   4   21.08    6.76
 -15   2   4   11.83    5.00
 -15  -2   5   24.99    6.45
 -15  -2   5   20.99    6.53
 -15   2   5   16.55    5.23
 -15   2   5   22.28    6.83
 -15  -2   6    7.57    3.03
 -15  -2   6   19.10    5.59
 -15   2   6   11.09    4.06
 -15   2   6   13.55    5.86
 -15   2   7   32.89    7.91
 -15   2   7   19.96    6.23
 -15  -2   7   18.67    5.21
 -15  -2   8   10.50    5.45
 -15   2   8    7.43    4.06
 -15   2   8   10.19    4.31
 -15  -2   8    2.31    3.48
 -15  -2   9    6.67    4.33
 -15   2   9    4.42    3.72
 -15  -2   9   12.18    5.48
 -15  -2  10   26.89    7.01
 -15   2  10   27.76    7.32
 -15  -2  10   34.76    8.05
 -15  -2  11   10.16    5.64
 -15   2  11    8.63    4.98
 -15  -2  11   11.06    5.79
 -15  -2  12    9.95    4.99
 -15   2  12    4.41    4.58
 -15   2  13   58.96    9.84
 -15  -2  13   48.48    9.62
 -15  -2  14   32.81    7.49
 -15   2  14   29.31    7.51
 -15  -2  15   28.88    6.93
 -15   2  15   36.36    8.38
 -15  -2  16   19.84    6.63
 -15   2  16   26.15    7.42
 -15  -2  17   -0.81    3.89
 -15   2  17    2.30    2.25
 -15  -2  18   19.86    6.80
 -15   2  18   17.73    6.96
 -15  -2  19   18.71    6.17
 -15   2  19    7.36    4.96
 -15  -2  20    2.19    3.86
 -15   2  20    4.09    2.71
 -15   3 -19    7.27    4.07
 -15   3 -18   50.97    9.60
 -15   3 -17   68.33   11.31
 -15  -3 -17  116.66   14.22
 -15   3 -16   10.00    4.63
 -15  -3 -16   14.97    5.78
 -15   3 -15   14.44    4.02
 -15  -3 -15   14.47    4.61
 -15   3 -14   15.25    6.56
 -15  -3 -14   15.95    5.79
 -15   3 -13   10.37    4.40
 -15   3 -13    8.69    4.58
 -15  -3 -13   15.27    4.61
 -15   3 -12  110.08   14.18
 -15  -3 -12  107.96   13.42
 -15   3 -12  105.05   14.24
 -15   3 -11   43.97    8.83
 -15   3 -11   34.64    8.49
 -15  -3 -11   35.97    7.89
 -15   3 -10    2.76    2.96
 -15   3 -10    4.32    3.40
 -15  -3 -10    8.94    4.56
 -15   3  -9   20.06    5.04
 -15   3  -9   16.77    6.63
 -15  -3  -9   12.73    4.01
 -15   3  -8   44.07    8.23
 -15   3  -8   31.86    7.91
 -15  -3  -8   40.85    8.38
 -15   3  -7   26.43    7.02
 -15   3  -7   17.74    5.19
 -15  -3  -7   27.84    6.14
 -15   3  -6   60.24   10.10
 -15   3  -6   56.28    9.77
 -15  -3  -6   53.55    8.57
 -15  -3  -6   65.38   10.31
 -15  -3  -5   31.12    6.72
 -15   3  -5   36.19    7.85
 -15   3  -5   32.87    7.62
 -15  -3  -5   39.60    7.64
 -15  -3  -4   31.89    7.70
 -15   3  -4   28.39    6.46
 -15   3  -4   28.10    7.03
 -15  -3  -4   29.28    6.83
 -15   3  -3  118.91   13.70
 -15  -3  -3  148.50   14.86
 -15   3  -3  153.25   16.25
 -15  -3  -3  123.30   14.24
 -15  -3  -3  170.30   16.01
 -15  -3  -2   36.32    7.67
 -15   3  -2   43.21    8.04
 -15  -3  -2   47.07    8.95
 -15   3  -2   31.50    6.93
 -15  -3  -2   43.68    8.01
 -15  -3  -1   35.65    7.95
 -15  -3  -1   35.29    7.52
 -15   3  -1   57.85    9.21
 -15   3  -1   41.68    8.02
 -15  -3  -1   42.29    8.63
 -15   3   0   85.09   11.47
 -15   3   0   94.32   12.44
 -15  -3   0   66.91   10.06
 -15  -3   0   80.68   11.31
 -15  -3   0   74.38   10.85
 -15  -3   1   39.10    7.58
 -15   3   1   37.30    7.54
 -15   3   1   53.00    9.72
 -15  -3   1   47.77    8.84
 -15  -3   1   40.14    8.65
 -15  -3   2   27.96    7.04
 -15  -3   2   39.87    7.68
 -15   3   2   44.70    8.75
 -15   3   2   31.70    7.48
 -15  -3   2   32.14    7.91
 -15   3   3  137.52   14.96
 -15   3   3  129.77   14.60
 -15  -3   3  153.91   14.93
 -15  -3   3  127.25   13.78
 -15  -3   4   14.63    5.16
 -15  -3   4   22.07    6.18
 -15   3   4   24.06    6.07
 -15  -3   5   37.27    7.72
 -15  -3   5   37.57    7.43
 -15   3   5   39.71    8.09
 -15   3   5   47.84    9.06
 -15   3   6   50.91    9.00
 -15   3   6   68.38   10.55
 -15  -3   6   61.34    9.96
 -15  -3   6   58.92   10.42
 -15  -3   7   29.68    7.20
 -15  -3   7   23.80    6.86
 -15   3   7   23.32    6.90
 -15   3   7   24.79    6.83
 -15  -3   8   29.70    7.49
 -15  -3   8   35.44    7.33
 -15   3   8   40.08    8.23
 -15   3   8   32.67    7.96
 -15  -3   9   32.18    7.69
 -15  -3   9   23.03    5.43
 -15   3   9   36.25    7.98
 -15   3   9   24.12    6.59
 -15  -3  10    5.00    3.77
 -15  -3  10    7.90    4.11
 -15   3  10    7.01    3.29
 -15   3  10    0.90    2.70
 -15  -3  11   32.29    7.97
 -15  -3  11   38.40    8.05
 -15   3  11   28.79    6.79
 -15   3  12  115.14   13.54
 -15  -3  12  104.48   13.62
 -15  -3  13   15.70    6.42
 -15   3  13    8.63    4.12
 -15  -3  14   20.31    6.64
 -15   3  14   20.47    5.53
 -15  -3  15   15.02    3.97
 -15   3  15   10.35    5.81
 -15  -3  16    9.81    4.89
 -15   3  16    9.24    4.85
 -15   3  17   92.59   13.54
 -15  -3  17   94.48   12.75
 -15  -3  18   43.97    9.55
 -15   3  18   54.27   10.88
 -15  -3  19   11.45    5.39
 -15   3  19    2.50    3.21
 -15   4 -18    7.54    4.95
 -15  -4 -18   10.71    5.66
 -15   4 -17   19.43    5.95
 -15  -4 -17   21.99    6.54
 -15   4 -16   37.11    7.98
 -15  -4 -16   19.83    6.45
 -15   4 -15   55.18   10.01
 -15  -4 -15   35.12    7.95
 -15   4 -14   21.88    5.92
 -15   4 -14   35.34    7.75
 -15  -4 -14   45.13    8.68
 -15   4 -13   53.27   10.65
 -15   4 -13   32.95    7.73
 -15  -4 -13   38.08    8.75
 -15   4 -12    5.19    4.28
 -15   4 -12   10.55    4.92
 -15  -4 -12    4.45    2.75
 -15   4 -11   38.09    8.16
 -15   4 -11   66.24   10.99
 -15  -4 -11   50.91    9.48
 -15  -4 -10   36.11    8.74
 -15   4 -10   23.17    6.60
 -15   4 -10   21.23    5.57
 -15  -4  -9   37.30    8.49
 -15   4  -9   25.25    7.42
 -15   4  -9   31.06    7.98
 -15   4  -8   48.44    9.41
 -15   4  -8   43.57    9.35
 -15  -4  -8   63.13    9.98
 -15   4  -7   47.78    9.10
 -15  -4  -7   47.88    9.72
 -15  -4  -6   23.09    6.97
 -15   4  -6   17.18    6.12
 -15   4  -6    9.62    3.10
 -15  -4  -5   29.71    6.85
 -15   4  -5   39.40    7.99
 -15  -4  -5   51.52   10.61
 -15   4  -5   32.05    6.80
 -15  -4  -4   12.91    6.17
 -15  -4  -4   21.09    5.63
 -15   4  -4   12.84    5.07
 -15   4  -4   12.98    5.66
 -15  -4  -3   11.22    4.04
 -15  -4  -3   13.81    4.56
 -15   4  -3   13.41    5.01
 -15   4  -3    3.02    2.13
 -15  -4  -2    0.42    3.48
 -15  -4  -2   -1.59    3.13
 -15   4  -2    5.27    3.33
 -15   4  -2    8.46    4.14
 -15  -4  -1    9.60    4.18
 -15  -4  -1   16.58    5.09
 -15   4  -1   17.47    4.76
 -15   4  -1   16.70    7.00
 -15  -4   0   38.82    8.83
 -15  -4   0   27.18    7.55
 -15   4   0   26.28    6.12
 -15   4   0   41.86    9.27
 -15  -4   1   27.33    6.24
 -15  -4   1   15.99    5.29
 -15   4   1   18.04    5.98
 -15   4   1   28.21    8.02
 -15  -4   2    6.50    3.78
 -15  -4   2    2.73    3.39
 -15   4   2    6.79    3.11
 -15   4   2    9.61    3.57
 -15  -4   3   19.10    6.34
 -15  -4   3    9.28    4.83
 -15   4   3   12.04    4.32
 -15   4   3    7.61    5.78
 -15  -4   4   10.58    4.08
 -15  -4   4   25.26    6.60
 -15   4   4   11.97    5.01
 -15   4   4   12.50    6.50
 -15  -4   5   28.46    6.58
 -15   4   5   43.31    8.90
 -15   4   5   24.17    7.24
 -15  -4   5   46.04    9.59
 -15  -4   6   17.67    6.36
 -15  -4   6   20.95    6.15
 -15   4   6   17.79    5.70
 -15   4   6   17.42    6.08
 -15   4   7   59.27    9.95
 -15   4   7   58.75   10.44
 -15  -4   7   56.14   10.11
 -15  -4   7   65.56   10.58
 -15   4   8   70.52   10.80
 -15  -4   8   46.46    8.85
 -15   4   8   56.92    9.85
 -15  -4   8   63.16    9.95
 -15  -4   9   26.50    6.74
 -15  -4   9   32.67    8.22
 -15   4   9   24.57    7.03
 -15   4   9   32.76    8.01
 -15  -4  10   22.09    6.81
 -15  -4  10   15.29    5.72
 -15   4  10   18.25    5.71
 -15   4  10   22.80    6.53
 -15  -4  11   60.46    9.80
 -15   4  11   64.27   10.92
 -15   4  11   46.18    9.40
 -15  -4  11   76.53   10.90
 -15  -4  12    5.82    2.37
 -15  -4  12    6.56    3.44
 -15   4  12    3.48    2.26
 -15   4  12   11.71    6.72
 -15  -4  13   45.45    8.64
 -15   4  13   44.36    8.23
 -15   4  13   45.35    9.94
 -15  -4  14   36.67    8.89
 -15   4  14   33.77    8.80
 -15   4  14   42.66    9.02
 -15  -4  15   56.84    9.53
 -15   4  15   27.57    7.54
 -15  -4  16   26.46    7.84
 -15   4  16   10.06    4.00
 -15  -4  17    9.51    4.69
 -15   4  17   25.22    7.43
 -15  -4  18   15.67    5.98
 -15   4  18   15.32    5.76
 -15   5 -16   13.44    5.73
 -15  -5 -16   15.86    6.80
 -15   5 -15   26.73    7.08
 -15   5 -15   25.24    7.36
 -15  -5 -15   10.30    5.90
 -15   5 -14   30.51    7.80
 -15   5 -14   31.31    7.49
 -15  -5 -14   22.64    6.61
 -15  -5 -13   32.46    8.23
 -15   5 -13   38.03    9.09
 -15   5 -13   53.10   10.20
 -15  -5 -12   15.53    5.94
 -15   5 -12   19.07    6.03
 -15   5 -12   22.53    7.76
 -15  -5 -11   13.00    3.90
 -15   5 -11   10.03    3.30
 -15   5 -11   15.07    4.90
 -15  -5 -10   28.33    6.84
 -15   5 -10   39.96    9.40
 -15   5 -10   34.77    8.66
 -15   5  -9  119.24   14.49
 -15  -5  -9  116.28   14.08
 -15   5  -9  128.93   15.07
 -15  -5  -8   11.43    5.11
 -15   5  -8   15.61    4.63
 -15   5  -8    9.93    4.92
 -15  -5  -7   30.72    7.67
 -15   5  -7   19.94    5.85
 -15   5  -7   24.66    7.07
 -15  -5  -6   42.95    7.77
 -15   5  -6   44.10    9.36
 -15   5  -6   56.12   10.48
 -15  -5  -5   17.15    6.20
 -15   5  -5   17.34    5.69
 -15   5  -5    9.42    4.80
 -15  -5  -4   24.25    5.99
 -15   5  -4   33.73    8.05
 -15   5  -4   21.40    6.75
 -15   5  -3   90.01   13.02
 -15   5  -3   81.78   12.63
 -15  -5  -3  108.93   13.10
 -15  -5  -3  103.37   12.45
 -15  -5  -2    1.74    2.93
 -15  -5  -2    3.81    2.31
 -15   5  -2   -0.62    1.62
 -15   5  -2    0.76    3.63
 -15   5  -1   89.60   12.50
 -15   5  -1  113.24   14.10
 -15  -5  -1  103.43   12.51
 -15  -5  -1  116.13   13.71
 -15   5   0  135.50   15.48
 -15   5   0  103.13   13.95
 -15  -5   0  131.15   14.52
 -15  -5   0  115.83   13.45
 -15   5   1  119.06   13.90
 -15   5   1   94.92   13.04
 -15  -5   1  109.18   13.90
 -15  -5   1   88.23   11.49
 -15  -5   2    1.77    3.32
 -15   5   2    0.51    3.05
 -15  -5   2    2.12    2.04
 -15   5   2    2.69    3.76
 -15   5   3  104.44   13.79
 -15   5   3   99.38   13.22
 -15  -5   3  108.10   12.57
 -15  -5   3  101.96   12.58
 -15  -5   4   29.58    7.18
 -15   5   4   23.61    6.92
 -15  -5   4   37.90    7.53
 -15   5   4   32.99    7.85
 -15  -5   5    1.61    3.02
 -15   5   5   16.48    5.11
 -15  -5   5   13.56    5.36
 -15   5   5   13.57    5.79
 -15  -5   6   50.92    7.67
 -15   5   6   31.19    6.89
 -15  -5   6   33.37    7.01
 -15   5   6   61.19   10.51
 -15  -5   7   24.45    6.22
 -15   5   7   12.96    5.29
 -15  -5   7   19.85    5.56
 -15   5   7   17.17    5.26
 -15  -5   8   16.97    4.60
 -15   5   8   13.90    6.57
 -15  -5   8   16.37    5.13
 -15   5   8   14.98    6.23
 -15  -5   9  114.16   13.80
 -15   5   9  118.12   15.45
 -15   5   9   99.06   13.32
 -15  -5   9  122.08   14.17
 -15  -5  10   39.13    8.34
 -15   5  10   22.34    7.77
 -15  -5  10   41.76    7.14
 -15   5  10   36.69    9.30
 -15  -5  11    8.08    4.64
 -15   5  11   21.66    7.33
 -15  -5  11   16.03    5.81
 -15   5  11   12.76    5.05
 -15  -5  12   20.59    5.27
 -15   5  12   14.44    5.40
 -15  -5  12   24.73    7.10
 -15   5  12   21.05    6.75
 -15   5  13   33.87    8.61
 -15  -5  13   49.61    9.49
 -15   5  13   47.55    9.90
 -15   5  14   17.69    6.14
 -15  -5  14   25.06    7.01
 -15   5  14   36.56    9.44
 -15   5  15   20.15    7.00
 -15  -5  15   20.90    6.32
 -15   5  15   30.50    9.09
 -15   5  16   13.08    5.71
 -15  -5  16   13.36    5.37
 -15   5  16   10.77    4.91
 -15   6 -14    9.02    6.00
 -15  -6 -14    4.10    4.93
 -15   6 -14   -1.95    5.49
 -15  -6 -13   -1.38    2.55
 -15   6 -13    0.84    3.82
 -15   6 -13   -2.52    4.46
 -15  -6 -12   13.16    5.18
 -15   6 -12    6.87    2.90
 -15   6 -12    4.72    2.52
 -15  -6 -11    3.33    4.26
 -15   6 -11   13.90    6.53
 -15   6 -11    7.87    4.64
 -15  -6 -10   24.01    6.43
 -15   6 -10   13.82    6.91
 -15   6 -10   20.01    5.49
 -15  -6  -9    5.91    3.69
 -15   6  -9    5.81    3.59
 -15   6  -9    8.89    2.92
 -15  -6  -8    9.99    3.96
 -15   6  -8    7.62    4.19
 -15   6  -8    5.14    5.79
 -15  -6  -7    5.75    2.93
 -15   6  -7    7.29    4.08
 -15   6  -7    5.16    2.53
 -15  -6  -6    5.89    3.62
 -15   6  -6   14.25    5.94
 -15   6  -6   13.13    5.08
 -15  -6  -5    4.23    2.72
 -15   6  -5   11.41    5.70
 -15   6  -5   10.94    5.45
 -15   6  -4   41.78    9.11
 -15  -6  -4   50.34    9.74
 -15   6  -4   63.25   10.47
 -15  -6  -3    4.12    5.03
 -15   6  -3    1.21    2.90
 -15   6  -3    9.04    5.16
 -15  -6  -2   35.67    7.64
 -15   6  -2   46.16    9.65
 -15  -6  -2   54.16    9.71
 -15   6  -2   54.59   10.08
 -15  -6  -1   40.62    8.03
 -15   6  -1   43.92    8.58
 -15   6  -1   53.99   10.28
 -15  -6  -1   55.72   10.43
 -15   6   0   58.92   10.13
 -15  -6   0   51.08    9.15
 -15  -6   0   52.93    9.81
 -15   6   0   43.56    9.80
 -15  -6   1   67.75   11.06
 -15  -6   1   62.74   10.01
 -15   6   1   51.60    9.73
 -15   6   1   58.73   11.01
 -15   6   2   60.87   10.66
 -15  -6   2   31.25    7.45
 -15  -6   2   36.93    7.63
 -15   6   2   41.64    9.28
 -15  -6   3    1.32    2.49
 -15   6   3    7.94    5.36
 -15  -6   3    0.77    1.99
 -15   6   3    3.26    4.54
 -15  -6   4   54.21    9.58
 -15   6   4   38.32    8.42
 -15  -6   4   51.54    9.26
 -15   6   4   53.28   10.13
 -15  -6   5    8.36    5.02
 -15   6   5    4.51    4.26
 -15  -6   5   10.97    6.31
 -15   6   5   16.26    6.54
 -15  -6   6   15.70    5.09
 -15   6   6    9.20    5.30
 -15  -6   6    8.72    5.09
 -15   6   6   11.23    3.45
 -15  -6   7    8.41    3.90
 -15   6   7    3.75    4.12
 -15  -6   7   15.14    6.78
 -15   6   7    7.05    4.68
 -15  -6   8    5.22    4.31
 -15   6   8    9.95    5.41
 -15  -6   8    9.66    4.57
 -15   6   8   11.97    6.46
 -15  -6   9    5.20    2.66
 -15   6   9    3.30    3.98
 -15  -6   9    4.02    3.55
 -15   6   9    7.65    4.47
 -15  -6  10   38.72    8.30
 -15   6  10   29.95    8.22
 -15  -6  10   24.81    7.25
 -15   6  10   27.62    8.37
 -15  -6  11    8.58    4.53
 -15   6  11   13.03    4.89
 -15  -6  11   11.80    4.18
 -15   6  11    3.83    3.00
 -15  -6  12    4.91    3.47
 -15   6  12    4.39    4.63
 -15  -6  12    6.04    1.87
 -15   6  12   11.91    5.65
 -15   6  13   -4.61    3.72
 -15  -6  13    0.26    2.04
 -15   6  13   -2.33    3.63
 -15   6  14   -0.65    4.85
 -15  -6  14    1.54    3.22
 -15   6  14    3.65    2.90
 -15   7 -10   35.74    9.78
 -15  -7 -10   37.54    8.08
 -15   7 -10   53.49   10.74
 -15   7  -9   32.32    9.20
 -15  -7  -9   19.44    6.70
 -15   7  -9   42.44    9.14
 -15  -7  -8    1.30    4.03
 -15   7  -8   -1.55    3.13
 -15   7  -8    2.84    5.60
 -15  -7  -7   26.22    6.66
 -15   7  -7   23.35    6.48
 -15   7  -7   31.11    7.28
 -15  -7  -6    7.33    3.43
 -15   7  -6    0.52    3.49
 -15   7  -6   11.41    5.65
 -15  -7  -5   17.13    5.43
 -15   7  -5   10.42    3.30
 -15   7  -5   18.51    5.39
 -15  -7  -4   24.43    7.24
 -15   7  -4   23.38    7.17
 -15   7  -4   19.14    6.27
 -15  -7  -3   37.70    8.39
 -15   7  -3   28.31    6.18
 -15   7  -3   25.15    8.00
 -15  -7  -2    3.96    3.69
 -15   7  -2    2.74    3.20
 -15   7  -2    6.16    4.04
 -15  -7  -1   42.65    7.84
 -15   7  -1   32.24    7.95
 -15  -7   0   30.42    8.28
 -15   7   0   19.44    4.14
 -15  -7   0   28.71    6.57
 -15   7   0   23.56    5.44
 -15  -7   1   49.73    9.99
 -15   7   1   38.57    9.40
 -15  -7   1   41.67    8.43
 -15   7   1   46.05    9.81
 -15  -7   2   15.76    7.40
 -15   7   2    6.61    3.91
 -15  -7   2   11.51    6.11
 -15   7   2   10.40    6.02
 -15  -7   3   27.99    7.45
 -15   7   3   25.08    6.78
 -15  -7   3   31.43    7.96
 -15   7   3   48.66   10.07
 -15  -7   4   14.01    4.87
 -15   7   4   19.62    5.00
 -15  -7   4   26.85    7.26
 -15   7   4   22.69    7.57
 -15  -7   5   10.07    4.87
 -15   7   5   12.21    5.36
 -15  -7   5   14.28    5.24
 -15   7   5   13.20    6.56
 -15  -7   6    0.95    2.49
 -15   7   6    8.63    4.70
 -15  -7   6    7.06    5.41
 -15   7   6    6.40    4.97
 -15  -7   7   21.77    5.98
 -15   7   7   19.37    5.57
 -15  -7   7   27.49    7.22
 -15   7   7   38.37    9.04
 -15  -7   8   -0.53    4.45
 -15   7   8    0.56    3.10
 -15  -7   8    3.43    2.49
 -15   7   8   -0.84    4.16
 -15  -7   9   36.09    7.11
 -15   7   9   49.02   10.73
 -15  -7   9   39.49    8.80
 -15   7   9   51.26   11.02
 -15  -7  10   34.46    7.88
 -15   7  10   34.03    9.53
 -15  -7  10   25.50    7.34
 -15   7  10   22.77    7.03
 -15   8  -2   48.20   10.20
 -15  -8  -2   46.71    9.69
 -15   8  -2   33.42    9.76
 -15   8  -1   16.77    6.62
 -15   8  -1   20.26    6.21
 -15  -8   0   25.90    7.55
 -15   8   0   15.96    6.69
 -15   8   0   14.05    5.87
 -15  -8   1   20.14    6.31
 -15   8   1   24.81    7.98
 -15  -8   1   30.56   10.06
 -15   8   1   17.93    6.13
 -15  -8   2   40.99    8.48
 -15   8   2   48.24    9.88
 -15  -8   2   33.15    8.06
 -15   8   2   38.63    9.88
 -16   0 -17   74.49   12.94
 -16   0 -16    6.78    5.00
 -16   0 -15   18.08    5.08
 -16   0 -14   -0.20    2.63
 -16   0 -13  340.89   24.61
 -16   0 -12   25.20    6.68
 -16   0 -11   55.33   10.20
 -16   0 -10   31.10    7.67
 -16   0  -9   59.22   10.05
 -16   0  -9   61.36   10.79
 -16   0  -8   20.62    6.33
 -16   0  -8   26.35    7.47
 -16   0  -7  263.11   20.45
 -16   0  -7  258.31   21.38
 -16   0  -6    9.22    4.13
 -16   0  -6   11.56    4.58
 -16   0  -5    6.26    3.30
 -16   0  -5    6.13    3.89
 -16   0  -4   39.85    7.70
 -16   0  -4   48.14    9.49
 -16   0  -3  210.53   18.58
 -16   0  -3  168.09   16.75
 -16   0  -2  187.50   17.07
 -16   0  -2  160.80   16.38
 -16   0  -1   32.51    7.84
 -16   0  -1   31.33    7.24
 -16   0   0   10.99    4.54
 -16   0   0   11.63    5.04
 -16   0   1   33.01    7.10
 -16   0   1   19.67    5.50
 -16   0   2  170.96   16.06
 -16   0   2  157.53   16.80
 -16   0   3  217.57   18.36
 -16   0   3  233.91   19.91
 -16   0   4   46.09    9.45
 -16   0   4   54.67    9.50
 -16   0   5    0.63    2.72
 -16   0   5    5.80    4.03
 -16   0   6   14.30    5.62
 -16   0   6   13.51    4.86
 -16   0   7  281.98   20.71
 -16   0   8   21.83    6.81
 -16   0   9   80.61   10.80
 -16   0  10   45.14    9.03
 -16   0  11   37.36    7.96
 -16   0  12   11.40    3.81
 -16   0  13  293.58   22.29
 -16   0  14    5.31    3.60
 -16   0  15   27.37    6.98
 -16   0  16    5.57    4.66
 -16   0  17  123.36   15.72
 -16   0  18   58.95   10.70
 -16   0  19  184.05   18.53
 -16   1 -19    1.51    3.30
 -16   1 -18    0.83    4.96
 -16   1 -17   19.66    7.00
 -16   1 -16   -2.37    3.01
 -16   1 -15    7.00    3.44
 -16   1 -14   39.01    8.23
 -16  -1 -13   16.78    7.35
 -16   1 -13    6.90    4.95
 -16  -1 -12    0.96    2.32
 -16   1 -12    6.16    5.26
 -16   1 -11    0.05    1.85
 -16  -1 -11    1.38    3.65
 -16   1 -10    1.00    3.07
 -16   1 -10   -1.47    2.06
 -16  -1 -10    2.49    3.62
 -16   1  -9    7.70    4.59
 -16   1  -9   12.36    4.78
 -16  -1  -9   20.18    6.64
 -16   1  -8    5.84    3.56
 -16  -1  -8   -2.73    2.98
 -16   1  -8    6.01    4.52
 -16  -1  -8    0.99    2.48
 -16   1  -7    3.14    2.46
 -16  -1  -7    1.63    3.20
 -16   1  -7   -1.75    2.86
 -16  -1  -7    4.73    4.86
 -16  -1  -7   -0.68    1.85
 -16   1  -6    6.25    4.31
 -16  -1  -6    5.75    2.70
 -16   1  -6    6.68    4.57
 -16  -1  -6    8.32    3.51
 -16  -1  -6   12.51    5.40
 -16   1  -5   27.86    6.68
 -16  -1  -5   28.59    7.53
 -16   1  -5   35.86    9.09
 -16  -1  -5   21.88    6.17
 -16  -1  -5   27.31    6.49
 -16   1  -4   -1.20    4.57
 -16  -1  -4    0.31    1.57
 -16   1  -4    0.47    3.04
 -16  -1  -4   -0.28    2.96
 -16  -1  -4    5.06    4.21
 -16  -1  -3   44.74    8.75
 -16   1  -3   29.40    6.91
 -16   1  -3   40.04    8.34
 -16  -1  -3   33.18    7.77
 -16  -1  -3   36.38    7.98
 -16   1  -2    2.18    3.59
 -16  -1  -2   -1.42    1.85
 -16   1  -2    1.35    2.95
 -16  -1  -2    9.08    3.48
 -16  -1  -2    3.63    3.19
 -16   1  -1    4.73    2.20
 -16  -1  -1   13.69    5.42
 -16   1  -1    9.62    4.18
 -16  -1  -1   11.72    4.23
 -16  -1  -1    8.60    5.20
 -16   1   0    4.25    3.97
 -16   1   0    0.57    2.68
 -16  -1   0    5.07    2.51
 -16  -1   0    7.65    5.21
 -16  -1   0    2.90    1.87
 -16   1   1   12.93    4.96
 -16   1   1   12.95    4.77
 -16  -1   1   12.04    4.18
 -16  -1   1    5.59    2.19
 -16  -1   1   13.10    5.67
 -16   1   2    1.55    2.57
 -16   1   2    8.44    4.17
 -16  -1   2    2.31    4.12
 -16  -1   2    7.31    4.22
 -16  -1   2    4.45    4.21
 -16   1   3   59.13    9.87
 -16  -1   3   45.30    8.59
 -16   1   3   42.48    8.62
 -16  -1   3   33.12    7.60
 -16  -1   3   43.47    7.90
 -16   1   4   -1.02    3.51
 -16   1   4   -0.40    3.12
 -16  -1   4    4.76    4.38
 -16  -1   4    1.55    2.95
 -16  -1   4    2.61    4.60
 -16   1   5   28.48    6.51
 -16   1   5   32.60    7.85
 -16  -1   5   35.90    7.95
 -16  -1   5   39.57    7.63
 -16   1   6    9.46    4.61
 -16   1   6    4.42    4.00
 -16  -1   6    3.91    1.89
 -16  -1   6    3.47    1.87
 -16   1   7    0.99    3.07
 -16   1   7   -0.65    2.77
 -16  -1   7    2.43    3.40
 -16  -1   7    3.16    3.89
 -16  -1   8    1.76    3.44
 -16   1   8   -1.99    3.65
 -16  -1   8    3.51    3.17
 -16  -1   9    4.46    3.66
 -16  -1   9   10.79    4.30
 -16  -1  10    2.30    3.69
 -16   1  10    6.19    4.47
 -16  -1  10   -1.20    4.34
 -16  -1  11    9.69    5.68
 -16   1  11    4.49    4.10
 -16  -1  12   -0.83    3.78
 -16   1  12   -1.25    3.12
 -16  -1  13   14.24    5.84
 -16   1  13   18.03    6.34
 -16  -1  14   37.92    7.95
 -16   1  14   49.05   10.51
 -16  -1  15    6.63    4.88
 -16   1  15    3.84    2.74
 -16  -1  16    3.54    3.52
 -16   1  16    6.37    3.27
 -16  -1  17   16.80    6.97
 -16   1  17   17.32    5.49
 -16  -1  18    2.02    3.82
 -16   1  18    2.85    3.36
 -16  -1  19    4.65    4.71
 -16   1  19   -0.97    3.81
 -16   2 -18    5.00    4.40
 -16   2 -17  131.80   15.64
 -16   2 -16   11.81    5.48
 -16   2 -15    1.54    2.59
 -16   2 -14    1.67    3.29
 -16   2 -13  171.41   17.76
 -16   2 -12   26.71    6.84
 -16  -2 -12   13.65    5.34
 -16   2 -11   34.74    8.50
 -16   2 -11   22.47    5.86
 -16  -2 -11   22.43    6.13
 -16   2 -10    4.94    2.62
 -16   2 -10    8.62    4.55
 -16  -2 -10    6.31    3.25
 -16   2  -9   29.37    7.46
 -16   2  -9   42.52    9.14
 -16  -2  -9   32.62    7.32
 -16   2  -8    5.94    3.99
 -16   2  -8   10.61    4.60
 -16  -2  -8    3.23    2.65
 -16   2  -7  113.07   13.45
 -16  -2  -7  103.53   14.01
 -16   2  -7  127.10   15.30
 -16  -2  -7  125.32   14.81
 -16  -2  -7  132.51   14.40
 -16   2  -6    2.92    2.83
 -16  -2  -6   12.32    4.30
 -16   2  -6    6.19    4.34
 -16  -2  -6    5.31    4.21
 -16  -2  -6   10.81    5.47
 -16   2  -5   12.46    5.65
 -16   2  -5   17.16    5.70
 -16  -2  -5   15.66    5.50
 -16  -2  -5   14.03    4.95
 -16  -2  -5   16.89    6.48
 -16   2  -4    8.29    3.58
 -16   2  -4    1.18    2.71
 -16  -2  -4    2.78    3.33
 -16  -2  -4   11.33    5.81
 -16  -2  -4   10.74    5.12
 -16   2  -3  150.98   15.54
 -16  -2  -3  150.07   15.15
 -16   2  -3  163.17   16.46
 -16  -2  -3  141.76   15.86
 -16  -2  -3  177.65   16.52
 -16   2  -2    6.98    3.47
 -16   2  -2    1.35    2.50
 -16  -2  -2    7.46    5.04
 -16  -2  -2    4.10    3.20
 -16  -2  -2    2.41    2.14
 -16   2  -1   15.53    4.60
 -16   2  -1   18.62    5.87
 -16  -2  -1   14.40    5.21
 -16  -2  -1   30.90    7.25
 -16  -2  -1   22.13    6.66
 -16   2   0   -0.60    1.54
 -16   2   0    3.53    1.81
 -16  -2   0    1.27    2.30
 -16  -2   0   -0.82    3.41
 -16  -2   0    1.18    2.22
 -16   2   1   13.12    4.71
 -16   2   1   26.73    6.72
 -16  -2   1   18.18    6.71
 -16  -2   1   16.47    5.65
 -16  -2   1   14.50    4.75
 -16  -2   2    8.98    4.28
 -16   2   2   13.62    5.46
 -16   2   2    5.63    4.36
 -16  -2   2   -0.19    2.92
 -16  -2   2    3.90    2.65
 -16   2   3  143.08   14.81
 -16  -2   3  170.81   16.60
 -16   2   3  160.72   16.64
 -16  -2   3  136.15   15.54
 -16  -2   3  163.04   16.16
 -16  -2   4   10.92    5.06
 -16   2   4    6.08    3.66
 -16   2   4    5.20    3.90
 -16  -2   4    9.48    3.60
 -16  -2   4    5.72    2.91
 -16  -2   5   18.57    6.08
 -16   2   5   16.31    5.58
 -16   2   5   16.89    5.31
 -16  -2   5   14.21    4.59
 -16  -2   6    8.04    6.19
 -16   2   6    5.26    3.15
 -16   2   6    8.43    4.99
 -16  -2   6    0.28    1.98
 -16   2   7   86.67   11.44
 -16  -2   7   88.76   11.60
 -16   2   7  118.53   14.64
 -16  -2   7   89.70   11.61
 -16  -2   8    7.23    2.84
 -16   2   8    5.52    3.56
 -16   2   8   -0.52    3.51
 -16  -2   8    2.40    2.79
 -16   2   9   41.10    8.96
 -16  -2   9   50.27    9.31
 -16   2   9   50.43    9.00
 -16  -2   9   31.36    7.54
 -16  -2  10    8.26    4.39
 -16   2  10   12.29    4.86
 -16  -2  10    6.31    2.66
 -16  -2  11   42.08    8.82
 -16   2  11   33.88    7.56
 -16  -2  12   14.68    5.02
 -16   2  12   18.13    5.70
 -16   2  13  204.56   19.04
 -16  -2  13  219.81   18.85
 -16  -2  14    5.44    2.47
 -16   2  14    2.45    3.00
 -16  -2  15    3.57    4.44
 -16   2  15    2.71    4.69
 -16  -2  16    6.53    4.76
 -16   2  16    7.33    4.65
 -16   2  17  117.68   14.93
 -16  -2  17  123.24   15.07
 -16  -2  18   13.60    5.77
 -16   2  18    3.21    3.02
 -16   3 -18    0.19    3.70
 -16   3 -17    2.20    4.24
 -16   3 -16    3.15    2.92
 -16  -3 -16    1.98    3.17
 -16   3 -15   -3.21    3.61
 -16  -3 -15    2.26    3.11
 -16   3 -14    6.13    3.44
 -16  -3 -14   -2.46    5.24
 -16   3 -13    6.27    4.83
 -16  -3 -13   15.90    4.95
 -16   3 -12    6.07    4.09
 -16   3 -12    1.06    3.51
 -16  -3 -12   -0.13    2.51
 -16   3 -11   10.13    5.05
 -16   3 -11    6.79    4.34
 -16   3 -10   10.34    4.39
 -16   3 -10   10.09    4.88
 -16  -3 -10    4.79    3.59
 -16   3  -9   10.44    4.66
 -16   3  -9    3.62    3.82
 -16  -3  -9    9.77    3.39
 -16   3  -8    8.02    5.03
 -16   3  -8    5.17    2.96
 -16  -3  -8   11.79    4.60
 -16   3  -7    7.06    3.64
 -16   3  -7    2.04    4.30
 -16  -3  -7   13.19    5.02
 -16   3  -6    4.90    3.13
 -16   3  -6    2.58    4.28
 -16  -3  -6    1.54    1.90
 -16   3  -5    4.31    3.24
 -16   3  -5    6.73    5.16
 -16  -3  -5    6.12    4.19
 -16  -3  -5    7.03    5.23
 -16   3  -4    5.66    3.93
 -16   3  -4    0.99    2.96
 -16  -3  -4    1.43    1.93
 -16  -3  -4    3.42    2.22
 -16  -3  -3    3.76    4.30
 -16   3  -3   -0.20    2.12
 -16   3  -3    2.71    5.05
 -16  -3  -3    1.65    3.10
 -16  -3  -2    3.84    3.01
 -16  -3  -2    2.52    2.36
 -16   3  -2    6.49    1.96
 -16   3  -2    3.56    1.95
 -16  -3  -1    1.13    2.26
 -16  -3  -1    8.53    4.71
 -16   3  -1    2.90    2.87
 -16   3  -1    4.41    2.21
 -16  -3  -1    3.82    3.31
 -16  -3   0    0.69    2.74
 -16  -3   0    2.07    2.61
 -16   3   0    1.98    4.57
 -16   3   0    7.28    6.34
 -16  -3   0   -1.24    3.96
 -16  -3   1    5.48    3.21
 -16  -3   1    0.46    2.57
 -16   3   1   -2.63    4.07
 -16   3   1    6.24    4.81
 -16  -3   1    2.96    2.66
 -16  -3   2    0.97    2.60
 -16  -3   2    9.60    5.08
 -16   3   2    6.25    2.61
 -16   3   2    2.31    2.58
 -16  -3   2    4.91    3.58
 -16  -3   3   -1.14    2.55
 -16  -3   3   -1.40    2.62
 -16   3   3    3.52    2.39
 -16   3   3   -0.79    3.82
 -16  -3   3   -0.02    2.35
 -16  -3   4    6.42    2.78
 -16  -3   4    9.87    4.33
 -16   3   4    7.35    4.04
 -16   3   4    1.50    2.53
 -16  -3   5    4.53    2.47
 -16  -3   5    4.56    1.75
 -16   3   5    7.39    4.94
 -16   3   5    2.07    4.10
 -16  -3   6    2.91    3.38
 -16  -3   6   -1.82    2.54
 -16   3   6    7.39    6.01
 -16   3   6    3.81    3.83
 -16  -3   7   12.51    3.29
 -16  -3   7   14.07    5.59
 -16   3   7   14.83    5.28
 -16   3   7   10.68    5.80
 -16  -3   8   -0.55    3.70
 -16   3   8   -0.34    2.98
 -16   3   8   -0.93    3.31
 -16  -3   9    2.13    4.46
 -16  -3   9   10.12    3.86
 -16   3   9    5.80    2.53
 -16   3   9    4.20    2.33
 -16  -3  10    0.26    2.82
 -16  -3  10   -0.64    3.51
 -16   3  10    2.68    3.85
 -16   3  10    6.67    5.36
 -16  -3  11    6.72    4.24
 -16  -3  11   20.31    5.70
 -16   3  11   26.71    7.62
 -16   3  11   19.15    7.33
 -16  -3  12   -1.65    2.48
 -16   3  12    0.03    3.57
 -16   3  12    0.77    4.10
 -16  -3  13    9.08    3.95
 -16   3  13   14.42    6.35
 -16  -3  14    3.85    4.34
 -16   3  14   -0.59    2.38
 -16  -3  15    7.13    2.51
 -16   3  15    4.06    5.06
 -16  -3  16    9.36    5.21
 -16   3  16    5.25    3.86
 -16  -3  17   -4.59    4.39
 -16   3  17   10.04    6.80
 -16  -3  18   -3.69    2.68
 -16   3  18   -2.02    4.97
 -16   4 -16    8.12    4.01
 -16  -4 -16   16.55    5.94
 -16   4 -15   20.68    7.14
 -16  -4 -15   21.29    6.67
 -16   4 -14    3.02    3.37
 -16  -4 -14   11.56    4.77
 -16   4 -13  165.66   17.55
 -16   4 -13  134.69   16.66
 -16   4 -12    4.50    2.24
 -16   4 -12   11.80    4.34
 -16  -4 -12    6.94    3.45
 -16   4 -11   16.17    5.63
 -16   4 -11   16.71    5.13
 -16  -4 -11   23.78    6.05
 -16   4 -10   12.73    5.16
 -16   4 -10   23.94    6.89
 -16  -4 -10   16.55    5.71
 -16   4  -9   82.95   12.39
 -16   4  -9   72.21   11.55
 -16  -4  -9   69.35   10.89
 -16  -4  -8   -1.50    1.78
 -16   4  -8   -1.82    4.49
 -16   4  -8    0.82    4.41
 -16   4  -7   83.74   11.93
 -16   4  -7   92.93   12.70
 -16  -4  -7   70.57   10.87
 -16  -4  -6   -0.68    3.36
 -16   4  -6    4.45    4.60
 -16   4  -6    1.04    3.03
 -16   4  -5   31.65    8.27
 -16   4  -5   42.14    9.74
 -16  -4  -5   46.33    9.05
 -16  -4  -4    5.61    4.49
 -16  -4  -4    4.69    4.96
 -16   4  -4    4.38    4.07
 -16   4  -4   15.07    6.48
 -16   4  -3  145.38   16.16
 -16   4  -3  181.80   17.90
 -16  -4  -3  158.41   15.82
 -16  -4  -3  177.73   16.91
 -16  -4  -2    8.76    3.52
 -16  -4  -2   15.40    5.86
 -16   4  -2   12.94    5.87
 -16   4  -2   12.61    4.15
 -16  -4  -1   40.66    8.98
 -16  -4  -1   46.31    8.97
 -16   4  -1   18.05    5.78
 -16   4  -1   16.14    5.63
 -16  -4   0    0.41    2.01
 -16  -4   0    2.80    4.07
 -16   4   0   -0.50    2.67
 -16   4   0   -0.93    2.33
 -16  -4   1   27.39    8.10
 -16  -4   1   29.45    5.47
 -16   4   1   30.53    7.24
 -16   4   1   30.78    8.73
 -16  -4   2   17.32    6.29
 -16  -4   2   15.06    6.04
 -16   4   2   10.07    4.97
 -16   4   2    8.62    5.04
 -16   4   3  168.72   16.68
 -16  -4   3  145.90   15.71
 -16  -4   3  165.92   16.12
 -16  -4   4    1.90    2.58
 -16  -4   4    9.49    4.62
 -16   4   4    6.56    2.98
 -16   4   4    4.74    2.60
 -16  -4   5   44.00    8.48
 -16   4   5   41.21    7.96
 -16   4   5   29.97    8.45
 -16  -4   5   57.70   10.01
 -16  -4   6    2.39    2.68
 -16  -4   6    3.49    3.00
 -16   4   6    3.59    4.66
 -16   4   6    3.44    2.36
 -16  -4   7   66.50   10.10
 -16   4   7   59.54   10.68
 -16   4   7   69.13   11.13
 -16  -4   7   57.00   10.51
 -16  -4   8    4.22    4.13
 -16  -4   8   -2.25    2.95
 -16   4   8    3.54    3.83
 -16   4   8    2.93    5.35
 -16   4   9   83.50   12.18
 -16   4   9   76.60   12.08
 -16  -4   9   74.42   11.32
 -16  -4   9   85.42   12.75
 -16  -4  10   14.08    6.11
 -16  -4  10   15.60    5.48
 -16   4  10   14.25    5.62
 -16   4  10   20.32    6.62
 -16  -4  11   16.54    6.38
 -16   4  11   10.66    4.54
 -16   4  11   17.66    6.72
 -16  -4  12    1.67    2.92
 -16   4  12    4.54    2.43
 -16   4  13  175.02   17.75
 -16   4  13  165.77   18.21
 -16  -4  13  179.74   17.74
 -16  -4  14    6.72    5.13
 -16   4  14    0.18    2.85
 -16   4  14   10.06    5.46
 -16  -4  15   16.79    4.82
 -16   4  15   24.09    8.12
 -16   4  15   11.61    4.44
 -16  -4  16    3.85    3.09
 -16   4  16    5.69    3.68
 -16   4  16    0.19    3.37
 -16   5 -14   39.48   10.56
 -16   5 -14   31.06    8.59
 -16  -5 -14   59.46   10.82
 -16   5 -13    5.69    3.68
 -16   5 -13   -0.10    3.79
 -16  -5 -13   -2.22    4.77
 -16   5 -12    7.21    4.82
 -16   5 -12    2.55    2.55
 -16  -5 -11    9.13    3.67
 -16   5 -11   12.77    6.98
 -16   5 -11   11.25    4.24
 -16  -5 -10   26.79    8.29
 -16   5 -10   26.97    7.18
 -16   5 -10   12.17    4.40
 -16  -5  -9    1.26    2.34
 -16   5  -9    5.15    4.34
 -16   5  -9   -0.66    1.97
 -16  -5  -8   -0.93    2.04
 -16   5  -8   -2.49    2.78
 -16   5  -8    3.73    4.14
 -16  -5  -7   -2.78    3.03
 -16   5  -7    1.23    2.66
 -16   5  -7   -3.86    5.53
 -16  -5  -6    2.45    2.10
 -16   5  -6    3.52    3.53
 -16   5  -6    5.90    5.19
 -16  -5  -5   28.05    7.90
 -16   5  -5   20.11    6.68
 -16   5  -5   22.30    7.17
 -16  -5  -4   30.58    7.81
 -16   5  -4   17.50    5.70
 -16   5  -4   19.16    4.97
 -16  -5  -3    5.55    3.10
 -16   5  -3    0.30    2.59
 -16   5  -3    5.44    4.14
 -16  -5  -2   13.88    5.41
 -16  -5  -2   17.24    4.68
 -16   5  -2   22.74    7.46
 -16   5  -2   16.39    6.05
 -16  -5  -1   20.21    5.46
 -16  -5  -1   27.71    8.02
 -16   5  -1   21.36    6.02
 -16   5  -1   31.43    7.60
 -16  -5   0    4.32    4.34
 -16  -5   0    1.47    3.99
 -16   5   0    1.02    4.03
 -16   5   0   -3.37    2.68
 -16  -5   1   21.20    5.70
 -16  -5   1   25.70    7.22
 -16   5   1   31.53    6.52
 -16   5   1   22.43    7.30
 -16  -5   2    8.66    3.40
 -16  -5   2   10.47    3.10
 -16   5   2   21.43    5.35
 -16   5   2   16.30    6.10
 -16  -5   3    8.88    4.37
 -16  -5   3   13.27    6.24
 -16   5   3   11.63    4.56
 -16   5   3    7.41    5.14
 -16  -5   4   19.33    5.22
 -16  -5   4   19.38    5.97
 -16   5   4   14.49    4.77
 -16   5   4   24.55    6.93
 -16  -5   5   32.61    7.69
 -16  -5   5   22.39    6.62
 -16   5   5   17.76    6.95
 -16   5   5   26.82    8.13
 -16  -5   6    4.18    3.11
 -16   5   6    1.24    3.68
 -16  -5   6    1.65    2.37
 -16   5   6    2.30    2.59
 -16  -5   7    0.49    2.20
 -16   5   7    5.26    4.04
 -16  -5   7   -0.49    2.51
 -16   5   7   -1.07    3.22
 -16  -5   8    1.89    3.55
 -16   5   8   -0.71    2.33
 -16  -5   8    0.23    2.29
 -16   5   8   -0.60    4.16
 -16  -5   9   -1.69    4.18
 -16   5   9    1.07    3.74
 -16  -5   9    2.43    3.61
 -16   5   9    0.12    3.27
 -16  -5  10   17.39    5.49
 -16   5  10   34.31    8.16
 -16  -5  10   22.32    6.41
 -16   5  10   25.99    7.93
 -16  -5  11   10.28    4.37
 -16   5  11    4.13    4.68
 -16  -5  11   13.25    4.92
 -16   5  11    8.21    5.26
 -16  -5  12    9.88    4.98
 -16   5  12   18.11    7.19
 -16  -5  12   19.34    6.94
 -16   5  12    5.33    3.23
 -16   5  13    4.57    2.95
 -16  -5  13   -1.70    4.41
 -16   5  13   -3.38    4.57
 -16  -5  14   60.46   11.63
 -16   5  14   59.55   10.65
 -16   5  14   76.77   12.95
 -16  -6 -11   33.02    7.98
 -16   6 -11   33.10    8.65
 -16   6 -11   21.19    6.87
 -16  -6 -10    5.26    4.35
 -16   6 -10   13.36    6.03
 -16   6 -10   15.05    6.21
 -16   6  -9   78.99   11.74
 -16   6  -9   75.59   12.07
 -16  -6  -9   65.50   10.83
 -16  -6  -8   -0.87    3.48
 -16   6  -8    1.11    2.02
 -16   6  -8    4.19    2.36
 -16   6  -7  104.69   14.09
 -16  -6  -7   86.20   12.33
 -16   6  -7   75.54   11.95
 -16  -6  -6    8.11    5.00
 -16   6  -6   13.52    6.30
 -16   6  -6   -0.58    5.32
 -16  -6  -5    1.58    3.84
 -16   6  -5    1.40    3.50
 -16   6  -5    0.67    3.12
 -16  -6  -4   18.90    6.29
 -16   6  -4   16.57    5.35
 -16   6  -4    9.36    4.04
 -16   6  -3   78.54   12.07
 -16   6  -3  101.39   14.31
 -16  -6  -3  104.57   13.23
 -16   6  -2   74.56   11.68
 -16   6  -2   70.31   12.39
 -16  -6  -2   56.64   10.17
 -16   6  -1   69.06   11.45
 -16   6  -1   85.10   12.42
 -16  -6  -1   78.41   11.84
 -16  -6  -1   86.11   12.86
 -16  -6   0    2.16    2.64
 -16   6   0    5.48    4.12
 -16  -6   0    2.46    4.01
 -16   6   0    5.46    4.41
 -16   6   1   60.69   10.93
 -16   6   1   82.87   11.55
 -16  -6   1   80.71   12.13
 -16  -6   1   69.02   10.88
 -16   6   2   76.28   12.27
 -16  -6   2   54.58    9.53
 -16   6   2   80.11   12.16
 -16  -6   2   72.00   10.76
 -16   6   3  110.34   14.23
 -16   6   3  103.19   14.29
 -16  -6   3  114.61   13.28
 -16  -6   3   88.39   12.34
 -16  -6   4   10.46    4.59
 -16   6   4   13.54    5.60
 -16  -6   4   21.41    6.44
 -16   6   4    5.37    3.42
 -16  -6   5    2.52    3.37
 -16   6   5    7.58    4.19
 -16  -6   5    4.64    2.80
 -16   6   5    6.38    4.04
 -16  -6   6    9.13    5.93
 -16   6   6   -2.18    3.19
 -16  -6   6   10.41    4.80
 -16   6   6    8.85    6.36
 -16  -6   7   94.19   12.35
 -16   6   7   95.95   13.47
 -16   6   7  109.97   15.58
 -16  -6   7   95.82   13.57
 -16  -6   8    5.49    5.40
 -16   6   8    0.57    2.43
 -16  -6   8    0.94    2.27
 -16   6   8    0.47    3.61
 -16  -6   9   94.51   13.22
 -16   6   9   93.51   13.28
 -16   6   9   98.23   13.81
 -16  -6   9   99.46   13.76
 -16  -6  10   10.23    4.56
 -16   6  10   16.72    6.72
 -16  -6  10   15.67    6.06
 -16   6  10   21.44    8.44
 -16  -6  11   36.31    8.09
 -16   6  11   26.33    5.90
 -16  -6  11   25.53    7.65
 -16   6  11   28.00    7.93
 -16  -7  -6    7.98    4.30
 -16   7  -6   -3.80    4.92
 -16   7  -6    4.25    2.96
 -16   7  -5   42.14    8.86
 -16   7  -5   53.88   11.14
 -16  -7  -5   61.05   10.63
 -16  -7  -4   -2.44    5.25
 -16   7  -4   -5.36    3.32
 -16   7  -4   -0.46    3.27
 -16  -7  -3   24.61    6.22
 -16   7  -3   19.32    6.20
 -16   7  -3   35.48    9.82
 -16  -7  -2    3.52    4.10
 -16   7  -2    6.73    4.75
 -16   7  -2    1.54    4.28
 -16  -7  -1    1.72    3.89
 -16   7  -1    5.99    5.12
 -16   7  -1    0.38    2.55
 -16  -7   0   -1.48    2.93
 -16   7   0    4.83    2.66
 -16  -7   0   -4.50    2.86
 -16   7   0    0.88    2.96
 -16  -7   1    0.06    3.43
 -16   7   1    1.57    3.91
 -16  -7   1   -3.94    3.74
 -16   7   1    1.63    2.95
 -16  -7   2    4.45    5.36
 -16   7   2    3.47    5.07
 -16  -7   2    2.01    2.36
 -16   7   2   -5.07    5.53
 -16   7   3   20.59    6.97
 -16  -7   3   18.06    6.50
 -16   7   3   24.31    7.51
 -16  -7   4    4.98    4.33
 -16   7   4    5.06    3.62
 -16  -7   4    1.76    3.80
 -16   7   4    2.00    5.82
 -16  -7   5   30.76    7.45
 -16   7   5   33.38    8.65
 -16  -7   5   40.68    8.87
 -16   7   5   35.72    7.92
 -16  -7   6   12.15    4.00
 -16   7   6    7.90    5.39
 -16  -7   6   -0.81    2.96
 -16   7   6    2.64    4.17
 -17   0 -16   10.24    8.74
 -17   0 -15   -1.80    3.98
 -17   0 -14    1.10    2.52
 -17   0 -13    1.68    3.57
 -17   0 -12    1.32    2.06
 -17   0 -11    4.83    3.73
 -17   0 -10   -0.24    2.23
 -17   0  -9    0.68    2.89
 -17   0  -8   -0.38    2.90
 -17   0  -8   -1.25    2.90
 -17   0  -7   -4.08    4.16
 -17   0  -7    1.93    3.35
 -17   0  -6   -1.91    2.54
 -17   0  -6   -2.68    4.54
 -17   0  -5    2.05    2.17
 -17   0  -5    2.31    4.76
 -17   0  -4    3.50    4.25
 -17   0  -4    1.86    3.55
 -17   0  -3   -1.51    3.40
 -17   0  -3    0.05    2.49
 -17   0  -2   -0.69    2.22
 -17   0  -2   -0.42    3.80
 -17   0  -1   -1.98    2.87
 -17   0  -1    0.68    3.72
 -17   0   0   -0.81    2.60
 -17   0   0   -0.11    2.27
 -17   0   1   -0.70    2.10
 -17   0   1   -0.67    3.82
 -17   0   2    4.13    3.82
 -17   0   2   -1.48    2.17
 -17   0   3    1.15    2.78
 -17   0   3   -2.37    3.14
 -17   0   4    2.46    3.03
 -17   0   4    0.53    2.40
 -17   0   5    1.08    3.45
 -17   0   5   -0.58    2.34
 -17   0   6    1.22    1.85
 -17   0   6    1.53    2.89
 -17   0   7    1.40    1.88
 -17   0   7   -1.49    2.11
 -17   0   8   -0.61    3.00
 -17   0   9    0.48    2.39
 -17   0  10   -0.73    3.30
 -17   0  11    4.18    2.41
 -17   0  12    3.18    2.69
 -17   0  13   -1.37    2.47
 -17   0  14   -0.53    3.65
 -17   0  15    1.24    3.95
 -17   0  16   -0.49    3.78
 -17   0  17   -3.88    5.08
 -17   1 -17   86.49   12.96
 -17   1 -16   54.98   11.67
 -17   1 -15    6.12    2.91
 -17   1 -14   16.80    5.89
 -17   1 -13   27.74    7.92
 -17   1 -12   36.58    8.98
 -17   1 -11   49.19   10.60
 -17  -1 -11   64.87   10.92
 -17   1 -10   41.04   11.76
 -17   1 -10   58.67   10.47
 -17  -1 -10   30.94    8.43
 -17   1  -9   29.51    7.16
 -17   1  -9   37.13    8.65
 -17  -1  -9   31.77    7.85
 -17   1  -8   35.12    8.66
 -17   1  -8   48.05    9.19
 -17  -1  -8   35.60    8.43
 -17   1  -7    7.15    2.68
 -17  -1  -7    6.58    1.97
 -17   1  -7   10.56    4.84
 -17  -1  -7    6.31    4.88
 -17   1  -6   28.92    7.54
 -17  -1  -6   21.12    5.52
 -17   1  -6   21.35    6.17
 -17  -1  -6   17.18    5.59
 -17   1  -5   17.27    6.44
 -17  -1  -5   11.63    3.41
 -17   1  -5   13.63    3.86
 -17  -1  -5   11.30    7.53
 -17  -1  -5    9.60    3.68
 -17   1  -4   81.34   11.72
 -17  -1  -4   94.85   12.56
 -17   1  -4  108.20   14.30
 -17  -1  -4   95.58   12.95
 -17  -1  -4   93.89   12.62
 -17   1  -3  126.54   15.28
 -17  -1  -3  135.17   14.64
 -17   1  -3  166.76   17.09
 -17  -1  -3  146.82   16.09
 -17  -1  -3  153.55   15.25
 -17   1  -2   68.48   10.68
 -17  -1  -2   55.79    9.41
 -17   1  -2   74.62   11.64
 -17  -1  -2   70.41   11.78
 -17  -1  -2   71.96   10.59
 -17   1  -1   14.89    5.09
 -17  -1  -1   21.66    6.86
 -17   1  -1   26.89    7.79
 -17  -1  -1   24.14    6.63
 -17  -1  -1   11.63    4.25
 -17   1   0  110.25   13.43
 -17  -1   0   96.71   12.61
 -17   1   0   91.92   13.47
 -17  -1   0   98.36   13.61
 -17  -1   0  115.89   13.13
 -17   1   1   10.58    5.42
 -17   1   1   18.32    5.00
 -17  -1   1   19.56    5.41
 -17  -1   1   18.59    4.27
 -17  -1   1   10.16    4.61
 -17  -1   2   51.18    9.53
 -17   1   2   51.21    8.88
 -17   1   2   74.70   11.76
 -17  -1   2   48.55    9.33
 -17  -1   2   65.30   10.66
 -17   1   3  124.94   14.76
 -17  -1   3  165.77   16.35
 -17   1   3  178.90   17.31
 -17  -1   3  114.81   14.39
 -17  -1   3  149.95   14.72
 -17   1   4   90.56   12.01
 -17  -1   4   99.58   12.73
 -17   1   4   86.67   11.89
 -17  -1   4  112.51   14.02
 -17  -1   4   87.78   11.36
 -17   1   5   10.51    4.13
 -17   1   5    4.21    3.70
 -17  -1   5    9.27    4.75
 -17  -1   5   15.90    5.58
 -17  -1   5   15.70    6.76
 -17   1   6   23.62    6.24
 -17   1   6   16.16    6.12
 -17  -1   6   12.96    4.04
 -17  -1   6   31.49    7.23
 -17  -1   6   24.25    6.28
 -17   1   7    9.84    4.47
 -17   1   7   13.14    5.32
 -17  -1   7    3.75    2.29
 -17  -1   7    5.24    3.47
 -17   1   8   29.36    7.88
 -17   1   8   35.87    8.54
 -17  -1   8   32.92    7.54
 -17  -1   8   30.91    7.08
 -17   1   9   37.82    8.72
 -17   1   9   38.62    8.59
 -17  -1   9   41.82    9.53
 -17  -1   9   31.47    7.81
 -17   1  10   45.28    8.89
 -17  -1  10   39.64    7.93
 -17   1  11   51.68    9.89
 -17  -1  11   39.82    7.71
 -17   1  12   43.06    9.04
 -17  -1  12   44.68    8.78
 -17   1  13   19.22    6.03
 -17  -1  13   26.18    7.16
 -17  -1  14   29.56    6.78
 -17   1  14   11.76    3.89
 -17  -1  15    3.12    2.77
 -17   1  15    3.44    3.44
 -17  -1  16   64.82   12.45
 -17   1  16   54.42   10.38
 -17   1  17  109.88   14.63
 -17  -1  17  116.99   14.88
 -17   2 -16    3.23    3.84
 -17   2 -15    1.76    3.05
 -17   2 -14    8.46    4.02
 -17   2 -13   13.01    4.98
 -17   2 -12    5.94    3.72
 -17   2 -11    0.23    5.51
 -17  -2 -11   -1.67    1.85
 -17   2 -10    9.39    2.99
 -17   2 -10    5.18    3.28
 -17  -2 -10   10.12    4.84
 -17   2  -9   14.78    5.79
 -17   2  -9   18.23    5.99
 -17  -2  -9    8.78    4.40
 -17   2  -8   26.44    7.78
 -17   2  -8   24.56    6.37
 -17  -2  -8   38.24    7.62
 -17   2  -7   34.19    8.16
 -17   2  -7   23.37    6.44
 -17  -2  -7   23.62    5.36
 -17   2  -6    7.74    4.07
 -17  -2  -6   15.33    5.93
 -17   2  -6    8.99    4.00
 -17  -2  -6   17.28    8.20
 -17  -2  -6   23.44    7.38
 -17   2  -5    2.46    3.45
 -17  -2  -5    2.89    3.38
 -17   2  -5    3.88    3.68
 -17  -2  -5   -0.93    2.20
 -17  -2  -5   10.04    3.13
 -17   2  -4    4.48    1.91
 -17   2  -4    7.52    4.07
 -17  -2  -4    4.18    3.05
 -17  -2  -4    9.02    4.21
 -17  -2  -4    5.32    2.75
 -17   2  -3    0.69    3.25
 -17   2  -3    0.47    2.03
 -17  -2  -3    3.47    3.06
 -17  -2  -3    1.52    2.23
 -17  -2  -3    1.53    2.37
 -17   2  -2   12.00    5.93
 -17   2  -2    7.91    3.67
 -17  -2  -2    6.93    4.74
 -17  -2  -2    5.06    3.92
 -17  -2  -2    5.25    3.89
 -17   2  -1    2.96    4.02
 -17  -2  -1   -5.09    4.86
 -17  -2  -1    7.26    5.01
 -17  -2  -1    5.16    5.06
 -17   2   0    0.75    2.82
 -17   2   0    0.41    3.51
 -17  -2   0    1.57    2.51
 -17  -2   0   -0.66    2.48
 -17  -2   0   -0.69    2.73
 -17   2   1    0.44    3.58
 -17   2   1    8.41    4.06
 -17  -2   1    7.32    5.36
 -17  -2   1    2.32    2.59
 -17  -2   1    3.37    3.80
 -17   2   2    1.09    2.04
 -17  -2   2    5.76    3.00
 -17  -2   2    3.28    1.93
 -17  -2   2   -0.08    2.86
 -17   2   3    5.79    4.55
 -17   2   3    3.30    3.08
 -17  -2   3    3.57    4.91
 -17  -2   3    0.01    3.15
 -17  -2   3    3.28    2.89
 -17  -2   4   14.70    5.01
 -17   2   4    7.45    3.55
 -17   2   4    0.85    3.51
 -17  -2   4   12.82    4.30
 -17  -2   4    8.53    3.76
 -17  -2   5    1.36    3.15
 -17   2   5    8.51    4.82
 -17   2   5    5.79    3.44
 -17  -2   5    4.22    3.83
 -17  -2   5    7.39    3.46
 -17  -2   6   13.62    5.16
 -17   2   6    8.58    4.75
 -17   2   6    9.13    5.28
 -17  -2   6   13.02    6.21
 -17  -2   7    7.91    3.98
 -17   2   7   19.08    5.90
 -17   2   7   22.46    6.51
 -17  -2   7   20.98    5.69
 -17  -2   8   24.56    7.72
 -17   2   8   20.87    6.30
 -17   2   8   27.76    7.47
 -17  -2   8   32.35    7.89
 -17  -2   9   15.97    4.97
 -17   2   9   18.99    6.44
 -17   2   9   10.19    4.41
 -17  -2   9   19.01    5.73
 -17  -2  10    6.69    3.25
 -17   2  10    6.70    3.95
 -17   2  10    9.12    4.72
 -17  -2  10    8.20    4.50
 -17  -2  11   -0.80    2.86
 -17   2  11    1.94    2.63
 -17   2  11   -5.21    5.28
 -17  -2  12   13.84    5.74
 -17   2  12    9.66    4.73
 -17  -2  13   13.13    4.47
 -17   2  13   12.04    5.06
 -17  -2  14   16.05    5.63
 -17   2  14   11.70    5.10
 -17  -2  15   13.65    6.40
 -17   2  15   12.66    4.36
 -17  -2  16    3.73    3.76
 -17   2  16   20.34    6.34
 -17   3 -15   42.95    8.87
 -17  -3 -15   34.39    7.75
 -17   3 -14   17.16    5.67
 -17  -3 -14   11.32    5.30
 -17   3 -13   38.61    8.74
 -17  -3 -13   32.16    7.93
 -17   3 -12   16.14    7.32
 -17   3 -12    6.43    4.74
 -17  -3 -12    9.04    3.79
 -17   3 -11   17.94    7.12
 -17   3 -11   25.73    6.81
 -17  -3 -11   13.10    4.88
 -17   3 -10   70.38   11.95
 -17   3 -10   64.13   10.42
 -17  -3 -10   77.97   11.52
 -17   3  -9   36.97    8.69
 -17   3  -9   17.71    5.34
 -17  -3  -9   19.66    6.67
 -17   3  -8   -0.58    4.02
 -17   3  -8    4.35    3.98
 -17  -3  -8    5.20    3.27
 -17   3  -7   31.67    8.73
 -17   3  -7   31.13    8.11
 -17  -3  -7   23.37    4.97
 -17   3  -6    2.25    2.89
 -17   3  -6   -0.11    4.50
 -17  -3  -6   -0.49    3.01
 -17   3  -5   66.18   11.02
 -17  -3  -5   81.53   13.49
 -17   3  -5   61.32   10.83
 -17  -3  -5   79.56   11.63
 -17   3  -4  104.12   13.68
 -17  -3  -4   83.39   11.86
 -17   3  -4   98.39   13.58
 -17  -3  -4   87.26   11.87
 -17   3  -3   18.23    6.07
 -17   3  -3    6.50    2.63
 -17  -3  -3   23.69    6.26
 -17  -3  -3    8.38    3.45
 -17   3  -2   99.08   13.61
 -17  -3  -2  114.84   13.84
 -17   3  -2  123.71   15.45
 -17  -3  -2  129.79   14.60
 -17   3  -1  164.25   16.94
 -17  -3  -1  171.81   16.83
 -17   3  -1  204.69   19.18
 -17  -3  -1  155.62   16.47
 -17  -3   0    2.87    2.00
 -17   3   0    2.16    4.65
 -17   3   0    2.67    4.00
 -17  -3   0    2.63    4.28
 -17  -3   0    2.87    2.58
 -17   3   1  188.53   18.19
 -17  -3   1  201.23   18.39
 -17   3   1  179.97   18.22
 -17  -3   1  172.11   17.82
 -17  -3   1  189.54   17.34
 -17   3   2  114.10   14.20
 -17  -3   2  105.62   13.16
 -17   3   2  125.93   15.25
 -17  -3   2   94.14   13.59
 -17  -3   2  123.63   14.51
 -17  -3   3   15.19    6.42
 -17  -3   3    6.65    2.33
 -17   3   3    5.12    2.63
 -17   3   3   16.75    5.55
 -17  -3   3   11.34    3.58
 -17   3   4   81.82   12.04
 -17  -3   4  104.86   12.96
 -17   3   4   81.04   12.11
 -17  -3   4   99.06   13.94
 -17  -3   4  114.71   13.92
 -17   3   5   82.12   11.68
 -17  -3   5   87.22   12.14
 -17   3   5   67.39   10.76
 -17  -3   5   80.32   11.32
 -17  -3   6    9.51    5.03
 -17  -3   6   10.66    5.57
 -17   3   6    1.14    2.18
 -17   3   6   11.58    6.54
 -17  -3   7   32.81    8.64
 -17  -3   7   36.53    7.74
 -17   3   7   51.75   10.23
 -17   3   7   40.03    8.59
 -17  -3   8    1.04    2.86
 -17  -3   8    4.42    3.89
 -17   3   8   11.81    7.01
 -17   3   8   10.77    4.89
 -17  -3   9   27.22    7.57
 -17   3   9   40.73    8.76
 -17   3   9   34.10    8.56
 -17  -3   9   37.46    8.67
 -17   3  10   79.17   12.68
 -17  -3  10   73.12   10.80
 -17   3  10   53.55    9.90
 -17  -3  10   57.89   10.33
 -17  -3  11   11.57    4.17
 -17   3  11    9.87    5.64
 -17   3  11   18.87    5.97
 -17  -3  12   12.56    3.67
 -17   3  12   16.49    5.93
 -17   3  12   15.95    6.04
 -17  -3  13   34.83    6.95
 -17   3  13   32.11    8.00
 -17   3  13   27.36    7.71
 -17  -3  14   11.05    5.96
 -17   3  14   16.32    4.91
 -17   3  14   24.14    8.25
 -17  -3  15   33.81    7.10
 -17   3  15   17.80    6.14
 -17   4 -14   43.54    9.67
 -17  -4 -14   40.63    8.34
 -17   4 -13   46.06    9.22
 -17   4 -13   61.08   13.50
 -17  -4 -13   48.58    9.92
 -17   4 -12   26.20    8.20
 -17   4 -12   11.68    4.83
 -17  -4 -12   13.96    5.29
 -17   4 -11   13.00    6.22
 -17   4 -11    8.20    5.45
 -17  -4 -11   19.22    6.27
 -17   4 -10   17.65    5.40
 -17   4 -10   17.60    6.26
 -17  -4 -10    9.69    5.24
 -17   4  -9    5.15    2.52
 -17   4  -9    2.72    3.32
 -17  -4  -9    8.72    5.94
 -17   4  -8    2.24    3.60
 -17   4  -8    4.32    4.77
 -17  -4  -8   11.29    4.99
 -17   4  -7    1.87    5.45
 -17   4  -7    1.31    3.29
 -17  -4  -7    7.33    4.40
 -17  -4  -6   30.11    6.97
 -17   4  -6   38.84    8.37
 -17   4  -6   31.65    7.89
 -17  -4  -5   51.69   10.20
 -17   4  -5   38.92    8.44
 -17   4  -5   56.96   10.16
 -17  -4  -4   13.20    5.85
 -17   4  -4   20.49    6.37
 -17   4  -4    6.08    3.32
 -17  -4  -3   16.87    5.98
 -17  -4  -3   16.64    5.77
 -17   4  -3    9.74    5.36
 -17   4  -3   16.84    5.70
 -17  -4  -2   22.83    6.71
 -17  -4  -2   29.74    7.84
 -17   4  -2   26.84    7.74
 -17   4  -2   23.69    5.99
 -17  -4  -1   22.09    6.08
 -17  -4  -1   36.93    7.83
 -17   4  -1   36.06    9.05
 -17   4  -1   36.99    8.94
 -17  -4   0   18.53    5.73
 -17  -4   0   28.54    6.58
 -17   4   0   18.57    6.22
 -17   4   0   11.26    4.56
 -17  -4   1   35.47    8.29
 -17  -4   1   36.84    8.29
 -17   4   1   16.66    5.58
 -17   4   1   45.02    9.07
 -17  -4   2   42.13    8.56
 -17  -4   2   30.90    6.79
 -17   4   2   23.91    7.67
 -17   4   2   35.05    8.40
 -17  -4   3   13.71    4.80
 -17  -4   3   20.05    6.38
 -17   4   3   22.60    7.25
 -17   4   3   16.27    6.83
 -17  -4   4   -2.08    2.76
 -17  -4   4    3.89    4.11
 -17   4   4    5.23    3.70
 -17  -4   5   34.72    7.89
 -17  -4   5   40.50    7.91
 -17   4   5   40.78    8.40
 -17   4   5   46.68   10.17
 -17  -4   6   17.68    6.52
 -17  -4   6   29.67    6.94
 -17   4   6   18.95    5.55
 -17   4   6   22.54    5.66
 -17  -4   7    2.89    4.70
 -17  -4   7    2.82    3.95
 -17   4   7    5.93    4.11
 -17   4   7    5.17    3.87
 -17  -4   8    3.37    3.35
 -17  -4   8   16.25    6.29
 -17   4   8   14.20    6.23
 -17   4   8   24.82    8.17
 -17  -4   9    5.12    3.71
 -17  -4   9    1.05    2.52
 -17   4   9    8.15    5.43
 -17   4   9    4.86    4.01
 -17  -4  10    6.27    5.04
 -17  -4  10   12.63    6.22
 -17   4  10    6.09    4.84
 -17   4  10   11.46    4.89
 -17  -4  11    7.60    2.42
 -17   4  11   22.31    8.21
 -17   4  11   16.67    6.15
 -17   4  12    5.55    2.28
 -17   4  12    6.25    4.10
 -17   4  13   38.59    9.30
 -17   4  13   48.63    9.57
 -17  -4  13   54.84   10.30
 -17  -4  14   47.99    9.20
 -17   4  14   54.28   10.42
 -17   4  14   58.97   11.36
 -17   5 -11   21.75    7.66
 -17   5 -11   26.24    6.25
 -17  -5 -11   26.39    7.12
 -17   5 -10   89.85   12.53
 -17  -5 -10   64.27   11.56
 -17   5 -10  108.71   14.20
 -17  -5  -9   11.98    5.75
 -17   5  -9   14.18    6.06
 -17   5  -9   21.03    6.15
 -17  -5  -8   13.20    6.22
 -17   5  -8   15.64    5.32
 -17   5  -8    7.71    3.99
 -17   5  -7   70.30   11.44
 -17  -5  -7   53.41    9.97
 -17   5  -7   48.67    9.37
 -17   5  -6   85.41   12.74
 -17   5  -6   97.49   13.48
 -17  -5  -6  101.53   13.97
 -17  -5  -5   20.08    5.63
 -17   5  -5    4.89    2.01
 -17   5  -5   12.53    5.69
 -17  -5  -4   16.95    5.46
 -17   5  -4   11.59    5.58
 -17   5  -4    7.35    3.79
 -17  -5  -3   21.11    8.02
 -17   5  -3   29.16    6.72
 -17   5  -3   16.54    4.80
 -17  -5  -2   23.61    7.30
 -17  -5  -2   16.45    6.82
 -17   5  -2   14.67    4.32
 -17   5  -2   18.13    7.47
 -17  -5  -1   31.85    8.44
 -17  -5  -1   22.78    5.81
 -17   5  -1   23.55    6.85
 -17   5  -1   29.55    8.84
 -17  -5   0   52.09    9.58
 -17  -5   0   29.11    7.98
 -17   5   0   40.82    8.69
 -17   5   0   43.71    9.12
 -17  -5   1   33.81    8.29
 -17  -5   1   22.11    6.85
 -17   5   1   30.32    7.46
 -17   5   1   39.19    9.69
 -17  -5   2   15.46    5.95
 -17  -5   2   24.39    7.35
 -17   5   2   13.30    4.95
 -17   5   2   13.80    7.74
 -17  -5   3   18.97    6.44
 -17  -5   3   28.64    7.17
 -17   5   3   10.80    4.52
 -17   5   3   36.60    8.94
 -17  -5   4   12.88    6.52
 -17  -5   4   18.39    6.14
 -17   5   4   21.44    6.57
 -17   5   4   15.62    4.94
 -17  -5   5   21.20    7.06
 -17  -5   5    7.85    3.88
 -17   5   5   26.06    7.86
 -17   5   5   21.93    8.22
 -17   5   6   80.28   11.48
 -17   5   6   76.23   12.43
 -17  -5   6   95.26   13.02
 -17  -5   6   96.89   14.07
 -17  -5   7   44.38    9.13
 -17   5   7   75.23   11.78
 -17  -5   7   48.22    9.38
 -17   5   7   60.38   10.79
 -17  -5   8    8.27    5.53
 -17  -5   8    7.05    4.63
 -17   5   8    4.64    3.21
 -17   5   8   10.64    5.36
 -17  -5   9   15.22    6.13
 -17  -5   9   20.63    6.90
 -17   5   9   11.84    4.89
 -17   5   9   14.20    5.61
 -17  -5  10   79.48   11.73
 -17   5  10   58.33   11.14
 -17  -5  10   98.50   13.57
 -17  -5  11   12.59    3.56
 -17  -5  11   27.59    7.47
 -17   5  11   17.14    5.53
 -17   5  11   20.55    7.57
 -17  -6  -7    0.02    4.61
 -17   6  -7    2.13    4.84
 -17   6  -7    6.07    5.73
 -17  -6  -6    5.94    4.47
 -17   6  -6   12.92    6.21
 -17   6  -6   12.60    5.32
 -17  -6  -5    8.76    5.24
 -17   6  -5   10.26    5.15
 -17   6  -5    7.59    5.06
 -17  -6  -4   14.57    7.14
 -17   6  -4    7.87    4.92
 -17   6  -4   10.24    4.45
 -17  -6  -3    8.97    5.08
 -17   6  -3   10.32    5.35
 -17  -6  -2    8.24    2.95
 -17   6  -2   11.85    5.11
 -17   6  -2    7.09    6.13
 -17  -6  -1    1.85    2.55
 -17   6  -1    5.80    5.29
 -17   6  -1    1.37    3.63
 -17  -6   0    5.07    4.25
 -17   6   0    5.61    4.43
 -17  -6   0    1.14    2.41
 -17   6   0    1.45    5.46
 -17  -6   1    2.66    4.22
 -17   6   1    0.52    2.00
 -17  -6   1    2.23    3.66
 -17   6   1    5.95    5.28
 -17  -6   2    4.77    4.43
 -17   6   2   11.33    4.24
 -17  -6   2    7.16    3.74
 -17   6   2    6.08    2.81
 -17  -6   3   16.64    4.92
 -17   6   3   22.41    7.61
 -17  -6   3   17.51    6.78
 -17   6   3   20.47    7.18
 -17  -6   4    8.04    4.25
 -17   6   4    9.56    4.83
 -17  -6   4   11.12    5.65
 -17   6   4    9.19    4.01
 -17  -6   5    9.74    3.52
 -17   6   5    7.97    6.01
 -17  -6   5    2.52    2.60
 -17   6   5    5.86    4.75
 -17   6   6   29.37    7.54
 -17  -6   6   18.35    6.27
 -17   6   6   15.26    4.39
 -17  -6   7    9.48    4.98
 -17   6   7    1.00    4.51
 -17  -6   7    6.25    3.57
 -17   6   7    4.21    3.50
 -18   0 -14    5.21    6.11
 -18   0 -13  100.06   14.03
 -18   0 -12   74.69   12.44
 -18   0 -11  496.35   30.67
 -18   0 -10   88.01   13.41
 -18   0  -9   94.50   13.90
 -18   0  -8   35.99    9.59
 -18   0  -8   50.80   10.16
 -18   0  -7   24.80    6.61
 -18   0  -7   23.26    5.80
 -18   0  -6    7.70    3.40
 -18   0  -6   18.75    7.78
 -18   0  -5  176.49   18.19
 -18   0  -5  172.16   17.99
 -18   0  -4  261.20   21.33
 -18   0  -4  243.95   21.63
 -18   0  -3  207.25   19.20
 -18   0  -3  203.67   19.25
 -18   0  -2   61.11   10.14
 -18   0  -2   55.40   10.30
 -18   0  -1   69.27   10.81
 -18   0  -1   52.14   10.21
 -18   0   0   91.61   12.85
 -18   0   0   85.82   12.41
 -18   0   1   64.84   10.55
 -18   0   1   71.72   11.71
 -18   0   2   73.13   11.24
 -18   0   2   61.47   10.51
 -18   0   3  169.97   16.96
 -18   0   3  198.84   19.14
 -18   0   4  252.15   20.33
 -18   0   4  247.36   21.49
 -18   0   5  163.26   16.96
 -18   0   5  168.22   18.85
 -18   0   6    3.58    3.88
 -18   0   6   12.34    5.05
 -18   0   7   23.82    7.24
 -18   0   7   20.52    7.52
 -18   0   8   38.27    9.26
 -18   0   8   29.64    8.09
 -18   0   9   90.87   12.50
 -18   0  10   85.00   11.98
 -18   0  11  472.39   29.20
 -18   0  12  116.09   15.13
 -18   0  13   77.60   11.95
 -18   0  14    4.13    4.48
 -18   0  15  643.52   35.06
 -18   1 -15   50.02   10.30
 -18   1 -14    4.39    5.06
 -18   1 -13    9.77    6.26
 -18   1 -12    3.44    4.72
 -18   1 -11   23.70    8.31
 -18   1 -10   72.94   11.80
 -18  -1 -10   91.79   14.37
 -18   1  -9    6.48    5.00
 -18   1  -9   10.90    5.25
 -18  -1  -9    4.03    3.35
 -18   1  -8    3.31    3.77
 -18   1  -8    9.07    5.89
 -18  -1  -8    4.23    3.36
 -18   1  -7   11.62    5.89
 -18   1  -7   10.30    3.23
 -18  -1  -7   12.70    6.84
 -18   1  -6   40.37    7.96
 -18  -1  -6   53.29    9.59
 -18   1  -6   61.13   11.43
 -18  -1  -6   51.87    9.43
 -18   1  -5    6.68    4.17
 -18  -1  -5    0.90    3.66
 -18   1  -5    0.06    4.41
 -18  -1  -5   -2.32    3.93
 -18   1  -4    5.97    2.82
 -18  -1  -4    2.01    3.44
 -18   1  -4    0.55    2.98
 -18  -1  -4    6.95    3.82
 -18   1  -3    5.06    3.90
 -18  -1  -3    0.69    3.22
 -18   1  -3   -0.05    3.87
 -18  -1  -3    2.57    4.45
 -18   1  -2    3.36    3.78
 -18  -1  -2    0.69    3.51
 -18   1  -2    3.20    2.15
 -18  -1  -2   -5.67    5.58
 -18   1  -1    5.70    2.86
 -18  -1  -1    1.50    1.80
 -18   1  -1    2.94    2.85
 -18  -1  -1    3.83    3.29
 -18   1   0    1.55    3.11
 -18  -1   0    1.50    2.91
 -18   1   0    8.03    3.69
 -18  -1   0    6.21    6.28
 -18  -1   0    4.00    2.00
 -18   1   1   -0.75    2.85
 -18  -1   1    4.50    3.35
 -18   1   1    8.61    3.37
 -18  -1   1    6.03    4.71
 -18  -1   1    5.48    3.95
 -18   1   2    1.93    2.16
 -18  -1   2    7.20    3.55
 -18   1   2    5.07    5.13
 -18  -1   2    6.28    3.93
 -18  -1   2   -0.89    3.03
 -18   1   3   -1.19    3.07
 -18  -1   3   -1.66    3.60
 -18   1   3    7.06    4.74
 -18  -1   3   -0.40    2.58
 -18  -1   3   -1.11    2.30
 -18   1   4    0.48    3.40
 -18   1   4    4.42    3.53
 -18  -1   4    2.45    2.88
 -18  -1   4    0.04    2.65
 -18  -1   4   -1.77    2.59
 -18   1   5    1.33    4.39
 -18   1   5   -2.09    3.79
 -18  -1   5    0.08    2.12
 -18  -1   5    2.15    2.29
 -18  -1   5   -1.32    3.50
 -18   1   6   42.59    9.54
 -18  -1   6   75.51   11.09
 -18   1   6   71.51   12.27
 -18  -1   6   83.10   12.46
 -18   1   7    6.20    3.24
 -18   1   7    0.99    2.02
 -18  -1   7   15.95    6.32
 -18  -1   7   17.13    6.86
 -18   1   8    0.70    2.23
 -18   1   8    4.01    3.82
 -18   1   9   12.48    4.65
 -18   1   9   13.27    5.71
 -18  -1   9    9.42    4.60
 -18   1  10   82.63   11.75
 -18  -1  10   76.25   11.28
 -18   1  10   77.69   12.74
 -18   1  11    5.08    3.45
 -18  -1  11    2.95    4.57
 -18   1  12    1.98    3.90
 -18  -1  12   -1.40    2.76
 -18   1  13    1.71    3.03
 -18  -1  13    3.31    2.61
 -18   1  14    1.53    2.59
 -18  -1  14    5.57    3.38
 -18   1  15   51.53   11.40
 -18  -1  15   56.03   10.60
 -18   2 -14   29.26    7.27
 -18   2 -13   18.33    5.72
 -18   2 -12   13.51    7.10
 -18   2 -11   62.40   10.89
 -18   2 -10   74.59   12.19
 -18   2 -10   68.07   11.12
 -18   2  -9   -2.60    2.92
 -18   2  -9   -1.75    2.45
 -18  -2  -9    4.08    4.66
 -18   2  -8    0.90    3.68
 -18   2  -8   -1.70    3.26
 -18  -2  -8    0.67    2.98
 -18   2  -7   -0.52    2.10
 -18   2  -7    3.72    4.81
 -18  -2  -7    1.37    3.42
 -18   2  -6   73.85   11.96
 -18   2  -6   51.73    9.53
 -18  -2  -6   61.40   10.94
 -18   2  -5  112.40   14.12
 -18  -2  -5  104.88   13.67
 -18   2  -5   96.25   13.69
 -18  -2  -5  108.02   13.37
 -18   2  -4   82.98   12.61
 -18   2  -4   88.21   13.35
 -18  -2  -4   87.27   12.94
 -18  -2  -4   66.22   10.11
 -18  -2  -4   68.46   10.32
 -18   2  -3   14.55    5.54
 -18  -2  -3   18.79    6.42
 -18   2  -3   13.55    6.33
 -18  -2  -3    9.49    5.34
 -18  -2  -3   22.61    7.30
 -18   2  -2   41.56    8.71
 -18   2  -2   24.00    6.51
 -18  -2  -2   33.30    8.16
 -18  -2  -2   42.59    9.55
 -18  -2  -2   39.14    8.50
 -18   2  -1  101.34   13.40
 -18  -2  -1  117.13   14.26
 -18   2  -1   84.77   13.33
 -18  -2  -1  136.16   15.43
 -18  -2  -1  102.97   13.19
 -18   2   0  123.01   14.46
 -18  -2   0  144.34   15.95
 -18   2   0  158.34   17.84
 -18  -2   0  124.99   16.11
 -18  -2   0  161.20   15.99
 -18   2   1  121.68   14.27
 -18  -2   1  111.27   14.19
 -18   2   1  131.20   16.00
 -18  -2   1  117.90   14.67
 -18  -2   1  106.64   13.70
 -18   2   2   38.26    8.33
 -18   2   2   33.29    8.75
 -18  -2   2   31.01    7.62
 -18  -2   2   28.36    7.46
 -18  -2   2   33.29    8.17
 -18   2   3   18.92    5.59
 -18   2   3   20.75    7.17
 -18  -2   3   20.34    7.04
 -18  -2   3   18.27    5.81
 -18  -2   3   15.34    4.17
 -18   2   4   81.66   12.81
 -18  -2   4   80.09   11.87
 -18   2   4   84.98   13.48
 -18  -2   4   88.23   13.71
 -18  -2   4   86.42   12.08
 -18   2   5   72.55   11.36
 -18  -2   5   94.49   12.65
 -18   2   5   77.80   11.48
 -18  -2   5   83.61   13.36
 -18  -2   5   83.30   11.60
 -18   2   6   65.94   10.85
 -18  -2   6   81.88   12.55
 -18   2   6   52.70    9.78
 -18  -2   6   87.91   13.28
 -18  -2   6   62.34   10.14
 -18  -2   7    5.63    4.17
 -18   2   7    2.78    2.47
 -18   2   7   10.29    5.31
 -18  -2   7    5.70    4.41
 -18  -2   8   -1.27    2.04
 -18   2   8   -2.32    3.62
 -18   2   8   -1.02    2.40
 -18  -2   8   -1.93    2.95
 -18  -2   9   -3.48    4.21
 -18   2   9    2.32    2.84
 -18   2   9    4.06    4.41
 -18  -2   9    2.05    4.05
 -18   2  10   93.33   13.41
 -18  -2  10  116.43   14.46
 -18   2  10   71.46   11.47
 -18   2  11   69.04   11.87
 -18  -2  11   67.34   11.13
 -18   2  11   64.03   11.22
 -18  -2  12    7.12    4.57
 -18   2  12    4.77    2.91
 -18  -2  13   22.57    6.43
 -18   2  13   19.78    5.79
 -18   2  13   17.12    7.09
 -18  -2  14   30.71    9.00
 -18   2  14   25.09    8.33
 -18   3 -13   31.86    9.02
 -18  -3 -13   50.53    9.92
 -18   3 -12   31.78    8.59
 -18  -3 -12   49.59    9.18
 -18   3 -11    5.84    5.53
 -18   3 -11    2.37    3.73
 -18  -3 -11   -0.20    3.11
 -18   3 -10   15.58    5.85
 -18   3 -10   13.67    6.81
 -18  -3 -10   15.09    6.34
 -18   3  -9    2.85    3.08
 -18  -3  -9    2.20    2.83
 -18   3  -8    1.46    4.13
 -18   3  -8    1.36    2.24
 -18  -3  -8    1.57    3.90
 -18   3  -7    8.44    5.54
 -18   3  -7    9.46    2.98
 -18  -3  -7    8.99    3.69
 -18   3  -6   64.73   11.34
 -18   3  -6   88.16   13.19
 -18  -3  -6   96.10   13.00
 -18   3  -5    4.04    3.51
 -18   3  -5    3.88    2.00
 -18  -3  -5    2.55    2.91
 -18   3  -4   32.71    7.77
 -18   3  -4   23.64    8.19
 -18  -3  -4   29.54    7.52
 -18  -3  -4   30.47    8.10
 -18   3  -3   -0.24    2.65
 -18   3  -3    0.50    3.77
 -18  -3  -3    0.94    2.58
 -18  -3  -3   -2.45    4.50
 -18   3  -2    0.19    2.54
 -18   3  -2    6.00    5.09
 -18  -3  -2    2.05    4.16
 -18  -3  -2    5.29    3.76
 -18   3  -1    3.73    4.11
 -18   3  -1   -1.28    2.16
 -18  -3  -1   -1.89    3.30
 -18  -3  -1    2.74    4.45
 -18   3   0    7.03    4.19
 -18   3   0   18.89    6.40
 -18  -3   0   10.40    4.59
 -18  -3   0    4.72    2.80
 -18   3   1    2.57    2.04
 -18   3   1   -0.63    4.41
 -18  -3   1   14.51   10.25
 -18  -3   1    0.69    4.06
 -18  -3   1    3.31    4.09
 -18  -3   2    2.23    2.26
 -18   3   2   -2.06    1.95
 -18   3   2   -0.02    2.53
 -18  -3   2   -8.02    5.73
 -18  -3   2   -0.09    3.40
 -18  -3   3    1.79    2.89
 -18   3   3    3.22    2.82
 -18   3   3    8.33    6.19
 -18  -3   3    0.81    3.48
 -18  -3   3    2.46    3.07
 -18  -3   4   36.73    8.16
 -18   3   4   29.45    7.28
 -18   3   4   20.16    6.19
 -18  -3   4   22.88    7.33
 -18  -3   4   24.45    5.83
 -18  -3   5    8.00    5.27
 -18   3   5    7.84    4.33
 -18   3   5    6.87    3.39
 -18  -3   5    3.95    5.84
 -18  -3   5    7.80    4.53
 -18   3   6   71.62   11.04
 -18  -3   6   88.66   12.69
 -18  -3   6   81.85   11.91
 -18  -3   7   12.78    5.39
 -18   3   7   10.36    5.32
 -18   3   7    9.94    5.63
 -18  -3   7   -0.17    3.20
 -18  -3   8    2.73    3.60
 -18   3   8    3.74    5.62
 -18   3   8    0.17    2.63
 -18  -3   8   -0.98    4.02
 -18  -3   9    2.90    3.51
 -18   3   9    1.43    4.06
 -18   3   9    0.31    4.33
 -18  -3   9    1.42    4.78
 -18   3  10    2.13    3.28
 -18   3  10    4.68    4.80
 -18  -3  11    1.85    2.89
 -18   3  11   10.04    5.51
 -18   3  11   -1.62    4.60
 -18  -3  12   30.07    6.56
 -18   3  12   41.14    9.52
 -18   3  12   42.34    9.10
 -18  -3  13   41.52    8.83
 -18   3  13   54.28   10.82
 -18   3  13   51.77    9.91
 -18   4 -10   54.64   11.24
 -18   4 -10   90.30   13.38
 -18  -4 -10   93.61   12.84
 -18   4  -9    6.07    4.00
 -18  -4  -9   13.55    4.80
 -18   4  -8    2.98    2.41
 -18   4  -8    6.50    3.94
 -18  -4  -8    9.44    4.49
 -18   4  -7   61.21   12.13
 -18   4  -7   74.06   11.72
 -18  -4  -7   93.30   12.64
 -18   4  -6  163.51   17.73
 -18   4  -6  169.04   17.87
 -18  -4  -6  178.37   17.26
 -18   4  -5  109.42   14.95
 -18   4  -5  106.80   14.37
 -18  -4  -5   76.05   11.74
 -18   4  -4   11.00    5.49
 -18   4  -4    6.88    2.40
 -18  -4  -4   10.11    4.80
 -18   4  -3    0.97    3.00
 -18   4  -3   -1.25    3.13
 -18  -4  -3    0.74    3.97
 -18  -4  -2    6.90    4.11
 -18   4  -2   -1.12    2.76
 -18   4  -2    2.37    3.92
 -18  -4  -2    8.60    4.77
 -18   4  -1  115.89   14.93
 -18  -4  -1  107.91   14.16
 -18   4  -1  105.78   14.98
 -18  -4  -1  117.56   14.63
 -18   4   0  138.85   16.37
 -18  -4   0  118.02   14.83
 -18   4   0  169.03   18.14
 -18  -4   0  165.26   16.50
 -18   4   1   93.96   13.34
 -18  -4   1   84.35   12.39
 -18   4   1   97.49   13.70
 -18  -4   1   96.96   13.45
 -18  -4   2    8.25    4.57
 -18  -4   2    4.65    3.43
 -18   4   2    9.47    5.28
 -18   4   2    2.46    3.63
 -18  -4   3    1.77    2.48
 -18  -4   3    5.15    5.14
 -18   4   3    3.42    3.83
 -18   4   3    6.37    4.85
 -18  -4   4   11.58    4.62
 -18  -4   4    5.88    3.96
 -18   4   4    1.26    3.63
 -18   4   4   12.95    5.88
 -18   4   5   97.52   13.93
 -18   4   5  106.54   15.14
 -18  -4   5   97.58   13.54
 -18  -4   5   89.84   13.19
 -18   4   6  157.22   16.95
 -18   4   6  146.48   17.04
 -18  -4   6  179.76   18.47
 -18  -4   6  190.86   18.59
 -18   4   7   60.75   11.15
 -18  -4   7   62.16   11.03
 -18   4   7   78.07   11.78
 -18  -4   8    6.82    6.52
 -18  -4   8    7.93    5.71
 -18   4   8    5.71    5.50
 -18   4   8   -0.90    2.98
 -18  -4   9   20.36    8.04
 -18  -4   9    3.60    3.11
 -18   4   9    5.47    3.87
 -18   4   9   24.17    6.18
 -18  -4  10   75.35   12.06
 -18   4  10   65.50   11.50
 -18   4  10   76.00   12.79
 -18  -4  10   79.20   12.43
 -18  -5  -7   -0.54    4.04
 -18   5  -7   -3.47    4.12
 -18   5  -7    3.78    3.77
 -18  -5  -6    5.30    3.71
 -18   5  -6    8.70    5.39
 -18   5  -6    2.64    2.70
 -18  -5  -5    4.18    5.17
 -18   5  -5    3.04    4.02
 -18   5  -5   -0.34    4.91
 -18  -5  -4   14.02    7.03
 -18   5  -4   26.08    6.71
 -18   5  -4   12.39    6.55
 -18  -5  -3   -2.03    4.38
 -18   5  -3   13.07    6.86
 -18   5  -3    6.82    5.05
 -18  -5  -2    3.79    4.28
 -18   5  -2    3.96    3.61
 -18   5  -2   -3.01    4.93
 -18  -5  -1    2.72    3.20
 -18  -5  -1    2.29    2.83
 -18   5  -1    8.05    5.39
 -18   5  -1    4.32    3.53
 -18  -5   0    1.45    2.38
 -18  -5   0    3.88    3.86
 -18   5   0    5.03    5.40
 -18   5   0   -3.00    3.88
 -18  -5   1    6.75    2.94
 -18  -5   1    3.83    4.29
 -18   5   1    8.92    4.22
 -18   5   1   10.80    6.58
 -18  -5   2    3.78    3.16
 -18  -5   2    9.20    5.09
 -18   5   2    3.63    3.21
 -18   5   2    7.95    3.06
 -18  -5   3    2.94    4.36
 -18  -5   3   -0.93    2.90
 -18   5   3    6.46    5.77
 -18   5   3   -1.94    3.30
 -18  -5   4    8.56    4.75
 -18  -5   4    6.74    4.30
 -18   5   4    4.49    2.36
 -18   5   4    4.86    3.81
 -18  -5   5    1.44    4.09
 -18  -5   5   -0.23    2.79
 -18   5   5   -2.10    2.84
 -18   5   5    5.28    3.92
 -18  -5   6    4.06    4.59
 -18  -5   6   12.02    5.37
 -18   5   6   11.45    5.93
 -18   5   6    5.30    4.49
 -18  -5   7   -3.15    5.51
 -18  -5   7   -1.51    3.61
 -18   5   7    1.62    3.24
 -18   5   7   -0.43    2.98
 -19   0 -12   -2.36    4.68
 -19   0 -11    3.07    5.22
 -19   0 -10    1.30    2.55
 -19   0  -9   -4.89    4.34
 -19   0  -8   -2.08    4.25
 -19   0  -7    3.12    3.64
 -19   0  -7   -2.34    5.05
 -19   0  -6    0.22    3.55
 -19   0  -6   -4.91    3.56
 -19   0  -5    5.28    4.87
 -19   0  -5   -3.84    5.21
 -19   0  -4   -1.62    2.62
 -19   0  -4   -3.09    2.77
 -19   0  -3    1.64    3.06
 -19   0  -3   -0.05    2.62
 -19   0  -2    0.29    2.58
 -19   0  -2   -0.71    2.48
 -19   0  -1    4.11    5.61
 -19   0  -1    6.28    5.91
 -19   0   0   -4.09    4.10
 -19   0   0    1.14    3.69
 -19   0   1   -2.60    3.70
 -19   0   1   -3.15    4.36
 -19   0   2    0.27    3.37
 -19   0   2    3.17    3.67
 -19   0   3   -1.04    1.84
 -19   0   3    4.38    3.68
 -19   0   4    0.98    3.33
 -19   0   4    0.81    3.64
 -19   0   5    1.33    2.33
 -19   0   5    2.20    3.90
 -19   0   6    0.56    2.72
 -19   0   6    2.25    3.42
 -19   0   7   -0.30    2.19
 -19   0   7   -0.53    3.34
 -19   0   8    3.70    3.90
 -19   0   8   -0.02    3.14
 -19   0   9    2.35    4.93
 -19   0   9   -0.66    3.16
 -19   0  10    0.71    2.30
 -19   0  10   -0.10    5.40
 -19   0  11   -3.02    3.38
 -19   0  12    1.37    4.02
 -19   1 -11   59.33   11.04
 -19   1 -10  143.27   17.56
 -19   1  -9   29.12    6.90
 -19   1  -8   13.36    4.59
 -19   1  -8   13.06    6.52
 -19  -1  -8    5.65    2.85
 -19   1  -7   47.89   10.20
 -19   1  -7   35.77    9.57
 -19  -1  -7   38.88    8.49
 -19   1  -6   61.92   11.48
 -19  -1  -6   55.11   11.76
 -19   1  -6   83.68   12.68
 -19  -1  -6   63.04   12.58
 -19   1  -5   80.66   13.17
 -19  -1  -5   72.22   11.10
 -19   1  -5   75.70   12.11
 -19  -1  -5   96.57   14.19
 -19   1  -4   40.33    9.42
 -19  -1  -4   29.15    6.84
 -19   1  -4   28.68    7.47
 -19  -1  -4   42.51    9.73
 -19   1  -3   15.08    5.33
 -19  -1  -3   17.47    6.21
 -19   1  -3   13.01    5.24
 -19  -1  -3   23.11    8.18
 -19   1  -2   66.61   10.86
 -19  -1  -2   69.24   11.91
 -19   1  -2   80.75   12.28
 -19  -1  -2   76.31   12.54
 -19   1  -1   99.03   13.90
 -19  -1  -1   78.46   12.57
 -19  -1  -1   77.97   12.62
 -19   1  -1   62.12   11.08
 -19   1   0   26.95    7.57
 -19  -1   0   25.40    6.64
 -19   1   0   28.67    6.68
 -19  -1   0   33.25    7.68
 -19   1   1   81.39   11.83
 -19  -1   1   90.23   12.96
 -19   1   1   95.04   13.52
 -19  -1   1   89.60   14.02
 -19   1   2   79.55   11.78
 -19  -1   2   87.13   12.46
 -19   1   2  101.93   13.96
 -19  -1   2   87.67   13.08
 -19   1   3   31.96    7.94
 -19  -1   3   11.04    4.53
 -19   1   3   18.65    7.24
 -19  -1   3   16.98    7.66
 -19   1   4   33.64    8.00
 -19  -1   4   43.13    9.32
 -19   1   4   38.84    9.44
 -19  -1   4   10.50    4.41
 -19   1   5   70.62   11.58
 -19  -1   5   81.97   11.77
 -19   1   5   68.06   11.66
 -19  -1   5   85.15   12.89
 -19   1   6   81.16   11.78
 -19  -1   6   79.87   12.00
 -19   1   6   72.68   11.34
 -19  -1   6   56.88   10.74
 -19  -1   7   48.92   10.82
 -19   1   7   31.64    7.66
 -19   1   7   46.76   11.05
 -19  -1   7   50.34   10.66
 -19   1   8    7.58    5.24
 -19   1   8   15.90    5.61
 -19  -1   8   11.59    4.91
 -19  -1   8   17.28    5.73
 -19   1   9   33.93    7.69
 -19   1   9   35.80    9.09
 -19  -1   9   19.12    6.30
 -19  -1   9   21.26    7.07
 -19   1  10  134.73   15.82
 -19  -1  10  119.89   14.71
 -19   1  10  124.78   15.63
 -19   1  11   55.77   10.39
 -19   1  11   62.39   11.53
 -19  -1  11   51.23    9.49
 -19   2 -11   10.57    6.81
 -19   2 -10    2.76    3.61
 -19   2  -9    7.38    5.61
 -19   2  -9    2.25    4.48
 -19   2  -8   -3.91    5.25
 -19   2  -8    2.44    4.81
 -19   2  -7   24.49    7.49
 -19   2  -7   21.24    8.48
 -19  -2  -7    4.93    2.96
 -19   2  -6   33.23    8.18
 -19   2  -6   56.98   10.70
 -19  -2  -6   45.69    9.29
 -19   2  -5   31.82    8.70
 -19   2  -5   52.48   10.54
 -19  -2  -5   46.18    8.73
 -19   2  -4   24.93    6.67
 -19  -2  -4   24.86    8.31
 -19   2  -4   32.03    8.03
 -19  -2  -4   30.43    7.75
 -19   2  -3   10.89    4.05
 -19  -2  -3   17.49    5.55
 -19   2  -3   22.72    7.82
 -19  -2  -3   27.96   11.56
 -19  -2  -3   19.46    6.15
 -19   2  -2    6.54    2.52
 -19  -2  -2    4.09    2.95
 -19   2  -2    7.43    3.00
 -19  -2  -2   14.17    6.56
 -19  -2  -2   12.09    5.51
 -19   2  -1   12.78    5.69
 -19  -2  -1    0.70    2.64
 -19   2  -1    1.83    3.58
 -19  -2  -1   13.56    6.95
 -19  -2  -1    9.74    5.73
 -19   2   0    3.31    2.93
 -19  -2   0   12.35    6.03
 -19  -2   0    3.50    2.49
 -19  -2   0    5.91    2.35
 -19   2   1    6.64    2.00
 -19   2   1   16.70    5.53
 -19  -2   1   19.99    6.96
 -19  -2   1    9.39    3.81
 -19  -2   1    2.19    4.24
 -19   2   2   14.19    5.51
 -19  -2   2    0.59    4.42
 -19  -2   2    5.43    4.11
 -19  -2   2    3.58    3.44
 -19   2   3   17.56    6.27
 -19   2   3   16.11    6.66
 -19  -2   3   18.59    6.29
 -19  -2   3   21.14    6.64
 -19  -2   3   14.52    5.39
 -19   2   4   19.03    6.51
 -19   2   4   18.75    5.91
 -19  -2   4   29.80    7.83
 -19  -2   4   30.68    7.50
 -19  -2   4   36.94    8.43
 -19   2   5   47.56    9.47
 -19   2   5   57.79   11.11
 -19  -2   5   33.23    8.75
 -19  -2   5   32.13    8.16
 -19  -2   5   25.00    7.29
 -19   2   6   55.12    9.21
 -19   2   6   47.25   10.04
 -19  -2   6   47.74   10.10
 -19  -2   6   39.14    8.70
 -19  -2   6   53.06    9.40
 -19   2   7   18.93    4.68
 -19   2   7    7.86    5.57
 -19  -2   7   16.90    8.03
 -19  -2   7   10.80    5.34
 -19  -2   7   25.34    6.42
 -19   2   8    4.44    2.21
 -19   2   8   -2.82    3.91
 -19  -2   8   -0.75    4.67
 -19  -2   8    3.67    3.40
 -19  -2   8    4.82    4.57
 -19   2   9    2.55    5.20
 -19   2   9    3.55    5.43
 -19  -2   9    4.81    3.16
 -19   2  10   -1.63    3.55
 -19   2  10    7.21    6.74
 -19  -2  10   12.44    6.65
 -19   2  11    5.46    3.80
 -19   2  11   12.82    5.72
 -19  -2  11    6.82    5.01
 -19   3  -9   30.22    9.08
 -19   3  -9   26.94    7.29
 -19  -3  -9   29.49    6.93
 -19   3  -8   38.87    9.24
 -19   3  -8   31.69    7.76
 -19  -3  -8   28.86    8.39
 -19   3  -7   14.06    6.17
 -19   3  -7   14.05    5.87
 -19  -3  -7    8.02    3.97
 -19   3  -6   18.82    7.24
 -19   3  -6   11.63    5.88
 -19  -3  -6    9.14    4.63
 -19   3  -5    4.61    3.15
 -19   3  -5   21.40    5.32
 -19   3  -4   10.75    3.74
 -19   3  -4   12.44    7.45
 -19  -3  -4   11.05    5.08
 -19   3  -3   11.93    4.99
 -19   3  -3   18.25    5.87
 -19  -3  -3   14.50    6.37
 -19  -3  -3   13.07    4.89
 -19   3  -2   24.63    6.67
 -19   3  -2   21.48    5.81
 -19  -3  -2   23.46    5.70
 -19  -3  -2   33.44    8.34
 -19   3  -1   20.87    7.75
 -19   3  -1   12.36    5.89
 -19  -3  -1   19.18    6.93
 -19  -3  -1   19.97    5.86
 -19   3   0    4.59    2.52
 -19   3   0    5.15    5.38
 -19  -3   0    9.45    5.32
 -19  -3   0    5.94    3.81
 -19   3   1   28.21    7.50
 -19   3   1   11.88    6.32
 -19  -3   1   13.96    6.17
 -19  -3   1   20.29    7.10
 -19   3   2   21.69    6.08
 -19   3   2   13.62    5.11
 -19  -3   2   20.43    7.05
 -19  -3   2   33.42    8.35
 -19   3   3   10.93    4.80
 -19   3   3   15.43    3.80
 -19  -3   3   24.05   10.69
 -19  -3   3   20.60    5.94
 -19  -3   3   11.60    5.59
 -19   3   4   18.35    6.00
 -19   3   4   10.32    5.02
 -19  -3   4   14.18    5.85
 -19  -3   4    4.02    2.84
 -19  -3   4   16.24    6.52
 -19  -3   5   24.42    7.30
 -19   3   5   27.92    7.87
 -19   3   5   32.63    8.47
 -19  -3   5   13.66    5.18
 -19  -3   5   26.96    6.39
 -19  -3   6   16.08    6.06
 -19   3   6    9.83    4.97
 -19   3   6    1.39    3.62
 -19  -3   6    8.78    2.53
 -19  -3   6   22.53    8.48
 -19  -3   7   11.95    6.12
 -19   3   7    6.39    3.14
 -19   3   7   12.36    5.16
 -19  -3   7    7.69    2.75
 -19  -3   7    9.03    5.19
 -19  -3   8   53.53    9.76
 -19   3   8   39.74    9.07
 -19   3   8   62.89   11.52
 -19  -3   8   52.71   10.30
 -19  -3   9   18.37    6.74
 -19   3   9   27.20    6.98
 -19   3   9   13.35    5.60
 -19  -3   9   29.70    8.22
 -19   4  -6    8.21    5.05
 -19   4  -6    6.08    4.26
 -19  -4  -6    3.99    3.53
 -19   4  -5    3.90    4.09
 -19   4  -5    0.55    2.63
 -19  -4  -5    4.42    3.75
 -19   4  -4   13.71    5.72
 -19   4  -4    9.32    4.96
 -19  -4  -4   18.79    5.62
 -19   4  -3   12.97    6.54
 -19   4  -3    9.43    5.80
 -19  -4  -3    6.72    4.69
 -19   4  -2   12.24    3.42
 -19   4  -2    7.32    4.30
 -19  -4  -2    8.38    5.03
 -19   4  -1    4.85    4.02
 -19   4  -1    5.58    2.34
 -19  -4  -1   10.37    2.76
 -19   4   0   19.69    6.68
 -19   4   0    8.40    3.52
 -19  -4   0   26.72    8.24
 -19  -4   0    5.25    3.88
 -19  -4   1    1.12    3.33
 -19   4   1    9.89    5.71
 -19   4   1    5.62    5.03
 -19  -4   1   10.49    6.19
 -19  -4   2   25.36    8.75
 -19   4   2   16.32    4.22
 -19   4   2    3.89    2.57
 -19  -4   2   18.81    5.95
 -19  -4   3    9.88    4.99
 -19   4   3   11.43    5.56
 -19   4   3    2.57    4.43
 -19  -4   3    9.80    4.35
 -19  -4   4   13.69    5.53
 -19   4   4   21.94    6.75
 -19   4   4    7.33    4.01
 -19  -4   4   12.25    6.08
 -19  -4   5   -2.82    2.78
 -19   4   5    0.10    3.08
 -19   4   5    1.75    4.26
 -19  -4   5    4.64    3.07
 -19  -4   6    2.06    4.30
 -19   4   6    2.76    2.47
 -19   4   6    8.09    5.48
 -19  -4   6    0.24    3.66
 -20   0  -7   13.51    6.01
 -20   0  -6   -2.08    3.14
 -20   0  -6    6.78    4.79
 -20   0  -5  158.51   18.38
 -20   0  -5  164.40   18.00
 -20   0  -4  328.97   25.76
 -20   0  -4  330.30   26.25
 -20   0  -3    6.26    4.03
 -20   0  -3    2.89    2.42
 -20   0  -2  401.72   27.68
 -20   0  -2  418.40   29.20
 -20   0  -1   56.79   10.43
 -20   0  -1   68.76   10.99
 -20   0   0   -0.87    3.20
 -20   0   0    0.88    3.28
 -20   0   1   68.22   11.60
 -20   0   1   48.46   10.09
 -20   0   2  435.64   28.46
 -20   0   2  387.50   28.35
 -20   0   3   10.75    5.31
 -20   0   3    3.01    2.99
 -20   0   4  358.92   25.81
 -20   0   4  347.07   26.20
 -20   0   5  138.23   16.47
 -20   0   5  163.92   18.46
 -20   0   6    7.25    4.92
 -20   0   6    0.04    3.58
 -20   0   7   12.39    6.23
 -20   0   7   24.52    7.47
 -20   1  -7    2.17    2.75
 -20   1  -7    5.29    4.23
 -20  -1  -7   -4.18    3.19
 -20   1  -6    1.12    2.76
 -20   1  -6   -1.31    3.29
 -20  -1  -6    7.52    6.14
 -20   1  -5    9.93    5.38
 -20  -1  -5   12.25    3.99
 -20   1  -5    9.24    4.99
 -20  -1  -5    6.04    6.12
 -20   1  -4   -2.52    4.86
 -20  -1  -4    4.62    4.20
 -20   1  -4   -0.77    3.68
 -20  -1  -4   -0.15    5.34
 -20   1  -3   43.45    9.86
 -20  -1  -3   39.47   10.06
 -20   1  -3   48.86   10.09
 -20  -1  -3   36.77    8.69
 -20   1  -2    4.76    5.18
 -20  -1  -2    8.83    2.54
 -20   1  -2    2.71    3.48
 -20  -1  -2    9.46    4.91
 -20   1  -1    6.54    5.52
 -20  -1  -1    4.44    3.75
 -20   1  -1    6.50    3.13
 -20  -1  -1    2.60    4.63
 -20   1   0    3.62    2.10
 -20  -1   0   -2.92    2.25
 -20   1   0    3.95    5.79
 -20  -1   0    5.38    5.55
 -20   1   1   16.62    6.46
 -20  -1   1    8.93    6.10
 -20   1   1   14.48    7.72
 -20  -1   1    7.99    4.03
 -20   1   2   19.72    7.31
 -20  -1   2   12.14    5.71
 -20   1   2   18.49    6.05
 -20  -1   2    9.71    4.41
 -20   1   3   28.61    6.39
 -20  -1   3   40.34    8.72
 -20   1   3   41.20    9.69
 -20  -1   3   33.34    7.65
 -20   1   4    4.31    2.83
 -20  -1   4    0.90    2.32
 -20   1   4   -1.97    4.14
 -20  -1   4    2.19    2.45
 -20   1   5    4.41    3.76
 -20  -1   5   12.33    5.50
 -20   1   5   10.13    5.63
 -20  -1   5    1.73    5.39
 -20   1   6    2.56    3.05
 -20  -1   6   -0.47    2.85
 -20   1   6   -0.31    2.14
 -20  -1   6    5.62    4.55
 -20   1   7    6.83    2.88
 -20  -1   7    1.61    2.35
 -20   1   7   10.31    4.76
 -20  -1   7   11.02    7.04
 -20   2  -5    7.02    4.93
 -20   2  -5    6.97    4.45
 -20   2  -4   37.11    8.78
 -20  -2  -4   39.79   10.06
 -20   2  -4   40.88    9.48
 -20  -2  -4   40.04    9.50
 -20   2  -3   18.67    5.12
 -20  -2  -3   25.97    7.85
 -20   2  -3   11.25    4.03
 -20  -2  -3   14.89    5.57
 -20   2  -2  142.62   16.77
 -20  -2  -2  170.00   18.12
 -20   2  -2  180.75   19.83
 -20  -2  -2  143.88   16.26
 -20   2  -1   20.22    5.84
 -20  -2  -1   22.56    6.57
 -20   2  -1   15.66    6.30
 -20  -2  -1   12.31   10.45
 -20  -2  -1   11.24    5.01
 -20   2   0    0.05    3.69
 -20  -2   0   -2.23    2.75
 -20   2   0    2.14    3.09
 -20  -2   0    2.17    3.84
 -20  -2   0    0.15    2.92
 -20   2   1   15.45    4.73
 -20  -2   1    9.49    5.03
 -20   2   1   11.39    6.11
 -20  -2   1   16.01    5.91
 -20  -2   1   12.43    3.07
 -20   2   2  187.89   19.27
 -20  -2   2  178.87   18.35
 -20   2   2  168.43   18.33
 -20  -2   2  130.46   17.24
 -20  -2   2  156.69   17.18
 -20   2   3    8.84    3.61
 -20   2   3    8.29    5.20
 -20  -2   3   29.07    6.79
 -20  -2   3   21.96    7.96
 -20  -2   3   27.54    6.68
 -20   2   4   36.03    8.27
 -20   2   4   28.09    7.30
 -20  -2   4   37.57   10.09
 -20  -2   4   36.99    9.58
 -20  -2   4   48.29   10.07
 -20   2   5    8.48    3.77
 -20   2   5    3.87    2.28
 -20  -2   5   14.82    7.69
 -20  -2   5    6.49    3.75
 -20  -2   5    7.04    4.83
   0   0   0    0.00    0.00
TITL 014_180K_SulfamerazineF1_ in Pna2(1)
REM Pna2(1) (#33, found as Pbn2(1) in ba-c setting)
CELL 0.68890  14.466565   8.186791  21.810332  90.0000  90.0000  90.0000
ZERR    8.00   0.000113   0.000074   0.000249   0.0000   0.0000   0.0000
LATT -1
SYMM -x,-y, z+1/2
SYMM  x+1/2,-y+1/2, z
SYMM -x+1/2, y+1/2, z+1/2
SFAC C H N O S
UNIT 88.00 96.00 32.00 16.00 8.00
TREF
HKLF 4
END
_computing_structure_solution     'SHELXT 2014/5 (Sheldrick, 2014)'
;
_shelx_hkl_checksum              44982
loop_
_space_group_symop_operation_xyz
'x, y, z'
'-x, -y, z+1/2'
'x+1/2, -y+1/2, z'
'-x+1/2, y+1/2, z+1/2'
loop_
_atom_site_label
_atom_site_type_symbol
_atom_site_fract_x
_atom_site_fract_y
_atom_site_fract_z
_atom_site_U_iso_or_equiv
_atom_site_adp_type
_atom_site_occupancy
_atom_site_site_symmetry_order
_atom_site_calc_flag
_atom_site_refinement_flags_posn
_atom_site_refinement_flags_adp
_atom_site_refinement_flags_occupancy
_atom_site_disorder_assembly
_atom_site_disorder_group
S1 S 0.64420(5) 0.49466(8) 0.34371(4) 0.02323(16) Uani 1 1 d . . . . .
S2 S 0.57801(5) 0.49786(8) 0.65317(4) 0.02258(16) Uani 1 1 d . . . . .
O1 O 0.68746(16) 0.3701(3) 0.30784(12) 0.0309(5) Uani 1 1 d . . . . .
O2 O 0.54683(14) 0.5220(3) 0.33715(12) 0.0299(5) Uani 1 1 d . . . . .
O3 O 0.67555(14) 0.4704(3) 0.65955(12) 0.0291(5) Uani 1 1 d . . . . .
O4 O 0.53571(15) 0.6249(3) 0.68853(11) 0.0296(5) Uani 1 1 d . . . . .
N1 N 0.8414(2) 1.1180(3) 0.31238(16) 0.0352(7) Uani 1 1 d . . . . .
N2 N 0.65335(18) 0.4473(3) 0.41710(14) 0.0258(5) Uani 1 1 d . . . . .
N3 N 0.81328(17) 0.4082(3) 0.41671(14) 0.0278(5) Uani 1 1 d . . . . .
N4 N 0.7275(2) 0.4307(4) 0.50965(14) 0.0399(7) Uani 1 1 d . . . . .
N5 N 0.3800(2) -0.1200(3) 0.69478(17) 0.0440(8) Uani 1 1 d . . . . .
H5A H 0.3235 -0.1188 0.7070 0.057 Uiso 1 1 calc R U . . .
H5B H 0.4074 -0.2116 0.6882 0.057 Uiso 1 1 calc R U . . .
N6 N 0.56834(18) 0.5411(4) 0.57966(14) 0.0279(6) Uani 1 1 d . . . . .
N7 N 0.40930(17) 0.5883(3) 0.58047(14) 0.0286(6) Uani 1 1 d . . . . .
N8 N 0.49500(19) 0.5656(4) 0.48721(15) 0.0392(7) Uani 1 1 d . . . . .
C1 C 0.70324(19) 0.6774(3) 0.33363(16) 0.0217(6) Uani 1 1 d . . . . .
C2 C 0.79316(18) 0.6789(3) 0.31015(15) 0.0232(6) Uani 1 1 d . . . . .
H2 H 0.8219 0.5815 0.2992 0.030 Uiso 1 1 calc R U . . .
C3 C 0.8389(2) 0.8252(4) 0.30326(16) 0.0241(6) Uani 1 1 d . . . . .
H3 H 0.8990 0.8259 0.2882 0.031 Uiso 1 1 calc R U . . .
C4 C 0.7959(2) 0.9734(3) 0.31874(14) 0.0240(6) Uani 1 1 d . . . . .
C5 C 0.7052(2) 0.9698(3) 0.34273(18) 0.0267(6) Uani 1 1 d . . . . .
H5 H 0.6760 1.0667 0.3537 0.035 Uiso 1 1 calc R U . . .
C6 C 0.6598(2) 0.8231(3) 0.34990(16) 0.0265(6) Uani 1 1 d . . . . .
H6 H 0.6000 0.8212 0.3656 0.034 Uiso 1 1 calc R U . . .
C7 C 0.7359(2) 0.4285(4) 0.44880(15) 0.0261(6) Uani 1 1 d . . . . .
C8 C 0.8063(3) 0.4069(7) 0.5410(2) 0.0551(12) Uani 1 1 d . . . . .
H8 H 0.8043 0.4055 0.5836 0.072 Uiso 1 1 calc R U . . .
C9 C 0.8899(2) 0.3848(6) 0.5121(2) 0.0494(10) Uani 1 1 d . . . . .
H9 H 0.9436 0.3680 0.5346 0.064 Uiso 1 1 calc R U . . .
C10 C 0.8917(2) 0.3881(4) 0.44929(18) 0.0346(8) Uani 1 1 d . . . . .
C11 C 0.9782(2) 0.3683(5) 0.4128(2) 0.0454(9) Uani 1 1 d . . . . .
H11A H 0.9802 0.2604 0.3956 0.059 Uiso 1 1 calc R U . . .
H11B H 1.0309 0.3842 0.4389 0.059 Uiso 1 1 calc R U . . .
H11C H 0.9793 0.4475 0.3803 0.059 Uiso 1 1 calc R U . . .
C12 C 0.51909(19) 0.3169(3) 0.66607(14) 0.0230(6) Uani 1 1 d . . . . .
C13 C 0.5638(2) 0.1691(4) 0.65526(19) 0.0294(7) Uani 1 1 d . . . . .
H13 H 0.6246 0.1685 0.6415 0.038 Uiso 1 1 calc R U . . .
C14 C 0.5180(2) 0.0237(4) 0.66492(18) 0.0333(8) Uani 1 1 d . . . . .
H14 H 0.5481 -0.0747 0.6576 0.043 Uiso 1 1 calc R U . . .
C15 C 0.4261(2) 0.0231(4) 0.68581(16) 0.0289(7) Uani 1 1 d . . . . .
C16 C 0.3819(2) 0.1728(3) 0.69645(15) 0.0254(6) Uani 1 1 d . . . . .
H16 H 0.3210 0.1741 0.7100 0.033 Uiso 1 1 calc R U . . .
C17 C 0.42788(19) 0.3179(4) 0.68696(16) 0.0236(6) Uani 1 1 d . . . . .
H17 H 0.3982 0.4166 0.6945 0.031 Uiso 1 1 calc R U . . .
C18 C 0.4859(2) 0.5665(4) 0.54836(15) 0.0262(6) Uani 1 1 d . . . . .
C19 C 0.4171(3) 0.5960(7) 0.4567(2) 0.0541(12) Uani 1 1 d . . . . .
H19 H 0.4193 0.5985 0.4141 0.070 Uiso 1 1 calc R U . . .
C20 C 0.3338(3) 0.6237(6) 0.4849(2) 0.0554(12) Uani 1 1 d . . . . .
H20 H 0.2809 0.6472 0.4624 0.072 Uiso 1 1 calc R U . . .
C21 C 0.3317(2) 0.6155(4) 0.54841(18) 0.0344(7) Uani 1 1 d . . . . .
C22 C 0.2451(2) 0.6370(6) 0.5848(2) 0.0494(10) Uani 1 1 d . . . . .
H22A H 0.2455 0.7426 0.6040 0.064 Uiso 1 1 calc R U . . .
H22B H 0.2417 0.5538 0.6158 0.064 Uiso 1 1 calc R U . . .
H22C H 0.1926 0.6284 0.5582 0.064 Uiso 1 1 calc R U . . .
H1N1 H 0.891(3) 1.123(5) 0.2921(19) 0.035(10) Uiso 1 1 d . . . . .
H2N1 H 0.809(3) 1.203(6) 0.317(2) 0.055(13) Uiso 1 1 d . . . . .
H1N2 H 0.612(3) 0.482(4) 0.440(2) 0.029(10) Uiso 1 1 d . . . . .
H1N6 H 0.619(4) 0.507(6) 0.559(3) 0.069(17) Uiso 1 1 d . . . . .
loop_
_atom_site_aniso_label
_atom_site_aniso_U_11
_atom_site_aniso_U_22
_atom_site_aniso_U_33
_atom_site_aniso_U_23
_atom_site_aniso_U_13
_atom_site_aniso_U_12
S1 0.0215(3) 0.0251(3) 0.0231(4) 0.0022(3) -0.0013(3) -0.0016(2)
S2 0.0208(3) 0.0241(3) 0.0228(4) 0.0024(3) -0.0009(3) -0.0013(2)
O1 0.0358(11) 0.0257(10) 0.0312(13) -0.0035(9) -0.0002(10) -0.0015(9)
O2 0.0220(10) 0.0372(11) 0.0303(13) 0.0053(10) -0.0048(10) -0.0027(8)
O3 0.0212(10) 0.0378(11) 0.0284(13) 0.0048(10) -0.0038(10) -0.0033(8)
O4 0.0337(11) 0.0250(10) 0.0302(13) -0.0020(9) -0.0008(10) -0.0009(8)
N1 0.0317(14) 0.0257(13) 0.0483(19) -0.0070(12) 0.0139(14) -0.0041(10)
N2 0.0193(11) 0.0343(13) 0.0237(15) 0.0055(11) -0.0006(11) 0.0001(9)
N3 0.0214(11) 0.0310(12) 0.0311(15) 0.0033(11) 0.0016(11) 0.0032(9)
N4 0.0296(14) 0.063(2) 0.0271(17) 0.0060(14) -0.0013(12) 0.0117(13)
N5 0.0386(15) 0.0263(12) 0.067(2) -0.0041(14) 0.0136(16) -0.0063(11)
N6 0.0207(11) 0.0390(14) 0.0238(15) 0.0068(12) 0.0017(11) 0.0017(10)
N7 0.0224(12) 0.0314(13) 0.0321(16) 0.0004(11) 0.0016(11) 0.0022(9)
N8 0.0272(13) 0.064(2) 0.0264(17) 0.0042(14) -0.0025(12) 0.0115(13)
C1 0.0216(12) 0.0234(11) 0.0202(15) 0.0024(11) 0.0003(11) 0.0005(9)
C2 0.0225(12) 0.0249(12) 0.0223(15) -0.0010(11) 0.0006(12) 0.0026(9)
C3 0.0208(12) 0.0287(14) 0.0226(17) -0.0001(12) 0.0034(12) 0.0006(10)
C4 0.0249(13) 0.0248(12) 0.0223(16) -0.0020(10) 0.0006(11) -0.0011(10)
C5 0.0254(13) 0.0249(12) 0.0297(17) -0.0021(13) 0.0048(14) 0.0025(10)
C6 0.0224(12) 0.0285(13) 0.0287(17) 0.0002(12) 0.0062(12) 0.0019(10)
C7 0.0231(13) 0.0278(14) 0.0275(18) 0.0042(12) -0.0005(12) 0.0027(10)
C8 0.039(2) 0.096(4) 0.030(2) 0.004(2) -0.0047(17) 0.021(2)
C9 0.0262(16) 0.086(3) 0.036(2) -0.004(2) -0.0080(16) 0.0143(17)
C10 0.0242(14) 0.0383(17) 0.041(2) -0.0003(15) -0.0011(14) 0.0057(12)
C11 0.0238(15) 0.060(2) 0.052(2) -0.006(2) 0.0028(16) 0.0072(15)
C12 0.0214(11) 0.0230(11) 0.0247(16) 0.0013(11) 0.0020(12) 0.0013(10)
C13 0.0220(13) 0.0273(13) 0.039(2) 0.0005(14) 0.0063(15) 0.0022(10)
C14 0.0292(15) 0.0227(13) 0.048(2) -0.0016(13) 0.0048(15) 0.0040(11)
C15 0.0285(15) 0.0267(13) 0.0316(19) -0.0015(12) 0.0017(13) -0.0025(11)
C16 0.0236(13) 0.0279(13) 0.0246(17) -0.0047(12) 0.0040(12) -0.0019(10)
C17 0.0250(13) 0.0237(12) 0.0222(16) -0.0021(11) 0.0017(12) 0.0011(10)
C18 0.0229(13) 0.0299(14) 0.0259(17) 0.0031(12) -0.0023(12) 0.0026(11)
C19 0.037(2) 0.098(4) 0.028(2) 0.000(2) -0.0075(16) 0.021(2)
C20 0.0300(17) 0.094(4) 0.043(3) -0.005(2) -0.0097(18) 0.0238(19)
C21 0.0248(14) 0.0394(17) 0.039(2) -0.0041(15) -0.0023(14) 0.0073(12)
C22 0.0257(16) 0.064(2) 0.058(3) -0.005(2) 0.0029(17) 0.0073(16)
loop_
_atom_type_symbol
_atom_type_description
_atom_type_scat_dispersion_real
_atom_type_scat_dispersion_imag
_atom_type_scat_source
C C 0.0033 0.0016 'International Tables Vol C Tables 4.2.6.8 and 6.1.1.4'
H H 0.0000 0.0000 'International Tables Vol C Tables 4.2.6.8 and 6.1.1.4'
N N 0.0061 0.0033 'International Tables Vol C Tables 4.2.6.8 and 6.1.1.4'
O O 0.0106 0.0060 'International Tables Vol C Tables 4.2.6.8 and 6.1.1.4'
S S 0.1246 0.1234 'International Tables Vol C Tables 4.2.6.8 and 6.1.1.4'
loop_
_geom_angle_atom_site_label_1
_geom_angle_atom_site_label_2
_geom_angle_atom_site_label_3
_geom_angle
_geom_angle_site_symmetry_1
_geom_angle_site_symmetry_3
O1 S1 O2 119.14(14) . .
O1 S1 N2 109.12(15) . .
O2 S1 N2 102.24(14) . .
O1 S1 C1 109.27(15) . .
O2 S1 C1 109.65(13) . .
N2 S1 C1 106.58(15) . .
O4 S2 O3 118.78(15) . .
O4 S2 N6 109.38(15) . .
O3 S2 N6 102.21(14) . .
O4 S2 C12 108.87(14) . .
O3 S2 C12 109.50(13) . .
N6 S2 C12 107.45(15) . .
C4 N1 H1N1 121(3) . .
C4 N1 H2N1 116(3) . .
H1N1 N1 H2N1 119(4) . .
C7 N2 S1 125.3(2) . .
C7 N2 H1N2 111(3) . .
S1 N2 H1N2 116(3) . .
C7 N3 C10 116.5(3) . .
C7 N4 C8 115.3(3) . .
C15 N5 H5A 120.0 . .
C15 N5 H5B 120.0 . .
H5A N5 H5B 120.0 . .
C18 N6 S2 125.7(2) . .
C18 N6 H1N6 120(4) . .
S2 N6 H1N6 110(4) . .
C18 N7 C21 116.6(3) . .
C19 N8 C18 114.4(3) . .
C6 C1 C2 120.3(3) . .
C6 C1 S1 118.9(2) . .
C2 C1 S1 120.8(2) . .
C3 C2 C1 119.7(3) . .
C3 C2 H2 120.2 . .
C1 C2 H2 120.2 . .
C2 C3 C4 120.8(3) . .
C2 C3 H3 119.6 . .
C4 C3 H3 119.6 . .
N1 C4 C3 120.9(3) . .
N1 C4 C5 120.3(3) . .
C3 C4 C5 118.8(2) . .
C6 C5 C4 120.2(3) . .
C6 C5 H5 119.9 . .
C4 C5 H5 119.9 . .
C5 C6 C1 120.1(3) . .
C5 C6 H6 119.9 . .
C1 C6 H6 119.9 . .
N3 C7 N4 127.0(3) . .
N3 C7 N2 118.4(3) . .
N4 C7 N2 114.6(3) . .
N4 C8 C9 122.2(4) . .
N4 C8 H8 118.9 . .
C9 C8 H8 118.9 . .
C10 C9 C8 118.1(3) . .
C10 C9 H9 120.9 . .
C8 C9 H9 120.9 . .
N3 C10 C9 120.9(3) . .
N3 C10 C11 115.9(3) . .
C9 C10 C11 123.2(3) . .
C10 C11 H11A 109.5 . .
C10 C11 H11B 109.5 . .
H11A C11 H11B 109.5 . .
C10 C11 H11C 109.5 . .
H11A C11 H11C 109.5 . .
H11B C11 H11C 109.5 . .
C13 C12 C17 120.0(3) . .
C13 C12 S2 119.2(2) . .
C17 C12 S2 120.9(2) . .
C14 C13 C12 120.1(3) . .
C14 C13 H13 120.0 . .
C12 C13 H13 120.0 . .
C13 C14 C15 120.5(3) . .
C13 C14 H14 119.8 . .
C15 C14 H14 119.8 . .
N5 C15 C16 120.3(3) . .
N5 C15 C14 120.8(3) . .
C16 C15 C14 118.9(3) . .
C17 C16 C15 120.6(3) . .
C17 C16 H16 119.7 . .
C15 C16 H16 119.7 . .
C16 C17 C12 120.0(3) . .
C16 C17 H17 120.0 . .
C12 C17 H17 120.0 . .
N7 C18 N8 127.6(3) . .
N7 C18 N6 118.6(3) . .
N8 C18 N6 113.8(3) . .
N8 C19 C20 123.4(4) . .
N8 C19 H19 118.3 . .
C20 C19 H19 118.3 . .
C19 C20 C21 117.4(4) . .
C19 C20 H20 121.3 . .
C21 C20 H20 121.3 . .
N7 C21 C20 120.7(3) . .
N7 C21 C22 116.4(3) . .
C20 C21 C22 123.0(3) . .
C21 C22 H22A 109.5 . .
C21 C22 H22B 109.5 . .
H22A C22 H22B 109.5 . .
C21 C22 H22C 109.5 . .
H22A C22 H22C 109.5 . .
H22B C22 H22C 109.5 . .
loop_
_geom_bond_atom_site_label_1
_geom_bond_atom_site_label_2
_geom_bond_distance
_geom_bond_site_symmetry_2
S1 O1 1.430(2) .
S1 O2 1.433(2) .
S1 N2 1.652(3) .
S1 C1 1.736(3) .
S2 O4 1.432(2) .
S2 O3 1.436(2) .
S2 N6 1.648(3) .
S2 C12 1.732(3) .
N1 C4 1.361(4) .
N1 H1N1 0.84(4) .
N1 H2N1 0.85(5) .
N2 C7 1.388(4) .
N2 H1N2 0.82(4) .
N3 C7 1.331(4) .
N3 C10 1.348(4) .
N4 C7 1.333(5) .
N4 C8 1.343(5) .
N5 C15 1.363(4) .
N5 H5A 0.8600 .
N5 H5B 0.8600 .
N6 C18 1.390(4) .
N6 H1N6 0.90(6) .
N7 C18 1.323(4) .
N7 C21 1.342(4) .
N8 C19 1.332(5) .
N8 C18 1.340(5) .
C1 C6 1.394(4) .
C1 C2 1.398(4) .
C2 C3 1.377(4) .
C2 H2 0.9300 .
C3 C4 1.405(4) .
C3 H3 0.9300 .
C4 C5 1.414(4) .
C5 C6 1.378(4) .
C5 H5 0.9300 .
C6 H6 0.9300 .
C8 C9 1.374(5) .
C8 H8 0.9300 .
C9 C10 1.371(6) .
C9 H9 0.9300 .
C10 C11 1.493(5) .
C11 H11A 0.9600 .
C11 H11B 0.9600 .
C11 H11C 0.9600 .
C12 C13 1.392(4) .
C12 C17 1.396(4) .
C13 C14 1.379(4) .
C13 H13 0.9300 .
C14 C15 1.405(4) .
C14 H14 0.9300 .
C15 C16 1.402(4) .
C16 C17 1.377(4) .
C16 H16 0.9300 .
C17 H17 0.9300 .
C19 C20 1.372(6) .
C19 H19 0.9300 .
C20 C21 1.386(6) .
C20 H20 0.9300 .
C21 C22 1.493(5) .
C22 H22A 0.9600 .
C22 H22B 0.9600 .
C22 H22C 0.9600 .
loop_
_geom_hbond_atom_site_label_D
_geom_hbond_atom_site_label_H
_geom_hbond_atom_site_label_A
_geom_hbond_distance_DH
_geom_hbond_distance_HA
_geom_hbond_distance_DA
_geom_hbond_angle_DHA
_geom_hbond_site_symmetry_A
N5 H5B O4 0.86 2.29 3.075(4) 152.0 1_545
N1 H1N1 O4 0.84(4) 2.49(4) 3.234(4) 147(3) 4_654
N1 H2N1 O1 0.85(5) 2.23(4) 3.038(4) 158(4) 1_565
N2 H1N2 N8 0.82(4) 2.10(4) 2.920(4) 172(4) .
N6 H1N6 N4 0.90(6) 2.01(6) 2.907(4) 177(5) .
loop_
_geom_torsion_atom_site_label_1
_geom_torsion_atom_site_label_2
_geom_torsion_atom_site_label_3
_geom_torsion_atom_site_label_4
_geom_torsion
_geom_torsion_site_symmetry_1
_geom_torsion_site_symmetry_2
_geom_torsion_site_symmetry_3
_geom_torsion_site_symmetry_4
O1 S1 N2 C7 61.2(3) . . . .
O2 S1 N2 C7 -171.8(3) . . . .
C1 S1 N2 C7 -56.7(3) . . . .
O4 S2 N6 C18 -58.1(3) . . . .
O3 S2 N6 C18 175.1(3) . . . .
C12 S2 N6 C18 59.9(3) . . . .
O1 S1 C1 C6 162.3(3) . . . .
O2 S1 C1 C6 30.1(3) . . . .
N2 S1 C1 C6 -79.9(3) . . . .
O1 S1 C1 C2 -18.2(3) . . . .
O2 S1 C1 C2 -150.5(3) . . . .
N2 S1 C1 C2 99.5(3) . . . .
C6 C1 C2 C3 0.2(5) . . . .
S1 C1 C2 C3 -179.2(3) . . . .
C1 C2 C3 C4 -0.9(5) . . . .
C2 C3 C4 N1 179.5(3) . . . .
C2 C3 C4 C5 1.2(5) . . . .
N1 C4 C5 C6 -179.1(3) . . . .
C3 C4 C5 C6 -0.8(5) . . . .
C4 C5 C6 C1 0.1(5) . . . .
C2 C1 C6 C5 0.2(5) . . . .
S1 C1 C6 C5 179.6(3) . . . .
C10 N3 C7 N4 -0.2(5) . . . .
C10 N3 C7 N2 -179.1(3) . . . .
C8 N4 C7 N3 -1.2(6) . . . .
C8 N4 C7 N2 177.8(4) . . . .
S1 N2 C7 N3 -16.9(4) . . . .
S1 N2 C7 N4 164.1(3) . . . .
C7 N4 C8 C9 1.1(7) . . . .
N4 C8 C9 C10 0.3(8) . . . .
C7 N3 C10 C9 1.6(5) . . . .
C7 N3 C10 C11 -179.0(3) . . . .
C8 C9 C10 N3 -1.7(7) . . . .
C8 C9 C10 C11 179.0(4) . . . .
O4 S2 C12 C13 -157.5(3) . . . .
O3 S2 C12 C13 -26.1(3) . . . .
N6 S2 C12 C13 84.2(3) . . . .
O4 S2 C12 C17 22.6(3) . . . .
O3 S2 C12 C17 154.0(3) . . . .
N6 S2 C12 C17 -95.8(3) . . . .
C17 C12 C13 C14 0.3(5) . . . .
S2 C12 C13 C14 -179.7(3) . . . .
C12 C13 C14 C15 -0.1(6) . . . .
C13 C14 C15 N5 179.2(4) . . . .
C13 C14 C15 C16 0.2(5) . . . .
N5 C15 C16 C17 -179.4(3) . . . .
C14 C15 C16 C17 -0.4(5) . . . .
C15 C16 C17 C12 0.6(5) . . . .
C13 C12 C17 C16 -0.5(5) . . . .
S2 C12 C17 C16 179.4(3) . . . .
C21 N7 C18 N8 -1.3(5) . . . .
C21 N7 C18 N6 178.8(3) . . . .
C19 N8 C18 N7 2.5(6) . . . .
C19 N8 C18 N6 -177.6(4) . . . .
S2 N6 C18 N7 13.3(4) . . . .
S2 N6 C18 N8 -166.7(3) . . . .
C18 N8 C19 C20 -0.9(7) . . . .
N8 C19 C20 C21 -1.5(8) . . . .
C18 N7 C21 C20 -1.5(5) . . . .
C18 N7 C21 C22 178.9(3) . . . .
C19 C20 C21 N7 2.8(7) . . . .
C19 C20 C21 C22 -177.7(4) . . . .
