#------------------------------------------------------------------------------
#$Date: 2017-09-28 15:45:19 +0300 (Thu, 28 Sep 2017) $
#$Revision: 201414 $
#$URL: file:///home/coder/svn-repositories/cod/cif/1/54/74/1547412.cif $
#------------------------------------------------------------------------------
#
# This file is available in the Crystallography Open Database (COD),
# http://www.crystallography.net/
#
# All data on this site have been placed in the public domain by the
# contributors.
#
data_1547412
loop_
_publ_author_name
'Anuradha R. Pallipurath'
'Jonathan M. Skelton'
'Mark R. Warren'
'Naghmeh Kamali'
'Patrick McArdle'
'Andrea Erxleben'
_publ_section_title
;
 Sulfamerazine: Understanding the Influence of Slip Planes in the
 Polymorphic Phase Transformation through X-Ray Crystallographic Studies
 and ab Initio Lattice Dynamics
;
_journal_name_full               'Molecular Pharmaceutics'
_journal_page_first              3735
_journal_page_last               3748
_journal_paper_doi               10.1021/acs.molpharmaceut.5b00504
_journal_volume                  12
_journal_year                    2015
_chemical_absolute_configuration ad
_chemical_formula_moiety         'C11 H12 N4 O2 S'
_chemical_formula_sum            'C11 H12 N4 O2 S'
_chemical_formula_weight         264.31
_chemical_name_common            Sulfamerazine
_chemical_name_systematic        4-amino-N-(4-methylpyrimidin-2-yl)
_space_group_crystal_system      orthorhombic
_space_group_IT_number           33
_space_group_name_Hall           'P 2c -2n'
_space_group_name_H-M_alt        'P n a 21'
_symmetry_space_group_name_Hall  'P 2c -2n'
_symmetry_space_group_name_H-M   'P n a 21'
_atom_sites_solution_hydrogens   mixed
_cell_angle_alpha                90
_cell_angle_beta                 90
_cell_angle_gamma                90
_cell_formula_units_Z            8
_cell_length_a                   14.4902(9)
_cell_length_b                   8.2249(6)
_cell_length_c                   22.0106(14)
_cell_measurement_reflns_used    1876
_cell_measurement_temperature    293.0(2)
_cell_measurement_theta_max      26.9580
_cell_measurement_theta_min      3.8590
_cell_volume                     2623.2(3)
_computing_cell_refinement
;
'Thu Dec 11 01:21:55 2014'
;
_computing_data_collection
;
'Thu Dec 11 01:21:55 2014'
;
_computing_data_reduction
;
'Thu Dec 11 01:21:55 2014'
;
_computing_molecular_graphics    OSCAIL
_computing_structure_refinement  'SHELXL-2014/7 (Sheldrick, 2014)'
_computing_structure_solution    SHELXT
_diffrn_ambient_temperature      293.0(2)
_diffrn_detector_area_resol_mean 16.1048
_diffrn_measured_fraction_theta_full 0.998
_diffrn_measured_fraction_theta_max 0.863
_diffrn_measurement_device_type  'Xcalibur, Sapphire3'
_diffrn_measurement_method       '\w scans'
_diffrn_radiation_type           MoK\a
_diffrn_radiation_wavelength     0.71073
_diffrn_reflns_av_R_equivalents  0.0254
_diffrn_reflns_av_unetI/netI     0.0657
_diffrn_reflns_Laue_measured_fraction_full 0.998
_diffrn_reflns_Laue_measured_fraction_max 0.863
_diffrn_reflns_limit_h_max       14
_diffrn_reflns_limit_h_min       -19
_diffrn_reflns_limit_k_max       10
_diffrn_reflns_limit_k_min       -11
_diffrn_reflns_limit_l_max       25
_diffrn_reflns_limit_l_min       -29
_diffrn_reflns_number            7706
_diffrn_reflns_point_group_measured_fraction_full 0.816
_diffrn_reflns_point_group_measured_fraction_max 0.679
_diffrn_reflns_theta_full        25.242
_diffrn_reflns_theta_max         29.116
_diffrn_reflns_theta_min         3.367
_diffrn_source                   'Enhance (Mo) X-ray Source'
_exptl_absorpt_coefficient_mu    0.247
_exptl_absorpt_correction_T_max  1.00000
_exptl_absorpt_correction_T_min  0.89972
_exptl_absorpt_correction_type   multi-scan
_exptl_absorpt_process_details
;
'Thu Dec 11 01:21:55 2014'
;
_exptl_crystal_colour            Colourless
_exptl_crystal_density_diffrn    1.338
_exptl_crystal_description       Parallelepiped
_exptl_crystal_F_000             1104
_exptl_crystal_size_max          0.50
_exptl_crystal_size_mid          0.40
_exptl_crystal_size_min          0.20
_refine_diff_density_max         0.264
_refine_diff_density_min         -0.328
_refine_diff_density_rms         0.057
_refine_ls_abs_structure_details
;
 Flack x determined using 941 quotients [(I+)-(I-)]/[(I+)+(I-)]
 (Parsons, Flack and Wagner, Acta Cryst. B69 (2013) 249-259).
;
_refine_ls_abs_structure_Flack   0.02(7)
_refine_ls_extinction_coef       .
_refine_ls_extinction_method     none
_refine_ls_goodness_of_fit_ref   0.950
_refine_ls_hydrogen_treatment    mixed
_refine_ls_matrix_type           full
_refine_ls_number_parameters     343
_refine_ls_number_reflns         4785
_refine_ls_number_restraints     5
_refine_ls_restrained_S_all      0.949
_refine_ls_R_factor_all          0.0773
_refine_ls_R_factor_gt           0.0487
_refine_ls_shift/su_max          0.000
_refine_ls_shift/su_mean         0.000
_refine_ls_structure_factor_coef Fsqd
_refine_ls_weighting_details
'w=1/[\s^2^(Fo^2^)+(0.0366P)^2^] where P=(Fo^2^+2Fc^2^)/3'
_refine_ls_weighting_scheme      calc
_refine_ls_wR_factor_gt          0.0926
_refine_ls_wR_factor_ref         0.1110
_reflns_Friedel_coverage         0.535
_reflns_Friedel_fraction_full    0.625
_reflns_Friedel_fraction_max     0.485
_reflns_number_gt                3259
_reflns_number_total             4785
_reflns_threshold_expression     'I > 2\s(I)'
_cod_data_source_file            Exp_Form-I2FInHouse_Form-I_RT.cif
_cod_data_source_block           smz_f1_rt2
_cod_database_code               1547412
_shelx_space_group_comment
;
The symmetry employed for this shelxl refinement is uniquely defined
by the following loop, which should always be used as a source of
symmetry information in preference to the above space-group names.
They are only intended as comments.
;
_shelxl_version_number           2014/6
_shelx_res_file
;
TITL smz_f1_rt2_a.res in Pna2(1)
REM Old TITL smz_f1_rt2 in Pnma
REM SHELXT solution in Pna2(1)
REM R1 0.129,  Rweak 0.194,  Alpha 0.008,  Orientation a'=-a, b'=c, c'=b
REM Flack x =  0.018 ( 0.070 ) from Parsons' quotients
REM Formula found by SHELXT:  C25 N4 O5 S2
CELL  0.71073  14.4902   8.2249  22.0106   90.000   90.000   90.000
ZERR    8.000   0.0009   0.0006   0.0014    0.000    0.000    0.000
REM SG 33 4 4 Pna21 PGmm2 Orthorhombic
LATT -1
REM SG  ASUN  1  .5 .5 1.
REM SG  ORGN  on 2(1)
SYMM -X,-Y,0.5+Z
SYMM 0.5+X,0.5-Y,Z
SYMM 0.5-X,0.5+Y,0.5+Z
SFAC C H N O S
UNIT 88 96 32 16 8
FMAP 2
PLAN -32
BOND $H
L.S. 12
ACTA
CONF
HTAB
LIST 4
DFIX .89 .02 N1 H1N1 N1 H2N1 N2 H1N2 N6 H1N6
WGHT    0.036600
FVAR       0.35522
S1    5    0.647330    0.496752    0.344652    11.00000    0.03705    0.04349 =
         0.03994    0.00349   -0.00202   -0.00252
S2    5    0.577736    0.494690    0.652177    11.00000    0.03507    0.04579 =
         0.03740    0.00430   -0.00256   -0.00246
O1    4    0.690196    0.372565    0.308964    11.00000    0.05492    0.04420 =
         0.05857   -0.00842   -0.00115   -0.00650
O2    4    0.550160    0.523068    0.337852    11.00000    0.03409    0.06875 =
         0.05138    0.00991   -0.00715   -0.00836
O3    4    0.674587    0.466245    0.658294    11.00000    0.03724    0.06530 =
         0.04972    0.01094   -0.00845   -0.00133
O4    4    0.535600    0.622145    0.686327    11.00000    0.05608    0.04402 =
         0.04895   -0.00775    0.00005    0.00065
N1    3    0.843202    1.115412    0.312474    11.00000    0.05200    0.04534 =
         0.08306   -0.01060    0.02334   -0.00390
N2    3    0.656862    0.449935    0.417712    11.00000    0.02960    0.05977 =
         0.03960    0.01201    0.00259    0.00167
N3    3    0.815257    0.410683    0.417948    11.00000    0.04140    0.04656 =
         0.05011    0.01071    0.00119    0.00342
N4    3    0.728400    0.426534    0.509544    11.00000    0.04234    0.09610 =
         0.03898    0.00955   -0.00243    0.01408
N5    3    0.381047   -0.119630    0.696675    11.00000    0.06667    0.04190 =
         0.12772   -0.00623    0.03366   -0.01076
AFIX  93
H5A   2    0.408750   -0.210712    0.690706    11.00000   -1.30000
H5B   2    0.324717   -0.118561    0.708974    11.00000   -1.30000
AFIX   0
N6    3    0.567865    0.535479    0.579250    11.00000    0.03419    0.06884 =
         0.03837    0.01531    0.00167    0.00644
N7    3    0.410450    0.584341    0.579766    11.00000    0.04177    0.05421 =
         0.04834    0.00262    0.00099    0.00692
N8    3    0.496283    0.566109    0.487495    11.00000    0.04715    0.09335 =
         0.04334    0.00561   -0.00028    0.01625
C1    1    0.706458    0.678157    0.334451    11.00000    0.03620    0.03830 =
         0.03452    0.00223    0.00293    0.00534
C2    1    0.795123    0.681099    0.311085    11.00000    0.03541    0.04603 =
         0.03450    0.00009    0.00037    0.00601
AFIX  43
H2    2    0.824096    0.584210    0.300568    11.00000   -1.30000
AFIX   0
C3    1    0.840355    0.825300    0.303367    11.00000    0.03525    0.04949 =
         0.03513   -0.00162    0.00702   -0.00142
AFIX  43
H3    2    0.899987    0.825568    0.287743    11.00000   -1.30000
AFIX   0
C4    1    0.797919    0.973139    0.318734    11.00000    0.04204    0.04257 =
         0.03684   -0.00277   -0.00072   -0.00106
C5    1    0.708897    0.967542    0.342833    11.00000    0.04752    0.03874 =
         0.05559   -0.00715    0.01330    0.00320
AFIX  43
H5    2    0.680126    1.063833    0.354315    11.00000   -1.30000
AFIX   0
C6    1    0.663150    0.823634    0.349909    11.00000    0.03841    0.04738 =
         0.04845    0.00074    0.00924    0.00325
AFIX  43
H6    2    0.603212    0.822730    0.365014    11.00000   -1.30000
AFIX   0
C7    1    0.737559    0.429768    0.449212    11.00000    0.03643    0.04539 =
         0.04373    0.00773    0.00285    0.00220
C8    1    0.805825    0.399672    0.540796    11.00000    0.05018    0.14354 =
         0.05018    0.00314   -0.00812    0.02470
AFIX  43
H8    2    0.802510    0.392441    0.582905    11.00000   -1.30000
AFIX   0
C9    1    0.890005    0.382342    0.513219    11.00000    0.03818    0.12950 =
         0.05911    0.00177   -0.01029    0.02279
AFIX  43
H9    2    0.943404    0.366756    0.535925    11.00000   -1.30000
AFIX   0
C10   1    0.892873    0.388822    0.450397    11.00000    0.03930    0.05940 =
         0.06655    0.00353   -0.00451    0.00686
C11   1    0.980022    0.373068    0.414877    11.00000    0.05182    0.09422 =
         0.09381   -0.00627    0.00565    0.01062
AFIX 137
H11A  2    0.978580    0.274149    0.391745    11.00000   -1.30000
H11B  2    1.031656    0.370893    0.442193    11.00000   -1.30000
H11C  2    0.985947    0.464017    0.387821    11.00000   -1.30000
AFIX   0
C12   1    0.518781    0.314174    0.665568    11.00000    0.03584    0.03808 =
         0.04089    0.00386   -0.00145   -0.00112
C13   1    0.564326    0.168709    0.655829    11.00000    0.03744    0.04516 =
         0.07081   -0.00741    0.01132    0.00495
AFIX  43
H13   2    0.625092    0.168047    0.642233    11.00000   -1.30000
AFIX   0
C14   1    0.518088    0.023618    0.666628    11.00000    0.04648    0.04540 =
         0.08041   -0.00165    0.01456    0.01118
AFIX  43
H14   2    0.548333   -0.074753    0.660500    11.00000   -1.30000
AFIX   0
C15   1    0.426754    0.024080    0.686570    11.00000    0.05689    0.04399 =
         0.04750   -0.00443    0.00368   -0.00550
C16   1    0.382210    0.172220    0.696581    11.00000    0.03820    0.04760 =
         0.04296   -0.00678    0.00612   -0.00426
AFIX  43
H16   2    0.321357    0.173876    0.709995    11.00000   -1.30000
AFIX   0
C17   1    0.428604    0.315880    0.686545    11.00000    0.03841    0.03805 =
         0.03808   -0.00475    0.00189    0.00208
AFIX  43
H17   2    0.399274    0.414520    0.693880    11.00000   -1.30000
AFIX   0
C18   1    0.487237    0.563820    0.547952    11.00000    0.03325    0.04629 =
         0.04598    0.00966   -0.00419    0.00194
C19   1    0.419446    0.598041    0.457364    11.00000    0.06431    0.15933 =
         0.04644    0.01137   -0.01182    0.02727
AFIX  43
H19   2    0.421736    0.601693    0.415160    11.00000   -1.30000
AFIX   0
C20   1    0.337137    0.625814    0.485323    11.00000    0.04784    0.13505 =
         0.07074   -0.00791   -0.01138    0.03523
AFIX  43
H20   2    0.284712    0.651631    0.462939    11.00000   -1.30000
AFIX   0
C21   1    0.333764    0.614622    0.547438    11.00000    0.04483    0.06277 =
         0.06217   -0.00404    0.00405    0.00963
C22   1    0.245541    0.635304    0.582033    11.00000    0.03732    0.12030 =
         0.09349   -0.00113    0.00354    0.01468
AFIX 137
H22A  2    0.200484    0.559565    0.567151    11.00000   -1.30000
H22B  2    0.223088    0.744192    0.576722    11.00000   -1.30000
H22C  2    0.256499    0.615412    0.624400    11.00000   -1.30000
AFIX   0
H1N1  2    0.895346    1.112744    0.292541    11.00000    0.05100
H2N1  2    0.804972    1.199652    0.313785    11.00000    0.05348
H1N2  2    0.608528    0.485612    0.439655    11.00000    0.05482
H1N6  2    0.616316    0.496020    0.557721    11.00000    0.08953
HKLF 4
REM  smz_f1_rt2_a.res in Pna2(1)
REM R1 =  0.0487 for    3259 Fo > 4sig(Fo)  and  0.0773 for all    4785 data
REM    343 parameters refined using      5 restraints
END
WGHT      0.0298      0.0000
REM Instructions for potential hydrogen bonds
EQIV $1 x, y-1, z
HTAB N5 O4_$1
HTAB C8 O3
HTAB C14 O4_$1
HTAB C19 O2
EQIV $2 -x+3/2, y+1/2, z-1/2
HTAB N1 O4_$2
EQIV $3 x, y+1, z
HTAB N1 O1_$3
HTAB N2 N8
HTAB N6 N4
REM Highest difference peak  0.264,  deepest hole -0.328,  1-sigma level  0.057
Q1    1   0.5194  0.3727  0.3385  11.00000  0.05    0.21
Q2    1   0.5397  0.6558  0.3417  11.00000  0.05    0.20
Q3    1   0.7005  0.3789  0.6536  11.00000  0.05    0.19
Q4    1   1.0422  0.2708  0.3468  11.00000  0.05    0.18
Q5    1   0.6799  0.3532  0.6226  11.00000  0.05    0.18
Q6    1   0.7885  0.2747  0.5767  11.00000  0.05    0.18
Q7    1   0.2237  0.4833  0.5999  11.00000  0.05    0.18
Q8    1   0.5454  0.7724  0.3756  11.00000  0.05    0.18
Q9    1   0.7423  0.2588  0.6266  11.00000  0.05    0.17
Q10   1   1.0382  0.2505  0.3653  11.00000  0.05    0.17
Q11   1   0.5325  0.4730  0.3808  11.00000  0.05    0.17
Q12   1   0.9821  0.2012  0.3912  11.00000  0.05    0.17
Q13   1   0.2598  0.7450  0.6680  11.00000  0.05    0.17
Q14   1   0.5804  0.7269  0.6204  11.00000  0.05    0.16
Q15   1   0.6754  0.3654  0.6755  11.00000  0.05    0.16
Q16   1   0.6858  0.2579  0.6605  11.00000  0.05    0.16
Q17   1   0.2468  0.3898  0.5940  11.00000  0.05    0.16
Q18   1   0.6656  0.6749  0.6804  11.00000  0.05    0.16
Q19   1   0.9858  0.1445  0.4114  11.00000  0.05    0.16
Q20   1   0.5630  0.3737  0.6689  11.00000  0.05    0.16
Q21   1   0.6554  0.6196  0.3231  11.00000  0.05    0.16
Q22   1   0.4384  0.7504  0.4261  11.00000  0.05    0.15
Q23   1   0.5389  0.8250  0.3420  11.00000  0.05    0.15
Q24   1   0.6684  0.5114  0.6595  11.00000  0.05    0.15
Q25   1   0.7758  0.3875  0.6619  11.00000  0.05    0.15
Q26   1   0.3156  0.6267  0.5687  11.00000  0.05    0.15
Q27   1   0.2465  0.6835  0.6565  11.00000  0.05    0.15
Q28   1   0.4977  0.6465  0.3899  11.00000  0.05    0.15
Q29   1   0.7978  0.4730  0.5918  11.00000  0.05    0.15
Q30   1   0.7034  0.2282  0.5719  11.00000  0.05    0.15
Q31   1   0.5988  0.3938  0.2304  11.00000  0.05    0.15
Q32   1   0.7076  0.5937  0.6585  11.00000  0.05    0.15
;
_shelx_res_checksum              34787
_shelx_hkl_file
;
   0   0   4 1989.34   21.45
   0   0  -4 1959.63   16.30
   0   0  -4 2022.67   21.26
   0   0   5    1.58    1.22
   0   0  -5    3.77    2.00
   0   0   5    1.35    1.16
   0   0   6 9716.39   43.58
   0   0  -6 9999.00   44.70
   0   0   6 9620.93   57.88
   0   0  -6 9647.40   57.13
   0   0   7   22.56    3.44
   0   0  -7   12.80    2.44
   0   0   7   10.57    2.68
   0   0   8 6715.19   42.20
   0   0  -8 7015.81   43.30
   0   0  -8 6871.24   55.74
   0   0   8 6822.65   56.30
   0   0   9   32.14    4.52
   0   0  -9   32.13    4.03
   0   0 -10  251.27   11.92
   0   0 -10  251.57    9.25
   0   0  10  250.94   12.07
   0   0 -11    2.46    1.12
   0   0 -11    3.93    2.53
   0   0 -12 1574.71   33.01
   0   0 -12 1552.00   25.16
   0   0 -13   23.40    3.40
   0   0 -13   21.59    5.69
   0   0 -14   42.67    6.00
   0   0 -14   39.79    4.30
   0   0 -15    1.14    1.18
   0   0 -15    3.07    1.57
   0   0 -16  129.61    8.42
   0   0 -16  134.93   11.34
   0   0 -17    6.09    2.38
   0   0 -17    3.43    2.12
   0   0 -18   28.57    5.61
   0   0 -19    2.60    2.13
   0   0 -20  222.76   16.64
   0   0 -21    7.82    3.69
   0   0 -22   19.68    5.37
   0   0 -23   -1.24    1.93
   0   0 -24   -1.81    1.35
   0   0 -25    2.71    2.74
   0   0 -26  184.37   18.10
   0   0 -27    7.47    3.88
   0   0 -28   51.31   10.13
   0   0 -29    4.05    3.42
   1   0   4    0.59    0.45
   1   0  -4    2.90    1.27
   1   0  -4    0.57    0.47
  -1   0   4   -0.05    0.29
  -1   0  -4    0.36    0.39
  -1   0   5   -0.64    0.79
   1   0  -5    3.63    1.51
  -1   0  -5   -0.47    0.51
   1   0  -5    4.42    1.73
   1   0   5    0.67    0.58
  -1   0  -6    1.03    0.39
  -1   0  -6   -0.34    0.43
   1   0   6    1.11    0.70
  -1   0   6   -2.44    1.15
   1   0  -6    1.33    1.01
   1   0  -6   -0.31    0.46
   1   0   7   -0.19    0.53
  -1   0  -7   -0.08    0.44
  -1   0   7   -0.04    0.28
  -1   0   7   -0.06    0.33
   1   0  -7    1.75    1.32
   1   0  -7   -0.32    0.57
  -1   0  -7   -0.28    0.29
  -1   0   8   -0.46    0.66
  -1   0  -8   -0.49    0.92
  -1   0   8   -0.30    0.71
   1   0  -8    0.03    0.50
   1   0  -8    0.25    0.72
  -1   0  -8    0.24    0.46
   1   0   8    0.35    0.35
  -1   0   9    0.18    0.29
   1   0  -9    0.01    0.91
  -1   0   9   -0.21    0.53
   1   0   9   -0.11    0.64
  -1   0  -9   -1.16    1.34
   1   0  -9    0.72    0.71
  -1   0  -9    0.15    0.44
  -1   0  10    0.07    0.26
   1   0 -10   -0.13    0.43
  -1   0 -10   -0.60    0.94
  -1   0 -10   -0.12    0.17
   1   0 -10    1.64    1.18
  -1   0  10   -0.14    0.31
  -1   0 -11   -0.84    0.84
   1   0 -11   -0.28    0.36
  -1   0  11   -0.63    0.87
   1   0 -11    1.81    1.35
  -1   0 -11   -0.57    1.23
   1   0 -12   -0.31    1.07
   1   0 -12    0.78    1.05
  -1   0 -12   -1.55    1.19
  -1   0 -12   -0.86    1.10
  -1   0  12    0.38    0.32
  -1   0 -13   -0.34    0.55
  -1   0 -13   -0.92    0.89
  -1   0  13   -1.14    1.27
   1   0 -13    0.70    0.43
  -1   0 -14   -0.56    0.69
  -1   0 -14    0.76    0.62
  -1   0  14   -0.30    0.73
   1   0 -14    0.11    0.63
  -1   0 -15   -0.05    0.30
  -1   0 -15   -1.43    1.52
   1   0 -15   -0.80    0.92
  -1   0 -16    0.43    0.73
  -1   0 -16   -1.14    1.02
   1   0 -16    0.04    1.21
  -1   0 -17   -0.19    1.03
  -1   0 -17    0.80    0.93
   1   0 -17   -0.13    1.07
   1   0 -18    0.41    0.77
  -1   0 -18   -1.30    1.77
  -1   0 -19   -1.29    1.66
   1   0 -19   -1.25    1.10
   1   0 -20   -0.42    1.52
  -1   0 -20   -1.69    2.29
  -1   0 -21    0.32    1.04
   1   0 -21   -2.40    2.42
   1   0 -22   -0.30    1.50
  -1   0 -22    1.12    1.41
  -1   0 -23   -0.38    0.52
   1   0 -23   -1.44    1.87
  -1   0 -24    2.51    2.49
   1   0 -24   -2.68    2.39
  -1   0 -25   -1.13    0.87
   1   0 -25    0.41    0.65
   1   0 -26    1.99    2.47
  -1   0 -26    1.23    2.04
   1   0 -27   -0.44    1.23
   1   0 -28   -1.12    2.10
   1   0 -29    4.48    3.35
   2   0  -2 2454.32   21.73
  -2   0   3 3333.47   28.48
  -2   0   4 4687.92   35.82
   2   0  -5 1132.24   18.40
  -2   0   5 1240.60   19.33
   2   0   5 1265.41   21.18
   2   0  -6  274.89    9.69
   2   0   6  282.02   10.76
  -2   0   6  286.58    9.83
   2   0   7 3969.40   42.66
   2   0  -7 3912.36   40.80
   2   0  -7 3792.70   37.01
  -2   0   7 3966.41   38.67
  -2   0   8  273.20   10.49
  -2   0  -8  285.06   11.87
   2   0  -8  269.43   10.50
   2   0  -8  271.36   11.28
   2   0   8  271.30   11.79
  -2   0  -9  882.66   22.40
   2   0   9  895.28   22.43
  -2   0   9  888.46   19.63
   2   0  -9  854.74   19.17
   2   0  -9  868.47   21.79
  -2   0 -10 1264.44   27.95
  -2   0  10 1259.52   24.29
   2   0 -10 1183.19   23.46
   2   0 -10 1233.70   27.23
  -2   0 -10 1216.07   18.47
   2   0 -11  165.30    9.07
  -2   0 -11  161.80    6.92
   2   0 -11  166.00   10.54
  -2   0 -11  166.10   10.81
  -2   0  11  160.80    8.89
  -2   0  12   26.76    3.81
   2   0 -12   24.71    4.17
  -2   0 -12   34.18    5.94
   2   0 -12   33.04    4.41
  -2   0 -12   25.30    2.80
  -2   0 -13 2092.50   41.01
   2   0 -13 2094.00   40.64
  -2   0 -13 2077.49   27.10
  -2   0  13 2058.60   34.53
   2   0 -13 1972.24   33.05
  -2   0  14   13.80    2.93
   2   0 -14   14.11    3.76
  -2   0 -14   15.03    2.59
  -2   0 -15  229.23    9.63
   2   0 -15  225.83   14.34
  -2   0 -15  224.97   14.58
  -2   0  15  232.45   12.11
  -2   0 -16   14.38    4.52
  -2   0  16   25.20    4.04
   2   0 -16   10.11    3.29
  -2   0 -16    9.79    2.17
  -2   0 -17  124.23   11.48
  -2   0 -17  117.70    7.40
   2   0 -17  120.85   11.27
  -2   0  17  119.69    9.16
  -2   0 -18    9.66    4.34
   2   0 -18    8.32    3.74
   2   0 -19  260.13   17.42
  -2   0 -19  247.09   17.43
  -2   0 -20   28.21    6.27
   2   0 -20   22.50    5.25
   2   0 -21   41.33    7.59
  -2   0 -21   42.37    7.66
   2   0 -22   16.81    4.82
   2   0 -23   67.68   10.04
   2   0 -24   24.75    6.37
   2   0 -25   28.21    6.73
   2   0 -26    2.11    1.66
   2   0 -27    7.21    3.52
   2   0 -28   13.15    4.83
   2   0 -29   13.00    4.95
  -3   0   0   -1.07    0.88
  -3   0   1    4.20    1.21
   3   0  -1    2.42    0.72
   3   0  -2    6.67    1.64
  -3   0   2    4.80    1.75
   3   0  -3    0.35    0.81
  -3   0   3   29.16    4.89
  -3   0   4   23.63    4.21
  -3   0   5    7.10    2.85
  -3   0   6    1.06    1.31
   3   0   6   -0.81    0.99
   3   0   7    0.55    0.25
  -3   0   7    1.18    1.09
   3   0   8    0.78    0.76
  -3   0   8    1.08    0.42
   3   0  -9   -0.28    0.67
  -3   0   9   -0.93    1.25
  -3   0  10   -1.09    1.16
   3   0 -10   -1.53    1.63
   3   0 -11   -0.72    1.20
  -3   0  11   -1.62    1.50
  -3   0 -12   -0.31    0.76
   3   0 -12   -0.04    1.41
  -3   0  12   -0.13    0.36
   3   0 -13    1.42    1.25
  -3   0 -13   -0.55    0.56
  -3   0  13   -0.64    1.01
   3   0 -14   -0.68    0.83
  -3   0 -14   -0.08    0.18
  -3   0  14    1.05    1.31
  -3   0  15    0.22    0.49
   3   0 -15   -1.16    1.69
  -3   0 -15   -0.47    0.16
  -3   0 -16    0.20    0.22
  -3   0  16   -0.51    1.01
   3   0 -16   -1.60    1.74
  -3   0 -17   -2.18    1.35
   3   0 -17   -0.46    1.63
  -3   0  17    0.27    0.90
  -3   0  18   -0.52    1.25
   3   0 -18    1.83    1.75
   3   0 -19    0.40    0.74
  -3   0  19   -1.25    1.23
   3   0 -20    0.28    1.15
  -3   0  20   -0.18    1.01
   3   0 -21    1.05    1.60
   3   0 -22    0.08    1.25
   3   0 -23   -2.18    1.92
   3   0 -24    1.72    1.59
   3   0 -25   -0.36    1.33
   3   0 -26   -0.44    1.49
   3   0 -27    2.03    2.15
   3   0 -28    0.31    0.64
   3   0 -29    1.40    1.64
  -4   0   0  339.29    8.96
   4   0  -1  283.89    8.56
  -4   0   1  296.55    8.60
  -4   0   2  508.16   11.95
   4   0  -2  505.46   12.22
   4   0  -3  795.91   16.26
   4   0  -4   69.80    5.13
  -4   0   4   77.97    6.55
   4   0  -5  199.60    9.32
  -4   0   5  204.61   10.18
  -4   0   6   70.05    6.27
  -4   0   7   33.31    4.90
  -4   0   8  127.12    8.57
  -4   0   9  577.38   18.74
  -4   0  10   37.15    4.64
  -4   0  11  561.10   19.39
   4   0 -11  563.47   20.20
   4   0 -12   44.18    5.74
  -4   0  12   44.20    5.49
  -4   0  13   49.82    5.75
   4   0 -13   51.45    6.53
   4   0 -14   93.93    9.10
  -4   0  14   91.50    8.51
  -4   0 -14   92.36    6.03
  -4   0  15  125.66   10.04
  -4   0 -15  120.57    6.96
   4   0 -15  123.32   10.85
   4   0 -16   66.19    8.08
  -4   0  16   67.47    7.58
  -4   0 -16   68.15    5.30
  -4   0  17  262.20   15.17
   4   0 -17  262.85   16.96
   4   0 -18   70.22    9.13
  -4   0  18   78.39    8.48
  -4   0  19   61.69    7.58
   4   0 -19   59.35    8.58
   4   0 -20   35.66    6.78
  -4   0  20   35.79    5.76
  -4   0  21   29.31    5.45
   4   0 -21   30.53    6.40
   4   0 -22   33.24    6.81
  -4   0  22   31.99    5.70
   4   0 -23   19.82    5.69
   4   0 -24    7.15    3.56
   4   0 -25    6.58    3.36
   4   0 -26   32.42    7.47
   4   0 -27   14.97    5.27
   4   0 -28    1.34    1.45
  -5   0   0   -1.03    0.82
  -5   0   1    0.82    0.90
  -5   0   2    0.96    1.13
   5   0  -2   -0.29    0.56
   5   0  -3    0.07    0.52
  -5   0   4   24.80    5.40
   5   0  -4    0.75    0.95
  -5   0   5   13.32    4.38
   5   0  -5    0.54    0.43
   5   0  -6    1.10    0.99
  -5   0   6    9.15    3.74
  -5   0   7    7.83    3.41
  -5   0   8    5.66    2.60
  -5   0   9    1.71    1.56
  -5   0  10    0.36    0.55
  -5   0  11    0.51    0.45
  -5   0  12   -3.23    2.51
  -5   0  13   -3.20    2.22
   5   0 -13   -0.67    1.14
   5   0 -14    0.81    1.02
  -5   0  14   -2.46    2.65
   5   0 -15   -1.29    1.45
  -5   0  15    1.62    1.20
  -5   0 -16   -0.22    0.57
  -5   0  16    1.16    1.80
   5   0 -16   -1.04    1.83
  -5   0  17    1.43    1.40
   5   0 -17   -0.32    1.71
  -5   0  18    2.20    1.73
   5   0 -18   -1.00    1.93
   5   0 -19    0.49    0.46
  -5   0  19    0.24    0.62
  -5   0  20   -0.78    0.97
   5   0 -20   -0.84    1.34
  -5   0  21   -1.81    1.80
   5   0 -21    1.58    1.62
  -5   0  22   -0.53    1.07
   5   0 -22   -0.05    1.29
   5   0 -23   -0.03    1.06
   5   0 -24    1.05    1.06
   5   0 -25   -2.74    2.36
   5   0 -26   -2.64    2.07
   5   0 -27    1.56    2.11
   5   0 -28   -1.11    1.72
  -6   0   0  262.46    9.75
  -6   0   1  747.49   16.81
  -6   0  -1  769.72   16.64
   6   0  -2 2250.27   30.30
  -6   0   2 2176.31   29.56
  -6   0   3  477.00   14.41
   6   0  -3  493.74   14.83
  -6   0   4  418.94   16.34
   6   0  -4  448.87   14.80
   6   0  -5  808.47   20.81
  -6   0   5  804.05   22.92
  -6   0   6  283.06   14.10
  -6   0   7   84.56    8.19
  -6   0   8   85.52    8.16
  -6   0   9  194.31   12.46
  -6   0  10  279.43   15.06
  -6   0  11   73.05    7.92
  -6   0  12   42.78    6.16
  -6   0  13   57.66    7.27
  -6   0  14  337.24   18.16
   6   0 -14  353.23   19.05
   6   0 -15  128.59   11.87
  -6   0  15  120.12   10.90
   6   0 -16  635.05   26.91
  -6   0  16  645.58   26.11
   6   0 -17   61.19    8.67
  -6   0  17   63.94    8.34
  -6   0  18    7.93    3.04
   6   0 -18    4.29    1.99
   6   0 -19    8.50    3.17
  -6   0  19    7.39    2.90
   6   0 -20    1.87    1.36
  -6   0  20    1.40    1.23
   6   0 -21   12.31    4.00
  -6   0  21   11.38    3.59
   6   0 -22   55.89    9.25
  -6   0  22   53.94    8.11
   6   0 -23    1.53    1.47
   6   0 -24   49.01    9.06
   6   0 -25   14.83    5.20
   6   0 -26    3.39    2.45
   6   0 -27   14.24    5.29
   6   0 -28   57.48   10.67
  -7   0   0    1.19    0.77
  -7   0   1    4.74    1.92
  -7   0  -1   -0.59    1.17
  -7   0   2    2.30    1.56
   7   0  -3   -0.71    0.90
  -7   0   3    1.06    1.33
  -7   0   4   23.59    5.99
   7   0  -4   -0.36    0.63
  -7   0   5   25.47    5.85
  -7   0   6    9.91    4.51
  -7   0   7    8.86    4.16
  -7   0   8    7.73    3.51
  -7   0   9    4.24    2.70
  -7   0  10    4.58    2.83
  -7   0  11    1.74    1.75
  -7   0  12    1.26    1.11
  -7   0  13   -0.85    1.01
  -7   0  14   -0.48    1.44
  -7   0  15   -2.95    2.71
   7   0 -15   -0.36    1.01
  -7   0  16   -3.22    2.41
   7   0 -16   -0.49    0.94
  -7   0  17   -1.77    1.85
   7   0 -17    0.34    0.52
  -7   0  18    1.85    1.61
   7   0 -18   -0.37    0.80
  -7   0  19   -1.41    1.12
   7   0 -19    0.17    1.21
   7   0 -20   -1.16    1.19
  -7   0  20    1.74    1.55
  -7   0  21   -1.97    1.96
   7   0 -21   -0.25    1.28
   7   0 -22   -0.82    2.16
  -7   0  22   -0.38    1.73
  -7   0  23   -1.47    1.61
   7   0 -23   -0.89    0.56
   7   0 -24    1.18    0.94
   7   0 -25   -0.35    0.59
   7   0 -26   -1.19    1.90
   7   0 -27   -0.53    0.89
  -8   0   0  535.39   16.22
  -8   0  -1   39.08    4.24
  -8   0   1   48.32    4.89
  -8   0   2  337.87   13.26
  -8   0  -2  329.02   12.72
   8   0  -3  616.44   18.63
  -8   0   3  606.58   18.30
  -8   0   4  409.54   18.44
  -8   0   5   41.87    7.06
  -8   0   6  217.27   13.86
  -8   0   7   19.82    5.60
  -8   0   8  300.26   17.05
  -8   0   9  494.16   22.05
  -8   0  10   62.79    8.22
  -8   0  11  183.72   13.82
  -8   0  12  221.66   15.54
  -8   0  13   44.36    7.07
  -8   0  14   34.89    6.29
  -8   0  15  104.85   11.16
  -8   0  16   11.05    3.05
   8   0 -16   12.77    4.24
   8   0 -17   79.63   10.29
  -8   0  17   74.99    9.68
   8   0 -18   67.44    9.67
  -8   0  18   59.33    8.83
  -8   0  19   31.69    6.56
   8   0 -19   31.43    6.79
   8   0 -20    2.96    2.05
  -8   0  20    0.46    0.63
   8   0 -21   24.07    6.28
  -8   0  21   25.73    5.90
   8   0 -22    9.10    3.97
  -8   0  22    4.98    2.68
  -8   0  23    1.20    1.38
   8   0 -23    0.21    1.41
   8   0 -24    5.66    3.14
   8   0 -25   13.46    5.04
   8   0 -26   24.57    6.88
   8   0 -27    9.77    4.47
  -9   0   0    2.19    1.68
  -9   0  -1    0.13    0.42
  -9   0   1    2.29    1.52
  -9   0   2    1.07    1.55
  -9   0  -2   -1.73    1.41
  -9   0   3    1.84    1.34
  -9   0   4   18.11    5.41
  -9   0   5   15.07    5.72
  -9   0   6   12.32    5.41
  -9   0   7   11.11    5.01
  -9   0   8    6.68    4.54
  -9   0   9   11.52    4.85
  -9   0  10    3.30    3.10
  -9   0  11    1.99    2.44
  -9   0  12    3.20    2.51
  -9   0  13   -1.03    1.57
  -9   0  14   -0.61    0.58
  -9   0  15   -2.22    2.72
  -9   0  16   -1.37    2.47
  -9   0  17   -3.51    2.85
   9   0 -17    2.44    2.42
   9   0 -18    0.53    1.63
  -9   0  18   -5.61    3.52
   9   0 -19    0.62    0.73
  -9   0  19    1.03    0.91
  -9   0  20    0.78    1.71
   9   0 -20    0.56    1.06
   9   0 -21    1.23    1.57
  -9   0  21    1.45    1.55
  -9   0  22   -0.75    1.45
   9   0 -22   -0.15    1.35
  -9   0  23   -0.19    0.60
   9   0 -23   -1.24    1.80
   9   0 -24   -0.86    1.35
   9   0 -25   -1.63    1.59
   9   0 -26    0.58    1.80
 -10   0   0    1.54    0.97
 -10   0   1   39.30    4.86
 -10   0  -1   36.23    4.71
 -10   0   2   77.41    7.08
 -10   0  -2   76.59    6.89
 -10   0   3  112.04    8.69
 -10   0  -3  107.21    8.15
 -10   0   3  130.09   12.15
 -10   0   4  142.80   13.01
 -10   0   5  111.08   11.45
 -10   0   6   35.68    7.33
 -10   0   7   64.80    8.92
 -10   0   8   91.67   10.69
 -10   0   9   91.39   10.56
 -10   0  10   46.57    7.71
 -10   0  11   84.34   10.52
 -10   0  12  110.57   12.04
 -10   0  13   93.72   11.35
 -10   0  14   45.95    7.87
 -10   0  15   82.66   10.65
 -10   0  16   31.81    6.76
 -10   0  17   75.52   10.59
  10   0 -18   71.29   10.62
 -10   0  18   59.32    9.52
  10   0 -19   26.53    6.54
 -10   0  19   25.47    6.24
 -10   0  20   21.75    5.95
  10   0 -20   16.00    5.17
  10   0 -21   45.29    8.89
 -10   0  21   42.30    8.36
 -10   0  22   12.72    4.85
  10   0 -22   16.17    5.41
  10   0 -23   28.01    7.17
 -10   0  23   24.66    6.62
  10   0 -24   16.49    5.81
  10   0 -25    3.31    2.30
  10   0 -26    3.81    2.91
 -11   0   0    0.60    1.21
 -11   0   1    0.31    0.54
 -11   0  -1    1.37    1.53
 -11   0   2    0.71    1.48
 -11   0  -2   -0.41    0.58
 -11   0  -3   -1.26    1.40
 -11   0   3    1.65    1.86
 -11   0   4   25.22    7.16
 -11   0  -4   -1.57    1.92
 -11   0   5   14.85    5.77
 -11   0   6    9.87    5.45
 -11   0   7   19.67    6.10
 -11   0   8    8.56    4.42
 -11   0   9    4.94    3.52
 -11   0  10    7.18    3.68
 -11   0  11    1.35    1.70
 -11   0  12   -1.07    1.43
 -11   0  13    0.45    1.62
 -11   0  14   -1.54    1.94
 -11   0  15   -1.99    1.89
 -11   0  16   -1.71    2.21
 -11   0  17   -3.68    2.59
 -11   0  18   -2.89    2.64
  11   0 -19   -0.11    1.31
 -11   0  19   -4.62    3.32
  11   0 -20    1.46    2.17
 -11   0  20    2.33    1.77
 -11   0  21    0.19    1.20
  11   0 -21   -1.85    1.49
  11   0 -22    1.39    1.67
 -11   0  22    2.57    2.27
  11   0 -23    0.91    1.51
 -11   0  23    2.41    2.39
  11   0 -24    1.92    2.07
  11   0 -25    2.56    2.23
 -12   0   0  231.26   13.25
 -12   0  -1  377.57   17.04
 -12   0   1  375.17   16.98
 -12   0   2  164.65   11.22
 -12   0  -2  170.65   11.46
 -12   0   2  179.23   15.05
 -12   0  -3    7.90    2.36
 -12   0   3   35.76    8.02
 -12   0   4   84.84   11.06
 -12   0  -4   52.81    6.34
 -12   0   5   99.10   11.83
 -12   0  -5   89.04    8.27
 -12   0   6   60.11    9.41
 -12   0   7   18.75    5.64
 -12   0   8   70.79   10.13
 -12   0   9   20.87    6.01
 -12   0  10  104.32   12.66
 -12   0  11   83.50   11.33
 -12   0  12   62.26   10.05
 -12   0  13  152.19   15.84
 -12   0  14   88.86   11.94
 -12   0  15    1.07    0.76
 -12   0  16   38.95    7.89
 -12   0  17   61.94   10.39
 -12   0  18   11.24    4.27
  12   0 -19   23.69    6.38
 -12   0  19   18.99    5.61
 -12   0  20    8.56    3.51
  12   0 -20   14.19    5.34
 -12   0  21    1.65    2.25
  12   0 -21    1.27    1.51
  12   0 -22   -0.40    0.59
 -12   0  22    2.74    2.12
  12   0 -23    2.29    2.67
 -12   0  23    0.46    0.43
  12   0 -24    3.41    2.44
 -13   0   0   26.11    7.40
 -13   0   0    3.63    1.92
 -13   0   1    6.51    2.71
 -13   0  -1    4.04    2.28
 -13   0   2    2.98    2.07
 -13   0  -2    2.24    2.09
 -13   0   3   26.79    6.99
 -13   0  -3    0.98    1.43
 -13   0   4   12.64    6.04
 -13   0  -4   -1.12    1.40
 -13   0  -5   -2.45    1.57
 -13   0   5    8.85    4.66
 -13   0  -6   -1.81    1.76
 -13   0   6   12.26    5.39
 -13   0   7    8.11    4.77
 -13   0   8    6.59    4.16
 -13   0   9    0.44    1.17
 -13   0  10    2.46    2.38
 -13   0  11    1.85    2.47
 -13   0  12    2.67    2.20
 -13   0  13   -0.81    1.62
 -13   0  14    1.02    1.15
 -13   0  15   -2.21    2.34
 -13   0  16   -3.95    2.96
 -13   0  17   -1.03    1.78
 -13   0  18   -3.15    2.97
 -13   0  19   -4.01    2.98
  13   0 -20   -0.56    1.88
 -13   0  20   -5.86    3.51
 -13   0  21    2.68    2.66
  13   0 -21   -2.35    2.20
  13   0 -22   -2.40    2.57
 -14   0   0   92.40   11.82
 -14   0   0   64.86    7.55
 -14   0   1   52.06    9.34
 -14   0   1   26.42    4.95
 -14   0  -1   24.72    4.60
 -14   0  -1   51.39    9.35
 -14   0   2   43.80    8.76
 -14   0  -2   20.56    4.16
 -14   0  -3   43.74    6.10
 -14   0   3   61.63   10.43
 -14   0   4   77.33   11.36
 -14   0  -4   77.28    8.28
 -14   0   5   43.46    8.87
 -14   0  -5   33.78    5.43
 -14   0  -6  105.51    9.97
 -14   0   6  117.61   13.97
 -14   0   7   65.34   10.39
 -14   0  -7   59.77    7.62
 -14   0   8   13.51    5.14
 -14   0   9   13.63    5.12
 -14   0  10   41.07    8.73
 -14   0  11    9.83    4.17
 -14   0  12   44.57    9.16
 -14   0  13   24.17    6.71
 -14   0  14   10.39    4.47
 -14   0  15   -1.89    2.14
 -14   0  16   18.10    6.06
 -14   0  17   -0.43    1.94
 -14   0  18   -4.01    3.09
 -14   0  19   -1.25    1.90
  14   0 -20   12.76    5.15
 -15   0   0   13.93    5.90
 -15   0  -1   27.54    7.38
 -15   0   1   12.12    5.58
 -15   0  -2   30.30    7.64
 -15   0   2    7.59    4.39
 -15   0   3    6.53    4.17
 -15   0  -3   17.56    6.25
 -15   0  -4   23.70    7.07
 -15   0   4    7.10    4.41
 -15   0   5    9.22    5.07
 -15   0   6   11.28    4.95
 -15   0   7    4.79    3.85
 -15   0   8   -0.11    1.85
 -15   0   9    4.83    2.93
 -15   0  10    0.77    1.56
 -15   0  11   -0.13    0.64
 -15   0  12   -0.59    1.82
 -15   0  13   -0.29    2.12
 -15   0  14   -0.50    1.67
 -15   0  15   -1.40    2.30
 -15   0  16   -2.77    2.86
 -16   0   0   14.68    6.03
 -16   0   1   21.71    6.63
 -16   0  -1   16.76    5.92
 -16   0  -2   67.78   10.80
 -16   0   2   61.31   10.57
 -16   0  -3   53.63    9.88
 -16   0   3   46.67    9.32
 -16   0  -4   27.93    7.54
 -16   0   4   32.34    8.00
 -16   0  -5   25.42    7.09
 -16   0   5   13.38    5.36
 -16   0  -6   20.95    6.42
 -16   0   6   14.04    5.42
 -16   0   7   42.56    9.10
 -16   0  -7   50.83    9.27
 -16   0  -8   28.74    7.14
 -16   0   8    7.12    4.35
 -16   0   9    9.75    4.24
 -16   0  -9   26.63    6.53
 -16   0  10    5.77    3.11
 -16   0 -10   29.49    6.82
 -16   0  11    9.63    4.72
 -16   0  12    3.89    3.04
 -16   0  13   53.11   10.74
 -17   0   0   12.02    5.18
 -17   0  -1    4.70    4.03
 -17   0   1    6.12    4.59
 -17   0   2    7.40    4.37
 -17   0  -2   13.85    5.63
 -17   0  -3   15.82    5.74
 -17   0   3    0.53    2.48
 -17   0   4   11.54    5.67
 -17   0  -4    9.29    4.65
 -17   0  -5   12.38    5.13
 -17   0   5    3.57    3.52
 -17   0   6    3.88    3.37
 -17   0  -6   12.12    5.03
 -17   0   7    0.15    1.67
 -17   0  -7   12.46    5.43
 -17   0   8    3.23    2.67
 -17   0  -8   12.23    5.28
 -17   0  -9   13.81    5.13
 -17   0   9    0.73    0.73
 -18   0   0   12.32    5.42
 -18   0  -1   33.02    8.15
 -18   0   1   28.06    7.58
 -18   0   2   23.89    7.20
 -18   0  -2   17.25    6.18
 -18   0  -3   44.21    9.52
 -18   0   3   38.12    9.29
 -18   0   4   31.70    8.45
 -18   0  -4   35.40    8.46
 -18   0  -5   44.14    9.11
 -18   0  -6   10.16    5.23
 -18   0  -7   11.23    4.82
 -18   0  -8    9.78    4.68
 -19   0  -3    4.66    3.59
 -19   0  -4    7.34    4.88
 -19   0  -5    8.89    4.70
 -19   0  -6    8.25    4.59
 -19   0  -7    3.69    3.27
   0   1  -3  586.31   11.48
   0  -1   3  575.04   12.37
   0  -1   4    1.11    0.85
   0   1  -4   -0.26    0.52
   0   1   4   -0.08    0.20
   0  -1  -4    0.33    0.27
   0  -1  -5 1339.12   15.76
   0   1   5 1277.19   15.97
   0   1  -5 1314.44   22.19
   0  -1  -5 1319.27   20.18
   0  -1   5 1320.58   22.51
   0  -1   6    1.80    0.68
   0   1   6    0.04    0.29
   0  -1  -6    2.54    0.98
   0  -1   6    1.71    1.26
   0  -1  -6    0.24    0.48
   0   1  -6    0.00    0.36
   0   1  -7  716.12   18.74
   0  -1   7  720.65   10.00
   0  -1  -7  691.75   14.51
   0   1   7  704.00   14.78
   0  -1   7  714.30   18.82
   0  -1  -7  709.74   16.06
   0   1   8    0.72    0.70
   0   1  -8    0.74    1.84
   0  -1   8   -0.96    0.64
   0  -1  -8    3.03    1.75
   0  -1  -8   -0.11    0.35
   0  -1   8    0.38    0.95
   0   1   9  738.17   17.68
   0  -1   9  718.56   11.61
   0  -1  -9  716.79   17.88
   0  -1  -9  723.87   17.35
   0   1  -9  725.58   21.26
   0  -1 -10    0.37    1.00
   0   1 -10    3.18    2.39
   0   1  10    0.67    0.88
   0  -1 -10    3.95    2.32
   0  -1  10    0.70    0.41
   0   1 -11   26.87    4.30
   0  -1  11   23.19    2.35
   0   1  11   24.15    3.67
   0  -1 -11   22.07    3.35
   0  -1 -11   22.66    3.48
   0  -1  12   -0.48    0.56
   0  -1 -12   -0.45    0.66
   0  -1 -12    0.50    0.62
   0   1 -12   -0.68    1.59
   0   1 -13   59.67    7.01
   0  -1 -13   61.13    6.39
   0  -1 -14    0.03    0.55
   0   1 -14   -0.14    1.03
   0   1 -15   34.75    5.78
   0  -1 -15   35.34    5.20
   0  -1 -16    1.52    1.25
   0   1 -16   -1.47    1.59
   0   1 -17    4.95    1.90
   0  -1 -17    7.00    2.30
   0  -1 -18    0.46    1.05
   0   1 -18    0.56    1.44
   0  -1 -19    5.29    2.24
   0   1 -19    2.94    1.44
   0  -1 -20    0.39    1.05
   0   1 -20   -1.90    2.22
   0   1 -21   41.40    7.67
   0  -1 -21   37.37    6.76
   0  -1 -22    0.74    0.71
   0   1 -22    0.71    0.90
   0   1 -23    0.36    1.06
   0  -1 -23   -0.37    1.50
   0   1 -24   -0.16    0.92
   0  -1 -24    0.15    0.57
   0  -1 -25    1.94    1.92
   0   1 -25    1.02    2.06
   0  -1 -26   -0.52    0.83
   0   1 -26    0.61    1.38
   0   1 -27   -0.35    1.48
   0   1 -28    1.70    2.68
   0   1 -29    3.90    2.84
   1  -1   2   24.67    2.34
  -1  -1   2   44.07    3.27
   1  -1   3 1007.45   16.70
  -1  -1   3 1023.44   16.54
  -1   1   3 1043.30   16.65
   1  -1  -3  972.12   16.36
   1   1  -3  997.57   16.51
  -1   1  -3  985.73   16.40
   1   1  -4 1309.84   20.84
   1  -1  -4 1317.17   13.52
  -1   1  -4 1313.81   20.69
   1  -1   4 1309.73   20.98
   1   1  -4 1351.87   20.75
   1  -1  -4 1322.21   20.07
  -1   1   4 1317.23   19.79
  -1   1   5  393.46   11.51
   1  -1   5  397.13   12.43
  -1   1  -5  397.18   12.36
   1   1   5  385.70    9.58
   1  -1  -5  403.52    8.72
   1  -1  -5  398.52   11.60
   1   1  -5  394.84   12.37
   1  -1  -6  761.35   16.71
  -1   1  -6  758.92   18.51
   1  -1   6  739.70   18.45
  -1   1   6  755.17   16.83
   1   1   6  746.75   14.61
   1   1  -6  747.16   18.25
   1  -1  -6  771.95   13.82
  -1   1   7  385.75   12.53
  -1  -1   7  377.59    9.34
   1  -1   7  384.82   13.95
   1   1  -7  368.65   13.71
  -1  -1   7  391.85   13.86
  -1   1  -7  369.29   13.79
   1  -1  -7  375.38   12.37
  -1  -1  -7  366.70   11.04
   1   1   7  373.94   11.28
   1  -1  -7  368.02   10.61
   1   1  -8  246.63   11.63
   1  -1  -8  237.06    9.24
  -1  -1   8  238.16   11.56
   1  -1   8  240.04   11.71
  -1  -1   8  230.62    7.71
  -1  -1  -8  240.88    9.61
  -1   1  -8  236.22   11.72
   1   1   8  235.88    9.70
  -1   1   8  243.02   10.27
   1  -1  -8  235.82   10.32
   1   1   9  399.76   13.59
   1   1  -9  420.23   16.10
  -1  -1  -9  402.94   13.29
  -1  -1   9  403.75   10.71
  -1   1  -9  418.49   16.13
   1  -1  -9  402.11   13.07
   1  -1  -9  413.76   14.10
  -1   1   9  401.83   13.90
  -1  -1  -9  411.48   13.17
   1   1  10  378.43   13.94
   1   1 -10  376.60   16.06
   1  -1 -10  363.82   13.74
  -1   1  10  371.11   13.86
  -1  -1  10  370.74   10.69
   1  -1 -10  367.27   13.21
  -1   1 -10  375.54   16.23
  -1  -1 -10  356.31   13.44
  -1  -1 -10  357.50   12.82
   1   1 -11  198.60   12.23
  -1  -1  11  189.53    8.05
  -1  -1 -11  196.92   10.52
  -1   1 -11  216.70   12.89
   1  -1 -11  191.60   10.25
   1   1  11  198.92   10.69
  -1  -1 -11  198.62    9.75
   1  -1 -11  195.40   10.45
  -1   1 -12  527.77   20.85
  -1  -1 -12  529.01   16.54
   1  -1 -12  528.69   17.76
  -1  -1 -12  532.35   18.00
   1   1 -12  532.73   20.66
  -1  -1  12  510.41   13.71
  -1   1 -13  273.93   15.52
  -1  -1  13  260.14   10.01
   1   1 -13  252.53   14.94
  -1  -1 -13  265.06   13.37
  -1  -1 -13  245.08   11.61
   1  -1 -13  259.96   13.09
  -1   1 -14   62.85    7.73
   1  -1 -14   59.79    6.69
   1   1 -14   63.16    7.70
  -1  -1 -14   62.74    6.95
  -1  -1  14   56.67    4.81
  -1   1 -15    7.14    2.91
  -1  -1 -15    6.26    2.45
   1   1 -15    4.94    2.50
  -1  -1  15    5.07    1.53
   1  -1 -15    5.03    2.25
   1  -1 -16   99.55    9.35
   1   1 -16   97.98   10.27
  -1  -1 -16  106.81    9.57
  -1   1 -16  104.67   10.62
  -1  -1  16  101.43    6.90
  -1  -1 -17   63.21    7.89
  -1   1 -17   64.03    8.73
   1   1 -17   67.12    8.64
   1  -1 -17   61.79    7.68
   1   1 -18   12.54    4.26
  -1  -1 -18   14.93    4.11
  -1   1 -18   12.90    4.13
   1  -1 -18   11.39    3.34
  -1   1 -19   58.29    8.75
  -1  -1 -19   59.65    7.99
   1  -1 -19   58.03    7.77
   1   1 -19   57.42    8.65
  -1   1 -20   48.63    8.09
  -1  -1 -20   50.87    7.78
   1  -1 -20   49.51    7.54
   1   1 -20   45.93    8.02
  -1  -1 -21    6.45    2.87
  -1   1 -21    2.81    1.79
   1   1 -21    3.19    2.35
   1  -1 -21    5.39    2.87
   1  -1 -22   18.23    4.76
  -1  -1 -22   20.48    5.28
   1   1 -22   22.49    5.81
  -1   1 -22   20.87    5.90
  -1   1 -23   29.67    7.04
   1  -1 -23   25.01    5.87
   1   1 -23   26.66    6.83
  -1   1 -24    0.83    1.40
   1   1 -24    2.64    1.96
   1  -1 -24    4.01    2.76
  -1   1 -25   30.23    7.42
   1   1 -25   28.55    7.23
   1  -1 -25   31.42    7.02
   1  -1 -26   43.13    8.38
  -1   1 -26   41.33    8.81
   1   1 -26   40.45    8.80
   1   1 -27    3.82    3.01
  -1   1 -27    3.19    3.17
   1  -1 -27    7.52    3.61
  -1   1 -28    6.45    3.33
   1   1 -28    6.72    3.86
   1   1 -29   19.65    6.48
  -2   1   0   -0.25    0.67
   2  -1   0    1.37    0.69
   2   1  -1   14.29    1.90
  -2  -1   1   15.56    1.97
   2  -1  -1   16.34    2.12
  -2   1   1   14.04    1.70
  -2   1  -1   15.88    1.63
   2   1  -2   77.35    4.73
  -2  -1   2   80.49    4.71
   2  -1  -2   74.43    4.67
  -2   1   2   82.36    4.70
   2  -1   2   72.77    4.53
  -2   1  -2   80.86    3.54
   2  -1   2   74.72    3.59
  -2   1   3  583.66   13.58
  -2  -1   3  580.60   13.55
   2  -1   3  532.61    8.29
  -2   1  -3  572.88    8.73
   2  -1  -3  569.32   13.85
   2  -1   3  576.50   13.63
   2   1  -3  569.53   13.72
  -2   1   4   64.21    4.79
   2   1  -4   65.26    4.92
  -2   1  -4   64.18    2.54
  -2   1  -4   61.13    4.75
   2  -1   4   65.19    4.89
   2  -1  -4   67.88    4.88
   2   1  -5   11.20    2.34
   2  -1   5    9.61    2.05
  -2   1   5   12.05    2.43
  -2   1  -5   11.32    2.28
   2  -1  -5   12.07    2.27
  -2   1  -6  425.20   14.23
   2  -1  -6  426.86   13.67
  -2   1   6  431.37   13.43
   2   1  -6  433.72   14.18
   2   1   6  425.10   12.20
   2  -1   6  423.07   14.23
   2   1  -7   45.01    4.70
   2  -1  -7   46.04    3.88
  -2   1  -7   43.06    4.81
   2   1   7   45.39    4.24
   2  -1   7   45.85    4.92
   2  -1  -7   47.12    4.70
  -2   1   7   44.95    4.61
   2   1   8   81.39    5.93
  -2   1   8   83.61    6.32
  -2  -1   8   82.15    5.58
  -2   1  -8   77.21    6.72
   2  -1  -8   76.16    5.43
   2  -1  -8   78.43    6.29
   2   1  -8   76.05    6.69
   2  -1  -9   50.68    4.65
   2   1  -9   50.66    5.73
  -2   1  -9   53.63    5.66
   2   1   9   51.94    5.08
   2  -1  -9   52.73    5.23
  -2   1   9   51.36    5.16
  -2  -1   9   55.20    4.55
   2   1 -10   11.90    2.73
  -2  -1  10   12.38    2.21
  -2   1 -10   12.41    3.19
   2  -1 -10   12.77    2.65
   2   1  10   12.29    2.60
  -2   1  10   13.20    2.80
   2  -1 -10   13.96    2.72
  -2   1  11   11.41    2.76
   2   1 -11   10.85    2.89
  -2  -1 -11   10.37    2.14
  -2  -1  11   11.11    2.02
  -2   1 -11   10.92    3.11
   2  -1 -11   10.65    2.49
  -2   1 -12  287.46   15.58
   2   1 -12  303.45   15.69
   2  -1 -12  302.05   13.58
  -2  -1  12  289.11   11.58
  -2  -1 -12  294.29   12.27
  -2   1  12  293.58   13.71
   2  -1 -13   19.25    3.78
   2   1 -13   21.23    4.52
  -2   1  13   19.84    3.81
  -2  -1  13   18.56    2.90
  -2   1 -13   21.13    4.88
  -2  -1 -13   18.62    3.15
  -2  -1  14   67.80    5.89
  -2   1 -14   69.68    8.13
   2   1 -14   65.51    7.65
  -2  -1 -14   66.95    6.11
   2  -1 -14   68.19    6.89
  -2   1  14   64.20    6.84
  -2   1 -15   15.27    3.96
  -2  -1  15   17.21    3.06
   2   1 -15   15.26    4.04
  -2   1  15   17.17    3.48
   2  -1 -15   17.86    3.77
  -2  -1  16   12.61    2.63
  -2   1 -16   14.24    4.13
   2  -1 -16   13.08    3.28
   2   1 -16   15.04    4.02
  -2  -1  17    0.78    0.38
  -2   1 -17    2.05    1.65
   2  -1 -17    2.36    1.74
   2   1 -17    3.31    2.29
   2  -1 -18   21.45    4.68
  -2   1 -18   20.00    5.02
  -2  -1  18   22.14    3.60
   2   1 -18   22.15    5.11
   2   1 -19    0.89    0.55
  -2  -1  19    0.48    0.82
  -2   1 -19    2.78    1.71
   2  -1 -19    0.90    1.05
   2  -1 -20   15.96    4.17
   2   1 -20   17.68    4.73
  -2   1 -20   16.72    4.53
   2   1 -21    5.44    2.92
   2  -1 -21    3.55    1.68
  -2   1 -21    2.82    1.87
   2   1 -22    6.88    2.97
  -2   1 -22    9.55    3.77
   2  -1 -22    7.41    2.93
   2  -1 -23    1.82    0.85
   2   1 -23    2.81    2.41
  -2   1 -23    2.17    1.71
  -2   1 -24   -1.65    1.65
   2   1 -24    1.33    0.83
   2  -1 -24    0.81    2.01
   2  -1 -25   -0.59    1.18
  -2   1 -25    1.93    2.52
   2   1 -25   -1.84    1.56
   2  -1 -26   -1.21    1.52
   2   1 -26   -1.45    1.56
   2   1 -27   -0.33    1.33
   2   1 -28   -0.25    0.84
   2   1 -29   -1.32    1.57
   3  -1   0  415.72   11.33
  -3   1   0  428.95   11.46
   3  -1   1  417.58   10.73
   3  -1  -1  424.64   11.97
  -3  -1   1  430.97   11.80
  -3   1   1  425.89   12.03
  -3   1  -1  448.45   10.89
   3   1  -2  756.52   16.19
   3  -1  -2  758.85   16.54
  -3   1  -2  745.54   13.47
  -3   1   2  758.12   16.69
  -3  -1   2  753.33   15.89
   3  -1  -3 1766.26   26.46
   3   1  -3 1836.07   26.39
  -3  -1   3 1743.78   25.65
  -3   1   3 1794.68   26.99
  -3   1  -3 1733.00   19.31
  -3  -1   4  385.23   12.66
   3  -1  -4  384.67   12.95
  -3   1   4  402.89   13.07
   3  -1   4  403.68   13.25
   3   1  -4  401.41   12.98
  -3   1  -4  383.83    8.53
  -3   1  -5   38.86    2.75
  -3   1   5   32.20    3.53
   3   1  -5   37.69    4.08
   3  -1  -5   32.16    4.06
   3  -1   5   33.19    4.01
   3  -1   6  532.46   16.90
  -3   1   6  531.43   16.17
   3  -1  -6  542.76   16.32
   3   1  -6  546.39   16.89
   3  -1  -7  203.57   10.35
  -3   1   7  212.29   10.52
  -3  -1   8   85.05    6.31
   3   1   8   77.25    6.32
   3  -1  -8   85.70    6.84
  -3   1   8   82.86    6.93
   3  -1  -9  284.67   11.70
   3   1   9  299.34   12.92
   3   1  -9  281.84   13.93
  -3  -1   9  293.21   11.79
  -3   1   9  293.08   13.30
  -3   1  -9  288.89   14.29
  -3  -1  10  113.18    7.43
  -3   1 -10  106.78    9.08
   3   1 -10  111.96    8.92
   3  -1 -10  108.22    7.50
  -3   1  10  105.46    8.23
   3   1 -11   23.17    3.89
   3  -1 -11   23.97    3.63
  -3   1 -11   25.03    4.51
  -3   1  11   25.41    4.11
  -3  -1  11   23.79    3.56
  -3   1 -12  149.07   11.47
  -3  -1  12  150.44    9.13
  -3   1  12  149.63   10.40
   3  -1 -12  156.65   10.12
   3   1 -12  153.19   11.56
  -3   1 -13  226.58   14.66
   3   1 -13  224.97   14.36
  -3  -1  13  220.42   11.39
  -3   1  13  223.25   12.96
   3  -1 -13  232.30   12.82
   3   1 -14   29.33    5.36
   3  -1 -14   28.42    4.62
  -3  -1 -14   28.26    4.01
  -3   1 -14   30.49    5.82
  -3  -1  14   28.91    3.99
  -3   1  14   29.62    4.75
   3   1 -15    6.84    2.66
  -3   1  15    8.55    2.48
   3  -1 -15    8.66    2.50
  -3  -1  15    9.90    2.28
  -3   1 -15    8.92    2.92
   3   1 -16   25.26    5.02
   3  -1 -16   24.95    4.66
  -3   1  16   25.28    4.57
  -3  -1  16   24.83    3.97
  -3   1 -16   27.26    5.68
  -3  -1  17   78.73    7.29
  -3   1 -17   82.24    9.85
   3   1 -17   75.44    9.04
  -3   1  17   78.56    8.24
   3  -1 -17   79.56    8.63
   3   1 -18    6.95    2.93
  -3   1  18    4.01    1.16
   3  -1 -18    7.13    2.47
  -3   1 -18    7.02    3.02
  -3  -1  18    5.64    1.88
  -3  -1  19   53.51    6.24
   3   1 -19   58.15    8.76
   3  -1 -19   53.96    7.62
  -3   1 -19   56.23    8.67
  -3  -1  20   25.30    4.38
  -3   1 -20   23.13    5.79
   3   1 -20   19.03    5.13
   3  -1 -20   22.32    5.11
   3   1 -21    1.90    1.16
   3  -1 -21    0.47    1.04
   3  -1 -22   16.53    4.69
   3   1 -22   15.63    5.05
   3   1 -23   51.05    9.10
   3  -1 -23   47.97    8.26
   3  -1 -24   11.21    4.05
   3   1 -24   11.11    4.75
   3   1 -25   12.32    4.74
   3  -1 -25   15.28    4.83
   3   1 -26    3.81    2.70
   3  -1 -26    5.63    2.79
   3   1 -27    7.39    3.66
   3   1 -28    6.63    3.84
   3   1 -29    5.89    3.20
  -4   1   0  113.21    6.74
  -4   1  -1   18.98    3.26
  -4  -1   1    9.95    1.91
  -4   1   1   16.43    2.93
   4  -1  -1   12.23    1.43
   4  -1  -2   50.10    5.08
  -4   1   2   40.79    4.37
  -4   1  -2   47.65    4.27
   4   1  -2   40.13    3.97
   4  -1  -2   42.31    2.95
  -4  -1   2   39.45    4.11
   4   1  -3   21.42    2.93
  -4   1  -3   27.17    3.52
  -4   1   3   22.78    3.26
   4  -1  -3   33.03    4.30
  -4  -1   3   21.12    3.07
   4   1  -4  190.68    9.62
  -4   1   4  188.19    9.64
  -4   1  -4  187.91    7.14
  -4  -1   4  178.08    9.11
   4  -1  -4  183.06    9.64
  -4   1   5   46.37    4.72
   4  -1  -5   46.33    5.05
   4   1  -5   47.74    5.03
  -4   1   6   67.41    6.07
   4   1  -6   77.95    6.49
  -4   1   7   12.18    2.36
  -4  -1   8  114.59    8.18
  -4   1   8   93.95    7.69
  -4  -1   9   19.88    4.25
  -4   1   9    3.90    1.11
  -4  -1  10  312.21   13.54
  -4   1  10  325.09   15.17
   4   1 -10  306.06   15.53
   4   1 -11   45.51    5.98
   4  -1 -11   43.43    5.17
  -4   1  11   49.67    6.21
  -4  -1  11   53.06    5.84
  -4   1  12   21.49    4.00
   4  -1 -12   19.84    3.45
   4   1 -12   18.78    3.74
  -4   1 -12   20.89    1.79
  -4  -1  12   22.92    3.94
   4   1 -13   18.85    4.25
  -4   1  13   22.67    4.30
  -4   1 -13   17.56    1.59
  -4  -1  13   21.00    3.78
   4  -1 -13   18.90    3.63
  -4  -1  14   23.32    3.96
   4  -1 -14   25.11    4.59
   4   1 -14   26.21    5.07
  -4   1  14   26.39    4.84
   4  -1 -15    1.17    0.71
   4   1 -15    2.97    1.82
  -4  -1  15   -0.63    1.59
  -4   1  15    1.66    1.36
  -4   1  16  114.64   10.40
  -4  -1  16  119.69    9.44
   4  -1 -16  115.59   10.40
   4   1 -16  120.21   11.63
   4  -1 -17    9.46    2.56
   4   1 -17    7.56    2.22
  -4   1  17   10.69    2.98
  -4  -1  17   15.15    3.55
  -4   1  18   20.88    4.34
   4   1 -18   20.54    4.98
   4  -1 -18   19.32    4.47
  -4  -1  18   22.17    4.14
   4   1 -19   16.43    4.67
  -4  -1  19   14.91    3.39
   4  -1 -19   14.88    3.72
  -4   1  19   17.55    4.21
   4  -1 -20   -0.02    0.74
  -4   1  20   -0.23    0.92
  -4  -1  20    0.76    0.74
   4   1 -20    0.75    1.26
   4   1 -21    1.67    0.87
  -4  -1  21    2.40    1.57
   4  -1 -21    2.04    1.96
   4   1 -22    5.19    2.78
   4  -1 -22    5.29    2.16
   4  -1 -23    1.67    1.26
   4   1 -23    2.92    1.99
   4  -1 -24   12.47    4.28
   4   1 -24   14.54    4.98
   4  -1 -25    1.61    1.10
   4   1 -25    4.05    2.74
   4   1 -26    0.52    0.76
   4  -1 -26    0.67    1.12
   4   1 -27   -1.53    2.30
   4   1 -28   -0.49    1.36
   4   1 -29    0.10    2.29
  -5   1   0   24.49    3.90
  -5  -1   0   16.05    2.45
  -5   1   0   20.84    1.82
  -5   1  -1   24.98    1.87
  -5   1   1   28.81    4.19
   5  -1  -1   20.92    2.02
  -5  -1   1   22.96    3.21
  -5   1  -1   31.26    4.26
  -5  -1   2   20.48    3.24
  -5   1  -2   29.08    4.20
  -5   1   2   23.82    3.94
   5  -1  -2   20.25    2.25
   5   1  -2   17.58    2.82
   5   1  -3  138.15    8.30
  -5   1  -3  149.45    7.70
   5  -1  -3  139.33    6.44
  -5  -1   3  137.48    8.18
  -5   1   3  141.60    8.98
   5   1  -4  853.07   21.41
  -5   1   4  850.22   22.35
  -5  -1   4  833.48   20.77
  -5   1   5  221.48   11.69
  -5  -1   5  209.31   10.84
  -5   1   6  522.82   18.62
  -5   1   7    9.59    2.38
  -5   1   8    9.79    2.42
  -5   1   9   12.38    2.60
  -5  -1   9   26.36    5.23
  -5  -1  10  235.92   12.77
  -5   1  10  223.67   13.30
  -5  -1  11  115.51    9.10
  -5   1  11  109.51    9.38
   5   1 -12   52.67    6.90
  -5   1  12   60.30    7.10
  -5  -1  12   56.88    6.52
   5   1 -13   43.92    6.67
  -5  -1  13   43.63    5.88
  -5   1  13   42.86    6.27
   5  -1 -13   43.74    5.74
  -5  -1  14   90.98    8.44
  -5   1 -14   88.36    4.19
   5   1 -14   91.21    9.89
  -5   1  14   91.78    9.32
   5  -1 -14   90.01    8.65
   5   1 -15  146.93   12.65
  -5  -1  15  132.37   10.58
  -5   1 -15  130.86    4.69
   5  -1 -15  135.47   11.08
  -5   1  15  136.48   11.60
   5  -1 -16  171.30   12.81
   5   1 -16  162.63   13.87
  -5   1  16  166.48   13.07
  -5  -1  16  167.48   11.99
   5   1 -17   21.18    5.14
  -5   1  17   23.19    5.10
  -5  -1  17   18.92    3.67
   5  -1 -17   20.62    4.36
  -5   1  18   20.49    4.72
  -5  -1  18   23.54    4.67
   5   1 -18   20.10    4.94
   5  -1 -18   16.56    4.06
  -5   1  19   17.91    4.41
   5  -1 -19   18.36    4.45
  -5  -1  19   18.05    4.10
   5   1 -19   18.46    4.98
  -5  -1  20    1.27    1.14
  -5   1  20   -1.73    1.75
   5  -1 -20    0.14    0.53
   5   1 -20   -2.97    3.00
   5   1 -21   13.78    4.23
   5  -1 -21   17.47    4.66
  -5   1  21   16.95    4.50
  -5  -1  21   17.43    4.20
  -5   1  22    8.19    3.21
   5   1 -22    7.11    3.46
   5  -1 -22    7.89    3.49
   5   1 -23    1.47    1.67
   5  -1 -23    0.56    0.70
   5   1 -24    3.77    2.91
   5  -1 -24   -1.07    1.44
   5   1 -25   23.04    6.46
   5  -1 -25   25.60    6.31
   5   1 -26   21.64    6.40
   5   1 -27   14.15    5.45
   5   1 -28    6.51    3.55
  -6   1   0    2.04    0.59
  -6  -1   0    0.36    1.07
  -6  -1   1    6.38    1.41
  -6   1   1   12.15    3.51
  -6   1  -1    8.92    1.47
  -6   1   2    3.67    2.67
  -6  -1   2    2.64    1.59
  -6   1  -3   50.63    5.57
  -6   1   3   37.48    5.16
   6   1  -3   36.82    4.41
  -6  -1   3   36.27    4.53
   6  -1  -3   36.91    3.59
   6  -1  -4   49.79    4.51
  -6   1   4   51.55    6.14
  -6  -1   4   48.26    5.41
  -6  -1   5  322.55   14.09
   6  -1  -5  313.80   12.08
  -6   1   5  316.95   15.11
   6  -1  -6  218.91   10.60
  -6   1   6  219.90   12.79
  -6   1   7  140.50   10.45
  -6   1   8   15.57    3.41
  -6  -1   9   31.34    5.81
  -6   1   9   17.94    3.69
  -6  -1  10   12.43    4.43
  -6   1  10    1.13    0.86
  -6   1  11   25.63    4.49
  -6  -1  11   38.20    5.99
  -6  -1  12   42.76    6.24
  -6   1  12   30.35    5.05
  -6   1  13   21.16    4.86
  -6  -1  13   18.96    4.22
  -6  -1  14  113.97   10.17
   6  -1 -14  118.07   10.45
  -6   1  14  121.20   11.16
   6   1 -14  125.21   11.87
  -6   1  15   42.30    6.59
  -6  -1  15   39.03    6.09
   6  -1 -15   40.70    6.25
   6   1 -15   42.53    7.14
   6   1 -16   14.47    4.29
   6  -1 -16   12.50    3.51
  -6   1  16   18.53    4.65
  -6  -1  16   12.04    3.16
   6   1 -17    8.03    3.32
   6  -1 -17    7.52    2.81
  -6   1  17    9.05    3.25
  -6  -1  17    6.77    2.04
   6  -1 -18    7.52    2.78
   6   1 -18    6.09    3.09
  -6  -1  18    2.93    0.88
  -6   1  18    2.25    1.59
  -6   1  19    9.32    3.17
   6  -1 -19   11.24    3.42
  -6  -1  19   14.04    3.92
   6   1 -19   15.46    4.59
  -6   1  20   40.56    7.10
   6   1 -20   37.07    7.56
  -6  -1  20   41.31    6.73
   6  -1 -20   35.91    6.77
   6  -1 -21   19.54    5.15
   6   1 -21   18.34    5.37
  -6  -1  21   17.10    4.55
  -6   1  21   15.21    4.59
   6   1 -22    1.20    0.99
  -6   1  22    4.54    2.47
   6  -1 -22    1.16    0.90
   6  -1 -23    8.61    3.29
   6   1 -23    8.12    3.54
  -6   1  23   10.36    3.62
   6   1 -24    2.35    1.58
   6  -1 -24    1.90    1.46
   6   1 -25    6.88    3.73
   6  -1 -25    3.69    2.20
   6   1 -26    6.06    3.35
   6   1 -27    3.07    3.18
   6   1 -28    2.27    2.44
  -7  -1   0    1.44    1.13
  -7   1   0    1.65    0.57
  -7   1  -1   18.73    2.23
  -7   1   1   26.34    4.96
  -7  -1   1   22.62    3.58
  -7   1  -1   34.30    5.76
  -7  -1  -1   15.04    2.64
  -7   1  -2  436.94   16.11
  -7  -1   2  448.99   16.32
   7  -1  -2  442.52   12.32
  -7   1   2  431.02   17.66
  -7   1  -2  427.49   10.90
   7  -1  -3  262.15   10.13
  -7   1  -3  276.55   12.50
  -7  -1   3  274.27   12.83
  -7   1   3  277.94   14.30
  -7   1   4  126.41   10.03
  -7  -1   4  124.07    8.85
   7  -1  -4  122.69    7.41
  -7   1   5  212.19   12.96
   7  -1  -5  208.43   10.21
  -7  -1   5  206.38   11.83
  -7   1   6  165.42   11.68
   7  -1  -6  170.77    9.81
  -7   1   7   54.49    6.85
  -7   1   8   63.24    7.55
  -7  -1   9   24.91    5.74
  -7   1   9   16.07    3.95
  -7   1  10   19.50    4.21
  -7  -1  10   33.22    6.31
  -7  -1  11   87.00    9.22
  -7   1  11   67.82    7.99
  -7  -1  12   75.75    8.69
  -7   1  12   69.31    8.18
  -7   1  13   39.28    5.80
  -7  -1  13   45.78    6.82
  -7   1  14  322.36   18.90
  -7  -1  14  317.36   17.83
  -7   1  15   55.11    8.07
   7  -1 -15   52.42    7.34
  -7  -1  15   49.61    7.31
   7   1 -15   47.10    7.98
  -7  -1  16  223.61   15.50
   7  -1 -16  228.44   15.70
   7   1 -16  225.69   17.18
  -7   1  16  224.37   16.31
   7   1 -17   18.04    5.20
  -7  -1  17   16.67    3.80
   7  -1 -17   21.05    4.78
  -7   1  17   20.69    5.05
   7   1 -18   24.14    5.97
  -7  -1  18   22.35    4.66
   7  -1 -18   24.88    5.29
  -7   1  18   25.06    5.68
   7  -1 -19   17.52    4.62
  -7  -1  19   11.46    3.36
   7   1 -19   16.41    4.44
  -7   1  19   21.59    5.37
   7   1 -20   21.17    5.72
  -7   1  20   20.67    5.27
   7  -1 -20   17.20    4.64
  -7  -1  20   21.75    5.11
   7  -1 -21   14.42    4.46
   7   1 -21   14.33    4.81
  -7   1  21   18.28    5.11
  -7  -1  21   16.88    4.71
   7   1 -22   36.23    8.20
  -7  -1  22   28.80    5.93
  -7   1  22   27.05    6.24
   7  -1 -22   32.25    6.92
   7  -1 -23    2.48    1.92
  -7   1  23    1.95    1.64
   7   1 -23    3.34    3.00
  -7   1  24   49.52    8.68
   7  -1 -24   51.60    9.08
   7   1 -24   50.07    9.66
   7   1 -25   15.61    5.78
   7   1 -26    2.01    2.37
   7   1 -27    6.98    3.77
  -8   1   0    2.28    1.00
  -8  -1   0    1.78    0.89
  -8   1   1   60.10    7.38
  -8   1  -1   44.80    3.81
  -8   1  -1   64.09    7.41
  -8  -1   1   45.99    5.56
  -8  -1  -1   44.76    5.10
  -8   1   2   44.42    6.68
  -8   1  -2   35.35    3.29
  -8   1  -2   56.12    6.85
  -8  -1   2   35.95    4.96
   8  -1  -3   20.95    2.92
  -8  -1   3   20.65    3.81
  -8   1   3   26.05    5.38
  -8   1  -3   32.89    5.74
  -8  -1   4    7.34    2.27
   8  -1  -4    7.08    1.96
  -8   1   4   15.36    4.34
  -8   1   5    7.48    3.32
   8  -1  -5    5.21    1.88
  -8  -1   5    7.06    2.47
  -8   1   6   11.15    3.62
  -8   1   7   32.36    5.65
  -8   1   8   14.26    3.86
  -8  -1   9   23.98    6.07
  -8   1   9    8.95    2.67
  -8  -1  10   32.58    6.53
  -8   1  10    8.04    2.49
  -8   1  11   19.30    4.50
  -8  -1  11   26.60    5.75
  -8  -1  12   10.08    4.04
  -8   1  12   -2.66    2.76
  -8   1  13    1.12    1.59
  -8  -1  13    5.18    3.12
  -8  -1  14    5.87    2.78
  -8   1  14   -0.39    2.14
  -8   1  15    0.89    1.43
  -8  -1  15    7.34    2.70
  -8   1  16    8.52    3.37
   8  -1 -16   10.45    3.62
   8   1 -16   11.28    4.28
  -8  -1  16    6.07    2.84
   8   1 -17   16.39    4.96
   8  -1 -17   13.52    4.05
  -8   1  17   16.78    4.78
  -8  -1  17   14.45    4.12
  -8  -1  18    7.24    3.05
   8  -1 -18   10.53    3.58
  -8   1  18   14.47    4.66
   8   1 -18   10.44    4.11
  -8  -1  19    2.84    1.04
   8  -1 -19    6.49    3.05
   8   1 -19    6.42    3.34
  -8   1  19    3.06    2.06
   8  -1 -20    1.09    1.04
  -8  -1  20   -0.72    2.09
   8   1 -20    3.26    2.45
  -8   1  20    3.79    2.39
   8   1 -21    0.68    1.29
   8  -1 -21    1.87    1.83
  -8  -1  21    2.63    2.30
  -8   1  21    3.09    2.38
  -8  -1  22    4.30    2.39
   8   1 -22    1.09    1.37
   8  -1 -22    1.43    1.43
  -8   1  22    2.57    2.08
  -8   1  23   -0.71    0.63
   8  -1 -23    0.16    0.41
  -8   1  24    1.99    2.01
   8  -1 -24    6.07    3.46
   8   1 -24    4.14    3.02
   8   1 -25    1.78    2.26
   8   1 -26    0.03    1.21
  -9   1   0  484.95   20.34
  -9  -1   0  465.47   18.33
  -9   1   0  472.77   13.52
  -9  -1   1  260.37   13.78
  -9  -1  -1  268.40   13.67
  -9   1   1  281.16   15.70
  -9   1  -1  268.44    9.98
  -9   1  -1  268.46   15.06
  -9   1  -2  100.92    6.16
  -9   1  -2  114.00   10.00
  -9  -1  -2   94.97    8.00
  -9   1   2  105.28   10.13
  -9  -1   2   99.41    8.58
  -9   1  -3  197.62   12.32
  -9   1   3  192.87   13.59
  -9  -1   3  172.70   11.60
  -9   1  -3  184.60    8.54
  -9   1  -4  175.40   11.39
  -9   1   4  150.07   12.17
  -9  -1   4  152.44   10.89
   9  -1  -4  146.71    9.02
  -9   1   5  186.75   13.49
  -9  -1   5  163.64   11.60
  -9   1   6   89.33    9.80
  -9   1   7   64.09    8.24
  -9   1   8   68.18    8.76
  -9  -1   8   97.12   11.05
  -9   1   9  216.77   15.72
  -9  -1   9  242.64   16.18
  -9  -1  10   41.60    7.79
  -9   1  10   32.84    6.24
  -9  -1  11  275.55   18.02
  -9   1  11  292.77   18.63
  -9   1  12   37.64    6.71
  -9  -1  12   52.90    8.37
  -9   1  13   -2.42    3.31
  -9  -1  13   10.70    4.57
  -9  -1  14    7.03    3.61
  -9   1  14   -0.48    2.45
  -9   1  15   86.14   10.83
  -9  -1  15   95.68   11.07
  -9   1  16   34.09    6.63
  -9  -1  16   34.98    6.86
   9  -1 -17  125.79   12.91
   9   1 -17  138.38   14.73
  -9  -1  17  137.85   13.67
  -9   1  17  133.43   13.81
   9  -1 -18    2.90    2.20
  -9  -1  18    4.34    2.47
   9   1 -18    4.43    2.89
  -9   1  18    7.19    3.46
   9   1 -19   26.12    6.64
   9  -1 -19   25.96    6.02
  -9   1  19   27.43    6.51
  -9  -1  19   20.28    5.03
  -9   1  20    9.26    3.79
   9  -1 -20    5.88    2.60
   9   1 -20    8.03    3.52
  -9  -1  20    5.18    2.23
   9  -1 -21   37.76    7.55
   9   1 -21   34.17    7.82
  -9  -1  21   31.30    6.82
  -9   1  21   33.20    7.31
   9   1 -22   16.22    5.55
  -9  -1  22   15.35    4.84
   9  -1 -22   17.04    5.20
  -9   1  22   15.69    5.12
   9  -1 -23    4.23    2.92
  -9   1  23    6.01    3.19
   9   1 -23    4.77    3.25
   9   1 -24    1.41    2.30
  -9   1  24   -2.79    2.27
   9   1 -25    8.99    4.54
   9   1 -26    9.04    4.31
 -10  -1   0   11.91    3.21
 -10   1   0   22.28    5.81
 -10   1   0   10.58    2.27
 -10  -1  -1   13.59    3.27
 -10   1  -1   13.96    2.41
 -10   1   1   20.54    5.48
 -10   1  -1   31.19    6.26
 -10  -1   1   14.34    3.51
 -10   1  -2    3.51    1.35
 -10  -1  -2    1.39    0.91
 -10  -1   2    3.30    1.99
 -10   1   3   13.92    4.77
 -10  -1   3    4.50    2.27
 -10   1  -3   18.38    4.93
 -10   1   4    6.77    3.46
 -10  -1   4    4.15    2.59
 -10  -1   5    3.23    2.35
 -10   1   5    7.80    4.11
 -10   1   6    8.23    3.50
 -10   1   7   17.73    4.81
 -10  -1   8   22.48    6.40
 -10   1   8    2.59    2.00
 -10  -1   9   16.72    5.86
 -10   1   9    0.98    1.48
 -10  -1  10   11.32    5.29
 -10   1  10   -0.47    1.26
 -10   1  11   -0.18    0.99
 -10  -1  11   11.43    5.24
 -10  -1  12   21.01    5.83
 -10   1  12    5.73    2.26
 -10  -1  13   17.45    5.22
 -10   1  13    5.64    1.85
 -10  -1  14    2.79    2.57
 -10   1  14   -1.39    2.39
 -10  -1  15    2.32    2.19
 -10   1  15   -1.54    2.70
 -10   1  16   -3.82    3.22
 -10  -1  16    4.62    2.22
 -10   1  17    3.09    2.32
 -10  -1  17   -1.88    2.15
 -10   1  18    2.65    2.75
  10  -1 -18    3.92    2.24
 -10  -1  18   -0.57    1.34
  10   1 -18    1.79    1.11
 -10   1  19    1.71    1.78
  10  -1 -19    0.85    1.03
  10   1 -19    3.43    3.59
 -10  -1  19   -1.51    2.43
 -10  -1  20   -1.90    2.22
 -10   1  20    2.10    2.41
  10  -1 -20    2.37    1.85
  10   1 -20    1.48    0.94
  10   1 -21    5.37    3.27
 -10  -1  21   -1.41    2.74
 -10   1  21    1.78    2.08
  10  -1 -21    1.56    1.77
  10  -1 -22    1.53    1.50
 -10  -1  22    1.94    1.83
 -10   1  22    1.60    1.57
  10   1 -22   -0.33    1.55
  10  -1 -23   -0.82    0.54
 -10   1  23    0.99    1.33
  10   1 -23    1.48    2.33
  10   1 -24    2.61    2.28
 -10   1  24    0.17    1.26
  10   1 -25    3.76    3.12
 -11   1   0    0.96    0.72
 -11  -1   0   -0.22    1.11
 -11   1  -1   23.72    3.28
 -11  -1  -1   21.27    4.10
 -11   1   1   35.25    7.04
 -11  -1   1   24.26    4.63
 -11   1  -1   34.47    6.79
 -11   1  -2  288.69   11.89
 -11  -1  -2  288.10   15.87
 -11   1   2  301.12   18.28
 -11  -1   2  279.49   15.81
 -11   1  -2  290.70   17.22
 -11   1  -3  131.52    8.16
 -11   1   3  133.55   12.58
 -11  -1   3  127.95   10.72
 -11  -1  -3  126.69   10.36
 -11   1  -3  148.57   12.33
 -11   1   4   12.50    4.69
 -11  -1   4    8.05    2.90
 -11   1  -4    7.89    1.97
 -11   1  -5   27.52    6.52
 -11   1   5   26.05    5.91
 -11   1  -5   13.86    2.42
 -11  -1   5   15.62    3.91
 -11   1   6   54.08    8.31
 -11   1  -6   71.89    8.58
 -11   1  -7  113.43   10.54
 -11  -1   7  121.74   12.93
 -11   1   7  102.46   11.54
 -11   1   8   83.36   10.38
 -11  -1   8   91.19   11.61
 -11   1  -8   95.53    9.39
 -11  -1   9  105.45   12.47
 -11   1  -9  102.84    9.52
 -11   1   9   85.15   10.84
 -11   1  10   66.10    9.45
 -11  -1  10   80.99   10.84
 -11  -1  11   20.74    6.39
 -11   1  11    7.92    3.10
 -11   1 -12  167.58   11.56
 -11  -1  12  178.10   15.80
 -11   1  12  154.36   15.16
 -11  -1  13  184.92   16.30
 -11   1 -13  170.05   11.54
 -11   1  13  156.15   15.48
 -11   1  14   47.18    8.17
 -11  -1  14   51.96    8.93
 -11   1  15   16.78    4.61
 -11  -1  15   15.17    4.95
 -11   1  16   -4.19    3.37
 -11  -1  16   -0.82    1.51
 -11  -1  17   12.54    4.56
 -11   1  17   10.40    3.88
 -11   1  18   65.31   10.67
  11   1 -18   72.37   11.63
 -11  -1  18   69.16   10.63
  11  -1 -19   24.54    6.47
  11   1 -19   25.51    6.70
 -11   1  19   21.48    6.36
 -11  -1  19   18.23    5.39
 -11  -1  20    0.01    1.63
  11  -1 -20    0.80    0.57
 -11   1  20    0.96    1.34
  11   1 -20    1.36    1.71
  11   1 -21    5.54    3.46
 -11  -1  21    0.64    1.47
 -11   1  21    4.57    3.18
  11  -1 -21    5.84    3.44
 -11  -1  22   -1.17    0.74
  11   1 -22   -1.67    2.22
  11  -1 -22    3.11    2.67
 -11   1  22    2.08    1.91
 -11   1  23    5.50    3.17
  11   1 -23    6.85    3.66
 -11   1  24   16.70    5.96
  11   1 -24   19.69    6.54
 -12  -1   0    6.14    2.67
 -12   1   0    8.03    2.20
 -12   1   0   13.61    4.79
 -12   1   1   24.04    6.03
 -12   1  -1   15.50    2.75
 -12   1  -1   18.48    5.35
 -12  -1   1   16.46    4.09
 -12  -1  -1   17.63    4.11
 -12   1  -2   46.85    4.93
 -12   1  -2   47.96    7.81
 -12   1   2   52.87    8.65
 -12  -1  -2   42.24    6.22
 -12  -1   2   45.18    6.56
 -12   1  -3   74.91    6.37
 -12  -1  -3   62.99    7.56
 -12   1   3   74.08    9.83
 -12  -1   3   65.48    7.96
 -12   1  -3   84.35    9.98
 -12   1  -4   31.40    4.07
 -12  -1  -4   23.68    4.32
 -12   1  -4   36.09    7.11
 -12   1   4   32.13    6.63
 -12  -1   4   28.57    5.46
 -12   1   5   15.51    5.24
 -12   1  -5   22.17    5.55
 -12   1  -5   10.69    2.42
 -12   1   6    6.90    3.25
 -12   1  -6    3.11    0.55
 -12  -1   7   24.39    7.76
 -12   1  -7   14.80    4.76
 -12   1  -8   17.41    5.32
 -12   1   8    6.29    3.09
 -12  -1   8   21.08    6.73
 -12   1  -9   24.33    5.84
 -12  -1   9   30.12    7.57
 -12   1   9   15.11    4.88
 -12  -1  10   19.79    6.00
 -12   1  10    6.40    3.12
 -12   1 -10   18.81    5.28
 -12   1 -11   24.91    5.78
 -12   1  11   14.26    4.76
 -12  -1  11   18.88    5.75
 -12   1  12   -3.23    3.03
 -12  -1  12    3.56    2.74
 -12  -1  13    1.03    1.75
 -12   1  13   -1.96    2.22
 -12  -1  14    2.64    2.87
 -12   1  14   -0.10    2.13
 -12  -1  15    4.00    2.71
 -12   1  15    1.40    0.55
 -12   1  16   -0.83    2.14
 -12  -1  16    1.53    0.80
 -12  -1  17    7.68    4.11
 -12   1  17   -1.11    2.72
 -12   1  18    2.61    2.99
 -12  -1  18   -2.59    2.21
  12   1 -19    2.07    2.48
 -12   1  19    1.49    1.90
  12  -1 -19    0.46    1.56
 -12  -1  19    1.07    1.83
 -12   1  20    3.09    1.92
  12   1 -20    3.40    3.33
 -12  -1  20   -0.92    1.65
  12  -1 -20    1.50    1.79
  12  -1 -21    0.42    1.47
  12   1 -21    2.26    2.09
 -12   1  21    4.23    3.30
 -12  -1  21   -1.24    2.44
  12  -1 -22    1.12    1.38
 -12  -1  22   -3.29    2.95
  12   1 -22    7.48    4.07
 -12   1  22    4.17    3.04
 -12   1  23    1.08    1.50
 -13  -1   0  445.69   21.52
 -13   1   0  422.69   23.76
 -13  -1   1   21.56    4.80
 -13   1   1   25.80    6.48
 -13  -1  -1   24.21    5.35
 -13   1  -1   22.25    3.72
 -13   1  -1   31.32    7.45
 -13  -1   2   43.80    6.64
 -13   1  -2   57.25    8.84
 -13   1  -2   44.58    5.07
 -13  -1  -2   46.40    6.88
 -13   1   2   47.82    8.47
 -13   1   3   40.70    7.68
 -13  -1  -3   40.79    6.34
 -13   1  -3   46.24    7.99
 -13   1  -3   41.50    4.91
 -13  -1   3   35.99    6.24
 -13  -1   4   16.72    4.38
 -13   1   4   17.70    5.29
 -13   1  -4   21.30    5.90
 -13  -1  -4   13.77    3.65
 -13  -1  -5  123.36   11.17
 -13   1   5  114.67   12.96
 -13   1  -5  132.67   12.62
 -13   1  -6   34.85    6.91
 -13   1   6   29.97    6.82
 -13  -1   6   47.86    9.43
 -13   1   7   10.08    3.88
 -13   1  -7   19.09    5.66
 -13   1  -8   18.32    5.26
 -13  -1   8   15.90    5.75
 -13   1   8    3.97    2.24
 -13   1  -9   54.88    7.98
 -13  -1   9   58.65   10.12
 -13   1   9   44.69    8.49
 -13   1 -10   59.33    8.08
 -13   1  10   47.37    8.54
 -13  -1  10   55.25    9.74
 -13  -1  11    5.32    3.60
 -13   1  11    0.08    0.97
 -13   1  12   19.57    5.60
 -13  -1  12   22.50    6.33
 -13  -1  13    5.60    3.08
 -13   1  13    3.64    2.33
 -13  -1  14   36.19    7.93
 -13   1  14   28.06    6.96
 -13   1  15    8.12    3.56
 -13  -1  15   11.16    4.44
 -13   1  16   35.49    8.15
 -13  -1  16   33.13    7.88
 -13   1  17    3.90    2.20
 -13  -1  17    7.01    3.46
 -13   1  18    3.06    2.01
 -13  -1  18    0.20    2.00
 -13  -1  19   -0.75    1.21
 -13   1  19    5.31    3.47
  13  -1 -20   26.19    6.97
  13   1 -20   24.89    7.36
 -13  -1  20   23.83    6.91
 -13   1  20   28.51    7.84
 -13  -1  21    6.28    3.30
  13   1 -21   15.70    5.83
  13  -1 -21   18.13    5.88
 -13  -1  22   -0.31    2.45
 -14   1   0   23.94    6.48
 -14  -1   0   22.76    5.20
 -14  -1  -1   24.03    5.17
 -14   1   1   21.22    5.81
 -14   1  -1   30.86    7.00
 -14  -1   1   21.45    4.83
 -14  -1  -2   19.34    4.54
 -14   1  -2   24.69    6.03
 -14   1   2   22.73    6.25
 -14  -1   2   19.43    4.69
 -14   1  -3   10.88    4.64
 -14   1   3    7.31    3.92
 -14  -1  -3    5.57    2.35
 -14  -1   3    6.60    2.56
 -14   1  -4   13.23    4.83
 -14  -1  -4    4.90    2.34
 -14   1   4    9.56    4.19
 -14   1   5    2.14    2.87
 -14   1  -5    6.61    4.10
 -14  -1  -5   -1.68    1.75
 -14   1   6    3.72    2.82
 -14  -1  -6    0.66    0.82
 -14   1  -7   22.53    5.69
 -14   1   7   10.44    4.28
 -14  -1   7   30.46    8.15
 -14  -1  -7    9.74    2.98
 -14   1  -8    6.74    3.58
 -14  -1   8    8.93    4.93
 -14   1   8   -0.90    1.31
 -14  -1   9   18.08    6.32
 -14   1  -9   11.45    4.57
 -14   1   9    2.28    2.31
 -14  -1  10    5.59    3.97
 -14   1  10   -0.34    1.54
 -14   1 -10    9.11    3.97
 -14  -1  11    4.27    3.93
 -14   1  11   -1.40    2.54
 -14   1 -11    5.27    3.04
 -14   1  12   -1.95    2.54
 -14  -1  12    2.00    2.14
 -14  -1  13    2.21    2.55
 -14   1  13   -0.86    2.06
 -14  -1  14   -0.16    2.02
 -14   1  14   -1.26    2.36
 -14  -1  15    2.23    1.84
 -14   1  15    2.30    1.38
 -14   1  16   -5.78    4.30
 -14  -1  16    0.43    0.52
 -14   1  17   -1.28    2.56
 -14  -1  17   -2.59    1.77
 -14   1  18    0.68    0.78
 -14  -1  18    1.97    1.50
 -14  -1  19   -1.71    2.33
  14  -1 -20    0.61    1.33
 -15   1   0    2.01    3.11
 -15  -1   0   -0.47    1.01
 -15  -1  -1    2.01    1.80
 -15  -1   1   -0.61    0.72
 -15   1   1    4.48    3.44
 -15   1  -1    6.35    3.56
 -15  -1   2    2.17    2.00
 -15  -1  -2    2.43    2.29
 -15   1  -2    7.48    4.19
 -15   1   2    4.15    3.41
 -15  -1  -3   34.07    6.30
 -15  -1   3   35.51    6.65
 -15   1  -3   42.31    8.08
 -15   1   3   33.71    7.25
 -15   1  -4   17.85    5.87
 -15  -1  -4   12.29    4.08
 -15   1   4   14.14    5.00
 -15   1  -5   20.60    5.94
 -15   1   5   11.91    4.54
 -15  -1  -5    8.36    2.84
 -15  -1  -6    1.94    0.89
 -15   1   6    1.14    1.53
 -15   1  -7   43.20    8.12
 -15   1   7   41.78    8.37
 -15  -1   7   51.77    9.83
 -15  -1  -7   43.77    7.21
 -15   1  -8   18.10    5.26
 -15   1   8    8.86    3.82
 -15  -1  -8    7.56    2.70
 -15   1  -9   10.39    4.08
 -15  -1   9   12.44    6.40
 -15   1   9    1.00    1.04
 -15   1 -10   10.66    4.33
 -15  -1  10    6.87    4.37
 -15   1  10    3.37    2.15
 -15  -1  11    5.79    4.63
 -15   1  11    1.47    1.46
 -15  -1  12    8.86    4.53
 -15   1  12    2.61    1.76
 -15  -1  13   52.86   10.32
 -15   1  13   50.56   10.20
 -15  -1  14    2.58    2.55
 -15   1  14    1.46    1.33
 -15  -1  15    1.98    2.64
 -15   1  15   -0.33    2.34
 -15  -1  16    8.00    3.94
 -16   1   0    4.73    2.81
 -16   1   1    2.77    2.40
 -16   1  -1    5.67    3.71
 -16   1  -2    6.69    3.91
 -16  -1   2    2.58    2.42
 -16   1   2    4.37    3.15
 -16   1   3   12.13    4.69
 -16   1  -3   15.27    5.21
 -16  -1   4   17.47    6.89
 -16   1  -4    7.64    4.47
 -16   1   4    4.36    3.04
 -16   1  -5    8.87    4.13
 -16  -1   5   18.15    6.46
 -16   1   5    8.88    4.09
 -16   1  -6    9.97    4.39
 -16  -1   6   13.18    5.55
 -16   1   6    2.51    2.27
 -16  -1   7   12.71    5.89
 -16   1  -7    9.96    4.31
 -16   1  -8    6.97    3.70
 -16   1   8    1.95    2.08
 -16  -1   9    9.52    5.02
 -16   1  -9   11.87    4.47
 -16   1   9    0.34    1.07
 -16  -1  10    5.74    4.14
 -16   1  10   -1.29    1.72
 -16  -1  11    4.65    3.95
 -16   1  11   -0.06    0.64
 -16  -1  12    2.11    2.96
 -16   1  12   -2.08    2.16
 -16  -1  13    2.40    2.35
 -17  -1   0   46.32    9.77
 -17   1   0   20.84    6.23
 -17   1  -1    5.63    3.00
 -17   1   1   12.95    5.28
 -17   1  -2   19.92    6.05
 -17   1   2   14.60    5.44
 -17   1   3   19.02    5.88
 -17   1  -3   20.84    6.12
 -17  -1   4   42.20    9.31
 -17   1  -4   25.69    6.63
 -17   1   4   27.31    7.31
 -17   1  -5   12.46    4.83
 -17   1   5    5.37    3.28
 -17   1   6    4.16    2.90
 -17   1  -6    9.49    4.40
 -17  -1   6   13.71    5.66
 -17   1  -7    2.75    2.30
 -17   1   7    0.98    1.86
 -17  -1   8    7.03    4.17
 -17   1  -8    7.49    3.92
 -17   1   8    6.18    3.76
 -17   1   9    4.39    3.12
 -17  -1   9   10.58    5.65
 -18   1   0   -0.90    1.39
 -18  -1   0   15.31    6.19
 -18  -1   1   22.65    7.19
 -18  -1  -1   15.99    6.35
 -18   1  -1    3.28    2.77
 -18   1   1    4.25    3.12
 -18  -1  -2   21.14    7.20
 -18   1   2    3.69    3.05
 -18   1  -2    4.08    3.24
 -18  -1   2   17.90    6.82
 -18   1  -3   -0.21    0.65
 -18   1   3   -0.27    1.62
 -18   1  -4    2.27    2.40
 -18   1   4    0.42    0.99
 -18   1  -5    1.49    1.86
 -18   1  -6   10.47    4.53
 -18   1  -7    3.83    2.95
 -19   1  -2   26.02    7.52
 -19   1  -3    5.08    3.79
 -19   1  -4    8.72    4.45
 -19   1  -5   16.13    5.79
 -19   1  -6    9.97    4.63
   0   2   0 7665.02   38.15
   0  -2   1    0.62    0.76
   0  -2   1    1.01    0.80
   0   2   1    3.63    1.14
   0   2  -1    0.88    0.67
   0  -2   2  322.07    9.50
   0   2  -2  312.86    9.65
   0   2  -2  316.02    9.72
   0  -2   2  318.13    9.75
   0   2  -3    1.14    1.04
   0   2  -3    1.74    1.31
   0  -2   3    0.61    0.92
   0  -2   3    0.21    0.55
   0  -2   4  806.14   18.37
   0  -2   4  801.68   16.86
   0   2  -4  784.34   18.18
   0   2  -4  815.27   17.04
   0   2  -5   -0.57    0.67
   0   2  -5    0.35    0.73
   0  -2   5    1.54    1.35
   0  -2  -6  695.35   18.79
   0   2  -6  698.28   17.92
   0   2   6  680.63   10.34
   0   2  -6  681.32   19.24
   0  -2   6  697.79   19.30
   0   2  -7    1.09    0.73
   0   2   7    0.25    0.42
   0   2  -7    2.15    1.62
   0  -2  -7   -0.42    0.86
   0   2   8   73.68    4.39
   0  -2  -8   71.27    6.38
   0   2  -8   70.26    6.87
   0   2   9   -0.17    0.33
   0  -2  -9    0.70    0.84
   0   2  -9    2.35    2.16
   0  -2  10  905.69   12.73
   0  -2 -10  934.43   18.89
   0   2 -10  958.51   27.68
   0   2  10  947.56   19.13
   0   2  11    1.10    0.86
   0  -2  11   -0.20    0.37
   0  -2 -11    2.15    1.76
   0   2 -11    3.78    3.29
   0   2  12  681.69   18.54
   0  -2  12  653.06   11.25
   0  -2 -12  655.54   18.13
   0   2 -12  690.49   25.15
   0  -2 -13    2.47    1.63
   0   2  13    0.11    0.62
   0  -2  14  159.86    5.75
   0  -2 -14  167.98   10.32
   0   2 -14  169.91   13.24
   0  -2 -15    2.78    2.13
   0   2 -15    1.40    2.76
   0  -2 -16  317.35   15.55
   0   2 -16  311.90   19.34
   0  -2 -17    2.00    2.12
   0   2 -17    1.91    2.09
   0  -2 -18   15.35    3.68
   0   2 -18   14.63    4.39
   0  -2 -19   -0.75    0.60
   0   2 -19   -0.16    1.29
   0   2 -20   63.22    9.65
   0  -2 -20   66.05    8.26
   0  -2 -21    1.97    1.44
   0   2 -21   -0.10    1.71
   0   2 -22   37.99    7.90
   0   2 -23    0.01    1.79
   0   2 -24    0.85    0.76
   0   2 -25    1.79    2.18
   0   2 -26   52.45   10.27
   0   2 -27   -0.18    1.26
   0   2 -28    6.68    3.73
   1  -2   0 3352.84   32.98
   1  -2   0 3240.00   25.57
  -1   2   0 3395.70   25.46
  -1   2   1 1888.74   16.10
  -1  -2   1 1880.92   25.14
   1  -2   1 1881.98   20.08
   1  -2   1 1824.67   21.66
  -1   2  -1 1873.67   21.49
   1  -2  -1 1879.06   25.78
   1  -2  -1 1852.66   16.33
  -1  -2   2 1925.75   25.97
   1  -2   2 1933.98   24.63
   1   2  -2 1933.54   25.08
   1  -2   2 1964.58   21.28
   1   2  -2 1996.70   26.48
  -1   2  -2 1947.37   24.38
   1  -2  -2 2037.51   27.78
  -1   2  -2 1979.87   21.66
  -1  -2   3  631.56   15.42
  -1   2  -3  635.56   15.08
   1  -2   3  623.42   12.93
   1   2  -3  635.28   15.57
   1  -2   3  634.59   15.31
   1  -2  -3  627.52   16.23
   1   2  -3  630.70   15.45
  -1   2  -3  620.99   13.00
  -1   2  -4   85.34    5.91
   1   2  -4   83.51    5.91
   1  -2  -4   83.21    6.12
   1  -2   4   82.26    5.87
  -1  -2   4   81.43    5.73
   1   2  -4   76.49    5.74
  -1   2  -4   78.18    4.96
  -1   2  -5   14.56    2.27
   1   2  -5   13.74    2.56
   1   2  -5   13.87    2.55
   1  -2   5   14.66    2.58
   1  -2  -5   14.72    2.64
  -1   2  -5   13.85    2.63
   1   2  -6   86.47    6.52
   1  -2   6   79.47    6.62
  -1   2  -6   82.71    5.74
  -1   2  -6   77.20    6.49
   1   2   6   78.44    4.18
   1  -2  -6   77.38    3.26
   1   2  -6   82.82    6.65
   1  -2  -6   84.74    6.46
  -1   2  -7   79.05    6.88
   1   2   7   77.44    4.51
   1  -2  -7   80.94    6.61
   1   2  -7   82.29    6.72
   1  -2  -7   78.03    3.91
   1   2  -7   80.15    7.06
   1   2   8   59.43    4.30
   1   2  -8   58.44    6.27
   1  -2  -8   55.32    3.72
  -1   2  -8   56.95    6.29
  -1   2  -9   86.87    7.97
   1  -2  -9   85.77    5.17
   1   2   9   84.11    5.56
   1   2  -9   92.01    8.14
   1   2 -10   29.44    4.78
  -1  -2  10   37.13    3.53
   1   2  10   26.05    3.35
   1  -2 -10   24.55    3.03
  -1   2 -10   25.74    4.58
   1   2 -11    2.52    1.66
  -1  -2  11    3.99    1.47
   1  -2 -11    1.69    0.81
  -1   2 -11    0.44    0.68
   1   2  11    1.17    0.81
   1   2 -12    2.01    0.77
  -1  -2  12    2.41    0.99
   1   2  12    2.19    0.84
   1  -2 -12    2.03    0.73
  -1   2 -12    1.64    0.92
  -1  -2  13    2.09    0.31
   1  -2 -13    4.07    1.45
   1   2 -13    2.66    1.10
  -1   2 -13    5.93    2.63
   1  -2 -14   41.60    5.04
  -1   2 -14   46.16    6.81
   1   2 -14   43.14    6.71
  -1  -2  14   42.24    3.82
   1  -2 -15   11.78    2.92
   1   2 -15   11.89    3.99
  -1   2 -15   11.18    3.58
  -1  -2  15   11.83    2.04
   1   2 -16    8.85    3.11
  -1  -2  16    9.67    1.82
  -1   2 -16    8.48    3.09
   1  -2 -16    9.40    2.68
  -1   2 -17    9.57    3.33
   1  -2 -17   11.17    2.93
   1   2 -17   10.49    3.62
  -1  -2  17   11.28    1.96
  -1  -2  18    5.68    1.32
  -1   2 -18    5.36    2.57
   1  -2 -18    7.35    2.76
   1   2 -18    8.17    3.21
   1  -2 -19    7.77    2.77
  -1   2 -19    8.81    3.57
   1   2 -19    6.64    2.90
   1  -2 -20   23.11    4.89
   1   2 -20   22.51    5.57
  -1   2 -20   20.18    5.66
   1   2 -21    3.74    2.42
   1  -2 -21    6.80    2.77
  -1   2 -21    6.47    3.45
  -1   2 -22    1.91    1.07
   1   2 -22    1.46    1.40
   1  -2 -22    2.76    1.75
   1  -2 -23    2.62    1.61
  -1   2 -23    5.72    3.01
   1   2 -23    1.84    0.64
  -1   2 -24    4.69    3.24
   1   2 -24    2.42    2.08
  -1   2 -25    5.64    3.26
   1   2 -25    6.28    3.56
  -1   2 -26    3.49    2.91
   1   2 -26    4.18    2.83
   1   2 -27    1.04    1.88
  -1   2 -27    0.70    0.89
   1   2 -28    2.87    2.96
  -1   2 -28    3.12    2.74
   2  -2   0  111.66    6.20
   2  -2   0   96.73    4.92
  -2   2   0  106.57    6.29
  -2  -2   1  526.38   14.48
  -2   2   1  523.86   14.04
   2  -2   1  538.97    8.97
  -2   2  -1  532.12   12.73
   2  -2   1  510.58   12.41
   2  -2   1  524.33   12.84
   2  -2  -1  524.71   14.07
  -2   2   2  213.31    9.56
   2   2  -2  211.98    9.35
   2  -2   2  216.35    7.73
  -2   2  -2  213.44    8.46
   2  -2   2  212.57    8.54
  -2   2  -2  217.67    6.11
  -2  -2   2  206.82    9.23
   2  -2  -2  217.22    9.48
   2  -2   2  219.44    6.15
  -2   2   3 1463.52   25.72
   2   2  -3 1519.64   25.77
  -2   2  -3 1478.67   17.71
  -2  -2   3 1476.29   25.10
  -2   2  -3 1442.32   23.84
   2  -2   3 1470.24   24.19
   2  -2   3 1447.23   18.94
   2  -2  -3 1486.69   25.70
  -2   2  -4  101.76    5.13
   2  -2   4   97.14    4.56
  -2   2  -4  101.75    6.74
  -2   2   4  104.60    7.27
   2   2  -4  108.35    6.96
   2  -2  -4  112.00    7.18
  -2  -2   4   98.66    6.82
   2  -2   4  101.84    6.75
   2   2  -5   61.70    6.07
  -2   2   5   44.81    4.73
  -2  -2   5   46.21    5.12
  -2   2  -5   39.67    4.42
   2  -2   5   43.47    4.53
   2  -2   5   37.25    2.49
   2   2  -5   48.78    5.04
   2  -2  -5   41.23    4.63
  -2   2   6   14.50    2.95
   2   2  -6   14.81    2.98
   2  -2   6   17.89    3.12
   2   2  -6   17.34    3.17
  -2   2  -6   16.76    3.21
   2  -2  -6   16.37    3.03
   2  -2   6   13.96    1.41
  -2   2   7  313.69   13.62
   2  -2  -7  321.59    8.54
   2   2   7  317.38   10.41
  -2   2  -7  309.53   13.89
   2   2  -7  317.86   14.26
  -2   2   8   22.83    3.79
   2   2  -8   19.48    3.50
   2   2   8   19.81    2.74
   2  -2  -8   19.76    2.31
  -2   2  -8   19.85    3.90
   2   2   9  310.14   11.53
   2   2  -9  306.68   15.27
  -2   2  -9  312.68   15.45
   2  -2  -9  307.48   10.23
  -2   2   9  317.29   14.33
   2   2  10   63.54    5.52
   2   2 -10   66.82    7.33
  -2   2 -10   63.37    7.34
   2  -2 -10   61.59    4.93
  -2   2  10   68.65    6.83
   2   2 -11    2.94    1.94
   2  -2 -11    2.11    0.90
  -2  -2  11    9.26    2.77
  -2   2 -11    2.54    1.97
   2   2  11    4.13    1.44
  -2   2 -12  103.03    9.79
   2  -2 -12  100.38    7.08
  -2  -2  12   99.89    6.55
   2   2 -12  104.94    9.92
   2  -2 -13  396.67   14.99
   2   2 -13  415.90   20.42
  -2  -2  13  399.75   13.23
  -2   2 -13  401.86   20.10
  -2  -2  14    1.74    0.61
  -2   2 -14    5.36    3.03
   2  -2 -14    3.89    1.89
   2   2 -14    4.64    2.60
   2   2 -15   13.36    3.78
  -2  -2  15   10.34    1.85
  -2   2 -15   14.54    3.95
   2  -2 -15   12.74    2.76
  -2  -2  16    3.42    1.33
   2   2 -16    1.84    1.90
  -2   2 -16    3.00    1.37
   2  -2 -16    2.83    1.65
   2  -2 -17  128.43   10.25
  -2   2 -17  123.81   12.52
   2   2 -17  124.56   12.49
  -2  -2  17  126.95    8.11
   2  -2 -18   26.22    4.93
  -2   2 -18   28.67    6.29
   2   2 -18   25.45    5.86
  -2  -2  18   23.49    3.48
   2   2 -19   96.24   11.53
  -2   2 -19   86.82   10.85
   2  -2 -19   85.34    9.08
  -2   2 -20    7.77    3.79
   2  -2 -20   10.33    3.29
   2   2 -20    9.53    3.95
  -2   2 -21   -0.08    0.41
   2  -2 -21    0.94    1.10
   2   2 -21   -1.13    1.08
   2  -2 -22    1.87    1.52
  -2   2 -22    1.31    1.42
   2   2 -22    0.44    1.22
  -2   2 -23   83.61   12.20
   2  -2 -23   83.86   10.06
   2   2 -23   83.94   12.11
  -2   2 -24    6.82    3.49
   2   2 -24    5.21    3.20
  -2   2 -25   28.59    7.47
   2   2 -25   31.58    7.75
  -2   2 -26    0.94    1.46
   2   2 -26    2.79    2.67
  -2   2 -27    5.50    3.43
   2   2 -27    6.39    3.58
   2   2 -28    4.94    2.97
  -3   2   0  165.30    8.10
   3  -2   0  166.59    8.17
  -3  -2   1  164.74    8.73
   3  -2   1  175.29    7.98
   3  -2  -1  176.28    8.70
  -3   2   1  165.97    8.52
  -3   2  -1  172.70    7.87
   3  -2   2  354.69   11.92
  -3  -2   2  345.49   12.79
   3  -2   2  358.87   10.99
   3  -2  -2  359.98   12.92
  -3   2   2  366.47   12.98
  -3   2  -2  358.64   10.83
  -3  -2   3  758.97   19.30
   3  -2   3  772.49   18.57
   3   2  -3  778.13   19.73
   3  -2  -3  751.92   19.48
   3  -2   3  761.93   15.11
  -3   2   3  755.09   19.57
  -3   2  -3  757.39   11.06
  -3   2  -3  767.70   14.85
  -3   2   4   25.55    4.10
  -3   2  -4   23.22    2.38
   3  -2   4   23.61    3.40
   3  -2   4   22.02    2.49
   3  -2  -4   20.97    3.19
   3   2  -4   22.41    3.42
  -3  -2   4   21.45    3.14
  -3   2  -4   22.48    2.25
   3   2  -5  130.97    8.44
  -3  -2   5  126.16    8.29
  -3   2   5  131.46    8.53
   3  -2   5  125.24    8.26
   3  -2   5  119.99    5.24
   3  -2  -5  123.01    8.38
  -3   2  -5  118.75    5.09
  -3   2  -6  109.22    4.33
  -3   2   6  104.18    7.82
  -3   2  -6  104.08    7.91
  -3   2   7   20.80    3.47
  -3   2  -7   21.19    3.76
  -3   2  -8   34.55    4.90
   3   2  -8   34.47    4.78
  -3   2   8   37.91    4.92
   3   2  -9    9.49    2.08
   3  -2  -9   10.02    1.84
  -3   2  -9   11.26    2.90
  -3   2   9    9.88    2.77
   3   2   9   10.52    2.34
  -3   2 -10   32.72    5.01
   3   2  10   29.26    3.91
  -3   2  10   30.81    4.82
   3  -2 -10   29.97    3.52
   3   2 -10   30.40    5.09
   3   2 -11   98.55    9.31
  -3   2 -11   98.35    9.41
  -3  -2  11  104.76    7.51
  -3   2  11   98.60    8.85
   3  -2 -11   98.28    6.93
  -3   2  12   24.15    4.39
  -3   2 -12   20.96    4.48
   3  -2 -12   22.57    3.41
  -3  -2  12   29.74    4.36
   3   2 -12   21.29    4.39
   3  -2 -13    0.78    0.68
  -3   2  13   -1.03    1.22
  -3   2 -13   -1.13    1.96
  -3  -2  13    2.11    1.68
   3   2 -13   -1.35    1.59
   3   2 -14   -0.39    1.41
  -3  -2  14    1.28    0.79
   3  -2 -14    1.69    1.03
  -3   2  14    0.93    0.56
  -3   2 -14   -0.62    1.24
   3  -2 -15   18.04    3.51
  -3  -2  15   15.92    2.89
  -3   2 -15   13.31    3.44
   3   2 -15   13.81    3.47
   3  -2 -16    9.17    2.42
  -3   2 -16    8.30    2.97
   3   2 -16   10.25    2.65
  -3  -2  16    7.97    1.97
  -3  -2  17   -2.08    1.89
  -3   2 -17    0.06    1.20
   3  -2 -17   -1.32    1.44
   3   2 -17   -1.19    2.13
   3   2 -18   -1.19    2.71
  -3  -2  18    1.15    1.07
  -3   2 -18    1.71    1.15
   3  -2 -18   -0.60    1.58
   3   2 -19    6.95    2.71
   3  -2 -19    5.25    2.28
  -3  -2  19    7.09    2.13
  -3   2 -19    3.72    1.56
   3   2 -20    2.81    1.28
  -3   2 -20    2.38    2.19
   3  -2 -20    4.16    1.90
   3  -2 -21   14.65    3.80
  -3   2 -21   15.53    5.14
   3   2 -21   14.86    5.01
  -3   2 -22    4.16    2.55
   3  -2 -22    1.37    1.64
   3   2 -22   -0.33    1.45
  -3   2 -23    1.55    2.06
   3  -2 -23    5.63    2.83
   3   2 -23    2.19    2.01
   3   2 -24    1.79    1.98
   3   2 -25   -1.19    2.22
   3   2 -26    0.64    2.01
   3   2 -27    3.73    2.60
   3   2 -28    0.98    1.87
   4  -2   0   44.50    4.58
  -4   2   0   47.50    4.76
   4  -2  -1   47.64    4.89
  -4  -2   1   44.77    4.78
   4  -2   1   46.82    4.58
  -4   2  -1   48.63    4.64
  -4   2   1   47.14    4.87
  -4  -2   2   55.74    5.50
  -4   2   2   57.44    5.55
   4  -2   2   59.16    4.95
   4  -2  -2   58.11    5.61
  -4   2  -2   60.55    4.91
  -4   2  -3   97.33    3.42
  -4  -2   3  122.64    8.19
   4   2  -3  121.72    8.16
   4  -2  -3  122.68    8.33
  -4   2   3  120.95    8.30
   4  -2   3  118.56    7.95
   4  -2   3  116.73    6.62
  -4   2  -3  118.98    6.58
  -4  -2   4  407.09   15.56
   4  -2   4  424.39   15.41
  -4   2   4  410.86   15.78
   4  -2   4  388.09   11.30
  -4   2  -4  398.95   11.50
  -4  -2   5   12.94    2.84
  -4   2   5   12.98    3.07
  -4   2  -5   15.29    2.19
  -4   2   6    2.20    1.43
  -4   2  -6    3.53    1.02
  -4  -2   6    1.81    1.41
  -4   2  -7    3.05    0.90
  -4   2   7    2.39    1.19
  -4   2   8    7.77    2.38
  -4   2  -8    7.71    1.15
  -4   2   9   38.32    5.53
  -4   2  -9   33.73    2.02
  -4   2  10  140.68   10.64
   4   2 -10  138.25   11.02
   4   2 -11   24.19    4.90
   4  -2 -11   23.71    3.59
  -4   2  11   22.19    4.33
   4   2 -12  101.76    9.95
  -4  -2  12  106.24    8.40
   4  -2 -12   96.15    7.55
  -4   2  12   98.15    9.02
  -4  -2  13   56.52    6.30
   4   2 -13   48.48    7.14
  -4   2  13   47.58    6.61
   4  -2 -13   49.78    5.68
   4  -2 -14   24.14    4.07
   4   2 -14   27.35    5.40
  -4   2  14   21.76    4.25
  -4  -2  14   34.43    4.91
  -4   2  15   56.40    7.52
   4   2 -15   57.75    8.10
   4  -2 -15   58.01    6.49
  -4  -2  15   58.96    6.36
   4   2 -16   92.71   10.68
   4  -2 -16   90.41    8.40
  -4  -2  16   91.48    7.97
  -4   2  16   86.58    9.57
   4  -2 -17    3.48    1.80
   4   2 -17    0.28    1.91
  -4   2  17   -1.13    2.36
  -4  -2  17    3.26    0.97
  -4  -2  18    5.64    1.59
   4   2 -18    6.18    2.90
   4  -2 -18    5.29    2.32
   4  -2 -19   56.68    7.47
   4   2 -19   54.56    8.75
  -4  -2  19   55.77    6.56
   4   2 -20    0.37    1.35
   4  -2 -20    2.04    1.71
   4  -2 -21   23.52    5.21
   4   2 -21   22.08    5.81
   4   2 -22   16.13    5.36
   4  -2 -22   19.70    4.97
   4   2 -23   -1.02    1.87
   4   2 -24    0.18    0.72
   4   2 -25   25.71    7.02
   4   2 -26   17.27    5.85
   4   2 -27   14.53    5.58
   5  -2   0  177.79    9.85
  -5   2   0  186.98    9.83
  -5  -2   1   34.21    4.36
   5  -2   1   43.15    4.87
  -5   2   1   35.79    4.30
  -5   2  -1   34.70    4.19
   5  -2   2   66.15    5.81
  -5   2  -2   66.55    5.39
  -5  -2   2   64.53    6.07
  -5   2   2   65.99    6.04
  -5   2  -3  137.08    7.85
  -5   2   3  131.24    8.96
  -5  -2   3  137.28    9.13
  -5   2  -4   38.37    3.89
  -5   2   4   32.65    4.43
  -5  -2   4   41.24    5.17
  -5   2  -5   41.56    3.93
  -5   2   5   41.78    5.53
  -5  -2   5   42.94    5.51
  -5  -2   6  173.80   11.06
  -5   2  -6  159.67    7.65
  -5   2   6  177.65   11.36
  -5   2  -7  234.16    8.77
  -5   2   7  246.21   13.71
  -5   2  -8   40.10    3.28
  -5   2   8   39.67    5.56
  -5   2  -9    3.43    0.76
  -5   2   9    5.01    2.31
  -5   2 -10    1.22    0.58
  -5   2  10    0.85    0.94
   5   2 -11   31.77    5.46
  -5   2 -11   28.81    1.87
  -5   2  11   36.82    5.91
   5   2 -12    7.44    2.93
   5  -2 -12    8.19    2.09
  -5   2  12    9.38    2.97
  -5  -2  13  119.97    9.68
  -5   2  13  117.79   10.77
   5  -2 -13  111.78    8.83
   5   2 -13  122.29   11.57
   5  -2 -14   49.15    6.02
  -5  -2  14   57.74    6.98
   5   2 -14   55.64    8.23
  -5   2  14   54.20    7.39
  -5   2  15  240.27   16.36
   5   2 -15  250.49   17.62
   5  -2 -15  247.44   14.18
  -5  -2  15  245.60   14.02
  -5  -2  16   38.00    5.58
   5  -2 -16   38.46    5.65
   5   2 -16   44.89    7.91
  -5   2  16   31.55    5.93
   5   2 -17   13.44    4.25
   5  -2 -17   14.06    3.46
  -5  -2  17   14.97    3.37
  -5   2  17   14.52    3.85
  -5   2  18   14.16    4.09
   5  -2 -18   12.79    3.42
   5   2 -18   13.46    4.25
  -5  -2  18   12.48    3.10
  -5   2  19   56.74    8.50
   5  -2 -19   56.15    7.61
   5   2 -19   54.18    9.02
  -5  -2  19   52.51    6.80
   5  -2 -20    6.79    2.75
  -5  -2  20    5.79    2.16
   5   2 -20    3.56    2.17
  -5   2  20    6.07    2.95
   5   2 -21    3.27    2.40
   5  -2 -21    2.33    1.60
   5  -2 -22    2.63    1.65
   5   2 -22    3.93    2.64
   5   2 -23   13.85    4.99
   5   2 -24    2.91    1.69
   5   2 -25    5.92    2.92
   5   2 -26    7.63    3.99
   5   2 -27    0.20    0.80
  -6  -2   0   -1.62    1.98
  -6   2   0   -0.32    0.86
   6  -2  -1   30.82    1.93
  -6   2  -1   36.01    4.51
  -6   2   1   34.52    4.42
  -6  -2   1   30.61    4.43
  -6  -2   2  206.23   11.82
  -6   2  -2  209.44   10.84
  -6   2   2  210.53   11.89
   6  -2  -2  209.29    6.40
   6  -2  -3   21.45    2.45
  -6  -2   3   23.47    4.21
  -6   2  -3   23.61    3.60
  -6   2   3   21.72    3.77
  -6  -2   4    3.61    1.47
  -6   2   4   -1.91    2.41
  -6   2  -4    2.02    1.02
  -6   2   5   26.06    3.92
  -6   2  -5   26.79    3.46
  -6  -2   5   27.44    4.72
  -6  -2   6  106.22    9.18
  -6   2  -6  105.94    6.91
  -6   2   6  101.62    8.85
  -6   2   7    0.70    0.91
  -6   2  -7    5.88    1.57
  -6   2   8    6.95    2.66
  -6   2  -8    6.32    1.46
  -6   2   9   -0.41    0.92
  -6   2  -9    0.41    0.42
  -6   2 -10   26.04    2.76
  -6   2  10   30.61    5.52
  -6   2  11   32.58    5.73
  -6   2 -11   28.97    2.75
  -6  -2  12   56.74    7.65
  -6   2 -12   46.10    3.08
  -6   2  12   47.47    6.91
   6   2 -13   18.53    4.81
  -6   2  13   17.17    4.35
  -6  -2  13   20.23    4.56
   6   2 -14  233.42   17.04
  -6  -2  14  220.98   13.98
   6  -2 -14  212.24   13.11
  -6   2  14  213.28   15.63
  -6   2  15   59.43    8.47
  -6  -2  15   58.46    7.61
   6  -2 -15   53.68    6.76
   6   2 -15   58.31    8.94
   6  -2 -16   97.76    9.50
  -6  -2  16  102.10    9.75
  -6   2  16   94.12   10.60
   6   2 -16  100.48   11.90
   6   2 -17    0.37    0.67
  -6   2  17    3.38    1.89
  -6  -2  17    1.86    1.41
   6  -2 -17    1.12    0.55
   6  -2 -18    8.71    2.92
  -6  -2  18    7.89    2.37
   6   2 -18    7.82    2.62
  -6   2  18    8.56    3.39
   6  -2 -19    0.10    1.03
  -6   2  19    0.37    0.61
   6   2 -19    0.62    1.07
  -6  -2  19   -2.19    1.89
  -6  -2  20    8.46    2.30
   6  -2 -20   10.44    3.23
   6   2 -20    9.57    3.94
  -6   2  20   10.57    3.55
  -6   2  21    1.20    1.10
   6   2 -21    0.17    0.82
   6  -2 -21    0.73    0.72
   6   2 -22    3.78    2.56
   6  -2 -22    4.90    2.16
   6   2 -23    1.29    1.98
   6   2 -24   21.95    6.64
   6   2 -25    0.20    1.21
   6   2 -26    3.42    3.10
  -7  -2   0   -2.38    2.37
  -7   2   0    0.90    1.05
  -7   2  -1    3.29    1.50
  -7   2   1    2.84    1.48
  -7  -2   1   -0.10    1.19
  -7   2  -2   57.30    6.00
  -7  -2   2   60.25    6.69
  -7   2   2   55.42    6.65
   7  -2  -2   59.85    3.60
   7  -2  -3  106.57    5.58
  -7   2  -3  111.12    8.25
  -7   2   3  102.19    9.06
  -7  -2   3  109.24    9.17
  -7  -2   4   23.18    4.43
   7  -2  -4   21.45    2.77
  -7   2  -4   20.45    3.66
  -7   2   4   20.07    3.71
  -7  -2   5  106.81    9.33
   7  -2  -5  112.06    6.97
  -7   2  -5  101.26    7.55
  -7   2   5  108.74    9.52
  -7  -2   6   23.98    4.85
  -7   2  -6   21.26    3.53
  -7   2   6   19.76    3.99
  -7   2   7    3.92    0.76
  -7  -2   7    9.02    3.14
  -7   2  -7    8.05    2.26
  -7   2  -8  156.98    8.76
  -7   2   8  155.17   12.15
  -7   2   9   78.84    8.82
  -7   2  -9   74.15    5.90
  -7   2 -10   41.83    4.14
  -7   2  10   49.57    7.34
  -7   2  11   10.79    3.73
  -7   2 -11    4.81    1.37
  -7  -2  12   83.97    9.37
  -7   2 -12   65.47    4.68
  -7   2  12   65.21    8.65
  -7   2 -13   30.75    2.87
  -7  -2  13   41.83    6.79
  -7   2  13   32.02    6.01
  -7  -2  14   42.93    6.80
   7   2 -14   39.48    7.24
  -7   2  14   36.95    6.61
   7   2 -15   45.13    7.98
   7  -2 -15   48.32    6.72
  -7  -2  15   47.32    7.08
  -7   2  15   50.37    7.87
   7  -2 -16  153.87   12.39
  -7  -2  16  159.12   13.00
   7   2 -16  149.90   14.72
  -7   2  16  161.02   14.37
   7   2 -17   15.71    5.27
  -7   2  17   16.46    4.94
   7  -2 -17   15.01    4.02
  -7  -2  17   14.82    4.03
   7   2 -18   30.85    6.81
   7  -2 -18   31.59    5.82
  -7  -2  18   31.20    5.78
  -7   2  18   32.63    6.75
   7  -2 -19    1.14    1.03
   7   2 -19    0.32    2.06
  -7  -2  19   -2.56    2.35
  -7   2  19   -0.36    1.14
  -7   2  20    6.85    2.78
   7   2 -20    4.41    2.75
   7  -2 -20    6.24    2.69
  -7  -2  20    1.72    0.75
   7  -2 -21   12.67    4.04
  -7   2  21   12.13    4.24
   7   2 -21   10.40    4.16
  -7   2  22    2.08    1.44
   7   2 -22    1.96    2.19
  -7   2  23    4.74    2.62
   7   2 -23    7.80    3.99
   7   2 -24    2.33    1.81
   7   2 -25    4.46    3.03
   7   2 -26    0.55    1.14
  -8  -2   0   85.87    8.16
  -8   2   0   95.22    8.78
  -8  -2   1  199.27   12.42
  -8  -2  -1  201.38   12.45
  -8   2  -1  202.01   12.36
  -8   2   1  201.85   13.02
  -8  -2   2  181.64   12.17
  -8   2  -2  190.54   11.85
  -8   2   2  186.68   12.72
  -8  -2   3  116.01    9.69
   8  -2  -3  114.16    6.04
  -8   2  -3  101.99    3.64
  -8   2  -3  116.41    9.06
  -8   2   3  110.10    9.87
  -8   2   4  123.43   10.71
   8  -2  -4  125.26    7.07
  -8   2  -4  132.26    9.51
  -8  -2   4  118.80   10.15
   8  -2  -5  100.69    6.86
  -8   2  -5  103.50    8.37
  -8   2   5  111.79   10.40
  -8  -2   5  102.47    9.52
   8  -2  -6    7.78    2.14
  -8   2  -6    8.94    2.55
  -8   2   6    7.51    2.65
  -8  -2   6    6.62    2.60
  -8   2  -7   52.59    5.86
  -8   2   7   52.82    6.97
  -8  -2   7   51.98    6.97
  -8   2  -8   68.67    6.43
  -8   2   8   69.44    8.31
  -8   2  -9   51.69    5.47
  -8   2   9   47.61    6.66
  -8   2  10    5.70    2.30
  -8   2 -10   13.57    2.74
  -8   2 -11  105.07    7.18
  -8   2  11  103.94   11.16
  -8   2 -12   73.49    5.77
  -8  -2  12   88.05   10.34
  -8   2  12   77.00    9.42
  -8   2  13    6.99    3.00
  -8   2 -13    8.19    1.82
  -8  -2  14   34.90    6.61
  -8   2  14   24.19    5.54
  -8  -2  15   77.17    9.47
   8   2 -15   74.90   10.22
  -8   2  15   72.98    9.83
   8   2 -16   32.46    7.02
  -8  -2  16   33.31    6.44
   8  -2 -16   32.13    5.98
  -8   2  16   31.60    6.71
  -8   2  17   21.70    5.48
  -8  -2  17   21.39    5.08
   8  -2 -17   22.04    5.00
   8   2 -17   25.27    6.36
   8  -2 -18   29.78    5.93
  -8   2  18   27.01    6.07
  -8  -2  18   27.09    5.71
   8   2 -18   29.57    6.96
   8  -2 -19   10.75    3.91
   8   2 -19    7.94    3.72
  -8   2  19    6.20    2.95
  -8  -2  19    7.16    2.75
   8   2 -20   -0.46    1.99
  -8   2  20    1.47    1.18
   8  -2 -20    1.73    2.26
  -8  -2  20    0.40    0.81
  -8  -2  21   22.64    5.34
   8  -2 -21   32.18    6.51
   8   2 -21   31.85    7.89
  -8   2  21   26.77    6.54
   8   2 -22   16.39    5.86
  -8   2  22   12.82    4.56
   8   2 -23    5.57    3.49
  -8   2  23    3.42    2.46
   8   2 -24   15.55    5.67
  -8   2  24   15.44    5.06
   8   2 -25    9.56    4.86
  -9  -2   0    9.40    2.49
  -9   2   0   11.08    3.33
  -9  -2  -1   16.95    3.38
  -9   2   1   20.22    4.46
  -9  -2   1   17.10    3.84
  -9   2  -1   18.54    4.14
  -9  -2   2    5.15    2.19
  -9   2  -2    7.45    2.60
  -9   2   2    4.67    2.12
  -9  -2   3    6.11    2.62
   9  -2  -3    4.02    0.87
  -9   2  -3    4.37    0.85
  -9   2  -3    5.80    2.50
  -9   2   3    4.86    2.27
  -9  -2   4    0.74    0.95
  -9   2  -4    0.74    0.41
   9  -2  -4    0.23    0.29
  -9   2   4   -1.24    1.68
   9  -2  -5    1.85    1.10
  -9  -2   5    2.28    1.87
  -9   2  -5    1.53    1.22
  -9   2   5   -0.03    1.43
  -9  -2   6    4.43    1.99
  -9   2  -6    4.71    2.21
  -9   2   6    0.60    1.86
   9  -2  -6    5.20    1.77
  -9   2  -7    8.80    2.71
  -9   2   7    4.48    1.87
  -9  -2   7    9.33    3.35
  -9   2   8    9.26    2.02
  -9   2  -8   15.27    3.42
  -9   2   9   -3.81    3.07
  -9   2  -9    0.51    1.53
  -9   2  10   -3.64    2.94
  -9   2 -10    2.06    1.56
  -9   2  11   -0.97    2.94
  -9   2 -11    5.90    1.98
  -9   2  12    4.42    1.81
  -9   2 -12    6.10    1.81
  -9   2  13    3.26    2.35
  -9   2 -13    3.17    1.22
  -9  -2  14   10.73    4.28
  -9   2  14    2.21    1.80
  -9  -2  15    4.01    3.05
  -9   2  15   -0.75    1.17
  -9  -2  16    3.65    2.27
   9   2 -16    1.67    1.09
  -9   2  16    1.39    0.93
   9   2 -17    1.39    1.45
   9  -2 -17    1.17    1.20
  -9   2  17   -1.64    2.52
  -9  -2  17    3.35    2.26
   9   2 -18    7.92    3.74
   9  -2 -18    6.20    2.85
  -9   2  18    4.35    2.35
  -9  -2  18    6.45    3.16
  -9   2  19   -0.27    1.01
   9  -2 -19   -0.59    1.46
   9   2 -19    0.52    1.70
  -9  -2  19   -2.30    2.00
   9   2 -20   -3.02    3.11
  -9   2  20   -1.81    2.20
  -9  -2  20   -1.99    1.95
   9  -2 -20    0.27    0.78
  -9   2  21    0.24    0.76
   9   2 -21    1.94    2.10
  -9  -2  21   -2.20    2.24
   9   2 -22    1.72    1.36
  -9   2  22    2.20    1.96
  -9   2  23    2.07    2.26
   9   2 -23   -0.79    1.14
   9   2 -24   -0.43    1.09
  -9   2  24   -0.49    1.56
  -9   2  25   -0.50    1.31
 -10   2   0   28.31    5.12
 -10  -2   0   26.57    4.84
 -10  -2  -1   93.54    9.46
 -10  -2   1   90.70    9.28
 -10   2   1   91.02    9.58
 -10   2  -1   95.90    9.41
 -10  -2   2  155.98   12.28
 -10   2   2  155.77   12.98
 -10   2  -2  156.74   12.05
 -10  -2  -2  155.55   12.20
 -10  -2   3  104.22   10.24
 -10   2  -3  104.17    4.55
 -10   2  -3  113.92   10.13
 -10   2   3  111.40   10.97
  10  -2  -4   57.11    5.06
 -10  -2   4   60.56    7.86
 -10   2  -4   64.08    7.59
 -10   2   4   60.98    8.15
 -10   2  -4   58.97    3.70
  10  -2  -5   83.94    6.66
 -10   2  -5   79.02    8.31
 -10   2  -5   88.23    5.00
 -10   2   5   83.29    9.59
 -10  -2   5   79.16    9.11
 -10  -2   6   32.07    5.89
  10  -2  -6   35.67    4.64
 -10   2   6   32.83    5.81
 -10   2  -6   38.58    5.72
 -10   2  -7   31.87    5.29
 -10   2   7   32.74    6.15
 -10   2  -8   78.22    7.94
 -10   2   8   71.88    9.39
 -10   2  -9   73.74    7.57
 -10   2   9   72.20    9.45
 -10   2  10   29.37    5.89
 -10   2 -10   37.09    5.35
 -10  -2  11  155.16   14.30
 -10   2 -11  119.44    9.19
 -10   2  11  111.43   12.38
 -10  -2  12   99.46   11.90
 -10   2  12   77.58   10.23
 -10   2 -12   86.10    7.59
 -10  -2  13   49.38    8.80
 -10   2  13   34.20    7.10
 -10   2  14   30.36    6.82
 -10  -2  14   46.38    8.23
 -10  -2  15   46.21    8.20
 -10   2  15   45.43    8.40
 -10  -2  16   18.83    5.31
 -10   2  16   16.46    4.96
 -10  -2  17   36.67    7.21
  10   2 -17   37.64    8.33
 -10   2  17   35.25    7.58
 -10  -2  18   38.06    7.46
  10  -2 -18   40.70    7.44
  10   2 -18   37.93    8.18
 -10   2  18   35.75    7.90
  10  -2 -19   17.19    4.83
  10   2 -19   18.26    5.92
 -10  -2  19   14.50    4.52
 -10   2  19   16.90    5.21
  10   2 -20    6.26    3.91
  10  -2 -20    3.71    2.52
 -10   2  20    1.02    0.57
 -10  -2  20    2.22    1.61
  10   2 -21   11.95    4.74
 -10   2  21   13.21    4.85
 -10  -2  21   12.83    4.24
  10   2 -22   11.73    5.15
 -10   2  22   10.13    4.42
  10   2 -23    5.14    3.42
 -10   2  23    5.95    3.54
 -10   2  24    9.65    4.70
 -10   2  25    8.51    4.45
 -11  -2   0   -1.84    1.94
 -11   2   0   -0.57    1.72
 -11  -2   1   86.82    9.49
 -11  -2  -1   79.94    8.86
 -11   2  -1   81.27    9.19
 -11   2   1   81.70    9.70
 -11  -2  -2    2.55    1.05
 -11   2  -2    5.21    2.56
 -11   2   2    5.48    3.02
 -11  -2   2    6.04    2.93
 -11  -2   3  140.00   12.13
 -11   2  -3  138.05    5.63
 -11   2   3  134.89   12.91
 -11   2  -3  137.06   11.81
 -11  -2  -3  132.89   11.76
 -11  -2   4    0.78    0.97
 -11   2   4    0.58    0.95
 -11   2  -4    1.32    0.63
 -11   2  -4    3.12    2.33
 -11   2  -5    9.82    1.71
 -11  -2   5    5.60    2.19
 -11   2  -5   11.84    3.61
 -11   2   5    9.49    3.45
 -11  -2   6    0.43    1.71
 -11   2  -6    1.12    0.25
 -11   2   6   -1.11    1.91
 -11   2  -7   10.92    3.19
 -11   2   7    9.53    3.22
 -11   2  -8   22.73    4.52
 -11   2   8   17.05    4.21
 -11   2  -9    4.06    2.42
 -11   2   9   -0.95    1.60
 -11   2  10    0.45    1.72
 -11   2 -10    2.36    1.68
 -11   2 -11    1.70    1.06
 -11   2  11   -1.95    3.10
 -11  -2  12   13.63    5.30
 -11   2  12   -5.95    4.34
 -11  -2  13   15.71    5.45
 -11   2  13    0.84    0.76
 -11  -2  14   11.13    4.68
 -11   2  14    4.77    2.88
 -11  -2  15    2.51    2.74
 -11   2  15   -2.55    2.57
 -11  -2  16    1.39    1.79
 -11   2  16    3.36    2.63
 -11  -2  17    0.57    0.91
 -11   2  17    1.17    1.28
 -11  -2  18    1.74    0.96
  11   2 -18    1.46    2.39
 -11   2  18    3.37    2.66
  11   2 -19   -0.85    1.14
  11  -2 -19   -0.46    1.08
 -11  -2  19   -0.52    1.47
 -11   2  19   -2.40    0.51
 -11   2  20    0.04    1.43
 -11  -2  20   -1.01    2.53
  11   2 -20    4.32    2.93
  11   2 -21   -1.69    1.67
 -11   2  21   -0.62    1.22
 -11  -2  21   -1.43    2.01
 -11   2  22   -0.14    0.78
  11   2 -22    0.52    1.31
 -11   2  23    7.41    3.95
 -12   2   0  109.45   11.65
 -12  -2   0  119.79   11.42
 -12  -2  -1  185.55   14.28
 -12  -2   1  187.37   14.50
 -12   2   1  176.00   14.99
 -12   2  -1  180.09   14.64
 -12  -2   2   86.17    9.94
 -12  -2  -2   88.35    9.57
 -12   2  -2   83.35    9.83
 -12   2   2   82.80   10.33
 -12   2  -3   18.79    4.51
 -12   2   3   16.20    4.04
 -12  -2  -3   11.79    2.90
 -12  -2   3   17.39    4.41
 -12  -2   4   75.39    9.25
 -12   2  -4   70.98    8.89
 -12   2   4   72.89    9.72
 -12  -2  -4   70.89    8.65
 -12  -2   5   53.22    8.15
 -12   2  -5   51.86    7.30
 -12   2   5   50.11    7.90
 -12   2  -6   25.60    5.14
 -12  -2   6   20.72    5.12
 -12   2   6   21.19    5.19
 -12   2  -7   32.84    5.79
 -12   2   7   29.93    6.31
 -12   2  -8   54.27    7.32
 -12   2   8   54.30    9.00
 -12   2  -9   51.67    7.05
 -12   2   9   42.44    8.02
 -12   2 -10   23.17    4.70
 -12   2  10   21.72    5.58
 -12   2  11   19.45    5.23
 -12   2 -11   21.24    4.37
 -12  -2  12   49.92    9.23
 -12   2  12   34.60    7.58
 -12  -2  13   67.31   10.55
 -12   2  13   45.62    8.42
 -12   2  14   27.05    6.47
 -12  -2  14   32.27    7.50
 -12  -2  15   12.28    4.85
 -12   2  15   10.23    4.30
 -12  -2  16   15.76    5.35
 -12   2  16   15.94    5.38
 -12   2  17   14.33    5.26
 -12  -2  17   16.11    5.20
  12   2 -18   19.42    6.41
 -12  -2  18   20.38    6.04
 -12   2  18   20.95    6.39
 -12  -2  19    9.15    3.95
 -12   2  19    9.62    4.38
  12   2 -19    6.84    4.20
 -12  -2  20    3.38    2.35
  12   2 -20    7.81    4.43
 -12   2  20    5.93    3.01
 -12   2  21   -1.45    1.87
 -12  -2  21    2.97    2.04
 -13  -2   0  201.87   15.59
 -13   2   0  194.37   16.17
 -13  -2  -1   12.78    4.24
 -13  -2   1   17.12    4.90
 -13   2  -1   11.49    4.00
 -13   2   1   14.43    4.71
 -13  -2  -2   10.68    3.38
 -13   2  -2   15.54    4.57
 -13   2   2   10.45    4.10
 -13  -2   2   11.11    3.69
 -13  -2  -3   29.06    5.78
 -13  -2   3   25.51    5.42
 -13   2  -3   23.68    5.62
 -13   2   3   23.22    5.67
 -13  -2   4    8.15    3.33
 -13  -2  -4    3.50    1.26
 -13   2  -4    9.79    3.59
 -13   2   4    5.47    2.61
 -13  -2   5   -0.62    1.03
 -13   2  -5    1.70    1.61
 -13  -2  -5   -1.69    2.71
 -13   2   5   -0.21    0.65
 -13   2  -6    0.65    1.45
 -13   2   6    2.83    2.12
 -13  -2   6    1.66    1.43
 -13   2  -7   12.74    3.93
 -13   2   7    9.97    3.67
 -13   2  -8   18.41    4.59
 -13   2   8   19.06    5.47
 -13   2  -9    4.90    2.36
 -13   2   9    3.03    1.21
 -13   2 -10    5.14    2.54
 -13   2  10    1.45    1.43
 -13  -2  11   72.73   11.28
 -13   2  11   49.02    9.10
 -13  -2  12   27.04    7.39
 -13   2  12   15.09    5.04
 -13   2  13   -0.91    2.11
 -13  -2  13   10.10    4.77
 -13   2  14   -1.81    2.08
 -13  -2  14    6.11    4.03
 -13   2  15    1.02    1.75
 -13  -2  15    4.83    3.20
 -13  -2  16    4.61    3.27
 -13   2  16    1.41    1.86
 -13   2  17   19.10    6.08
 -13  -2  17   19.62    5.90
 -13  -2  18    1.78    1.53
 -13   2  18    3.36    2.92
  13   2 -19   -1.57    2.20
 -13  -2  19    0.70    1.47
 -13   2  19   -0.48    1.13
 -13  -2  20   -2.64    2.39
 -13  -2  21   -2.74    2.99
 -14  -2   0   73.00    9.66
 -14   2   0   66.11    9.80
 -14  -2  -1    6.39    2.99
 -14  -2   1    6.69    3.82
 -14   2  -1    5.03    2.51
 -14   2   1    5.84    2.93
 -14   2   2    0.97    1.24
 -14  -2  -2    3.62    2.17
 -14   2  -2    2.45    2.29
 -14  -2   2    2.74    2.07
 -14  -2  -3   10.95    3.72
 -14  -2   3   15.55    4.74
 -14   2  -3   14.35    4.61
 -14   2   3   14.81    4.55
 -14  -2  -4   40.56    6.97
 -14   2  -4   35.50    6.92
 -14   2   4   42.05    8.24
 -14  -2   4   39.64    7.37
 -14  -2  -5   15.26    4.06
 -14   2  -5   21.13    5.43
 -14   2   5   16.83    4.97
 -14  -2   5   19.89    5.59
 -14  -2  -6   22.94    4.98
 -14   2  -6   28.52    6.02
 -14   2   6   25.16    6.18
 -14   2  -7    9.62    3.53
 -14   2   7    5.38    2.85
 -14   2  -8    9.09    3.61
 -14   2   8    7.84    2.92
 -14   2  -9   26.06    5.72
 -14   2   9   22.06    6.18
 -14  -2  10   34.61    8.49
 -14   2  10   22.60    6.28
 -14  -2  11   14.52    6.07
 -14   2  11    0.41    1.68
 -14   2  12   14.99    5.09
 -14  -2  12   30.95    7.91
 -14   2  13    5.27    2.72
 -14  -2  13   15.09    5.82
 -14  -2  14   22.36    6.73
 -14   2  14   20.26    6.38
 -14   2  15    6.64    4.14
 -14  -2  15    8.29    4.46
 -14   2  16   25.10    7.34
 -14  -2  16   27.77    7.64
 -14   2  17    4.31    3.46
 -14  -2  17    2.40    2.52
 -14  -2  18    0.26    1.79
 -14  -2  19    2.04    2.11
 -15   2   0   -3.01    2.49
 -15  -2   0    2.66    2.09
 -15  -2   1    1.34    1.31
 -15  -2  -1    2.43    2.24
 -15   2  -1   -0.25    1.66
 -15   2   1   -2.00    2.36
 -15  -2   2    1.42    1.48
 -15   2  -2   -1.53    1.87
 -15   2   2   -1.06    1.43
 -15  -2  -2    1.74    2.28
 -15  -2   3    1.21    1.75
 -15  -2  -3   -2.23    2.19
 -15   2  -3   -1.40    1.75
 -15   2   3   -0.23    1.55
 -15  -2  -4    0.89    1.30
 -15   2  -4    0.79    0.79
 -15   2   4    1.80    2.35
 -15  -2   4    2.97    2.65
 -15  -2  -5    1.36    1.04
 -15   2  -5    5.76    2.87
 -15  -2   5    5.50    2.80
 -15   2   5    4.74    2.15
 -15  -2  -6    0.88    1.11
 -15   2  -6    3.14    2.20
 -15   2   6    1.36    0.74
 -15   2  -7    5.79    2.87
 -15   2   7    1.12    0.67
 -15  -2  -7    3.81    1.50
 -15  -2  -8   -0.81    1.63
 -15   2   8   -0.68    1.35
 -15  -2   9   14.79    6.72
 -15   2   9   -1.75    2.80
 -15  -2  10   17.95    6.93
 -15   2  10    2.16    2.04
 -15   2  11   -0.80    2.48
 -15  -2  11    9.06    4.83
 -15   2  12   -2.13    2.95
 -15  -2  12   14.50    5.91
 -15   2  13    4.45    2.30
 -15  -2  13   15.57    6.01
 -15  -2  14    8.00    4.75
 -15   2  14    0.63    1.83
 -15  -2  15    9.63    4.78
 -15  -2  16    5.26    3.60
 -16  -2   0    1.32    1.29
 -16   2   0    0.98    1.68
 -16  -2   1    4.83    2.81
 -16   2  -1    3.33    2.53
 -16   2   1    2.77    2.04
 -16  -2  -1    5.82    3.26
 -16  -2   2    2.52    2.07
 -16  -2  -2    3.81    2.38
 -16   2  -2    5.57    3.13
 -16   2   2   -0.18    1.31
 -16  -2   3   25.76    6.12
 -16   2  -3   25.42    6.32
 -16   2   3   25.24    6.45
 -16  -2  -3   30.49    6.59
 -16  -2  -4    4.60    2.68
 -16  -2   4    5.74    3.23
 -16   2  -4    4.10    2.48
 -16   2   4    2.90    2.70
 -16  -2  -5    3.57    2.28
 -16   2  -5    3.84    2.59
 -16   2   5    1.63    1.50
 -16   2  -6    4.34    2.40
 -16   2   6    1.72    1.36
 -16  -2  -7   20.67    5.59
 -16   2  -7   18.81    5.06
 -16   2   7   20.94    6.34
 -16  -2  -8    0.52    1.25
 -16   2  -8    2.54    1.87
 -16   2   8    1.23    0.94
 -16  -2   9   16.70    6.72
 -16   2   9    2.07    0.60
 -16  -2  10   11.49    5.63
 -16   2  10   -1.19    2.18
 -16   2  11    3.20    1.67
 -16  -2  11   14.57    6.03
 -16  -2  12   19.22    6.66
 -17   2   0    0.54    1.01
 -17   2  -1   -1.02    2.03
 -17   2   1    0.85    0.60
 -17  -2   2    0.13    1.11
 -17   2  -2   -1.14    1.92
 -17   2   2   -2.77    2.79
 -17  -2   3    1.68    1.61
 -17   2  -3   -0.92    1.63
 -17   2   3   -1.51    1.71
 -17   2   4   -3.04    2.84
 -17   2  -4    1.67    1.50
 -17   2  -5   -0.30    1.02
 -17   2   5   -2.81    2.88
 -17   2  -6    0.57    0.69
 -17   2   6    0.55    0.62
 -17   2  -7    0.20    0.92
 -17   2   7    0.79    0.63
 -17  -2   8   18.43    7.00
 -17   2   8    3.30    2.04
 -18   2   0    3.74    1.52
 -18   2  -1   23.59    6.70
 -18   2   1   26.10    7.13
 -18   2  -2    4.20    2.58
 -18   2   2    2.70    2.04
 -18   2  -3    0.72    0.50
 -18   2   3    1.84    1.64
 -18   2  -4    6.27    3.05
 -18   2   4    2.02    1.73
 -18   2  -5   17.11    5.66
 -18   2  -6    6.52    3.22
 -19   2  -2    0.92    1.43
 -19   2  -3    0.26    0.59
 -19   2  -4   -1.09    2.35
   0   3   0    4.94    1.70
   0  -3   1  713.44   17.12
   0   3  -1  712.72   15.68
   0   3   1  714.27   12.79
   0  -3   2   -0.38    0.61
   0   3  -2    0.90    1.12
   0   3   2    1.93    0.86
   0  -3   3  344.56   12.23
   0   3  -3  334.06   12.51
   0   3   3  331.31    6.17
   0  -3   3  332.30   12.47
   0  -3   4    0.24    1.01
   0   3  -4    0.22    0.68
   0   3  -4    0.03    0.68
   0  -3   4   -0.08    0.22
   0   3  -5  291.38   13.00
   0  -3   5  307.66   13.19
   0   3  -5  304.76   12.48
   0  -3   5  306.73   12.43
   0   3  -6    1.01    1.12
   0   3  -6    1.33    1.01
   0   3  -7    3.92    1.83
   0   3   8    0.72    0.45
   0   3  -8    1.52    1.67
   0   3  -9 1177.08   31.38
   0   3   9 1136.27   15.35
   0   3  10    0.52    0.54
   0   3 -10    1.45    2.46
   0   3 -11   53.29    7.21
   0   3  11   52.30    4.07
   0   3  12    0.10    0.40
   0   3 -12    0.88    0.88
   0   3 -13   44.23    6.97
   0  -3  13   47.21    3.12
   0  -3  14   -0.86    0.56
   0   3 -14    0.09    1.23
   0   3 -15   56.45    8.31
   0  -3  15   36.20    2.28
   0   3 -16    0.51    0.93
   0   3 -17   22.22    5.53
   0   3 -18   -0.01    1.36
   0   3 -19   32.94    7.05
   0   3 -20    0.29    1.66
   0   3 -21   33.82    7.56
   0   3 -22    1.88    2.35
   0   3 -23   -1.79    2.47
   0   3 -24   -1.65    2.38
   0   3 -25    1.80    1.69
   0   3 -26    1.08    0.66
   0   3 -27    5.26    3.52
   1  -3   0  888.45   15.90
   1   3   0  862.34   16.79
  -1   3   0  870.62   15.63
  -1  -3   1  406.24   14.00
   1  -3   1  397.86   11.88
  -1   3   1  413.05    9.48
  -1   3  -1  390.51   11.64
   1  -3   1  407.67   11.91
   1  -3  -1  401.96    9.45
   1   3  -1  399.19   12.15
   1  -3   2   97.23    6.06
   1  -3  -2  100.19    7.46
  -1  -3   2   98.80    6.95
  -1   3   2  100.41    3.95
  -1   3  -2   98.57    6.36
   1  -3   2  100.96    6.42
   1   3  -2   98.58    6.49
   1  -3  -2   96.25    3.95
   1  -3   3   98.27    6.14
   1  -3  -3  106.65    7.70
  -1   3  -3   98.52    6.82
   1  -3   3   97.44    6.70
   1   3  -3  100.21    6.91
  -1  -3   3   98.74    7.04
  -1  -3   4  423.51   14.88
  -1   3  -4  436.37   13.45
  -1   3  -4  434.54   14.81
   1  -3   4  436.63   15.03
   1   3  -4  414.03   15.01
   1   3  -4  447.30   15.35
   1  -3   4  414.73   13.31
  -1   3  -5  148.20    9.28
   1  -3   5  151.88    9.41
   1   3  -5  143.97    9.32
  -1   3  -5  150.47    8.25
  -1  -3   5  148.89    9.08
  -1   3  -6   30.27    3.85
   1   3  -6   29.03    4.46
  -1   3  -6   29.91    4.48
  -1  -3   6   30.94    4.42
  -1   3  -7  250.04   11.67
   1   3   7  239.10    6.93
  -1   3  -7  251.33   13.07
   1   3  -7  245.80   13.31
   1   3   8   86.69    4.54
  -1   3  -8   91.98    8.46
   1   3  -8   93.13    8.57
  -1   3  -9  123.70   10.21
   1   3   9  131.40    6.01
   1   3  -9  126.02   10.33
  -1   3 -10  568.86   22.57
   1   3  10  560.44   13.58
   1   3 -10  582.99   22.85
   1  -3  11  104.19    3.55
  -1   3 -11  133.63   11.23
   1   3 -11  117.05   10.80
   1   3  11  118.20    6.81
   1  -3 -12  128.90    6.80
   1   3 -12  128.33   11.66
   1   3  12  126.53    7.53
  -1   3 -12  128.18   11.71
   1  -3 -13  330.40   11.96
  -1  -3  13  332.51   10.53
   1   3 -13  344.39   19.43
   1   3  13  336.61   13.08
  -1   3 -13  349.71   19.70
   1  -3 -14  250.30   11.07
  -1   3 -14  259.72   17.51
   1   3 -14  250.43   17.17
  -1  -3  14  248.02    9.14
   1   3  14  239.29   11.58
   1  -3 -15   31.50    4.24
  -1  -3  15   30.92    3.14
  -1   3 -15   33.78    6.51
   1   3 -15   31.48    6.45
  -1   3 -16  275.91   18.97
   1   3 -16  280.93   19.08
  -1  -3  16  269.09    9.33
   1  -3 -16  275.83   13.03
   1   3 -17   87.59   10.99
   1  -3 -17   89.98    7.83
  -1   3 -17   88.91   11.18
  -1  -3  17   86.16    5.14
  -1   3 -18   23.22    6.03
   1   3 -18   26.75    6.38
  -1   3 -19   53.17    9.02
   1   3 -19   54.39    9.10
   1   3 -20   56.25    9.60
  -1   3 -20   57.67    9.74
  -1   3 -21   11.50    4.65
   1   3 -21   10.94    4.41
   1   3 -22   48.93    9.37
  -1   3 -22   44.17    9.01
  -1   3 -23   27.41    7.40
   1   3 -23   29.11    7.47
  -1   3 -24    7.45    4.15
   1   3 -24    8.71    4.06
  -1   3 -25   10.70    4.65
   1   3 -25   13.36    4.88
  -1   3 -26   22.78    6.95
   1   3 -26   22.71    6.70
   1   3 -27    3.20    2.61
   2  -3   0   83.58    5.21
   2  -3   0   86.93    6.64
   2  -3  -1  724.32   19.37
   2  -3   1  699.10   14.41
  -2   3  -1  695.28   15.97
   2  -3  -1  710.04   13.50
   2  -3   1  716.54   16.25
  -2  -3   1  710.32   19.48
   2  -3   1  714.53   18.04
   2  -3   2   52.59    3.93
  -2  -3   2   50.26    5.21
   2  -3   2   53.13    4.82
  -2   3  -2   51.78    4.70
   2  -3  -2   50.72    3.26
   2  -3   2   54.85    4.92
   2  -3  -2   56.67    5.65
   2  -3   3   10.58    2.33
   2  -3   3    8.66    1.67
  -2  -3   3    7.65    2.20
   2  -3  -3    6.44    0.98
   2  -3   3    6.95    1.54
  -2   3  -3    7.57    2.01
   2  -3   4   10.90    2.44
  -2   3  -4    9.21    1.80
   2   3  -4    8.56    1.96
  -2  -3   4   13.46    3.07
   2  -3   4    9.76    1.77
  -2   3  -4    9.78    2.36
  -2  -3   5  119.39    8.63
  -2   3  -5  117.30    6.78
   2   3  -5  113.52    8.41
  -2   3  -5  119.47    8.40
   2  -3   5  111.39    6.00
  -2  -3   6    1.79    1.41
   2  -3   6    0.47    0.25
  -2   3  -6    2.35    1.15
   2   3  -6   -0.42    1.12
  -2   3  -6    1.53    1.07
  -2   3  -7   18.69    3.02
   2   3  -7   15.13    3.35
  -2   3  -7   14.95    3.26
   2  -3   7   16.47    2.06
  -2   3  -8    1.16    0.96
   2   3  -8    0.62    0.41
   2  -3   8    0.68    0.45
   2   3   8    1.02    0.65
  -2   3  -8   -0.72    1.39
   2  -3  -8    1.00    0.42
   2   3   9   31.49    3.37
   2  -3  -9   29.54    2.40
   2   3  -9   31.27    5.35
   2  -3   9   26.86    2.06
  -2   3  -9   29.80    4.91
   2   3 -10   22.02    4.48
   2  -3 -10   20.58    2.33
   2   3  10   21.50    2.98
  -2   3 -10   18.82    3.64
   2  -3 -11   28.19    2.93
   2   3  11   27.29    3.51
   2   3 -11   29.62    5.48
  -2   3 -11   25.98    5.06
   2   3 -12   28.49    5.36
   2  -3 -12   28.68    3.20
   2   3  12   29.92    3.87
  -2   3 -12   25.41    5.00
   2   3 -13    0.44    0.81
   2  -3 -13    2.54    1.00
  -2   3 -13   -1.97    2.44
   2   3  13    3.10    1.32
   2   3 -14    7.13    3.03
  -2  -3  14   12.00    2.86
   2  -3 -14    6.63    1.61
  -2   3 -14    2.72    1.10
   2   3 -15    0.20    1.47
  -2  -3  15    5.20    1.77
   2  -3 -15    2.84    1.14
  -2   3 -15    0.20    1.69
   2   3 -16    2.18    1.01
  -2  -3  16    2.29    0.91
   2  -3 -16    2.22    1.18
  -2   3 -16    1.91    1.29
   2  -3 -17    0.90    0.78
  -2   3 -17    0.03    0.93
  -2  -3  17   -1.14    1.27
   2   3 -17   -2.14    1.84
   2  -3 -18    1.72    0.78
  -2   3 -18    1.09    1.41
   2  -3 -19   -0.83    1.17
  -2   3 -19   -1.89    1.78
   2   3 -19   -2.10    2.65
  -2   3 -20    1.82    1.67
   2   3 -20    1.34    1.76
  -2   3 -21    5.31    2.76
   2   3 -21    6.77    3.36
  -2   3 -22    0.06    0.69
   2   3 -22    0.25    0.68
  -2   3 -23    1.60    1.64
   2   3 -23    0.38    1.09
  -2   3 -24   -0.38    1.08
   2   3 -24    2.73    2.66
  -2   3 -25    6.04    3.59
   2   3 -25    1.80    2.05
  -2   3 -26    0.27    1.14
   2   3 -26   -0.10    0.79
   3  -3   0  340.97   11.27
   3  -3   0  342.05   13.52
   3  -3   1  427.60    9.66
  -3   3   1  429.32   15.48
   3  -3  -1  426.56   11.76
   3  -3   1  422.76   13.31
  -3  -3   1  411.69   15.86
   3  -3   1  417.79   14.46
   3  -3  -1  433.01   15.65
  -3   3   2  262.04   12.73
  -3  -3   2  255.51   12.66
   3  -3  -2  250.16    8.31
   3  -3   2  253.30   10.94
   3  -3   2  248.42    7.63
   3  -3   2  252.99   10.83
  -3  -3   3 1511.06   30.85
  -3   3   3 1524.65   30.96
   3  -3   3 1515.00   28.28
   3  -3   3 1501.93   25.42
  -3   3  -4  766.94   15.21
  -3   3   4  776.79   22.93
  -3  -3   4  758.03   22.40
  -3   3  -4  770.34   21.14
   3  -3   4  784.18   21.29
   3  -3   4  783.19   17.54
  -3   3  -5   52.62    4.28
  -3   3   5   69.19    7.43
  -3  -3   5   59.53    6.27
  -3   3  -5   56.24    6.08
   3  -3   5   54.51    4.43
  -3   3   6  438.72   18.17
  -3  -3   6  442.42   17.80
  -3   3  -6  437.70   17.37
   3   3  -6  446.23   17.88
   3  -3   6  441.17   11.82
  -3   3  -6  425.66   13.06
  -3   3  -7  371.51   12.96
  -3   3   7  370.61   16.98
  -3   3  -7  378.39   16.90
   3   3  -7  379.90   17.36
   3  -3   7  368.97   10.01
  -3  -3   7  375.27   17.03
  -3   3   8   30.27    5.51
   3   3  -8   19.37    4.20
  -3   3  -8   19.99    3.27
  -3   3  -8   21.17    4.79
   3  -3   8   17.04    1.95
   3  -3  -8   17.88    2.05
  -3   3  -9  490.17   20.56
   3  -3   9  423.65    7.80
   3  -3  -9  492.05   11.29
   3   3  -9  493.33   21.06
   3   3  10  108.48    7.29
  -3   3 -10  111.40   10.12
   3  -3 -10  104.72    5.65
   3   3 -10  101.92    9.95
   3   3 -11   32.35    5.67
  -3   3 -11   29.21    5.63
   3   3  11   32.23    4.17
   3  -3 -11   29.94    3.34
  -3   3 -12  318.21   18.52
   3  -3 -12  309.33   11.23
   3   3 -12  326.61   18.61
  -3   3 -13  191.06   14.79
   3  -3 -13  182.92    9.23
   3   3 -13  194.47   14.90
   3   3 -14   10.55    3.65
  -3   3 -14   12.07    3.73
   3  -3 -14   10.86    2.30
  -3   3 -15   41.73    7.14
   3  -3 -15   43.15    4.98
  -3  -3  15   47.59    5.44
   3   3 -15   38.82    6.94
   3   3 -16   27.24    5.65
   3  -3 -16   28.73    4.28
  -3  -3  16   27.03    4.00
  -3   3 -16   22.31    5.26
   3   3 -17   30.75    6.21
   3  -3 -17   30.06    4.54
  -3  -3  17   32.63    4.35
  -3   3 -17   33.31    6.86
  -3   3 -18   39.79    7.61
   3  -3 -18   36.15    5.20
   3   3 -18   37.58    7.39
  -3  -3  18   39.97    4.83
   3  -3 -19   25.06    4.47
  -3   3 -19   22.36    5.86
   3   3 -19   25.10    6.18
   3   3 -20    7.34    3.62
  -3   3 -20    7.37    3.58
  -3   3 -21    1.94    1.72
   3   3 -21   -0.93    2.07
  -3   3 -22    4.14    2.71
   3   3 -22    6.02    2.88
   3   3 -23   36.37    8.28
  -3   3 -23   37.74    8.30
   3   3 -24    1.54    1.09
  -3   3 -24    3.16    2.25
  -3   3 -25   16.17    5.95
   3   3 -25   15.00    5.42
   3   3 -26   11.14    4.76
  -4   3   0  179.12   10.07
   4  -3   0  173.15    5.26
   4  -3   0  179.34    8.90
   4  -3   1   48.09    2.68
  -4   3   1   57.12    5.78
  -4  -3   1   51.21    5.79
  -4   3  -1   54.74    5.33
   4  -3   1   49.22    4.88
   4  -3   1   55.21    5.44
  -4   3  -2   30.05    3.73
  -4  -3   2   24.30    3.72
  -4   3   2   27.34    4.14
   4  -3   2   28.04    3.89
   4  -3   2   27.10    3.71
  -4  -3   3   37.96    5.39
   4  -3   3   35.31    4.55
   4  -3   3   38.15    4.25
  -4   3  -3   36.97    4.11
  -4   3   3   35.85    4.63
  -4  -3   4    7.95    2.75
  -4   3  -4    6.64    1.15
  -4   3  -4    7.04    1.65
   4  -3   4    5.59    1.40
  -4   3   4    5.50    1.94
  -4   3  -5   22.23    2.61
  -4  -3   5   23.36    4.17
   4  -3   5   22.53    3.10
  -4   3   5   24.11    4.12
  -4   3  -6  188.42    8.13
  -4  -3   6  199.00   12.40
   4  -3   6  186.42    8.17
  -4   3   6  194.18   12.33
  -4   3   7   27.70    4.54
   4  -3   7   26.69    3.04
  -4  -3   7   24.91    4.60
  -4   3  -7   23.66    3.10
  -4   3   8    3.69    1.85
  -4   3  -8    3.04    1.32
   4   3  -9   22.37    4.68
  -4   3   9   19.80    4.10
   4   3 -10    8.14    2.63
   4  -3 -10    8.31    1.68
  -4   3 -10    7.40    2.53
  -4   3  10    8.75    2.93
   4  -3 -11    4.46    1.32
   4   3 -11    3.23    0.94
  -4   3  11    4.91    2.04
  -4   3 -11    5.63    1.90
   4  -3 -12   19.09    2.94
   4   3 -12   18.60    3.76
  -4   3 -12   14.54    3.56
  -4   3  12   17.27    4.13
   4  -3 -13    9.86    2.24
   4   3 -13    9.88    3.25
  -4   3 -13    8.22    2.39
  -4   3  13    9.86    3.17
   4   3 -14    0.46    0.67
  -4   3 -14    1.35    0.67
   4   3 -15   17.55    4.41
  -4  -3  15   31.79    4.86
   4  -3 -15   24.05    3.85
  -4   3 -15   23.21    5.59
  -4   3 -16    6.82    3.31
   4   3 -16   -0.25    2.41
  -4  -3  16    8.14    2.93
   4  -3 -16    5.89    1.95
  -4   3 -17   12.12    3.90
   4   3 -17   11.12    3.52
  -4  -3  17   14.53    3.18
   4  -3 -17   13.69    3.07
   4   3 -18    2.16    1.73
  -4   3 -18    4.60    2.28
  -4  -3  18    3.62    1.47
   4  -3 -18    5.56    1.91
   4   3 -19   -1.26    2.82
  -4   3 -19    0.51    0.79
   4   3 -20    1.05    0.83
   4   3 -21    0.10    1.12
   4   3 -22   -0.72    2.09
   4   3 -23    1.45    1.22
   4   3 -24    2.22    2.46
   4   3 -25   -2.71    2.73
   4   3 -26   -1.26    2.47
  -5   3   0  463.68   17.15
  -5  -3   1  653.77   22.13
  -5   3   1  647.56   20.85
  -5   3  -1  657.01   19.92
  -5  -3   2  199.87   12.16
   5  -3   2  203.14   10.74
  -5   3   2  201.38   12.11
  -5   3  -2  208.38   10.85
  -5  -3   3   83.11    7.87
   5  -3   3   87.71    6.82
  -5   3   3   89.70    8.17
  -5   3  -3   87.91    6.74
  -5   3  -4  110.06    4.31
  -5   3  -4  109.99    7.43
   5  -3   4  113.78    7.58
  -5  -3   4  122.71    9.77
  -5   3   4  115.58    9.51
  -5  -3   5  227.66   13.62
  -5   3   5  248.42   14.03
  -5   3  -5  229.32   10.33
   5  -3   5  223.51   10.21
  -5   3  -5  227.51    7.33
  -5   3  -6  217.38    9.58
  -5   3   6  219.14   13.66
   5  -3   6  213.82    9.35
  -5  -3   6  236.55   14.00
  -5   3  -6  221.15    8.08
  -5   3   7   67.50    7.70
  -5   3  -7   63.53    4.89
  -5   3  -7   61.84    4.79
  -5  -3   7   64.98    7.89
  -5   3   8    7.91    2.81
  -5  -3   8    6.69    2.87
  -5   3   9   21.46    4.71
  -5   3  10   82.93    9.14
   5   3 -10   87.41    9.63
  -5   3  11   55.57    7.55
   5   3 -11   54.08    7.75
  -5   3  12   31.26    5.66
   5   3 -12   30.27    5.72
   5  -3 -12   30.32    4.02
   5   3 -13    8.53    2.85
  -5   3  13    6.70    2.75
   5  -3 -13    8.39    2.22
  -5   3  14   45.56    7.31
  -5  -3  14   57.51    7.20
   5  -3 -14   45.13    5.33
   5   3 -14   49.97    8.26
  -5   3  15  210.59   15.96
  -5  -3  15  213.94   13.17
   5  -3 -15  208.96   11.91
   5   3 -15  205.91   16.83
  -5   3  16   65.17    9.09
   5  -3 -16   61.97    6.68
  -5  -3  16   70.74    7.76
   5   3 -16   63.36    9.58
   5  -3 -17    9.28    2.54
   5   3 -17   10.13    4.16
  -5  -3  17   14.95    3.65
   5   3 -18    5.92    2.62
  -5  -3  18   11.71    3.15
   5  -3 -18    8.95    2.83
   5   3 -19   51.00    9.14
  -5  -3  19   54.30    6.85
   5   3 -20   20.90    5.84
   5   3 -21   51.84    9.65
   5   3 -22   40.23    8.78
   5   3 -23    2.49    2.39
   5   3 -24    5.70    3.72
   5   3 -25   46.59    9.92
   5   3 -26    2.12    1.98
  -6  -3   0    9.43    1.46
  -6   3   0   14.58    3.39
  -6  -3   1   36.45    5.14
  -6   3  -1   40.32    5.28
  -6   3   1   37.25    5.30
  -6  -3   2   33.83    5.32
  -6   3  -2   38.03    4.98
  -6   3   2   39.20    5.76
  -6  -3   3  284.36   15.44
  -6   3  -3  284.73   13.03
  -6   3   3  277.43   15.13
  -6  -3   4  121.52   10.40
  -6   3  -4  116.05    8.31
  -6   3   4  126.01   10.28
  -6  -3   5  188.04   12.99
  -6   3  -5  179.79    5.64
  -6   3  -5  189.65   10.27
  -6   3   5  202.54   13.24
  -6  -3   6  129.12   10.88
  -6   3  -6  131.62    5.73
  -6   3  -6  131.16    8.22
  -6   3   6  133.79   11.10
  -6   3  -7  144.19    6.80
  -6  -3   7  145.72   11.79
  -6   3   7  143.29   11.72
  -6   3  -7  147.14    8.37
  -6   3   8   24.30    5.05
  -6  -3   8   26.32    5.43
  -6   3  -8   21.09    2.98
  -6   3  -9   21.59    2.88
  -6   3   9   24.93    5.15
  -6   3  10   13.52    3.75
  -6   3 -10   11.59    1.87
  -6   3  11   56.83    7.93
   6   3 -12   32.43    6.50
  -6   3  12   25.56    5.21
   6  -3 -13   23.63    3.92
  -6   3  13   21.54    4.99
   6   3 -13   23.92    5.60
  -6   3  14   65.33    8.95
  -6  -3  14   81.57    8.78
   6  -3 -14   60.81    6.37
   6   3 -14   65.08    9.28
   6  -3 -15    6.12    1.88
  -6   3  15    5.42    2.60
  -6  -3  15   16.58    4.78
   6   3 -15    7.25    3.04
   6  -3 -16   18.82    3.78
  -6  -3  16   34.90    5.90
   6   3 -16   21.48    5.53
  -6   3  16   21.86    5.24
  -6   3  17   39.47    7.33
   6  -3 -17   41.72    5.85
  -6  -3  17   45.97    6.62
   6   3 -17   42.66    8.28
  -6   3  18   16.53    4.77
   6   3 -18   16.53    5.37
   6  -3 -18   16.63    3.82
  -6  -3  18   17.44    4.18
  -6   3  19   36.05    7.23
   6   3 -19   40.85    8.19
  -6  -3  19   40.64    6.31
   6   3 -20   10.15    4.53
   6   3 -21    0.79    1.02
   6   3 -22    1.19    1.65
   6   3 -23    0.89    2.30
   6   3 -24    1.07    1.53
   6   3 -25   15.78    5.80
  -7   3   0    0.98    1.30
  -7  -3   0   -3.38    2.72
  -7  -3   1   15.23    3.46
  -7   3   1   22.25    4.39
  -7   3  -1   20.50    4.38
   7  -3  -2  403.46    7.65
  -7  -3   2  469.13   20.16
  -7   3  -2  456.77   18.14
  -7   3   2  447.86   19.66
   7  -3  -3   16.35    1.96
  -7  -3   3   15.83    4.13
  -7   3   3   19.36    4.67
  -7   3  -3   17.99    4.03
  -7  -3   4    5.31    2.62
  -7   3  -4    2.55    1.75
  -7   3   4    2.25    2.05
  -7  -3   5   27.60    5.31
  -7   3  -5   31.00    4.64
  -7   3   5   29.54    5.42
  -7   3  -6  237.53    6.96
  -7   3  -6  250.63   12.22
  -7   3   6  249.19   15.77
  -7  -3   6  249.38   15.76
  -7  -3   7   13.08    4.01
  -7   3  -7    9.31    2.62
  -7   3   7   12.97    3.99
  -7  -3   8  404.74   20.49
  -7   3  -8  397.58   14.39
  -7   3   8  401.06   20.78
  -7   3   9   23.25    5.31
  -7   3  -9   20.29    3.18
  -7   3  10   14.75    4.32
  -7   3 -10   14.07    2.50
  -7   3 -11   50.66    4.28
  -7   3  11   56.09    8.37
  -7   3  12  471.80   24.02
  -7   3 -12  445.20   11.16
  -7   3  13    5.75    3.46
   7   3 -13    5.57    3.49
  -7  -3  14  360.91   18.80
   7   3 -14  374.55   23.40
   7  -3 -14  360.11   16.75
  -7   3  14  358.87   22.05
   7   3 -15   20.05    5.64
  -7  -3  15   29.11    5.88
   7  -3 -15   14.89    3.69
  -7   3  15   17.33    5.06
  -7  -3  16   15.91    4.77
   7  -3 -16    8.07    2.63
   7   3 -16    7.87    3.79
  -7   3  16    8.71    3.76
   7   3 -17   19.14    5.96
  -7   3  17   16.68    5.18
  -7  -3  17   23.35    5.35
   7  -3 -17   16.16    3.87
  -7   3  18  166.31   15.89
  -7  -3  18  166.57   13.39
   7   3 -18  164.65   17.04
  -7   3  19   10.12    4.28
   7   3 -19   10.72    4.67
  -7  -3  19   11.08    3.51
  -7   3  20   67.73   10.42
   7   3 -20   63.94   10.92
   7   3 -21    1.52    1.82
   7   3 -22    3.27    2.43
   7   3 -23    4.15    2.79
   7   3 -24   39.38    9.18
  -8  -3   0    3.40    0.71
  -8   3   0    2.56    1.20
  -8  -3   1    8.37    2.52
  -8   3   1    7.19    2.01
  -8  -3  -1    6.59    0.77
  -8   3  -1    5.07    1.18
  -8   3  -2   19.93    3.67
  -8   3   2   18.64    4.03
  -8  -3   2   22.64    4.66
   8  -3  -3   18.60    2.07
  -8   3  -3   14.93    2.84
  -8  -3   3   18.21    4.66
  -8   3   3   20.86    4.73
   8  -3  -4    0.96    0.58
  -8   3  -4   -0.36    1.75
  -8  -3   4    2.65    2.76
  -8   3   4    2.69    2.42
  -8  -3   5    3.22    2.25
  -8   3  -5   -0.72    1.85
   8  -3  -5    5.11    1.59
  -8   3   5    7.29    3.26
  -8   3  -6   11.28    2.54
  -8   3   6   15.64    4.23
  -8  -3   6   15.59    4.29
  -8   3  -6   12.17    1.34
  -8  -3   7   29.15    5.82
  -8   3   7   33.02    5.89
  -8   3  -7   35.40    4.85
  -8  -3   8   19.35    4.87
  -8   3   8   21.97    5.24
  -8   3  -8   19.18    3.59
  -8   3   9   26.99    5.79
  -8   3  -9   25.01    3.80
  -8   3  10   19.67    4.93
  -8   3 -10   21.18    3.33
  -8   3  11   15.86    4.63
  -8   3 -11   15.72    2.77
  -8   3 -12    0.97    0.58
  -8   3  12    3.14    2.29
  -8   3  13   13.95    4.49
  -8   3  14   19.61    5.39
   8   3 -14   18.95    5.34
   8   3 -15   24.44    6.43
  -8  -3  15   37.17    6.92
   8  -3 -15   20.15    4.31
  -8   3  15   16.59    4.99
  -8   3  16   32.30    7.08
   8   3 -16   29.65    7.15
  -8  -3  16   41.98    7.05
   8  -3 -16   31.05    5.34
  -8  -3  17   57.02    8.26
   8  -3 -17   46.62    6.74
   8   3 -17   48.39    9.17
  -8   3  17   49.18    8.81
  -8   3  18    7.19    3.52
   8   3 -18    2.84    1.39
  -8  -3  18    8.39    3.64
   8   3 -19    3.22    2.65
  -8   3  19    1.83    1.50
  -8  -3  19    4.94    2.74
   8   3 -20   -1.24    1.39
  -8   3  20   -0.57    1.49
   8   3 -21   -0.81    1.72
  -8   3  21   -1.53    1.67
   8   3 -22    0.75    2.05
  -8   3  22    1.37    1.74
   8   3 -23    0.99    1.38
   8   3 -24    0.75    1.44
  -9   3   0   22.69    5.24
  -9  -3   0   13.56    3.53
  -9  -3   1  901.29   30.35
  -9  -3  -1  909.10   30.52
  -9   3  -1  873.13   28.81
  -9   3   1  863.21   29.47
  -9  -3   2   23.22    5.05
  -9   3  -2   32.10    5.58
  -9   3   2   31.67    6.00
  -9   3  -3    2.00    1.43
   9  -3  -3    1.31    0.58
  -9  -3   3   -1.17    1.79
  -9   3   3    0.38    1.04
   9  -3  -4  308.45    9.92
  -9  -3   4  315.95   18.37
  -9   3  -4  309.56   16.16
  -9   3   4  296.72   18.27
   9  -3  -5  609.40   15.83
  -9  -3   5  620.42   25.98
  -9   3  -5  613.48   22.49
  -9   3   5  619.47   26.37
  -9   3  -6   45.14    6.10
  -9   3   6   61.47    8.91
   9  -3  -6   41.52    4.62
  -9  -3   6   43.05    7.20
  -9  -3   7  443.69   22.60
  -9   3  -7  444.84   18.46
  -9   3   7  448.09   23.20
  -9   3  -8   46.70    5.71
  -9   3   8   58.29    8.73
  -9  -3   8   53.68    8.40
  -9   3  -9    1.99    1.44
  -9   3   9    8.41    4.04
  -9   3 -10  267.71   13.17
  -9   3  10  270.71   18.86
  -9   3 -11  194.34   10.70
  -9   3  11  191.63   16.37
  -9   3  12  160.07   15.09
  -9   3  13   30.03    6.59
  -9  -3  14   54.03    8.65
  -9   3  14   39.82    7.74
  -9   3  15   19.72    5.59
   9   3 -15   19.72    6.15
  -9  -3  15   33.40    7.12
  -9  -3  16  169.38   14.75
   9   3 -16  168.55   17.00
   9  -3 -16  155.66   12.66
  -9   3  16  148.00   15.46
   9   3 -17   14.30    5.09
  -9   3  17   12.77    4.52
  -9  -3  17   25.78    6.12
   9   3 -18   24.46    6.71
  -9  -3  18   34.16    6.93
  -9   3  18   26.89    6.68
   9   3 -19   11.98    4.86
  -9  -3  19   11.31    3.91
  -9   3  19   12.33    4.54
  -9   3  20    0.39    0.83
  -9  -3  20    1.32    1.53
   9   3 -20    0.03    1.82
   9   3 -21   33.20    8.67
  -9   3  21   32.02    7.69
  -9   3  22   24.36    6.92
   9   3 -22   24.93    7.40
   9   3 -23    1.06    2.66
  -9   3  23    0.09    0.97
 -10   3   0    5.04    2.39
 -10  -3   0    7.92    2.97
 -10  -3   1    5.79    2.63
 -10   3   1    2.90    1.35
 -10   3  -1    2.36    0.60
 -10  -3  -1    6.46    2.31
 -10  -3   2    7.06    3.25
 -10   3   2    4.72    1.97
 -10  -3  -2    2.20    1.13
 -10   3  -2    4.45    1.73
 -10  -3   3    3.45    2.82
 -10   3   3   -0.23    0.60
 -10   3  -3    1.60    0.49
 -10   3   4    6.70    2.34
 -10  -3   4   11.69    4.29
 -10   3  -4   10.25    2.69
 -10  -3   5    0.05    0.65
 -10   3   5   -1.35    2.25
 -10   3  -5   -0.58    0.80
 -10  -3   6    9.50    3.31
 -10   3   6    4.04    2.85
 -10   3  -6    4.70    1.65
 -10   3  -7    8.42    2.36
 -10  -3   7   10.00    3.83
 -10   3   7   12.26    4.34
 -10   3  -8   -2.30    1.85
 -10   3   8    0.91    1.55
 -10  -3   8    1.08    2.29
 -10   3  -9   -0.32    1.20
 -10   3   9    3.25    2.62
 -10   3 -10    8.97    2.04
 -10   3  10   13.67    4.53
 -10   3 -11    1.31    0.67
 -10   3  11    1.85    2.13
 -10   3  12    6.04    3.33
 -10   3  13    5.06    1.93
 -10  -3  14   12.42    5.61
 -10   3  14    1.72    2.06
 -10  -3  15   11.38    4.89
 -10   3  15    0.70    1.14
 -10   3  16    2.11    1.82
  10   3 -16    1.28    1.76
 -10   3  17    1.01    0.77
  10   3 -17    0.10    1.62
  10   3 -18    0.02    0.52
 -10  -3  18    2.83    2.15
 -10   3  18    0.58    0.50
  10   3 -19    0.53    1.18
 -10  -3  19    1.38    1.80
 -10   3  19    1.03    1.12
  10   3 -20   -0.83    1.80
 -10  -3  20    0.12    0.64
 -10   3  20   -1.93    2.52
 -10   3  21    1.41    1.38
  10   3 -21    1.26    2.58
 -10   3  22   -1.24    1.98
  10   3 -22    0.30    0.92
 -10   3  23   -0.20    1.74
 -11  -3   0   12.20    4.72
 -11   3   0   16.65    5.43
 -11  -3  -1  555.19   25.75
 -11  -3   1  539.85   25.65
 -11   3  -1  534.44   24.87
 -11   3   1  536.85   25.60
 -11  -3   2   76.34    9.53
 -11  -3  -2   73.49    9.25
 -11   3  -2   88.35   10.00
 -11   3   2   79.98   10.11
 -11  -3  -3  606.86   26.97
 -11   3  -3  590.60   25.43
 -11   3   3  612.25   27.91
 -11  -3   3  587.45   26.86
 -11  -3   4   62.09    8.90
 -11   3  -4   66.82    8.48
 -11   3   4   68.30    9.59
 -11  -3   5  166.71   14.49
 -11   3  -5  167.52   13.10
 -11   3   5  160.60   14.53
 -11   3   6   10.98    3.73
 -11  -3   6   18.97    5.10
 -11   3  -6   16.23    3.87
 -11  -3   7   33.72    6.55
 -11   3  -7   34.89    5.58
 -11   3   7   32.30    6.72
 -11   3  -8   60.81    7.42
 -11   3   8   66.23    9.81
 -11  -3   8   55.26    8.65
 -11   3  -9  259.60   15.16
 -11   3   9  248.54   19.33
 -11   3  10    8.32    3.80
 -11   3 -10    6.13    1.90
 -11   3  11   39.15    7.89
 -11   3  12   40.55    8.24
 -11  -3  13   61.98   10.10
 -11   3  13   43.97    8.54
 -11  -3  14   39.97    8.12
 -11   3  14   26.79    6.68
 -11  -3  15   16.52    6.08
 -11   3  15    6.55    3.51
 -11  -3  16    9.36    4.43
 -11   3  16   -0.85    1.33
 -11  -3  17   26.72    6.65
 -11   3  17   20.43    6.15
  11   3 -17   19.37    6.47
 -11   3  18   31.13    7.63
  11   3 -18   39.75    9.24
 -11  -3  18   32.28    7.32
 -11   3  19   10.07    4.37
 -11  -3  19    7.15    3.29
  11   3 -19   11.21    4.96
  11   3 -20   10.48    4.95
 -11  -3  20    8.05    3.67
 -11   3  20    5.56    2.95
  11   3 -21    6.18    3.62
 -11   3  21    3.66    2.76
 -11   3  22    3.29    2.65
 -12  -3   0    6.32    2.63
 -12   3   0    8.82    3.34
 -12  -3   1    8.08    3.02
 -12  -3  -1    8.62    2.76
 -12   3  -1    6.41    2.28
 -12   3   1    3.95    1.81
 -12  -3   2   56.41    8.72
 -12  -3  -2   52.28    8.09
 -12   3  -2   53.24    7.85
 -12   3   2   57.15    8.72
 -12  -3  -3  116.87   12.35
 -12   3  -3  109.84   11.43
 -12   3   3  108.32   12.26
 -12  -3   3  117.48   12.45
 -12  -3  -4   66.75    9.23
 -12   3  -4   61.25    8.37
 -12   3   4   59.10    8.97
 -12  -3   4   63.96    9.29
 -12  -3   5   13.94    4.41
 -12   3   5    7.01    2.89
 -12   3  -5   11.03    3.39
 -12   3   6   -1.01    2.64
 -12  -3   6    2.09    1.04
 -12   3  -6    1.03    0.78
 -12   3   7    0.83    1.62
 -12  -3   7    3.90    2.63
 -12   3  -7    0.45    1.65
 -12   3   8    9.10    3.68
 -12   3  -8    8.36    2.53
 -12   3   9   11.98    4.73
 -12   3  -9   10.54    2.84
 -12   3  10   11.95    4.64
 -12   3  11   16.54    5.36
 -12   3  12   23.37    6.67
 -12  -3  13   24.84    7.51
 -12   3  13    2.80    2.46
 -12  -3  14   18.87    6.18
 -12   3  14   -0.19    0.68
 -12  -3  15   10.26    4.90
 -12   3  15    1.04    2.29
 -12  -3  16    3.99    3.56
 -12   3  16   -0.76    1.05
 -12  -3  17    4.27    3.29
 -12   3  17    0.60    0.58
 -12  -3  18   10.48    4.30
  12   3 -18    7.01    4.07
 -12   3  18    4.54    3.39
 -12   3  19   -0.52    2.27
  12   3 -19    2.24    2.68
 -12  -3  19    1.84    2.08
 -12   3  20    3.67    2.84
 -12  -3  20    3.40    2.35
 -13  -3   0   36.51    7.06
 -13   3   0   29.99    6.28
 -13  -3   1   10.66    4.03
 -13  -3  -1    8.93    3.48
 -13   3  -1    9.20    2.92
 -13   3   1    2.01    1.65
 -13  -3   2    2.76    2.64
 -13  -3  -2    0.32    1.39
 -13   3  -2   -1.33    2.29
 -13   3   2   -0.72    1.55
 -13   3   3    5.42    2.05
 -13  -3   3    6.57    2.96
 -13  -3  -3    6.02    2.22
 -13   3  -3    6.60    2.54
 -13  -3  -4   84.05   10.60
 -13  -3   4   84.28   11.12
 -13   3  -4   84.38   10.47
 -13   3   4   83.63   11.13
 -13   3   5    3.25    2.36
 -13  -3   5    5.00    2.83
 -13  -3  -5    2.76    0.62
 -13   3  -5    3.85    2.11
 -13  -3   6   21.15    5.62
 -13   3  -6   20.28    4.66
 -13   3   6   19.24    5.41
 -13   3   7    9.09    3.85
 -13  -3   7   12.64    4.59
 -13   3  -7    7.09    2.75
 -13   3  -8   16.36    4.09
 -13   3   8   11.78    3.80
 -13   3   9   10.69    4.31
 -13   3  -9   10.34    3.23
 -13   3  10  123.07   14.73
 -13   3  11    9.72    4.47
 -13  -3  12   78.06   11.76
 -13   3  12   55.05    9.99
 -13  -3  13   32.46    7.90
 -13   3  13    8.37    4.35
 -13  -3  14   52.89    9.84
 -13   3  14   42.71    9.06
 -13  -3  15   18.14    6.03
 -13   3  15    7.75    4.58
 -13  -3  16   73.83   11.72
 -13   3  16   70.85   11.99
 -13  -3  17    6.88    4.13
 -13   3  17    3.89    2.97
 -13   3  18    3.32    2.72
 -13  -3  18    5.80    3.55
  13   3 -18    5.51    3.24
 -13  -3  19    1.69    1.62
 -13  -3  20    7.87    4.19
 -14  -3   0   43.47    7.95
 -14   3   0   33.73    7.06
 -14  -3   1   10.26    3.92
 -14  -3  -1   11.34    3.97
 -14   3  -1    8.72    2.90
 -14   3   1   10.88    3.97
 -14  -3  -2   38.36    7.41
 -14   3  -2   40.64    7.59
 -14   3   2   34.80    7.31
 -14  -3   2   45.55    8.32
 -14   3   3    6.01    2.82
 -14  -3   3    4.74    2.52
 -14  -3  -3    7.33    3.11
 -14   3  -3    4.41    2.28
 -14  -3   4    1.25    1.38
 -14  -3  -4   -2.35    2.29
 -14   3   4   -0.81    2.25
 -14   3  -4    0.14    0.91
 -14   3   5    3.17    1.38
 -14  -3   5    6.40    3.23
 -14  -3  -5    2.66    1.10
 -14   3  -5    2.88    0.63
 -14   3   6    2.85    1.45
 -14  -3   6    1.71    1.88
 -14  -3  -6    0.70    1.58
 -14   3  -6    0.18    1.91
 -14   3   7   -3.84    3.36
 -14   3  -7   -2.11    2.04
 -14   3   8   -4.38    3.68
 -14   3  -8   -1.22    1.75
 -14   3   9   -1.68    1.27
 -14   3  10   14.89    5.36
 -14   3  11    1.96    2.66
 -14  -3  12   19.40    7.48
 -14   3  12    3.26    2.91
 -14  -3  13   15.90    6.47
 -14   3  13    4.74    3.52
 -14  -3  14   14.64    5.70
 -14   3  14    7.91    4.31
 -14  -3  15   13.23    5.41
 -14   3  15    2.33    1.93
 -14  -3  16   12.24    5.30
 -14  -3  17    6.46    3.99
 -14  -3  18    1.68    2.07
 -15  -3   0   15.91    5.29
 -15   3   0   11.16    3.93
 -15  -3   1   12.93    4.66
 -15  -3  -1    8.72    3.81
 -15   3  -1    6.86    3.03
 -15   3   1    8.30    3.57
 -15  -3   2   10.19    3.66
 -15  -3  -2   12.27    4.71
 -15   3  -2    4.69    2.42
 -15   3   2    8.17    3.53
 -15  -3   3   30.86    6.97
 -15  -3  -3   32.91    6.96
 -15   3   3   27.61    6.63
 -15   3  -3   25.72    6.19
 -15  -3   4    5.42    2.93
 -15  -3  -4    6.35    2.89
 -15   3   4    6.29    2.96
 -15   3  -4    2.33    1.45
 -15  -3   5    9.55    3.80
 -15   3   5    4.92    2.72
 -15  -3  -5    5.95    2.75
 -15   3  -5    2.54    0.92
 -15   3   6    7.28    3.13
 -15  -3   6   12.69    4.82
 -15  -3  -6    8.91    3.45
 -15   3  -6    4.46    2.33
 -15   3   7    5.84    2.73
 -15  -3  -7    3.94    2.00
 -15   3  -7    5.40    2.47
 -15   3   8    5.70    1.74
 -15  -3  -8   10.13    4.01
 -15   3   9    1.26    0.49
 -15   3  10    1.11    1.65
 -15  -3  11   34.25    8.78
 -15   3  11    4.02    2.71
 -15  -3  12   29.34    8.23
 -15   3  12   23.54    7.05
 -15  -3  13   16.02    6.33
 -15   3  13    4.10    3.25
 -15  -3  14   22.36    7.14
 -15  -3  15   16.01    6.13
 -16  -3   0    0.40    2.32
 -16   3   0   -2.65    2.59
 -16  -3   1    0.18    1.25
 -16  -3  -1    3.28    2.59
 -16   3  -1    0.76    1.44
 -16   3   1    1.34    1.29
 -16  -3   2   -1.43    0.86
 -16   3   2   -3.83    3.47
 -16  -3  -2    0.21    0.47
 -16   3  -2   -1.81    2.56
 -16   3   3   -2.83    2.48
 -16  -3   3    3.18    2.55
 -16  -3  -3    4.13    3.02
 -16   3  -3   -0.98    2.20
 -16   3   4   -3.85    3.21
 -16  -3  -4    2.79    2.24
 -16  -3   4    1.55    1.62
 -16   3  -4   -0.32    1.38
 -16  -3   5    3.80    2.67
 -16  -3  -5    0.10    0.74
 -16   3  -5   -1.30    1.68
 -16   3   5   -2.28    3.08
 -16   3   6   -3.36    2.87
 -16  -3  -6   -0.80    1.94
 -16   3  -6   -2.70    2.67
 -16   3   7   -1.78    2.12
 -16  -3  -7    1.39    1.60
 -16   3   8   -6.60    4.77
 -16  -3  -8   -1.68    2.34
 -16  -3  -9   -1.52    2.53
 -16   3   9   -2.68    1.94
 -16  -3  10   21.91    7.50
 -16   3  10   -0.97    1.36
 -16  -3  11   13.40    6.02
 -17  -3   0   -1.78    2.31
 -17   3   0   -0.25    1.24
 -17  -3   1   36.36    8.11
 -17  -3  -1   46.86    9.22
 -17   3  -1   32.09    7.49
 -17   3   1   30.10    7.48
 -17  -3   2   13.32    4.82
 -17  -3  -2   16.82    5.66
 -17   3  -2    7.12    3.52
 -17   3   2    9.58    4.21
 -17   3   3   -2.23    3.45
 -17  -3  -3    2.94    2.28
 -17  -3   3    1.11    1.40
 -17   3  -3   -1.51    1.73
 -17   3   4    7.76    3.78
 -17  -3  -4   10.96    4.63
 -17  -3   4   16.57    5.78
 -17   3  -4    9.02    4.00
 -17   3   5   11.51    4.76
 -17  -3   5   22.75    6.39
 -17  -3  -5   21.78    6.12
 -17   3  -5   16.86    5.38
 -17   3   6   -3.80    3.55
 -17  -3  -6   -2.26    2.05
 -17  -3  -7    3.22    2.14
 -17  -3  -8    0.08    1.50
 -18   3   0   -3.31    3.70
 -18   3   1   -3.79    2.84
 -18   3  -1   -7.02    4.20
 -18   3   2   -4.37    3.38
 -18   3  -2   -3.27    3.47
 -18   3  -3   -1.90    2.65
 -18  -3   4    2.22    2.41
 -18   3  -4    2.17    1.88
 -19   3  -3   -1.77    2.44
   0   4   0   98.50    6.13
   0   4   1   -0.12    0.28
   0  -4   1   -2.38    1.86
   0   4  -1   -0.59    0.61
   0  -4   2  217.93   11.09
   0   4   2  219.14    7.57
   0   4  -2  217.54   10.50
   0   4  -3    2.43    1.68
   0  -4   3    0.90    1.18
   0   4   3    0.05    0.30
   0  -4   4  876.88   22.94
   0   4   4  812.13   10.06
   0   4  -4  898.97   23.57
   0   4  -5    3.49    2.77
   0  -4   5    1.21    1.47
   0  -4   6  388.97   16.09
   0   4  -6  381.04   16.90
   0   4  -7    5.08    2.72
   0   4  -8  227.51   14.10
   0   4  -9    2.92    2.82
   0   4 -10  805.58   28.67
   0   4 -11    3.00    3.11
   0   4 -12  277.68   17.73
   0   4 -13    1.09    2.39
   0  -4  14   83.03    4.58
   0   4 -14   88.80   10.55
   0  -4  15    0.71    0.49
   0   4 -15    1.39    1.74
   0   4 -16  305.69   20.75
   0   4 -17    2.84    2.21
   0   4 -18   48.35    8.91
   0   4 -19   -0.58    1.13
   0   4 -20   19.70    5.95
   0   4 -21    0.77    0.55
   0   4 -22   86.45   12.75
   0   4 -23    1.07    1.69
   0   4 -24    1.68    1.90
   0   4 -25    0.80    1.20
  -1   4   0  630.88   15.37
   1   4   0  620.57   16.16
   1  -4   0  638.02   15.39
   1  -4   1  241.91   10.89
  -1   4   1  232.88    8.52
  -1   4  -1  238.05   10.29
   1   4  -1  237.09   10.62
   1   4   1  236.33    9.32
   1  -4   1  239.17   10.18
  -1  -4   1  252.13   12.65
   1  -4   2  108.90    7.45
  -1  -4   2  109.03    8.33
  -1   4   2  112.39    5.24
  -1   4  -2  115.33    7.63
   1   4  -2  108.27    7.66
   1   4   2  112.07    5.93
   1  -4   2  116.62    7.59
   1  -4   3   28.57    3.68
  -1  -4   3   28.39    4.31
  -1   4  -3   28.88    3.94
   1   4  -3   29.59    4.15
   1  -4   3   31.75    4.22
   1   4   3   31.51    2.81
   1  -4   4   40.39    4.58
  -1  -4   4   39.24    5.16
  -1   4  -4   36.23    4.81
   1   4  -4   34.91    4.74
  -1  -4   5   58.10    6.31
  -1   4  -5   56.71    6.17
   1   4  -5   62.57    6.49
   1  -4   5   64.54    6.11
  -1   4  -6   45.81    5.88
   1   4  -6   42.77    5.67
  -1  -4   6   48.83    5.86
  -1  -4   7   17.53    4.22
   1   4  -7    9.40    3.01
   1   4   7    7.59    1.03
  -1   4  -7   10.62    3.11
  -1   4  -8   83.61    8.49
   1   4   8   74.64    3.26
   1   4  -8   87.89    8.68
  -1   4  -9  180.68   12.91
   1   4   9  165.80    5.33
   1   4  -9  183.56   13.18
  -1   4 -10   95.87    9.89
   1   4 -10   95.62   10.02
   1   4  10   94.14    4.43
   1   4 -11   20.36    4.81
   1   4  11   21.31    2.32
  -1   4 -11   21.35    4.80
   1  -4  12   65.75    4.00
  -1   4 -12   68.11    8.60
   1   4 -12   74.16    9.05
   1   4  12   67.11    4.48
   1   4  13    3.41    1.15
   1  -4  13    3.38    0.79
  -1   4 -13    5.29    2.66
   1   4 -13    3.98    2.41
   1   4 -14    0.69    1.59
  -1   4 -14    0.02    1.61
  -1  -4  15   26.35    3.28
  -1   4 -15   25.04    5.58
   1   4 -15   19.25    5.21
  -1   4 -16    7.35    2.80
   1   4 -16    8.75    3.69
  -1   4 -17   11.77    4.21
   1   4 -17   13.23    4.63
  -1   4 -18    7.09    3.48
   1   4 -18    9.17    3.64
  -1   4 -19    3.09    2.32
   1   4 -19    2.73    1.79
  -1   4 -20    0.90    1.40
   1   4 -20    0.50    1.32
  -1   4 -21   16.01    5.47
   1   4 -21   15.13    5.37
  -1   4 -22   10.47    4.37
   1   4 -22    8.63    3.79
  -1   4 -23   13.56    5.30
   1   4 -23    7.80    3.81
  -1   4 -24   -0.65    1.71
   1   4 -24    2.10    2.49
  -1   4 -25    2.56    2.21
   1   4 -25    2.83    2.24
  -2   4   0  121.53    6.95
   2  -4   0  118.55    6.90
   2  -4   1 1011.86   21.11
  -2  -4   1 1019.77   26.67
  -2   4  -1 1009.89   21.36
   2  -4   1 1010.87   21.65
   2  -4  -1 1005.92   18.37
   2   4  -1 1001.98   22.82
  -2  -4   2   33.47    4.64
   2  -4   2   28.39    3.55
  -2   4  -2   31.68    4.06
   2  -4   2   33.04    4.23
   2  -4  -2   31.22    2.91
   2   4  -2   29.22    4.33
   2  -4   3  220.20    9.96
   2  -4   3  221.98   11.13
  -2  -4   3  218.44   12.40
  -2   4  -3  225.61   11.35
   2  -4   3  224.11   11.37
   2  -4  -3  218.70    6.52
   2   4  -3  224.70   11.69
  -2  -4   4   80.83    7.71
   2  -4   4   78.01    6.49
   2  -4   4   77.40    6.16
  -2   4  -4   82.95    7.24
   2   4  -4   79.57    7.35
  -2   4  -5   21.52    3.28
  -2  -4   5   23.06    4.28
   2  -4   5   21.73    3.24
   2   4  -5   20.12    3.78
  -2   4  -5   22.35    3.98
   2  -4   5   23.82    3.57
   2  -4   6   35.68    3.98
  -2   4  -6   34.99    4.36
  -2   4  -6   33.49    5.03
   2   4  -6   34.15    5.11
  -2  -4   6   37.76    5.55
   2  -4   7   71.03    5.41
  -2   4  -7   72.90    7.63
   2   4  -7   72.22    7.77
  -2  -4   7   69.18    7.49
  -2   4  -8   42.10    5.96
   2   4  -8   38.49    6.03
   2  -4   8   39.84    3.91
   2   4   9  254.61    8.73
  -2   4  -9  261.86   15.54
   2   4  -9  264.07   15.96
   2  -4   9  247.93    9.20
   2   4 -10    4.35    2.33
   2  -4  10    1.91    0.76
  -2   4 -10    4.61    2.57
   2   4  10    1.84    0.74
  -2   4 -11   40.97    6.71
   2   4  11   41.21    3.89
   2   4 -11   41.54    6.97
   2  -4  11   39.50    3.00
  -2   4 -12   82.21    9.82
   2   4  12   78.00    5.68
   2   4 -12   87.19   10.18
   2  -4  12   70.00    3.09
  -2   4 -13  245.57   17.28
   2   4  13  242.30   10.47
   2   4 -13  252.27   17.76
  -2   4 -14   40.39    7.47
   2   4 -14   37.40    7.18
   2   4 -15   21.80    5.40
  -2   4 -15   18.37    5.02
  -2  -4  16    6.64    2.32
  -2   4 -16    1.56    1.77
   2   4 -16    1.07    1.63
   2   4 -17   97.28   11.96
  -2   4 -17   99.75   12.11
  -2   4 -18   25.56    6.47
   2   4 -18   29.48    6.94
  -2   4 -19   79.35   11.56
   2   4 -19   73.36   11.25
  -2   4 -20    4.87    3.30
   2   4 -20    3.85    2.72
  -2   4 -21    0.59    1.45
   2   4 -21   -1.71    1.47
  -2   4 -22    1.02    1.40
   2   4 -22   -0.47    1.37
  -2   4 -23   23.32    6.62
   2   4 -23   27.10    7.31
  -2   4 -24    3.89    2.76
   2   4 -24    3.42    2.84
  -2   4 -25   33.15    8.54
   2   4 -25   27.11    7.99
   3  -4   0   75.79    5.79
   3  -4   1  215.76    8.85
  -3  -4   1  210.21   12.61
   3  -4  -1  223.12    9.19
   3  -4   1  218.09   10.37
   3  -4   2  201.65    8.66
  -3  -4   2  204.64   12.29
   3  -4  -2  199.56    8.00
   3  -4   2  206.73   10.67
   3  -4   3   67.83    5.12
  -3  -4   3   66.16    7.07
   3  -4  -3   67.38    4.28
  -3  -4   4   99.37    8.78
  -3   4  -4   94.09    7.99
   3  -4  -4   91.06    4.36
   3   4  -4   90.20    8.13
   3  -4   4  100.37    7.32
  -3   4  -5  151.46   10.42
   3  -4  -5  143.07    4.64
   3   4  -5  150.69   10.69
  -3  -4   5  159.22   11.53
   3  -4   5  155.12    8.83
  -3   4  -5  153.65    8.29
  -3  -4   6   36.47    5.50
  -3   4  -6   36.78    4.20
  -3   4  -6   35.88    5.36
   3   4  -6   35.14    5.35
   3  -4   6   37.72    4.21
  -3   4  -7   29.96    4.02
  -3   4  -7   28.16    4.92
   3   4  -7   26.96    4.80
   3  -4   7   29.32    3.54
  -3  -4   7   32.03    5.62
  -3   4  -8   39.07    5.73
   3   4  -8   35.80    5.79
   3  -4   8   36.87    3.70
  -3  -4   8   40.18    6.02
   3   4  -9   27.25    5.36
  -3   4  -9   23.34    4.61
   3  -4   9   23.45    2.71
   3   4  10   52.14    4.76
  -3   4 -10   51.49    7.32
   3   4 -10   51.76    7.47
   3  -4  10   54.47    3.81
   3   4 -11   27.36    5.55
   3  -4 -11   23.67    1.83
   3   4  11   26.93    3.58
   3  -4  11   28.24    2.27
  -3   4 -11   28.00    5.19
   3  -4 -12    6.66    1.14
   3   4 -12    5.29    2.27
  -3   4 -12    6.54    1.82
   3   4  12    6.70    1.88
   3   4 -13    6.21    2.76
   3  -4 -13    9.37    1.51
  -3   4 -13    7.05    2.67
   3   4  13    8.18    2.10
   3   4 -14   -1.80    2.54
   3  -4 -14    0.17    0.28
  -3   4 -14   -0.80    1.77
   3   4 -15   10.63    3.34
  -3   4 -15   10.72    3.90
   3   4 -16    3.20    2.43
  -3   4 -16    1.86    1.98
   3   4 -17   -1.64    2.67
  -3   4 -17    0.07    1.38
   3   4 -18    4.77    2.83
  -3   4 -18    4.78    1.77
  -3   4 -19   13.51    4.87
   3   4 -19   13.46    4.58
   3   4 -20    2.63    1.62
  -3   4 -20   -0.73    0.94
  -3   4 -21    7.69    4.27
   3   4 -21    4.11    2.63
  -3   4 -22    3.45    2.55
   3   4 -22   -0.91    2.03
  -3   4 -23    2.89    2.74
   3   4 -23    0.35    1.16
  -3   4 -24    2.68    2.86
   3   4 -24    2.34    1.29
  -3   4 -25   11.24    5.04
   3   4 -25    6.54    4.30
   4  -4   0    5.70    1.08
   4  -4   0    7.99    2.02
   4  -4   1    3.57    1.15
  -4  -4   1   -0.54    1.91
   4  -4  -1    3.26    1.23
   4  -4   1    2.38    1.20
   4  -4   2    4.53    1.01
  -4  -4   2    2.19    0.43
   4  -4  -2    4.95    1.36
  -4  -4   3   63.38    7.40
   4  -4  -3   62.44    4.64
  -4  -4   4  172.49   12.21
   4  -4  -4  155.48    6.82
  -4  -4   5   48.82    7.06
   4  -4  -5   43.13    3.41
   4  -4   5   42.42    4.75
  -4  -4   6    8.19    3.22
  -4   4  -6    8.21    1.86
   4  -4   6    7.22    1.76
  -4  -4   7   84.69    8.84
  -4   4  -7   85.69    6.41
   4   4  -7   86.75    8.90
   4  -4   7   81.18    6.14
  -4   4  -8    9.80    2.37
   4   4  -8    6.42    2.34
   4  -4   8    8.73    1.91
  -4  -4   8   11.17    3.73
  -4   4  -9   45.35    6.81
   4  -4   9   50.82    4.17
   4  -4  -9   44.15    3.01
   4   4  -9   45.99    6.92
  -4   4 -10   68.52    8.54
   4  -4  10   71.60    4.42
   4  -4 -10   69.25    3.91
   4   4 -10   68.48    8.82
  -4   4 -11   75.32    9.35
   4  -4 -11   75.08    4.33
   4   4 -11   74.06    9.44
  -4   4 -12   66.75    8.94
   4  -4 -12   71.21    4.47
   4   4 -12   67.58    9.17
   4   4 -13   20.46    5.16
   4  -4 -13   20.03    2.54
  -4   4 -13   20.73    5.15
  -4   4 -14   44.83    7.75
   4  -4 -14   42.78    4.01
   4   4 -14   40.85    7.56
  -4   4 -15  244.63   18.76
   4   4 -15  263.88   19.58
   4   4 -16   36.20    7.40
  -4   4 -16   37.24    7.52
  -4  -4  16   48.75    6.18
   4   4 -17    0.95    0.89
  -4  -4  17    6.89    2.77
  -4   4 -17    3.21    2.37
   4   4 -18    4.63    2.43
  -4   4 -18    6.31    3.46
   4   4 -19    0.31    2.14
  -4   4 -19    3.47    2.55
  -4   4 -20   16.80    5.62
   4   4 -20   14.15    5.01
   4   4 -21   31.16    7.50
  -4   4 -21   28.04    7.36
   4   4 -22    7.60    4.09
   4   4 -23    3.97    2.98
   4   4 -24    3.39    2.36
   4   4 -25    5.43    3.59
   5  -4   0   51.55    3.32
  -5  -4   0   55.05    6.64
  -5   4   0   58.33    6.58
   5  -4   0   53.42    5.45
  -5   4  -1    2.10    0.45
   5  -4   1    3.68    0.88
  -5   4   1    3.46    1.39
  -5  -4   1    1.11    1.88
   5  -4  -1    3.21    1.16
  -5   4   2   11.44    2.47
  -5  -4   2   12.92    2.94
   5  -4  -2   13.04    2.49
  -5   4  -2   13.64    2.81
  -5   4   3    3.77    1.55
  -5  -4   3    5.47    2.56
   5  -4  -3    4.82    1.49
  -5   4   4   35.86    5.65
  -5  -4   4   44.60    6.48
  -5  -4   5   40.86    6.47
  -5   4   5   38.45    5.80
  -5  -4   6   93.53    9.52
  -5   4  -6   89.62    5.65
  -5   4   6   87.63    9.23
   5  -4   6   91.05    6.96
  -5   4  -7   27.56    3.42
  -5  -4   7   32.85    5.92
  -5   4   7   27.28    5.11
   5  -4   7   31.49    3.98
  -5  -4   8   14.89    4.41
  -5   4  -8   13.83    2.72
   5  -4   8   17.08    3.01
  -5   4   8   11.40    3.39
  -5   4  -9   54.57    5.44
  -5   4   9   51.79    7.23
   5  -4   9   63.64    4.89
   5   4  -9   58.05    7.89
  -5  -4   9   55.72    7.90
  -5   4  10    3.79    1.57
   5   4 -10    1.48    1.07
  -5   4  11   17.10    4.28
   5   4 -11   16.37    4.66
   5  -4 -11   16.72    2.41
   5  -4 -12   53.57    4.52
   5   4 -12   54.45    8.43
   5  -4 -13   37.49    3.92
   5   4 -13   35.35    7.03
   5  -4 -14    7.64    1.87
   5   4 -14    4.66    2.56
   5   4 -15   11.09    4.07
   5   4 -16   31.31    6.94
  -5  -4  16   48.85    6.76
  -5  -4  17   98.41    9.14
   5   4 -17   97.03   12.58
   5   4 -18    4.79    2.59
   5   4 -19    2.56    1.68
   5   4 -20   19.89    6.16
   5   4 -21    8.56    3.32
   5   4 -22    2.61    2.29
   5   4 -23    9.95    4.84
   5   4 -24   12.06    5.06
  -6   4   0   51.70    6.37
  -6  -4   0   44.22    5.86
   6  -4  -1   33.39    2.33
  -6   4   1   40.04    5.74
  -6  -4   1   36.94    5.38
  -6   4  -1   35.99    5.14
  -6  -4   2   50.19    6.88
  -6   4   2   55.67    6.98
  -6   4  -2   53.63    6.26
  -6   4   3   82.62    8.63
  -6  -4   3   86.52    9.02
  -6   4  -3   84.00    7.69
  -6   4  -4    0.40    0.65
  -6   4   4   -0.19    0.46
  -6  -4   5  219.57   14.82
  -6   4   5  200.03   14.13
  -6   4  -5  202.18   11.44
  -6   4   6   26.07    5.18
  -6  -4   6   29.28    5.42
  -6   4  -7   10.36    1.90
  -6  -4   7   12.34    3.99
  -6   4   7   11.47    3.62
   6  -4   7   18.49    3.62
  -6   4  -8  176.77    8.59
  -6   4   8  182.58   14.26
  -6  -4   8  179.71   14.26
  -6   4  -9   33.56    4.08
  -6   4   9   37.42    6.68
  -6  -4   9   42.14    7.56
   6   4 -10    8.95    3.30
  -6   4  10   11.87    3.95
  -6   4  11   47.59    7.44
   6   4 -11   58.60    8.79
  -6   4  12  131.82   13.03
   6   4 -12  147.83   14.10
   6  -4 -12  132.49    8.03
   6   4 -13   26.69    6.07
   6  -4 -13   25.69    3.58
  -6   4  13   24.71    5.70
   6   4 -14    0.81    1.36
  -6   4  14    3.17    0.72
   6   4 -15   12.60    4.29
   6   4 -16    9.27    3.81
  -6  -4  16   25.44    5.34
   6   4 -17   16.27    5.31
  -6  -4  17   20.92    4.68
  -6  -4  18   73.40    8.47
   6   4 -18   72.22   11.27
   6   4 -19    1.71    1.87
   6   4 -20    3.80    2.39
   6   4 -21   13.94    5.36
   6   4 -22   12.17    4.92
   6   4 -23    6.23    3.68
   6   4 -24   18.45    6.46
  -7   4   0   -1.73    1.72
  -7  -4   0   -1.42    2.10
  -7   4   1    4.61    1.88
  -7   4  -1    4.39    2.07
  -7  -4   1    2.90    0.85
  -7  -4  -1    2.33    2.46
  -7   4   2   -0.29    1.01
  -7  -4   2    1.67    0.68
  -7   4  -2    2.93    1.60
  -7  -4   3   28.17    5.27
  -7   4   3   30.37    5.47
  -7   4  -3   27.25    4.57
  -7  -4   4    4.21    2.87
  -7   4   4    3.67    2.18
  -7   4  -4    2.35    1.12
  -7   4   5    1.07    1.21
  -7   4  -5    0.43    0.89
  -7  -4   6   18.43    4.41
  -7   4  -6   19.22    3.57
  -7   4   6   17.19    4.56
  -7   4   7  199.23   14.81
  -7   4  -7  193.60   11.16
  -7   4  -7  190.61    7.14
  -7  -4   7  194.19   15.00
  -7   4   8   33.87    6.33
  -7   4  -8   30.72    3.27
  -7  -4   8   37.78    7.18
  -7   4  -8   30.58    4.30
  -7  -4   9    6.58    4.13
  -7   4   9    3.02    1.57
  -7   4  10   17.54    4.78
  -7   4  11   84.79   10.34
  -7   4  12    9.71    3.53
   7   4 -12    9.39    3.42
  -7   4  13   39.70    7.43
   7   4 -13   41.51    7.67
  -7   4  14   38.60    7.34
   7   4 -14   36.56    7.69
   7   4 -15   14.52    4.86
  -7   4  15   16.48    4.90
   7   4 -16    3.57    1.39
  -7   4  16    2.41    1.46
   7   4 -17    4.40    2.94
  -7   4  17   -0.29    1.12
   7   4 -18   31.52    7.82
  -7  -4  18   33.60    6.20
   7   4 -19   66.22   11.35
   7   4 -20    0.26    1.16
   7   4 -21    3.99    3.55
   7   4 -22   11.09    5.15
   7   4 -23   -1.10    1.52
  -8  -4   0   32.86    5.29
  -8   4   0   43.19    6.53
  -8  -4   1  233.50   16.22
  -8  -4  -1  236.07   16.22
  -8   4   1  240.81   15.49
  -8   4  -1  232.33   14.78
  -8  -4   2  112.47   11.21
  -8   4   2  119.02   11.24
  -8   4  -2  118.22   10.36
  -8  -4   3   23.40    5.16
  -8   4   3   30.46    6.05
  -8   4  -3   25.60    4.62
   8  -4  -3   21.74    1.98
  -8  -4   4   59.42    8.45
  -8   4   4   63.88    8.54
  -8   4  -4   60.41    7.20
  -8  -4   5  144.58   13.10
  -8   4   5  145.02   12.95
  -8   4  -5  136.59   10.54
  -8   4   6   10.80    3.61
  -8  -4   6    7.36    2.83
  -8   4  -6    8.42    2.35
  -8   4  -7   38.96    5.21
  -8  -4   7   43.79    7.68
  -8   4   7   38.19    6.86
  -8   4   8    1.17    0.88
  -8   4  -8    3.24    1.27
  -8  -4   9   13.69    4.84
  -8   4  -9   10.69    2.30
  -8   4   9   10.21    3.64
  -8   4 -10    8.33    2.04
  -8   4  10    9.43    3.55
  -8   4  11   41.93    7.50
  -8   4  12   16.57    5.00
   8   4 -13   11.10    4.35
  -8   4  13    8.91    3.48
  -8   4  14   14.80    5.01
   8   4 -14   15.72    5.16
  -8   4  15   57.43    9.75
   8   4 -15   56.39    9.93
  -8   4  16   35.60    7.89
  -8  -4  16   54.74    8.53
   8   4 -16   43.29    8.93
   8   4 -17    1.32    2.02
  -8   4  17    2.74    2.88
   8   4 -18    9.40    4.16
  -8  -4  18   17.10    4.82
  -8   4  18   11.74    4.37
   8   4 -19    5.70    3.28
  -8   4  19    7.07    3.90
   8   4 -20    1.14    1.81
   8   4 -21   18.21    6.56
   8   4 -22   13.50    5.28
  -9  -4   0  182.10   14.52
  -9   4   0  181.52   13.90
  -9  -4   1    1.54    1.33
  -9  -4  -1   -0.78    1.98
  -9   4  -1    4.91    2.94
  -9   4   1    2.59    2.04
  -9  -4   2   61.35    8.69
  -9  -4  -2   57.23    7.72
  -9   4  -2   62.71    7.91
  -9   4   2   59.42    8.25
  -9  -4   3   12.03    3.97
  -9   4  -3   11.62    3.42
  -9   4   3   13.10    4.00
  -9  -4   4   28.09    6.16
  -9   4   4   27.19    5.82
  -9   4  -4   28.55    5.28
  -9  -4   5   41.36    7.48
  -9   4  -5   39.04    5.93
  -9   4   5   39.35    6.81
  -9  -4   6   83.47   10.24
  -9   4   6   86.97   10.59
  -9   4  -6   86.26    8.60
  -9  -4   7   -1.02    1.20
  -9   4  -7   -0.30    0.83
  -9   4   8   44.17    7.69
  -9   4  -8   42.40    5.69
  -9  -4   8   48.33    8.46
  -9   4   9   56.37    8.94
  -9  -4   9   61.45    9.24
  -9   4  -9   60.79    6.59
  -9   4  10    0.31    1.43
  -9   4 -10    0.33    0.60
  -9   4  11   86.83   11.30
  -9   4  12   26.23    6.29
  -9   4  13    3.44    2.69
   9   4 -14    4.90    3.28
  -9   4  14    5.45    3.01
   9   4 -15    6.08    3.39
  -9   4  15    6.18    3.20
  -9   4  16   -1.41    0.99
   9   4 -16    1.32    1.80
  -9   4  17   49.09    9.27
  -9  -4  17   62.09    9.23
   9   4 -17   51.08    9.99
  -9   4  18    0.89    1.47
  -9  -4  18    8.42    4.00
   9   4 -18    3.11    2.83
   9   4 -19    0.94    0.82
  -9   4  19    0.49    0.81
  -9   4  20   -1.40    1.83
   9   4 -20   -1.29    0.84
   9   4 -21    0.94    1.43
 -10  -4   0   47.57    7.87
 -10   4   0   54.39    8.10
 -10  -4   1   77.52    9.61
 -10  -4  -1   75.28    9.84
 -10   4  -1   78.82    9.48
 -10   4   1   78.44    9.80
 -10  -4   2   93.64   10.97
 -10  -4  -2   83.18   10.21
 -10   4  -2   88.69    9.87
 -10   4   2   90.50   10.62
 -10  -4   3   24.76    5.90
 -10   4   3   23.26    5.48
 -10   4  -3   29.76    5.72
 -10  -4   4   24.90    5.90
 -10   4  -4   24.62    5.02
 -10   4   4   27.26    6.12
 -10  -4   5   42.26    7.56
 -10   4  -5   49.88    6.86
 -10   4   5   49.75    8.27
 -10  -4   6   19.42    4.84
 -10   4  -6   19.55    4.24
 -10   4   6   21.32    5.52
 -10  -4   7   11.76    4.14
 -10   4  -7   11.03    3.22
 -10   4   7   13.73    4.12
 -10  -4   8   50.02    8.68
 -10   4   8   47.87    8.33
 -10   4  -8   44.13    6.17
 -10  -4   9   37.44    7.85
 -10   4   9   34.22    7.06
 -10   4  -9   35.15    5.25
 -10   4  10   28.44    6.70
 -10   4  11   70.29   10.72
 -10   4  12   39.81    7.98
 -10   4  13   25.06    6.58
 -10   4  14   33.15    7.73
  10   4 -15   29.18    7.54
 -10   4  15   24.62    6.48
  10   4 -16   13.79    5.19
 -10  -4  16   26.38    6.79
 -10   4  16   16.78    5.44
 -10   4  17   19.46    6.05
  10   4 -17   16.33    5.82
 -10  -4  17   28.99    6.82
  10   4 -18   22.10    6.84
 -10   4  18   23.75    6.60
 -10  -4  18   30.94    6.84
  10   4 -19   13.85    5.44
 -10   4  19    9.64    4.30
  10   4 -20    3.52    3.01
 -10   4  20    2.62    1.53
 -10   4  21    6.39    3.68
 -11   4   0    1.99    2.31
 -11  -4   0   -1.40    2.26
 -11  -4   1   80.35   10.54
 -11  -4  -1   74.07   10.00
 -11   4  -1   86.13   10.27
 -11   4   1   85.01   10.48
 -11  -4   2   59.67    9.17
 -11  -4  -2   53.05    8.41
 -11   4  -2   66.10    8.79
 -11   4   2   62.04    9.17
 -11  -4   3   21.78    5.75
 -11  -4  -3   21.48    5.06
 -11   4  -3   28.51    5.90
 -11   4   3   28.26    6.58
 -11  -4   4  243.59   18.74
 -11   4  -4  249.52   16.61
 -11   4   4  244.19   18.39
 -11  -4   5    4.41    2.64
 -11   4  -5    7.22    3.30
 -11   4   5    6.30    3.24
 -11  -4   6    1.51    2.13
 -11   4  -6    3.18    1.90
 -11   4   6    4.93    3.02
 -11  -4   7    6.93    3.60
 -11   4  -7    7.62    2.90
 -11   4   7    8.75    3.81
 -11   4  -8   41.79    6.33
 -11   4   8   37.43    7.80
 -11  -4   8   36.20    7.65
 -11   4  -9    3.52    1.94
 -11   4   9    0.79    1.30
 -11   4  10   16.24    5.13
 -11   4  11    4.77    2.67
 -11   4  12   10.98    4.38
 -11   4  13   -1.78    1.52
 -11   4  14   -0.35    1.07
 -11  -4  15   19.72    6.59
 -11   4  15    2.04    0.72
  11   4 -16    1.23    0.90
 -11   4  16    1.46    1.00
 -11  -4  17    6.90    3.94
  11   4 -17   -0.02    2.09
 -11   4  17    2.46    2.70
 -11   4  18    2.00    1.67
  11   4 -18   -0.52    0.90
  11   4 -19    2.86    3.87
 -11  -4  19    8.26    3.85
 -11   4  19   -3.86    3.02
 -11   4  20    1.20    1.40
 -12  -4   0   12.33    3.51
 -12   4   0   16.82    5.01
 -12  -4   1   46.66    8.30
 -12  -4  -1   47.14    7.95
 -12   4  -1   52.59    8.51
 -12   4   1   59.59    9.21
 -12  -4   2   88.99   11.58
 -12  -4  -2   91.01   11.51
 -12   4  -2   90.79   10.87
 -12   4   2   97.40   11.87
 -12  -4   3   92.73   11.84
 -12  -4  -3   90.34   11.34
 -12   4  -3   89.46   10.66
 -12   4   3   83.21   11.16
 -12  -4   4  108.14   12.91
 -12  -4  -4   93.60   11.80
 -12   4  -4   99.17   11.10
 -12   4   4  115.77   13.06
 -12  -4   5   52.31    8.84
 -12   4  -5   58.28    8.28
 -12   4   5   55.86    9.37
 -12  -4   6   32.36    7.27
 -12   4  -6   34.27    6.33
 -12   4   6   37.24    7.60
 -12   4  -7   80.89    9.38
 -12   4   7   76.13   11.05
 -12  -4   7   74.29   11.04
 -12  -4   8   59.16    9.80
 -12   4  -8   54.56    7.73
 -12   4   8   57.29    9.77
 -12   4   9   30.42    7.15
 -12   4  10   12.05    4.75
 -12   4  11    2.10    1.67
 -12   4  12    1.54    1.78
 -12   4  13   11.32    4.66
 -12   4  14    8.09    3.89
 -12   4  15    1.31    0.95
 -12  -4  15   22.10    6.81
 -12  -4  16   17.88    5.84
 -12   4  16    7.11    3.33
 -12  -4  17   10.24    4.88
  12   4 -17    4.70    3.39
 -12   4  17    6.31    3.40
 -12  -4  18    8.87    4.38
 -12   4  18    2.92    2.19
 -12  -4  19    5.30    3.25
 -13  -4   0   -1.92    2.74
 -13   4   0    1.26    1.88
 -13  -4   1   31.63    7.19
 -13  -4  -1   27.38    6.29
 -13   4  -1   26.80    6.16
 -13   4   1   32.54    7.09
 -13  -4   2   54.17    9.27
 -13  -4  -2   50.08    8.70
 -13   4  -2   47.07    8.28
 -13   4   2   52.17    9.07
 -13  -4   3    4.67    3.13
 -13  -4  -3   -0.09    2.25
 -13   4  -3    4.33    2.93
 -13   4   3    3.82    2.90
 -13  -4   4    8.89    3.63
 -13  -4  -4    7.28    3.09
 -13   4  -4    9.55    3.71
 -13   4   4    6.96    3.43
 -13  -4   5   -0.54    1.48
 -13  -4  -5   -1.02    2.93
 -13   4  -5    0.93    1.20
 -13   4   5    5.88    3.42
 -13  -4   6   30.06    6.95
 -13   4   6   29.21    6.94
 -13   4  -6   29.67    6.05
 -13  -4   7    2.88    1.65
 -13   4  -7    7.11    2.95
 -13   4   7    6.70    3.40
 -13   4   8    0.90    2.46
 -13  -4   8   -1.68    0.82
 -13   4   9   48.21    9.32
 -13   4  10    1.46    2.11
 -13   4  11    2.23    1.50
 -13   4  12    4.90    3.25
 -13   4  13    3.06    2.68
 -13   4  14    3.65    3.40
 -13  -4  14   19.42    6.76
 -13  -4  15   20.64    6.53
 -13   4  15    3.79    2.96
 -13  -4  16   15.99    5.75
 -13   4  16    1.48    2.19
 -13  -4  17   14.15    5.68
 -13  -4  18    4.74    3.58
 -13  -4  19    6.85    4.12
 -14  -4   0  142.21   15.45
 -14   4   0  135.51   14.74
 -14  -4   1   13.87    5.49
 -14  -4  -1   13.98    4.79
 -14   4  -1   16.67    5.27
 -14   4   1   15.43    5.06
 -14  -4   2    6.52    2.99
 -14  -4  -2    0.83    0.65
 -14   4  -2    3.69    2.33
 -14   4   2    4.24    2.60
 -14  -4   3   22.46    6.00
 -14  -4  -3   24.53    6.10
 -14   4  -3   23.88    6.04
 -14   4   3   23.02    6.43
 -14  -4   4   27.32    6.78
 -14  -4  -4   24.48    6.26
 -14   4  -4   24.93    6.01
 -14   4   4   32.54    7.49
 -14  -4   5    4.94    3.00
 -14  -4  -5    6.27    2.20
 -14   4  -5    6.37    2.97
 -14   4   5    8.97    4.09
 -14  -4   6   24.32    6.80
 -14   4  -6   26.73    5.98
 -14   4   6   30.70    7.31
 -14  -4  -6   20.12    5.50
 -14  -4   7    8.58    3.76
 -14  -4  -7    0.41    1.89
 -14   4   7    6.04    3.34
 -14   4   8    5.83    3.57
 -14  -4   8    4.63    3.10
 -14   4   9   21.82    6.33
 -14   4  10   17.57    5.99
 -14   4  11   18.12    6.10
 -14   4  12   11.39    4.77
 -14   4  13    7.27    3.96
 -14  -4  14   38.66    9.10
 -14  -4  15   20.14    6.78
 -14  -4  16   18.66    6.74
 -14  -4  17   17.53    6.41
 -15  -4   0    7.66    3.81
 -15   4   0    5.82    2.98
 -15  -4   1   10.96    4.84
 -15  -4  -1    3.28    2.50
 -15   4  -1    3.15    2.08
 -15   4   1    4.13    2.44
 -15  -4   2    2.06    2.07
 -15  -4  -2    1.73    2.00
 -15   4  -2   -0.45    1.61
 -15   4   2    1.78    1.95
 -15  -4   3   -0.25    1.61
 -15  -4  -3   -1.18    2.13
 -15   4  -3    1.45    1.80
 -15   4   3    1.33    1.35
 -15  -4   4    4.35    3.10
 -15  -4  -4    2.50    1.61
 -15   4  -4    1.47    1.63
 -15   4   4    3.21    2.00
 -15  -4   5    6.99    3.47
 -15  -4  -5    3.09    1.90
 -15   4  -5    6.84    3.51
 -15   4   5   10.64    4.64
 -15  -4  -6    5.41    3.10
 -15  -4   6    6.57    3.64
 -15   4  -6    5.71    3.05
 -15   4   6    7.23    4.24
 -15  -4  -7    8.16    3.23
 -15   4   7   12.42    4.79
 -15  -4   7   11.19    4.80
 -15  -4  -8    4.60    2.93
 -15   4   8    7.49    3.90
 -15   4   9    0.95    1.68
 -15   4  10    1.68    1.98
 -15   4  11   10.99    4.72
 -15  -4  13   22.01    7.61
 -16   4   0    1.00    1.39
 -16  -4   0    2.18    1.97
 -16  -4   1    8.54    4.17
 -16  -4  -1    6.09    3.43
 -16   4  -1    4.58    2.57
 -16   4   1    6.20    3.31
 -16  -4   2    3.37    2.21
 -16  -4  -2    6.65    3.72
 -16   4  -2    4.12    2.51
 -16   4   2    7.42    3.80
 -16  -4   3   29.63    7.50
 -16  -4  -3   26.55    6.75
 -16   4  -3   27.02    6.63
 -16   4   3   26.21    6.93
 -16  -4   4    5.38    2.92
 -16  -4  -4    4.40    2.81
 -16   4  -4    4.28    2.85
 -16   4   4    5.28    3.36
 -16  -4   5    8.79    4.46
 -16  -4  -5    6.01    3.43
 -16   4  -5    9.39    4.02
 -16   4   5    4.08    2.74
 -16  -4   6    4.36    3.31
 -16  -4  -6    2.47    2.23
 -16   4   6    0.67    1.73
 -16  -4  -7   12.43    4.69
 -16   4   7   15.15    5.42
 -16  -4  -8   -2.35    3.06
 -16   4   8    1.97    2.37
 -16  -4  -9    8.10    3.83
 -16  -4 -10   -3.84    3.24
 -17  -4   0    6.12    3.67
 -17   4   0    5.49    3.17
 -17  -4   1    6.44    3.73
 -17  -4  -1   10.31    4.51
 -17   4  -1    7.73    3.50
 -17   4   1    8.36    4.23
 -17  -4   2    5.75    3.47
 -17  -4  -2    2.24    2.35
 -17   4  -2    3.22    2.58
 -17   4   2    4.89    3.28
 -17  -4  -3    5.03    2.92
 -17   4  -3    1.47    1.32
 -17  -4   3    1.56    2.52
 -17   4   3   -0.62    0.98
 -17  -4   4    3.93    2.94
 -17  -4  -4    3.67    3.13
 -17   4  -4    1.33    0.84
 -17   4   4    0.58    1.88
 -17  -4   5   12.00    5.11
 -17  -4  -5   11.07    4.62
 -17  -4  -6    1.39    1.50
 -17  -4   6    6.72    3.79
 -17  -4  -7   -1.45    1.97
 -17  -4  -8   -1.16    2.11
 -17  -4  -9   -1.81    3.31
 -17  -4 -10   -0.69    0.68
 -17  -4 -11    0.13    1.76
 -18  -4   0   14.66    5.74
 -18   4   0   14.32    5.67
 -18  -4   1   13.43    5.60
 -18  -4  -1   21.63    6.84
 -18   4  -1   17.96    6.18
 -18  -4   2    3.12    2.68
 -18  -4  -2    2.92    3.48
 -18   4  -2    2.49    2.56
 -18  -4   3    2.43    2.70
 -18  -4  -3    1.05    1.82
 -18  -4  -4    2.35    2.79
 -18  -4   4    1.61    2.48
 -18  -4  -5   17.69    6.25
 -18  -4   5   18.35    6.71
 -18  -4  -6   17.41    6.27
   0   5   0   -0.63    0.42
   0  -5   1   20.77    3.55
   0   5   1   22.49    3.12
   0   5  -1   23.93    3.58
   0  -5   2   -1.19    1.38
   0   5   2    0.11    0.44
   0   5  -2   -0.36    0.57
   0  -5   3   84.03    7.85
   0   5   3   84.09    4.82
   0   5  -3   81.63    7.25
   0   5   4    0.27    0.31
   0   5  -4    0.07    1.04
   0  -5   5   99.39    8.73
   0   5  -5   93.70    8.65
   0  -5   6    2.53    1.44
   0   5  -6   -0.01    0.40
   0   5  -7   46.05    6.50
   0  -5   7   46.73    6.53
   0   5  -8   -1.43    1.13
   0   5  -9    3.21    1.75
   0   5 -10    0.15    0.81
   0   5 -11    5.30    2.06
   0   5 -12   -0.48    1.71
   0   5 -13   11.89    3.73
   0   5 -14   -0.28    1.06
   0   5 -15   -1.29    1.63
   0   5 -16   -2.34    2.28
   0   5 -17    0.43    1.32
   0   5 -18   -1.36    0.68
   0   5 -19    2.99    2.30
   0   5 -20    8.30    4.94
   0   5 -21    0.96    1.00
   0   5 -22   -1.68    1.95
   0   5 -23   14.21    5.66
   0   5 -24    0.12    0.67
  -1   5   0  118.38    7.51
   1   5   0  118.15    7.84
   1   5  -1   12.97    2.76
   1  -5   1   12.61    2.57
  -1  -5   1   11.12    2.20
  -1   5   1   12.56    2.25
   1   5   1   13.41    2.58
  -1   5  -1   13.06    2.75
   1  -5   2   22.91    3.61
  -1  -5   2   23.46    4.17
  -1   5   2   24.39    2.76
  -1   5  -2   23.24    3.73
   1   5  -2   25.61    4.09
   1   5   2   25.32    3.26
   1  -5   3  174.71   10.76
  -1  -5   3  179.41   11.91
  -1   5  -3  178.44   10.85
   1   5  -3  185.87   11.34
   1   5   3  179.78    7.82
   1  -5   4  139.85    9.90
  -1   5  -4  138.47   10.17
   1   5  -4  146.35   10.48
   1   5   4  143.11    6.33
  -1  -5   4  147.82   10.95
  -1  -5   5   32.67    5.34
  -1   5  -5   36.13    5.29
   1   5  -5   34.41    5.56
   1   5   5   34.87    2.75
   1  -5   5   41.85    5.39
  -1   5  -6   85.29    8.54
   1   5  -6   83.02    8.57
   1   5   6   75.65    3.33
   1  -5   6   89.99    8.24
  -1  -5   6   82.03    8.49
  -1   5  -7  105.10    9.91
   1   5  -7  101.66    9.84
  -1  -5   7  105.99    9.79
   1   5  -8   17.51    4.42
  -1  -5   8   23.23    4.76
  -1   5  -8   21.34    4.64
  -1   5  -9   95.55   10.07
   1   5  -9   97.72   10.33
  -1   5 -10  184.69   14.21
   1   5 -10  181.12   14.50
  -1   5 -11   10.17    3.54
   1   5 -11   11.03    4.25
  -1   5 -12   60.89    8.66
   1   5 -12   62.24    9.00
  -1   5 -13   81.41   10.47
   1   5 -13   88.60   11.05
  -1   5 -14   35.07    7.03
   1   5 -14   35.87    7.01
  -1   5 -15   21.60    5.73
   1   5 -15   22.54    5.84
  -1   5 -16   87.79   11.80
   1   5 -16   97.10   12.17
  -1   5 -17   11.20    3.49
   1   5 -17   13.43    4.76
  -1   5 -18    6.58    2.94
   1   5 -18    9.29    4.15
  -1   5 -19   27.00    7.07
   1   5 -19   28.41    7.41
  -1   5 -20   11.27    4.67
   1   5 -20   11.58    4.59
  -1   5 -21    3.56    2.66
   1   5 -21    4.77    3.18
  -1   5 -22   29.67    7.95
   1   5 -22   28.22    7.77
  -1   5 -23    8.00    3.99
   1   5 -23   14.92    5.77
  -1   5 -24   -0.47    1.38
   1   5 -24   -0.75    1.57
   2  -5   0   21.65    3.40
  -2   5   0   24.36    3.49
   2   5   0   23.75    3.66
   2  -5   0   24.41    3.43
   2  -5   1  183.63   10.39
  -2  -5   1  191.95   12.55
  -2   5  -1  187.09   10.08
   2   5  -1  180.50   10.60
   2  -5   1  185.03   10.05
   2   5   1  182.24    9.68
   2  -5  -1  184.51    8.69
   2   5  -2    4.40    1.76
   2  -5   2    1.66    1.16
  -2  -5   2    2.88    1.62
   2   5   2    3.05    1.42
  -2   5  -2    3.56    1.56
   2  -5   3   48.85    5.41
  -2  -5   3   46.96    6.47
  -2   5  -3   47.88    5.63
   2   5  -3   48.97    5.92
   2   5   3   49.81    4.58
   2  -5   4   51.30    5.60
  -2  -5   4   50.36    6.61
  -2   5  -4   46.38    5.82
   2   5  -4   47.54    6.12
   2  -5   5   16.52    3.40
   2   5  -5   15.54    3.73
  -2  -5   5   16.67    4.28
  -2   5  -5   12.95    3.24
   2   5  -6    3.51    1.98
  -2  -5   6    2.77    1.25
  -2   5  -6    3.79    1.74
   2   5  -7    0.76    0.63
  -2   5  -7   -1.01    1.12
  -2  -5   8    5.44    2.96
   2   5  -8    5.36    2.50
   2  -5   8    2.94    1.22
  -2   5  -8    6.86    2.78
   2   5  -9    9.58    3.17
   2   5   9    7.98    1.31
   2  -5   9    8.21    2.05
  -2   5  -9    7.57    2.69
   2   5 -10   13.39    4.08
   2  -5  10   10.32    2.17
   2   5  10   11.13    1.55
  -2   5 -10   13.44    3.73
   2   5 -11    1.83    1.03
  -2   5 -11    1.85    1.62
   2  -5  11    1.00    0.58
   2   5 -12   16.22    4.55
  -2   5 -12   12.93    3.89
  -2   5 -13   36.54    6.90
   2   5 -13   41.81    7.52
   2   5 -14    6.37    3.30
  -2   5 -14    2.66    2.67
  -2   5 -15    0.25    0.58
   2   5 -15   -0.33    0.59
  -2   5 -16    5.05    2.75
   2   5 -16    6.24    3.06
  -2   5 -17    2.24    1.44
   2   5 -17    0.68    1.14
  -2   5 -18    2.57    2.24
   2   5 -18   -0.33    1.25
  -2   5 -19    3.33    2.16
   2   5 -19    6.59    3.41
  -2   5 -20    0.78    1.08
   2   5 -20   -0.18    1.07
  -2   5 -21   -2.24    2.93
   2   5 -21    0.18    1.43
  -2   5 -22    6.04    2.70
   2   5 -22    5.24    3.08
  -2   5 -23    0.99    1.44
   2   5 -23    0.44    0.62
   3  -5   0   63.56    5.62
  -3  -5   0   63.00    7.26
   3  -5   0   64.49    5.79
   3  -5   1  120.36    7.85
  -3  -5   1  113.87   10.21
   3  -5   1  119.40    8.41
   3  -5  -1  123.37    7.44
   3  -5   2   10.50    2.24
  -3  -5   2   10.72    3.02
   3   5  -2    7.97    2.71
   3  -5  -2   10.17    1.96
   3  -5   3   97.62    7.20
  -3  -5   3  107.51    9.80
  -3   5  -3  103.27    8.48
   3  -5  -3  106.27    5.63
   3   5  -3   98.37    8.73
  -3  -5   4   35.56    5.86
  -3   5  -4   34.62    5.13
   3  -5  -4   32.84    2.68
   3   5  -4   34.23    5.38
   3  -5   4   38.81    4.60
  -3  -5   5    6.58    3.13
   3   5  -5    3.92    1.84
  -3   5  -5    4.39    1.90
  -3  -5   6   42.24    6.34
  -3   5  -6   34.35    5.61
   3   5  -6   40.30    6.01
  -3  -5   7   52.64    7.59
  -3   5  -7   53.15    7.20
   3   5  -7   52.36    7.17
  -3  -5   8   17.03    4.65
   3   5  -8   16.86    4.22
  -3   5  -8   15.79    4.07
   3  -5   8   15.77    2.93
  -3  -5   9   98.44   10.61
  -3   5  -9   86.78    9.69
   3   5  -9   93.68   10.26
   3  -5   9   86.80    6.70
   3   5 -10   25.25    5.47
  -3   5 -10   27.09    5.79
   3  -5  10   23.93    3.25
   3   5 -11   23.50    5.49
  -3   5 -11   24.11    5.51
  -3   5 -12   58.06    8.46
   3   5 -12   57.50    8.83
  -3   5 -13  109.34   12.27
   3   5 -13  115.22   12.76
  -3   5 -14   37.00    7.22
   3   5 -14   38.01    7.45
   3   5 -15   31.90    6.84
  -3   5 -15   27.15    6.74
   3   5 -16   15.97    5.07
  -3   5 -16   18.46    5.61
   3   5 -17   25.90    6.77
  -3   5 -17   25.37    6.52
  -3   5 -18   16.34    5.49
   3   5 -18   15.10    5.16
   3   5 -19   24.98    6.69
  -3   5 -19   24.02    6.69
  -3   5 -20   13.45    5.20
   3   5 -20   16.33    5.44
  -3   5 -21    2.95    2.32
   3   5 -21    6.11    3.78
  -3   5 -22    4.11    2.18
   3   5 -22    5.88    3.73
  -3   5 -23    8.04    3.90
   3   5 -23    7.86    4.54
   4  -5   0    9.38    1.93
  -4  -5   0    6.55    1.56
   4  -5   0   17.14    3.15
   4  -5   1   26.88    3.41
  -4  -5   1   21.68    4.46
   4  -5  -1   24.72    3.56
   4  -5   2    0.78    0.74
  -4  -5   2   -2.46    2.42
   4  -5  -2    0.68    0.77
   4  -5   3    9.12    2.07
  -4  -5   3    8.71    2.74
   4  -5  -3   12.45    2.19
  -4  -5   4   35.20    5.98
   4  -5  -4   30.04    3.11
   4   5  -4   32.78    5.40
  -4  -5   5    9.02    3.80
   4   5  -5    5.80    2.19
   4  -5  -5    6.77    1.29
  -4  -5   6    8.00    3.07
   4   5  -6    3.63    1.38
   4  -5  -6    3.95    0.84
  -4  -5   7   13.42    3.87
   4   5  -7   12.20    3.50
  -4  -5   8    8.48    3.41
   4   5  -8    4.07    0.76
  -4   5  -8    7.18    2.38
   4  -5   8    5.74    1.59
   4   5  -9   15.18    4.08
  -4   5  -9   15.87    4.24
   4  -5   9   14.21    2.58
  -4  -5   9   21.11    5.37
   4   5 -10   19.97    4.69
   4  -5  10   20.50    2.99
  -4   5 -10   21.25    4.94
   4   5 -11    2.42    1.84
  -4   5 -11    2.84    1.82
   4   5 -12   38.61    7.44
  -4   5 -12   32.91    6.36
   4   5 -13   38.28    7.39
  -4   5 -13   36.10    7.02
   4   5 -14    2.38    2.41
  -4   5 -14    5.84    3.50
  -4   5 -15   50.77    9.02
   4   5 -15   50.15    9.00
   4   5 -16   28.90    6.99
  -4   5 -16   25.74    6.42
   4   5 -17   28.38    6.94
  -4   5 -17   32.38    7.51
   4   5 -18    4.00    2.50
  -4   5 -18    7.83    3.62
   4   5 -19    0.83    0.82
  -4   5 -19    3.17    2.79
  -4   5 -20    4.54    3.21
   4   5 -20    1.66    2.01
  -4   5 -21    1.57    1.00
   4   5 -21   -1.99    2.06
   4   5 -22    0.82    1.50
   4   5 -23    3.72    3.39
   5  -5   0   86.56    5.49
  -5  -5   0   86.93    9.29
   5  -5   1   30.20    3.24
  -5  -5   1   28.68    5.24
   5  -5  -1   28.33    4.06
   5  -5  -1   27.93    3.17
  -5  -5   2   14.23    3.79
   5  -5  -2   17.16    3.03
   5  -5   2   17.54    2.53
  -5  -5   3   21.73    4.96
   5  -5  -3   19.53    3.00
  -5  -5   4    6.29    3.30
   5  -5  -4    4.73    1.50
   5  -5  -5   70.08    5.02
  -5  -5   5   77.69    9.48
  -5  -5   6  117.16   11.52
   5  -5  -6  112.02    5.86
  -5  -5   7   14.67    4.28
   5   5  -7   14.10    4.40
   5  -5  -7    9.71    1.56
  -5  -5   8    8.65    3.63
   5   5  -8    8.13    3.13
  -5   5  -8    7.94    2.07
   5  -5   9   47.67    5.04
   5   5  -9   45.05    7.50
  -5  -5   9   52.35    7.95
   5   5 -10   18.93    4.70
   5   5 -11   68.09    9.46
   5   5 -12   10.93    4.10
   5   5 -13    0.59    1.55
   5   5 -14   22.92    5.98
   5   5 -15   61.78   10.00
   5   5 -16    2.57    2.42
   5   5 -17   19.45    5.79
   5   5 -18    2.98    2.54
   5   5 -19    2.37    1.13
   5   5 -20   37.64    8.77
   5   5 -21   15.16    5.36
   5   5 -22   -2.14    1.48
   6  -5   0    8.23    1.49
  -6  -5   0    1.85    2.76
   6  -5  -1    5.57    1.26
  -6  -5   1    4.45    1.23
  -6  -5  -1    3.41    2.23
   6  -5   1    7.17    1.34
  -6  -5   2   19.77    4.62
  -6  -5   3   33.69    6.11
   6  -5  -3   30.38    4.10
  -6  -5   4   25.07    5.63
   6  -5  -4   26.12    3.61
  -6  -5   5   18.02    4.98
   6  -5  -5   15.57    2.67
  -6  -5   6    5.38    2.35
  -6  -5   7    9.11    3.27
  -6  -5   8   10.39    4.21
   6   5  -8    7.27    2.58
   6   5  -9    9.54    3.44
  -6  -5   9    9.49    3.78
   6   5 -10    1.90    1.08
   6   5 -11    3.46    2.26
   6   5 -12    1.84    0.57
   6   5 -13   26.59    6.19
   6   5 -14    3.79    2.27
   6   5 -15    0.55    2.28
   6   5 -16    1.81    1.78
   6   5 -17    9.02    4.02
   6   5 -18    2.47    0.62
   6   5 -19    3.74    2.82
   6   5 -20    2.54    2.05
   6   5 -21    6.82    3.96
   6   5 -22    4.75    3.34
  -7   5   0    0.89    1.33
  -7  -5   0   -3.27    3.00
   7  -5  -1    6.04    0.99
  -7  -5   1    3.98    0.73
  -7  -5  -1    2.74    2.62
  -7   5  -1    5.30    1.63
  -7   5   1    4.16    2.10
  -7  -5   2  117.65   11.94
   7  -5  -2  106.87    5.00
  -7   5  -2  108.66   10.06
  -7   5   2  105.74   10.74
  -7  -5   3   21.94    5.69
  -7   5   3   14.76    3.70
  -7  -5   4   20.88    5.06
  -7   5   4   15.28    3.84
  -7  -5   5   15.44    4.87
  -7   5   5    8.13    2.76
  -7  -5   6    5.31    2.40
  -7   5   6    2.90    1.43
  -7  -5   7   27.55    6.13
  -7   5   7   23.29    5.33
  -7   5   8   90.44   10.73
  -7  -5   8   91.73   11.00
  -7  -5   9   12.07    4.57
  -7   5   9    8.60    3.28
   7   5 -10    3.77    1.53
  -7  -5  10    6.44    4.15
  -7   5  10    0.96    1.43
  -7   5  11   11.41    3.84
   7   5 -11   15.27    4.91
   7   5 -12   76.62   10.81
   7   5 -13   -1.23    1.29
   7   5 -14    3.03    2.24
   7   5 -15    4.62    2.73
   7   5 -16    2.28    2.03
   7   5 -17   14.84    5.29
   7   5 -18   64.44   11.65
   7   5 -19   18.40    6.47
   7   5 -20    2.29    2.73
   7   5 -21    5.54    4.25
  -8  -5   0    2.76    1.03
  -8   5   0    8.95    3.07
  -8  -5   1    3.23    1.42
  -8  -5  -1    4.43    0.86
  -8   5   1    6.03    2.32
  -8   5  -1    6.50    2.38
  -8  -5   2   13.10    4.05
  -8  -5  -2    6.29    1.20
  -8   5   2    8.93    3.10
  -8   5  -2   10.10    3.00
  -8   5  -3   16.07    4.01
  -8  -5   3   13.22    4.39
  -8   5   3   10.79    3.27
  -8  -5   4   20.78    5.48
  -8   5   4   13.22    3.97
  -8   5  -4   17.61    3.98
  -8   5  -5    5.01    1.56
  -8  -5   5   11.96    4.97
  -8   5   5    7.61    2.73
  -8  -5   6   10.10    3.78
  -8   5   6    6.50    3.01
  -8  -5   7   29.64    6.32
  -8   5   7   19.87    4.76
  -8  -5   8    7.12    3.88
  -8   5   8   -0.05    2.28
  -8  -5   9    5.21    3.73
  -8   5   9   -0.18    1.39
  -8   5  10   -0.82    1.93
  -8  -5  10    0.98    2.14
   8   5 -11    5.18    2.80
  -8   5  11    0.45    1.77
  -8   5  12    5.32    2.34
   8   5 -12    6.34    3.24
  -8   5  13   -1.79    2.02
   8   5 -13   -0.42    2.15
   8   5 -14    7.47    3.99
  -8   5  14    9.84    3.96
   8   5 -15   12.00    4.95
   8   5 -16   15.20    5.85
   8   5 -17    6.83    4.30
   8   5 -18    3.11    3.25
   8   5 -19    4.04    3.43
   8   5 -20    1.08    2.28
  -9  -5   0   18.86    5.04
  -9   5   0   20.36    5.04
  -9   5   1  122.98   12.29
  -9   5  -1  131.62   12.20
  -9  -5   1  121.27   12.77
  -9  -5  -1  124.63   12.99
  -9   5  -2    3.11    1.28
  -9  -5   2    6.20    3.32
  -9  -5  -2    1.59    1.34
  -9   5   2    4.47    2.50
  -9   5  -3    4.75    2.33
  -9  -5   3    6.21    3.17
  -9   5   3    5.92    2.71
  -9  -5   4   18.10    5.03
  -9   5  -4   16.27    3.88
  -9   5   4   15.44    4.50
  -9  -5   5  134.15   13.98
  -9   5   5  128.39   13.02
  -9   5  -5  130.14   11.21
  -9   5  -6   10.51    3.02
  -9  -5   6   14.00    4.85
  -9   5   6    8.19    2.92
  -9   5   7   14.51    4.46
  -9  -5   7   14.67    4.62
  -9   5  -7   12.88    3.21
  -9  -5   8    2.59    2.45
  -9   5   8   -1.29    1.95
  -9  -5   9    6.48    3.35
  -9   5   9    2.99    1.63
  -9   5  10    4.16    2.12
  -9  -5  10    3.72    2.69
  -9   5  11   69.81   10.49
  -9   5  12   11.39    4.33
  -9   5  13    1.70    2.39
   9   5 -13   -0.73    1.40
   9   5 -14    8.31    3.91
  -9   5  14    7.67    3.60
  -9   5  15   57.53   10.22
   9   5 -15   64.67   11.32
  -9   5  16    7.93    4.07
   9   5 -16   11.61    5.16
   9   5 -17    3.60    2.92
   9   5 -18   -1.17    2.48
   9   5 -19    6.13    3.83
 -10  -5   0   24.90    5.86
 -10   5   0   18.77    5.04
 -10  -5   1   45.47    8.01
 -10  -5  -1   44.31    7.87
 -10   5   1   40.77    7.23
 -10   5  -1   41.29    6.97
 -10  -5   2   14.59    4.46
 -10  -5  -2   12.98    4.03
 -10   5   2   15.81    4.48
 -10   5  -2   15.20    4.26
 -10  -5   3    9.33    4.35
 -10  -5  -3    4.64    0.93
 -10   5   3    6.60    3.05
 -10   5  -3    3.76    1.47
 -10  -5   4   18.79    5.70
 -10   5   4   11.43    3.44
 -10   5  -4   11.73    3.42
 -10  -5   5    4.81    2.90
 -10   5   5    1.98    0.68
 -10   5  -5    2.71    0.90
 -10  -5   6    4.75    3.09
 -10   5  -6    3.34    1.37
 -10   5   6    2.65    1.79
 -10  -5   7    9.29    3.94
 -10   5  -7    5.97    2.22
 -10   5   7    6.65    2.73
 -10   5  -8    9.10    2.78
 -10  -5   8   11.20    4.31
 -10   5   8    8.92    3.37
 -10  -5   9    4.42    3.54
 -10   5   9    0.86    0.81
 -10   5  10    8.39    3.67
 -10   5  11    2.04    1.64
 -10   5  12    2.60    1.40
 -10   5  13    1.23    1.82
  10   5 -14    1.17    1.24
 -10   5  14    1.63    1.91
 -10   5  15    3.30    2.64
  10   5 -15    6.45    3.82
  10   5 -16    3.85    2.16
 -10   5  16    3.92    2.96
  10   5 -17   -1.43    1.99
 -10   5  17   -0.39    1.82
  10   5 -18    1.20    2.37
 -10   5  18    0.97    0.94
 -11   5   0    0.17    1.12
 -11  -5   0   -1.61    2.46
 -11  -5  -1   61.30    9.54
 -11  -5   1   54.21    9.06
 -11   5   1   54.71    8.60
 -11   5  -1   55.40    8.42
 -11   5   2   27.25    6.17
 -11  -5   2   29.25    6.93
 -11  -5  -2   27.68    6.40
 -11   5  -2   30.66    6.10
 -11  -5   3   24.48    6.40
 -11   5   3   20.89    5.36
 -11   5  -3   19.10    5.03
 -11  -5  -3   17.44    4.54
 -11  -5  -4   84.23   11.58
 -11  -5   4   98.20   12.45
 -11   5   4   88.15   11.39
 -11   5  -4   95.19   10.59
 -11  -5   5   -0.51    0.89
 -11   5   5    0.60    1.43
 -11   5  -5   -0.94    1.55
 -11  -5   6   10.99    4.28
 -11   5   6   10.07    3.58
 -11   5  -6   10.34    3.24
 -11  -5   7   18.01    5.56
 -11   5   7   20.43    5.51
 -11   5  -7   18.43    4.31
 -11   5   8   79.34   11.44
 -11  -5   8   84.56   12.14
 -11  -5   9   26.25    7.06
 -11   5   9   23.69    6.13
 -11   5  10   -1.47    2.61
 -11   5  11    0.75    0.69
 -11   5  12    4.61    2.66
 -11   5  13   23.19    6.63
  11   5 -14   16.62    5.78
 -11   5  14   20.03    6.20
  11   5 -15    8.14    4.05
 -11   5  15    5.11    2.94
  11   5 -16    1.50    1.77
 -11   5  16   -0.82    2.02
  11   5 -17    3.28    2.51
 -11   5  17    6.88    3.81
 -12   5   0    9.35    3.61
 -12  -5   0    7.84    3.14
 -12   5   1   13.69    4.53
 -12   5  -1   13.53    4.49
 -12  -5   1   16.19    5.16
 -12  -5  -1   10.98    4.00
 -12   5   2   16.98    5.35
 -12   5  -2   17.38    4.92
 -12  -5   2   12.93    4.62
 -12  -5  -2   12.89    4.33
 -12   5   3    8.11    3.53
 -12   5  -3   10.16    3.67
 -12  -5   3   10.61    4.31
 -12  -5  -3   10.38    3.88
 -12   5   4    0.09    1.85
 -12  -5   4    6.03    3.94
 -12   5  -4    1.81    1.64
 -12  -5  -4   -2.73    3.46
 -12  -5   5   -1.22    1.51
 -12   5   5   -0.92    1.60
 -12   5  -5   -1.48    1.70
 -12  -5  -5   -5.26    4.71
 -12  -5   6    1.40    2.85
 -12   5   6    0.49    1.34
 -12   5  -6    0.61    0.74
 -12  -5   7    8.66    4.18
 -12   5   7    4.72    2.92
 -12   5  -7    3.71    1.93
 -12  -5   8   -1.03    0.67
 -12   5   8    0.32    0.67
 -12  -5   9   11.06    4.72
 -12   5   9    3.96    1.90
 -12   5  10   11.01    4.11
 -12   5  11    1.74    1.73
 -12   5  12    2.03    2.10
 -12   5  13    4.04    2.79
 -12   5  14    0.61    1.19
 -12   5  15   -0.17    1.85
  12   5 -15   -1.27    2.10
 -12  -5  17   15.74    5.86
 -13  -5   0    7.60    3.29
 -13   5   0   14.53    4.86
 -13  -5   1   38.41    8.10
 -13  -5  -1   35.14    7.78
 -13   5   1   38.79    7.78
 -13   5  -1   39.73    7.74
 -13  -5   2   49.22    9.41
 -13  -5  -2   48.62    9.17
 -13   5   2   45.55    8.58
 -13   5  -2   48.44    8.66
 -13   5   3   16.71    5.37
 -13   5  -3   20.14    5.57
 -13  -5   3   22.79    6.25
 -13  -5  -3   17.25    5.21
 -13  -5   4   32.17    7.55
 -13  -5  -4   27.16    6.58
 -13   5   4   35.81    7.77
 -13   5  -4   29.33    6.30
 -13   5   5    7.79    3.61
 -13   5  -5    7.19    3.00
 -13  -5   5    7.05    3.08
 -13  -5  -5    2.77    2.31
 -13   5   6   24.28    6.50
 -13  -5   6   34.88    7.89
 -13  -5  -6   26.78    6.36
 -13   5  -6   32.15    6.43
 -13  -5   7   12.15    4.66
 -13   5   7   11.11    4.22
 -13  -5   8    4.88    3.85
 -13   5   8   -0.84    1.20
 -13   5   9   -2.69    2.55
 -13  -5   9   -0.35    0.82
 -13   5  10   11.12    4.57
 -13   5  11   20.82    6.51
 -13   5  12    3.63    2.54
 -13   5  13    3.01    2.75
 -13  -5  16   18.92    6.76
 -13  -5  17   16.03    5.99
 -14  -5   0   32.94    8.00
 -14   5   0   30.71    7.14
 -14  -5   1   10.04    4.52
 -14  -5  -1   13.31    4.70
 -14   5   1   10.42    4.12
 -14   5  -1   11.49    4.44
 -14  -5   2    2.83    2.63
 -14  -5  -2    2.09    2.18
 -14   5   2    2.83    2.48
 -14   5  -2    2.06    1.88
 -14  -5   3    1.40    2.14
 -14  -5  -3    1.09    1.77
 -14   5   3    1.75    2.26
 -14   5  -3    1.55    1.47
 -14  -5   4    7.08    3.86
 -14  -5  -4    4.61    2.39
 -14   5   4    5.19    2.98
 -14   5  -4    6.04    2.96
 -14   5  -5    1.73    1.65
 -14  -5   5    0.74    1.70
 -14  -5  -5   -1.33    2.09
 -14   5   5   -1.46    1.88
 -14   5   6    0.84    1.65
 -14  -5   6    0.56    0.80
 -14   5   7    3.90    2.95
 -14  -5   7    2.96    3.14
 -14  -5  -7   -2.24    2.96
 -14  -5   8    1.69    2.27
 -14   5   8    0.69    1.59
 -14   5   9    8.25    3.92
 -14   5  10    2.48    2.02
 -14   5  11    2.32    2.87
 -15  -5   0   14.60    5.42
 -15   5   0   13.88    4.89
 -15  -5   1   20.26    6.27
 -15  -5  -1   27.18    7.38
 -15   5  -1   17.09    5.47
 -15   5   1   22.13    6.30
 -15  -5   2    3.50    3.35
 -15  -5  -2    0.51    1.15
 -15   5  -2   -0.01    0.73
 -15   5   2    1.47    1.77
 -15  -5   3   24.54    6.96
 -15  -5  -3   18.91    5.61
 -15   5   3   24.41    6.61
 -15   5  -3   21.19    5.76
 -15  -5   4    3.70    2.94
 -15  -5  -4    3.55    3.04
 -15   5   4    1.74    1.84
 -15   5  -4    5.69    3.01
 -15  -5   5    1.23    2.21
 -15  -5  -5    0.56    1.23
 -15   5   5    1.53    1.52
 -15  -5   6   11.05    4.72
 -15  -5  -6    6.70    3.47
 -15   5   6    6.81    3.59
 -15   5   7    4.61    2.98
 -15  -5   7    5.06    3.12
 -15  -5  -7    8.77    4.04
 -15   5   8    0.99    0.82
 -15  -5  -8   -4.43    3.70
 -15  -5   8    2.44    3.17
 -15  -5  -9   22.99    6.88
 -16  -5   0    0.72    1.04
 -16   5   0   -0.19    1.61
 -16  -5   1    5.78    4.31
 -16  -5  -1    4.99    3.42
 -16   5  -1    4.34    3.10
 -16   5   1    6.12    3.63
 -16  -5   2    0.28    0.80
 -16  -5  -2    4.89    4.02
 -16   5  -2    1.64    2.10
 -16   5   2   -2.76    2.02
 -16  -5   3    3.35    2.71
 -16  -5  -3    0.18    1.08
 -16   5  -3    2.69    2.47
 -16   5   3    5.69    3.56
 -16  -5   4    3.23    2.37
 -16  -5  -4    4.26    3.28
 -16   5   4   -0.62    0.84
 -16  -5   5    5.31    3.60
 -16  -5  -5    4.73    3.12
 -16   5   5    5.66    3.74
 -16  -5   6   -0.17    1.05
 -16  -5  -6   -0.36    1.14
 -16  -5   7    1.07    2.39
 -16  -5  -7   -1.74    2.37
 -16  -5  -8    1.88    1.45
 -16  -5  -9   -1.86    2.77
 -17  -5   0    5.90    3.67
 -17   5   0    6.96    3.65
 -17  -5   1    5.95    3.42
 -17  -5  -1    8.29    4.74
 -17   5  -1    6.08    3.80
 -17   5   1    2.80    2.84
 -17  -5   2    3.85    3.37
 -17  -5  -2    3.88    2.97
 -17   5  -2    2.54    2.59
 -17   5   2    2.81    2.45
 -17  -5  -3    3.51    2.53
   0  -6   0  448.53   19.98
   0   6   0  447.32   16.15
   0  -6   1   -0.63    1.84
   0   6   1    2.32    1.75
   0  -6   2  540.82   21.75
   0   6   2  533.09   15.43
   0   6  -2  527.73   19.44
   0  -6   3    0.94    1.76
   0   6   3    1.12    0.96
   0   6  -3    5.13    2.86
   0  -6   4  335.83   17.24
   0   6   4  328.91    9.09
   0   6  -4  320.43   16.61
   0  -6   5    6.82    3.36
   0   6  -5    7.92    3.89
   0   6  -6  760.19   27.15
   0  -6   6  756.02   26.97
   0  -6   7    2.36    2.81
   0   6  -7    8.63    3.83
   0   6  -8   14.39    4.27
   0   6  -9    0.63    1.41
   0   6 -10  129.48   12.67
   0   6 -11    0.83    1.11
   0   6 -12   91.18   11.24
   0   6 -13   -0.98    1.97
   0   6 -14    1.66    1.00
   0   6 -15    0.95    1.43
   0   6 -16   67.31   10.70
   0   6 -17   -0.34    1.39
   0   6 -18    2.87    2.60
   0   6 -19    0.80    0.70
   0   6 -20   25.70    7.20
   0   6 -21    0.04    1.51
   0   6 -22   56.49   11.16
   1  -6   0   18.76    3.54
  -1  -6   0   19.14    3.46
  -1   6   0   17.59    2.98
   1   6   0   20.97    3.52
   1   6  -1   15.52    3.35
   1  -6   1   12.42    2.87
  -1  -6   1   11.90    2.93
  -1   6   1   14.56    2.62
   1   6   1   15.49    2.97
  -1   6  -1   15.53    3.19
   1  -6   2   36.61    5.47
  -1  -6   2   33.03    5.61
  -1   6   2   33.50    3.61
  -1   6  -2   32.66    4.84
   1   6   2   36.00    4.14
   1   6  -2   34.01    5.09
   1  -6   3   33.11    5.24
  -1  -6   3   31.00    5.47
  -1   6  -3   28.42    4.66
   1   6   3   31.42    3.50
   1   6  -3   31.54    4.90
   1  -6   4   56.03    6.91
  -1  -6   4   47.09    6.91
  -1   6  -4   44.05    5.99
   1   6   4   46.51    3.88
   1   6  -4   45.96    6.44
   1  -6   5   59.11    7.16
  -1  -6   5   64.48    8.08
  -1   6  -5   59.36    7.32
   1   6   5   57.85    3.77
   1   6  -5   59.88    7.40
  -1  -6   6   31.11    5.74
   1   6   6   27.58    1.94
  -1   6  -6   29.02    5.51
   1   6  -6   29.86    5.59
   1  -6   6   34.19    5.62
   1   6  -7   25.64    5.23
  -1  -6   7   25.62    5.23
  -1   6  -7   28.91    5.25
   1  -6   7   28.73    5.38
  -1  -6   8    2.54    2.32
  -1   6  -8    1.56    1.28
   1   6  -8    1.17    1.32
  -1   6  -9    3.21    1.35
   1   6  -9    3.65    1.98
  -1   6 -10    3.92    2.07
   1   6 -10    4.42    2.42
  -1   6 -11    2.29    1.79
   1   6 -11    1.37    1.06
  -1   6 -12    6.96    3.10
   1   6 -12    6.11    3.14
  -1   6 -13    9.83    3.59
   1   6 -13    8.30    3.30
  -1   6 -14    1.09    1.35
   1   6 -14    1.16    0.53
  -1   6 -15   -0.88    2.35
   1   6 -15    0.64    0.83
  -1   6 -16    0.46    0.58
   1   6 -16    4.51    2.26
  -1   6 -17    1.24    0.93
   1   6 -17   -1.10    2.21
  -1   6 -18   -1.00    1.78
   1   6 -18    1.05    1.77
  -1   6 -19    1.20    0.86
   1   6 -19    0.07    1.99
  -1   6 -20   -1.26    1.95
   1   6 -20   -2.34    2.53
  -1   6 -21    0.89    1.15
   1   6 -21    4.80    3.11
  -1   6 -22    1.90    0.83
   1   6 -22    2.29    2.37
   2  -6   0   11.71    2.35
  -2  -6   0   12.59    2.78
   2   6   0   17.37    3.62
   2  -6   1  169.01   11.09
  -2  -6   1  180.34   13.35
  -2   6  -1  175.31   10.61
   2   6  -1  176.54   11.32
   2   6   1  170.92   10.25
   2  -6   2   93.93    8.33
  -2  -6   2   92.99    9.49
  -2   6  -2   95.04    8.24
   2   6  -2   95.42    8.83
   2   6   2   96.31    7.33
   2  -6   3  149.72   10.74
  -2  -6   3  151.37   12.48
  -2   6  -3  153.41   10.87
   2   6  -3  149.88   11.53
   2   6   3  151.38    8.69
   2  -6   4  214.30   12.72
  -2  -6   4  211.46   14.90
  -2   6  -4  213.53   13.30
   2   6  -4  213.45   14.14
   2   6   4  220.92    9.69
  -2  -6   5   32.46    6.35
  -2   6  -5   32.00    5.35
   2   6  -5   29.19    5.76
   2   6   5   30.50    3.31
   2  -6   5   31.67    4.99
   2  -6   6    6.62    2.96
   2   6  -6    5.77    2.83
  -2  -6   6    5.65    2.69
   2   6   6    5.03    1.25
  -2   6  -6    3.28    1.98
  -2   6  -7  172.86   13.60
   2   6  -7  174.53   13.97
   2   6   7  172.64    6.31
  -2  -6   7  183.11   14.19
  -2   6  -8  116.03   11.31
   2   6  -8  115.29   11.77
  -2  -6   8  111.34   11.58
  -2   6  -9  191.97   15.18
   2   6  -9  177.82   14.95
  -2  -6   9  200.50   15.34
   2   6 -10   17.60    4.91
  -2   6 -10   18.57    4.95
  -2   6 -11   43.15    7.59
   2   6 -11   38.31    7.18
   2   6 -12    6.90    3.95
  -2   6 -12    7.72    3.98
  -2   6 -13  230.36   18.48
   2   6 -13  254.11   19.78
  -2   6 -14   24.83    6.59
   2   6 -14   30.75    7.28
  -2   6 -15   46.58    8.76
   2   6 -15   44.71    8.48
  -2   6 -16    3.83    2.87
   2   6 -16    5.29    3.57
  -2   6 -17   29.22    7.14
   2   6 -17   33.13    7.72
  -2   6 -18    1.16    1.06
   2   6 -18    3.44    2.45
  -2   6 -19   51.76   10.09
   2   6 -19   51.45    9.98
  -2   6 -20    0.88    0.93
   2   6 -20    3.32    2.25
  -2   6 -21    9.34    4.61
   2   6 -21    3.79    2.82
  -2   6 -22    7.84    4.31
   2   6 -22    4.97    3.06
   3   6   0    0.50    0.44
   3  -6   0    1.65    1.10
   3  -6   0   -0.40    1.25
  -3  -6   0   -1.75    2.49
   3  -6   1   35.73    4.73
   3  -6  -1   32.99    4.50
  -3  -6   1   33.57    5.86
   3   6  -1   31.38    4.82
   3   6   1   34.51    4.73
   3  -6  -1   33.93    4.21
   3  -6   2   54.70    6.11
  -3  -6   2   57.19    7.79
   3   6  -2   53.18    6.70
   3   6   2   51.67    5.65
   3  -6   3   42.75    5.39
  -3  -6   3   45.78    7.06
   3   6  -3   38.74    5.72
   3   6   3   39.45    4.70
   3  -6   4    7.63    2.31
   3   6  -4    5.87    2.30
  -3  -6   4    9.82    3.60
  -3   6  -4    4.91    1.31
  -3  -6   5   38.63    6.84
  -3   6  -5   35.89    5.43
   3   6  -5   34.39    6.00
   3  -6   5   38.56    5.33
  -3  -6   6    7.71    3.10
   3   6  -6    5.29    2.40
  -3   6  -6    5.67    1.67
  -3  -6   7   36.33    6.52
  -3   6  -7   34.97    6.09
   3   6  -7   36.98    6.35
  -3  -6   8   24.07    5.58
   3   6  -8   20.07    5.12
  -3   6  -8   20.50    4.75
  -3  -6   9   11.09    4.23
   3   6  -9   10.76    3.92
  -3   6  -9    9.18    3.25
   3   6 -10   10.94    4.00
  -3   6 -10   10.58    3.45
  -3   6 -11   37.09    7.02
   3   6 -11   35.73    7.22
   3   6 -12    8.19    3.73
  -3   6 -12    5.95    2.96
  -3   6 -13   50.83    8.73
   3   6 -13   52.32    9.16
   3   6 -14    5.41    3.48
  -3   6 -14    3.31    2.65
   3   6 -15   27.60    7.00
  -3   6 -15   22.23    6.21
  -3   6 -16    7.14    3.64
   3   6 -16    7.57    3.77
  -3   6 -17    5.46    3.11
   3   6 -17    5.20    3.53
  -3   6 -18   10.12    4.48
   3   6 -18   15.41    5.63
  -3   6 -19   12.82    5.05
   3   6 -19   13.01    5.14
  -3   6 -20    0.78    1.46
   3   6 -20    2.09    2.39
  -3   6 -21    1.13    1.51
   3   6 -21   -0.08    1.11
  -3   6 -22    0.50    1.78
  -4  -6   0   80.32    9.41
   4  -6   0   75.21    6.64
   4  -6   1   57.82    5.82
  -4  -6   1   59.42    8.02
   4  -6  -1   57.67    5.85
  -4  -6  -1   58.89    7.73
   4  -6  -1   57.26    5.72
   4   6  -1   58.40    7.02
   4  -6   2    9.01    2.46
  -4  -6   2    8.05    3.13
   4   6  -2    7.45    2.28
  -4  -6   3   55.14    8.08
   4   6  -3   48.86    6.67
   4  -6   3   52.07    5.63
   4  -6   4    4.92    2.16
  -4  -6   4    4.40    2.65
   4   6  -4    2.12    1.40
  -4  -6   5  104.15   11.32
   4   6  -5   93.22    9.89
  -4  -6   6   57.42    8.36
   4   6  -6   63.51    8.37
  -4  -6   7    3.87    2.27
   4   6  -7    1.54    1.48
  -4  -6   8   15.64    4.61
   4   6  -8   16.49    4.38
  -4   6  -9   66.81    9.05
   4   6  -9   67.78    9.49
  -4  -6   9   69.53    9.98
   4   6 -10   29.16    6.41
  -4   6 -10   29.62    6.25
  -4   6 -11  158.06   14.66
   4   6 -11  150.27   14.77
   4   6 -12   12.11    4.39
  -4   6 -12   15.11    4.85
   4   6 -13   12.19    4.92
  -4   6 -13    6.49    3.02
  -4   6 -14   41.02    8.37
   4   6 -14   41.71    8.62
  -4   6 -15  151.39   15.90
   4   6 -15  149.39   16.27
   4   6 -16   10.48    4.95
  -4   6 -16    8.85    4.17
   4   6 -17   25.80    6.98
  -4   6 -17   27.54    7.26
   4   6 -18    1.71    1.50
  -4   6 -18    4.38    3.52
  -4   6 -19    4.13    3.23
   4   6 -19    1.42    1.64
  -4   6 -20   43.57    9.66
   4   6 -20   41.93    9.54
   4   6 -21   21.02    6.78
   5  -6   0   20.50    3.16
  -5  -6   0   11.61    2.92
   5  -6   1   25.72    3.64
   5  -6  -1   20.53    3.24
  -5  -6   1   19.95    4.82
  -5  -6  -1   22.91    4.68
  -5  -6   2   27.54    5.68
   5  -6   2   24.46    3.53
  -5  -6   3   11.03    3.73
   5  -6   3   11.51    2.49
  -5  -6   4   39.24    7.22
   5   6  -4   31.91    5.79
  -5  -6   5    8.22    3.66
   5   6  -5    3.78    2.02
  -5  -6   6    1.79    2.80
   5   6  -6    3.22    1.91
  -5  -6   7   33.07    6.57
   5   6  -7   32.29    6.20
  -5  -6   8   14.36    4.58
   5   6  -8   15.33    4.32
  -5  -6   9   18.76    5.58
   5   6  -9   11.99    3.79
   5   6 -10    2.85    1.96
  -5  -6  10    9.53    4.36
   5   6 -11    3.44    2.09
   5   6 -12   21.91    5.99
   5   6 -13    1.81    1.07
   5   6 -14    1.63    2.25
   5   6 -15   12.50    4.92
   5   6 -16    9.32    4.63
   5   6 -17    5.30    2.98
   5   6 -18    0.78    1.61
   5   6 -19    0.73    1.34
   5   6 -20    2.67    1.82
   5   6 -21    2.73    2.66
   6  -6   0    3.88    1.55
  -6  -6   0   -1.38    2.51
   6  -6  -1   23.85    3.07
  -6  -6   1   25.31    5.57
  -6  -6  -1   24.51    4.84
   6  -6   1   25.88    3.06
  -6  -6   2  125.95   12.90
   6  -6  -2  122.77    7.44
  -6  -6   3   -0.01    1.38
  -6  -6   4   69.45    9.74
  -6  -6   5   27.14    6.46
  -6  -6   6    4.20    3.53
   6   6  -6    0.20    1.59
  -6  -6   7   20.32    5.74
   6   6  -7   20.19    5.29
   6   6  -8  130.24   13.36
  -6  -6   8  125.80   13.56
  -6  -6   9   12.73    4.65
   6   6  -9   10.22    3.60
   6   6 -10   -0.08    1.45
  -6  -6  10    3.30    2.85
   6   6 -11   11.62    4.05
   6   6 -12   54.94    9.38
   6   6 -13    5.09    2.92
   6   6 -14    0.70    1.48
   6   6 -15    2.51    2.50
   6   6 -16    1.17    1.96
   6   6 -17    7.62    3.96
   6   6 -18   62.89   11.49
   6   6 -19    5.13    3.44
   6   6 -20    1.28    1.73
  -7  -6   0   -4.05    3.55
  -7  -6   1    6.57    3.20
  -7  -6  -1    3.16    0.84
  -7  -6   2    4.78    2.74
  -7  -6  -2   -2.29    4.04
  -7  -6   3    1.72    2.38
  -7  -6   4    5.82    3.25
  -7  -6   5   16.46    5.46
  -7  -6   6    1.02    2.52
  -7  -6   7    5.76    2.96
  -7  -6   8    2.33    2.31
   7   6  -8    0.76    0.99
  -7  -6   9    2.52    2.79
   7   6  -9    2.64    2.05
  -7  -6  10    9.52    4.27
   7   6 -10    1.70    1.58
   7   6 -11    9.28    3.68
   7   6 -12    6.87    3.22
   7   6 -13    7.23    3.15
   7   6 -14    2.66    1.74
   7   6 -15    3.08    2.17
   7   6 -16    1.02    2.02
   7   6 -17   -0.56    1.53
   7   6 -18    0.16    0.96
   7   6 -19    4.23    2.30
  -8  -6   0   34.04    6.94
  -8  -6   1   33.75    6.90
  -8  -6  -1   33.09    6.86
  -8  -6   2   22.09    5.60
  -8  -6  -2   19.75    5.05
  -8  -6   3   18.08    5.02
  -8  -6   4    9.15    3.85
  -8  -6   5   72.36   10.64
  -8  -6   6   54.35    9.02
  -8  -6   7    8.38    3.74
  -8  -6   8   10.11    4.28
  -8  -6   9   29.72    6.92
   8   6  -9   31.72    7.11
  -8  -6  10   10.56    4.74
   8   6 -10    8.18    3.84
   8   6 -11   51.23    9.65
   8   6 -12   22.36    6.62
   8   6 -13    2.57    3.16
   8   6 -14   20.40    6.34
   8   6 -15   33.97    8.30
   8   6 -16   10.63    4.86
   8   6 -17    8.49    4.01
   8   6 -18    8.77    4.60
  -9  -6   0   20.32    5.50
  -9  -6   1   14.24    4.72
  -9  -6  -1   16.59    4.88
  -9   6   2    1.07    1.10
  -9  -6   2   -0.22    2.38
  -9  -6  -2   -2.34    3.12
  -9  -6   3    4.98    2.98
  -9  -6  -3   -4.48    4.10
  -9   6   3    0.23    1.64
  -9  -6   4   10.53    4.61
  -9   6   4   -0.49    2.06
  -9  -6   5    4.56    3.23
  -9   6   5   -2.53    2.69
  -9  -6   6   -1.56    2.27
  -9   6   6   -0.79    2.18
  -9  -6   7   18.44    5.76
  -9  -6   8   18.52    6.25
  -9  -6   9    3.60    3.02
  -9  -6  10    9.15    4.27
   9   6 -10    7.21    3.95
   9   6 -11   -0.62    1.41
   9   6 -12    5.11    3.45
   9   6 -13    7.13    3.68
   9   6 -14    3.77    3.03
   9   6 -15    8.09    4.13
   9   6 -16    9.64    4.80
   9   6 -17    0.58    0.80
 -10   6   0   30.88    6.38
 -10  -6   0   31.70    7.18
 -10   6   1   33.58    6.95
 -10   6  -1   36.64    7.11
 -10  -6   1   38.13    7.92
 -10  -6  -1   36.46    7.72
 -10  -6   2   12.34    4.88
 -10  -6  -2    8.88    2.61
 -10   6   2   12.37    4.06
 -10   6  -2   10.81    3.67
 -10  -6   3    1.33    1.81
 -10  -6  -3   -1.02    2.88
 -10   6   3    2.07    1.42
 -10  -6   4   20.97    6.08
 -10  -6  -4   18.04    4.66
 -10   6   4   17.20    5.00
 -10  -6   5   25.22    6.76
 -10   6   5   27.07    6.32
 -10  -6   6   11.84    4.45
 -10   6   6   11.78    4.26
 -10  -6   7    6.72    3.95
 -10   6   7    6.30    3.44
 -10  -6   8   24.19    6.96
 -10   6   8   23.40    6.21
 -10  -6   9   21.99    6.49
 -10   6   9   19.14    5.79
 -10   6  10   15.91    5.47
 -10  -6  10   20.71    6.58
 -10   6  11   10.14    4.33
  10   6 -12   18.79    6.29
  10   6 -13   18.28    6.35
  10   6 -14   22.95    7.24
  10   6 -15   30.94    8.30
  10   6 -16   21.50    6.88
 -11  -6   0   -1.24    1.96
 -11   6   0   -1.58    2.09
 -11   6  -1    1.00    0.97
 -11  -6  -1   -0.41    1.35
 -11   6   1    0.74    1.27
 -11  -6   2   19.63    5.88
 -11   6  -2   22.85    5.51
 -11  -6  -2   20.93    5.93
 -11   6   2   21.92    5.76
 -11  -6   3    6.37    3.40
 -11  -6  -3    0.38    2.15
 -11   6   3   -1.58    2.10
 -11   6  -3    0.02    1.92
 -11  -6  -4    0.93    2.02
 -11   6  -4    2.26    1.57
 -11   6   4   -0.70    1.16
 -11  -6   5    3.87    3.19
 -11  -6  -5   -1.55    3.32
 -11   6   5    2.62    2.02
 -11  -6   6   10.61    3.92
 -11   6   6   14.93    5.41
 -11  -6   7    5.95    3.77
 -11   6   7    0.00    0.85
 -11   6   8   10.01    4.07
 -11  -6   8   13.97    5.94
 -11  -6   9    4.32    3.15
 -11   6   9    1.65    1.65
 -11   6  10    8.63    3.94
 -11  -6  10   11.77    4.70
 -11   6  11    0.34    1.22
  11   6 -12    1.96    2.92
 -11   6  12    0.82    0.63
 -11   6  13    9.89    4.80
  11   6 -13    2.97    2.67
  11   6 -14    6.43    4.11
  11   6 -15    0.33    2.20
 -12  -6   0   -3.49    3.06
 -12   6   0   -0.42    0.86
 -12  -6   1    8.18    3.77
 -12  -6  -1    7.19    3.03
 -12   6   1    8.45    3.55
 -12   6  -1    8.12    3.40
 -12   6   2   38.05    7.76
 -12   6  -2   36.79    7.41
 -12  -6   2   40.47    8.92
 -12  -6  -2   34.68    7.86
 -12  -6   3   45.82    9.32
 -12   6   3   45.22    8.51
 -12  -6  -3   50.20    9.50
 -12   6  -3   47.43    8.31
 -12   6  -4   29.18    6.50
 -12  -6   4   39.11    8.97
 -12  -6  -4   27.19    6.92
 -12   6   4   34.34    7.57
 -12  -6   5   10.30    4.35
 -12  -6  -5    7.02    3.10
 -12   6   5   13.07    4.79
 -12   6  -5   16.34    4.59
 -12  -6   6   13.11    4.80
 -12  -6  -6   10.68    4.46
 -12   6   6   12.21    4.69
 -12   6   7   43.76    9.20
 -12  -6   7   47.04    9.72
 -12  -6   8   33.45    8.06
 -12   6   8   33.59    7.95
 -12  -6   9   11.32    5.30
 -12   6   9   10.88    4.66
 -12  -6  10   20.21    6.71
 -12   6  10   17.65    6.13
 -12   6  11    9.17    4.28
 -12   6  12    1.27    1.76
 -12   6  13   22.38    6.90
  12   6 -13   30.71    8.56
 -13   6   0    0.73    0.75
 -13  -6   0    2.90    2.52
 -13   6   1    2.69    1.86
 -13   6  -1    0.23    0.86
 -13  -6  -1    2.55    2.27
 -13   6   2    2.54    2.47
 -13  -6   2    6.19    3.80
 -13   6  -2    1.73    1.81
 -13  -6  -2    4.38    2.93
 -13   6   3    4.07    2.56
 -13  -6   3    7.56    4.38
 -13  -6  -3    1.87    1.56
 -13   6  -3    7.22    3.52
 -13   6   4    0.11    1.17
 -13  -6   4    2.14    2.80
 -13  -6  -4   -1.08    2.37
 -13   6  -4    2.48    2.18
 -13   6   5    2.32    2.70
 -13  -6   5   -0.62    1.68
 -13  -6  -5    0.95    1.11
 -13  -6   6    2.45    2.37
 -13   6   6    1.52    2.21
 -13  -6  -6   -0.53    2.36
 -13  -6   7    2.21    3.76
 -13   6   7    0.78    1.49
 -13  -6  -7   -1.65    3.62
 -13  -6   8    0.81    1.57
 -13   6   8    1.28    1.76
 -13  -6   9    5.99    4.29
 -13   6   9    1.64    1.23
 -13   6  10   -2.31    2.94
 -13   6  11    2.18    2.00
 -14   6   0   75.26   11.57
 -14  -6   0   66.06   11.63
 -14  -6   1   13.84    5.49
 -14  -6  -1    6.98    3.76
 -14   6   1   10.08    4.48
 -14   6  -1   10.59    4.34
 -14   6  -2    7.65    3.73
 -14  -6   2    7.60    4.02
 -14  -6  -2   10.49    4.57
 -14   6   2    8.60    4.10
 -14   6  -3   12.66    4.50
 -14  -6   3   21.94    7.26
 -14  -6  -3   10.24    4.20
 -14   6   3   14.16    5.24
 -14  -6   4   20.66    6.49
 -14  -6  -4   22.69    6.64
 -14   6   4   22.20    6.59
 -14  -6   5    0.78    1.63
 -14  -6  -5   -2.44    3.43
 -14   6   5    0.55    0.67
 -14  -6   6   32.63    8.22
 -14  -6  -6   29.79    7.73
 -14   6   6   26.41    7.21
 -14   6   7    8.36    4.55
 -14  -6   7    8.94    4.91
 -14  -6  -7    1.78    1.21
 -14   6   8    0.40    1.13
 -14  -6  -8   -0.02    2.34
 -15  -6   0    7.65    4.22
 -15   6   0    8.93    3.92
 -15  -6   1   15.24    6.02
 -15  -6  -1    6.80    3.83
 -15   6   1    7.68    3.87
 -15   6  -1    7.98    3.63
 -15  -6   2   10.66    5.56
 -15  -6  -2    2.24    2.19
 -15   6   2    3.62    2.87
 -15   6  -2    3.84    2.78
 -15  -6   3    1.81    1.87
 -15  -6  -3   -1.72    1.15
 -15   6   3    0.85    1.39
 -15  -6   4    4.77    3.28
 -15  -6  -4    4.34    2.42
 -15   6   4    6.69    3.47
 -15  -6  -5   -0.99    2.09
 -15   6   5   -2.01    1.73
 -16   6   0    1.45    1.29
 -16   6   1    8.19    4.17
 -16   6  -1   14.06    5.47
 -16   6   2   13.43    5.53
   0  -7   0    3.19    2.77
   0   7   0    5.64    3.02
   0  -7   1  548.46   23.94
   0  -7  -1  553.22   24.14
   0   7   1  555.15   18.13
   0   7  -1  538.49   20.27
   0  -7   2    1.05    0.81
   0   7   2    1.98    1.38
   0   7  -2    4.15    2.56
   0  -7   3   19.47    4.35
   0   7   3   20.85    2.92
   0   7  -3   19.73    4.28
   0  -7   4    2.09    2.42
   0   7  -4    2.05    1.85
   0  -7   5  184.73   14.19
   0   7  -5  169.51   13.33
   0  -7   6    4.06    3.35
   0   7  -6    1.88    2.04
   0   7  -7  257.38   17.42
   0  -7   7  271.28   17.53
   0   7  -8    3.31    2.57
   0  -7   8    5.04    3.30
   0   7  -9   40.18    7.13
   0   7 -10   -0.58    1.13
   0   7 -11    5.96    2.96
   0   7 -12   -1.51    2.03
   0   7 -13    9.55    3.51
   0   7 -14   -0.21    0.73
   0   7 -15    6.18    2.92
   0   7 -16   -0.16    1.16
   0   7 -17   -0.73    0.68
   0   7 -18    0.95    0.74
   0   7 -19    7.17    4.14
   0   7 -20   -3.30    3.21
   1  -7   0   21.03    4.36
  -1  -7   0   17.12    4.17
  -1   7   0   18.28    3.32
   1   7   0   19.03    3.66
   1  -7   1    1.93    1.61
  -1  -7   1    0.00    1.56
   1  -7  -1   -1.48    2.52
  -1  -7  -1    0.77    1.44
  -1   7   1    1.15    0.34
  -1   7  -1    1.69    1.26
   1   7   1    1.86    0.98
   1   7  -1    1.38    0.65
   1  -7   2   35.98    5.99
  -1  -7   2   32.11    5.82
  -1   7  -2   34.29    5.26
   1   7   2   35.97    4.35
   1   7  -2   34.06    5.35
   1  -7   3   97.14    9.91
  -1  -7   3   95.05   10.62
  -1   7  -3   99.17    9.47
   1   7   3  101.28    6.93
   1   7  -3  100.04    9.59
   1  -7   4   44.22    6.86
  -1  -7   4   46.14    7.63
  -1   7  -4   43.78    6.50
   1   7  -4   40.64    6.33
   1  -7   5   24.96    5.03
  -1  -7   5   23.62    5.62
  -1   7  -5   22.37    4.67
   1   7  -5   22.58    4.79
  -1  -7   6   68.55    9.23
  -1   7  -6   65.71    8.46
   1   7  -6   62.59    8.48
   1  -7   6   74.44    8.80
  -1   7  -7   31.61    6.08
   1   7  -7   37.02    6.54
   1  -7   7   37.21    6.54
  -1  -7   7   37.11    7.01
  -1  -7   8    3.78    2.73
  -1   7  -8    0.99    1.11
   1   7  -8    1.85    1.40
  -1   7  -9   24.34    5.48
   1   7  -9   31.42    6.44
  -1   7 -10   46.38    8.00
   1   7 -10   42.26    7.64
  -1   7 -11    3.27    2.23
   1   7 -11    1.70    1.38
  -1   7 -12    6.73    3.08
   1   7 -12   11.85    4.32
  -1   7 -13   13.59    4.23
   1   7 -13    9.71    4.09
  -1   7 -14    5.43    2.48
   1   7 -14    6.28    3.26
  -1   7 -15    1.79    1.86
   1   7 -15    4.10    2.75
  -1   7 -16   14.89    4.97
   1   7 -16   19.20    5.85
  -1   7 -17   10.12    4.43
   1   7 -17    7.43    3.29
  -1   7 -18    1.64    2.09
   1   7 -18   -0.16    1.16
  -1   7 -19    9.41    4.20
   1   7 -19    8.02    4.06
  -1   7 -20    7.08    3.80
   1   7 -20    6.91    3.71
   2   7   0    3.31    1.57
   2  -7   0    3.56    1.69
  -2  -7   0    0.59    1.60
   2   7   1   14.06    3.24
   2   7  -1   13.96    3.51
   2  -7   1   11.74    3.00
  -2  -7   1   12.02    3.83
   2  -7  -1   13.30    2.97
  -2  -7  -1   10.23    3.10
   2   7   2    9.88    2.71
   2   7  -2   10.37    3.27
   2  -7   2    8.40    2.89
  -2  -7   2    7.62    3.23
  -2   7  -2    6.82    2.05
   2  -7   3  142.23   11.52
  -2  -7   3  148.53   13.16
  -2   7  -3  143.20   11.20
   2   7   3  143.82    8.93
   2   7  -3  142.59   11.64
   2   7   4    4.79    1.57
   2   7  -4    7.54    3.62
   2  -7   4    4.26    1.75
  -2  -7   4    7.90    3.57
  -2   7  -4    2.23    1.61
  -2  -7   5   72.01    9.45
  -2   7  -5   62.50    7.99
   2   7  -5   62.82    8.21
   2  -7   5   63.41    7.85
  -2  -7   6   69.41    9.28
  -2   7  -6   67.14    8.59
   2   7  -6   70.41    8.97
   2  -7   6   72.63    8.34
   2   7  -7    0.44    0.55
  -2   7  -7   -1.22    2.03
  -2   7  -8   57.57    8.53
   2   7  -8   58.76    8.81
  -2  -7   8   66.04    9.33
   2   7  -9   25.97    5.94
  -2   7  -9   25.94    5.82
  -2  -7   9   27.79    6.33
  -2   7 -10   20.07    5.35
   2   7 -10   19.12    5.15
  -2   7 -11   28.56    6.46
   2   7 -11   24.24    5.91
  -2   7 -12   34.45    7.26
   2   7 -12   34.29    7.26
  -2   7 -13    6.12    3.46
   2   7 -13    3.59    2.61
  -2   7 -14   26.78    6.69
   2   7 -14   26.58    6.91
  -2   7 -15   -0.50    1.59
   2   7 -15    0.53    1.39
  -2   7 -16    5.42    3.35
   2   7 -16    2.46    2.36
  -2   7 -17   -0.31    1.64
   2   7 -17    1.37    2.36
  -2   7 -18   10.18    4.27
   2   7 -18   10.27    4.82
  -2   7 -19    2.70    2.45
   2   7 -19    0.62    1.59
  -2   7 -20   12.59    5.33
   2   7 -20   13.58    5.57
   3  -7   0   77.85    7.92
  -3  -7   0   78.29   10.10
   3   7   0   84.64    8.39
   3  -7   1  106.53    9.28
  -3  -7   1  105.77   11.57
   3  -7  -1  105.83    9.40
  -3  -7  -1  109.34   11.61
   3   7  -1  106.80    9.97
   3   7   1  111.79    9.28
   3  -7   2   41.11    5.81
   3  -7  -2   32.92    5.15
  -3  -7   2   34.44    6.45
   3   7  -2   41.56    6.39
   3   7   2   39.41    5.29
   3  -7   3   53.56    6.55
  -3  -7   3   49.11    7.85
   3   7  -3   50.80    7.22
   3   7   3   54.95    5.99
  -3  -7   4   49.08    7.77
   3   7  -4   53.55    7.61
   3   7   4   50.30    5.45
   3  -7   4   51.03    6.51
   3  -7   5   12.04    3.37
   3   7  -5   12.17    3.93
  -3  -7   5   15.57    4.89
  -3   7  -5    8.43    2.87
  -3  -7   6   27.88    6.09
  -3   7  -6   26.32    5.41
   3   7  -6   31.60    6.28
   3   7  -7   12.04    3.99
  -3  -7   7   16.56    5.12
  -3   7  -7   10.63    3.51
   3   7  -8    7.96    3.09
  -3  -7   8   12.41    4.52
  -3   7  -8   12.11    3.77
  -3   7  -9   37.65    7.09
   3   7  -9   38.82    7.51
  -3  -7   9   46.09    8.19
   3   7 -10   13.37    4.35
  -3   7 -10   14.31    4.55
   3   7 -11    0.75    0.99
  -3   7 -11    1.46    1.89
   3   7 -12    5.98    3.29
  -3   7 -12    6.18    3.31
   3   7 -13   27.20    6.80
  -3   7 -13   24.18    6.27
  -3   7 -14    8.34    3.85
   3   7 -14    6.02    3.01
  -3   7 -15   12.11    4.77
   3   7 -15   10.41    4.45
  -3   7 -16   18.73    5.78
   3   7 -16   18.47    5.97
  -3   7 -17   11.69    4.72
   3   7 -17   16.20    5.85
  -3   7 -18   -0.40    1.40
   3   7 -18   -0.01    0.87
  -3   7 -19    9.27    4.13
   3   7 -19   13.69    5.56
  -3   7 -20    6.02    4.46
   3   7 -20    2.83    2.38
   4  -7   0    5.23    2.08
   4   7   0    3.55    1.30
  -4  -7   0    3.99    1.80
   4  -7   1    4.93    2.14
   4   7  -1    2.70    1.56
   4   7   1    2.81    1.50
  -4  -7   1    4.33    2.71
   4  -7  -1    3.34    1.29
  -4  -7  -1    5.21    0.97
   4  -7   2    4.14    1.88
   4   7  -2    3.04    1.51
  -4  -7   2    2.76    1.79
   4   7   2    3.79    1.80
   4  -7  -2    2.13    0.37
  -4  -7  -2    1.99    2.53
   4  -7   3    5.79    2.17
   4   7  -3    3.67    1.98
  -4  -7   3    1.75    1.71
   4   7   3    2.72    1.23
   4  -7   4    3.60    1.86
   4   7  -4    2.04    0.50
  -4  -7   4    1.17    1.77
   4   7   4    1.42    0.78
   4   7  -5    7.07    2.78
  -4  -7   5   12.22    4.93
   4   7   5    7.47    2.24
   4   7  -6    9.30    3.39
  -4  -7   6   10.37    3.95
  -4  -7   7    2.63    2.91
   4   7  -7    0.65    1.03
  -4  -7   8   27.37    6.40
   4   7  -8   25.63    6.07
  -4  -7   9    5.28    3.82
   4   7  -9    1.39    1.73
   4   7 -10   35.07    7.23
  -4  -7  10   33.90    7.42
   4   7 -11   11.64    4.09
   4   7 -12    2.07    1.93
  -4   7 -12    2.50    1.54
   4   7 -13   17.46    5.64
  -4   7 -13   19.76    5.99
   4   7 -14    3.05    2.67
  -4   7 -14    4.80    2.95
   4   7 -15    1.84    1.04
  -4   7 -15    1.53    1.54
   4   7 -16    8.62    4.32
  -4   7 -16    7.45    3.53
  -4   7 -17    5.62    3.63
   4   7 -17    5.83    3.71
  -4   7 -18   12.93    5.36
   4   7 -18   10.59    4.62
   4   7 -19    7.18    4.39
   5  -7   0    4.95    1.93
  -5  -7   0    2.87    1.84
   5   7   0    4.35    2.06
   5  -7   1   38.69    4.98
   5  -7  -1   33.42    4.62
  -5  -7   1   35.95    7.06
  -5  -7  -1   34.83    6.96
   5   7  -1   34.91    5.99
   5   7   1   35.35    5.65
  -5  -7   2   12.44    4.14
   5   7  -2   14.79    3.99
   5  -7  -2   15.11    3.24
  -5  -7  -2   13.73    3.87
  -5  -7   3    3.04    2.72
   5   7  -3    4.62    2.33
  -5  -7   4   12.42    4.47
   5   7  -4   13.73    4.13
  -5  -7   5   39.70    7.76
   5   7  -5   38.27    7.04
  -5  -7   6   14.34    4.81
   5   7  -6   16.24    4.59
  -5  -7   7   33.65    7.42
   5   7  -7   41.96    7.50
   5   7  -8   32.37    6.90
  -5  -7   8   36.34    7.84
   5   7  -9   35.70    7.56
  -5  -7   9   33.73    7.60
   5   7 -10   54.96    9.36
  -5  -7  10   52.43    9.46
   5   7 -11   38.11    8.18
   5   7 -12    6.28    3.15
   5   7 -13    4.98    2.84
   5   7 -14    4.33    2.75
   5   7 -15    3.41    2.27
   5   7 -16   18.23    6.06
   5   7 -17   12.61    5.20
   5   7 -18    9.34    4.64
   5   7 -19   16.71    6.35
  -6  -7   0   -2.23    3.15
  -6  -7   1    3.23    1.86
  -6  -7  -1    2.85    1.31
  -6  -7   2   46.90    8.18
  -6  -7  -2   42.23    7.88
   6   7  -2   47.92    7.50
  -6  -7   3   14.67    4.65
   6   7  -3   17.44    4.92
  -6  -7   4   32.65    7.31
   6   7  -4   34.08    6.54
  -6  -7   5    8.56    4.16
   6   7  -5    8.26    3.43
  -6  -7   6    2.91    2.10
   6   7  -6    2.88    2.14
  -6  -7   7    4.41    3.02
   6   7  -7    4.39    2.57
  -6  -7   8   27.13    6.97
   6   7  -8   23.18    5.82
  -6  -7   9   10.02    4.83
   6   7  -9    4.18    2.88
  -6  -7  10   17.43    5.70
   6   7 -10   15.18    4.95
   6   7 -11    3.90    3.02
   6   7 -12    6.32    3.78
   6   7 -13   11.60    4.71
   6   7 -14    2.64    2.11
   6   7 -15    7.60    3.98
   6   7 -16    2.54    2.82
   6   7 -17    2.38    2.44
   6   7 -18   11.37    5.04
  -7  -7   0   -0.77    2.23
  -7  -7   1    6.71    3.62
  -7  -7  -1    6.30    2.51
  -7  -7   2   44.74    8.46
  -7  -7  -2   41.78    7.84
  -7  -7   3    0.49    0.86
  -7  -7  -3   -0.16    2.60
  -7  -7   4   25.76    6.38
   7   7  -4   26.52    6.18
  -7  -7   5   10.66    4.96
   7   7  -5    8.36    3.84
  -7  -7   6   13.25    4.41
   7   7  -6   16.97    5.15
  -7  -7   7    2.53    2.17
   7   7  -7    3.15    2.50
   7   7  -8   79.47   11.33
  -7  -7   8   90.32   12.27
  -7  -7   9    4.81    3.51
   7   7  -9    3.46    2.28
  -7  -7  10    2.72    2.93
   7   7 -10    0.17    1.03
   7   7 -11    4.39    3.23
   7   7 -12   59.29   10.68
   7   7 -13    4.35    3.34
   7   7 -14   15.47    5.86
   7   7 -15   -1.92    1.93
   7   7 -16   -0.46    0.98
   7   7 -17    9.60    4.68
  -8  -7   0   25.37    6.10
  -8  -7   1   22.88    6.19
  -8  -7  -1   18.31    5.25
  -8  -7   2    9.07    4.20
  -8  -7  -2    4.73    1.64
  -8  -7   3    7.97    3.28
  -8  -7  -3    8.59    2.94
  -8  -7   4   10.53    4.63
  -8  -7   5   30.04    7.76
  -8  -7   6    3.80    3.38
   8   7  -6    7.60    3.66
  -8  -7   7   12.93    4.60
   8   7  -7   10.08    4.19
  -8  -7   8   14.29    5.35
   8   7  -8   17.69    5.54
  -8  -7   9    3.96    3.28
   8   7  -9    1.61    2.85
  -8  -7  10    8.12    4.38
   8   7 -10    5.73    2.76
   8   7 -11   16.64    5.66
   8   7 -12    9.86    4.38
   8   7 -13    2.97    1.95
   8   7 -14    0.27    1.56
   8   7 -15    2.42    2.08
   8   7 -16    1.19    2.94
  -9  -7   0   90.68   12.60
  -9  -7   1   39.36    8.68
  -9  -7  -1   42.83    8.78
  -9  -7   2    0.80    1.29
  -9  -7  -2   -0.86    1.87
  -9  -7   3    4.83    2.85
  -9  -7  -3   -1.61    3.39
  -9  -7   4    5.10    3.07
  -9  -7  -4   -2.22    2.65
  -9  -7   5   68.49   11.22
  -9  -7   6   15.77    5.49
  -9  -7   7   -1.15    1.79
  -9  -7   8    3.87    2.85
   9   7  -8    4.23    3.38
  -9  -7   9   10.65    4.54
   9   7  -9    9.99    4.37
  -9  -7  10    9.36    4.23
   9   7 -10   11.10    4.70
   9   7 -11   43.75    9.41
   9   7 -12    3.55    3.02
   9   7 -13    1.10    1.16
   9   7 -14    3.50    2.79
   9   7 -15   48.84   10.75
 -10  -7   0    3.54    2.69
 -10  -7   1   19.45    6.37
 -10  -7  -1   14.50    4.65
 -10  -7   2    6.79    3.09
 -10  -7  -2    6.21    2.57
 -10  -7   3    6.09    4.05
 -10  -7  -3    1.49    1.34
 -10  -7   4    3.79    3.03
 -10  -7  -4    0.82    2.03
 -10  -7   5    1.62    2.74
 -10  -7  -5   -1.96    0.85
 -10  -7   6    3.66    2.77
 -10  -7   7    1.92    2.46
 -10  -7   8    6.80    3.81
 -10  -7   9    8.18    4.25
  10   7  -9    8.99    4.17
 -10  -7  10   17.73    6.38
  10   7 -10   15.23    5.74
  10   7 -11    6.74    3.98
  10   7 -12    2.23    2.38
  10   7 -13    3.63    2.83
  10   7 -14    4.56    2.74
 -11  -7   0   -2.09    1.68
 -11  -7   1   -1.67    0.98
 -11  -7  -1   -1.57    2.40
 -11  -7   2    6.52    3.78
 -11  -7  -2    7.42    3.38
 -11  -7   3   38.98    9.09
 -11  -7  -3   38.78    8.52
 -11  -7   4   20.56    6.63
 -11  -7  -4   11.52    4.67
 -11  -7   5   -3.21    2.89
 -11  -7  -5   -1.78    1.50
 -11  -7   6   15.53    5.51
 -11  -7  -6   10.36    4.36
 -11  -7   7   36.48    8.65
 -11  -7   8   30.83    8.42
 -11  -7   9   21.33    6.89
  11   7 -10    7.84    4.64
 -11  -7  10    6.07    4.84
  11   7 -11    1.06    1.07
  11   7 -12    4.75    2.87
 -12  -7   0    8.29    4.28
 -12  -7   1   12.25    4.79
 -12  -7  -1    9.87    4.39
 -12  -7   2    7.17    4.28
 -12  -7  -2    3.68    2.23
 -12  -7   3    9.59    4.95
 -12  -7  -3    2.16    0.77
 -12  -7   4   11.68    5.43
 -12  -7  -4    9.09    4.31
 -12  -7   5    2.89    3.00
 -12  -7  -5   -2.76    3.18
 -12  -7   6    0.10    1.15
 -12  -7  -6   -3.29    3.74
 -12  -7   7   18.99    6.86
 -12  -7  -7    7.87    3.19
 -12  -7   8   10.57    5.58
 -13  -7   0    7.21    3.26
 -13  -7   1    5.49    4.05
 -13  -7  -1    6.61    2.89
 -13  -7   2   11.48    5.10
 -13  -7  -2    5.36    3.67
 -13  -7   3   10.88    5.15
 -13  -7  -3    2.06    2.45
 -13  -7   4   10.46    5.05
 -13  -7  -4    9.57    4.16
 -13  -7   5    0.69    0.75
 -13  -7  -5    2.73    2.03
 -14   7   0   10.36    4.29
 -14   7   1    0.86    0.98
 -14   7   2    4.21    2.93
 -14   7   3    4.68    2.79
 -14   7   4    3.23    2.40
 -14   7   5    4.66    3.24
 -15   7   0    3.08    2.60
 -15   7   1    4.63    3.23
 -15   7   2    0.01    0.82
   0  -8   0   47.03    7.45
   0  -8   1   -0.79    2.00
   0  -8  -1   -0.73    0.54
   0   8  -1    1.67    1.45
   0  -8   2   25.88    5.64
   0  -8  -2   24.04    5.35
   0   8  -2   24.56    4.68
   0  -8   3    0.38    1.63
   0   8  -3    0.40    0.66
   0  -8   4   22.07    5.34
   0   8  -4   19.88    4.66
   0  -8   5   -0.11    0.60
   0   8  -5   -0.18    1.07
   0   8  -6   46.52    7.48
   0  -8   6   50.15    7.98
   0  -8   7    0.69    1.44
   0   8  -7    0.90    1.26
   0   8  -8    2.16    2.08
   0  -8   8    5.42    3.32
   0   8  -9   -0.17    0.54
   0   8 -10   22.19    5.66
   0   8 -11    1.32    1.56
   0   8 -12    3.38    1.97
   0   8 -13   -0.95    1.77
   0   8 -14    2.72    1.40
   0   8 -15   -0.17    0.69
   0   8 -16   13.68    4.86
   0   8 -17   -0.84    1.01
   0   8 -18   -1.63    2.34
   1  -8   0   10.10    3.27
  -1  -8   0    9.93    3.44
   1  -8   1    0.40    0.89
  -1  -8   1    1.34    1.12
   1  -8  -1    0.29    1.82
  -1  -8  -1    1.16    0.98
   1   8  -1    2.48    1.68
   1  -8   2   24.69    5.34
  -1  -8   2   26.22    6.04
   1  -8  -2   23.30    5.06
  -1  -8  -2   19.01    4.56
  -1   8  -2   19.54    4.13
   1   8  -2   19.50    4.24
   1  -8   3    7.54    3.39
  -1  -8   3    6.88    3.29
  -1   8  -3    7.78    3.05
   1   8  -3    6.58    2.44
   1  -8   4    8.37    3.16
  -1  -8   4    8.73    3.66
  -1   8  -4    3.06    1.52
   1   8  -4    2.33    1.44
   1  -8   5   10.23    3.59
  -1  -8   5    9.43    3.79
  -1   8  -5   10.61    3.50
   1   8  -5    8.20    3.02
  -1  -8   6   27.83    6.27
   1   8  -6   28.68    5.88
  -1   8  -6   22.83    5.09
   1  -8   6   29.13    6.04
   1  -8   7    4.15    2.90
  -1  -8   7    1.42    1.46
  -1   8  -7   -0.99    1.77
   1   8  -7    1.21    0.91
  -1  -8   8    2.16    1.92
  -1   8  -8   -0.92    1.84
   1   8  -8    3.55    2.32
  -1   8  -9    1.28    1.25
   1   8  -9    2.11    1.89
  -1   8 -10   -3.21    2.70
   1   8 -10   -0.81    1.98
  -1   8 -11    6.14    2.89
   1   8 -11    3.56    2.07
  -1   8 -12   -0.29    0.55
   1   8 -12    0.94    0.50
  -1   8 -13    2.98    2.11
   1   8 -13    1.86    2.12
  -1   8 -14    0.01    0.51
   1   8 -14    1.10    1.09
  -1   8 -15   -0.85    0.92
   1   8 -15   -0.79    2.35
  -1   8 -16    0.46    1.28
   1   8 -16   -0.22    1.74
  -1   8 -17   -1.02    2.02
   1   8 -17   -0.84    1.90
  -1   8 -18    0.06    1.11
   1   8 -18    0.58    1.55
   2  -8   0    4.12    1.97
  -2  -8   0    0.03    2.19
   2   8   0    4.52    1.93
   2  -8   1    7.03    2.85
  -2  -8   1    2.50    0.81
   2  -8  -1    6.02    2.45
  -2  -8  -1    3.25    1.87
   2   8  -1    5.27    2.05
   2  -8   2    3.42    2.40
  -2  -8   2    1.83    2.03
   2  -8  -2    1.48    0.74
  -2  -8  -2    1.06    1.49
   2   8  -2    1.68    1.51
   2  -8   3   76.06    9.22
  -2  -8   3   76.20   10.36
   2  -8  -3   77.78    9.22
  -2   8  -3   77.37    8.74
   2   8  -3   73.28    8.86
   2  -8   4   26.31    5.40
  -2  -8   4   29.92    6.65
  -2   8  -4   24.89    5.19
   2   8  -4   26.63    5.60
   2  -8   5    6.08    2.72
  -2  -8   5   10.19    3.87
  -2   8  -5    5.53    2.97
   2   8  -5    6.38    2.98
   2  -8   6    6.99    2.88
  -2  -8   6    4.29    2.46
  -2   8  -6    5.81    2.71
   2   8  -6    4.33    2.60
  -2  -8   7   21.36    5.73
  -2   8  -7   20.40    4.97
   2   8  -7   21.91    5.41
  -2  -8   8    1.65    2.15
  -2   8  -8    2.12    2.12
   2   8  -8    1.70    1.75
  -2   8  -9   18.27    5.16
   2   8  -9   20.07    5.54
  -2  -8   9   18.46    5.56
  -2   8 -10    2.36    2.10
   2   8 -10    3.50    2.23
  -2   8 -11    2.26    2.44
   2   8 -11    2.36    1.96
  -2   8 -12   -1.53    1.40
   2   8 -12    2.12    2.28
  -2   8 -13   14.16    5.21
   2   8 -13    8.49    3.74
  -2   8 -14    1.78    2.29
   2   8 -14    2.51    2.46
  -2   8 -15   -0.18    1.04
   2   8 -15    1.21    2.18
  -2   8 -16    9.04    4.00
   2   8 -16    8.16    4.26
  -2   8 -17    5.68    3.56
   2   8 -17   10.53    4.95
  -2   8 -18   -2.31    2.30
   2   8 -18    1.80    2.13
   3   8   0    0.42    0.35
   3  -8   0   -0.09    0.55
  -3  -8   0    0.10    1.19
   3   8  -1   10.56    3.14
   3  -8   1   10.96    3.48
  -3  -8   1   13.76    4.56
   3  -8  -1   11.42    3.13
  -3  -8  -1   11.19    4.18
   3   8  -2    1.05    0.91
   3  -8   2    2.99    2.19
  -3  -8   2    0.62    1.28
   3  -8  -2    1.01    0.55
  -3  -8  -2   -0.38    2.15
   3   8  -3    8.09    3.04
   3  -8   3    5.92    2.10
  -3  -8   3    5.65    3.32
   3  -8  -3    6.70    2.36
  -3  -8  -3    6.75    2.41
   3   8  -4   16.28    4.38
   3  -8   4   15.50    4.05
  -3  -8   4   17.22    5.21
   3   8  -5    6.80    3.03
   3  -8   5    6.78    2.95
  -3  -8   5    6.53    3.44
   3   8  -6    0.46    1.37
  -3  -8   6    0.24    0.88
   3   8  -7    5.81    2.80
  -3  -8   7    7.44    3.72
  -3   8  -7    4.41    2.46
   3   8  -8    5.48    2.85
  -3  -8   8    9.32    4.24
  -3   8  -8    5.97    2.74
   3   8  -9   11.99    4.39
  -3  -8   9   16.85    5.21
  -3   8  -9   10.58    3.84
  -3   8 -10    3.40    2.49
   3   8 -10    2.39    1.67
  -3   8 -11    1.98    1.91
   3   8 -11    1.73    2.04
  -3   8 -12    7.59    3.89
   3   8 -12    4.71    2.82
  -3   8 -13   20.32    6.19
   3   8 -13   18.71    5.81
  -3   8 -14    1.92    1.94
   3   8 -14    5.45    3.29
  -3   8 -15    6.34    3.34
   3   8 -15    8.50    4.07
  -3   8 -16    3.55    3.03
   3   8 -16    1.31    1.92
  -3   8 -17    5.39    3.73
   3   8 -17    1.24    1.68
  -3   8 -18    1.29    2.05
  -4  -8   0   47.40    8.64
   4   8   0   53.05    7.29
  -4  -8   1   46.88    8.51
  -4  -8  -1   42.79    7.91
   4   8  -1   44.85    6.89
   4   8  -2    3.99    2.44
  -4  -8   2    3.10    2.22
  -4  -8  -2   -1.10    2.85
   4   8  -3    3.33    2.05
  -4  -8   3    0.36    1.48
   4  -8  -3    1.24    0.67
  -4  -8  -3   -0.90    2.82
   4   8  -4    5.35    2.53
  -4  -8   4    7.30    3.60
   4   8  -5   14.47    4.54
  -4  -8   5   16.11    5.21
  -4  -8   6   36.06    7.50
   4   8  -6   34.99    7.07
  -4  -8   7   28.52    6.91
   4   8  -7   32.12    6.87
   4   8  -8    2.96    2.08
  -4  -8   8    3.93    2.62
   4   8  -9    7.38    3.52
  -4  -8   9   11.99    5.08
   4   8 -10   44.53    8.47
  -4  -8  10   52.51    9.36
   4   8 -11    6.51    3.35
   4   8 -12    3.13    2.09
   4   8 -13    7.10    3.94
   4   8 -14    2.39    2.49
   4   8 -15   -0.68    1.64
   4   8 -16    7.38    4.01
   4   8 -17    0.00    0.80
  -5  -8   0   20.45    5.59
   5   8   0   23.99    5.11
   5   8  -1    0.48    0.65
   5   8   1   -0.86    1.21
  -5  -8   1   -0.57    1.54
  -5  -8  -1    0.05    2.47
   5   8  -2    4.04    2.12
  -5  -8   2    2.62    1.52
  -5  -8  -2    0.90    1.06
   5   8  -3    3.46    2.15
  -5  -8   3    5.74    3.72
  -5  -8  -3   -1.97    3.11
   5   8  -4    5.64    2.82
  -5  -8   4    8.81    4.22
   5   8  -5    2.50    1.89
  -5  -8   5    2.40    2.94
   5   8  -6    7.12    2.90
  -5  -8   6    7.88    3.45
   5   8  -7    4.98    2.76
  -5  -8   7    5.67    3.21
   5   8  -8    6.89    3.19
  -5  -8   8   10.35    4.61
  -5  -8   9    3.87    3.12
   5   8  -9    0.44    1.59
   5   8 -10   -0.07    0.48
  -5  -8  10    2.31    2.39
   5   8 -11    1.51    1.54
   5   8 -12    2.97    2.35
   5   8 -13   -1.33    2.09
   5   8 -14   -2.48    2.66
   5   8 -15   12.13    5.08
   5   8 -16    2.95    2.18
  -6  -8   0    1.50    1.41
   6   8   0    1.51    1.43
  -6  -8   1    8.54    3.98
   6   8  -1    5.61    2.59
  -6  -8  -1    5.25    2.44
   6   8   1    5.97    2.61
  -6  -8   2   23.26    6.25
   6   8  -2   24.08    5.55
  -6  -8  -2   22.82    6.02
  -6  -8   3   -0.95    1.40
   6   8  -3    1.10    1.27
  -6  -8  -3   -2.00    3.10
  -6  -8   4   27.16    7.06
   6   8  -4   19.51    5.17
  -6  -8  -4   18.69    5.40
  -6  -8   5   16.61    5.71
   6   8  -5   10.04    3.96
  -6  -8   6    4.24    2.40
   6   8  -6    3.85    2.51
  -6  -8   7   15.87    5.58
   6   8  -7   15.39    4.81
   6   8  -8   39.86    8.07
  -6  -8   8   44.18    9.07
  -6  -8   9   11.88    5.63
   6   8  -9    7.61    3.60
  -6  -8  10    7.22    3.97
   6   8 -10    4.13    2.36
   6   8 -11   10.74    4.53
   6   8 -12   19.26    6.18
   6   8 -13   14.40    5.64
   6   8 -14   10.72    4.46
   6   8 -15    4.65    3.17
   6   8 -16    2.82    2.73
  -7  -8   0   -1.26    1.63
   7   8   0   -0.48    1.47
  -7  -8   1    0.37    1.03
  -7  -8  -1   -1.05    2.07
   7   8  -1   -0.68    0.59
   7   8   1    0.41    0.54
  -7  -8   2    5.52    3.87
  -7  -8  -2    1.71    2.22
   7   8  -2    2.95    2.18
  -7  -8   3    2.82    2.68
   7   8  -3   -0.14    0.56
  -7  -8  -3   -2.31    3.76
  -7  -8   4    3.26    3.22
   7   8  -4    1.32    1.26
  -7  -8  -4    1.12    1.50
  -7  -8   5    5.85    4.05
   7   8  -5    3.25    2.27
  -7  -8   6    6.28    3.69
   7   8  -6    3.37    2.04
  -7  -8   7    1.99    2.91
   7   8  -7   -1.40    1.70
  -7  -8   8    2.55    2.68
   7   8  -8    2.93    2.49
  -7  -8   9    4.13    3.90
   7   8  -9    2.64    2.09
  -7  -8  10    4.29    3.89
   7   8 -10    2.70    2.37
   7   8 -11    4.48    3.22
   7   8 -12    2.44    2.53
   7   8 -13    3.19    2.66
   7   8 -14    2.53    2.04
   7   8 -15    2.02    2.29
  -8  -8   0   -1.77    2.79
  -8  -8   1   16.02    5.58
  -8  -8  -1   14.44    4.85
  -8  -8   2   13.49    4.97
  -8  -8  -2   12.06    4.53
   8   8  -2   12.73    4.40
  -8  -8   3    2.58    2.38
  -8  -8  -3    1.88    1.08
   8   8  -3    3.27    2.56
  -8  -8   4    3.72    3.08
   8   8  -4    4.02    2.86
  -8  -8  -4    3.74    2.68
  -8  -8   5   27.97    7.59
   8   8  -5   23.83    6.30
  -8  -8  -5   20.59    6.27
  -8  -8   6    5.96    3.56
   8   8  -6    5.83    3.25
  -8  -8   7    5.17    3.25
   8   8  -7    7.24    3.69
  -8  -8   8   22.71    6.98
   8   8  -8   12.12    4.63
  -8  -8   9   24.30    7.43
   8   8  -9   15.25    5.50
  -8  -8  10    8.35    4.84
   8   8 -10    2.58    2.32
   8   8 -11   27.73    7.47
   8   8 -12   21.06    6.85
   8   8 -13    1.91    1.89
   8   8 -14    3.78    3.20
  -9  -8   0    0.42    0.87
  -9  -8   1   -0.03    1.28
  -9  -8  -1   -2.37    2.28
  -9  -8   2    5.21    3.24
  -9  -8  -2    1.09    2.26
  -9  -8   3    3.03    2.95
  -9  -8  -3    1.29    0.61
  -9  -8   4    6.42    4.31
  -9  -8  -4   -1.84    1.90
   9   8  -4    3.06    2.78
   9   8  -5    0.46    0.77
  -9  -8  -5    2.43    2.65
  -9  -8   6    8.34    3.71
   9   8  -6   11.15    4.68
  -9  -8  -6    3.82    1.85
  -9  -8   7    2.25    0.67
   9   8  -7    3.53    2.34
  -9  -8   8    6.44    4.16
   9   8  -8    1.50    1.20
  -9  -8   9    2.41    3.17
   9   8  -9    4.25    3.06
  -9  -8  10    6.41    3.93
   9   8 -10    1.19    1.33
   9   8 -11    3.84    3.41
   9   8 -12    1.39    1.02
   9   8 -13   -0.46    0.74
 -10  -8   0    6.49    3.02
 -10  -8   1    8.32    4.38
 -10  -8  -1    9.72    4.14
 -10  -8   2    6.47    3.69
 -10  -8  -2    4.15    3.00
 -10  -8   3    8.80    4.74
 -10  -8  -3    4.79    2.21
 -10  -8   4   23.54    7.43
 -10  -8  -4   16.20    5.56
 -10  -8   5   26.81    7.60
 -10  -8  -5   18.30    6.05
 -10  -8   6   24.69    7.62
 -10  -8  -6   17.55    6.02
  10   8  -6   19.44    6.33
 -10  -8   7    7.34    3.91
  10   8  -7    2.04    2.42
 -10  -8   8   12.57    5.78
  10   8  -8   16.69    5.81
  10   8  -9   12.32    5.24
  10   8 -10    3.78    2.92
  10   8 -11   10.83    5.10
 -11  -8   0   -0.26    1.63
 -11  -8   1    9.29    4.57
 -11  -8  -1   12.81    5.67
 -11  -8   2    1.98    2.39
 -11  -8  -2   -0.43    2.25
 -11  -8   3    4.64    3.39
 -11  -8  -3   -3.24    3.66
 -11  -8   4    5.05    3.72
 -11  -8  -4   -0.74    1.24
  11   8  -7    0.92    1.85
  11   8  -8    2.35    2.64
  11   8  -9   -0.44    0.66
   0  -9   0   -0.25    0.93
   0  -9   1    1.47    2.49
   0  -9  -1    1.23    1.54
   0  -9   2    1.68    2.26
   0  -9  -2    0.46    1.44
   0  -9   3   11.50    4.26
   0  -9  -3    9.89    3.50
   0  -9   4   -0.19    0.87
   0  -9  -4   -1.65    2.00
   0  -9   5    3.22    2.50
   0  -9   6    1.50    2.01
   0   9  -6   -0.66    1.93
   0  -9   7    5.69    3.58
   0   9  -7    0.28    0.86
   0   9  -8   -2.21    2.03
   0   9  -9    6.36    3.25
   0   9 -10   -4.64    3.13
   0   9 -11    5.04    2.90
   0   9 -12   -3.75    3.45
   0   9 -13   -2.00    2.28
   0   9 -14   -1.17    2.21
   0   9 -15    1.66    1.32
   0   9 -16   -0.78    1.97
   1  -9   0   18.21    4.79
  -1  -9   0   25.08    6.07
   1  -9   1    5.16    2.70
  -1  -9   1    4.21    2.44
   1  -9  -1    3.42    2.63
  -1  -9  -1    3.36    2.00
   1  -9   2   12.85    4.31
  -1  -9   2   13.02    4.44
   1  -9  -2   12.04    3.81
  -1  -9  -2   14.85    4.45
   1  -9   3   26.38    5.82
  -1  -9   3   28.23    6.64
   1  -9  -3   22.12    5.37
  -1  -9  -3   18.88    5.03
   1  -9   4   16.99    4.75
  -1  -9   4   19.40    5.43
   1  -9  -4   17.88    4.80
  -1  -9  -4   18.24    5.02
   1  -9   5    3.51    2.64
  -1  -9   5    3.08    2.42
  -1  -9   6   31.96    6.89
   1   9  -6   27.47    6.13
   1  -9   6   33.88    6.95
  -1  -9   7   21.16    5.73
  -1   9  -7   17.24    4.73
   1   9  -7   18.59    5.22
   1  -9   7   23.40    5.71
  -1  -9   8    1.66    1.91
  -1   9  -8    1.27    1.05
   1   9  -8    1.30    1.60
  -1   9  -9    6.53    2.95
   1   9  -9    7.10    3.40
  -1   9 -10   14.38    4.60
   1   9 -10   17.81    5.29
  -1   9 -11    0.90    0.94
   1   9 -11    5.67    3.38
  -1   9 -12    2.80    2.02
   1   9 -12    4.87    2.75
  -1   9 -13   10.02    4.37
   1   9 -13   10.94    4.40
  -1   9 -14    3.92    3.07
   1   9 -14    4.90    3.03
  -1   9 -15    5.03    3.29
   1   9 -15    2.03    2.24
  -1   9 -16    9.25    4.44
   1   9 -16    7.89    4.16
   2  -9   0    4.93    2.39
  -2  -9   0    4.00    2.33
   2  -9   1    2.15    2.08
  -2  -9   1    2.92    2.02
   2  -9  -1    2.14    1.71
  -2  -9  -1   -1.96    2.96
   2  -9   2    3.23    2.14
  -2  -9   2    4.70    2.62
   2  -9  -2    2.27    1.76
  -2  -9  -2    1.23    1.39
  -2  -9   3   12.23    4.70
   2  -9  -3    5.97    2.72
  -2  -9  -3    4.99    2.55
  -2  -9   4   10.63    4.59
   2  -9  -4    0.79    1.05
  -2  -9  -4    6.24    3.04
  -2  -9   5    2.68    2.39
   2   9  -5    3.38    2.04
  -2  -9   6   10.04    4.56
   2   9  -6    5.24    2.78
  -2  -9   7    1.02    2.74
  -2   9  -7    0.16    1.05
   2   9  -7   -0.14    0.77
  -2  -9   8    3.28    2.87
  -2   9  -8    0.64    1.36
   2   9  -8    1.90    1.51
  -2   9  -9   -0.98    1.63
   2   9  -9    0.48    1.36
  -2  -9   9    2.30    2.64
  -2   9 -10    3.84    2.38
   2   9 -10    4.24    2.70
  -2   9 -11    1.04    0.44
   2   9 -11    0.96    1.28
  -2   9 -12    1.64    2.03
   2   9 -12    0.75    1.32
  -2   9 -13    1.46    1.20
   2   9 -13    1.04    1.58
  -2   9 -14    1.66    1.72
   2   9 -14    2.22    1.89
  -2   9 -15   -0.11    1.73
   2   9 -15    2.86    2.41
  -2   9 -16    0.02    0.50
  -3  -9   0   15.61    4.96
  -3  -9   1   30.68    7.20
  -3  -9  -1   26.36    6.43
  -3  -9   2   12.88    4.52
  -3  -9  -2   11.40    3.96
  -3  -9   3   32.64    7.46
  -3  -9  -3   32.81    7.19
  -3  -9   4   34.29    7.73
  -3  -9  -4   28.17    6.67
  -3  -9   5   15.41    5.06
   3   9  -5   16.82    4.89
  -3  -9   6   21.22    5.94
   3   9  -6   20.94    5.55
  -3  -9   7   19.26    6.03
   3   9  -7   16.84    5.30
  -3  -9   8   14.46    5.48
   3   9  -8    9.62    3.91
  -3  -9   9   32.43    7.90
   3   9  -9   23.93    6.20
   3   9 -10    8.07    3.64
   3   9 -11    3.60    2.61
  -3   9 -12    1.79    1.92
   3   9 -12    2.75    2.31
  -3   9 -13    6.88    3.78
   3   9 -13    5.34    3.59
  -3   9 -14    1.94    1.78
   3   9 -14    3.39    2.82
  -3   9 -15    5.09    3.31
   3   9 -15    3.27    2.99
  -3   9 -16    2.65    2.51
  -4  -9   0   11.56    4.61
  -4  -9   1    9.05    4.41
  -4  -9  -1    0.99    1.07
  -4  -9   2    4.44    2.94
  -4  -9  -2   -2.89    1.91
  -4  -9   3    6.69    4.03
  -4  -9  -3    0.05    1.42
  -4  -9   4    7.88    3.66
  -4  -9  -4    0.27    2.04
   4   9  -5    1.54    1.37
  -4  -9   5    1.02    1.38
   4   9  -6    0.64    1.19
  -4  -9   6    3.23    2.92
   4   9  -7    3.95    2.66
  -4  -9   7   -0.20    1.35
   4   9  -8    8.25    3.59
  -4  -9   8   12.04    4.66
  -4  -9   9    6.65    4.07
   4   9  -9    2.74    2.12
   4   9 -10    1.17    2.25
   4   9 -11   -0.65    0.69
   4   9 -12    8.50    4.56
   4   9 -13    5.19    3.57
   4   9 -14    1.62    0.76
   4   9 -15    1.24    0.72
  -5  -9   0   11.18    4.82
  -5  -9   1   36.32    8.02
  -5  -9  -1   37.65    8.20
  -5  -9   2    4.93    2.83
  -5  -9  -2    4.11    3.19
  -5  -9   3    0.17    1.80
  -5  -9  -3   -1.28    2.31
   5   9  -4   13.07    4.54
  -5  -9   4   14.53    5.31
  -5  -9  -4    7.72    3.55
  -5  -9   5   31.25    7.77
  -5  -9  -5   34.60    8.02
   5   9  -5   28.58    6.58
   5   9  -6    6.85    3.60
  -5  -9   6    6.87    3.88
   5   9  -7   22.66    6.31
  -5  -9   7   26.17    6.99
   5   9  -8    7.89    3.91
  -5  -9   8   14.78    5.54
   5   9  -9   14.89    5.26
  -5  -9   9   10.57    4.60
   5   9 -10   12.93    4.98
  -5  -9  10   18.17    6.05
   5   9 -11   14.86    5.38
   5   9 -12    8.11    4.07
   5   9 -13    1.95    2.07
   5   9 -14    3.26    2.43
  -6  -9   0    0.96    1.03
  -6  -9   1    4.28    2.86
  -6  -9  -1    5.04    2.63
  -6  -9   2   -1.55    2.57
  -6  -9  -2    1.93    2.19
  -6  -9   3    2.41    2.50
  -6  -9  -3    0.11    1.12
   6   9  -4    1.83    1.61
  -6  -9   4    1.92    3.00
  -6  -9  -4   -1.47    2.98
   6   9  -5    2.88    1.95
  -6  -9   5    5.83    3.25
  -6  -9  -5    0.24    2.13
   6   9  -6    5.11    2.67
  -6  -9   6    5.47    3.69
   6   9  -7    2.45    2.26
  -6  -9   7    3.37    2.89
   6   9  -8   -3.28    2.59
  -6  -9   8    5.92    3.86
   6   9  -9    1.96    2.29
  -6  -9   9    3.05    2.51
   6   9 -10    2.50    1.95
  -6  -9  10    1.87    2.33
   6   9 -11    0.36    1.29
   6   9 -12    5.95    3.49
   6   9 -13   -1.77    2.63
  -7  -9   0    2.31    2.56
  -7  -9   1   -1.46    1.93
  -7  -9  -1    1.02    1.58
  -7  -9   2   33.97    8.73
  -7  -9  -2   32.63    8.09
  -7  -9   3    3.60    3.70
  -7  -9  -3    0.19    1.53
  -7  -9   4   24.95    7.56
   7   9  -4   12.71    4.46
  -7  -9  -4   14.34    5.26
  -7  -9   5    1.21    1.85
   7   9  -5    4.07    2.67
  -7  -9  -5    3.91    3.23
  -7  -9   6   16.41    5.92
   7   9  -6   11.92    4.49
  -7  -9  -6    8.87    4.17
  -7  -9   7    0.23    2.97
   7   9  -7    1.38    2.37
   7   9  -8   52.09    9.92
  -7  -9   8   49.51   10.51
  -7  -9   9    4.67    3.49
   7   9  -9    4.27    3.06
   7   9 -10    2.22    2.27
  -7  -9  10    6.94    4.47
   7   9 -11    6.02    3.81
   7   9 -12   29.04    7.97
  -8  -9   0    0.20    1.36
  -8  -9   1    1.13    1.77
  -8  -9  -1    2.48    1.74
  -8  -9   2    9.26    4.94
  -8  -9  -2    1.88    2.36
  -8  -9   3    1.63    2.58
  -8  -9  -3    0.27    1.17
  -8  -9   4    0.45    1.39
   8   9  -4    2.77    2.16
  -8  -9  -4    1.43    1.66
  -8  -9   5    6.70    3.86
   8   9  -5    6.55    3.44
  -8  -9  -5    3.89    3.15
  -8  -9   6    3.43    3.26
   8   9  -6    2.56    2.27
  -8  -9  -6    0.68    0.69
  -8  -9   7    3.88    2.91
   8   9  -7   -0.92    1.55
   8   9  -8    2.67    2.16
   8   9  -9    0.29    1.67
   8   9 -10    4.75    3.31
   8   9 -11    2.25    2.59
  -9  -9   0   18.30    6.36
  -9  -9   1   14.88    5.81
   9   9  -4    4.07    2.79
   9   9  -5   29.13    7.45
   9   9  -6    8.89    4.35
   9   9  -7    5.67    3.74
   9   9  -8    3.37    3.19
   9   9  -9   10.09    4.78
   9   9 -10   18.94    6.86
  10   9  -4    4.76    3.47
  10   9  -5    0.76    1.82
  10   9  -6    1.10    2.02
  10   9  -7    0.16    1.42
  10   9  -8    0.66    1.93
  11   9  -4    3.17    2.84
  11   9  -5    4.15    3.12
  11   9  -6    2.60    2.89
   0 -10   0   37.43    7.73
   0 -10   1    2.69    2.71
   0 -10  -1    0.32    1.18
   0 -10   2    8.07    3.66
   0 -10  -2    7.12    3.01
   0 -10   3   -1.88    2.02
   0 -10  -3   -1.24    2.32
   0 -10   4   11.02    4.24
   0 -10  -4   13.00    4.72
   0 -10  -5    0.21    1.30
   0 -10  -6   19.31    5.74
   0  10 -13   -1.03    1.86
  -1 -10   0    3.54    2.26
  -1 -10   1    2.21    2.39
  -1 -10  -1    1.24    2.21
  -1 -10   2    7.43    3.89
  -1 -10  -2    3.23    2.41
  -1 -10   3    3.24    2.59
  -1 -10  -3    4.91    3.36
  -1 -10   4    8.71    4.17
  -1 -10  -4    9.14    3.80
  -1 -10   5    0.19    0.77
  -1 -10  -5    0.47    1.47
  -1 -10   6   17.34    5.63
  -1 -10  -6    8.48    4.04
  -1 -10   7    7.94    4.22
   1  10 -12    5.58    3.26
  -1  10 -13    4.53    3.31
   1  10 -13    4.29    3.18
  -2 -10   0    4.53    3.27
  -2 -10   1    2.90    2.88
  -2 -10  -1   -0.94    1.64
  -2 -10   2   11.77    4.72
  -2 -10  -2    5.16    2.68
  -2 -10   3   11.06    5.05
  -2 -10  -3    9.08    3.97
  -2 -10   4    5.08    3.20
  -2 -10  -4    6.27    3.51
  -2 -10   5   -0.71    1.30
  -2 -10  -5   -3.26    3.04
  -2 -10   6    3.52    3.43
  -2 -10  -6    2.29    2.46
  -2 -10   7   21.92    6.49
  -2 -10   8    7.50    4.23
   2  10 -12    1.57    2.00
   2  10 -13    6.33    4.06
  -3 -10   0    0.23    1.51
  -3 -10   1    1.22    1.20
  -3 -10  -1    1.25    1.31
  -3 -10   2   12.42    5.17
  -3 -10  -2    8.49    3.78
  -3 -10   3   30.80    7.84
  -3 -10  -3   27.42    7.11
  -3 -10   4   17.14    5.90
  -3 -10  -4   12.52    5.02
  -3 -10   5   12.30    4.93
  -3 -10  -5    4.87    2.88
  -3 -10   6    4.29    2.94
  -3 -10  -6   -2.40    1.92
  -3 -10   7    3.01    2.51
  -3 -10   8    9.05    4.43
   3  10 -11    7.01    3.83
   3  10 -12    2.72    2.84
  -4 -10   0   12.84    5.16
  -4 -10   1   11.21    4.98
  -4 -10  -1    0.97    1.18
  -4 -10   2    0.83    1.31
  -4 -10  -2    0.60    1.28
  -4 -10   3    3.87    3.52
  -4 -10  -3    0.46    0.94
  -4 -10   4    8.64    4.49
  -4 -10  -4    9.62    4.41
  -4 -10   5   10.72    4.62
  -4 -10  -5    7.84    3.86
  -4 -10   6    6.54    3.69
  -4 -10  -6    3.75    3.13
  -4 -10   7    5.02    3.52
  -4 -10  -7    1.92    1.89
  -4 -10   8    3.54    2.77
  -4 -10   9   15.28    5.59
   4  10 -11    5.30    3.48
   4  10 -12    1.79    2.51
  -5 -10   0    2.53    2.86
  -5 -10   1   10.00    4.73
  -5 -10  -1    4.77    3.30
  -5 -10   2    4.10    3.22
  -5 -10  -2    3.18    2.21
  -5 -10   3    4.28    3.60
  -5 -10  -3    2.29    2.45
  -5 -10   4    1.41    1.74
  -5 -10  -4    2.19    1.56
  -5 -10   5    1.15    1.47
  -5 -10  -5    0.75    1.40
  -5 -10   6    4.16    4.09
  -5 -10  -6    1.26    1.39
  -5 -10   7    2.91    2.90
  -5 -10   8    1.35    1.96
   5  10 -11   -0.43    1.92
  -6 -10   0    0.28    1.58
  -6 -10   1    4.52    3.21
  -6 -10  -1   -1.18    2.36
  -6 -10   2    8.12    3.84
  -6 -10  -2    8.01    3.78
  -6 -10   3    5.77    4.04
  -6 -10   4    6.72    3.95
  -2 -11   0   -0.19    1.55
  -2 -11   1    2.92    2.98
  -2 -11  -1    5.27    3.36
  -2 -11   2   -1.44    1.75
  -2 -11  -2    0.01    1.22
  -2 -11   3    0.36    0.82
  -2 -11  -3   -1.52    1.79
  -2 -11  -4    0.36    1.32
  -2 -11  -5   -1.59    2.66
  -3 -11   0    3.21    2.91
  -3 -11   1    4.20    3.46
  -3 -11  -1    1.50    2.12
  -3 -11   2    1.40    2.16
  -3 -11   3    0.53    1.57
TITL smz_f1_rt2 in Pnma
REM Pnma (#62, found as Pbnm in bca setting)
CELL 0.71073  14.490238  22.010572   8.224880  90.0000  90.0000  90.0000
ZERR    7.00   0.000854   0.001428   0.000571   0.0000   0.0000   0.0000
LATT  1
SYMM -x+1/2,-y, z+1/2
SYMM -x, y+1/2,-z
SYMM  x+1/2,-y+1/2,-z+1/2
SFAC C H N O S
UNIT 105.00 105.00 21.00 14.00 7.00
TREF
HKLF 4
END
_computing_structure_solution     'SHELXT 2014/4 (Sheldrick, 2014)'
;
_shelx_hkl_checksum              41469
loop_
_space_group_symop_operation_xyz
'x, y, z'
'-x, -y, z+1/2'
'x+1/2, -y+1/2, z'
'-x+1/2, y+1/2, z+1/2'
loop_
_atom_site_label
_atom_site_type_symbol
_atom_site_fract_x
_atom_site_fract_y
_atom_site_fract_z
_atom_site_U_iso_or_equiv
_atom_site_adp_type
_atom_site_occupancy
_atom_site_site_symmetry_order
_atom_site_calc_flag
_atom_site_refinement_flags_posn
_atom_site_refinement_flags_adp
_atom_site_refinement_flags_occupancy
_atom_site_disorder_assembly
_atom_site_disorder_group
S1 S 0.64733(9) 0.49675(15) 0.34465(7) 0.0402(3) Uani 1 1 d . . . . .
S2 S 0.57774(9) 0.49469(15) 0.65218(7) 0.0394(3) Uani 1 1 d . . . . .
O1 O 0.6902(3) 0.3726(4) 0.30896(18) 0.0526(10) Uani 1 1 d . . . . .
O2 O 0.5502(2) 0.5231(4) 0.33785(19) 0.0514(9) Uani 1 1 d . . . . .
O3 O 0.6746(2) 0.4662(4) 0.65829(18) 0.0508(9) Uani 1 1 d . . . . .
O4 O 0.5356(3) 0.6221(4) 0.68633(16) 0.0497(10) Uani 1 1 d . . . . .
N1 N 0.8432(4) 1.1154(6) 0.3125(3) 0.0601(14) Uani 1 1 d D . . . .
N2 N 0.6569(3) 0.4499(6) 0.4177(2) 0.0430(11) Uani 1 1 d D . . . .
N3 N 0.8153(3) 0.4107(5) 0.4179(2) 0.0460(12) Uani 1 1 d . . . . .
N4 N 0.7284(4) 0.4265(6) 0.5095(2) 0.0591(14) Uani 1 1 d . . . . .
N5 N 0.3810(4) -0.1196(6) 0.6967(3) 0.0788(19) Uani 1 1 d . . . . .
H5A H 0.4087 -0.2107 0.6907 0.102 Uiso 1 1 calc R U . . .
H5B H 0.3247 -0.1186 0.7090 0.102 Uiso 1 1 calc R U . . .
N6 N 0.5679(3) 0.5355(6) 0.5793(2) 0.0471(12) Uani 1 1 d D . . . .
N7 N 0.4105(3) 0.5843(5) 0.5798(2) 0.0481(12) Uani 1 1 d . . . . .
N8 N 0.4963(4) 0.5661(7) 0.4875(2) 0.0613(14) Uani 1 1 d . . . . .
C1 C 0.7065(4) 0.6782(6) 0.3345(3) 0.0363(12) Uani 1 1 d . . . . .
C2 C 0.7951(3) 0.6811(6) 0.3111(2) 0.0386(12) Uani 1 1 d . . . . .
H2 H 0.8241 0.5842 0.3006 0.050 Uiso 1 1 calc R U . . .
C3 C 0.8404(4) 0.8253(6) 0.3034(3) 0.0400(13) Uani 1 1 d . . . . .
H3 H 0.9000 0.8256 0.2877 0.052 Uiso 1 1 calc R U . . .
C4 C 0.7979(4) 0.9731(6) 0.3187(2) 0.0405(12) Uani 1 1 d . . . . .
C5 C 0.7089(4) 0.9675(6) 0.3428(3) 0.0473(14) Uani 1 1 d . . . . .
H5 H 0.6801 1.0638 0.3543 0.061 Uiso 1 1 calc R U . . .
C6 C 0.6631(4) 0.8236(6) 0.3499(3) 0.0447(13) Uani 1 1 d . . . . .
H6 H 0.6032 0.8227 0.3650 0.058 Uiso 1 1 calc R U . . .
C7 C 0.7376(4) 0.4298(6) 0.4492(2) 0.0419(13) Uani 1 1 d . . . . .
C8 C 0.8058(4) 0.3997(10) 0.5408(3) 0.081(2) Uani 1 1 d . . . . .
H8 H 0.8025 0.3924 0.5829 0.106 Uiso 1 1 calc R U . . .
C9 C 0.8900(4) 0.3823(9) 0.5132(3) 0.076(2) Uani 1 1 d . . . . .
H9 H 0.9434 0.3668 0.5359 0.098 Uiso 1 1 calc R U . . .
C10 C 0.8929(4) 0.3888(7) 0.4504(3) 0.0551(16) Uani 1 1 d . . . . .
C11 C 0.9800(5) 0.3731(9) 0.4149(4) 0.080(2) Uani 1 1 d . . . . .
H11A H 0.9786 0.2741 0.3917 0.104 Uiso 1 1 calc R U . . .
H11B H 1.0317 0.3709 0.4422 0.104 Uiso 1 1 calc R U . . .
H11C H 0.9859 0.4640 0.3878 0.104 Uiso 1 1 calc R U . . .
C12 C 0.5188(4) 0.3142(6) 0.6656(2) 0.0383(12) Uani 1 1 d . . . . .
C13 C 0.5643(4) 0.1687(6) 0.6558(3) 0.0511(16) Uani 1 1 d . . . . .
H13 H 0.6251 0.1680 0.6422 0.066 Uiso 1 1 calc R U . . .
C14 C 0.5181(4) 0.0236(7) 0.6666(3) 0.0574(17) Uani 1 1 d . . . . .
H14 H 0.5483 -0.0748 0.6605 0.075 Uiso 1 1 calc R U . . .
C15 C 0.4268(4) 0.0241(6) 0.6866(3) 0.0495(15) Uani 1 1 d . . . . .
C16 C 0.3822(4) 0.1722(6) 0.6966(2) 0.0429(13) Uani 1 1 d . . . . .
H16 H 0.3214 0.1739 0.7100 0.056 Uiso 1 1 calc R U . . .
C17 C 0.4286(4) 0.3159(6) 0.6865(3) 0.0382(13) Uani 1 1 d . . . . .
H17 H 0.3993 0.4145 0.6939 0.050 Uiso 1 1 calc R U . . .
C18 C 0.4872(4) 0.5638(6) 0.5480(2) 0.0418(13) Uani 1 1 d . . . . .
C19 C 0.4194(5) 0.5980(11) 0.4574(3) 0.090(3) Uani 1 1 d . . . . .
H19 H 0.4217 0.6017 0.4152 0.117 Uiso 1 1 calc R U . . .
C20 C 0.3371(5) 0.6258(10) 0.4853(3) 0.085(2) Uani 1 1 d . . . . .
H20 H 0.2847 0.6516 0.4629 0.110 Uiso 1 1 calc R U . . .
C21 C 0.3338(5) 0.6146(7) 0.5474(3) 0.0566(16) Uani 1 1 d . . . . .
C22 C 0.2455(4) 0.6353(9) 0.5820(4) 0.084(2) Uani 1 1 d . . . . .
H22A H 0.2005 0.5596 0.5672 0.109 Uiso 1 1 calc R U . . .
H22B H 0.2231 0.7442 0.5767 0.109 Uiso 1 1 calc R U . . .
H22C H 0.2565 0.6154 0.6244 0.109 Uiso 1 1 calc R U . . .
H1N1 H 0.895(2) 1.113(6) 0.293(2) 0.051(16) Uiso 1 1 d D . . . .
H2N1 H 0.805(3) 1.200(4) 0.314(2) 0.053(17) Uiso 1 1 d D . . . .
H1N2 H 0.609(3) 0.486(6) 0.440(2) 0.055(18) Uiso 1 1 d D . . . .
H1N6 H 0.616(3) 0.496(7) 0.558(3) 0.09(3) Uiso 1 1 d D . . . .
loop_
_atom_site_aniso_label
_atom_site_aniso_U_11
_atom_site_aniso_U_22
_atom_site_aniso_U_33
_atom_site_aniso_U_23
_atom_site_aniso_U_13
_atom_site_aniso_U_12
S1 0.0371(7) 0.0435(7) 0.0399(7) 0.0035(7) -0.0020(6) -0.0025(6)
S2 0.0351(7) 0.0458(7) 0.0374(7) 0.0043(7) -0.0026(6) -0.0025(6)
O1 0.055(3) 0.044(2) 0.059(2) -0.008(2) -0.001(2) -0.0065(18)
O2 0.0341(19) 0.069(2) 0.051(2) 0.010(2) -0.007(2) -0.0084(18)
O3 0.037(2) 0.065(2) 0.050(2) 0.011(2) -0.008(2) -0.0013(17)
O4 0.056(3) 0.044(2) 0.049(2) -0.0077(19) 0.000(2) 0.0006(18)
N1 0.052(3) 0.045(3) 0.083(4) -0.011(3) 0.023(3) -0.004(3)
N2 0.030(2) 0.060(3) 0.040(3) 0.012(3) 0.003(2) 0.002(2)
N3 0.041(3) 0.047(2) 0.050(3) 0.011(2) 0.001(2) 0.003(2)
N4 0.042(3) 0.096(4) 0.039(3) 0.010(3) -0.002(2) 0.014(3)
N5 0.067(4) 0.042(3) 0.128(5) -0.006(3) 0.034(4) -0.011(2)
N6 0.034(3) 0.069(3) 0.038(3) 0.015(3) 0.002(2) 0.006(2)
N7 0.042(3) 0.054(3) 0.048(3) 0.003(2) 0.001(2) 0.007(2)
N8 0.047(3) 0.093(4) 0.043(3) 0.006(3) 0.000(3) 0.016(3)
C1 0.036(3) 0.038(2) 0.035(3) 0.002(2) 0.003(3) 0.005(2)
C2 0.035(3) 0.046(3) 0.034(3) 0.000(3) 0.000(2) 0.006(2)
C3 0.035(3) 0.049(3) 0.035(3) -0.002(3) 0.007(3) -0.001(2)
C4 0.042(3) 0.043(3) 0.037(3) -0.003(2) -0.001(2) -0.001(2)
C5 0.048(3) 0.039(3) 0.056(3) -0.007(3) 0.013(3) 0.003(2)
C6 0.038(3) 0.047(3) 0.048(3) 0.001(3) 0.009(3) 0.003(2)
C7 0.036(3) 0.045(3) 0.044(3) 0.008(3) 0.003(3) 0.002(2)
C8 0.050(4) 0.144(7) 0.050(4) 0.003(4) -0.008(4) 0.025(4)
C9 0.038(4) 0.129(6) 0.059(4) 0.002(4) -0.010(4) 0.023(4)
C10 0.039(3) 0.059(4) 0.067(4) 0.004(3) -0.005(3) 0.007(3)
C11 0.052(4) 0.094(5) 0.094(5) -0.006(5) 0.006(5) 0.011(4)
C12 0.036(3) 0.038(2) 0.041(3) 0.004(2) -0.001(3) -0.001(2)
C13 0.037(3) 0.045(3) 0.071(4) -0.007(3) 0.011(4) 0.005(2)
C14 0.046(3) 0.045(3) 0.080(5) -0.002(3) 0.015(3) 0.011(3)
C15 0.057(4) 0.044(3) 0.048(3) -0.004(3) 0.004(3) -0.006(3)
C16 0.038(3) 0.048(3) 0.043(3) -0.007(3) 0.006(3) -0.004(2)
C17 0.038(3) 0.038(3) 0.038(3) -0.005(3) 0.002(3) 0.002(2)
C18 0.033(3) 0.046(3) 0.046(3) 0.010(3) -0.004(3) 0.002(2)
C19 0.064(5) 0.159(8) 0.046(4) 0.011(5) -0.012(4) 0.027(5)
C20 0.048(4) 0.135(7) 0.071(5) -0.008(5) -0.011(4) 0.035(4)
C21 0.045(4) 0.063(4) 0.062(4) -0.004(3) 0.004(3) 0.010(3)
C22 0.037(4) 0.120(6) 0.093(5) -0.001(5) 0.004(4) 0.015(4)
loop_
_atom_type_symbol
_atom_type_description
_atom_type_scat_dispersion_real
_atom_type_scat_dispersion_imag
_atom_type_scat_source
C C 0.0033 0.0016 'International Tables Vol C Tables 4.2.6.8 and 6.1.1.4'
H H 0.0000 0.0000 'International Tables Vol C Tables 4.2.6.8 and 6.1.1.4'
N N 0.0061 0.0033 'International Tables Vol C Tables 4.2.6.8 and 6.1.1.4'
O O 0.0106 0.0060 'International Tables Vol C Tables 4.2.6.8 and 6.1.1.4'
S S 0.1246 0.1234 'International Tables Vol C Tables 4.2.6.8 and 6.1.1.4'
loop_
_geom_angle_atom_site_label_1
_geom_angle_atom_site_label_2
_geom_angle_atom_site_label_3
_geom_angle
_geom_angle_site_symmetry_1
_geom_angle_site_symmetry_3
O1 S1 O2 118.5(2) . .
O1 S1 N2 109.3(2) . .
O2 S1 N2 102.6(2) . .
O1 S1 C1 109.2(3) . .
O2 S1 C1 110.0(2) . .
N2 S1 C1 106.5(3) . .
O4 S2 O3 119.4(2) . .
O4 S2 N6 109.1(2) . .
O3 S2 N6 102.2(2) . .
O4 S2 C12 109.1(3) . .
O3 S2 C12 109.1(2) . .
N6 S2 C12 107.3(3) . .
C4 N1 H1N1 117(3) . .
C4 N1 H2N1 112(3) . .
H1N1 N1 H2N1 125(5) . .
C7 N2 S1 126.1(4) . .
C7 N2 H1N2 116(4) . .
S1 N2 H1N2 112(4) . .
C7 N3 C10 116.7(5) . .
C8 N4 C7 115.6(6) . .
C15 N5 H5A 120.0 . .
C15 N5 H5B 120.0 . .
H5A N5 H5B 120.0 . .
C18 N6 S2 126.6(4) . .
C18 N6 H1N6 117(5) . .
S2 N6 H1N6 112(5) . .
C18 N7 C21 116.0(5) . .
C19 N8 C18 114.8(6) . .
C2 C1 C6 119.6(5) . .
C2 C1 S1 121.4(4) . .
C6 C1 S1 119.0(4) . .
C3 C2 C1 120.5(5) . .
C3 C2 H2 119.8 . .
C1 C2 H2 119.8 . .
C2 C3 C4 120.8(5) . .
C2 C3 H3 119.6 . .
C4 C3 H3 119.6 . .
N1 C4 C5 121.1(5) . .
N1 C4 C3 120.9(5) . .
C5 C4 C3 117.9(5) . .
C6 C5 C4 121.4(5) . .
C6 C5 H5 119.3 . .
C4 C5 H5 119.3 . .
C5 C6 C1 119.9(5) . .
C5 C6 H6 120.1 . .
C1 C6 H6 120.1 . .
N3 C7 N4 126.7(6) . .
N3 C7 N2 118.4(5) . .
N4 C7 N2 114.9(5) . .
N4 C8 C9 122.5(6) . .
N4 C8 H8 118.7 . .
C9 C8 H8 118.7 . .
C8 C9 C10 117.7(7) . .
C8 C9 H9 121.1 . .
C10 C9 H9 121.1 . .
N3 C10 C9 120.7(6) . .
N3 C10 C11 116.2(6) . .
C9 C10 C11 123.1(7) . .
C10 C11 H11A 109.5 . .
C10 C11 H11B 109.5 . .
H11A C11 H11B 109.5 . .
C10 C11 H11C 109.5 . .
H11A C11 H11C 109.5 . .
H11B C11 H11C 109.5 . .
C13 C12 C17 120.7(5) . .
C13 C12 S2 118.6(4) . .
C17 C12 S2 120.7(4) . .
C12 C13 C14 119.1(5) . .
C12 C13 H13 120.4 . .
C14 C13 H13 120.4 . .
C13 C14 C15 120.6(5) . .
C13 C14 H14 119.7 . .
C15 C14 H14 119.7 . .
N5 C15 C14 120.4(5) . .
N5 C15 C16 120.2(5) . .
C14 C15 C16 119.4(5) . .
C17 C16 C15 119.8(5) . .
C17 C16 H16 120.1 . .
C15 C16 H16 120.1 . .
C16 C17 C12 120.3(5) . .
C16 C17 H17 119.8 . .
C12 C17 H17 119.8 . .
N7 C18 N8 127.3(5) . .
N7 C18 N6 118.0(5) . .
N8 C18 N6 114.7(5) . .
N8 C19 C20 123.0(7) . .
N8 C19 H19 118.5 . .
C20 C19 H19 118.5 . .
C19 C20 C21 118.1(7) . .
C19 C20 H20 121.0 . .
C21 C20 H20 121.0 . .
N7 C21 C20 120.8(6) . .
N7 C21 C22 117.3(6) . .
C20 C21 C22 122.0(7) . .
C21 C22 H22A 109.5 . .
C21 C22 H22B 109.5 . .
H22A C22 H22B 109.5 . .
C21 C22 H22C 109.5 . .
H22A C22 H22C 109.5 . .
H22B C22 H22C 109.5 . .
loop_
_geom_bond_atom_site_label_1
_geom_bond_atom_site_label_2
_geom_bond_distance
_geom_bond_site_symmetry_2
S1 O1 1.430(4) .
S1 O2 1.432(4) .
S1 N2 1.659(5) .
S1 C1 1.735(5) .
S2 O4 1.427(4) .
S2 O3 1.429(4) .
S2 N6 1.646(5) .
S2 C12 1.738(5) .
N1 C4 1.349(7) .
N1 H1N1 0.87(2) .
N1 H2N1 0.89(2) .
N2 C7 1.370(7) .
N2 H1N2 0.90(2) .
N3 C7 1.329(6) .
N3 C10 1.344(7) .
N4 C8 1.334(8) .
N4 C7 1.335(7) .
N5 C15 1.373(7) .
N5 H5A 0.8600 .
N5 H5B 0.8600 .
N6 C18 1.376(6) .
N6 H1N6 0.91(2) .
N7 C18 1.325(6) .
N7 C21 1.343(8) .
N8 C19 1.322(8) .
N8 C18 1.337(7) .
C1 C2 1.384(7) .
C1 C6 1.393(7) .
C2 C3 1.366(7) .
C2 H2 0.9300 .
C3 C4 1.404(7) .
C3 H3 0.9300 .
C4 C5 1.396(7) .
C5 C6 1.366(7) .
C5 H5 0.9300 .
C6 H6 0.9300 .
C8 C9 1.370(9) .
C8 H8 0.9300 .
C9 C10 1.384(10) .
C9 H9 0.9300 .
C10 C11 1.491(8) .
C11 H11A 0.9600 .
C11 H11B 0.9600 .
C11 H11C 0.9600 .
C12 C13 1.383(7) .
C12 C17 1.386(7) .
C13 C14 1.389(8) .
C13 H13 0.9300 .
C14 C15 1.394(8) .
C14 H14 0.9300 .
C15 C16 1.396(7) .
C16 C17 1.377(7) .
C16 H16 0.9300 .
C17 H17 0.9300 .
C19 C20 1.361(10) .
C19 H19 0.9300 .
C20 C21 1.371(10) .
C20 H20 0.9300 .
C21 C22 1.498(8) .
C22 H22A 0.9600 .
C22 H22B 0.9600 .
C22 H22C 0.9600 .
loop_
_geom_torsion_atom_site_label_1
_geom_torsion_atom_site_label_2
_geom_torsion_atom_site_label_3
_geom_torsion_atom_site_label_4
_geom_torsion
_geom_torsion_site_symmetry_1
_geom_torsion_site_symmetry_2
_geom_torsion_site_symmetry_3
_geom_torsion_site_symmetry_4
O1 S1 N2 C7 60.6(5) . . . .
O2 S1 N2 C7 -172.8(5) . . . .
C1 S1 N2 C7 -57.2(5) . . . .
O4 S2 N6 C18 -56.5(6) . . . .
O3 S2 N6 C18 176.2(5) . . . .
C12 S2 N6 C18 61.6(6) . . . .
O1 S1 C1 C2 -18.1(5) . . . .
O2 S1 C1 C2 -149.8(4) . . . .
N2 S1 C1 C2 99.8(5) . . . .
O1 S1 C1 C6 161.5(4) . . . .
O2 S1 C1 C6 29.9(5) . . . .
N2 S1 C1 C6 -80.6(5) . . . .
C6 C1 C2 C3 0.3(8) . . . .
S1 C1 C2 C3 179.9(4) . . . .
C1 C2 C3 C4 -0.2(8) . . . .
C2 C3 C4 N1 178.5(5) . . . .
C2 C3 C4 C5 0.9(8) . . . .
N1 C4 C5 C6 -179.2(6) . . . .
C3 C4 C5 C6 -1.7(9) . . . .
C4 C5 C6 C1 1.8(9) . . . .
C2 C1 C6 C5 -1.0(8) . . . .
S1 C1 C6 C5 179.3(5) . . . .
C10 N3 C7 N4 -1.3(9) . . . .
C10 N3 C7 N2 -179.0(5) . . . .
C8 N4 C7 N3 -0.7(9) . . . .
C8 N4 C7 N2 177.1(6) . . . .
S1 N2 C7 N3 -15.5(8) . . . .
S1 N2 C7 N4 166.5(4) . . . .
C7 N4 C8 C9 2.3(11) . . . .
N4 C8 C9 C10 -1.8(12) . . . .
C7 N3 C10 C9 1.8(9) . . . .
C7 N3 C10 C11 -178.0(5) . . . .
C8 C9 C10 N3 -0.3(11) . . . .
C8 C9 C10 C11 179.5(7) . . . .
O4 S2 C12 C13 -157.1(4) . . . .
O3 S2 C12 C13 -25.1(5) . . . .
N6 S2 C12 C13 84.9(5) . . . .
O4 S2 C12 C17 21.8(5) . . . .
O3 S2 C12 C17 153.8(4) . . . .
N6 S2 C12 C17 -96.2(5) . . . .
C17 C12 C13 C14 0.8(9) . . . .
S2 C12 C13 C14 179.7(5) . . . .
C12 C13 C14 C15 0.5(9) . . . .
C13 C14 C15 N5 179.4(6) . . . .
C13 C14 C15 C16 -1.0(9) . . . .
N5 C15 C16 C17 179.8(5) . . . .
C14 C15 C16 C17 0.2(8) . . . .
C15 C16 C17 C12 1.1(8) . . . .
C13 C12 C17 C16 -1.6(8) . . . .
S2 C12 C17 C16 179.5(4) . . . .
C21 N7 C18 N8 -1.7(9) . . . .
C21 N7 C18 N6 178.8(5) . . . .
C19 N8 C18 N7 2.4(10) . . . .
C19 N8 C18 N6 -178.1(6) . . . .
S2 N6 C18 N7 10.6(8) . . . .
S2 N6 C18 N8 -168.9(5) . . . .
C18 N8 C19 C20 -0.3(12) . . . .
N8 C19 C20 C21 -2.2(14) . . . .
C18 N7 C21 C20 -1.1(9) . . . .
C18 N7 C21 C22 178.9(6) . . . .
C19 C20 C21 N7 2.9(12) . . . .
C19 C20 C21 C22 -177.1(7) . . . .
