#------------------------------------------------------------------------------
#$Date: 2017-11-07 03:23:43 +0200 (Tue, 07 Nov 2017) $
#$Revision: 202831 $
#$URL: file:///home/coder/svn-repositories/cod/cif/1/54/75/1547510.cif $
#------------------------------------------------------------------------------
#
# This file is available in the Crystallography Open Database (COD),
# http://www.crystallography.net/
#
# All data on this site have been placed in the public domain by the
# contributors.
#
data_1547510
loop_
_publ_author_name
'Mandal, Debdeep'
'Dolai, Ramapada'
'Chrysochos, Nicolas'
'Kalita, Pankaj'
'Kumar, Ravi'
'Dhara, Debabrata'
'Maiti, Avijit'
'Narayanan, Ramakirushnan Suriya'
'Rajaraman, Gopalan'
'Schulzke, Carola'
'Chandrasekhar, Vadapalli'
'Jana, Anukul'
_publ_section_title
;
 Stepwise Reversible Oxidation of N-Peralkyl-Substituted NHC-CAAC Derived
 Triazaalkenes: Isolation of Radical Cations and Dications.
;
_journal_issue                   20
_journal_name_full               'Organic letters'
_journal_page_first              5605
_journal_page_last               5608
_journal_paper_doi               10.1021/acs.orglett.7b02721
_journal_volume                  19
_journal_year                    2017
_chemical_formula_moiety         'C F3 O3 S, C18 H33 N3'
_chemical_formula_sum            'C19 H33 F3 N3 O3 S'
_chemical_formula_weight         440.54
_space_group_crystal_system      monoclinic
_space_group_IT_number           14
_space_group_name_Hall           '-P 2ybc'
_space_group_name_H-M_alt        'P 1 21/c 1'
_symmetry_space_group_name_Hall  '-P 2ybc'
_symmetry_space_group_name_H-M   'P 1 21/c 1'
_atom_sites_solution_hydrogens   geom
_atom_sites_solution_primary     direct
_audit_creation_date             2017-01-18
_audit_creation_method
;
Olex2 1.2-alpha
(compiled 2016.02.24 svn.r3266 for OlexSys, GUI svn.r5155)
;
_cell_angle_alpha                90
_cell_angle_beta                 101.259(3)
_cell_angle_gamma                90
_cell_formula_units_Z            4
_cell_length_a                   13.4463(6)
_cell_length_b                   8.2683(3)
_cell_length_c                   20.7728(9)
_cell_measurement_reflns_used    4778
_cell_measurement_temperature    100(2)
_cell_measurement_theta_max      25.07
_cell_measurement_theta_min      2.28
_cell_volume                     2265.03(16)
_computing_molecular_graphics    'Olex2 (Dolomanov et al., 2009)'
_computing_publication_material  'Olex2 (Dolomanov et al., 2009)'
_computing_structure_refinement  'ShelXL (Sheldrick, 2015)'
_computing_structure_solution    'ShelXT (Sheldrick, 2015)'
_diffrn_ambient_temperature      100(2)
_diffrn_detector                 'Bruker APEX2 area detector'
_diffrn_detector_area_resol_mean 7.9
_diffrn_detector_type            'CCD area detector'
_diffrn_measured_fraction_theta_full 1.000
_diffrn_measured_fraction_theta_max 0.997
_diffrn_measurement_device       'three-circle diffractometer'
_diffrn_radiation_monochromator  'mirror optics'
_diffrn_radiation_probe          x-ray
_diffrn_radiation_type           MoK\a
_diffrn_radiation_wavelength     0.71073
_diffrn_reflns_av_R_equivalents  0.0741
_diffrn_reflns_av_unetI/netI     0.0413
_diffrn_reflns_Laue_measured_fraction_full 1.000
_diffrn_reflns_Laue_measured_fraction_max 0.997
_diffrn_reflns_limit_h_max       16
_diffrn_reflns_limit_h_min       -16
_diffrn_reflns_limit_k_max       10
_diffrn_reflns_limit_k_min       -10
_diffrn_reflns_limit_l_max       25
_diffrn_reflns_limit_l_min       -25
_diffrn_reflns_number            32854
_diffrn_reflns_point_group_measured_fraction_full 1.000
_diffrn_reflns_point_group_measured_fraction_max 0.997
_diffrn_reflns_theta_full        25.242
_diffrn_reflns_theta_max         26.392
_diffrn_reflns_theta_min         2.275
_diffrn_source                   'microfocus sealed X-ray tube'
_diffrn_source_type              'Incoatec I\ms'
_diffrn_standards_number         0
_exptl_absorpt_coefficient_mu    0.191
_exptl_absorpt_correction_T_max  0.7454
_exptl_absorpt_correction_T_min  0.6196
_exptl_absorpt_correction_type   multi-scan
_exptl_absorpt_process_details
;
SADABS-2014/5 (Bruker,2014/5) was used for absorption correction.
wR2(int) was 0.1161 before and 0.0611 after correction.
The Ratio of minimum to maximum transmission is 0.8312.
The \l/2 correction factor is 0.00150.
;
_exptl_crystal_colour            red
_exptl_crystal_colour_primary    red
_exptl_crystal_density_diffrn    1.292
_exptl_crystal_description       block
_exptl_crystal_F_000             940
_exptl_crystal_size_max          0.22
_exptl_crystal_size_mid          0.17
_exptl_crystal_size_min          0.14
_refine_diff_density_max         0.577
_refine_diff_density_min         -0.322
_refine_diff_density_rms         0.052
_refine_ls_extinction_method     none
_refine_ls_goodness_of_fit_ref   1.027
_refine_ls_hydrogen_treatment    constr
_refine_ls_matrix_type           full
_refine_ls_number_parameters     272
_refine_ls_number_reflns         4631
_refine_ls_number_restraints     0
_refine_ls_restrained_S_all      1.027
_refine_ls_R_factor_all          0.0641
_refine_ls_R_factor_gt           0.0423
_refine_ls_shift/su_max          0.000
_refine_ls_shift/su_mean         0.000
_refine_ls_structure_factor_coef Fsqd
_refine_ls_weighting_details
'w=1/[\s^2^(Fo^2^)+(0.0481P)^2^+1.2082P] where P=(Fo^2^+2Fc^2^)/3'
_refine_ls_weighting_scheme      calc
_refine_ls_wR_factor_gt          0.0993
_refine_ls_wR_factor_ref         0.1104
_reflns_Friedel_coverage         0.000
_reflns_number_gt                3545
_reflns_number_total             4631
_reflns_threshold_expression     'I > 2\s(I)'
_iucr_refine_instructions_details
;
TITL vc_pk_dm_475_0m_a.res in P2(1)/c
 vc_pk_dm_475_0m.res created by SHELXL-2016/4 at 15:07:46 on 18-Jan-2017
REM Old TITL VC_PK_DM_475_0m in P21/c #14
REM SHELXT solution in P2(1)/c
REM R1 0.134, Rweak 0.007, Alpha 0.034, Orientation as input
REM Formula found by SHELXT: C19 N3 O3 F3 S
CELL 0.71073 13.4463 8.2683 20.7728 90 101.259 90
ZERR 4 0.0006 0.0003 0.0009 0 0.003 0
LATT 1
SYMM -X,0.5+Y,0.5-Z
SFAC C H F N O S
UNIT 76 132 12 12 12 4

L.S. 30
PLAN  -5 0 0
TEMP -173(2)
BOND $H
LIST 6
MORE -1
CONF
fmap 2
acta
REM <olex2.extras>
REM <HklSrc "%.\\VC_PK_DM_475_0m.hkl">
REM </olex2.extras>

WGHT    0.048100    1.208200
FVAR       0.44340
S1    6    0.825846    0.620428    0.085433    11.00000    0.02138    0.02012 =
         0.02075   -0.00153    0.00594    0.00001
F1    3    0.643527    0.527467    0.096728    11.00000    0.02635    0.03990 =
         0.05072    0.01072    0.00872   -0.00701
F2    3    0.693775    0.744533    0.149152    11.00000    0.04845    0.05698 =
         0.04747   -0.01479    0.02606    0.00637
F3    3    0.646248    0.749593    0.044257    11.00000    0.03387    0.05020 =
         0.05407    0.02707    0.00740    0.01508
O1    5    0.866558    0.536803    0.145475    11.00000    0.02828    0.04206 =
         0.03524    0.01434    0.00183    0.00586
O2    5    0.811880    0.523598    0.027474    11.00000    0.04000    0.04795 =
         0.03396   -0.02245    0.01130   -0.00418
O3    5    0.867998    0.777638    0.080032    11.00000    0.03688    0.02661 =
         0.04444    0.00024    0.01439   -0.00989
C19   1    0.696316    0.662860    0.094183    11.00000    0.02805    0.02512 =
         0.02724    0.00663    0.00764    0.00433
N1    4    0.776055    0.206234    0.264027    11.00000    0.02514    0.01910 =
         0.01943    0.00013    0.00632    0.00035
N2    4    0.859734    0.034474    0.331795    11.00000    0.02102    0.01954 =
         0.01502   -0.00137    0.00398   -0.00024
N3    4    0.658774    0.279436    0.373222    11.00000    0.01763    0.01936 =
         0.02179   -0.00276    0.00376   -0.00197
C1    1    0.798411    0.163536    0.327804    11.00000    0.02020    0.02004 =
         0.01728   -0.00190    0.00506   -0.00412
C2    1    0.823050    0.100835    0.227323    11.00000    0.02715    0.02073 =
         0.01814   -0.00366    0.00719   -0.00349
C3    1    0.875920   -0.006789    0.269741    11.00000    0.02456    0.01860 =
         0.01799   -0.00385    0.00548   -0.00512
C4    1    0.764425    0.240252    0.384404    11.00000    0.01797    0.03067 =
         0.02749   -0.01293    0.00531   -0.00288
C5    1    0.825614    0.387997    0.417462    11.00000    0.01866    0.01889 =
         0.01737   -0.00243    0.00237   -0.00185
C6    1    0.740456    0.505549    0.425937    11.00000    0.02523    0.02268 =
         0.02600   -0.00531    0.00551   -0.00037
AFIX  23
H6A   2    0.757369    0.559804    0.469180    11.00000   -1.20000
H6B   2    0.731519    0.589311    0.391228    11.00000   -1.20000
AFIX   0
C7    1    0.643136    0.406124    0.420990    11.00000    0.02003    0.02196 =
         0.02026   -0.00338    0.00507    0.00083
C8    1    0.550234    0.508597    0.392987    11.00000    0.02510    0.02790 =
         0.03230   -0.00310    0.00500    0.00274
AFIX 137
H8A   2    0.556715    0.550802    0.349914    11.00000   -1.50000
H8B   2    0.545336    0.598949    0.422743    11.00000   -1.50000
H8C   2    0.489044    0.441788    0.388337    11.00000   -1.50000
AFIX   0
C9    1    0.631983    0.337067    0.487742    11.00000    0.02619    0.03766 =
         0.02171   -0.00136    0.00676    0.00119
AFIX 137
H9A   2    0.568616    0.275607    0.482724    11.00000   -1.50000
H9B   2    0.630815    0.425911    0.518812    11.00000   -1.50000
H9C   2    0.689391    0.265559    0.504340    11.00000   -1.50000
AFIX   0
C10   1    0.891634    0.339222    0.483776    11.00000    0.02119    0.03470 =
         0.02278    0.00098   -0.00033   -0.00396
AFIX 137
H10A  2    0.948709    0.273181    0.476096    11.00000   -1.50000
H10B  2    0.850740    0.276741    0.509156    11.00000   -1.50000
H10C  2    0.917472    0.436699    0.508283    11.00000   -1.50000
AFIX   0
C11   1    0.895823    0.463152    0.375879    11.00000    0.02559    0.02449 =
         0.02716    0.00090    0.00750   -0.00468
AFIX 137
H11A  2    0.946587    0.383331    0.368966    11.00000   -1.50000
H11B  2    0.929988    0.557605    0.398685    11.00000   -1.50000
H11C  2    0.855855    0.496647    0.333356    11.00000   -1.50000
AFIX   0
C12   1    0.902077   -0.055382    0.391978    11.00000    0.03216    0.02705 =
         0.01882    0.00323    0.00431    0.00290
AFIX 137
H12A  2    0.894201    0.008672    0.430361    11.00000   -1.50000
H12B  2    0.974224   -0.076388    0.393485    11.00000   -1.50000
H12C  2    0.866032   -0.158332    0.392208    11.00000   -1.50000
AFIX   0
C13   1    0.939659   -0.146091    0.257991    11.00000    0.03278    0.02326 =
         0.02491   -0.00586    0.00769   -0.00043
AFIX 137
H13A  2    1.010008   -0.126911    0.280029    11.00000   -1.50000
H13B  2    0.936561   -0.158537    0.210725    11.00000   -1.50000
H13C  2    0.914498   -0.244814    0.275461    11.00000   -1.50000
AFIX   0
C14   1    0.811327    0.118767    0.154800    11.00000    0.04600    0.02899 =
         0.01740   -0.00102    0.00839   -0.00098
AFIX 137
H14A  2    0.739567    0.108327    0.134196    11.00000   -1.50000
H14B  2    0.850528    0.034390    0.137883    11.00000   -1.50000
H14C  2    0.836180    0.225367    0.144661    11.00000   -1.50000
AFIX   0
C15   1    0.717083    0.346611    0.236012    11.00000    0.03172    0.02472 =
         0.02375    0.00619    0.00543    0.00538
AFIX 137
H15A  2    0.761167    0.421865    0.218234    11.00000   -1.50000
H15B  2    0.688621    0.400911    0.270258    11.00000   -1.50000
H15C  2    0.661902    0.311220    0.200753    11.00000   -1.50000
AFIX   0
C16   1    0.582594    0.148729    0.360749    11.00000    0.02279    0.02436 =
         0.02616   -0.00269    0.00213   -0.00753
AFIX  13
H16   2    0.526416    0.183222    0.382924    11.00000   -1.20000
AFIX   0
C17   1    0.617285   -0.013759    0.389914    11.00000    0.03763    0.02612 =
         0.06405    0.00695   -0.00501   -0.00983
AFIX 137
H17A  2    0.667046   -0.059862    0.366354    11.00000   -1.50000
H17B  2    0.558893   -0.086560    0.385971    11.00000   -1.50000
H17C  2    0.648434   -0.000330    0.436348    11.00000   -1.50000
AFIX   0
C18   1    0.535594    0.133195    0.289078    11.00000    0.04050    0.05554 =
         0.03145   -0.00362   -0.00307   -0.02339
AFIX 137
H18A  2    0.513122    0.239833    0.271388    11.00000   -1.50000
H18B  2    0.477266    0.059965    0.283924    11.00000   -1.50000
H18C  2    0.585788    0.089673    0.265253    11.00000   -1.50000
AFIX   0
HKLF 4




REM  vc_pk_dm_475_0m_a.res in P2(1)/c
REM R1 =  0.0423 for    3545 Fo > 4sig(Fo)  and  0.0641 for all    4631 data
REM    272 parameters refined using      0 restraints

END  
     
WGHT      0.0481      1.2082 

REM Highest difference peak  0.577,  deepest hole -0.322,  1-sigma level  0.052
Q1    1   0.7777  0.1455  0.4228  11.00000  0.05    0.58
Q2    1   0.7834  0.2170  0.3602  11.00000  0.05    0.31
Q3    1   0.9572  0.0128  0.4188  11.00000  0.05    0.26
Q4    1   0.7363  0.3453  0.3784  11.00000  0.05    0.25
Q5    1   0.8604 -0.0767  0.4151  11.00000  0.05    0.24

  REM The information below was added by Olex2.
  REM
  REM R1 = 0.0423 for 3545 Fo > 4sig(Fo) and 0.0641 for all 34284 data
  REM n/a parameters refined using n/a restraints
  REM Highest difference peak 0.58, deepest hole -0.32
  REM Mean Shift 0, Max Shift 0.000.
  
  REM +++ Tabular Listing of Refinement Information +++
  REM R1_all = 0.0641
  REM R1_gt = 0.0423
  REM wR_ref = 0.1104
  REM GOOF = 1.027
  REM Shift_max = 0.000
  REM Shift_mean = 0
  REM Reflections_all = 34284
  REM Reflections_gt = 3545
  REM Parameters = n/a
  REM Hole = -0.32
  REM Peak = 0.58
  REM Flack = n/a
  
  
;
_cod_data_source_file            ol7b02721_si_002.cif
_cod_data_source_block           vc_pk_dm_475_0m
_cod_depositor_comments
'Adding full bibliography for 1547507--1547513.cif.'
_cod_database_code               1547510
_shelx_space_group_comment
;
The symmetry employed for this shelxl refinement is uniquely defined
by the following loop, which should always be used as a source of
symmetry information in preference to the above space-group names.
They are only intended as comments.
;
_olex2_refinement_description
;
1. Fixed Uiso
 At 1.2 times of:
  All C(H) groups, All C(H,H) groups
 At 1.5 times of:
  All C(H,H,H) groups
2.a Ternary CH refined with riding coordinates:
 C16(H16)
2.b Secondary CH2 refined with riding coordinates:
 C6(H6A,H6B)
2.c Idealised Me refined as rotating group:
 C8(H8A,H8B,H8C), C9(H9A,H9B,H9C), C10(H10A,H10B,H10C), C11(H11A,H11B,H11C),
 C12(H12A,H12B,H12C), C13(H13A,H13B,H13C), C14(H14A,H14B,H14C), C15(H15A,H15B,
 H15C), C17(H17A,H17B,H17C), C18(H18A,H18B,H18C)
;
_shelx_shelxl_version_number     2016/4
_olex2_submission_special_instructions 'No special instructions were received'
loop_
_space_group_symop_operation_xyz
'x, y, z'
'-x, y+1/2, -z+1/2'
'-x, -y, -z'
'x, -y-1/2, z-1/2'
loop_
_atom_site_label
_atom_site_type_symbol
_atom_site_fract_x
_atom_site_fract_y
_atom_site_fract_z
_atom_site_U_iso_or_equiv
_atom_site_adp_type
_atom_site_occupancy
_atom_site_site_symmetry_order
_atom_site_calc_flag
_atom_site_refinement_flags_posn
S1 S 0.82585(4) 0.62043(6) 0.08543(2) 0.02050(13) Uani 1 1 d .
F1 F 0.64353(9) 0.52747(17) 0.09673(6) 0.0388(3) Uani 1 1 d .
F2 F 0.69377(11) 0.74453(19) 0.14915(7) 0.0487(4) Uani 1 1 d .
F3 F 0.64625(10) 0.74959(18) 0.04426(7) 0.0462(4) Uani 1 1 d .
O1 O 0.86656(11) 0.5368(2) 0.14547(7) 0.0358(4) Uani 1 1 d .
O2 O 0.81188(12) 0.5236(2) 0.02747(7) 0.0401(4) Uani 1 1 d .
O3 O 0.86800(12) 0.77764(19) 0.08003(8) 0.0351(4) Uani 1 1 d .
C19 C 0.69632(16) 0.6629(3) 0.09418(10) 0.0265(5) Uani 1 1 d .
N1 N 0.77605(12) 0.2062(2) 0.26403(7) 0.0210(4) Uani 1 1 d .
N2 N 0.85973(11) 0.0345(2) 0.33179(7) 0.0185(3) Uani 1 1 d .
N3 N 0.65877(11) 0.2794(2) 0.37322(7) 0.0196(4) Uani 1 1 d .
C1 C 0.79841(14) 0.1635(2) 0.32780(9) 0.0190(4) Uani 1 1 d .
C2 C 0.82305(15) 0.1008(2) 0.22732(9) 0.0216(4) Uani 1 1 d .
C3 C 0.87592(14) -0.0068(2) 0.26974(9) 0.0202(4) Uani 1 1 d .
C4 C 0.76443(14) 0.2403(3) 0.38440(10) 0.0253(5) Uani 1 1 d .
C5 C 0.82561(14) 0.3880(2) 0.41746(9) 0.0185(4) Uani 1 1 d .
C6 C 0.74046(15) 0.5055(3) 0.42594(10) 0.0246(4) Uani 1 1 d .
H6A H 0.757369 0.559804 0.469180 0.029 Uiso 1 1 calc R
H6B H 0.731519 0.589311 0.391228 0.029 Uiso 1 1 calc R
C7 C 0.64314(14) 0.4061(2) 0.42099(9) 0.0206(4) Uani 1 1 d .
C8 C 0.55023(15) 0.5086(3) 0.39299(10) 0.0285(5) Uani 1 1 d .
H8A H 0.556715 0.550802 0.349914 0.043 Uiso 1 1 calc GR
H8B H 0.545336 0.598949 0.422743 0.043 Uiso 1 1 calc GR
H8C H 0.489044 0.441788 0.388337 0.043 Uiso 1 1 calc GR
C9 C 0.63198(16) 0.3371(3) 0.48774(9) 0.0282(5) Uani 1 1 d .
H9A H 0.568616 0.275607 0.482724 0.042 Uiso 1 1 calc GR
H9B H 0.630815 0.425911 0.518812 0.042 Uiso 1 1 calc GR
H9C H 0.689391 0.265559 0.504340 0.042 Uiso 1 1 calc GR
C10 C 0.89163(15) 0.3392(3) 0.48378(9) 0.0269(5) Uani 1 1 d .
H10A H 0.948709 0.273181 0.476096 0.040 Uiso 1 1 calc GR
H10B H 0.850740 0.276741 0.509156 0.040 Uiso 1 1 calc GR
H10C H 0.917472 0.436699 0.508283 0.040 Uiso 1 1 calc GR
C11 C 0.89582(15) 0.4632(3) 0.37588(10) 0.0254(5) Uani 1 1 d .
H11A H 0.946587 0.383331 0.368966 0.038 Uiso 1 1 calc GR
H11B H 0.929988 0.557605 0.398685 0.038 Uiso 1 1 calc GR
H11C H 0.855855 0.496647 0.333356 0.038 Uiso 1 1 calc GR
C12 C 0.90208(16) -0.0554(3) 0.39198(9) 0.0261(5) Uani 1 1 d .
H12A H 0.894201 0.008672 0.430361 0.039 Uiso 1 1 calc GR
H12B H 0.974224 -0.076388 0.393485 0.039 Uiso 1 1 calc GR
H12C H 0.866032 -0.158332 0.392208 0.039 Uiso 1 1 calc GR
C13 C 0.93966(16) -0.1461(3) 0.25799(10) 0.0267(5) Uani 1 1 d .
H13A H 1.010008 -0.126911 0.280029 0.040 Uiso 1 1 calc GR
H13B H 0.936561 -0.158537 0.210725 0.040 Uiso 1 1 calc GR
H13C H 0.914498 -0.244814 0.275461 0.040 Uiso 1 1 calc GR
C14 C 0.81133(18) 0.1188(3) 0.15480(9) 0.0305(5) Uani 1 1 d .
H14A H 0.739567 0.108327 0.134196 0.046 Uiso 1 1 calc GR
H14B H 0.850528 0.034390 0.137883 0.046 Uiso 1 1 calc GR
H14C H 0.836180 0.225367 0.144661 0.046 Uiso 1 1 calc GR
C15 C 0.71708(16) 0.3466(3) 0.23601(10) 0.0267(5) Uani 1 1 d .
H15A H 0.761167 0.421865 0.218234 0.040 Uiso 1 1 calc GR
H15B H 0.688621 0.400911 0.270258 0.040 Uiso 1 1 calc GR
H15C H 0.661902 0.311220 0.200753 0.040 Uiso 1 1 calc GR
C16 C 0.58259(15) 0.1487(3) 0.36075(10) 0.0248(5) Uani 1 1 d .
H16 H 0.526416 0.183222 0.382924 0.030 Uiso 1 1 calc R
C17 C 0.61728(19) -0.0138(3) 0.38991(14) 0.0446(7) Uani 1 1 d .
H17A H 0.667046 -0.059862 0.366354 0.067 Uiso 1 1 calc GR
H17B H 0.558893 -0.086560 0.385971 0.067 Uiso 1 1 calc GR
H17C H 0.648434 -0.000330 0.436348 0.067 Uiso 1 1 calc GR
C18 C 0.53559(18) 0.1332(3) 0.28908(11) 0.0439(6) Uani 1 1 d .
H18A H 0.513122 0.239833 0.271388 0.066 Uiso 1 1 calc GR
H18B H 0.477266 0.059965 0.283924 0.066 Uiso 1 1 calc GR
H18C H 0.585788 0.089673 0.265253 0.066 Uiso 1 1 calc GR
loop_
_atom_site_aniso_label
_atom_site_aniso_U_11
_atom_site_aniso_U_22
_atom_site_aniso_U_33
_atom_site_aniso_U_23
_atom_site_aniso_U_13
_atom_site_aniso_U_12
S1 0.0214(2) 0.0201(3) 0.0208(2) -0.0015(2) 0.00594(18) 0.0000(2)
F1 0.0264(6) 0.0399(8) 0.0507(8) 0.0107(6) 0.0087(6) -0.0070(6)
F2 0.0484(8) 0.0570(10) 0.0475(9) -0.0148(7) 0.0261(7) 0.0064(7)
F3 0.0339(7) 0.0502(9) 0.0541(9) 0.0271(7) 0.0074(6) 0.0151(7)
O1 0.0283(8) 0.0421(10) 0.0352(8) 0.0143(7) 0.0018(6) 0.0059(7)
O2 0.0400(9) 0.0480(11) 0.0340(9) -0.0224(8) 0.0113(7) -0.0042(8)
O3 0.0369(9) 0.0266(9) 0.0444(9) 0.0002(7) 0.0144(7) -0.0099(7)
C19 0.0280(11) 0.0251(12) 0.0272(11) 0.0066(9) 0.0076(8) 0.0043(9)
N1 0.0251(9) 0.0191(9) 0.0194(8) 0.0001(7) 0.0063(6) 0.0003(7)
N2 0.0210(8) 0.0195(9) 0.0150(7) -0.0014(6) 0.0040(6) -0.0002(7)
N3 0.0176(8) 0.0194(9) 0.0218(8) -0.0028(7) 0.0038(6) -0.0020(7)
C1 0.0202(9) 0.0200(10) 0.0173(9) -0.0019(8) 0.0051(7) -0.0041(8)
C2 0.0271(10) 0.0207(11) 0.0181(9) -0.0037(8) 0.0072(8) -0.0035(9)
C3 0.0246(10) 0.0186(11) 0.0180(9) -0.0038(8) 0.0055(7) -0.0051(8)
C4 0.0180(10) 0.0307(12) 0.0275(10) -0.0129(9) 0.0053(8) -0.0029(9)
C5 0.0187(9) 0.0189(10) 0.0174(9) -0.0024(8) 0.0024(7) -0.0018(8)
C6 0.0252(10) 0.0227(11) 0.0260(10) -0.0053(8) 0.0055(8) -0.0004(9)
C7 0.0200(9) 0.0220(11) 0.0203(9) -0.0034(8) 0.0051(7) 0.0008(8)
C8 0.0251(11) 0.0279(12) 0.0323(11) -0.0031(9) 0.0050(8) 0.0027(9)
C9 0.0262(11) 0.0377(13) 0.0217(10) -0.0014(9) 0.0068(8) 0.0012(10)
C10 0.0212(10) 0.0347(13) 0.0228(10) 0.0010(9) -0.0003(8) -0.0040(9)
C11 0.0256(10) 0.0245(11) 0.0272(10) 0.0009(9) 0.0075(8) -0.0047(9)
C12 0.0322(11) 0.0271(12) 0.0188(10) 0.0032(9) 0.0043(8) 0.0029(9)
C13 0.0328(11) 0.0233(11) 0.0249(10) -0.0059(9) 0.0077(8) -0.0004(9)
C14 0.0460(13) 0.0290(12) 0.0174(10) -0.0010(9) 0.0084(9) -0.0010(10)
C15 0.0317(11) 0.0247(12) 0.0237(10) 0.0062(9) 0.0054(8) 0.0054(9)
C16 0.0228(10) 0.0244(11) 0.0262(10) -0.0027(9) 0.0021(8) -0.0075(9)
C17 0.0376(14) 0.0261(13) 0.0641(17) 0.0069(12) -0.0050(12) -0.0098(11)
C18 0.0405(14) 0.0555(17) 0.0314(12) -0.0036(12) -0.0031(10) -0.0234(13)
loop_
_atom_type_symbol
_atom_type_description
_atom_type_scat_dispersion_real
_atom_type_scat_dispersion_imag
_atom_type_scat_source
C C 0.0033 0.0016 'International Tables Vol C Tables 4.2.6.8 and 6.1.1.4'
H H 0.0000 0.0000 'International Tables Vol C Tables 4.2.6.8 and 6.1.1.4'
F F 0.0171 0.0103 'International Tables Vol C Tables 4.2.6.8 and 6.1.1.4'
N N 0.0061 0.0033 'International Tables Vol C Tables 4.2.6.8 and 6.1.1.4'
O O 0.0106 0.0060 'International Tables Vol C Tables 4.2.6.8 and 6.1.1.4'
S S 0.1246 0.1234 'International Tables Vol C Tables 4.2.6.8 and 6.1.1.4'
loop_
_geom_angle_atom_site_label_1
_geom_angle_atom_site_label_2
_geom_angle_atom_site_label_3
_geom_angle
O1 S1 C19 102.46(9)
O2 S1 O1 115.28(11)
O2 S1 O3 115.61(10)
O2 S1 C19 102.79(10)
O3 S1 O1 114.54(10)
O3 S1 C19 103.54(10)
F1 C19 S1 111.69(14)
F1 C19 F2 106.79(16)
F2 C19 S1 111.61(14)
F3 C19 S1 111.99(14)
F3 C19 F1 106.94(17)
F3 C19 F2 107.52(18)
C1 N1 C2 109.72(16)
C1 N1 C15 126.83(16)
C2 N1 C15 123.34(16)
C1 N2 C3 110.09(15)
C1 N2 C12 125.87(16)
C3 N2 C12 124.02(16)
C4 N3 C7 108.46(14)
C4 N3 C16 119.69(16)
C16 N3 C7 116.70(15)
N1 C1 C4 128.53(18)
N2 C1 N1 106.60(16)
N2 C1 C4 124.87(17)
N1 C2 C14 121.51(18)
C3 C2 N1 107.03(16)
C3 C2 C14 131.46(18)
N2 C3 C13 122.86(17)
C2 C3 N2 106.55(17)
C2 C3 C13 130.58(17)
N3 C4 C1 114.68(16)
N3 C4 C5 108.45(16)
C1 C4 C5 117.85(16)
C6 C5 C4 101.85(15)
C6 C5 C10 112.04(16)
C10 C5 C4 110.61(16)
C11 C5 C4 113.65(15)
C11 C5 C6 111.29(16)
C11 C5 C10 107.45(15)
C5 C6 H6A 110.2
C5 C6 H6B 110.2
H6A C6 H6B 108.5
C7 C6 C5 107.37(16)
C7 C6 H6A 110.2
C7 C6 H6B 110.2
N3 C7 C6 101.11(14)
N3 C7 C8 110.40(15)
N3 C7 C9 113.13(17)
C6 C7 C9 111.85(16)
C8 C7 C6 110.63(17)
C8 C7 C9 109.50(16)
C7 C8 H8A 109.5
C7 C8 H8B 109.5
C7 C8 H8C 109.5
H8A C8 H8B 109.5
H8A C8 H8C 109.5
H8B C8 H8C 109.5
C7 C9 H9A 109.5
C7 C9 H9B 109.5
C7 C9 H9C 109.5
H9A C9 H9B 109.5
H9A C9 H9C 109.5
H9B C9 H9C 109.5
C5 C10 H10A 109.5
C5 C10 H10B 109.5
C5 C10 H10C 109.5
H10A C10 H10B 109.5
H10A C10 H10C 109.5
H10B C10 H10C 109.5
C5 C11 H11A 109.5
C5 C11 H11B 109.5
C5 C11 H11C 109.5
H11A C11 H11B 109.5
H11A C11 H11C 109.5
H11B C11 H11C 109.5
N2 C12 H12A 109.5
N2 C12 H12B 109.5
N2 C12 H12C 109.5
H12A C12 H12B 109.5
H12A C12 H12C 109.5
H12B C12 H12C 109.5
C3 C13 H13A 109.5
C3 C13 H13B 109.5
C3 C13 H13C 109.5
H13A C13 H13B 109.5
H13A C13 H13C 109.5
H13B C13 H13C 109.5
C2 C14 H14A 109.5
C2 C14 H14B 109.5
C2 C14 H14C 109.5
H14A C14 H14B 109.5
H14A C14 H14C 109.5
H14B C14 H14C 109.5
N1 C15 H15A 109.5
N1 C15 H15B 109.5
N1 C15 H15C 109.5
H15A C15 H15B 109.5
H15A C15 H15C 109.5
H15B C15 H15C 109.5
N3 C16 H16 105.7
N3 C16 C17 115.56(17)
N3 C16 C18 112.27(17)
C17 C16 H16 105.7
C18 C16 H16 105.7
C18 C16 C17 111.0(2)
C16 C17 H17A 109.5
C16 C17 H17B 109.5
C16 C17 H17C 109.5
H17A C17 H17B 109.5
H17A C17 H17C 109.5
H17B C17 H17C 109.5
C16 C18 H18A 109.5
C16 C18 H18B 109.5
C16 C18 H18C 109.5
H18A C18 H18B 109.5
H18A C18 H18C 109.5
H18B C18 H18C 109.5
loop_
_geom_bond_atom_site_label_1
_geom_bond_atom_site_label_2
_geom_bond_distance
S1 O1 1.4376(15)
S1 O2 1.4274(15)
S1 O3 1.4312(16)
S1 C19 1.820(2)
F1 C19 1.332(2)
F2 C19 1.333(2)
F3 C19 1.331(2)
N1 C1 1.347(2)
N1 C2 1.389(2)
N1 C15 1.461(3)
N2 C1 1.341(2)
N2 C3 1.391(2)
N2 C12 1.470(2)
N3 C4 1.431(2)
N3 C7 1.486(2)
N3 C16 1.477(2)
C1 C4 1.484(3)
C2 C3 1.352(3)
C2 C14 1.491(3)
C3 C13 1.484(3)
C4 C5 1.556(3)
C5 C6 1.538(3)
C5 C10 1.540(2)
C5 C11 1.530(3)
C6 H6A 0.9900
C6 H6B 0.9900
C6 C7 1.532(3)
C7 C8 1.527(3)
C7 C9 1.534(3)
C8 H8A 0.9800
C8 H8B 0.9800
C8 H8C 0.9800
C9 H9A 0.9800
C9 H9B 0.9800
C9 H9C 0.9800
C10 H10A 0.9800
C10 H10B 0.9800
C10 H10C 0.9800
C11 H11A 0.9800
C11 H11B 0.9800
C11 H11C 0.9800
C12 H12A 0.9800
C12 H12B 0.9800
C12 H12C 0.9800
C13 H13A 0.9800
C13 H13B 0.9800
C13 H13C 0.9800
C14 H14A 0.9800
C14 H14B 0.9800
C14 H14C 0.9800
C15 H15A 0.9800
C15 H15B 0.9800
C15 H15C 0.9800
C16 H16 1.0000
C16 C17 1.510(3)
C16 C18 1.505(3)
C17 H17A 0.9800
C17 H17B 0.9800
C17 H17C 0.9800
C18 H18A 0.9800
C18 H18B 0.9800
C18 H18C 0.9800
loop_
_geom_torsion_atom_site_label_1
_geom_torsion_atom_site_label_2
_geom_torsion_atom_site_label_3
_geom_torsion_atom_site_label_4
_geom_torsion
O1 S1 C19 F1 -63.64(16)
O1 S1 C19 F2 55.82(17)
O1 S1 C19 F3 176.43(16)
O2 S1 C19 F1 56.27(16)
O2 S1 C19 F2 175.74(15)
O2 S1 C19 F3 -63.66(18)
O3 S1 C19 F1 176.97(14)
O3 S1 C19 F2 -63.56(16)
O3 S1 C19 F3 57.04(17)
N1 C1 C4 N3 45.0(3)
N1 C1 C4 C5 -84.6(2)
N1 C2 C3 N2 0.3(2)
N1 C2 C3 C13 179.67(19)
N2 C1 C4 N3 -135.34(19)
N2 C1 C4 C5 95.1(2)
N3 C4 C5 C6 3.0(2)
N3 C4 C5 C10 122.24(17)
N3 C4 C5 C11 -116.79(18)
C1 N1 C2 C3 -0.7(2)
C1 N1 C2 C14 179.81(18)
C1 N2 C3 C2 0.2(2)
C1 N2 C3 C13 -179.23(17)
C1 C4 C5 C6 135.39(18)
C1 C4 C5 C10 -105.4(2)
C1 C4 C5 C11 15.6(3)
C2 N1 C1 N2 0.8(2)
C2 N1 C1 C4 -179.45(18)
C3 N2 C1 N1 -0.6(2)
C3 N2 C1 C4 179.64(17)
C4 N3 C7 C6 35.44(19)
C4 N3 C7 C8 152.57(17)
C4 N3 C7 C9 -84.3(2)
C4 N3 C16 C17 26.8(3)
C4 N3 C16 C18 -101.9(2)
C4 C5 C6 C7 18.92(19)
C5 C6 C7 N3 -33.03(18)
C5 C6 C7 C8 -150.01(16)
C5 C6 C7 C9 87.64(19)
C7 N3 C4 C1 -158.81(17)
C7 N3 C4 C5 -24.8(2)
C7 N3 C16 C17 -107.2(2)
C7 N3 C16 C18 124.1(2)
C10 C5 C6 C7 -99.32(18)
C11 C5 C6 C7 140.35(16)
C12 N2 C1 N1 -178.86(17)
C12 N2 C1 C4 1.4(3)
C12 N2 C3 C2 178.46(17)
C12 N2 C3 C13 -0.9(3)
C14 C2 C3 N2 179.7(2)
C14 C2 C3 C13 -0.9(4)
C15 N1 C1 N2 -175.60(17)
C15 N1 C1 C4 4.1(3)
C15 N1 C2 C3 175.85(17)
C15 N1 C2 C14 -3.6(3)
C16 N3 C4 C1 63.8(2)
C16 N3 C4 C5 -162.13(15)
C16 N3 C7 C6 174.24(15)
C16 N3 C7 C8 -68.6(2)
C16 N3 C7 C9 54.5(2)
loop_
_refln_index_h
_refln_index_k
_refln_index_l
_refln_F_squared_meas
_refln_F_squared_sigma
2 0 0 7193.68 185.78
-3 0 0 2343.67 59.79
3 0 0 2224.28 60.69
4 0 0 6288.17 161.88
4 0 0 6132.29 160.58
-4 0 0 6161.38 158.58
-5 0 0 1.3 1.3
5 0 0 0.9 1.7
5 0 0 -0.5 2.3
5 0 0 -3 2.9
6 0 0 1574.24 47.8
6 0 0 1610.84 48.5
-6 0 0 1557.04 44.7
6 0 0 1566.64 45.6
-6 0 0 1548.05 42.8
-7 0 0 60.69 4.4
-7 0 0 61.69 4.2
-7 0 0 65.79 6.2
7 0 0 46.8 5.6
7 0 0 56.29 7.9
7 0 0 65.09 7.9
-8 0 0 1.1 1.8
8 0 0 3.5 2.2
8 0 0 8.1 5.7
8 0 0 -1 4
-8 0 0 0.7 1.7
-8 0 0 3.9 2.8
9 0 0 11.7 7.5
-9 0 0 17.5 3.2
9 0 0 21.7 4.7
9 0 0 28.8 7.3
-9 0 0 13.9 3
-9 0 0 15.5 4.2
10 0 0 126.19 10
-10 0 0 113.49 6.7
-10 0 0 126.49 7.6
-10 0 0 124.19 9.4
10 0 0 129.19 14.2
10 0 0 115.69 14.1
11 0 0 295.87 21.2
11 0 0 329.97 23.9
11 0 0 324.17 17
-11 0 0 329.87 16.4
-11 0 0 304.57 13.6
12 0 0 2.5 9.8
-12 0 0 23 5.8
12 0 0 3.1 7.9
12 0 0 0.3 3.5
13 0 0 90.79 14.7
13 0 0 88.29 11.2
13 0 0 83.39 16.4
-13 0 0 97.59 10.9
14 0 0 5.2 13.3
14 0 0 12.4 5.8
14 0 0 0.5 9.6
-14 0 0 15.7 6.4
15 0 0 64.89 15.5
15 0 0 64.99 11.1
-15 0 0 74.59 10.6
15 0 0 39.6 16.6
16 0 0 39.2 14.5
16 0 0 20.3 17
16 0 0 20.6 7.6
-16 0 0 18.8 7.3
1 -1 0 437.06 12.3
1 -1 0 410.56 13.1
1 1 0 447.26 15
-1 1 0 429.06 12.5
2 -1 0 102.69 4.6
2 -1 0 99.09 5
2 1 0 88.69 7.4
-2 1 0 93.79 4.4
2 1 0 99.29 4
3 -1 0 232.58 8.9
-3 -1 0 231.08 7.8
3 -1 0 234.98 9
3 1 0 236.48 8.4
3 1 0 228.38 10.4
-3 1 0 244.18 8.5
3 1 0 219.08 12.3
4 -1 0 1108.69 32
-4 -1 0 1112.09 29.7
4 -1 0 1071.79 30.9
4 -1 0 1086.89 31.7
-4 -1 0 1092.49 30.3
4 1 0 1065.69 35.6
-4 1 0 1081.29 30.6
4 1 0 1079.09 31
4 1 0 1087.69 33.4
-5 -1 0 495.35 16.2
5 -1 0 506.45 17.7
-5 -1 0 479.75 14.7
5 -1 0 526.25 18.5
5 -1 0 519.45 16.4
5 1 0 500.85 17
5 1 0 511.35 19.8
5 1 0 512.95 21.8
5 1 0 493.35 20.5
-5 1 0 517.05 16.4
6 -1 0 349.67 15.8
-6 -1 0 366.46 13.5
-6 -1 0 373.86 12
6 -1 0 384.26 15.2
6 -1 0 390.66 13.3
6 -1 0 359.56 16.3
-6 1 0 369.96 13.3
6 1 0 356.36 14.2
6 1 0 384.46 17.3
6 1 0 387.56 18.6
-7 -1 0 141.29 6.6
-7 -1 0 162.88 7
7 -1 0 153.48 7.6
-7 -1 0 146.59 8
7 -1 0 143.09 8.9
7 -1 0 152.08 10.4
7 -1 0 151.58 11.4
7 1 0 158.08 8.7
-7 1 0 147.89 7.6
7 1 0 146.99 11.7
7 1 0 138.59 12.5
8 -1 0 246.18 15.6
8 -1 0 265.47 13.1
-8 -1 0 252.47 9.3
-8 -1 0 253.37 10
8 -1 0 254.47 14.7
-8 -1 0 236.18 11.3
8 1 0 272.47 16
8 1 0 242.38 17.6
-8 1 0 262.37 11
-8 1 0 254.67 12.3
8 1 0 244.48 12.2
9 -1 0 16.2 7
-9 -1 0 10.1 3
9 -1 0 8.5 3.5
-9 -1 0 6.7 3.3
-9 -1 0 6.3 2.5
9 -1 0 11.7 6
9 1 0 4.8 6.2
9 1 0 7.5 7.8
-9 1 0 7.9 3.8
-9 1 0 7.6 3.1
9 1 0 5.5 3.2
-10 -1 0 41.9 4.5
-10 -1 0 41.2 6.1
10 -1 0 24.2 5.4
-10 -1 0 46.7 5.1
10 -1 0 43.7 10.1
10 -1 0 49.99 9.2
10 1 0 35.4 5.9
10 1 0 57.59 11.9
10 1 0 44.8 10.4
-10 1 0 45.5 5.8
-10 1 0 45.3 7
11 -1 0 8.7 7.5
-11 -1 0 9.7 4.6
-11 -1 0 10.1 3.2
11 -1 0 6.1 4.4
11 -1 0 2 9.1
11 1 0 9.2 10.7
-11 1 0 12.4 4.8
-11 1 0 6.3 3.5
11 1 0 10.9 4.5
11 1 0 5.1 8.2
12 -1 0 -7.2 9.1
12 -1 0 0.1 7.7
-12 -1 0 13.2 5.1
-12 -1 0 17.2 3.7
12 -1 0 7.1 4.1
12 1 0 5.8 7.9
12 1 0 1 3.6
-12 1 0 8.1 3.9
12 1 0 13.3 11.1
-12 1 0 6.4 4.4
13 -1 0 -5.7 6.9
-13 -1 0 3.7 4.4
13 -1 0 -6.3 3
-13 -1 0 0.1 2.6
13 -1 0 -18 9.8
13 1 0 -7.4 10.9
-13 1 0 -2.5 3
13 1 0 -1.6 3.5
13 1 0 -8.9 8
-13 1 0 -1.8 3.7
-14 -1 0 11.1 5.5
14 -1 0 8.3 9.6
14 -1 0 8.6 5.2
14 -1 0 -7.6 12.1
14 1 0 -1.7 8.7
-14 1 0 8.5 5.4
14 1 0 1.4 12.5
14 1 0 0.6 4.6
-15 -1 0 50.39 9.2
15 -1 0 44.1 13.3
15 -1 0 38.6 9
15 1 0 46.3 8.9
15 1 0 24.7 17
15 1 0 28.5 12.7
-15 1 0 35.3 8.1
16 -1 0 6.7 11.1
-16 -1 0 -7.2 4.8
16 -1 0 -2.8 4.6
16 1 0 -7.2 10.6
-16 1 0 1.9 5.8
16 1 0 -0.3 5.1
16 1 0 -2.6 15.7
0 -2 0 294.57 11
0 2 0 291.77 14
0 2 0 284.17 9.7
1 -2 0 428.76 12.2
1 -2 0 402.76 14.3
-1 -2 0 398.96 13.5
-1 2 0 400.06 14.9
-1 2 0 408.86 13.1
1 2 0 391.76 17
1 2 0 385.36 12.2
2 -2 0 458.05 14.3
2 -2 0 459.85 15.9
-2 -2 0 430.36 14.4
2 2 0 503.05 16.8
2 2 0 456.35 19.5
-2 2 0 450.75 14.9
2 2 0 470.55 13
-3 -2 0 1656.73 45.5
3 -2 0 1692.93 47.9
-3 -2 0 1704.63 44.5
3 -2 0 1687.83 46.5
3 2 0 1694.93 45.2
3 2 0 1717.03 48.7
-3 2 0 1727.93 46.8
3 2 0 1673.33 52.79
-4 -2 0 774.02 21.9
4 -2 0 803.52 24.1
4 -2 0 791.82 23.7
4 -2 0 781.52 24.7
-4 -2 0 754.02 22
-4 2 0 764.42 23.7
4 2 0 728.03 26.8
4 2 0 774.52 26.4
4 2 0 762.22 29.8
4 2 0 758.92 22.6
5 -2 0 41.7 5
5 -2 0 64.79 6.4
-5 -2 0 51.79 4.1
-5 -2 0 52.09 4.1
5 -2 0 52.49 5.4
5 2 0 44.3 6.9
5 2 0 49.99 9.7
5 2 0 42.2 7.7
-5 2 0 48.3 5
5 2 0 46.4 4.6
6 -2 0 11.3 3.7
6 -2 0 16.2 3.6
-6 -2 0 17.5 3
-6 -2 0 17.4 2.6
6 -2 0 20.8 4.1
6 2 0 21.7 6
6 2 0 12.8 5.8
6 2 0 14.2 7
-6 2 0 12.9 3.1
6 2 0 11.5 2.8
7 -2 0 137.59 10.6
-7 -2 0 136.09 6.5
7 -2 0 140.69 9.8
-7 -2 0 141.49 7.4
7 -2 0 134.09 9.1
-7 -2 0 135.69 6.3
7 -2 0 137.09 8.4
7 2 0 129.89 12.9
7 2 0 130.19 7.9
-7 2 0 133.69 7.8
7 2 0 150.88 12.6
8 -2 0 132.79 12.1
-8 -2 0 126.89 6.4
8 -2 0 108.39 10.4
-8 -2 0 129.29 6.8
-8 -2 0 124.69 7.6
8 -2 0 139.19 8.5
8 -2 0 157.88 10.1
-8 2 0 129.29 8.1
8 2 0 153.48 14.1
8 2 0 119.59 8.3
8 2 0 152.68 15.1
-9 -2 0 67.19 5.3
9 -2 0 53.29 7.2
9 -2 0 59.19 9.3
-9 -2 0 60.89 5.6
9 -2 0 45.7 7.9
-9 -2 0 59.99 6.3
9 2 0 47.8 6.3
-9 2 0 71.69 7
9 2 0 58.89 10.6
9 2 0 50.59 10.8
10 -2 0 7 8
10 -2 0 19.8 4.9
-10 -2 0 12.4 3.2
-10 -2 0 17.4 4.6
10 -2 0 12.9 6.4
10 2 0 13.6 4.6
10 2 0 23.8 10.7
10 2 0 9.5 8.3
-10 2 0 5.9 4.5
-10 2 0 9.2 3.8
-11 -2 0 169.88 8.7
11 -2 0 181.08 16.4
11 -2 0 184.68 13.2
11 -2 0 159.78 16.4
-11 -2 0 169.08 11
-11 2 0 200.68 12.8
-11 2 0 192.28 11.2
11 2 0 171.58 11.9
11 2 0 162.58 18.7
11 2 0 164.18 17.7
-12 -2 0 1.7 3.8
12 -2 0 3.5 3.8
12 -2 0 2.4 7.2
-12 2 0 4.5 4.5
12 2 0 4.3 4
12 2 0 -1.5 7.4
12 2 0 14 11.8
-12 2 0 3.9 3.8
13 -2 0 11.7 9
-13 -2 0 19.1 5.8
13 -2 0 17 6.1
13 2 0 24.2 6.3
-13 2 0 22.7 5.4
-13 2 0 19.1 6.4
13 2 0 25.8 10.6
13 2 0 20 13.6
-14 -2 0 41 8.9
14 -2 0 38.7 8
14 -2 0 21.7 10.6
14 2 0 37.2 8.1
-14 2 0 20 7.1
14 2 0 47.3 13.7
-14 2 0 25.7 6
14 2 0 26.2 15.2
15 -2 0 -2.8 9.9
15 -2 0 8.6 5.8
15 2 0 6 5.3
-15 2 0 14.6 6.8
15 2 0 7.2 16
15 2 0 41.7 14.1
16 -2 0 18.1 7.5
16 -2 0 35.7 14.4
16 2 0 -0.6 16.4
16 2 0 28.7 8
-16 2 0 22.5 8
16 2 0 13.4 12.4
0 -3 0 0.1 0.9
0 -3 0 -0.5 1.8
0 3 0 1 3.4
0 3 0 -1.9 1.2
1 -3 0 12.4 3
-1 -3 0 20.4 3.5
1 -3 0 12.9 1.8
-1 3 0 12.9 2.4
1 3 0 15 2.3
1 3 0 19.2 5.6
-1 3 0 11.6 4
2 -3 0 127.79 8
2 -3 0 115.79 5.6
-2 -3 0 111.49 6.9
-2 3 0 119.79 7.6
-2 3 0 111.49 6.5
2 3 0 96.79 10.6
2 3 0 112.19 5.3
-3 -3 0 68.19 6.1
3 -3 0 59.19 6.7
3 -3 0 71.39 5.1
-3 -3 0 62.99 5.7
3 3 0 76.49 11.5
-3 3 0 75.29 6
3 3 0 74.19 7.6
3 3 0 66.99 7.5
3 3 0 64.49 4
3 3 0 72.49 3.8
-3 3 0 72.39 5.8
-4 -3 0 140.19 7.5
-4 -3 0 124.39 7.4
4 -3 0 132.49 7
4 -3 0 128.29 7.5
4 -3 0 134.29 9.1
-4 -3 0 138.29 5.4
4 3 0 127.99 10.6
4 3 0 115.19 10.9
4 3 0 121.79 14.1
-4 3 0 125.19 7.6
4 3 0 124.09 5.8
-5 -3 0 213.78 8.1
5 -3 0 252.97 11
5 -3 0 208.48 10.1
-5 -3 0 219.78 9.5
-5 -3 0 205.08 9.4
5 -3 0 208.28 11.5
5 3 0 227.88 13.8
5 3 0 221.38 14.9
-5 3 0 221.48 10.6
5 3 0 209.28 8.9
5 3 0 205.78 16.5
6 -3 0 132.19 8.6
-6 -3 0 144.79 6.7
6 -3 0 132.49 8.7
-6 -3 0 152.38 7.4
6 -3 0 143.09 9.7
-6 -3 0 148.89 7.5
-6 3 0 139.89 8.4
6 3 0 127.99 13.1
6 3 0 161.58 14.8
6 3 0 137.39 7.4
6 3 0 145.69 11.8
-7 -3 0 -0.6 2.3
7 -3 0 -0.5 3.2
-7 -3 0 1.9 2.2
7 -3 0 -1.3 2.1
-7 -3 0 1.7 2.2
7 -3 0 0.5 2.8
7 3 0 3.4 6
7 3 0 -0.2 1.8
7 3 0 -17.8 4.8
-7 3 0 1 2.1
7 3 0 -1.6 6.3
8 -3 0 32 5.7
8 -3 0 16.8 4.7
-8 -3 0 27.3 4.2
-8 -3 0 32.9 4.3
8 -3 0 11.2 4.9
-8 -3 0 21.1 3.7
8 3 0 20.9 8.1
8 3 0 24.6 4.4
8 3 0 38 9.9
-8 3 0 28.3 4.9
-9 -3 0 -3.6 2.4
9 -3 0 5.3 3.6
9 -3 0 4.8 5.2
-9 -3 0 -5.2 2.4
-9 3 0 3.2 3.1
9 3 0 -0.2 2.6
9 3 0 0.5 7.6
9 3 0 -9.6 8.9
-10 -3 0 2.9 3.2
10 -3 0 6.2 4.4
10 -3 0 4.7 5.8
-10 -3 0 8.7 3.9
10 3 0 -2.9 10
-10 3 0 6 4.6
10 3 0 -8.2 7
-10 3 0 5.3 3.6
10 3 0 -1.3 2.8
11 -3 0 36.3 7.2
11 -3 0 28 8.3
11 3 0 22.5 9.5
11 3 0 28.9 12.5
11 3 0 43.9 6.9
-11 3 0 47.4 6.9
-11 3 0 37 7.1
12 -3 0 9 7.4
12 -3 0 4.3 4.4
12 3 0 6.4 3.8
-12 3 0 0.6 3.1
12 3 0 18.7 12.8
12 3 0 -1.8 9.1
-12 3 0 6.5 5.2
13 -3 0 57.49 11.9
13 -3 0 35.6 8.1
13 3 0 29.2 6.6
13 3 0 8.2 10.4
-13 3 0 39.7 7.3
-13 3 0 48.3 8.9
13 3 0 33 15
14 -3 0 8.7 6.2
14 3 0 -1.4 14.1
-14 3 0 13.5 6.4
14 3 0 5.1 4.9
14 3 0 16.5 12
-14 3 0 19.7 5.9
15 -3 0 11.7 6.9
15 3 0 -19.3 14.3
-15 3 0 7.2 5
15 3 0 9.8 13
-15 3 0 4 5.1
15 3 0 4.8 5.4
0 -4 0 374.36 16.2
0 -4 0 358.66 10.7
0 -4 0 348.97 15.6
0 4 0 355.06 13.7
0 4 0 360.46 18.8
1 -4 0 96.39 8.7
-1 -4 0 104.69 9.1
-1 -4 0 92.89 7.9
1 -4 0 95.79 4.8
1 -4 0 105.69 9.6
-1 4 0 104.19 6.6
1 4 0 105.59 12.4
-1 4 0 104.99 10.8
1 4 0 80.59 5.5
-2 -4 0 45.1 5.7
2 -4 0 42.8 6.7
2 -4 0 32.2 3.4
2 -4 0 32.7 6.1
-2 -4 0 41.6 5.7
2 4 0 44.1 9.3
2 4 0 28.1 5.9
2 4 0 36.4 4
-2 4 0 38.7 4.8
-2 4 0 44.6 6.8
-3 -4 0 430.06 17.3
3 -4 0 459.05 19.3
-3 -4 0 435.36 17
3 -4 0 442.06 15.4
3 -4 0 432.16 18.5
3 4 0 432.96 23.7
-3 4 0 439.26 16.9
3 4 0 452.15 14.6
3 4 0 435.66 19.8
-3 4 0 452.25 17.6
4 -4 0 302.07 11.1
-4 -4 0 287.37 12.9
-4 -4 0 283.77 8.9
4 -4 0 285.87 14.8
4 -4 0 273.47 11.8
4 -4 0 286.07 14.4
-4 -4 0 265.37 12.6
4 4 0 281.07 9.7
-4 4 0 294.67 12.1
4 4 0 264.97 9.4
4 4 0 273.67 19.6
4 4 0 261.07 15.5
4 4 0 247.88 16.2
-4 4 0 294.67 13
-5 -4 0 518.15 19.3
-5 -4 0 557.14 20
5 -4 0 554.14 18.8
-5 -4 0 544.25 16.3
5 -4 0 558.94 22.8
5 -4 0 571.74 20.3
5 -4 0 570.74 22.3
5 4 0 542.15 25.4
5 4 0 542.65 17.3
-5 4 0 542.75 20.7
5 4 0 565.34 24.2
5 4 0 549.95 28.5
6 -4 0 64.49 6.9
-6 -4 0 60.19 6.6
6 -4 0 49.5 5.8
-6 -4 0 55.59 6
6 -4 0 62.19 8.4
6 -4 0 41.4 7
6 4 0 44.5 10.8
-6 4 0 51.09 6.3
6 4 0 54.09 9.6
6 4 0 67.99 11.3
6 4 0 56.69 4.7
7 -4 0 10.5 5.8
7 -4 0 2.6 3.1
-7 -4 0 1.2 3.2
7 -4 0 9.1 4.8
7 -4 0 4.9 3.6
-7 -4 0 7 3.6
7 4 0 2.3 2.4
7 4 0 13.5 9.1
7 4 0 10.6 7.2
7 4 0 -2.1 7.2
-7 4 0 8.6 3.6
-8 -4 0 857.31 28.1
8 -4 0 903.01 32.7
8 -4 0 940.01 32
-8 -4 0 888.71 28.9
8 -4 0 866.51 30.8
8 4 0 863.31 28.5
-8 4 0 900.51 31
8 4 0 899.31 40.2
8 4 0 824.42 36.7
9 -4 0 608.04 25.7
-9 -4 0 637.74 22.2
-9 4 0 639.34 24.9
9 4 0 629.94 23.2
9 4 0 734.53 36.6
9 4 0 635.24 32.1
-10 -4 0 99.69 8
10 -4 0 87.59 9.9
10 4 0 108.39 17.9
10 4 0 106.29 15.7
-10 4 0 115.39 9.6
11 -4 0 277.27 16.3
-11 4 0 210.38 13.4
-11 4 0 191.88 13.8
11 4 0 217.88 24.1
11 4 0 166.08 19.2
12 -4 0 98.59 11.9
-12 4 0 107.09 11.3
12 4 0 105.49 16.8
-12 4 0 117.29 12.7
12 4 0 96.49 19
13 -4 0 3.5 4.9
13 4 0 24 14.3
-13 4 0 1.6 5.3
-13 4 0 -1.8 4.1
13 4 0 4.2 10.6
14 -4 0 83.99 12.6
14 4 0 74.79 17.3
-14 4 0 76.79 10.2
-14 4 0 68.99 10.9
14 4 0 68.99 19.8
15 -4 0 27.5 8.3
15 4 0 32.1 14.3
-15 4 0 48.2 9.1
15 4 0 39.1 19.1
-15 4 0 52.79 9.9
0 -5 0 1.5 1.1
0 -5 0 4.7 4.1
0 -5 0 1 3.8
0 5 0 2.3 6.3
0 5 0 2.9 2.5
0 5 0 1.7 2.1
1 -5 0 428.86 19.6
-1 -5 0 461.35 19.5
-1 -5 0 379.56 17.8
1 -5 0 419.76 18.9
1 -5 0 395.76 13.1
1 5 0 394.06 18.4
-1 5 0 384.46 20.5
1 5 0 430.76 15.7
-1 5 0 412.96 16.5
1 5 0 396.46 22.8
-2 -5 0 243.98 13.1
2 -5 0 265.57 14.7
2 -5 0 256.87 14.8
2 -5 0 225.28 9.6
-2 -5 0 240.98 13.6
2 5 0 247.98 18.4
2 5 0 263.67 15.9
-2 5 0 249.08 12.3
-2 5 0 227.88 14.7
2 5 0 242.38 10.6
-3 -5 0 118.79 9.6
3 -5 0 129.29 11.7
-3 -5 0 127.19 9.8
3 -5 0 141.59 11.3
3 -5 0 141.19 7.5
-3 5 0 117.79 10.3
-3 5 0 135.19 8.9
3 5 0 119.19 12.1
3 5 0 130.89 7
3 5 0 116.49 16.5
4 -5 0 0.5 2.1
4 -5 0 4.1 4.3
-4 -5 0 1.1 3.3
4 -5 0 -3.5 3.4
-4 -5 0 0.6 4.4
-4 5 0 0.6 2.6
4 5 0 -2.1 6.7
4 5 0 7.8 8.2
5 -5 0 49.3 6.1
5 -5 0 59.19 8.6
-5 -5 0 69.89 8.1
-5 -5 0 53.59 7.7
5 -5 0 48 8.2
5 5 0 50.59 12.5
-5 5 0 73.59 8.4
5 5 0 62.49 11.2
-6 -5 0 14.4 4.7
6 -5 0 12.3 5.7
6 -5 0 11.5 3.8
6 -5 0 14.4 6.3
-6 -5 0 14.4 5
-6 5 0 19.2 4.7
6 5 0 16.9 9.8
6 5 0 12.4 7.8
6 5 0 15.8 9.9
7 -5 0 33.6 7.5
7 -5 0 38.3 6.4
-7 -5 0 30 6.1
7 -5 0 40.2 8.1
-7 -5 0 37.9 6.5
7 5 0 32.3 10.3
7 5 0 27 11.6
-7 5 0 39.4 6.6
-8 -5 0 61.89 8.1
8 -5 0 44.7 8.9
-8 -5 0 58.49 7.5
8 -5 0 48.2 7.5
8 5 0 47.9 13.9
8 5 0 44.4 11.4
-8 5 0 57.69 8.6
9 -5 0 7.7 4.6
-9 -5 0 4.5 4.5
9 5 0 5.8 8.9
-9 5 0 13.2 5
9 5 0 11.3 11.4
-10 -5 0 -0.5 3.8
10 -5 0 -2.1 3.7
10 5 0 -4.6 8.3
-10 5 0 -5.1 2.6
10 5 0 -1.6 11.5
11 -5 0 105.29 12.3
-11 5 0 113.69 12.5
-11 5 0 120.39 11.9
11 5 0 75.09 14.7
11 5 0 104.19 18.6
12 -5 0 84.39 11.6
12 5 0 57.19 15.2
12 5 0 103.29 20.8
-12 5 0 90.49 11.3
-12 5 0 101.59 12.4
13 -5 0 42.5 8.9
-13 5 0 64.29 10.2
13 5 0 48.2 15.2
13 5 0 52.99 18.7
-13 5 0 58.99 9.3
14 -5 0 25.7 8.8
-14 5 0 32.1 7.5
14 5 0 12.1 12.2
-14 5 0 19.6 6.8
14 5 0 20.6 18.3
0 -6 0 64.39 9.4
0 -6 0 80.19 10.5
0 6 0 81.99 7.6
0 6 0 62.79 6.9
0 6 0 83.79 13.1
1 -6 0 3.1 4.8
-1 -6 0 3.7 4.7
-1 -6 0 1.1 4.9
1 -6 0 2.3 5
-1 6 0 0.9 2.8
1 6 0 -2.5 6.8
1 6 0 0.3 2.2
-1 6 0 -0.1 6.3
-1 6 0 1.1 2.8
2 -6 0 27.1 7.3
2 -6 0 19.6 6.6
2 6 0 13.4 8.6
-2 6 0 17.6 7.2
2 6 0 22.4 8.1
-2 6 0 19.1 4.7
2 6 0 24 4.3
3 -6 0 22.5 7.2
-3 -6 0 16.6 6.5
-3 -6 0 21.8 6.1
3 -6 0 13.1 6.3
3 6 0 14.7 9.3
-3 6 0 14.1 4.6
3 6 0 15.6 8.9
-4 -6 0 -3.1 5.2
4 -6 0 3.6 5.8
4 -6 0 4.9 5.4
-4 -6 0 2.3 4.8
4 6 0 2.1 9
4 6 0 14.8 9.6
-4 6 0 0.4 3.2
5 -6 0 -4.4 5
5 -6 0 9.9 6
5 -6 0 1.9 3.1
-5 6 0 8.4 4.4
5 6 0 17.4 10.1
5 6 0 2.6 9.7
6 -6 0 117.29 9.4
-6 -6 0 96.89 10.9
-6 -6 0 126.69 12.2
6 -6 0 122.19 13.5
6 -6 0 124.39 13.6
6 6 0 114.89 16
6 6 0 114.29 19.8
-6 6 0 122.79 11.7
-7 -6 0 27.6 6.7
7 -6 0 29.3 5.7
7 -6 0 28.6 8.8
-7 -6 0 34.1 7.1
7 -6 0 23.1 7.8
-7 6 0 28.3 6.3
7 6 0 24.3 12.5
8 -6 0 3.1 3.7
-8 -6 0 0.2 4.9
8 -6 0 -3.8 5.6
-8 -6 0 -1.4 5.2
8 6 0 1.5 10.7
-8 6 0 8.6 4.3
9 -6 0 3.9 7.8
-9 -6 0 9.4 5.4
9 -6 0 2.8 4
-9 6 0 1.5 4.3
9 6 0 1.8 12.4
10 -6 0 17.6 6
-10 -6 0 20.3 6.4
10 6 0 13.7 11.4
-10 6 0 15.8 6.1
10 6 0 48.9 17.3
-10 6 0 14.1 5.6
11 -6 0 7 5.3
-11 -6 0 -6.1 5.1
11 6 0 -5.2 13.1
-11 6 0 -5.8 4.2
11 6 0 6.9 10.6
-11 6 0 0.3 4.6
12 -6 0 69.59 10.8
-12 6 0 70.19 10.6
-12 6 0 85.99 12.2
12 6 0 56.69 19.5
12 6 0 54.59 15.6
13 -6 0 7.1 6.3
-13 6 0 12.2 6.3
13 6 0 -17.3 14.9
-13 6 0 6.9 5.5
13 6 0 -6.2 10.5
0 -7 0 5.4 6.4
0 -7 0 1.7 6.6
0 7 0 -1.2 7.7
0 7 0 0.6 3.2
1 -7 0 9.9 6.7
-1 -7 0 2.8 5.7
1 -7 0 -0.7 5.7
-1 -7 0 -6.8 5.6
1 7 0 1.7 3.1
1 7 0 11.3 9.2
-1 7 0 8.3 8.6
-1 7 0 5.4 3.7
-1 7 0 7.1 4
-2 -7 0 42.2 9.5
-2 -7 0 36.8 8.5
2 -7 0 44.4 9.4
2 -7 0 39 9.4
-2 7 0 45.9 7.6
2 7 0 41 12.2
3 -7 0 -8.9 5.5
-3 -7 0 -2.2 5.7
-3 -7 0 0.6 5.2
3 -7 0 -2.1 6.2
-3 7 0 -7.2 3.3
3 7 0 1.2 8.8
-4 -7 0 6.7 5.9
4 -7 0 3.2 6.1
-4 -7 0 8.8 6.2
4 -7 0 -6.5 4.6
4 7 0 0.4 8.6
-4 7 0 -1.5 3.2
4 7 0 -5 9.2
-5 -7 0 21 7.1
5 -7 0 7.3 6.5
5 -7 0 4.9 6.4
-5 -7 0 18 6.7
-5 7 0 21.5 6
5 7 0 4.3 10
-6 -7 0 11.3 6.1
6 -7 0 11 7
-6 -7 0 19.8 7.1
6 -7 0 20.3 7.8
-6 7 0 22.5 5.9
6 7 0 14.7 11.5
-7 -7 0 10.3 5.9
7 -7 0 -6.3 5.7
-7 -7 0 0.1 5.6
7 7 0 6.2 12
-7 7 0 4.5 4.4
-8 -7 0 -1.3 5.7
8 -7 0 16 7.9
-8 -7 0 6.2 6.6
8 7 0 21.8 14.9
-8 7 0 15.7 5.9
-9 -7 0 15.2 6.8
9 -7 0 25.5 11.5
-9 7 0 15.2 6.7
-9 7 0 20.3 6.2
9 7 0 11.7 13.9
-10 -7 0 -8.9 5.4
-10 7 0 0.3 4.5
-10 7 0 1.7 4.6
10 7 0 -22.4 13.1
-11 -7 0 8.2 6.9
11 7 0 -12.3 14
-11 7 0 3.5 5.1
-11 7 0 5.3 5.3
12 7 0 -17 16
-12 7 0 3.1 5.5
-12 7 0 0.7 5.5
0 -8 0 551.84 28.5
0 -8 0 558.64 28.1
0 8 0 518.55 26.4
-1 -8 0 3.6 6.3
-1 -8 0 -1.1 6.3
1 -8 0 7.9 7.4
1 -8 0 4.5 6.8
-1 8 0 6.1 4
-2 -8 0 75.09 12
-2 -8 0 74.59 12
2 -8 0 74.29 12.6
2 -8 0 76.39 13
-2 8 0 88.19 11
-2 8 0 88.99 10.5
-3 -8 0 80.69 12.6
-3 -8 0 80.29 12.3
3 -8 0 59.69 11.1
3 -8 0 56.99 11.4
-3 8 0 64.29 8.9
-3 8 0 80.49 10.2
-4 -8 0 12.5 7.3
4 -8 0 10.9 7.9
4 -8 0 7.2 7.6
-4 -8 0 21.8 7.9
-4 8 0 21.1 6.9
-5 -8 0 63.39 11.6
5 -8 0 52.59 11.8
-5 -8 0 93.09 12.8
5 -8 0 59.99 12.5
-5 8 0 84.29 11.5
6 -8 0 121.09 16.4
-6 -8 0 130.89 14.7
-6 -8 0 92.99 12.9
6 -8 0 111.59 16.3
-6 8 0 157.98 15.8
-7 -8 0 9.8 7.8
-7 -8 0 6.7 7.5
7 -8 0 18.2 9.6
-7 8 0 19 7.3
7 8 0 2 14.8
-8 -8 0 43.1 10.4
8 -8 0 33.7 11.2
-8 -8 0 33.7 11
-8 8 0 55.89 10.5
8 8 0 19.1 16.3
-8 8 0 56.59 8.8
-9 -8 0 58.69 11.1
-9 8 0 78.59 12.1
-9 8 0 65.79 9.8
9 8 0 45.2 18.7
-10 -8 0 50.89 10.4
-10 8 0 35.1 9.2
-10 8 0 42.1 8.7
10 8 0 20.5 18.3
0 -9 0 -3.5 7.2
0 -9 0 2.8 8.1
-1 -9 0 62.39 12
-1 -9 0 76.39 14.4
1 -9 0 60.79 13.2
1 -9 0 70.69 13.1
-2 -9 0 8.2 8.2
2 -9 0 0.5 7.8
-2 -9 0 5.6 7.5
2 -9 0 2.2 7.7
-2 9 0 -1.2 4.1
3 -9 0 0.7 8.6
-3 -9 0 3.6 8.2
3 -9 0 6 8.8
-3 -9 0 8.6 8.2
-3 9 0 5.5 5.4
-3 9 0 4.2 5
4 -9 0 -1.8 7.9
4 -9 0 -4.9 7.6
-4 -9 0 -1.1 7
-4 -9 0 -2.1 6.5
-4 9 0 -2.9 4.5
-4 9 0 -1 5.5
5 -9 0 54.79 12.8
-5 -9 0 49.1 11
5 -9 0 47.8 12.2
-5 -9 0 33.4 10.2
-5 9 0 55.59 10.8
6 -9 0 54.49 13.4
6 -9 0 79.29 14
-6 -9 0 44.7 11.1
-6 -9 0 32.5 10.9
-6 9 0 66.89 12.1
-7 -9 0 30.4 11.2
-7 -9 0 34.4 10.7
7 -9 0 32.1 12.1
-7 9 0 55.89 11.4
-8 -9 0 -0.1 7.4
8 -9 0 14.6 11
0 -10 0 4.2 8.3
0 -10 0 3.2 8
1 -10 0 2 7.7
1 -10 0 1.7 8.7
-1 -10 0 0.9 8.3
-1 -10 0 8.7 8.7
2 -10 0 19.8 10.6
2 -10 0 16.7 10
-2 -10 0 14.4 9.8
-2 -10 0 19.1 9.8
-3 -10 0 40.1 11.6
3 -10 0 56.39 14.5
3 -10 0 31 10.9
-4 -10 0 -5.9 7.6
4 -10 0 -10.1 6.8
-4 -10 0 -6.3 8.1
4 -10 0 11.4 10.4
16 0 -1 -37.3 13.2
-16 0 1 -2.4 4.9
16 0 -1 -1 11.6
16 0 -1 -8.9 3.8
15 0 -1 -8.9 9.5
15 0 -1 -25.2 11.1
15 0 -1 -5 4.2
-15 0 1 -11.4 4
14 0 -1 -23 10.1
14 0 -1 1.9 4.7
14 0 -1 9.8 9.5
-14 0 1 5 4.9
-13 0 1 -1.2 3.9
13 0 -1 -8.6 9.8
13 0 -1 2.1 4.3
13 0 -1 -7.7 6.8
12 0 -1 8.3 8
12 0 -1 -8.5 8.6
12 0 -1 8 4.1
-12 0 1 -0.6 3.8
11 0 -1 3 3.8
11 0 -1 -5.7 7.2
-11 0 1 -5 3.5
11 0 -1 1.2 8.8
-11 0 1 1.1 2.7
-10 0 1 -2.6 2
10 0 -1 1.2 5.7
10 0 -1 0.6 2.9
-10 0 1 -3 2.8
10 0 -1 -4 7
-9 0 1 -0.5 1.7
9 0 -1 10.4 5.3
-9 0 1 2.5 3.1
9 0 -1 10.8 6.8
-9 0 1 1 1.7
-8 0 1 1.1 1.4
-8 0 1 1.2 1.6
8 0 -1 7.1 4.4
8 0 -1 0.2 4.8
8 0 -1 0.8 2.2
7 0 -1 6.5 4.9
-7 0 1 2.4 1.5
-7 0 1 0.4 1.5
7 0 -1 1.4 2.1
7 0 -1 2.9 3.8
6 0 -1 -1 4.5
6 0 -1 1.6 4.3
6 0 -1 1.9 2.7
-6 0 1 -1 1.9
5 0 -1 1.3 3.1
5 0 -1 -2.3 2.4
5 0 -1 0.8 1.6
-5 0 1 0.1 1
4 0 -1 0 1.4
-4 0 1 -0.4 0.8
4 0 -1 1.2 2.1
3 0 -1 -1 1.4
2 0 -1 -0.5 1
1 0 -1 -0.5 0.5
1 0 1 -0.2 0.5
-2 0 -1 0.2 0.9
2 0 1 -0.8 1
3 0 1 -2.4 4.3
-3 0 -1 1.5 1.4
-3 0 -1 -0.9 1.3
3 0 1 0.7 1.8
4 0 1 3.3 2.6
4 0 1 -0.4 1.3
4 0 1 -3.3 2.8
-4 0 -1 3.5 1.7
-4 0 -1 4.2 1.6
5 0 1 -0.5 3.4
5 0 1 3.4 3.4
5 0 1 2.8 1.8
5 0 1 4.5 2.9
-5 0 -1 2.6 1.7
-6 0 -1 1.8 2.2
6 0 1 -0.1 2.1
6 0 1 -0.7 4.4
-6 0 -1 3.2 2.2
6 0 1 -0.2 3.5
-6 0 -1 -1.2 1.7
7 0 1 -2.8 4.7
7 0 1 -1 1.7
-7 0 -1 0.1 1.5
7 0 1 2.7 3.9
-7 0 -1 4.4 2.5
-7 0 -1 -1 1.4
8 0 1 7.2 6
-8 0 -1 -0.6 1.7
-8 0 -1 3 2
8 0 1 -4.8 4
-8 0 -1 -1.6 2
8 0 1 -0.7 2.3
9 0 1 5.3 6.9
-9 0 -1 -0.9 2
9 0 1 -2.7 5.2
-9 0 -1 -1.9 2.9
9 0 1 1.2 2.9
-9 0 -1 -2.9 2.1
-10 0 -1 -0.8 2.4
10 0 1 -6.7 7.7
10 0 1 5.5 6.9
-10 0 -1 1.5 2.4
-10 0 -1 1.6 3.4
10 0 1 -1.3 2.7
11 0 1 2.1 7.6
11 0 1 -7.4 9.4
11 0 1 2.3 3.7
-11 0 -1 3.1 2.9
-11 0 -1 5.4 4.3
-11 0 -1 2 3
12 0 1 9.9 10.3
-12 0 -1 1.7 3.2
12 0 1 -4.3 7.1
12 0 1 -4.1 3.3
-12 0 -1 1.8 4
-13 0 -1 2.5 4.2
13 0 1 -9.5 11.1
13 0 1 2.7 8.6
13 0 1 -2.4 3.2
14 0 1 -7.4 12.1
-14 0 -1 -2.8 4.5
14 0 1 -4.7 4.1
14 0 1 5.1 9.3
15 0 1 13.5 11.1
15 0 1 -15.6 13.1
-15 0 -1 0.4 4.7
15 0 1 0.3 4.5
16 0 1 -9.2 14.7
16 0 1 -26 9.3
16 0 1 5.2 6.1
-16 0 -1 3.2 5.9
16 -1 -1 19.2 12.8
16 -1 -1 16.1 7
-16 -1 1 15.7 6.9
16 1 -1 35 14
16 1 -1 19.8 7.2
16 1 -1 38.6 17.8
-16 1 1 23.2 7.5
15 -1 -1 -25.7 11.8
15 -1 -1 -1 4.5
15 -1 -1 0.5 9.4
-15 -1 1 2.7 4.9
-15 1 1 4.3 5.1
15 1 -1 -10.7 9.6
15 1 -1 -4.6 13.1
15 1 -1 -5.8 3.7
14 -1 -1 7.3 12.3
-14 -1 1 24.4 7
14 -1 -1 19.6 10.2
14 -1 -1 10.2 5.4
14 1 -1 41.3 13.2
-14 1 1 4.1 5.6
14 1 -1 8.8 12.6
14 1 -1 8.8 5.4
13 -1 -1 -2.9 9.8
-13 -1 1 4 4.2
13 -1 -1 -0.1 3.9
13 -1 -1 0.2 7.8
13 1 -1 -1 3.6
13 1 -1 2.5 8.5
13 1 -1 16.8 12
-13 1 1 3.6 4.6
-12 -1 1 71.29 8.2
12 -1 -1 68.39 13.2
12 -1 -1 75.59 9.7
-12 -1 1 64.59 5.5
12 1 -1 42.8 7.3
12 1 -1 49.2 11
12 1 -1 66.29 14.1
-11 -1 1 21.7 5.3
11 -1 -1 27.3 10.2
11 -1 -1 24.2 6
11 -1 -1 38.4 9.4
-11 -1 1 19.1 3.5
-11 1 1 17.4 5.6
-11 1 1 24.8 4.7
11 1 -1 30.9 11.4
11 1 -1 17.9 8.6
11 1 -1 15.9 5
10 -1 -1 105.99 10.3
10 -1 -1 137.59 13.8
-10 -1 1 110.49 8.8
10 -1 -1 131.29 13.9
-10 -1 1 112.09 6
10 1 -1 111.09 9.3
-10 1 1 125.39 9.5
10 1 -1 117.09 13.9
10 1 -1 115.99 14.7
-10 1 1 110.79 7.4
9 -1 -1 146.49 12.3
-9 -1 1 127.39 8.7
-9 -1 1 150.68 7.2
9 -1 -1 163.68 13.9
9 -1 -1 147.09 10.1
-9 -1 1 143.89 6.5
9 1 -1 142.59 9.7
-9 1 1 149.79 8
9 1 -1 161.28 15.8
9 1 -1 164.98 15
-8 -1 1 44.3 3.5
-8 -1 1 44.8 3.9
8 -1 -1 53.69 8.1
8 -1 -1 46.9 7.3
-8 -1 1 29 4.4
8 -1 -1 30 5
8 1 -1 47.8 8.9
8 1 -1 34.5 4.9
8 1 -1 39.2 7.7
-8 1 1 35.4 4.3
-7 -1 1 26.1 2.6
-7 -1 1 21.9 3.7
7 -1 -1 20.8 4.9
7 -1 -1 21.9 5.5
7 -1 -1 30.9 4.6
-7 1 1 21.6 3.2
7 1 -1 24.6 6.2
7 1 -1 23 3.8
7 1 -1 22.7 5.6
6 -1 -1 695.33 24.2
6 -1 -1 677.13 23.8
-6 -1 1 670.63 21.1
6 -1 -1 702.93 22.9
-6 -1 1 645.44 18.4
-6 1 1 654.63 20.6
6 1 -1 666.53 22.1
6 1 -1 672.33 25.1
6 1 -1 662.33 26.2
5 -1 -1 564.64 19.6
5 -1 -1 579.74 19.1
5 -1 -1 589.34 17.9
-5 -1 1 566.64 17.5
5 1 -1 530.95 20.7
5 1 -1 562.84 21.9
-5 1 1 542.65 17.4
5 1 -1 569.54 18.5
4 -1 -1 1317.07 37.1
4 -1 -1 1259.47 35.6
4 -1 -1 1267.87 36.4
-4 1 1 1289.17 35.3
4 1 -1 1277.67 35.9
4 1 -1 1275.97 38.1
3 -1 -1 3.7 2.2
3 -1 -1 5.8 1.8
-3 1 1 3.3 1.6
3 1 -1 1.4 2.4
2 -1 -1 72.09 3.7
2 -1 -1 67.99 4.3
-2 1 1 68.69 3.5
2 1 -1 68.69 3.4
1 -1 -1 33 1.9
1 -1 -1 32.7 2.7
1 1 -1 33.1 1.8
-1 1 1 34.7 2.1
0 -1 -1 597.64 18.4
1 -1 1 185.88 6.4
1 -1 1 189.58 6.7
-1 -1 -1 166.18 7.2
1 1 1 175.68 8.7
-1 1 -1 175.18 6.3
-2 -1 -1 1125.49 29.9
2 -1 1 1121.59 30.5
-2 -1 -1 1101.89 29.5
2 -1 1 1102.59 30.6
-2 1 -1 1067.59 30.3
2 1 1 1084.09 29.5
2 1 1 1085.89 33.9
-3 -1 -1 736.93 21.4
3 -1 1 741.63 22.4
3 -1 1 740.83 22.5
-3 -1 -1 771.22 21.6
3 1 1 794.72 24.5
-3 1 -1 758.02 22.2
3 1 1 775.12 21.9
3 1 1 760.62 26.5
4 -1 1 49.5 4.7
4 -1 1 50.49 4.5
-4 -1 -1 44.2 3.3
4 -1 1 48.4 4.6
-4 -1 -1 49.9 3.6
-4 1 -1 46.3 3.7
4 1 1 62.69 8.1
4 1 1 49.7 3.9
4 1 1 48.4 5.6
4 1 1 58.09 6.8
5 -1 1 92.29 7.2
-5 -1 -1 92.09 5.1
-5 -1 -1 84.69 5.3
5 -1 1 87.09 6.3
5 -1 1 94.89 5.9
5 1 1 93.29 10.3
-5 1 -1 94.29 6.1
5 1 1 91.19 9.3
5 1 1 88.79 5.9
5 1 1 71.99 7.8
-5 1 -1 92.39 5.6
6 -1 1 215.78 11.9
-6 -1 -1 216.28 8.8
-6 -1 -1 196.48 9.3
6 -1 1 224.18 10.8
6 -1 1 213.18 9.4
6 -1 1 197.28 12.3
6 1 1 219.38 13.3
6 1 1 208.18 10.1
6 1 1 224.68 14.4
6 1 1 214.38 14.5
-6 1 -1 211.98 10.1
-6 1 -1 214.28 9.5
7 -1 1 26.2 4.3
-7 -1 -1 32.6 4.5
7 -1 1 27.3 5.3
-7 -1 -1 30.9 3.7
-7 -1 -1 26.4 3.3
7 -1 1 25.8 3.7
7 -1 1 21.5 6
7 1 1 37.9 7.7
7 1 1 21.9 3.8
7 1 1 28.1 6.4
-7 1 -1 24.6 3.7
7 1 1 23.7 7.1
-7 1 -1 16.5 3.7
-8 -1 -1 46.5 4.5
8 -1 1 33.6 5.4
8 -1 1 55.19 7.9
-8 -1 -1 47.8 5.7
-8 -1 -1 46.2 5.2
8 -1 1 41.9 7.9
-8 1 -1 42.9 5.8
-8 1 -1 35.3 4.6
8 1 1 47.9 9.4
8 1 1 33.7 4.9
8 1 1 44.8 8.6
9 -1 1 9.3 5.7
9 -1 1 7.7 7.7
-9 -1 -1 19 3.4
-9 -1 -1 15.6 4.2
9 -1 1 9.4 3.7
-9 -1 -1 8.6 3.2
9 1 1 22.6 8.9
9 1 1 11.6 4
9 1 1 19.5 7.3
-9 1 -1 14.2 3.6
-9 1 -1 16 4.6
-10 -1 -1 4.3 2.8
10 -1 1 0.9 3.2
-10 -1 -1 2.5 3.7
10 -1 1 5.5 6.3
10 -1 1 -5.2 8
-10 -1 -1 4.4 3
-10 1 -1 8.8 4.4
10 1 1 -1.5 8.6
-10 1 -1 6.7 3.2
10 1 1 0.5 3
10 1 1 5.9 8
-11 -1 -1 45.6 5.3
11 -1 1 37.2 11.4
-11 -1 -1 54.59 7.5
11 -1 1 54.99 11
11 -1 1 38.1 7.3
-11 1 -1 48.9 6.5
11 1 1 37.8 12.9
11 1 1 41.6 6.8
11 1 1 49.3 11.2
-11 1 -1 53.19 7.6
12 -1 1 104.59 11.5
12 -1 1 83.19 15
-12 -1 -1 91.69 9.5
12 -1 1 85.39 13.2
-12 -1 -1 100.79 7.4
12 1 1 98.79 11
12 1 1 94.19 17.3
-12 1 -1 115.89 11.4
-12 1 -1 95.59 9.1
12 1 1 82.49 13.9
13 -1 1 -5.1 11.5
-13 -1 -1 6.1 4.9
-13 -1 -1 9.1 3.6
13 -1 1 16.8 5.7
13 -1 1 7.6 8.9
13 1 1 -3.6 11.3
-13 1 -1 8.1 4.8
13 1 1 2.4 9.2
-13 1 -1 7.8 3.9
13 1 1 11.7 5.4
14 -1 1 16.3 10.4
14 -1 1 21.9 7.2
-14 -1 -1 18.5 4.6
-14 -1 -1 15.9 6.2
14 -1 1 0.5 12.6
14 1 1 21.2 6.9
-14 1 -1 13.7 6.5
14 1 1 30.3 11.9
14 1 1 8.9 13.8
-15 -1 -1 1.1 5
15 -1 1 -6.6 4.4
15 -1 1 1.4 10.5
15 1 1 -3.5 9.2
-15 1 -1 2.4 5.3
15 1 1 -0.8 14.2
15 1 1 7.2 5.7
-16 -1 -1 1.6 6.1
16 -1 1 5.9 5.8
16 -1 1 1.6 11.5
16 1 1 -8.3 16
16 1 1 15.1 7
16 1 1 -11.1 11.3
-16 1 -1 -0.4 5.3
16 -2 -1 87.39 12.9
16 -2 -1 83.99 16.5
16 2 -1 86.59 22.2
16 2 -1 114.99 14
-16 2 1 106.29 13.1
16 2 -1 63.09 17
15 -2 -1 55.39 14.2
15 -2 -1 67.69 11
15 2 -1 70.49 19
15 2 -1 50.99 14.6
15 2 -1 57.49 9.6
-15 2 1 67.89 10.7
14 -2 -1 2.7 5
14 -2 -1 -0.5 8.2
14 2 -1 -14.2 11.8
14 2 -1 -4 9.2
-14 2 1 6.3 4.2
14 2 -1 -3.8 4.1
-14 2 1 -5.4 4.4
13 -2 -1 93.29 13.9
13 -2 -1 79.49 10.7
-13 -2 1 86.09 9.7
13 2 -1 63.39 9.1
-13 2 1 65.59 9.2
13 2 -1 92.39 15
13 2 -1 120.19 19.7
-13 2 1 90.29 9.2
-12 -2 1 256.77 13.6
12 -2 -1 228.98 18.1
12 -2 -1 241.88 15.4
-12 2 1 208.68 14
12 2 -1 222.48 22.4
12 2 -1 178.18 20
-12 2 1 243.58 12.9
12 2 -1 222.58 14.1
11 -2 -1 0.9 3.7
-11 -2 1 2.2 3.7
11 -2 -1 -0.4 7.6
11 -2 -1 1.5 6.2
11 2 -1 -7.5 9.3
-11 2 1 -0.8 2.8
11 2 -1 8.4 7.9
-11 2 1 -0.9 3.5
11 2 -1 -3.7 2.7
10 -2 -1 192.08 15.4
10 -2 -1 184.18 16.5
-10 -2 1 198.78 10.9
10 -2 -1 189.68 12.7
-10 -2 1 184.98 8.2
10 2 -1 189.08 17.9
10 2 -1 199.78 19.7
10 2 -1 203.28 12.2
-10 2 1 199.38 10.9
-9 -2 1 22.2 4.3
9 -2 -1 21.5 4.9
9 -2 -1 20 6.7
-9 -2 1 17.3 3.1
9 -2 -1 27.7 6.5
9 2 -1 17.1 7.5
9 2 -1 24.3 8.7
9 2 -1 18.9 4.4
-9 2 1 24 4.4
8 -2 -1 113.09 11.2
-8 -2 1 97.29 5
8 -2 -1 127.39 8.9
8 -2 -1 105.29 10
-8 -2 1 108.89 6.9
-8 -2 1 89.39 5.2
8 -2 -1 113.79 10.4
8 2 -1 108.29 7.8
-8 2 1 106.09 7.1
8 2 -1 96.89 10.7
8 2 -1 102.29 13
7 -2 -1 335.37 14.8
7 -2 -1 348.97 15.7
-7 -2 1 337.47 10.9
7 -2 -1 343.47 14
7 -2 -1 343.67 15.8
-7 -2 1 331.17 12.6
7 2 -1 334.47 13.9
7 2 -1 331.97 19.6
7 2 -1 374.46 18.4
-7 2 1 340.27 13.5
6 -2 -1 607.44 22
6 -2 -1 640.44 21.3
-6 -2 1 600.04 17.5
-6 -2 1 621.44 19.2
6 -2 -1 592.64 21.4
6 2 -1 610.54 20.5
-6 2 1 618.24 20.5
6 2 -1 663.63 26.3
6 2 -1 622.24 24.5
-5 -2 1 95.29 4.5
-5 -2 1 104.69 5.4
5 -2 -1 102.59 7.1
5 -2 -1 104.19 7.6
5 -2 -1 105.79 7.4
-5 2 1 100.59 6.3
5 2 -1 102.09 9.3
5 2 -1 101.89 9.7
5 2 -1 103.19 6.1
4 -2 -1 6.6 2.6
4 -2 -1 3.8 2.1
-4 -2 1 4.6 1.3
4 -2 -1 2.5 1.6
-4 -2 1 2.2 1.3
-4 2 1 1.9 1.6
4 2 -1 1.5 1.4
4 2 -1 3.8 3.7
4 2 -1 -2.3 2.7
3 -2 -1 1152.38 34.1
-3 -2 1 1119.19 31.3
3 -2 -1 1220.68 32.9
3 2 -1 1166.68 34.7
-3 2 1 1167.18 33
3 2 -1 1141.09 31.6
3 2 -1 1113.69 38.3
2 -2 -1 0.3 2.3
2 -2 -1 -0.2 1.2
-2 -2 1 4.7 1.8
-2 2 1 0.4 1.3
2 2 -1 -0.5 3.6
-2 2 1 4 4.8
2 2 -1 1.8 0.9
1 -2 -1 1784.72 45.7
1 -2 -1 1691.93 48.4
-1 -2 1 1685.83 47.1
-1 2 1 1837.82 50.39
1 2 -1 1792.42 51.19
-1 2 1 1686.43 47
1 2 -1 1733.13 46.2
0 -2 1 823.52 24.8
0 -2 -1 860.51 25.3
0 2 -1 811.42 23.7
0 2 1 828.42 23.7
0 2 -1 869.21 27.1
0 2 1 858.81 28.2
0 2 1 834.52 23.9
1 -2 1 3977.6 101.39
-1 -2 -1 3877.61 102.69
1 -2 1 3966.7 103.19
-1 2 -1 3919.31 102.19
1 2 1 3962.2 106.79
1 2 1 3796.62 101.19
2 -2 1 1294.87 37.5
-2 -2 -1 1327.37 34.8
2 -2 1 1313.97 36.1
-2 -2 -1 1294.27 36.5
2 2 1 1332.17 34.4
-2 2 -1 1294.27 36.7
2 2 1 1263.27 35.1
2 2 1 1381.36 38.4
2 2 1 1240.68 41.2
-3 -2 -1 2890.21 77.99
3 -2 1 2831.12 79.49
3 -2 1 2896.11 78.49
-3 -2 -1 3028 76.89
3 2 1 2979.7 84.99
3 2 1 2926.41 76.99
3 2 1 3055.19 84.99
3 2 1 3060.69 81.19
-3 2 -1 2914.81 78.79
4 -2 1 20.7 3.6
4 -2 1 20.1 3.7
4 -2 1 23.4 3.4
-4 2 -1 26.8 3.6
4 2 1 23.4 2.8
-5 -2 -1 3727.33 98.39
-5 -2 -1 3728.03 98.29
5 -2 1 3781.02 100.19
5 -2 1 3671.73 100.59
5 -2 1 3772.72 100.79
5 2 1 3780.02 108.59
5 2 1 3788.02 103.89
-5 2 -1 3753.22 100.09
5 2 1 3741.13 104.89
5 2 1 3729.43 99.09
-6 -2 -1 10.5 2.6
6 -2 1 6.3 3
-6 -2 -1 10.5 2.6
-6 -2 -1 10.4 2.8
6 -2 1 7.2 3.4
6 -2 1 6.6 2.7
6 2 1 1.9 5.3
6 2 1 7.1 2.4
6 2 1 5 4.4
6 2 1 4.3 6.1
-6 2 -1 3.6 2.3
7 -2 1 76.99 7.8
7 -2 1 85.19 7.1
-7 -2 -1 78.69 6
7 -2 1 87.29 8.8
7 -2 1 82.49 6.9
-7 2 -1 78.39 6.2
7 2 1 84.49 11.2
7 2 1 70.49 9.8
7 2 1 107.89 13.7
7 2 1 79.49 6.1
8 -2 1 106.29 8.6
-8 -2 -1 92.09 6
-8 -2 -1 102.89 7.1
8 -2 1 105.19 10.7
8 -2 1 84.99 9.1
8 -2 1 88.89 7.3
-8 -2 -1 97.99 6.5
-8 2 -1 102.09 7.4
8 2 1 105.89 12.8
8 2 1 77.49 11
8 2 1 86.49 7.2
-8 2 -1 102.19 8.1
8 2 1 94.09 13.8
-9 -2 -1 5.5 3.1
9 -2 1 1.6 3.4
9 -2 1 19 7.8
-9 -2 -1 7.8 3.2
9 -2 1 -4.1 4.6
-9 -2 -1 7.8 2.9
-9 2 -1 4.3 2.9
9 2 1 -3.8 6.2
9 2 1 4 2.9
-9 2 -1 -0.2 3.1
9 2 1 4.7 8.7
-10 -2 -1 371.56 16.3
-10 -2 -1 347.97 13.6
10 -2 1 337.87 18.1
10 -2 1 373.36 20.8
10 -2 1 359.26 22.5
-10 2 -1 353.66 16
-10 2 -1 377.16 17.9
10 2 1 362.86 23.7
10 2 1 378.26 17.4
10 2 1 310.27 26.3
-11 -2 -1 14.6 3.9
11 -2 1 5.2 6.8
11 -2 1 7.1 4.1
11 -2 1 -11.9 8.2
-11 -2 -1 11 4.5
11 2 1 11.2 4.5
-11 2 -1 7.1 4.3
-11 2 -1 6.5 3.7
11 2 1 6.4 10.4
11 2 1 3.4 7.5
12 -2 1 127.59 15.3
-12 -2 -1 123.09 8
-12 -2 -1 122.59 11.4
12 -2 1 98.69 11
12 2 1 120.09 18.7
-12 2 -1 117.99 9.7
12 2 1 101.09 10.7
-12 2 -1 115.09 12.2
12 2 1 107.79 16
13 -2 1 24.5 6.6
-13 -2 -1 40.8 7.5
13 -2 1 25.4 10.3
13 2 1 56.79 14
13 2 1 47.2 15.8
-13 2 -1 54.89 7.7
13 2 1 32.6 7.3
-13 2 -1 45.6 8.5
-14 -2 -1 140.19 13.5
14 -2 1 92.39 11.7
14 -2 1 119.39 17.2
14 2 1 98.19 17.2
14 2 1 122.49 13.6
14 2 1 74.59 19.1
-14 2 -1 122.89 13
-14 2 -1 124.89 11.9
15 -2 1 30 8.4
15 -2 1 29.9 12.2
15 2 1 10.6 16.5
15 2 1 21.5 12.8
15 2 1 36.6 8.6
-15 2 -1 50.99 9.6
16 2 1 164.88 23.1
16 2 1 169.18 27.1
15 -3 -1 1.6 5.6
15 3 -1 -12.2 14.3
15 3 -1 3.3 10.9
-15 3 1 1.8 4.8
15 3 -1 3 4.5
-15 3 1 -0.2 4.3
14 -3 -1 88.19 14.7
14 -3 -1 91.29 12.7
-14 3 1 79.29 9.7
-14 3 1 116.49 13.5
14 3 -1 44.6 17.4
14 3 -1 58.79 9.1
14 3 -1 71.59 15.8
13 -3 -1 4 4.9
13 -3 -1 3.5 7.6
-13 3 1 2.3 3.7
13 3 -1 -3 9
13 3 -1 -16.7 10.7
-13 3 1 4.1 4.6
13 3 -1 1.2 3.4
12 -3 -1 41.7 9.6
12 -3 -1 33.3 7.2
-12 3 1 38.8 7.3
12 3 -1 38.3 6.9
-12 3 1 39.5 6.6
12 3 -1 28.1 11.4
12 3 -1 35.9 14.1
11 -3 -1 3.6 4
11 -3 -1 6.2 6.3
11 3 -1 4 8.3
11 3 -1 -6.3 9.4
11 3 -1 3.5 3.3
-11 3 1 5.3 3.5
10 -3 -1 38.1 6.7
10 -3 -1 52.69 9
-10 -3 1 47.3 7.3
10 3 -1 44 6.4
10 3 -1 47 12.6
10 3 -1 37.3 10.8
-10 3 1 43.4 6.4
9 -3 -1 11.8 5.5
9 -3 -1 14.5 4.6
-9 -3 1 13.7 3.7
-9 -3 1 9.7 3.2
9 3 -1 11 3.5
-9 3 1 10.6 3.7
9 3 -1 5.3 9.2
9 3 -1 22.4 8.7
8 -3 -1 878.41 29.3
-8 -3 1 804.72 25
8 -3 -1 840.72 29.5
8 -3 -1 815.62 29.5
-8 -3 1 825.22 24.7
-8 -3 1 828.32 25.9
8 3 -1 893.91 36.8
8 3 -1 767.52 33.5
8 3 -1 796.02 27.3
-8 3 1 862.01 28.2
-7 -3 1 167.78 7.7
7 -3 -1 177.48 10.8
7 -3 -1 192.98 11
-7 -3 1 166.48 7.7
7 -3 -1 180.78 10.4
-7 -3 1 184.38 8
7 3 -1 143.09 8.5
7 3 -1 184.18 15.8
7 3 -1 168.18 14.1
-7 3 1 180.58 9.7
-6 -3 1 -0.3 2.4
6 -3 -1 -2.9 2.4
6 -3 -1 3.2 2.5
-6 -3 1 -0.4 1.4
6 -3 -1 -1.9 2.4
-6 -3 1 1.3 1.8
6 3 -1 -1.8 5
6 3 -1 2.2 1.8
-6 3 1 1.6 2.1
6 3 -1 0.1 4.5
5 -3 -1 391.16 16.4
5 -3 -1 387.66 14.8
-5 -3 1 378.26 11.9
-5 -3 1 374.86 13.2
5 -3 -1 376.76 14.8
-5 -3 1 369.56 13
5 3 -1 400.66 13.4
5 3 -1 345.67 18.9
-5 3 1 361.16 14.8
5 3 -1 401.46 18.1
-4 -3 1 329.37 12.3
4 -3 -1 348.97 12.8
4 -3 -1 343.37 13.1
4 -3 -1 338.37 14.9
-4 -3 1 329.17 12.8
-4 3 1 324.37 13.9
4 3 -1 335.37 11.5
4 3 -1 346.07 15.9
4 3 -1 318.17 19.1
-4 3 1 343.27 13.5
4 3 -1 323.17 16.9
3 -3 -1 0.6 3
3 -3 -1 1.6 1.9
-3 -3 1 1.3 2.4
3 3 -1 0 4.2
3 3 -1 1.8 3.7
3 3 -1 1.2 1.4
-3 3 1 2 2.2
-3 3 1 4.5 4
3 3 -1 1.2 5.1
2 -3 -1 37.2 5.3
-2 -3 1 43.2 4.5
2 -3 -1 33.2 3.1
2 3 -1 37.3 3
2 3 -1 36.9 7.3
-2 3 1 34.9 5.9
2 3 -1 35.3 5
-2 3 1 40 4.4
-1 -3 1 6.1 2.4
1 -3 -1 2.3 2.4
1 -3 -1 4.4 1.1
-1 3 1 4.1 1.8
1 3 -1 2.4 1.5
-1 3 1 4.4 4.1
1 3 -1 2.3 4
0 -3 1 330.37 10.3
0 -3 -1 308.37 13.1
0 -3 1 326.27 13
0 3 -1 327.87 14.9
0 3 1 321.47 11.6
0 3 1 312.67 11.4
0 3 1 308.67 15.6
0 3 -1 313.97 11.5
1 -3 1 238.08 11.1
1 -3 1 243.08 8.8
-1 3 -1 260.67 12.1
-1 3 -1 251.57 10.1
2 -3 1 38 3.7
2 -3 1 27.5 4.4
-2 -3 -1 37.7 5.1
-2 -3 -1 35.5 4.7
-2 -3 -1 34.1 2.5
-2 3 -1 39.8 5
-2 3 -1 40.5 4.6
2 3 1 35.3 3.4
2 3 1 36.4 8.1
3 -3 1 141.29 7.6
3 -3 1 142.39 9.4
-3 -3 -1 146.49 5.8
-3 -3 -1 127.29 8
-3 -3 -1 132.59 8.3
-3 3 -1 138.59 8
3 3 1 160.08 6.4
3 3 1 144.19 5.6
3 3 1 174.48 16.3
3 3 1 143.79 11.3
3 3 1 137.79 10.4
-4 -3 -1 2689.53 74.89
-4 -3 -1 2784.62 73.09
-4 -3 -1 2787.12 75.59
4 -3 1 2831.02 77.89
4 -3 1 2707.13 75.69
4 3 1 2777.22 80.49
-4 3 -1 2740.23 76.29
4 3 1 2791.12 85.39
4 3 1 2830.82 73.39
4 3 1 2917.41 79.79
-5 -3 -1 443.06 16
5 -3 1 463.45 18.3
-5 -3 -1 433.76 15.6
-5 -3 -1 454.65 14.4
5 -3 1 441.16 15.8
5 -3 1 440.36 16.9
-5 3 -1 478.25 17.3
5 3 1 453.55 24.5
5 3 1 415.26 19.9
5 3 1 399.36 20.7
5 3 1 432.46 14.8
-6 -3 -1 486.55 17.3
6 -3 1 499.25 18.9
6 -3 1 500.95 18.3
-6 -3 -1 471.95 16.8
-6 -3 -1 483.25 16
6 -3 1 485.65 19.7
6 3 1 479.45 16.8
6 3 1 478.15 22.2
-6 3 -1 474.95 18.4
6 3 1 489.95 24.1
6 3 1 504.25 26.9
-7 -3 -1 99.59 7
-7 -3 -1 110.09 6.6
7 -3 1 94.09 8
7 -3 1 100.19 8.5
-7 -3 -1 102.69 6.8
7 -3 1 118.59 9.1
7 3 1 83.39 11.5
7 3 1 90.39 14
7 3 1 92.69 12.7
7 3 1 110.29 7.1
-7 3 -1 102.79 7.7
8 -3 1 11.4 4.3
-8 -3 -1 6.7 3.3
8 -3 1 16.4 4.9
8 -3 1 7.9 3.7
-8 -3 -1 5.7 2.9
-8 -3 -1 7.6 3.3
8 3 1 13.7 8.8
8 3 1 10.9 3.3
8 3 1 14.1 9
-8 3 -1 7.8 3.5
8 3 1 22.8 8.5
-8 3 -1 6.8 3.6
-9 -3 -1 19.4 4.4
9 -3 1 21 6.5
-9 -3 -1 32.5 5
9 -3 1 34 6.6
-9 -3 -1 23 5
9 3 1 31.9 12.2
9 3 1 38 10.4
-9 3 -1 27.9 6.1
9 3 1 24.9 4.9
-9 3 -1 24.3 5.2
10 -3 1 1.7 4.1
-10 -3 -1 5.2 3.7
-10 -3 -1 -0.6 3.3
10 -3 1 -7.6 5.5
10 3 1 -1.3 2.9
-10 3 -1 -1.2 3.9
-10 3 -1 3.2 3.6
10 3 1 5.7 10.9
10 3 1 -4.2 6.8
-11 -3 -1 -1.5 3.1
11 -3 1 0.5 3.6
11 -3 1 11.1 6.8
-11 3 -1 -1 3.3
11 3 1 -4.4 2.8
-11 3 -1 3.4 3.7
11 3 1 0.1 10.7
11 3 1 -6.3 7.5
12 -3 1 59.99 9.5
12 -3 1 49.99 10.8
12 3 1 39.9 12
-12 3 -1 73.09 10.6
12 3 1 43.4 7.4
-12 3 -1 62.49 8.3
12 3 1 55.99 15.9
13 -3 1 44.5 8.9
-13 3 -1 71.19 9.1
-13 3 -1 39.7 8.6
13 3 1 39.9 14
13 3 1 42.5 7.9
13 3 1 44.7 15.7
14 -3 1 9.6 5.9
14 3 1 2 10.5
-14 3 -1 -1.2 3.9
-14 3 -1 3.6 4.7
14 3 1 9.3 14.3
14 3 1 2 4.6
15 -3 1 -4.1 5
-15 3 -1 11.6 6.4
15 3 1 5 5.4
-15 3 -1 10.6 6.1
15 3 1 -1.3 15
15 3 1 19.6 12.3
15 -4 -1 30.2 8.7
15 4 -1 49 18.1
-15 4 1 44.9 8.6
-15 4 1 47.4 10.4
15 4 -1 55.09 16
14 -4 -1 -0.1 5.2
-14 4 1 -2.2 4
-14 4 1 -7.2 4.2
14 4 -1 -5.2 13.6
14 4 -1 -1.3 11.2
13 -4 -1 -6.6 4.6
13 4 -1 -8.1 13
13 4 -1 -10.5 9.8
-13 4 1 4.9 4.7
-13 4 1 0.2 4.5
12 -4 -1 14.7 5.9
12 4 -1 14.5 13.1
-12 4 1 9.4 5.3
12 4 -1 24.5 11
-12 4 1 20 5.6
11 -4 -1 -5 3.5
11 4 -1 -1.1 11.2
11 4 -1 1.2 8.4
-11 4 1 1.7 3.9
10 -4 -1 133.19 11.4
10 -4 -1 152.98 16.9
-10 -4 1 138.09 10.2
-10 4 1 127.79 10.1
10 4 -1 110.99 15.4
10 4 -1 136.39 18
10 4 -1 145.69 10.1
9 -4 -1 64.49 8.6
-9 -4 1 73.39 6.9
9 -4 -1 49.4 8
9 4 -1 52.59 6.6
9 4 -1 51.09 11.5
-9 4 1 69.89 8.3
9 4 -1 65.99 14.6
8 -4 -1 -1.3 3.1
-8 -4 1 5.3 3.5
8 -4 -1 6.2 4.5
8 -4 -1 4.3 4.8
-8 -4 1 2.5 3.3
8 4 -1 11.9 9.8
8 4 -1 0.3 2.4
8 4 -1 -3.3 6.8
-8 4 1 1.8 3.4
-7 -4 1 84.29 7.3
-7 -4 1 92.19 7
7 -4 -1 78.79 9.4
7 -4 -1 81.89 8
7 -4 -1 80.99 8.1
7 4 -1 79.19 6.2
-7 4 1 78.99 8.1
7 4 -1 84.39 11.6
7 4 -1 87.19 13.3
6 -4 -1 210.18 13.2
6 -4 -1 248.48 12
-6 -4 1 226.68 10.8
6 -4 -1 233.98 13.3
6 -4 -1 223.08 11.3
-6 -4 1 236.88 11
6 4 -1 245.78 17.9
6 4 -1 222.98 9.9
-6 4 1 229.48 11.8
6 4 -1 218.58 16.5
-5 -4 1 156.88 8.7
-5 -4 1 141.19 8.6
5 -4 -1 153.78 10.7
5 -4 -1 175.28 9.2
5 -4 -1 147.99 10.7
5 -4 -1 141.49 8.2
5 4 -1 146.49 6.9
-5 4 1 142.49 9
5 4 -1 172.38 14.2
5 4 -1 164.98 18
5 4 -1 159.48 13.1
-5 4 1 142.39 8.6
4 -4 -1 491.95 20.4
4 -4 -1 464.75 20.6
4 -4 -1 508.55 17.7
-4 -4 1 505.55 18.7
4 -4 -1 509.05 17.2
-4 -4 1 488.95 18.1
-4 4 1 537.35 19.2
4 4 -1 510.85 22.6
-4 4 1 530.95 19.1
4 4 -1 510.05 21.6
4 4 -1 494.95 26.3
4 4 -1 494.15 15.5
-3 -4 1 33.6 5.1
-3 -4 1 34.8 5.1
3 -4 -1 52.09 7.1
3 -4 -1 36.9 3.9
3 -4 -1 35.9 5.8
3 4 -1 39.8 6.3
-3 4 1 43.1 5.2
-3 4 1 44.3 6.6
3 4 -1 37 6.9
3 4 -1 39.1 3.7
3 4 -1 35.5 8.5
2 -4 -1 206.08 12.4
2 -4 -1 192.08 11.7
2 -4 -1 220.98 8.4
-2 -4 1 220.88 11.1
-2 -4 1 201.38 10.7
-2 4 1 203.58 10.1
-2 4 1 214.88 13.2
2 4 -1 211.68 15.2
2 4 -1 200.98 8.6
2 4 -1 228.98 12.6
1 -4 -1 355.66 16.1
1 -4 -1 366.66 15.8
-1 -4 1 342.97 14.9
1 -4 -1 351.56 10.9
-1 -4 1 317.17 14.7
-1 -4 1 340.87 10.8
1 4 -1 296.27 17.9
-1 4 1 332.17 17.5
1 4 -1 359.06 12.9
-1 4 1 362.56 13.9
1 4 -1 356.66 13.1
0 -4 1 29 5.5
0 -4 -1 21.5 4.9
0 -4 1 17.9 4.4
0 -4 1 18.7 2.5
0 -4 -1 23.8 5.1
0 4 1 26 3.8
0 4 -1 24.1 3.7
0 4 1 7.8 6.2
0 4 -1 28.9 6.8
0 4 1 19.5 3.4
1 -4 1 74.49 8.1
1 -4 1 70.29 4.7
-1 -4 -1 86.99 8.8
-1 -4 -1 76.69 7.7
1 -4 1 60.29 7.2
1 4 1 75.09 10.8
-1 4 -1 70.39 8.7
1 4 1 73.59 5.2
-1 4 -1 68.19 5.6
-2 -4 -1 124.99 8.9
-2 -4 -1 115.79 8.6
2 4 1 109.09 10.2
2 4 1 106.79 6.1
2 4 1 153.78 15.8
-3 -4 -1 29.6 5.7
-3 -4 -1 24.8 4.6
3 -4 1 29.3 5.7
3 -4 1 27.2 3.6
3 -4 1 21.2 5
-3 -4 -1 35.4 2.9
3 4 1 13.9 7.1
3 4 1 20.2 6.4
3 4 1 26.8 3.3
-3 4 -1 31.8 4.6
-4 -4 -1 12.8 3.8
4 -4 1 10.5 4.2
4 -4 1 11.9 4.4
-4 -4 -1 20.3 4.8
-4 -4 -1 10.8 2
4 -4 1 12.5 3.1
4 4 1 13 2.4
4 4 1 6.3 7.2
4 4 1 15.5 7
4 4 1 12.7 1.9
-4 4 -1 13.1 3.5
5 -4 1 8.5 3.4
-5 -4 -1 7.7 3.4
5 -4 1 6 4
5 -4 1 9.3 2.8
-5 -4 -1 5.3 1.8
5 -4 1 7.3 4.5
-5 -4 -1 8.7 3.5
5 4 1 16.2 6.3
5 4 1 5.2 1.8
-5 4 -1 9.6 3.5
5 4 1 -0.3 6.4
5 4 1 15.7 7.5
-6 -4 -1 17.8 4.3
6 -4 1 29.2 6
6 -4 1 23.9 4.7
6 -4 1 19.7 5.8
-6 -4 -1 25.5 4.9
6 -4 1 28.9 4.5
-6 -4 -1 29.6 3.5
6 4 1 18.9 8.5
-6 4 -1 16.8 4.2
6 4 1 30.3 11.3
6 4 1 25.8 3.4
6 4 1 21.3 7.6
7 -4 1 80.99 8.5
-7 -4 -1 109.69 8.9
-7 -4 -1 96.89 8.8
7 -4 1 100.19 10.7
7 -4 1 93.89 9.5
7 -4 1 82.19 9.4
7 4 1 93.39 6.5
7 4 1 95.69 12.5
7 4 1 86.99 15.4
-7 4 -1 96.59 8.1
7 4 1 94.79 14.3
8 -4 1 25.5 6.5
-8 -4 -1 22.8 5.2
-8 -4 -1 33.6 5.5
8 -4 1 30.2 6
8 4 1 17.8 9.5
8 4 1 16.8 9.9
8 4 1 21.3 10.9
-8 4 -1 13.8 4.5
8 4 1 23 4.5
9 -4 1 38.9 6.9
-9 -4 -1 39 6.1
-9 4 -1 39 6.5
9 4 1 45.5 14.2
9 4 1 44.8 11.5
-9 4 -1 42.8 7
9 4 1 36.1 6.6
10 -4 1 78.69 9.7
-10 -4 -1 101.89 8.8
-10 4 -1 119.39 9.6
10 4 1 96.49 14.6
-10 4 -1 95.89 10.5
10 4 1 73.39 15.4
-11 -4 -1 2.9 3.6
11 -4 1 6.3 4.7
11 4 1 -7.8 7.1
-11 4 -1 1.8 4.2
-11 4 -1 2.9 3.4
11 4 1 15.9 12.6
12 -4 1 13.6 5.8
-12 4 -1 13 4.9
12 4 1 5 12.4
-12 4 -1 6.8 4.9
12 4 1 3.7 9.8
13 -4 1 11.3 6.5
-13 4 -1 3.7 4.8
13 4 1 6.3 14.6
-13 4 -1 7.5 5.8
13 4 1 6.4 10.8
14 -4 1 15.6 7.1
14 4 1 12.7 15.7
-14 4 -1 18.5 6.4
14 4 1 -3.2 10.4
-14 4 -1 24.8 7.5
15 4 1 16.5 14
15 4 1 3.8 16.7
14 -5 -1 45.9 9.8
-14 5 1 37 7.9
14 5 -1 37.5 18.8
-14 5 1 41 9.2
14 5 -1 25.7 14.1
13 -5 -1 -0.8 5.5
13 5 -1 3.6 14.1
13 5 -1 4.2 10.5
-13 5 1 0.8 4.1
-13 5 1 0.9 3.9
12 -5 -1 64.99 10.3
12 5 -1 101.29 20.2
-12 5 1 110.29 12.9
-12 5 1 103.29 11.4
12 5 -1 72.69 16.4
11 -5 -1 -0.9 4.2
11 5 -1 -4.3 8.7
11 5 -1 -4.2 11.7
-11 5 1 -0.8 3.2
10 -5 -1 30.6 6.6
-10 -5 1 29.2 5.9
10 5 -1 39.2 14.2
-10 5 1 30.4 6.6
10 5 -1 19.4 10.2
-9 -5 1 2.9 4.2
9 -5 -1 7.7 4.3
9 5 -1 4.5 8.1
9 5 -1 -16.5 9.2
-9 5 1 7.4 4.1
-8 -5 1 27.5 6.3
8 -5 -1 34.3 8.1
8 -5 -1 25.5 5.7
-8 -5 1 26.4 5.5
8 5 -1 30.7 10.1
-8 5 1 42.2 7
8 5 -1 24 11.6
-7 -5 1 193.58 11.7
7 -5 -1 201.38 15
7 -5 -1 217.88 12.6
-7 -5 1 180.98 11.8
7 -5 -1 256.17 24
-7 5 1 200.38 12.6
7 5 -1 260.27 23.2
7 5 -1 187.78 17.7
6 -5 -1 34.4 7.3
6 -5 -1 25.8 6.8
-6 -5 1 31.4 5.8
6 -5 -1 22.9 4.9
-6 -5 1 33.9 6.2
6 5 -1 28.7 8.4
-6 5 1 34.7 5.9
6 5 -1 53.59 11.7
-5 -5 1 6.9 4.6
-5 -5 1 4.7 4
5 -5 -1 8.4 4.7
5 -5 -1 3.4 2.5
5 -5 -1 1.6 4.3
5 5 -1 4.9 7.4
-5 5 1 2.2 3
5 5 -1 -8 5.7
-4 -5 1 95.39 9.2
-4 -5 1 92.09 8.9
4 -5 -1 92.99 10.5
4 -5 -1 92.49 6.6
4 -5 -1 93.29 10.3
-4 5 1 88.39 7.5
4 5 -1 91.49 15.2
4 5 -1 89.99 11.4
-4 5 1 105.19 10.3
3 -5 -1 51.39 8.5
-3 -5 1 39.6 6.4
3 -5 -1 42.9 7.5
-3 -5 1 41.4 6.5
3 -5 -1 36.3 4.1
-3 5 1 39.2 7.7
3 5 -1 38.6 4.3
3 5 -1 47.4 11.2
3 5 -1 49.99 8.8
-3 5 1 44 6
2 -5 -1 129.39 12.6
2 -5 -1 101.09 5.4
-2 -5 1 93.29 9.1
-2 -5 1 100.59 9.8
2 -5 -1 89.49 9.8
-2 5 1 95.79 7.4
2 5 -1 91.49 6.1
-2 5 1 92.79 11.1
2 5 -1 115.99 14.7
2 5 -1 119.99 10.7
-1 -5 1 0.5 3.5
-1 -5 1 -4.6 1.5
1 -5 -1 1.2 3.7
1 -5 -1 -0.4 1.2
1 -5 -1 4.5 5.2
-1 -5 1 -5.7 3
1 5 -1 1.8 4.8
1 5 -1 0.9 2.1
-1 5 1 2.7 2.4
1 5 -1 0 5.2
-1 5 1 6.3 5.6
1 5 -1 2.6 2.1
-1 5 1 -1 2
0 -5 -1 -1.8 4.6
0 -5 1 -2.4 1.4
0 -5 1 6 4
0 -5 -1 2.4 3.8
0 -5 1 0.9 3.8
0 5 1 -2.1 5.3
0 5 -1 -1.6 1.9
0 5 1 -1.7 2
0 5 1 -2.6 1.8
0 5 -1 13.4 6.2
-1 -5 -1 97.49 10.1
1 -5 1 104.99 5.7
1 -5 1 117.79 10.9
1 -5 1 96.49 10.1
-1 -5 -1 103.89 10.7
1 5 1 124.19 10.6
-1 5 -1 102.19 11.8
1 5 1 109.89 14
1 5 1 101.99 6.8
-1 5 -1 106.09 7.4
2 -5 1 243.28 10.1
2 -5 1 241.08 14.5
-2 -5 -1 252.37 14.1
-2 -5 -1 248.48 13.8
2 -5 1 272.07 14.7
-2 5 -1 258.67 15
-2 5 -1 260.07 12.6
2 5 1 227.18 10.6
2 5 1 226.08 18.4
2 5 1 242.28 15.6
3 -5 1 122.69 7.3
3 -5 1 109.29 11
-3 -5 -1 114.99 9.7
-3 -5 -1 104.19 10.5
3 -5 1 129.89 12
3 5 1 119.39 12.6
3 5 1 127.99 16
-3 5 -1 109.09 8.3
3 5 1 113.19 6.8
-4 -5 -1 30 5.9
4 -5 1 31.8 6.7
-4 -5 -1 27.6 6.3
4 -5 1 19.6 6.3
4 -5 1 29.4 4.4
-4 5 -1 17.2 4.4
4 5 1 25.8 9.1
4 5 1 25.5 10.4
5 -5 1 87.69 10.3
-5 -5 -1 89.39 9.3
5 -5 1 95.29 7.8
-5 -5 -1 92.49 9.5
5 -5 1 104.29 11.4
-5 5 -1 102.49 9.7
5 5 1 77.59 12.6
5 5 1 85.09 15.7
6 -5 1 7.9 5.4
-6 -5 -1 3.4 4.5
-6 -5 -1 13.7 5.1
6 -5 1 9.2 5.6
6 -5 1 5.7 3.6
6 5 1 3.2 8.3
6 5 1 22 9.8
-6 5 -1 8.7 3.8
7 -5 1 15 4.6
7 -5 1 16 6.7
-7 -5 -1 17.6 5.8
7 -5 1 30.2 7.9
-7 -5 -1 15.3 5.7
7 5 1 15.1 11
7 5 1 31 12.4
7 5 1 13.5 8.8
-7 5 -1 9.4 4.4
8 -5 1 -11.7 5
8 -5 1 0.3 3.7
-8 -5 -1 -4.5 3.7
-8 -5 -1 -9 4
8 5 1 0.8 7.3
-8 5 -1 -3.5 4
8 5 1 -6 9.5
8 5 1 2.8 9.8
-9 -5 -1 7.2 4.5
9 -5 1 0.7 4
-9 5 -1 8.7 4.6
9 5 1 14.6 9.2
-9 5 -1 7.8 4.7
9 5 1 3.9 11.3
10 -5 1 1.7 4.2
-10 -5 -1 6.8 4.7
-10 5 -1 -2.9 3.3
10 5 1 -1 11.2
10 5 1 -6 8.1
-10 5 -1 0.5 4
-11 -5 -1 13.9 5.3
11 -5 1 25.7 6.9
-11 5 -1 18.2 6.2
11 5 1 26 11.5
-11 5 -1 18.2 6.4
11 5 1 27.6 15.8
12 -5 1 -0.5 5
12 5 1 4.7 10.7
-12 5 -1 0.1 5.2
-12 5 -1 -0.7 4.2
12 5 1 5.8 14.5
13 -5 1 5.5 5.6
-13 5 -1 3.9 5.3
13 5 1 -8.7 10.6
-13 5 -1 5.6 5.7
13 5 1 10.1 15.7
14 -5 1 9.9 6.6
14 5 1 4.1 16.6
14 5 1 22 14
-14 5 -1 21 7.6
-14 5 -1 21.9 6.9
13 -6 -1 7.7 6
13 6 -1 -5.5 16.3
13 6 -1 -11.7 10.9
-13 6 1 3.8 4.6
-13 6 1 2.1 5
12 -6 -1 33.8 8.3
-12 6 1 26.5 7.4
-12 6 1 32.1 7.6
12 6 -1 39.5 13.8
12 6 -1 35.2 17
11 -6 -1 13 6.3
11 6 -1 21.6 12.8
11 6 -1 26 16
-11 6 1 12.5 5.6
-10 -6 1 -2.1 4.3
10 -6 -1 -0.6 4.3
10 6 -1 21.8 13.3
-10 6 1 -1.5 3.6
10 6 -1 -8.5 9.1
-9 -6 1 3.9 4.8
9 -6 -1 8.9 4.6
-9 6 1 6.7 4.7
9 6 -1 4.9 12.3
9 6 -1 -6.9 9
8 -6 -1 1.8 5.4
8 -6 -1 5 4.1
-8 -6 1 12.7 5.2
8 6 -1 5 8.6
8 6 -1 1.4 10.7
-8 6 1 8.3 4.5
7 -6 -1 144.89 15.4
7 -6 -1 136.09 10.2
-7 -6 1 118.19 11.4
-7 -6 1 124.39 11.9
-7 6 1 132.59 10.9
7 6 -1 139.19 17.9
6 -6 -1 17.7 4.6
-6 -6 1 28.5 6.5
6 -6 -1 10 6.5
-6 -6 1 21 6.7
6 -6 -1 34.1 8.3
6 6 -1 44.9 12.2
5 -6 -1 3.6 3.1
5 -6 -1 -5.2 4.8
-5 -6 1 2 5.4
5 -6 -1 3.8 5.5
-5 -6 1 1.8 4.9
5 6 -1 7 10.2
-5 6 1 2.4 3.6
-4 -6 1 371.86 18.7
4 -6 -1 364.26 20.8
4 -6 -1 380.66 20.2
-4 -6 1 387.36 19.2
-4 6 1 379.86 17.7
4 6 -1 368.36 23.6
3 -6 -1 201.68 15.1
-3 -6 1 172.78 13.3
-3 -6 1 207.28 13.3
3 -6 -1 194.98 14.9
-3 6 1 205.18 12.3
3 6 -1 192.78 17.7
-3 6 1 203.48 20.5
3 6 -1 201.18 21.7
2 -6 -1 289.57 17.4
-2 -6 1 260.17 15.7
2 -6 -1 274.87 16.8
-2 -6 1 266.77 16
-2 6 1 274.37 18.5
2 6 -1 266.67 18.1
2 6 -1 269.67 12.2
2 6 -1 275.57 20.9
-2 6 1 272.77 14.1
-1 -6 1 26.5 7
1 -6 -1 34.9 7.8
1 -6 -1 27.5 8.1
1 6 -1 27.2 9.7
-1 6 1 28.2 5.3
-1 6 1 29.6 9.5
-1 6 1 33.2 5.5
1 6 -1 24.3 4.5
0 -6 -1 8.6 5.4
0 -6 1 10.2 5.8
0 -6 1 4.8 4.9
0 -6 -1 6.1 6
0 6 -1 6.8 3.3
0 6 1 15 8.2
0 6 -1 0.7 2.8
0 6 1 8.2 3.3
0 6 -1 0.8 5.8
1 -6 1 62.99 9.7
-1 -6 -1 51.69 8.6
1 -6 1 47.3 8.7
-1 -6 -1 70.19 10.1
1 6 1 61.89 12.6
-1 6 -1 63.69 7.2
1 6 1 55.29 6.3
2 -6 1 183.08 14.4
-2 -6 -1 190.28 13.8
2 -6 1 198.58 14.3
-2 -6 -1 188.68 13.5
2 6 1 175.38 15
2 6 1 170.48 19.6
-2 6 -1 170.88 10.9
2 6 1 176.08 9.8
3 -6 1 6.3 5.6
-3 -6 -1 1.4 4.6
3 -6 1 8.3 5.6
-3 -6 -1 0.7 5.2
3 6 1 12.8 10.2
3 6 1 1.7 8.1
-3 6 -1 4.3 3.6
-4 -6 -1 84.49 10.7
4 -6 1 71.29 10.6
4 -6 1 67.69 6.9
4 -6 1 74.49 11
-4 -6 -1 68.69 9.5
4 6 1 100.49 14.2
4 6 1 71.79 15.8
-4 6 -1 89.99 9.9
5 -6 1 51.09 6.5
5 -6 1 52.89 10
5 -6 1 49.8 9.6
-5 -6 -1 47.9 8.3
-5 -6 -1 45.4 8.3
5 6 1 23.3 12.4
5 6 1 45.7 12.8
-5 6 -1 58.59 8.5
6 -6 1 31.3 8.3
6 -6 1 38.2 6.4
-6 -6 -1 40.8 7.8
-6 -6 -1 37.7 7.5
6 -6 1 31.7 8.3
6 6 1 23.6 12.7
-6 6 -1 34 6.8
6 6 1 22.5 11.2
-7 -6 -1 113.39 11.6
7 -6 1 100.69 10
7 -6 1 100.79 12.4
-7 -6 -1 125.39 12.8
7 -6 1 102.89 13.7
7 6 1 95.09 16.2
-7 6 -1 108.79 10.9
7 6 1 81.39 16.6
-8 -6 -1 303.27 16.7
-8 -6 -1 313.57 17.8
8 -6 1 321.57 20.1
8 -6 1 287.07 16.3
-8 6 -1 352.66 18
-8 6 -1 285.87 15.8
8 6 1 297.67 27
9 -6 1 -1.9 4.2
9 -6 1 -1.5 5.9
-9 -6 -1 -0.8 4.8
-9 6 -1 0 3.9
-9 6 -1 3.9 4
9 6 1 -4.9 12.6
10 -6 1 132.59 13.5
-10 -6 -1 144.09 12.8
10 6 1 146.59 21.6
-10 6 -1 143.19 13.6
-10 6 -1 139.69 13.9
11 -6 1 152.58 14.6
-11 -6 -1 167.58 14
11 6 1 166.28 25
-11 6 -1 169.28 14
-11 6 -1 178.08 14.2
12 -6 1 57.59 9.9
-12 6 -1 35.5 8.3
12 6 1 40.4 18.1
-12 6 -1 58.99 10.6
13 -6 1 50.59 10.4
-13 6 -1 54.99 9.9
13 6 1 49.5 20.2
-13 6 -1 93.99 12.1
-12 7 1 -0.9 4.7
-12 7 1 3.7 5.2
12 7 -1 -17.2 15.6
11 7 -1 -20.1 13.9
-11 7 1 5.9 5.1
-11 7 1 5.5 5.5
-10 -7 1 6 6.2
-10 7 1 14.1 6.2
10 7 -1 -11 14
-9 -7 1 7.8 6.3
9 7 -1 -0.4 13.4
-9 7 1 9.2 6
-8 -7 1 47.9 8.4
8 7 -1 22.1 13.6
-8 7 1 48.4 8.4
7 -7 -1 3.1 7.2
-7 -7 1 3.2 5.4
-7 -7 1 2.6 5.3
7 7 -1 2.1 11
-7 7 1 -3 3.4
-6 -7 1 180.28 14.2
-6 -7 1 177.08 15.9
6 -7 -1 191.58 18.5
6 -7 -1 160.68 16.3
6 7 -1 192.18 20.9
-6 7 1 173.98 13
-5 -7 1 15.7 7.1
5 -7 -1 19.9 7.8
-5 -7 1 14.4 6.5
5 -7 -1 22.1 7.9
5 7 -1 -7.7 9.8
-5 7 1 16.1 5.3
4 -7 -1 10.9 7
-4 -7 1 16.4 7.1
4 -7 -1 17.7 8.1
-4 -7 1 33.9 7.6
4 7 -1 21.9 11.1
-4 7 1 14.6 5.2
3 -7 -1 48.3 9.7
-3 -7 1 67.99 11.2
-3 -7 1 54.19 9.8
3 -7 -1 70.59 11.9
-3 7 1 72.29 9.4
-2 -7 1 66.49 10.9
2 -7 -1 101.39 13.1
-2 -7 1 97.99 12.5
2 -7 -1 87.19 12
-2 7 1 64.09 8.4
-2 7 1 66.69 8.9
-1 -7 1 21.2 7.4
-1 -7 1 10.5 7
1 -7 -1 16.9 7.3
1 -7 -1 21.3 7.8
-1 7 1 18.9 4.9
-1 7 1 12.7 9
1 7 -1 15.2 4.4
-1 7 1 20.9 5.1
0 -7 -1 122.89 14
0 -7 1 120.69 14.3
0 -7 1 98.89 12.5
0 -7 -1 97.59 13.3
0 7 1 122.19 17.4
0 7 -1 131.99 9.5
0 7 -1 100.49 9.7
0 7 1 99.49 9.7
-1 -7 -1 16.2 7.5
-1 -7 -1 16.7 7.9
1 -7 1 14.6 7
1 -7 1 10.1 6.6
1 7 1 6.6 10.1
-1 7 -1 13.6 4.8
1 7 1 12 4.2
-1 7 -1 12.7 4.6
2 -7 1 3.4 5.7
2 -7 1 2.6 6.1
-2 -7 -1 6.6 6.4
-2 -7 -1 4 5.8
2 7 1 -6.3 7.5
-2 7 -1 -2.3 3.2
3 -7 1 128.69 14.5
-3 -7 -1 163.58 15.2
3 -7 1 140.29 15.9
-3 -7 -1 134.09 14.2
3 7 1 137.09 20.2
-3 7 -1 128.79 12.1
-4 -7 -1 154.28 14.2
4 -7 1 124.19 15
-4 -7 -1 119.69 13.3
4 -7 1 146.89 15.7
4 7 1 110.19 19.2
-4 7 -1 114.79 11.6
4 7 1 143.09 16.9
5 -7 1 29 8.7
5 -7 1 38.9 10
-5 -7 -1 31 7.9
-5 -7 -1 26.4 7.6
5 7 1 29.8 12.5
5 7 1 45.2 12.8
-5 7 -1 41.3 7.6
-6 -7 -1 40.4 9.2
-6 -7 -1 49 9
6 -7 1 45.9 9.9
6 -7 1 40.5 9.7
6 7 1 51.99 14.4
-6 7 -1 71.99 9.7
6 7 1 63.39 17.5
7 -7 1 5.5 6.6
-7 -7 -1 4 6.1
-7 -7 -1 8.8 6.2
7 7 1 -23 10.9
-7 7 -1 0.5 4.1
-7 7 -1 -0.7 3.4
-8 -7 -1 17 7.7
-8 -7 -1 3.3 6.3
8 -7 1 9.3 7
-8 7 -1 11.8 6
8 7 1 3.1 13.5
-8 7 -1 -0.2 3.6
-9 -7 -1 8.9 6.9
9 -7 1 15.6 9.2
9 7 1 18.6 15.8
-9 7 -1 17.2 5.9
-9 7 -1 19 6.9
-10 -7 -1 9.2 6.3
10 7 1 3.5 14.6
-10 7 -1 6.8 5.7
-10 7 -1 6.2 5.5
-11 -7 -1 -1.2 6.1
11 7 1 1.2 16.3
-11 7 -1 11.4 6.4
-11 7 -1 2 5.2
12 7 1 6.9 17.7
-10 -8 1 1.4 6.7
10 8 -1 -26.4 14.7
-10 8 1 2.3 5.1
-10 8 1 5.7 6.3
-9 -8 1 25.1 8.5
9 8 -1 15.8 16.6
-9 8 1 47.6 10
-8 -8 1 3.1 6.8
8 -8 -1 -7 6.8
-8 8 1 -2.3 4.6
8 8 -1 -11.1 13.8
7 -8 -1 23.4 9.9
-7 8 1 17.9 7.5
7 8 -1 0.4 13.5
-6 -8 1 8.3 6.9
6 -8 -1 26.7 9
-6 -8 1 11.1 7.2
6 -8 -1 7 7.9
-6 8 1 11.5 5.9
5 -8 -1 -0.8 6.5
5 -8 -1 -9.3 6.4
-5 -8 1 -2.6 6.4
-5 -8 1 -2.9 5.7
-5 8 1 5.2 5.2
4 -8 -1 5.3 6.8
4 -8 -1 1.5 7.4
-4 8 1 -3 3.8
-4 8 1 -3.8 3.9
-3 -8 1 33.1 9
3 -8 -1 20 8.4
3 -8 -1 17 8.4
-3 -8 1 30.9 9
-3 8 1 32.4 7.2
-3 8 1 10.5 4.6
-2 -8 1 22.8 8.1
-2 -8 1 18.3 8.3
2 -8 -1 9.9 7
2 -8 -1 20.8 8.7
-2 8 1 14.4 5.5
-2 8 1 18.1 5.4
1 -8 -1 7.1 7.1
-1 -8 1 8.1 6.9
-1 -8 1 2.3 6.3
1 -8 -1 3.5 6.9
-1 8 1 11.6 4.8
0 -8 1 0.7 7.1
0 -8 -1 -1.7 6.4
0 -8 1 11.8 7.1
0 -8 -1 -0.7 5.9
0 8 1 10.3 9.1
0 8 1 4.3 3.9
-1 -8 -1 53.49 11.2
1 -8 1 47.6 10.7
-1 -8 -1 53.09 10.5
1 -8 1 44.5 10.4
-1 8 -1 49.7 7.6
-1 8 -1 55.19 8.1
1 8 1 49.1 13.1
-2 -8 -1 0.9 6.4
2 -8 1 8 7.2
2 -8 1 -1.8 6.3
-2 -8 -1 -4.5 5.8
2 8 1 11.7 9.7
-2 8 -1 5.7 4.2
-2 8 -1 4.3 4.7
-3 -8 -1 8 6.8
3 -8 1 3.4 6.7
-3 -8 -1 -0.4 7.2
3 -8 1 16.9 8.2
3 8 1 15.1 10.7
-3 8 -1 3.8 4.7
4 -8 1 128.29 16.7
-4 -8 -1 112.49 14.1
-4 -8 -1 102.99 13.7
4 -8 1 101.69 14.3
4 8 1 98.79 18.8
-4 8 -1 160.38 15.3
-5 -8 -1 8.2 6.7
-5 -8 -1 11.7 7.3
5 -8 1 5.9 7.4
5 -8 1 -9 5.4
-5 8 -1 5.7 5
6 -8 1 67.59 12.1
-6 -8 -1 60.49 11.6
-6 -8 -1 88.59 12.9
6 -8 1 77.79 14.4
6 8 1 79.39 18.1
-6 8 -1 87.99 11.9
-7 -8 -1 93.69 13.9
7 -8 1 108.59 16
-7 -8 -1 79.09 13
7 8 1 98.59 19.7
-7 8 -1 118.09 14.6
8 -8 1 16.2 9.8
-8 -8 -1 16.8 8.5
-8 -8 -1 25.6 8.7
-8 8 -1 17.8 7.3
8 8 1 3.2 15
-8 8 -1 30 7.1
9 -8 1 1.5 12.4
-9 -8 -1 -5.4 6.6
-9 8 -1 6 5
9 8 1 -14 15.8
-9 8 -1 5 5.4
-10 -8 -1 32.7 9.1
10 8 1 -0.5 18.7
-10 8 -1 36.9 8.7
-10 8 -1 39.3 9.3
-8 -9 1 -1.4 7.6
8 -9 -1 6.5 9
-8 9 1 2.9 6.8
-7 -9 1 52.59 11.4
-7 -9 1 68.49 13.1
7 -9 -1 80.09 15.7
-7 9 1 84.89 13.2
6 -9 -1 5.2 8.1
6 -9 -1 -6.1 8.1
-6 -9 1 6.5 7.9
-6 -9 1 0.9 7.1
-6 9 1 8.2 6.8
5 -9 -1 30.7 10.9
-5 -9 1 36.2 10.1
-5 -9 1 37 10.6
5 -9 -1 40.3 11.4
-5 9 1 31.6 7.9
-5 9 1 42 9.4
-4 -9 1 -6.6 6.8
4 -9 -1 5.6 8.7
-4 -9 1 0.8 7
4 -9 -1 1.9 8.5
-4 9 1 -0.4 5.6
-4 9 1 -6.1 3.8
3 -9 -1 15.4 8.7
-3 -9 1 14.1 8.8
-3 -9 1 6.1 8.3
3 -9 -1 22.8 10
-3 9 1 19.4 6.6
-3 9 1 24.9 7.6
-2 -9 1 -0.2 8
2 -9 -1 -1.8 6.8
-2 -9 1 -13.5 5.8
2 -9 -1 1.5 7.8
-2 9 1 1.3 4.7
-1 -9 1 -5.2 6.7
-1 -9 1 -8.7 6.7
1 -9 -1 2.3 7.9
1 -9 -1 -3.6 7.3
0 -9 1 14.8 9.1
0 -9 -1 12.5 9
0 -9 1 3.2 7.9
0 -9 -1 6.2 8.5
1 -9 1 17.1 8.5
-1 -9 -1 2 8.2
1 -9 1 4.4 7.6
-1 -9 -1 -0.9 7.3
-2 -9 -1 1.6 8.4
2 -9 1 -1.9 6.9
2 -9 1 7.6 8.2
-2 -9 -1 0.7 7.4
-2 9 -1 -0.9 4.6
-2 9 -1 2.9 4.6
3 -9 1 7.5 7.8
-3 -9 -1 4.1 7.7
-3 -9 -1 7.1 7.5
3 -9 1 22.8 9.6
-3 9 -1 6.5 5.9
-3 9 -1 7.4 5.3
-4 -9 -1 22.8 9.5
4 -9 1 19.6 9.8
-4 -9 -1 10.1 8.3
4 -9 1 7.4 8.8
-4 9 -1 11.5 6.8
5 -9 1 9.3 8.5
-5 -9 -1 19.7 9.2
-5 -9 -1 8.1 8.7
5 -9 1 16.3 9.7
-5 9 -1 22.8 8
-6 -9 -1 30.4 10
-6 -9 -1 35 10.4
6 -9 1 30.4 11.5
6 -9 1 18.5 9.4
-6 9 -1 33.7 9.1
7 -9 1 3 8.8
-7 -9 -1 9.1 8.7
-7 -9 -1 16.9 9.2
-7 9 -1 3.4 6.8
-4 -10 1 43.7 12.3
4 -10 -1 28.1 10.9
4 -10 -1 35.6 12.5
-4 -10 1 24.6 10.5
-3 -10 1 37 11.5
3 -10 -1 35.7 12.4
-3 -10 1 49.7 11.5
3 -10 -1 46.1 12.6
2 -10 -1 -1.4 8.6
-2 -10 1 8.5 9
-2 -10 1 -3 7.6
2 -10 -1 6.1 9.2
-1 -10 1 61.79 13.2
-1 -10 1 37.9 12
1 -10 -1 65.39 14.9
1 -10 -1 46.6 12.3
0 -10 -1 25.8 10.3
0 -10 1 10.6 9.2
0 -10 -1 24.7 10.2
0 -10 1 18 10.2
-1 -10 -1 4.7 8.5
1 -10 1 23.3 10.6
-1 -10 -1 25.7 10
1 -10 1 32.7 12.2
-2 -10 -1 30.6 10.6
2 -10 1 32.9 10.8
2 -10 1 34 12.4
-2 -10 -1 27.7 11.3
3 -10 1 10.7 9.8
-3 -10 -1 24.9 10.4
-3 -10 -1 5.9 9.5
3 -10 1 28.4 11.3
-4 -10 -1 33.7 11.4
16 0 -2 81.99 19.8
16 0 -2 87.59 12.5
-16 0 2 95.09 11.9
16 0 -2 43 14.2
-15 0 2 35.9 7.8
15 0 -2 26.1 7.7
15 0 -2 15.8 13.8
15 0 -2 32.4 12
14 0 -2 45.4 8.7
-14 0 2 64.29 9.5
14 0 -2 42.9 12.2
14 0 -2 39.8 14.5
13 0 -2 27.6 6.6
-13 0 2 46.7 7.9
13 0 -2 41.9 11.6
13 0 -2 24.5 11.4
12 0 -2 60.89 13.4
12 0 -2 56.29 8.3
12 0 -2 66.59 12.4
-12 0 2 74.79 9.3
11 0 -2 339.47 17.4
-11 0 2 322.77 16.1
11 0 -2 323.67 21.6
11 0 -2 352.06 23.8
-10 0 2 20.3 4.7
10 0 -2 22.4 8.5
10 0 -2 19 4.9
-10 0 2 17.3 3.2
10 0 -2 18 7
9 0 -2 15.8 3.8
9 0 -2 23.9 7
-9 0 2 22.7 3.2
9 0 -2 14.4 6.2
-8 0 2 174.78 7.3
8 0 -2 166.48 13.1
8 0 -2 183.58 10.3
8 0 -2 176.88 12.5
7 0 -2 2120.79 59.79
7 0 -2 2141.99 63.39
7 0 -2 2049.89 62.19
-7 0 2 2072.69 55.69
6 0 -2 465.35 16.9
6 0 -2 474.95 19.7
-6 0 2 436.16 13.6
6 0 -2 461.85 19
5 0 -2 4077.59 107.19
-5 0 2 3989.6 103.79
5 0 -2 4115.39 109.59
5 0 -2 4002.2 108.79
4 0 -2 2382.16 65.69
4 0 -2 2425.06 64.49
-4 0 2 2381.86 62.39
3 0 -2 3410.06 89.19
2 0 -2 936.61 25.9
1 0 -2 205.98 6.5
-1 0 -2 228.28 8
-1 0 -2 206.88 7.6
1 0 2 211.98 7.4
2 0 2 42.2 6.9
-2 0 -2 31.1 2.6
-2 0 -2 30.8 2.9
2 0 2 35.2 3.2
3 0 2 208.88 9.4
3 0 2 247.28 11.7
3 0 2 264.77 10.8
3 0 2 235.48 9.1
-3 0 -2 237.58 8.8
-3 0 -2 231.08 8.7
4 0 2 1008.2 30.4
4 0 2 1014.9 29.7
4 0 2 1099.79 32.1
-4 0 -2 1022 30.1
4 0 2 1063.49 32.7
-4 0 -2 1051.09 29.8
5 0 2 1071.09 33.9
5 0 2 1055.89 34.8
5 0 2 1108.19 35
-5 0 -2 1051.99 30.9
5 0 2 1072.19 32.1
-5 0 -2 1032.3 31.4
-6 0 -2 171.18 8.1
6 0 2 162.88 9.2
-6 0 -2 153.78 7.3
6 0 2 177.18 12
6 0 2 188.18 12.9
-6 0 -2 166.38 8.7
6 0 2 162.68 11.2
-7 0 -2 268.17 12.1
7 0 2 274.67 12.7
7 0 2 271.07 16.9
7 0 2 281.17 15.5
7 0 2 284.17 15.3
-7 0 -2 264.97 11.1
-7 0 -2 258.17 10.4
8 0 2 716.93 25.9
-8 0 -2 723.83 25
-8 0 -2 725.53 22.7
8 0 2 685.03 29.8
8 0 2 753.92 29.2
-8 0 -2 717.83 23.6
9 0 2 81.99 12.4
9 0 2 59.09 9.7
9 0 2 74.49 8.2
-9 0 -2 90.59 7
-9 0 -2 91.99 9
-9 0 -2 84.49 6.2
-10 0 -2 278.57 12.9
10 0 2 278.27 20.2
10 0 2 261.57 22.6
-10 0 -2 273.07 14.5
-10 0 -2 253.07 11.6
10 0 2 279.97 15.4
11 0 2 317.67 17.4
11 0 2 317.77 25.1
-11 0 -2 350.16 17.3
-11 0 -2 336.37 14
-11 0 -2 346.27 15.1
11 0 2 346.47 22.8
12 0 2 47.7 11.2
12 0 2 46.5 8.2
-12 0 -2 40.5 6.2
12 0 2 23.8 12.5
-12 0 -2 50.19 6.2
-12 0 -2 43.4 7.3
13 0 2 48.2 15.1
-13 0 -2 57.69 8.5
13 0 2 56.89 9.2
13 0 2 58.09 12.8
14 0 2 3.4 10.1
14 0 2 15 6.2
-14 0 -2 11.3 5.8
14 0 2 21 14.6
15 0 2 147.79 22.6
-15 0 -2 183.38 14.8
15 0 2 102.09 17.7
15 0 2 144.89 15
16 0 2 12.7 6.7
16 0 2 17.2 12.6
16 0 2 25.4 17.2
-16 0 -2 30.4 8.4
16 -1 -2 4 5.8
-16 -1 2 -3.7 4.2
16 -1 -2 2.2 11.1
16 1 -2 6.6 5.8
16 1 -2 -16 9.4
16 1 -2 -24.2 13.1
-16 1 2 -0.8 5.1
15 -1 -2 -17.9 12.3
-15 -1 2 4.7 5.7
15 -1 -2 6.5 5.4
15 -1 -2 12.1 10.5
15 1 -2 3.8 13.4
15 1 -2 0.7 9.9
15 1 -2 -4.1 3.9
-15 1 2 2.4 5.2
14 -1 -2 -2.4 4.1
14 -1 -2 -9.3 8.3
-14 -1 2 14 5.7
14 -1 -2 -12.1 10.7
14 1 -2 6.1 4.6
14 1 -2 -4.8 9
-14 1 2 1.3 4.9
14 1 -2 -8.2 11.1
13 -1 -2 0.8 7.3
13 -1 -2 -3.1 3.4
-13 -1 2 -7.3 3.1
13 -1 -2 0.3 9.6
13 1 -2 -7.4 9.7
13 1 -2 -2.7 3.1
-13 1 2 0.3 4.2
13 1 -2 -8.4 6.9
12 -1 -2 35.9 6.9
-12 -1 2 33.5 6.4
12 -1 -2 33.6 9.5
-12 -1 2 37.9 6.4
12 -1 -2 35.6 10.8
12 1 -2 36.2 11.4
12 1 -2 33.4 6.3
-12 1 2 42.3 7.6
-12 1 2 34 5.1
12 1 -2 35.4 10.4
11 -1 -2 -0.3 3.6
-11 -1 2 6.7 2.4
11 -1 -2 6.7 8
11 -1 -2 10.1 7.1
-11 -1 2 7.2 4.2
-11 1 2 9.6 3.4
11 1 -2 3.1 9.2
11 1 -2 13.1 9.1
11 1 -2 4 3.5
-10 -1 2 28.8 3.2
-10 -1 2 24.3 5.1
10 -1 -2 20.1 5.3
10 -1 -2 22.8 7.1
10 -1 -2 26.5 8.3
-10 1 2 31.7 4.4
10 1 -2 23.1 5.2
10 1 -2 25.8 8.5
10 1 -2 32.3 10
-9 -1 2 42.1 3.3
-9 -1 2 50.69 6
9 -1 -2 37.5 7.9
9 -1 -2 39.1 7.3
9 -1 -2 37.9 6
-9 -1 2 48.9 4.1
-9 1 2 47.5 4.9
9 1 -2 31.7 7.7
9 1 -2 59.39 10.3
9 1 -2 29 5.1
-8 -1 2 45.5 5.4
-8 -1 2 45.8 3.2
8 -1 -2 32.6 4.8
8 -1 -2 51.09 7.6
8 -1 -2 34.4 6.4
-8 1 2 42.8 4.4
8 1 -2 54.39 9.4
8 1 -2 33.9 7.4
8 1 -2 52.09 6.2
7 -1 -2 104.49 8.8
7 -1 -2 85.89 9.1
7 -1 -2 103.59 7.3
7 1 -2 84.79 9.7
7 1 -2 96.09 6.9
-7 1 2 91.79 5.5
7 1 -2 98.19 9.9
6 -1 -2 711.03 24.9
6 -1 -2 697.63 23.3
6 -1 -2 728.23 24.7
6 1 -2 697.93 25.6
6 1 -2 666.73 26.6
-6 1 2 685.43 21.1
6 1 -2 683.23 22.8
5 -1 -2 102.79 6.2
5 -1 -2 104.69 7.3
5 1 -2 96.79 7.9
5 1 -2 102.79 6.1
5 1 -2 106.29 8.9
-5 1 2 97.99 5.1
4 -1 -2 2534.85 67.39
4 -1 -2 2480.05 66.79
4 -1 -2 2496.55 67.49
-4 1 2 2391.86 65.39
4 1 -2 2458.35 68.49
4 1 -2 2519.45 66.39
3 -1 -2 556.44 16.9
3 -1 -2 563.24 16.9
-3 1 2 524.65 16
3 1 -2 564.04 16.6
3 1 -2 514.75 17.9
2 -1 -2 1367.06 36.1
2 -1 -2 1335.87 36.7
-2 1 2 1306.87 35.8
2 1 -2 1327.17 35.7
1 -1 -2 452.55 14.5
1 -1 -2 477.15 13.3
-1 1 2 468.45 13.7
-1 1 2 473.25 13.6
0 -1 -2 9999 252.37
0 -1 2 9654.43 249.78
0 1 -2 9762.82 251.77
0 1 2 9687.33 253.37
1 -1 2 2124.19 56.79
-1 -1 -2 2073.49 56.89
-1 -1 -2 2171.78 55.89
1 -1 2 2180.78 56.89
1 1 2 2343.57 61.69
1 1 2 2049.2 56.69
-1 1 -2 2113.69 56.59
-1 1 -2 2128.29 55.99
1 1 2 2128.69 55.69
-2 -1 -2 1238.08 33.8
-2 -1 -2 1197.68 34.4
2 -1 2 1237.08 34.8
2 -1 2 1266.07 34.9
2 1 2 1249.88 33.8
2 1 2 1269.37 39
-2 1 -2 1235.18 34.6
-2 1 -2 1235.78 34.2
2 1 2 1338.87 38.1
-3 -1 -2 698.73 20.4
3 -1 2 703.03 21.5
3 -1 2 670.63 21
-3 -1 -2 697.23 20.7
-3 1 -2 711.73 21.1
3 1 2 716.13 23.1
3 1 2 685.43 20.5
-3 1 -2 716.83 21.1
3 1 2 667.13 25.1
4 -1 2 28 3.7
-4 -1 -2 32.5 3.4
4 -1 2 22.8 3.6
-4 -1 -2 30 3.4
4 -1 2 27.9 3.5
-4 1 -2 35.3 3.6
4 1 2 27.8 3.2
4 1 2 29.7 6.5
4 1 2 35.2 5.3
-4 1 -2 28.3 3.4
4 1 2 36.3 6.1
-5 -1 -2 16.8 3.2
-5 -1 -2 19.6 3.5
5 -1 2 23.3 3.9
5 -1 2 25.5 4.5
5 -1 2 13.2 3.2
5 -1 2 21.8 4.4
-5 1 -2 21.7 3.5
-5 1 -2 19.3 3.6
5 1 2 19.8 6.7
5 1 2 25.5 5.7
5 1 2 21.1 6.1
5 1 2 19.9 3.5
-5 1 -2 24.3 3.4
6 -1 2 429.16 18.7
-6 -1 -2 394.76 14.5
6 -1 2 394.86 17.3
6 -1 2 436.96 16.7
6 -1 2 403.86 14.9
-6 -1 -2 423.16 15.3
-6 -1 -2 424.06 14.1
6 1 2 411.26 18.6
-6 1 -2 422.86 16
6 1 2 422.26 15.9
6 1 2 415.96 20.3
6 1 2 419.36 21
-6 1 -2 428.96 15.4
-7 -1 -2 127.09 6.5
-7 -1 -2 111.79 6.8
7 -1 2 118.19 11.1
7 -1 2 120.79 8.5
-7 -1 -2 120.49 7.5
7 -1 2 133.39 7.3
7 -1 2 127.29 10
-7 1 -2 113.89 7.7
7 1 2 140.09 8.5
7 1 2 141.89 13.6
7 1 2 106.69 10.6
-7 1 -2 119.09 7.3
7 1 2 145.49 14.2
8 -1 2 1.2 6.4
8 -1 2 9.2 3.2
-8 -1 -2 3.9 2.9
8 -1 2 4 4.6
-8 -1 -2 7.7 2.7
-8 -1 -2 7.9 3.1
8 1 2 8.3 6.9
8 1 2 12.7 7.6
-8 1 -2 8.8 3.1
-8 1 -2 3.3 2.7
8 1 2 1.7 5
8 1 2 9.5 3.5
-9 -1 -2 9.1 3.9
-9 -1 -2 9.1 3.6
9 -1 2 9.9 3.9
9 -1 2 10.6 6.1
9 -1 2 15.6 8.2
-9 -1 -2 9.4 2.9
-9 1 -2 11.2 3.6
9 1 2 7.3 3.6
9 1 2 7.1 7.1
9 1 2 8.6 8.5
-9 1 -2 5.4 3.8
-10 -1 -2 5.6 3.5
-10 -1 -2 5.4 4.2
-10 -1 -2 11.1 3.4
10 -1 2 14.9 9.8
10 -1 2 -0.7 3.4
10 -1 2 -0.6 6.6
-10 1 -2 5 3.7
10 1 2 10.7 10.6
10 1 2 8.9 8.4
-10 1 -2 2.6 3
10 1 2 4.1 3.8
11 -1 2 -7.1 9.1
11 -1 2 3.7 3.6
-11 -1 -2 11.5 4.5
-11 -1 -2 2.3 3.3
11 -1 2 2.5 7.6
-11 -1 -2 0.4 2.8
11 1 2 -12.4 6.4
11 1 2 -11.7 9.1
-11 1 -2 3.8 3.4
11 1 2 2.9 3.6
-11 1 -2 5.9 4.7
12 -1 2 -1.9 10.3
12 -1 2 5.2 4.4
12 -1 2 7.7 8.3
-12 -1 -2 -1 3.4
-12 -1 -2 5.1 3.3
12 1 2 -4.3 7.6
12 1 2 2 3.7
-12 1 -2 -0.1 3.3
-12 1 -2 4.9 4.7
12 1 2 -7.1 9.9
13 -1 2 -0.5 3.9
-13 -1 -2 15.6 5.5
13 -1 2 -22.1 9.9
-13 -1 -2 0.8 3.3
13 -1 2 -3.3 7.7
13 1 2 5.3 4.5
-13 1 -2 -0.9 3.4
13 1 2 3.1 9.3
-13 1 -2 10.1 5.7
13 1 2 -3.3 12.3
14 -1 2 -17.1 11.6
-14 -1 -2 0.4 5.6
-14 -1 -2 -2 3.6
14 -1 2 -3.8 8.8
14 -1 2 7 5.5
14 1 2 -2 9.7
14 1 2 -2 4.6
14 1 2 -7.7 12.4
-14 1 -2 4 5.4
15 -1 2 39.1 9.2
15 -1 2 59.49 14.8
-15 -1 -2 74.19 11
15 1 2 43 14.3
15 1 2 45.7 9
15 1 2 32 17.2
-15 1 -2 50.59 9.3
16 -1 2 -1 5.4
-16 -1 -2 -4.7 5.6
16 -1 2 -11 10
16 1 2 -18.2 15.9
16 1 2 -2.2 4.8
-16 1 -2 4.4 6.2
16 1 2 -12.7 11.2
16 -2 -2 2.4 5.5
16 -2 -2 6.8 11.2
16 2 -2 0.2 4.6
-16 2 2 0.3 6.7
16 2 -2 21.5 13.2
16 2 -2 -10 14.5
15 -2 -2 40.5 9.2
15 -2 -2 43.7 12.3
15 2 -2 46.9 9.2
15 2 -2 27.4 12.3
-15 2 2 45.4 9.1
15 2 -2 30.7 15.6
14 -2 -2 4.9 5.1
14 -2 -2 8.5 9.4
14 2 -2 1.5 9.5
14 2 -2 -3.1 12.6
14 2 -2 7 4.8
-14 2 2 13.1 6.2
13 -2 -2 3.1 4
-13 -2 2 2.1 3.8
13 -2 -2 -2.8 7.3
-13 2 2 4.1 4.3
-13 2 2 5.2 3.7
13 2 -2 3.9 8.3
13 2 -2 -2.3 10.9
13 2 -2 -2.8 3.1
-12 -2 2 9.1 4.5
12 -2 -2 8.1 7.1
12 -2 -2 -2.9 11.7
12 -2 -2 13.2 5
12 2 -2 11.6 11
12 2 -2 2.8 7.3
-12 2 2 1.9 3.1
12 2 -2 9.5 4.2
11 -2 -2 163.48 12.6
-11 -2 2 183.38 11
11 -2 -2 183.18 15.4
11 -2 -2 154.98 15.3
-11 2 2 176.98 10.3
11 2 -2 173.38 11.9
11 2 -2 158.88 18.9
11 2 -2 208.88 17.8
-10 -2 2 33.9 5.4
10 -2 -2 24 8.3
10 -2 -2 26.5 7.6
10 -2 -2 23.3 5.6
10 2 -2 38.3 11.4
-10 2 2 39.5 5.7
10 2 -2 19.3 4.6
10 2 -2 13.1 8.6
9 -2 -2 57.99 8.9
9 -2 -2 72.09 9.3
-9 -2 2 78.39 6.9
-9 -2 2 82.29 4.2
9 -2 -2 55.89 7.1
9 2 -2 56.89 6.7
9 2 -2 77.19 11.8
9 2 -2 63.39 10.3
-9 2 2 76.39 6.3
-8 -2 2 36.9 4.5
8 -2 -2 29.5 5.1
8 -2 -2 32.8 6
8 -2 -2 27.2 6
8 2 -2 39.5 5.3
8 2 -2 34.1 7.9
-8 2 2 30.8 4.3
8 2 -2 34.2 8.7
7 -2 -2 354.76 14.1
-7 -2 2 340.57 12.8
7 -2 -2 346.77 16
7 -2 -2 345.87 15.8
7 -2 -2 350.86 15
7 2 -2 362.66 14.4
7 2 -2 358.76 19.8
7 2 -2 361.86 18.3
-7 2 2 342.07 13.6
-6 -2 2 1383.96 39.2
6 -2 -2 1425.56 41.5
6 -2 -2 1450.05 42.8
6 -2 -2 1425.46 42.1
-6 2 2 1407.76 40.6
6 2 -2 1379.16 44.9
6 2 -2 1426.96 41
6 2 -2 1413.86 46.7
5 -2 -2 232.08 11.4
-5 -2 2 229.98 8.4
5 -2 -2 233.58 11
5 -2 -2 235.18 10.6
5 2 -2 228.08 9.8
-5 2 2 220.98 9.7
5 2 -2 229.78 14.4
5 2 -2 232.38 13.1
4 -2 -2 2537.45 67.29
-4 -2 2 2434.86 64.09
4 -2 -2 2548.34 67.49
4 -2 -2 2482.55 68.19
-4 -2 2 2437.86 64.59
4 2 -2 2490.45 66.29
-4 2 2 2507.75 67.09
4 2 -2 2522.45 70.99
4 2 -2 2408.66 69.29
3 -2 -2 486.65 17.3
-3 -2 2 485.25 14.5
3 -2 -2 538.15 16.1
3 2 -2 493.35 17.5
3 2 -2 525.95 15.3
-3 2 2 473.55 16
2 -2 -2 160.28 6.3
2 -2 -2 159.08 8
-2 -2 2 160.78 6.4
2 2 -2 155.08 5.9
-2 2 2 151.78 6.8
-1 -2 2 135.59 6.3
1 -2 -2 143.39 7.5
1 -2 -2 145.09 4.9
-1 2 2 151.18 13.3
-1 2 2 134.59 5.9
-1 2 2 123.99 5.9
1 2 -2 119.19 5.2
0 -2 2 15.4 3.1
0 -2 -2 14.2 3.3
0 2 2 14.5 7.1
0 2 -2 15.5 2.3
0 2 2 13.9 2.2
1 -2 2 646.74 19.6
-1 -2 -2 648.74 20.7
-1 -2 -2 667.43 18.5
1 -2 2 643.94 20.5
-1 2 -2 633.14 18.6
1 2 2 656.03 19
1 2 2 679.13 25.4
-1 2 -2 652.83 19.8
2 -2 2 292.67 10.8
-2 -2 -2 295.97 9.5
2 -2 2 284.57 11.5
-2 -2 -2 288.77 11.1
2 2 2 292.87 9.7
2 2 2 286.27 8.9
-2 2 -2 288.97 10.1
2 2 2 303.27 15.8
-2 2 -2 296.67 10.9
3 -2 2 290.67 12
-3 -2 -2 303.37 11.3
3 -2 2 306.77 11.5
-3 -2 -2 302.27 10
3 2 2 282.27 10.1
-3 2 -2 295.67 11.4
-3 2 -2 271.37 10.7
3 2 2 308.07 9.9
3 2 2 288.37 13.5
3 2 2 294.67 16.4
3 2 2 289.47 14.4
-4 -2 -2 259.57 10.6
4 -2 2 275.47 11.6
-4 -2 -2 275.57 9.7
4 -2 2 248.68 11.7
4 2 2 271.37 16.6
4 2 2 257.17 14.8
-4 2 -2 261.97 10.8
4 2 2 258.57 13.9
4 2 2 270.37 10
-4 2 -2 247.18 10.9
5 -2 2 129.99 8.1
-5 -2 -2 139.69 6.9
5 -2 2 145.39 8.6
-5 -2 -2 131.49 7.1
-5 -2 -2 131.29 7.3
5 -2 2 142.89 8.7
-5 2 -2 135.39 7.9
5 2 2 132.49 11.4
5 2 2 136.89 12.6
-5 2 -2 124.29 7.5
5 2 2 138.49 7.3
5 2 2 132.49 13.6
6 -2 2 524.65 17.6
-6 -2 -2 394.96 14.7
6 -2 2 522.25 17.9
6 -2 2 460.95 17.6
-6 -2 -2 366.56 15.1
-6 -2 -2 388.86 15
6 2 2 441.26 23.4
-6 2 -2 503.45 17
6 2 2 397.76 19.6
6 2 2 391.16 21.3
6 2 2 420.86 15.9
7 -2 2 32.2 5
7 -2 2 34.5 5.1
7 -2 2 38.2 7.2
-7 -2 -2 35.9 4.6
7 -2 2 30.9 5.7
-7 -2 -2 39.2 4.9
-7 -2 -2 42.3 4.6
7 2 2 38 9.7
7 2 2 29.9 4.5
7 2 2 22.7 7.9
7 2 2 27 7.1
-7 2 -2 36.3 4.9
-7 2 -2 35.2 5.1
-8 -2 -2 445.66 16.1
8 -2 2 452.45 18.2
-8 -2 -2 499.05 17.9
8 -2 2 468.35 19.8
8 -2 2 449.16 21.6
8 -2 2 476.15 20.6
-8 -2 -2 469.95 17.2
8 2 2 444.96 18.1
8 2 2 478.65 26.5
-8 2 -2 477.45 18.2
8 2 2 464.65 23.9
-8 2 -2 442.96 19
8 2 2 475.35 26.2
-9 -2 -2 0.1 2.9
9 -2 2 1.3 3.5
-9 -2 -2 5 3
9 -2 2 0.9 5.3
-9 -2 -2 7.3 3.6
9 -2 2 -8.3 7
9 2 2 0.3 8.4
-9 2 -2 2.1 3.6
9 2 2 5.6 7.6
9 2 2 2.4 3
-9 2 -2 8 3.5
9 2 2 0.3 7.3
10 -2 2 69.09 10.3
-10 -2 -2 51.39 5.9
10 -2 2 69.69 8.9
10 -2 2 65.69 12.2
-10 -2 -2 58.59 6.6
-10 -2 -2 64.59 8
10 2 2 71.09 14.8
-10 2 -2 65.89 9.1
10 2 2 45.9 10.9
10 2 2 48.9 6.8
-10 2 -2 52.69 6.9
-11 -2 -2 11.1 5
11 -2 2 1.1 4.3
-11 -2 -2 16.4 4
11 -2 2 15.6 7.8
11 2 2 15.6 11.2
11 2 2 -6.6 7.3
-11 2 -2 10.9 4.2
11 2 2 6 3.7
-11 2 -2 14.7 5
-12 -2 -2 18.6 5.4
12 -2 2 17.1 8.5
-12 -2 -2 13.1 4
12 -2 2 6.1 4.4
-12 2 -2 13.5 5.5
12 2 2 17.3 5.5
-12 2 -2 13.2 4.7
12 2 2 13.9 12.4
12 2 2 4.6 8.9
-13 -2 -2 14.8 5.7
13 -2 2 -0.2 8.3
-13 -2 -2 14.7 4.2
13 -2 2 3.6 4.9
13 2 2 2.3 13.5
13 2 2 21.1 11.2
-13 2 -2 10.8 4.9
-13 2 -2 4.4 4.6
13 2 2 1 3.8
-14 -2 -2 68.79 9.9
14 -2 2 44.8 9.4
14 -2 2 34.5 12.1
14 2 2 32.8 12.9
-14 2 -2 52.99 9.6
14 2 2 31.4 16.6
14 2 2 50.99 9.3
-14 2 -2 40.5 7.4
15 -2 2 26.8 7.5
15 -2 2 42.9 12.8
15 2 2 -7.8 15.1
15 2 2 30.4 8.1
-15 2 -2 25.1 7.6
15 2 2 -5.8 10.8
-15 2 -2 28.8 7.4
15 -3 -2 61.89 14.6
15 -3 -2 44.7 9.2
-15 3 2 66.29 10.4
15 3 -2 64.79 10.2
15 3 -2 38.8 13.6
-15 3 2 64.29 9
15 3 -2 21.8 17
14 -3 -2 8.4 9
14 -3 -2 -1.2 4.8
14 3 -2 -5.7 3.9
14 3 -2 -20.2 11.3
-14 3 2 -4.2 4.4
14 3 -2 4.6 10.2
-14 3 2 -2.7 3.4
13 -3 -2 26.3 7.1
13 -3 -2 11.9 8.4
-13 3 2 19.6 5.2
13 3 -2 15 5.4
-13 3 2 25.5 6.6
13 3 -2 40.4 12.4
13 3 -2 2.8 11.5
12 -3 -2 29.4 7
12 -3 -2 32 9.1
-12 3 2 37 6.2
12 3 -2 20.2 5.6
12 3 -2 33.3 13.6
12 3 -2 40.6 11.9
11 -3 -2 83.19 9.7
11 -3 -2 77.19 11.4
11 3 -2 77.69 15.1
-11 3 2 75.19 8
11 3 -2 81.59 13.6
11 3 -2 70.99 8.4
10 -3 -2 76.99 9
10 -3 -2 93.09 11.3
10 3 -2 88.69 14.5
10 3 -2 95.99 14.1
10 3 -2 103.59 8.8
-10 3 2 122.29 8.9
-9 -3 2 619.54 19.3
9 -3 -2 631.04 24.9
-9 -3 2 643.44 21.3
9 -3 -2 629.44 25.8
-9 3 2 630.34 23.1
9 3 -2 661.43 32.8
9 3 -2 634.34 30.2
9 3 -2 621.54 23.1
-8 -3 2 87.79 5.9
-8 -3 2 87.59 5.2
8 3 -2 88.89 11.5
8 3 -2 84.59 12.6
8 3 -2 86.09 7.1
-7 -3 2 284.77 10
-7 -3 2 290.87 10.6
7 -3 -2 272.57 13.9
7 -3 -2 276.37 13.4
7 -3 -2 290.07 13.9
-7 -3 2 279.17 10.1
-7 3 2 285.97 12.9
7 3 -2 274.87 12.2
7 3 -2 296.37 19
7 3 -2 283.87 17.1
-6 -3 2 22.7 2.9
6 -3 -2 26.4 4.2
6 -3 -2 16.2 4
6 -3 -2 21.5 4.6
-6 -3 2 25.6 2.8
-6 -3 2 26.4 3.2
-6 3 2 22 3.9
6 3 -2 24.3 3.6
6 3 -2 27.4 6.6
6 3 -2 26 6.8
5 -3 -2 439.76 16.1
5 -3 -2 398.06 17.2
-5 -3 2 420.86 12.5
5 -3 -2 425.16 15.7
-5 -3 2 395.46 15
-5 -3 2 407.26 13.6
5 3 -2 430.16 20.2
5 3 -2 409.56 14.4
5 3 -2 404.36 18.5
-5 3 2 422.46 15.8
-4 -3 2 771.32 23.5
4 -3 -2 798.62 24.7
4 -3 -2 801.12 24.6
4 -3 -2 830.62 27.3
4 3 -2 765.52 28.7
-4 3 2 755.32 25
4 3 -2 800.32 23.3
4 3 -2 794.92 27.3
3 -3 -2 1111.89 35.1
-3 -3 2 1124.39 32.2
3 -3 -2 1104.19 31.8
3 3 -2 1119.49 30.9
3 3 -2 1100.29 35.9
3 3 -2 1110.89 34.3
-3 3 2 1115.29 33.1
-3 3 2 1096.59 36.8
-2 -3 2 399.56 14.5
2 -3 -2 429.96 13.2
2 -3 -2 405.86 16.4
-2 3 2 389.26 14.5
2 3 -2 408.06 13
2 3 -2 416.76 13.1
2 3 -2 427.46 15.4
-2 3 2 428.66 19
1 -3 -2 262.77 12.5
1 -3 -2 293.87 9
-1 -3 2 269.37 13.3
-1 -3 2 274.97 11.5
1 3 -2 326.07 10.7
-1 3 2 292.77 11.2
-1 3 2 290.57 11
-1 3 2 282.57 15.2
0 -3 -2 103.89 7.1
0 -3 2 108.29 6.9
0 -3 2 99.59 6.7
0 3 -2 110.79 5.7
0 3 2 100.89 5.6
0 3 2 91.59 10.3
-1 -3 -2 11.5 3.3
-1 -3 -2 14.1 4.1
1 -3 2 9 3.1
1 -3 2 4.6 2.5
1 -3 2 9.5 2.4
1 3 2 9.3 2.1
-1 3 -2 7.8 2.2
1 3 2 6.2 5.6
-2 -3 -2 2.5 1.5
2 -3 2 3.7 2.3
-2 -3 -2 2.4 3
-2 -3 -2 0.1 2.3
2 -3 2 5.8 3.5
2 -3 2 3.3 3
-2 3 -2 3.7 2.3
2 3 2 0.3 4.2
2 3 2 3.7 1.7
2 3 2 5.3 6
-3 -3 -2 229.58 10.9
-3 -3 -2 248.08 8.6
3 -3 2 235.78 12.1
3 -3 2 216.48 10.3
3 -3 2 235.38 12.6
-3 -3 -2 230.18 11.2
3 3 2 226.78 8.9
-3 3 -2 236.58 10.9
3 3 2 229.68 7.9
3 3 2 238.48 14.4
3 3 2 241.58 17
4 -3 2 -0.9 2.4
4 -3 2 4.2 3.3
-4 -3 -2 -3 2.9
-4 -3 -2 2 1.8
4 -3 2 4 3.9
-4 -3 -2 3 2.6
4 3 2 2.5 5.6
4 3 2 -0.1 1.3
4 3 2 0.4 6.5
4 3 2 1.1 1.6
4 3 2 8.9 4.7
-4 3 -2 1.2 2.1
5 -3 2 92.89 6.2
-5 -3 -2 92.89 6.9
5 -3 2 93.69 7.1
-5 -3 -2 84.89 6.6
-5 -3 -2 96.69 5.5
5 -3 2 87.69 8.2
5 3 2 92.19 5.5
5 3 2 93.29 11.3
5 3 2 85.99 12.6
-5 3 -2 100.59 7.1
5 3 2 81.89 9.9
6 -3 2 280.17 14.1
-6 -3 -2 287.57 12.5
-6 -3 -2 284.67 12.1
6 -3 2 285.37 13.5
6 -3 2 261.87 12.3
-6 -3 -2 284.47 11.2
6 3 2 283.07 11.5
6 3 2 284.27 20.6
6 3 2 309.77 17.9
6 3 2 306.67 19.6
-6 3 -2 257.67 12.6
-6 3 -2 282.57 13.1
-7 -3 -2 49.7 5.7
7 -3 2 49.9 6.5
7 -3 2 49.6 6.3
7 -3 2 55.39 7.4
-7 -3 -2 35.3 5
-7 -3 -2 51.59 5.2
7 3 2 47.3 9
-7 3 -2 41.9 5.9
7 3 2 53.79 5.7
7 3 2 56.09 12.3
-7 3 -2 48.5 6.2
7 3 2 50.29 11
8 -3 2 149.19 11.2
8 -3 2 143.69 10.8
-8 -3 -2 170.98 9.1
-8 -3 -2 146.59 8.9
-8 -3 -2 148.89 9.5
8 -3 2 167.58 11.2
8 3 2 119.29 13.5
8 3 2 148.49 16.7
8 3 2 170.68 20
8 3 2 159.58 9.5
-8 3 -2 159.88 10.3
-8 3 -2 154.78 10.1
-9 -3 -2 16.3 4.5
-9 -3 -2 14.3 4.2
9 -3 2 10.8 4.8
-9 -3 -2 9.3 4.1
9 -3 2 9.6 6.2
9 3 2 29.4 10.8
9 3 2 22.4 8.9
-9 3 -2 8.7 4.3
9 3 2 7.7 3.7
-9 3 -2 5.6 4
-10 -3 -2 34.3 5.5
10 -3 2 32.5 6.6
-10 -3 -2 35.4 5.7
10 -3 2 40.8 8.5
-10 3 -2 18.8 5.3
10 3 2 29.2 5.7
-10 3 -2 27.4 6.1
10 3 2 50.99 14.2
10 3 2 22 9.1
-11 -3 -2 70.29 8.1
11 -3 2 50.19 8.4
11 -3 2 56.59 10.5
-11 -3 -2 59.89 6.9
11 3 2 41.1 11.5
11 3 2 51.49 7.3
-11 3 -2 59.49 8
-11 3 -2 53.49 8.3
11 3 2 39.2 14.6
-12 -3 -2 1.1 3.4
12 -3 2 7.2 5.1
12 3 2 1.9 3.8
-12 3 -2 -4.4 3.9
-12 3 -2 0.4 3.9
12 3 2 8.9 9.3
12 3 2 -18.8 11.9
13 -3 2 63.19 10.2
-13 3 -2 79.79 10
13 3 2 88.99 16.7
13 3 2 70.99 9.8
-13 3 -2 91.99 11.5
13 3 2 80.59 18.8
14 -3 2 26.3 8
-14 3 -2 17.8 6.8
14 3 2 13.2 5.8
14 3 2 9.7 15.2
-14 3 -2 19.2 6.1
14 3 2 13.2 11.9
15 -3 2 3.1 5.7
-15 3 -2 1.7 5.9
15 3 2 6.4 17
15 3 2 3.8 11.5
-15 3 -2 -0.4 5
15 -4 -2 6.3 6.7
15 4 -2 -9.7 13.9
15 4 -2 -2.8 11.2
-15 4 2 -1 5.2
-15 4 2 10.5 5
14 -4 -2 76.69 11.8
14 4 -2 94.19 17.1
-14 4 2 63.19 9.2
-14 4 2 88.19 12.3
14 4 -2 40.6 17
13 -4 -2 53.49 9.5
13 4 -2 52.19 14.5
-13 4 2 77.19 10.9
-13 4 2 55.79 8.4
13 4 -2 60.29 17.1
12 -4 -2 -1.3 4.4
12 4 -2 -2.2 8.1
12 4 -2 7.8 11.5
-12 4 2 1.7 3.3
11 -4 -2 -7.3 5
11 -4 -2 -4.9 3.6
11 4 -2 -4.3 7.8
-11 4 2 1.2 3.3
11 4 -2 -2.1 3.1
11 4 -2 14.9 11.5
10 -4 -2 171.28 13.4
10 -4 -2 144.19 11.8
10 4 -2 121.09 15.7
10 4 -2 168.28 19.8
10 4 -2 146.19 10.3
-10 4 2 155.48 11
-9 -4 2 19.7 4.4
9 -4 -2 26.1 5.9
9 -4 -2 15.3 5.8
9 4 -2 24 4.8
9 4 -2 37.2 12
-9 4 2 31.2 6
9 4 -2 17.9 9
8 -4 -2 4.3 4.2
8 -4 -2 2.8 3.3
8 -4 -2 -2 4
-8 -4 2 -1.2 3.1
8 4 -2 11.4 8.7
8 4 -2 6.1 2.8
-8 4 2 4.8 3.2
8 4 -2 7.9 7.2
7 -4 -2 41.1 7
7 -4 -2 28.2 5.3
7 -4 -2 25.9 4.8
-7 4 2 24.8 4.8
-6 -4 2 2.2 2.6
-6 -4 2 1.4 2.7
6 -4 -2 -0.4 2.2
6 -4 -2 1.8 3
6 -4 -2 3.6 3.7
6 -4 -2 2.5 3.7
-6 4 2 2.1 2.6
6 4 -2 1.4 5.2
6 4 -2 -1.7 6.3
6 4 -2 2.1 1.8
5 -4 -2 132.49 8
-5 -4 2 131.59 7.9
5 -4 -2 143.09 10.2
5 -4 -2 128.89 8.1
-5 -4 2 143.89 8.1
5 -4 -2 162.38 11.2
-5 4 2 142.19 8.8
5 4 -2 132.59 6.7
-5 4 2 108.49 10.2
5 4 -2 116.09 12.3
5 4 -2 150.28 12.2
4 -4 -2 44.6 7.1
4 -4 -2 33.9 4
-4 -4 2 36.2 5
4 -4 -2 38.1 6.3
-4 -4 2 24.2 4.4
-4 4 2 36.3 7.2
4 4 -2 34.8 6.7
-4 4 2 42.4 5.4
4 4 -2 29.8 7
3 -4 -2 -0.9 3.1
3 -4 -2 -1.1 1.5
-3 -4 2 -0.1 2.5
-3 -4 2 -5.4 2.5
3 -4 -2 0.5 4
3 4 -2 4.4 4.3
3 4 -2 -0.4 3.9
-3 4 2 2.2 2.2
-3 4 2 8.3 5.4
3 4 -2 -1.1 1.4
-2 -4 2 325.87 14
-2 -4 2 317.47 14.1
2 -4 -2 370.16 16
2 -4 -2 326.87 15.7
2 -4 -2 345.37 11.4
-2 4 2 312.17 17.4
-2 4 2 315.77 13.5
2 4 -2 325.37 15.3
2 4 -2 339.67 12
-1 -4 2 2.7 3.1
1 -4 -2 0.4 4.4
-1 -4 2 0.1 3.4
1 -4 -2 1.4 1.1
1 -4 -2 2.6 3.4
-1 4 2 -0.7 1.8
-1 4 2 5.6 5.9
1 4 -2 2.5 2
-1 4 2 4.4 2.2
0 -4 -2 198.28 11.3
0 -4 2 168.58 10.5
0 -4 -2 187.58 11.3
0 -4 2 166.28 10.3
0 -4 2 174.28 7.7
0 4 2 174.58 8.6
0 4 -2 176.18 8.7
0 4 2 189.28 14.4
-1 -4 -2 239.18 12.6
1 -4 2 242.28 12.5
1 -4 2 223.08 12.5
1 -4 2 255.17 9.9
-1 -4 -2 238.88 12.8
-1 4 -2 243.08 10.9
1 4 2 234.58 17.1
1 4 2 234.78 10.2
-2 -4 -2 237.28 12.1
2 -4 2 221.88 9.7
2 -4 2 230.88 12.6
-2 -4 -2 238.38 12.4
2 -4 2 225.18 12.3
2 4 2 225.28 9.6
2 4 2 218.48 13.8
-2 4 -2 214.08 10.6
2 4 2 218.58 17
-3 -4 -2 394.56 16.8
3 -4 2 408.16 17.5
3 -4 2 417.06 17.9
-3 -4 -2 395.96 13
3 -4 2 409.76 15.2
-3 -4 -2 399.66 16.4
3 4 2 402.06 19.7
3 4 2 402.86 23.3
3 4 2 414.26 14.1
-3 4 -2 394.36 16.1
-4 -4 -2 519.25 19.2
-4 -4 -2 498.65 15.8
4 -4 2 513.45 18.6
4 -4 2 493.85 20.7
4 -4 2 512.95 20.7
-4 -4 -2 493.95 19.6
4 4 2 498.25 15
4 4 2 493.85 23.8
4 4 2 496.65 16.1
4 4 2 485.85 26.6
-4 4 -2 506.35 19.3
-5 -4 -2 26.2 5.2
5 -4 2 16.2 4
5 -4 2 16.3 3.5
-5 -4 -2 12.6 2.6
5 -4 2 17.1 5.4
-5 -4 -2 17.9 4.3
5 -4 2 25.4 6.1
5 4 2 18.1 2.7
5 4 2 19.1 8.9
5 4 2 13.6 7.8
-5 4 -2 19.1 4
-6 -4 -2 29.2 5.5
-6 -4 -2 34.9 5.6
6 -4 2 26.9 6.3
6 -4 2 22.8 4.8
-6 -4 -2 24.5 3.5
6 -4 2 27.2 6
6 4 2 17.5 10.1
-6 4 -2 33 5.5
6 4 2 36.1 10.7
-6 4 -2 17.9 4.4
6 4 2 24.5 3.5
6 4 2 45 9.2
7 -4 2 90.99 10.4
-7 -4 -2 89.19 8.7
7 -4 2 89.69 10.2
-7 -4 -2 70.09 6.3
7 -4 2 112.69 9.2
-7 -4 -2 79.79 8
7 4 2 73.39 6.1
-7 4 -2 74.29 8.1
7 4 2 47.1 11.9
7 4 2 76.49 11.7
-7 4 -2 106.19 8.3
7 4 2 99.89 17.2
8 -4 2 68.09 8.3
8 -4 2 77.09 10
-8 -4 -2 83.99 8.1
-8 -4 -2 92.59 8.9
-8 4 -2 77.19 8.6
-8 4 -2 72.99 8.5
8 4 2 62.89 7.2
8 4 2 81.79 16.2
8 4 2 107.29 15.2
8 4 2 69.89 14.7
-9 -4 -2 5.9 4.4
-9 -4 -2 5.3 3.7
9 -4 2 0.3 4.2
-9 4 -2 -0.4 3.3
9 4 2 9 10.7
-9 4 -2 2.7 3.6
9 4 2 4.9 7.7
9 4 2 -3.7 8.8
10 -4 2 5.2 5.2
-10 -4 -2 17.5 5.1
-10 4 -2 11.5 5.4
10 4 2 1.4 11.6
-10 4 -2 22.5 5.8
10 4 2 19.1 10
11 -4 2 55.39 9.2
-11 -4 -2 77.09 7.9
11 4 2 65.89 16.7
-11 4 -2 69.89 9.9
-11 4 -2 67.99 9.4
11 4 2 33 11.4
12 -4 2 11.2 6
-12 -4 -2 5.6 4.6
-12 4 -2 3.4 4.2
12 4 2 -4.2 13.2
-12 4 -2 5.6 5.2
12 4 2 8.9 10.1
13 -4 2 122.89 13.9
-13 4 -2 176.58 13.9
13 4 2 139.19 19.9
-13 4 -2 152.38 13
13 4 2 161.88 24.7
14 -4 2 0.8 5.3
14 4 2 13.2 16.5
-14 4 -2 9 5.3
-14 4 -2 8.7 5.8
14 4 2 -0.2 11.2
14 -5 -2 31.6 8.7
14 5 -2 52.49 15.4
-14 5 2 26.1 7.2
14 5 -2 11.9 16.6
-14 5 2 21.4 7.5
13 -5 -2 18.7 7.1
-13 5 2 18 5.9
-13 5 2 35.6 8.3
13 5 -2 12 14.8
13 5 -2 18 12.6
12 -5 -2 8.2 5.8
-12 5 2 6.8 5.1
12 5 -2 -6.1 12.5
12 5 -2 9.2 11.1
11 -5 -2 101.49 11.6
11 5 -2 105.99 18.8
11 5 -2 107.69 16.9
-11 5 2 140.29 12.9
10 -5 -2 49.1 8.1
10 5 -2 52.09 12.6
10 5 -2 44.1 14.2
-10 5 2 37.2 7.1
-9 -5 2 297.87 13.8
9 -5 -2 303.37 16.5
-9 5 2 306.47 16.2
9 5 -2 257.97 21.5
9 5 -2 310.87 25.7
8 -5 -2 77.19 10.7
8 -5 -2 64.09 8
-8 -5 2 59.89 7.3
8 5 -2 72.79 12.5
8 5 -2 59.49 13.6
-8 5 2 58.49 7.9
-7 -5 2 106.79 9.5
-7 -5 2 96.39 9.1
7 -5 -2 117.19 12.5
7 -5 -2 106.39 9.1
7 5 -2 93.99 13.1
7 5 -2 72.89 13.5
-7 5 2 112.89 10.8
6 -5 -2 234.48 15.3
-6 -5 2 224.88 12.1
6 -5 -2 233.28 14.6
-6 -5 2 224.98 12.4
6 -5 -2 230.88 12.1
6 -5 -2 229.78 12.6
-6 5 2 256.77 13.6
6 5 -2 237.88 19.9
6 5 -2 220.38 17
5 -5 -2 412.26 20.3
5 -5 -2 361.76 18.7
5 -5 -2 398.36 15.9
-5 -5 2 412.56 17.5
-5 -5 2 389.06 16.8
5 -5 -2 405.96 16
-5 5 2 414.96 17.7
5 5 -2 419.46 23.3
5 5 -2 375.66 20.7
-4 -5 2 31.8 5.7
4 -5 -2 25.9 6.3
4 -5 -2 27.2 4
-4 -5 2 24.3 5
4 -5 -2 39.4 7.2
4 5 -2 32.1 7.6
-4 5 2 33.2 7.7
-4 5 2 23.9 4.8
4 5 -2 19.3 7.3
-3 -5 2 538.55 20.7
3 -5 -2 486.15 21.6
3 -5 -2 514.05 22.7
-3 -5 2 501.65 19.9
3 -5 -2 500.55 16.9
3 5 -2 504.55 16.9
3 5 -2 477.95 22.2
-3 5 2 520.35 19.9
-3 5 2 509.45 23.2
-2 -5 2 34 5.9
2 -5 -2 35.1 7.1
2 -5 -2 36.1 6.9
-2 -5 2 24.1 5.2
2 -5 -2 24.5 2.9
-2 5 2 29.8 4.7
2 5 -2 29.6 3.9
-2 5 2 32.7 8.1
2 5 -2 18.9 5.7
1 -5 -2 27.9 6.2
1 -5 -2 36.2 7.5
-1 -5 2 36.7 6.6
1 -5 -2 24.1 2.4
-1 -5 2 34.2 6.2
-1 -5 2 28.9 3.3
-1 5 2 41.1 9.2
-1 5 2 40.8 5.6
1 5 -2 36.2 4.5
1 5 -2 29.8 6.1
1 5 -2 29.3 4.3
-1 5 2 22.7 4.2
0 -5 2 99.99 9.9
0 -5 2 91.59 5.6
0 -5 -2 91.89 10.1
0 -5 -2 109.49 11.1
0 -5 2 98.19 9.7
0 5 2 111.69 14
0 5 -2 102.09 7.1
0 5 2 89.09 6.7
-1 -5 -2 -8.5 4.3
1 -5 2 -0.4 2.2
1 -5 2 1.9 3.5
-1 -5 -2 5.5 4.1
1 -5 2 7.8 4.5
1 5 2 3 2.6
1 5 2 4.5 6.5
-1 5 -2 2.4 2.3
-2 -5 -2 80.39 9
2 -5 2 80.09 9.4
2 -5 2 83.89 6.2
-2 -5 -2 87.19 10
2 -5 2 80.69 9.6
2 5 2 72.89 5.8
2 5 2 79.39 13.1
-2 5 -2 69.79 7.4
3 -5 2 4.5 2.7
-3 -5 -2 15.1 5.6
3 -5 2 4.2 4
-3 -5 -2 4.7 4.1
3 -5 2 -3.9 3.6
3 5 2 4.4 7
3 5 2 2.2 2.3
-3 5 -2 10.6 3.6
3 5 2 -3.8 6.5
4 -5 2 237.08 14.8
-4 -5 -2 220.18 13.5
-4 -5 -2 219.78 12.9
4 -5 2 229.88 11.4
4 -5 2 213.18 13.8
-4 5 -2 224.98 12.4
4 5 2 211.98 22.3
4 5 2 250.87 19.4
5 -5 2 27.4 7
5 -5 2 18.3 4.3
5 -5 2 23.6 6.6
-5 5 -2 20.8 4.9
-6 -5 -2 8.3 5
6 -5 2 17.3 6.2
6 -5 2 17.1 6.3
-6 -5 -2 20.7 6.1
6 -5 2 14.8 4.5
6 5 2 5.5 10.3
-6 5 -2 19.9 5
6 5 2 24.3 12.1
-6 5 -2 24.5 5.2
7 -5 2 16 6.4
-7 -5 -2 25 6.8
7 -5 2 11.6 5
7 -5 2 8.9 6.4
-7 -5 -2 21.1 6
-7 5 -2 14.5 4.8
-7 5 -2 21.2 5.3
7 5 2 36.9 13
7 5 2 11.4 11.3
-8 -5 -2 478.85 20.6
-8 -5 -2 430.76 19.2
8 -5 2 411.66 22.5
8 -5 2 438.36 20.7
-8 5 -2 415.06 19.3
8 5 2 444.36 31.1
-8 5 -2 391.96 19.6
8 5 2 488.45 31.3
9 -5 2 10.2 9.2
-9 -5 -2 1.9 4.3
9 -5 2 -0.7 3.6
9 5 2 -0.2 9.6
9 5 2 -0.5 10.5
-9 5 -2 5.8 4.2
-9 5 -2 -2.2 3.4
-10 -5 -2 89.39 9.6
10 -5 2 90.69 11
-10 5 -2 76.59 9.7
10 5 2 83.89 17.5
10 5 2 78.39 14
-10 5 -2 88.19 10.7
11 -5 2 19.5 6.6
-11 -5 -2 18.8 5.8
-11 5 -2 9.2 5
-11 5 -2 15.3 5.7
11 5 2 17.2 11.4
11 5 2 16.1 14.4
12 -5 2 38.1 9.1
-12 5 -2 51.59 9.4
12 5 2 42.5 13.8
12 5 2 41.5 16.9
-12 5 -2 59.49 9.6
13 -5 2 13.4 6.8
-13 5 -2 7.8 5.3
-13 5 -2 12.4 6.2
13 5 2 5.3 11.4
13 5 2 5.3 16.2
14 -5 2 43.9 9.7
-14 5 -2 53.19 9.8
-14 5 -2 36.7 9.1
14 5 2 53.59 20.5
14 5 2 25.2 14.7
13 -6 -2 -5 5.1
-13 6 2 -1.1 4.7
-13 6 2 6.6 5.7
13 6 -2 12.6 16.3
13 6 -2 2.1 12.2
12 -6 -2 14.3 6.5
-12 6 2 9 5.5
12 6 -2 4.6 14.5
12 6 -2 6.5 11.6
11 -6 -2 34 7.7
11 6 -2 62.99 18.7
-11 6 2 66.09 9.7
11 6 -2 48.3 14.6
10 -6 -2 3.3 4.7
-10 -6 2 6 5.2
10 6 -2 -4.5 8.8
10 6 -2 9.3 12.7
-10 6 2 9 5.4
9 -6 -2 0.4 4.4
-9 -6 2 8.2 4.8
9 6 -2 9.7 12
9 6 -2 8.5 9.8
-9 6 2 15 5.4
8 -6 -2 7.5 4.3
8 -6 -2 8.5 6.4
-8 -6 2 5.1 4.8
8 6 -2 0.8 10.4
-8 6 2 17.7 5.3
8 6 -2 5.1 9
7 -6 -2 1.2 5.1
-7 -6 2 -2.8 4.3
-7 -6 2 1.1 4.3
7 -6 -2 -5.1 2.8
-7 6 2 3.3 3.6
7 6 -2 -8 7
7 6 -2 -0.6 8.8
6 -6 -2 22 4.8
-6 -6 2 26.7 6.9
6 -6 -2 16.1 7.1
6 -6 -2 16 6.7
-6 -6 2 21.7 6.4
-6 6 2 17.8 5.3
6 6 -2 26.1 11
-5 -6 2 18.8 6.1
5 -6 -2 24.2 7.5
5 -6 -2 9.8 6.4
-5 -6 2 23.7 6.3
5 6 -2 16.7 10
-5 6 2 11.4 4.7
4 -6 -2 49.8 9.4
4 -6 -2 36.4 8.1
-4 -6 2 36.1 7.5
-4 -6 2 39 7.6
-4 6 2 44 6.9
4 6 -2 48.4 10.8
-3 -6 2 16.9 6.1
3 -6 -2 17.6 6.9
3 -6 -2 11.4 6.3
-3 -6 2 10.4 5.4
3 6 -2 12.6 8.1
-3 6 2 10.1 4.3
-3 6 2 26.1 8.7
-2 -6 2 -4.9 4.2
2 -6 -2 0.4 5
2 -6 -2 -0.4 4.5
-2 -6 2 -4 4.3
2 6 -2 1.6 6.5
-2 6 2 1.8 6.9
-2 6 2 0.5 3
2 6 -2 -1.1 2.2
-2 6 2 1 2.8
-1 -6 2 15.4 5.9
1 -6 -2 21.4 7.4
1 -6 -2 16.9 6.6
-1 -6 2 5.7 5
-1 6 2 10.2 3.8
1 6 -2 14.8 3.9
-1 6 2 10.1 7.9
-1 6 2 14.9 4.3
1 6 -2 15.4 3.8
0 -6 -2 26 7.5
0 -6 2 18 6.4
0 -6 -2 12.4 6.3
0 -6 2 23.9 6.6
0 6 2 14.6 4.1
0 6 -2 22.9 4.7
0 6 2 30.3 10.5
-1 -6 -2 80.69 10.5
1 -6 2 81.09 10.2
1 -6 2 80.29 10.6
1 6 2 81.69 14.9
-1 6 -2 91.19 8.6
1 6 2 78.79 7.7
-2 -6 -2 10.1 5.5
-2 -6 -2 22.9 7.3
2 -6 2 10.7 5.8
2 -6 2 20.3 6.6
-2 6 -2 10.1 3.9
2 6 2 18.5 4.1
2 6 2 10.5 9.7
3 -6 2 29 6.3
-3 -6 -2 33.2 7.5
-3 -6 -2 31.6 7.3
3 -6 2 38.5 8.5
3 -6 2 24.3 7.3
3 6 2 40.1 13.4
-3 6 -2 28.6 5.9
-4 -6 -2 104.59 11.2
4 -6 2 123.99 14
-4 -6 -2 106.79 11.6
4 -6 2 101.19 12.2
4 -6 2 101.19 8.2
4 6 2 137.69 20.9
-4 6 -2 116.39 9.9
4 6 2 124.59 15.9
5 -6 2 -3.1 2.9
5 -6 2 3.9 6.2
-5 -6 -2 5.6 5.5
5 -6 2 3.7 6.1
-5 -6 -2 -3.1 4.9
5 6 2 -10.8 9.1
-5 6 -2 0.8 3.5
-5 6 -2 0.9 3
5 6 2 6.5 10.6
6 -6 2 16.3 7
6 -6 2 1 3.6
6 -6 2 -3.6 5.4
-6 -6 -2 8 5.8
-6 -6 -2 22.4 6.9
-6 6 -2 6.1 4
6 6 2 -3.6 9.4
-6 6 -2 7.2 3.8
6 6 2 21 11.2
7 -6 2 3.9 6.1
7 -6 2 10.9 4.8
7 -6 2 7.9 6
-7 -6 -2 0 4.6
-7 -6 -2 5.4 5.8
-7 6 -2 4.4 4.1
-7 6 -2 5.1 3.7
7 6 2 1.6 10.3
7 6 2 14.1 11.5
8 -6 2 24.7 6.2
-8 -6 -2 16.1 7
-8 -6 -2 35.3 7.3
8 -6 2 34.2 8.8
8 6 2 36.3 13.2
-8 6 -2 37.4 7.3
-8 6 -2 34.9 7.1
8 6 2 33 13.8
9 -6 2 1 5.7
9 -6 2 -0.9 4.2
-9 -6 -2 -2.7 4.9
9 6 2 7.9 12.3
9 6 2 -12 7.9
-9 6 -2 -1.5 3.7
-9 6 -2 0.1 3.9
10 -6 2 11.2 6
-10 -6 -2 8.3 6
-10 6 -2 11.5 5.3
10 6 2 8.2 14.2
-10 6 -2 18.6 6.1
-11 -6 -2 13.6 5.8
11 -6 2 -3.2 5
11 6 2 -15.9 13.4
-11 6 -2 5 5.2
-11 6 -2 2.7 5.2
12 -6 2 -0.2 5.5
-12 -6 -2 11.4 8.5
12 6 2 -16.1 14.5
-12 6 -2 3.7 5.4
-12 6 -2 -1.9 4.4
13 -6 2 2.7 5.9
-13 6 -2 8.6 5.5
-13 6 -2 0.5 4.9
13 6 2 1.7 17.6
-12 7 2 124.29 14.2
12 7 -2 111.39 24.2
-12 7 2 123.09 14.5
11 7 -2 3.1 14.7
-10 -7 2 46.4 9
-10 7 2 45.5 8.8
10 7 -2 47.1 17.6
-9 -7 2 14.2 6.7
-9 7 2 17.4 6.3
9 7 -2 21.7 15
8 -7 -2 14.7 8.3
-8 -7 2 27.2 7.2
8 7 -2 37.7 15
-8 7 2 33.7 7.3
-7 -7 2 -2.8 5.1
-7 -7 2 0.4 5.3
7 -7 -2 5.5 6.7
-7 7 2 -5.1 3.3
7 7 -2 2.6 10.5
-6 -7 2 18.2 6.9
6 -7 -2 17.8 7.5
6 -7 -2 18.4 8
-6 -7 2 12 6.3
6 7 -2 10 10.6
-6 7 2 29.6 7
5 -7 -2 9.1 6
5 -7 -2 8.1 6.5
-5 -7 2 -9.9 5.3
-5 -7 2 1.2 5
5 7 -2 7.1 9.6
-5 7 2 -1.9 3.5
4 -7 -2 -2.2 5.5
4 -7 -2 -3.3 5.5
-4 -7 2 5.2 5.7
-4 -7 2 10.2 6.2
4 7 -2 -8.1 8.7
-4 7 2 0.7 3.6
3 -7 -2 58.69 11
-3 -7 2 57.29 9.6
3 -7 -2 30.9 8.1
-3 -7 2 33.7 8.7
-3 7 2 39 6.9
-3 7 2 42.3 7.4
2 -7 -2 -4.4 5.1
-2 -7 2 -0.5 6.1
-2 -7 2 -3.3 5.2
2 -7 -2 10.6 6.5
-2 7 2 2.9 3.7
-2 7 2 0.7 3.3
-2 7 2 5.1 8.7
1 -7 -2 -1.5 5.8
-1 -7 2 -2.8 5.7
1 -7 -2 6.3 6.5
-1 -7 2 2.9 6.3
1 7 -2 5.4 3.4
-1 7 2 3.1 3.6
-1 7 2 -8 7.6
0 -7 -2 28.5 8.6
0 -7 -2 43.6 9.4
0 -7 2 33.7 9
0 -7 2 18.7 8
0 7 2 34.5 12.5
0 7 -2 30.2 5.7
0 7 2 37 6.1
0 7 -2 29.1 5.8
1 -7 2 10.3 7
-1 -7 -2 7.4 6.5
1 -7 2 1.7 6.4
-1 -7 -2 9.2 6.5
-1 7 -2 6.1 3.8
1 7 2 19.6 11.5
1 7 2 6 3.7
-2 -7 -2 67.99 11.4
2 -7 2 74.89 11.9
2 -7 2 44.8 9.6
-2 -7 -2 50.89 9.7
2 7 2 87.79 17.3
-2 7 -2 62.79 8.2
-3 -7 -2 18.9 7.5
-3 -7 -2 27.7 8
3 -7 2 23 8.4
3 -7 2 18 8.1
3 7 2 0 8.4
-3 7 -2 28.8 6.3
4 -7 2 7.4 7.1
4 -7 2 19.7 8.3
-4 -7 -2 12.1 6.6
-4 -7 -2 14.4 7
-4 7 -2 14.2 5.1
4 7 2 11.6 12.1
-5 -7 -2 66.19 10.6
-5 -7 -2 75.29 11.2
5 -7 2 81.79 12.5
5 -7 2 86.39 12.6
-5 7 -2 86.89 10.5
5 7 2 73.99 15.5
-5 7 -2 79.49 8.6
5 7 2 86.09 18.4
6 -7 2 21.6 8.3
6 -7 2 22.1 8.5
-6 -7 -2 8.5 6.6
-6 -7 -2 25.3 7.9
-6 7 -2 15.3 5.6
6 7 2 28.9 13.1
-6 7 -2 14 4.6
6 7 2 13.9 12.1
7 -7 2 8.8 9.4
-7 -7 -2 14.2 6.7
-7 -7 -2 0.7 6.1
7 -7 2 -1.9 6.1
7 7 2 5.6 10.5
-7 7 -2 7.6 4.6
-7 7 -2 3.1 4.7
7 7 2 2.8 12.7
-8 -7 -2 8.7 7.5
-8 -7 -2 13.4 6.9
8 -7 2 27.5 9.2
-8 7 -2 37 8
8 7 2 16.6 14.9
-8 7 -2 22.9 6.3
8 7 2 21.9 12.9
9 -7 2 48.6 11.3
-9 -7 -2 42.2 9.6
-9 7 -2 28.4 7.9
9 7 2 18.2 15.2
-9 7 -2 47.9 8.9
-10 -7 -2 2.4 6.2
-10 7 -2 -6.1 4.5
10 7 2 -16.9 12.9
-10 7 -2 -2 4.3
11 -7 2 64.79 11.2
-11 -7 -2 36 9
11 7 2 46.9 20.4
-11 7 -2 48 9.7
-11 7 -2 55.09 9.9
-10 -8 2 28.2 8.5
10 8 -2 -2.7 15.4
-10 8 2 3.7 5.8
-9 -8 2 35 9.5
9 8 -2 34 18
-9 8 2 15.4 6.7
-8 -8 2 5.1 6.6
8 -8 -2 17.7 9.5
8 8 -2 -11.5 12.8
-8 8 2 -0.8 4.8
-7 -8 2 118.89 14.2
7 -8 -2 130.39 17.6
-7 -8 2 90.99 13.5
-7 8 2 133.69 14.6
7 8 -2 92.29 19
-6 -8 2 3.3 6.3
6 -8 -2 7.3 7.6
-6 -8 2 6.3 6.8
6 -8 -2 3.9 7.6
-6 8 2 0.1 5.2
-5 -8 2 263.87 19.2
5 -8 -2 255.47 20
5 -8 -2 271.47 21.4
-5 -8 2 231.08 17.8
-5 8 2 289.97 17.8
-5 8 2 285.67 17.1
-4 -8 2 18.8 7.8
4 -8 -2 17.4 8.6
4 -8 -2 2.2 7.3
-4 -8 2 12.7 7
-4 8 2 7.2 5.1
-4 8 2 8.7 5.5
-3 -8 2 -11.5 5
3 -8 -2 12.6 8
3 -8 -2 10.7 7.5
-3 -8 2 -5.3 6.3
-3 8 2 4.4 4.6
-3 8 2 21.4 6
-2 -8 2 266.87 19.3
-2 -8 2 281.17 19.6
2 -8 -2 243.48 19
2 -8 -2 278.17 20.5
-2 8 2 257.37 15.2
1 -8 -2 41.3 10.4
1 -8 -2 42.2 10
-1 -8 2 61.49 11.2
-1 -8 2 42.9 10
-1 8 2 40.9 6.9
0 -8 -2 27.9 8.8
0 -8 -2 17.6 8.2
0 -8 2 21.3 9
0 -8 2 24.9 8.6
0 8 2 23.1 5.7
0 8 2 24.2 10.9
-1 -8 -2 18.7 8.3
1 -8 2 64.79 11.6
1 -8 2 71.19 11.8
-1 -8 -2 49.1 10.2
-1 8 -2 28.5 6.3
1 8 2 36.3 12.6
-1 8 -2 38.9 7.3
2 -8 2 21 9
2 -8 2 2.4 6.3
-2 -8 -2 6.5 7
-2 -8 -2 -1.5 6.2
2 8 2 7.9 10.1
-2 8 -2 13.9 5.4
-3 -8 -2 9.1 7.2
3 -8 2 20.1 8.5
-3 -8 -2 10.2 7.4
3 -8 2 20.9 9.4
-3 8 -2 10.1 5.1
3 8 2 15.3 12.2
4 -8 2 8.2 7.9
-4 -8 -2 3.3 6.5
-4 -8 -2 4.1 6.6
4 -8 2 14.3 7.9
4 8 2 12.2 10.6
-4 8 -2 7.8 5.2
-5 -8 -2 1.5 7.2
5 -8 2 17.5 9
5 -8 2 0.5 7.4
-5 -8 -2 16.2 7.9
5 8 2 16.3 12.3
-5 8 -2 0.3 4.6
-6 -8 -2 42.6 10.5
-6 -8 -2 36.4 10.2
6 -8 2 67.99 13.6
6 -8 2 42.1 11.3
6 8 2 56.49 17.7
-6 8 -2 85.69 12.5
-7 -8 -2 39.7 9.9
-7 -8 -2 34.4 10.3
7 -8 2 18.4 9.4
-7 8 -2 41.1 9.3
8 -8 2 -1.9 7.1
-8 -8 -2 -4.9 6.5
-8 -8 -2 -18.2 5.8
-8 8 -2 6.1 5.8
-9 -8 -2 69.89 11.9
9 -8 2 100.49 19.4
-9 8 -2 101.29 13.9
-9 8 -2 87.89 11.6
-10 -8 -2 30.4 9.2
-10 8 -2 48.2 9.6
-8 -9 2 2 7.9
8 -9 -2 1 10
-8 9 2 2.6 6.7
-7 -9 2 51.49 11.8
-7 -9 2 16 8.7
7 -9 -2 28.3 12.2
-7 9 2 30.4 9.3
-7 9 2 32.4 9.5
-6 -9 2 27.8 9.6
6 -9 -2 16.2 8.7
-6 -9 2 7.4 7.4
6 -9 -2 16.7 9.6
-6 9 2 5.4 6.8
-6 9 2 7.7 5.8
-5 -9 2 18.4 8.9
5 -9 -2 16.3 8.6
5 -9 -2 2.2 8.7
-5 -9 2 12.4 8.8
-5 9 2 17.7 6.7
-5 9 2 29.9 8.5
-4 -9 2 68.99 13
-4 -9 2 38.1 10.8
4 -9 -2 41.4 12.6
4 -9 -2 41.5 11.7
-4 9 2 54.09 10.3
-4 9 2 53.29 9.3
3 -9 -2 33.3 10
-3 -9 2 38.2 10.5
3 -9 -2 8.9 9
-3 -9 2 32.5 10
-3 9 2 33 7.8
2 -9 -2 48.8 12.6
2 -9 -2 53.79 12
-2 -9 2 58.99 11.8
-2 -9 2 37.9 10.7
-2 9 2 46.5 8.5
-1 -9 2 48 11.6
1 -9 -2 32.3 10.6
1 -9 -2 36.6 11
-1 -9 2 25.1 10
0 -9 -2 85.79 14
0 -9 2 120.19 15.7
0 -9 2 85.09 14.3
0 -9 -2 97.09 15
1 -9 2 6.4 8.2
-1 -9 -2 -1.9 8
-1 -9 -2 3.8 8.2
1 -9 2 13.4 9.2
1 9 2 7.9 10.6
2 -9 2 0.2 7.3
2 -9 2 10.1 7.8
-2 -9 -2 -1.5 7
-2 -9 -2 -7.6 7.6
-2 9 -2 -6.9 4
-2 9 -2 -4.1 4
2 9 2 -8.8 9.8
3 -9 2 40.3 10.8
3 -9 2 22.2 9.6
-3 -9 -2 36.8 11.2
-3 -9 -2 2.9 8.5
-3 9 -2 27.6 7.6
3 9 2 29.4 13.5
-3 9 -2 16.9 6.6
4 -9 2 14.9 10.1
-4 -9 -2 11 8.8
-4 -9 -2 -1.7 7.7
4 -9 2 -10.3 6
-4 9 -2 -0.5 5.3
4 9 2 9.4 10.7
5 -9 2 10.6 9.2
-5 -9 -2 16.7 9.4
5 -9 2 4.7 8
-5 -9 -2 30.8 10.2
-5 9 -2 14.2 7.2
-6 -9 -2 4.4 8
6 -9 2 16.6 9.9
6 -9 2 7.9 8.5
-6 -9 -2 16.9 9.7
-6 9 -2 18.1 7.4
7 -9 2 3.7 9
-7 -9 -2 1.6 7.5
-7 -9 -2 -4.9 7.2
-7 9 -2 19.1 7.6
-4 -10 2 41.3 11.7
4 -10 -2 40 12.4
-4 -10 2 53.09 12.9
4 -10 -2 59.09 15.1
-3 -10 2 9.5 9.1
3 -10 -2 5.5 9.6
-3 -10 2 3.6 8.5
3 -10 -2 -8 7.5
-2 -10 2 44.5 12
2 -10 -2 34.1 12.1
-2 -10 2 38.6 11.5
2 -10 -2 37.8 11.8
-1 -10 2 -0.4 7.6
1 -10 -2 -0.6 7.6
1 -10 -2 -8.4 7.5
-1 -10 2 9.3 9.5
0 -10 -2 4.3 7.8
0 -10 -2 -13.1 7.3
0 -10 2 -1 7.9
0 -10 2 -1.4 8
-1 -10 -2 -2 8.6
1 -10 2 5.1 8.7
1 -10 2 -2.1 8.4
-1 -10 -2 0.5 8.9
-2 -10 -2 60.09 13.6
2 -10 2 66.89 14.3
2 -10 2 42 12.7
-2 -10 -2 58.99 13.8
-3 -10 -2 3.4 8.9
3 -10 2 -5 8
3 -10 2 13.7 10.5
-3 -10 -2 5.4 9.5
16 0 -3 -3.4 4.4
16 0 -3 -24.8 12.4
16 0 -3 -18.1 8.4
-16 0 3 6.1 5.5
15 0 -3 -2.2 4.1
15 0 -3 -9.1 8.3
-15 0 3 -8.1 4.4
15 0 -3 -9.5 11.7
14 0 -3 10.2 9.3
14 0 -3 -1.2 3.9
14 0 -3 -9.8 10
-14 0 3 2.9 4.8
13 0 -3 -10.9 8.5
-13 0 3 0.8 4
13 0 -3 1.5 7.6
13 0 -3 -2.2 3.3
12 0 -3 -9.4 6.2
-12 0 3 -1.8 3.2
12 0 -3 2.2 8.6
12 0 -3 0.4 3.2
11 0 -3 -2.7 3
11 0 -3 11.2 8.8
11 0 -3 -3.7 6.2
10 0 -3 0.3 2.5
-10 0 3 -0.8 1.9
10 0 -3 0.4 6.7
10 0 -3 3.2 5.5
-9 0 3 1.5 1.7
9 0 -3 7.5 5.5
9 0 -3 0.8 2.5
9 0 -3 8.3 5.9
8 0 -3 2 4
-8 0 3 -0.5 1.3
8 0 -3 -2.3 1.8
8 0 -3 5.5 4.9
7 0 -3 -2.8 1.5
7 0 -3 -4.3 3.8
7 0 -3 -0.9 3.5
-7 0 3 0.2 1.3
6 0 -3 -2.2 3.3
6 0 -3 2.2 2.7
6 0 -3 -1.9 4.2
-6 0 3 1.9 1.5
-5 0 3 -1.1 0.8
5 0 -3 -1 2.4
5 0 -3 -1 2.7
5 0 -3 -0.2 1.6
4 0 -3 4.4 2.4
-4 0 3 1.8 0.7
4 0 -3 1.6 1.2
3 0 -3 0.6 2.5
3 0 -3 0.8 1.5
2 0 -3 1.1 1.1
1 0 -3 -1.6 0.7
-1 0 3 -0.4 0.6
1 0 -3 0 0.8
0 0 -3 -0.8 1.2
0 0 -3 -1 1
0 0 3 0.1 1.1
1 0 3 -0.1 1
-1 0 -3 0 0.9
-1 0 -3 -0.3 1.1
2 0 3 2 2.4
-2 0 -3 0.1 1.7
2 0 3 -4.3 1.4
-2 0 -3 0.1 1.3
3 0 3 -0.3 2.9
-3 0 -3 0.1 1.6
3 0 3 -6.1 4.9
3 0 3 -0.8 1.3
3 0 3 -1.2 1.9
-3 0 -3 0.7 1.6
4 0 3 1.7 1.7
4 0 3 4.1 4
-4 0 -3 0.1 1.6
4 0 3 -0.2 1.7
4 0 3 1.7 3.1
-4 0 -3 -0.2 1.6
5 0 3 2.5 3.7
5 0 3 -1 4.7
-5 0 -3 0.6 2.3
5 0 3 -2.4 2.1
5 0 3 -2.9 2.3
-5 0 -3 2.3 2.6
5 0 3 -0.4 4.6
-5 0 -3 -1.9 2.4
6 0 3 -2.7 4.1
6 0 3 -2 1.7
6 0 3 3 2.2
6 0 3 4 5.5
6 0 3 -2.7 3.5
-6 0 -3 0.3 2
-6 0 -3 -1.9 1.7
-6 0 -3 1.3 2.1
7 0 3 1.8 6.3
-7 0 -3 1 2.5
7 0 3 0.1 4.2
7 0 3 -0.1 2.3
7 0 3 2 5
-7 0 -3 2.5 2.1
7 0 3 0.1 2
-7 0 -3 -1.1 1.9
-8 0 -3 -4.4 1.8
8 0 3 5.2 5.7
-8 0 -3 -2.5 2.2
8 0 3 0.9 2.5
8 0 3 -6.9 4.4
-8 0 -3 5.1 3.2
8 0 3 11.4 7.5
-9 0 -3 -2.9 2.1
9 0 3 0.3 2.8
9 0 3 6.7 6.4
9 0 3 1.1 8.3
-9 0 -3 2.1 2.9
-9 0 -3 -2.6 2.8
10 0 3 -1.4 3.4
-10 0 -3 7.1 3.5
-10 0 -3 9.3 3.2
10 0 3 7.2 9.9
10 0 3 -10 6.7
-10 0 -3 9 4.4
-11 0 -3 0 2.8
11 0 3 -0.6 10.1
-11 0 -3 6 4.3
11 0 3 1.1 3.6
11 0 3 0.2 7.4
-11 0 -3 0.3 3.2
12 0 3 -4.7 3.4
12 0 3 12.7 8.7
-12 0 -3 -4.2 3.4
12 0 3 -8.1 9.9
-12 0 -3 -6.7 2.5
-12 0 -3 -1.1 2.9
13 0 3 6.9 4.7
-13 0 -3 -3.9 4.1
13 0 3 -13.2 11.4
13 0 3 -6.3 8.2
14 0 3 -32.4 11.3
14 0 3 -13.3 9.1
14 0 3 3.5 4.9
-14 0 -3 -1.2 4.7
-15 0 -3 -10.2 4.8
15 0 3 -1.2 4.6
15 0 3 -37.3 12.5
15 0 3 -4.1 10.2
16 -1 -3 82.29 16.6
-16 -1 3 72.19 10.7
16 -1 -3 64.39 10.9
16 1 -3 69.49 16.2
-16 1 3 78.19 11.6
16 1 -3 73.69 11.1
16 1 -3 17.5 16.3
-15 -1 3 40.5 8.2
15 -1 -3 7.6 12.6
15 -1 -3 21.5 11.2
15 -1 -3 19.5 6.5
15 1 -3 29.6 12.2
15 1 -3 24.5 7.6
15 1 -3 -2.7 12.9
-15 1 3 36.7 8.5
14 -1 -3 52.39 12.5
-14 -1 3 41.2 7.4
14 -1 -3 33.8 13.4
14 -1 -3 34.4 7.5
14 1 -3 40.3 14.1
14 1 -3 49.6 8.8
14 1 -3 28.1 12
-14 1 3 38.1 8
13 -1 -3 22.6 10.8
13 -1 -3 25.6 6.3
13 -1 -3 27.9 9.9
-13 -1 3 23.9 6.2
13 1 -3 18.7 9.3
13 1 -3 18.6 11.2
13 1 -3 16.1 5.5
-13 1 3 28.7 6.6
12 -1 -3 49.6 11.4
12 -1 -3 46.4 7.6
12 -1 -3 50.19 10.3
-12 -1 3 50.79 7.5
12 1 -3 33.1 6.3
12 1 -3 53.79 11.6
12 1 -3 53.19 12.6
-12 1 3 54.39 6.1
11 -1 -3 361.96 22
11 -1 -3 375.96 23.6
-11 -1 3 408.66 17.2
-11 -1 3 377.06 13.8
11 -1 -3 360.86 18.6
11 1 -3 368.36 23.4
11 1 -3 381.56 18.4
-11 1 3 361.96 14.8
11 1 -3 386.36 25.7
10 -1 -3 344.97 19.6
-10 -1 3 367.76 15.4
10 -1 -3 328.37 16.7
-10 -1 3 331.27 11
10 -1 -3 332.27 20.2
10 1 -3 367.36 21.6
-10 1 3 346.27 13.5
10 1 -3 335.97 16.4
10 1 -3 319.57 22.2
-9 -1 3 115.49 4.7
9 -1 -3 113.09 8.9
9 -1 -3 117.49 11.7
9 -1 -3 117.49 11.9
9 1 -3 95.59 11.4
9 1 -3 94.89 12.2
-9 1 3 109.89 6.6
9 1 -3 114.49 8.6
8 -1 -3 265.17 13
8 -1 -3 265.27 14.9
8 -1 -3 277.77 15.8
8 1 -3 260.67 17.2
8 1 -3 275.07 16.1
-8 1 3 281.77 10.8
8 1 -3 261.57 12.7
7 -1 -3 987.6 31.1
7 -1 -3 897.31 32.1
7 -1 -3 966.3 32.9
7 1 -3 950.5 34.8
-7 1 3 960 28.1
7 1 -3 994.1 33.9
7 1 -3 950 30.4
6 -1 -3 5.5 3.6
6 -1 -3 4.3 3.9
6 -1 -3 0.8 2.4
6 1 -3 6.3 2.4
6 1 -3 6.5 4.2
-6 1 3 0.6 1.6
6 1 -3 1.8 3.9
5 -1 -3 1083.29 32.4
5 -1 -3 1078.19 33.3
5 1 -3 1077.79 34.3
5 1 -3 1091.09 31.9
5 1 -3 1085.39 35.5
-5 1 3 1077.79 30.3
4 -1 -3 2322.17 62.29
4 -1 -3 2331.27 63.09
4 -1 -3 2318.87 62.09
4 1 -3 2423.46 66.19
4 1 -3 2220.68 61.69
4 1 -3 2256.67 63.59
-4 1 3 2200.88 60.59
3 -1 -3 131.89 7
3 -1 -3 140.79 6.3
3 -1 -3 134.89 6.1
3 1 -3 131.09 6
-3 1 3 119.99 5.3
3 1 -3 112.69 6.9
2 -1 -3 847.52 25
2 -1 -3 885.11 24.3
-2 1 3 846.32 24
2 1 -3 863.91 24.3
1 -1 -3 3903.01 101.29
1 -1 -3 3910.71 99.79
-1 -1 3 3816.72 99.69
-1 1 3 3867.41 100.09
0 -1 -3 1290.57 34.7
0 -1 -3 1206.98 33.2
0 -1 3 1214.08 33.6
0 1 3 1251.77 33.4
0 1 -3 1206.78 33.5
-1 -1 -3 3951.8 107.29
1 -1 3 4119.49 106.99
-1 -1 -3 4021.1 106.09
-1 1 -3 4035.9 106.89
-1 1 -3 4150.88 106.19
1 1 3 4101.09 106.19
1 1 3 4404.86 114.09
-2 -1 -3 263.37 9.2
-2 -1 -3 255.27 10.1
2 -1 3 270.27 10.8
2 -1 3 259.87 10.1
-2 1 -3 246.08 9.2
2 1 3 260.17 9
2 1 3 295.67 16.8
2 1 3 266.57 9.7
-2 1 -3 256.87 9.8
3 -1 3 6.4 2.4
-3 -1 -3 7.5 2.2
-3 -1 -3 3.9 1.7
3 -1 3 7.6 2.3
3 1 3 7.8 5.4
-3 1 -3 3.6 1.6
-3 1 -3 3.5 1.5
3 1 3 6.5 3.6
3 1 3 1.6 1.6
3 1 3 3.5 1.3
-4 -1 -3 14.9 2.6
-4 -1 -3 14.4 2.9
4 -1 3 12.8 3.1
4 -1 3 13.1 3
4 -1 3 9.6 2.6
4 -1 3 12.1 3.7
4 1 3 6.2 5.5
4 1 3 5.7 5
4 1 3 9.8 2.5
-4 1 -3 13.4 2.8
-4 1 -3 12.4 2.4
4 1 3 15.3 2.3
-4 1 -3 16.1 2.8
4 1 3 14.7 4.6
5 -1 3 58.79 5.7
5 -1 3 64.59 6.6
-5 -1 -3 54.29 5.5
5 -1 3 46.5 8.2
5 -1 3 67.09 6.7
5 -1 3 46 5.4
-5 -1 -3 62.99 5.5
-5 -1 -3 54.29 5.1
-5 1 -3 54.99 5.4
5 1 3 59.99 7.4
-5 1 -3 53.09 4.9
5 1 3 51.19 9
5 1 3 48.8 5
5 1 3 75.69 9.3
-5 1 -3 40 4.8
6 -1 3 73.49 8.6
-6 -1 -3 66.69 6.2
-6 -1 -3 64.09 4.9
-6 -1 -3 60.89 5.8
6 -1 3 71.59 7.7
6 -1 3 55.29 6.2
6 -1 3 65.19 6.1
6 -1 3 75.09 7.5
6 1 3 58.99 9.9
-6 1 -3 70.29 6.6
-6 1 -3 65.79 5.5
6 1 3 57.39 6
-6 1 -3 64.19 5.6
6 1 3 46.3 7.8
6 1 3 61.19 9.6
7 -1 3 131.59 10.5
7 -1 3 153.58 13.4
7 -1 3 142.69 8.1
7 -1 3 137.29 9.2
-7 1 -3 139.19 8.8
-7 1 -3 133.19 7.4
-7 1 -3 127.59 8
-8 -1 -3 443.86 17.1
-8 -1 -3 464.65 17.9
8 -1 3 442.86 21
-8 -1 -3 440.46 16
8 -1 3 440.86 18.9
8 -1 3 439.36 22.7
8 1 3 440.76 24.1
-8 1 -3 430.06 17.3
8 1 3 444.16 18.4
8 1 3 432.76 24.7
8 1 3 472.25 22.9
-8 1 -3 439.36 16.4
-8 1 -3 471.55 18.7
9 -1 3 23.4 7
9 -1 3 6.9 8.2
-9 -1 -3 15.4 4
-9 -1 -3 12.6 3.5
-9 -1 -3 11.7 4.1
9 -1 3 10.6 3.8
-9 1 -3 4.1 3.3
9 1 3 4.4 7.1
-9 1 -3 5.9 3.4
9 1 3 6.3 3.5
9 1 3 16.2 7.7
9 1 3 20.7 10.5
10 -1 3 45.8 9.9
-10 -1 -3 68.39 8.2
10 -1 3 55.59 12.5
10 -1 3 41.4 7.4
-10 1 -3 25.3 5.9
-10 1 -3 43.6 6.6
10 1 3 60.39 13.8
-11 -1 -3 5.2 4.3
11 -1 3 3.5 4.1
11 -1 3 -0.1 6.9
11 -1 3 -1.7 9.4
-11 -1 -3 2.5 3.2
-11 -1 -3 -2.4 3.1
11 1 3 -14 9.9
11 1 3 -1.4 3.1
-11 1 -3 2.8 3.5
-11 1 -3 -3.9 3.9
11 1 3 6.5 8.2
12 -1 3 278.77 17.5
-12 -1 -3 290.77 16.3
12 -1 3 275.27 23.8
-12 -1 -3 281.67 13.5
12 -1 3 278.57 21.6
-12 1 -3 300.97 16.9
12 1 3 290.77 17.1
-12 1 -3 284.17 15.2
12 1 3 313.07 28
12 1 3 255.77 23.1
13 -1 3 -18.9 11.2
13 -1 3 -0.3 4.1
13 -1 3 -16.9 7.5
-13 -1 -3 -3.2 4.1
-13 -1 -3 0.4 3.3
-13 1 -3 -0.8 3.6
13 1 3 10.2 13.1
-13 1 -3 1.7 4.8
13 1 3 -9.9 7.8
13 1 3 -4 3.9
14 -1 3 27.7 7.4
14 -1 3 19.5 11.5
14 -1 3 17.5 15.3
-14 -1 -3 21.7 7.1
-14 -1 -3 32.1 6.2
14 1 3 25 7.4
14 1 3 6.3 10.8
-14 1 -3 26.7 6.6
-14 1 -3 28.9 7.4
14 1 3 47.5 17.4
-15 -1 -3 90.89 12
15 -1 3 82.39 16.5
15 -1 3 70.99 11.6
-15 -1 -3 109.09 10.1
15 1 3 101.49 12.7
-15 1 -3 90.19 12.1
15 1 3 121.49 20.3
15 1 3 86.49 20
16 -2 -3 5.6 5.9
16 -2 -3 10.5 10.8
16 2 -3 12.3 16
16 2 -3 -2.4 11.3
16 2 -3 16.9 7.4
-16 2 3 22.8 7.8
15 -2 -3 -2.3 4.4
15 -2 -3 -10.6 8.2
-15 2 3 4.6 5.3
15 2 -3 5.8 10.6
15 2 -3 -7.6 4
15 2 -3 -29 11.2
14 -2 -3 3.9 5
14 -2 -3 3.5 8.7
14 2 -3 8.9 5
14 2 -3 15.6 10.9
14 2 -3 8.1 12.9
-14 2 3 8.5 5.1
-13 -2 3 6.7 4.6
13 -2 -3 10.3 5.3
13 -2 -3 6.1 7.6
-13 2 3 8.7 3.6
13 2 -3 6.3 4.1
13 2 -3 6.5 11.1
13 2 -3 24 10.6
12 -2 -3 22 5.8
-12 -2 3 23.9 5.2
12 -2 -3 29.6 10
12 -2 -3 34.8 8.8
-12 2 3 29.6 5.3
12 2 -3 29.7 11.8
12 2 -3 17.4 5
12 2 -3 13.2 9.2
11 -2 -3 29.9 6.3
11 -2 -3 28.6 7.9
11 -2 -3 38.4 9.7
-11 -2 3 35 6
11 2 -3 54.29 7.8
-11 2 3 37.4 5.5
11 2 -3 51.59 11.8
11 2 -3 44.6 12.3
-10 -2 3 6.3 3.7
10 -2 -3 9.1 6.7
10 -2 -3 -1.8 5.4
10 -2 -3 5.2 4
10 2 -3 -9 6.1
-10 2 3 6 3.1
10 2 -3 6.3 3.6
10 2 -3 17.5 9.1
9 -2 -3 286.17 14.4
9 -2 -3 269.47 15.8
-9 -2 3 257.67 11.7
9 -2 -3 268.57 16.5
9 2 -3 265.87 17.6
9 2 -3 261.87 13.3
9 2 -3 288.77 20.4
-9 2 3 260.37 11.9
-8 -2 3 304.17 12.4
8 -2 -3 301.47 14.7
8 -2 -3 340.77 16.5
8 -2 -3 330.77 16.4
8 2 -3 321.27 17.9
8 2 -3 306.77 14
8 2 -3 348.17 20.5
-8 2 3 331.67 13.2
7 -2 -3 28.5 5.3
7 -2 -3 18.7 4.5
7 -2 -3 22.9 4
7 -2 -3 24.3 4.1
-7 -2 3 29.5 3.7
-7 2 3 34.4 4.2
7 2 -3 20.9 7
7 2 -3 31.3 6.5
7 2 -3 18.8 3.7
6 -2 -3 27.7 4.4
6 -2 -3 25.9 4.1
6 -2 -3 18.5 4.3
6 2 -3 22.8 5.6
6 2 -3 15 3.2
6 2 -3 11.2 5.2
-6 2 3 15.4 3
5 -2 -3 104.19 7.5
5 -2 -3 98.19 7.9
5 -2 -3 108.09 7.1
5 2 -3 111.89 10.4
5 2 -3 94.99 6.2
-5 2 3 101.79 6.1
5 2 -3 99.39 8.9
-4 -2 3 3.8 1
4 -2 -3 0.5 1.6
4 -2 -3 1.1 2.3
4 -2 -3 7.1 2.7
4 2 -3 3 3.6
4 2 -3 3.3 3
-4 2 3 2.6 1.7
4 2 -3 2.3 1.6
3 -2 -3 263.47 9.9
-3 -2 3 260.37 8.6
3 -2 -3 244.58 11
-3 2 3 254.37 10
3 2 -3 293.17 9.9
3 2 -3 297.87 11.7
-2 -2 3 685.23 20.1
2 -2 -3 699.03 20.2
2 -2 -3 728.13 22.7
-2 2 3 684.13 21
1 -2 -3 177.98 6.1
-1 -2 3 180.28 7.5
1 -2 -3 173.88 8.7
1 2 -3 162.88 6.5
-1 2 3 179.48 7.3
0 -2 -3 131.49 7.2
0 -2 3 105.89 6.3
0 -2 -3 124.19 5.4
0 2 3 176.98 15.3
0 2 -3 110.79 4.7
0 2 3 122.09 5.6
0 2 -3 115.69 5.7
1 -2 3 4.6 2.6
-1 -2 -3 0.2 1.8
1 -2 3 -1.8 1.7
-1 -2 -3 2.1 1.3
1 2 3 10.4 6.9
-1 2 -3 -1.7 0.9
1 2 3 -0.4 1
-1 2 -3 1.9 1.5
2 -2 3 5.7 2.5
-2 -2 -3 5 1.5
2 -2 3 1.7 2
-2 -2 -3 4.7 2.1
-2 2 -3 5.1 1.5
2 2 3 2.9 1.3
2 2 3 -7.1 5
2 2 3 6.5 1.6
-2 2 -3 4.3 1.9
3 -2 3 6 2.8
3 -2 3 9.3 2.9
-3 -2 -3 8.3 2.3
3 2 3 12.9 2.2
-3 2 -3 14.6 2.9
-3 2 -3 6.9 2
3 2 3 10.5 2.1
3 2 3 11.8 4.7
3 2 3 9.2 6
4 -2 3 397.06 15.2
4 -2 3 379.86 15.2
-4 -2 -3 363.46 13.3
-4 -2 -3 413.56 14.4
-4 -2 -3 368.86 14.5
-4 2 -3 384.96 14.4
-4 2 -3 373.96 14.7
4 2 3 379.16 13.3
4 2 3 390.26 18.9
4 2 3 370.16 12.4
4 2 3 373.86 17.4
4 2 3 395.16 21.2
5 -2 3 21.7 4
-5 -2 -3 24.6 4.2
-5 -2 -3 29.8 4.3
-5 -2 -3 22.4 3.5
5 -2 3 30.1 4.9
5 -2 3 23.8 4.4
5 2 3 31.7 3.9
5 2 3 21.4 6.1
-5 2 -3 20.4 3.7
5 2 3 31.4 7.4
5 2 3 19.3 7.7
-5 2 -3 23.5 4
-6 -2 -3 1.7 2.6
-6 -2 -3 2.6 2.3
6 -2 3 2.4 2.7
-6 -2 -3 4.7 2.6
6 -2 3 4.9 3
6 -2 3 -1.6 2.8
6 2 3 5.3 6.3
6 2 3 -6.4 4.3
-6 2 -3 -1.3 1.8
6 2 3 0 6
-6 2 -3 -1.6 2
6 2 3 1.1 1.8
7 -2 3 226.68 11.6
-7 -2 -3 224.58 11
7 -2 3 252.97 13.2
-7 -2 -3 236.98 10.8
-7 -2 -3 230.28 10.3
7 -2 3 240.18 12.6
7 2 3 213.98 17.8
7 2 3 189.68 17.2
-7 2 -3 220.08 11.4
7 2 3 219.98 11.2
-7 2 -3 242.28 12
7 2 3 232.28 16.1
8 -2 3 153.58 10.7
-8 -2 -3 138.69 8.2
8 -2 3 138.69 11.7
8 -2 3 145.79 9.5
-8 -2 -3 145.29 9.1
8 -2 3 149.39 13.2
-8 2 -3 135.29 9.4
8 2 3 106.69 15.5
-8 2 -3 144.79 9.5
8 2 3 147.39 9.7
8 2 3 156.28 15.3
8 2 3 153.88 16.7
9 -2 3 272.97 17.3
-9 -2 -3 282.37 13.7
9 -2 3 279.97 15.6
-9 -2 -3 308.07 14
-9 -2 -3 286.47 12.6
9 -2 3 284.07 19.8
9 2 3 295.47 22.2
-9 2 -3 292.87 14.3
9 2 3 312.77 21.7
9 2 3 301.77 15
-9 2 -3 303.67 15
9 2 3 303.77 24.4
-10 -2 -3 -2.9 3.4
-10 -2 -3 1.6 3.3
-10 -2 -3 -0.9 3.8
10 -2 3 -2.4 3.4
10 -2 3 7.9 9.5
10 -2 3 3.4 6.6
10 2 3 5.3 10.7
10 2 3 11.3 9.3
10 2 3 -2.5 8.7
10 2 3 3.7 3.5
-10 2 -3 2.6 3.6
-10 2 -3 2.5 4
11 -2 3 0 6.8
11 -2 3 5.2 4.4
-11 -2 -3 3.5 4.2
-11 -2 -3 8.2 3.8
11 2 3 3.2 3.7
-11 2 -3 11.4 4.3
11 2 3 -2.6 7.7
11 2 3 7.3 11.1
12 -2 3 17.3 5.9
-12 -2 -3 15 4.5
-12 -2 -3 14.9 5.1
12 -2 3 15.9 8.7
12 2 3 17.2 5.4
-12 2 -3 19.3 5.6
12 2 3 14.3 13.2
12 2 3 14.5 9.6
-12 2 -3 18 6.1
13 -2 3 8.4 5.3
-13 -2 -3 22.9 6.3
-13 -2 -3 18.5 4.8
13 -2 3 15.2 9.7
-13 2 -3 8.7 5.7
13 2 3 2.2 12.9
-13 2 -3 20.4 5.9
13 2 3 9.2 5.2
13 2 3 10.3 10.7
14 -2 3 -1.8 5
-14 -2 -3 -2.9 3.7
-14 -2 -3 -3.3 4.8
14 -2 3 -1.9 9.1
14 2 3 -9.5 13.7
14 2 3 -6.8 9.9
-14 2 -3 10.9 5.8
14 2 3 -6.3 4.1
-14 2 -3 8.2 4.8
15 -2 3 9.6 5.9
15 2 3 0 12.4
15 2 3 -1.7 15.6
15 2 3 20.4 7.2
-15 2 -3 18.4 6.4
-15 2 -3 18.1 7
16 3 -3 25.4 18.2
15 -3 -3 48.4 10.2
15 -3 -3 54.79 12.8
-15 3 3 74.09 9.5
15 3 -3 39.9 14.2
-15 3 3 47.9 9.5
15 3 -3 49.8 9.3
15 3 -3 40.3 18
14 -3 -3 29.3 8
14 -3 -3 15.5 9.4
14 3 -3 7.2 14.1
-14 3 3 25.3 6.4
14 3 -3 19.7 12.2
14 3 -3 23.2 7
-14 3 3 36.6 8.6
13 -3 -3 38.8 8.6
13 -3 -3 38.5 10.2
-13 3 3 37.8 6.5
13 3 -3 28.1 14.4
13 3 -3 24.9 11.1
13 3 -3 45.3 8.1
12 -3 -3 65.79 9.7
12 -3 -3 57.29 10.4
12 3 -3 61.19 8.2
-12 3 3 54.29 7.4
12 3 -3 37.8 13.5
12 3 -3 43.3 12.3
11 -3 -3 27.8 7.9
11 -3 -3 23.8 6.3
11 3 -3 27.1 9.8
11 3 -3 29.4 11.7
-11 3 3 25.7 5.3
11 3 -3 25.4 5.7
10 -3 -3 5.8 5.8
10 -3 -3 2.7 4.1
10 3 -3 4.7 3.6
-10 3 3 0.8 3.2
10 3 -3 -1.9 9.7
10 3 -3 13.6 8.9
-9 -3 3 78.09 7.6
9 -3 -3 71.09 8.4
9 -3 -3 56.99 8.2
-9 3 3 77.79 7.6
9 3 -3 61.49 11.8
9 3 -3 65.99 7.3
9 3 -3 56.59 10.8
8 -3 -3 95.09 9.6
-8 -3 3 91.19 4.8
8 -3 -3 104.99 8.6
8 -3 -3 117.19 8.9
8 -3 -3 115.79 10.1
-8 -3 3 91.39 6.1
8 3 -3 103.29 11.7
-8 3 3 105.79 7.7
8 3 -3 101.99 13
8 3 -3 99.99 7.6
7 -3 -3 103.79 8.3
-7 -3 3 96.89 4.8
-7 -3 3 95.49 4.8
-7 -3 3 103.29 5.5
7 -3 -3 95.19 7.8
7 -3 -3 120.19 11
7 -3 -3 110.09 8.8
-7 3 3 95.39 7
7 3 -3 113.79 12.7
7 3 -3 97.09 10.6
7 3 -3 96.29 6.8
-6 -3 3 142.19 6.3
6 -3 -3 140.89 9.2
6 -3 -3 156.88 9
-6 -3 3 155.18 8.1
-6 -3 3 150.58 6.2
6 -3 -3 143.29 9.7
-6 3 3 157.98 8.7
6 3 -3 164.38 11.9
6 3 -3 148.09 8
6 3 -3 171.68 14.1
5 -3 -3 22.9 3.8
-5 -3 3 26.1 3.1
5 -3 -3 28 4.5
-5 -3 3 28.4 2.3
5 -3 -3 28.1 5.3
5 3 -3 29.5 3.6
-5 3 3 34.2 4.5
5 3 -3 23.2 5.5
5 3 -3 33.3 6.8
-4 -3 3 40.7 5.7
-4 -3 3 40.4 4
4 -3 -3 38.1 5.8
4 -3 -3 40.9 4.4
-4 3 3 37.2 4.4
4 3 -3 46.4 3.9
4 3 -3 37.6 5.8
4 3 -3 36.1 6.4
-3 -3 3 40.3 4.9
3 -3 -3 38.1 5.9
-3 -3 3 29.3 3.9
3 -3 -3 28.6 3.5
3 3 -3 28.4 5
3 3 -3 25 5.4
-3 3 3 31.7 4.2
-2 -3 3 70.19 5.4
2 -3 -3 73.49 7.4
2 -3 -3 75.49 4.2
-2 -3 3 71.99 5.5
2 3 -3 70.79 4.3
-2 3 3 103.69 12.3
2 3 -3 76.19 6.4
-2 3 3 59.69 5
-1 -3 3 101.59 6.4
1 -3 -3 86.99 4
1 -3 -3 93.59 7.3
-1 -3 3 95.29 6.3
1 -3 -3 119.79 11.5
-1 3 3 91.29 5.6
-1 3 3 93.29 12
1 3 -3 93.99 5.3
0 -3 -3 332.27 13.7
0 -3 3 314.27 12.8
0 -3 3 342.57 13.3
0 -3 -3 335.37 14.2
0 3 3 360.06 12.4
0 3 3 300.07 18.2
0 3 -3 334.87 12.3
0 3 -3 317.77 10.3
1 -3 3 83.39 7
-1 -3 -3 87.29 6.9
-1 -3 -3 88.59 7
-1 -3 -3 82.69 4.7
1 -3 3 86.59 6.8
1 -3 3 91.89 6.2
-1 3 -3 82.29 5.7
1 3 3 92.49 5.4
1 3 3 90.19 11.7
-1 3 -3 80.39 4.5
2 -3 3 18.2 4.6
-2 -3 -3 12.2 3.7
-2 -3 -3 23.7 3
2 -3 3 23.3 3.8
-2 -3 -3 18.3 4.6
2 -3 3 13.8 4.1
2 3 3 18.7 3
2 3 3 20 1.9
-2 3 -3 24.4 3.4
-2 3 -3 19.3 3.6
2 3 3 17 8.1
3 -3 3 5.5 3.1
-3 -3 -3 9 3.4
-3 -3 -3 12 4.1
-3 -3 -3 9.9 2.4
3 -3 3 5.8 3.6
3 -3 3 11.1 4.1
3 3 3 9.1 8.2
-3 3 -3 14.9 3.1
3 3 3 12.8 2
3 3 3 9.9 2.3
-3 3 -3 10.6 2.9
3 3 3 8.1 5.5
-4 -3 -3 162.38 7.5
-4 -3 -3 183.88 9.8
-4 -3 -3 185.98 9.8
4 -3 3 173.28 9.6
4 -3 3 166.28 10.5
4 -3 3 171.88 10.3
4 3 3 172.18 7.3
4 3 3 156.68 13.7
-4 3 -3 179.08 8.9
4 3 3 167.28 7.3
4 3 3 177.28 16.1
-4 3 -3 163.08 9.2
5 -3 3 74.49 7.1
-5 -3 -3 60.59 6.4
-5 -3 -3 65.59 5
5 -3 3 82.39 8.3
-5 -3 -3 73.99 6.9
5 -3 3 57.39 6.8
5 -3 3 70.89 5.8
5 3 3 73.99 10.6
5 3 3 78.29 13.2
-5 3 -3 76.49 7.2
-5 3 -3 74.09 7
5 3 3 75.89 5.7
5 3 3 66.69 4.9
6 -3 3 631.34 22.6
6 -3 3 571.54 22.1
-6 -3 -3 572.94 19.5
6 -3 3 565.34 20.4
-6 -3 -3 561.44 21
-6 -3 -3 595.74 20.6
6 -3 3 583.54 22.6
6 3 3 604.44 28.4
6 3 3 588.64 30.5
-6 3 -3 590.64 21.5
-6 3 -3 618.84 22
6 3 3 595.24 26.3
6 3 3 579.44 19.8
-7 -3 -3 422.16 16.1
7 -3 3 407.46 17.4
-7 -3 -3 396.76 15.6
7 -3 3 400.46 18.1
-7 -3 -3 419.06 17
7 -3 3 399.56 18.2
7 3 3 428.46 23.2
-7 3 -3 421.46 17.7
7 3 3 392.36 25.1
7 3 3 428.06 16.3
-7 3 -3 420.86 17.8
7 3 3 435.06 26.8
8 -3 3 119.29 10.5
-8 -3 -3 112.79 7.8
-8 -3 -3 107.89 8.2
8 -3 3 90.49 9.8
8 -3 3 118.19 11
-8 -3 -3 105.59 8.7
8 3 3 109.69 13.7
8 3 3 120.19 8.5
-8 3 -3 112.39 8.9
8 3 3 123.69 16.7
8 3 3 119.09 17.8
-8 3 -3 123.19 9.5
-9 -3 -3 221.58 11.7
9 -3 3 222.08 14.2
-9 -3 -3 219.38 12.4
9 -3 3 201.38 14.9
-9 -3 -3 216.38 11.5
-9 3 -3 200.48 12.8
9 3 3 186.68 20.3
9 3 3 216.08 20.1
-9 3 -3 229.98 13.3
9 3 3 178.08 21.7
9 3 3 211.18 12.2
-10 -3 -3 359.86 15.8
-10 -3 -3 390.46 16.9
10 -3 3 401.16 20.2
10 -3 3 449.86 26.5
-10 -3 -3 384.66 19.5
-10 3 -3 385.06 18.9
10 3 3 328.97 26.3
-10 3 -3 374.66 17.9
10 3 3 379.86 17.7
10 3 3 393.36 29.2
10 3 3 398.66 25.6
11 -3 3 38.9 8
-11 -3 -3 47.6 6.4
-11 -3 -3 37.4 6.6
11 3 3 26.2 13.6
11 3 3 34.4 11.2
-11 3 -3 28.4 6.1
11 3 3 29.5 5.8
-11 3 -3 35.1 7.1
12 -3 3 9.3 5.6
-12 -3 -3 10.9 4.3
-12 3 -3 6.2 4.2
12 3 3 9 14
12 3 3 19.9 11
12 3 3 13.4 5.3
-12 3 -3 13.6 5.7
13 -3 3 92.49 12.4
-13 -3 -3 112.59 9.9
13 3 3 92.39 10.8
13 3 3 116.19 21.2
-13 3 -3 112.89 11.9
13 3 3 107.99 17.7
-13 3 -3 95.69 12.3
14 -3 3 117.59 14.5
-14 3 -3 99.49 12.8
14 3 3 100.29 21.4
-14 3 -3 107.29 12
14 3 3 100.59 18.6
14 3 3 95.49 12.4
15 -3 3 11.2 6.6
15 3 3 -7.3 16.2
-15 3 -3 4.5 6.1
15 3 3 -8.9 11.2
-15 3 -3 0.8 4.9
15 -4 -3 14.9 7.2
-15 4 3 25.5 8
-15 4 3 23.9 6.6
15 4 -3 8.3 12
15 4 -3 18 16.5
14 -4 -3 -5.4 4.4
-14 4 3 -1.1 4.7
14 4 -3 -7.4 9.8
-14 4 3 0.5 4.1
14 4 -3 -10.1 13.1
13 -4 -3 0.4 4.8
-13 4 3 -1.7 3.6
13 4 -3 -9.9 11.8
13 4 -3 -13.5 8.9
12 -4 -3 37.6 9.5
12 -4 -3 17 6.4
12 4 -3 41.5 14.6
12 4 -3 21.1 11.2
-12 4 3 41.7 7
11 -4 -3 107.99 12.1
11 -4 -3 80.59 9.8
11 4 -3 94.89 9.4
-11 4 3 97.89 9.7
11 4 -3 82.29 15.4
11 4 -3 77.09 14.2
10 -4 -3 54.79 8.5
10 -4 -3 60.89 9.1
10 4 -3 52.89 6.9
-10 4 3 60.79 7.6
10 4 -3 49.2 11.6
10 4 -3 67.89 14.5
9 -4 -3 34 7.5
9 -4 -3 22.9 5.8
-9 -4 3 42 5.3
9 4 -3 39.2 10.9
-9 4 3 41.7 6.7
9 4 -3 45.4 12
9 4 -3 41.9 6.3
8 -4 -3 164.78 12.1
8 -4 -3 164.78 11.7
-8 -4 3 146.89 8.1
8 -4 -3 150.28 10.6
8 4 -3 171.08 18
8 4 -3 133.69 14.7
-8 4 3 152.38 10.3
8 4 -3 147.29 9.2
-7 -4 3 40.7 4.7
-7 -4 3 27.8 4.2
7 -4 -3 35.2 5.9
7 -4 -3 32.1 6.6
7 -4 -3 37.9 5.6
-7 4 3 41.9 5.8
7 4 -3 50.69 9.4
7 4 -3 38.4 4.9
7 4 -3 47.6 10.4
6 -4 -3 20.1 4.4
6 -4 -3 13.7 4.7
6 -4 -3 15.6 3.6
6 -4 -3 15 4.8
-6 -4 3 14.1 3.4
-6 -4 3 12.9 3.3
6 4 -3 13.8 6.1
6 4 -3 23.4 7.2
-6 4 3 12.7 3.7
6 4 -3 10 2.8
-5 -4 3 56.29 5.6
5 -4 -3 52.69 7.5
5 -4 -3 54.09 5.6
5 -4 -3 51.19 5.8
-5 -4 3 51.99 5.5
5 -4 -3 60.49 7.6
5 4 -3 72.29 8.8
5 4 -3 57.39 4.6
5 4 -3 42.6 7.9
-5 4 3 39.6 10
-5 4 3 55.39 6.4
4 -4 -3 1.9 3.1
-4 -4 3 0.3 2.2
4 -4 -3 2.3 3.3
4 -4 -3 1.3 1.8
-4 -4 3 2.5 2.6
4 4 -3 -1.8 3.8
-4 4 3 -0.5 1.8
-4 4 3 4.8 6.8
4 4 -3 5.6 4.2
-3 -4 3 254.97 11.6
3 -4 -3 249.08 13.6
-3 -4 3 255.37 11.4
3 -4 -3 251.07 13.4
3 -4 -3 245.38 9.8
-3 4 3 252.87 11.7
3 4 -3 250.67 9.1
3 4 -3 262.87 14.5
-3 4 3 223.98 16.4
3 4 -3 241.68 12.7
2 -4 -3 130.09 10
2 -4 -3 156.38 10.5
-2 -4 3 150.38 9
2 -4 -3 138.69 6.2
-2 -4 3 155.38 8.7
2 4 -3 152.98 9.5
2 4 -3 154.78 10.4
-2 4 3 149.99 14.3
-2 4 3 140.59 8.3
2 4 -3 138.89 7
-2 4 3 148.99 8.2
2 4 -3 143.19 6.9
-1 -4 3 165.58 9.6
-1 -4 3 141.29 9
1 -4 -3 132.59 9.8
1 -4 -3 146.39 5.5
1 -4 -3 139.59 10.2
-1 4 3 144.39 8
1 4 -3 145.49 7.5
-1 4 3 163.48 15.4
0 -4 3 9.6 4.1
0 -4 -3 8.1 4.1
0 -4 -3 2.2 3.3
0 -4 3 7.7 2.9
0 -4 3 1.6 3.2
0 4 -3 6.6 2.5
0 4 -3 7.4 1.8
0 4 3 -0.4 6.3
0 4 3 9 2.6
-1 -4 -3 131.89 9.7
-1 -4 -3 118.19 9
1 -4 3 122.19 9.1
1 -4 3 131.39 7.7
1 -4 3 126.39 9
-1 4 -3 123.69 7.5
1 4 3 101.19 13.1
-1 4 -3 128.89 6.2
1 4 3 149.59 7.6
2 -4 3 5.3 3.7
2 -4 3 12 4.3
2 -4 3 2.5 2.6
-2 4 -3 2.5 1.8
2 4 3 14.7 8
2 4 3 7.6 2.4
-2 4 -3 1 2.2
3 -4 3 4.4 3.7
3 -4 3 2.5 3.7
3 -4 3 0.9 2.6
-3 -4 -3 2.9 1.8
-3 -4 -3 1.6 3.5
-3 -4 -3 4.5 3.3
3 4 3 2.5 6
3 4 3 2.9 1
3 4 3 3.2 1.9
3 4 3 9.9 8
-3 4 -3 5.4 2.3
-3 4 -3 2.4 2.3
-4 -4 -3 16.1 4.6
4 -4 3 20.6 5.5
-4 -4 -3 22.4 5.2
4 -4 3 13.2 4.6
-4 -4 -3 21.9 3.1
4 -4 3 21.3 4.2
4 4 3 25.6 9.7
4 4 3 22.6 2.5
4 4 3 22.1 7.4
4 4 3 20 3.1
-4 4 -3 14.6 3.7
-4 4 -3 21.1 3.7
-5 -4 -3 57.09 4.6
-5 -4 -3 38.8 6.1
5 -4 3 51.49 7.4
5 -4 3 43.6 7
-5 -4 -3 56.29 6.9
5 -4 3 53.39 6.1
5 4 3 57.19 10.5
5 4 3 57.79 4.2
-5 4 -3 50.09 6.4
5 4 3 48.9 11.2
-5 4 -3 52.89 5.9
-6 -4 -3 36.3 6.1
6 -4 3 37.9 5.9
-6 -4 -3 40.1 6.1
6 -4 3 25.8 6.4
-6 -4 -3 50.89 5.2
6 -4 3 39.3 7.1
6 4 3 33.4 11.7
6 4 3 42.3 4.4
-6 4 -3 24.9 5
6 4 3 43.7 11.4
-6 4 -3 50.09 6.6
-7 -4 -3 140.29 9.9
7 -4 3 149.88 10.9
-7 -4 -3 138.89 10.3
7 -4 3 146.99 11.9
-7 -4 -3 136.09 8.1
7 -4 3 147.69 11.4
-7 4 -3 148.59 10.2
7 4 3 165.88 21.3
-7 4 -3 139.89 10.1
7 4 3 160.48 18.1
7 4 3 133.09 8.7
8 -4 3 7.3 4.4
-8 -4 -3 4.7 4
-8 -4 -3 9.5 4.9
8 -4 3 13.2 5.8
8 4 3 -0.4 11.3
-8 4 -3 1.1 3.7
8 4 3 10.5 9.3
8 4 3 -2.1 9.7
-8 4 -3 2.6 4.1
9 -4 3 24.5 6
-9 -4 -3 31 6.4
-9 -4 -3 41.8 6.6
-9 4 -3 24.9 5.8
9 4 3 37.5 11.2
9 4 3 29.8 13.4
-9 4 -3 22.2 5.5
9 4 3 68.69 16.1
-10 -4 -3 63.69 7.9
10 -4 3 57.19 8.9
-10 4 -3 56.69 8.5
10 4 3 51.79 14.5
10 4 3 36.1 14.2
-10 4 -3 47.3 8.3
10 4 3 61.59 13.2
-11 -4 -3 10.4 4.6
11 -4 3 13.4 5.9
11 4 3 16.8 14.1
-11 4 -3 9.5 5.3
11 4 3 -0.8 9.4
-11 4 -3 4.5 4.3
-12 -4 -3 4.6 4.5
12 -4 3 -0.9 5.1
12 4 3 1.1 13.9
-12 4 -3 8.7 5
-12 4 -3 8.5 5.7
12 4 3 -12.2 9.3
13 -4 3 4.3 5.4
-13 4 -3 1.4 5.8
13 4 3 -8.6 14
-13 4 -3 1.1 4.4
13 4 3 19.6 11.7
14 -4 3 7.1 6.8
-14 4 -3 7.2 5.5
14 4 3 -0.5 11
14 4 3 -9.1 15.6
-14 4 -3 6.2 6.5
14 -5 -3 9 5.9
14 5 -3 12.3 12
14 5 -3 -2 14.4
-14 5 3 -1.2 5.3
-14 5 3 6.4 4.8
13 -5 -3 38.1 8.8
13 5 -3 36.5 13.9
13 5 -3 31 16.1
-13 5 3 55.09 9
12 -5 -3 8.9 5.7
12 5 -3 24.5 14.4
-12 5 3 13.2 5.5
12 5 -3 36.7 12.4
11 -5 -3 -2.3 4
11 5 -3 0.9 11.5
11 5 -3 -7.2 8.5
-11 5 3 9.6 4.2
10 -5 -3 243.48 16.1
10 5 -3 277.27 26.3
-10 5 3 314.17 16.4
10 5 -3 285.47 22.7
9 -5 -3 13.4 5
-9 -5 3 -1.3 4.1
9 5 -3 10.1 10.4
-9 5 3 12.6 4.6
9 5 -3 19.4 9.2
-8 -5 3 93.39 8.8
8 -5 -3 96.89 11.9
8 -5 -3 88.19 9.2
8 5 -3 89.79 14.5
-8 5 3 93.39 9.7
8 5 -3 101.99 13.8
-7 -5 3 133.99 9.5
-7 -5 3 136.19 9.8
7 -5 -3 148.09 10.9
7 -5 -3 105.79 12
7 -5 -3 140.59 10
-7 5 3 135.69 10.3
7 5 -3 131.29 16.5
7 5 -3 134.49 14.8
-6 -5 3 19.7 5.1
-6 -5 3 28.6 5.8
6 -5 -3 37.9 7.6
6 -5 -3 36.6 7.9
6 -5 -3 27.1 5.2
6 -5 -3 41.2 5.7
6 5 -3 34.2 9.9
6 5 -3 30 8.7
-6 5 3 33.1 5.8
5 -5 -3 244.78 14.7
5 -5 -3 249.18 11.8
5 -5 -3 256.77 15.6
5 -5 -3 247.28 12.3
-5 -5 3 226.68 12.1
-5 -5 3 238.68 12.6
-5 5 3 241.58 12.9
5 5 -3 249.48 16.5
5 5 -3 236.08 17.8
4 -5 -3 108.49 11.4
-4 -5 3 136.39 9.4
-4 -5 3 144.09 9.8
4 -5 -3 146.19 7.9
4 -5 -3 142.89 12.9
4 5 -3 137.79 13.2
4 5 -3 129.09 11.8
-4 5 3 126.39 9
-4 5 3 145.09 14.5
3 -5 -3 61.79 8.9
3 -5 -3 77.49 5.1
3 -5 -3 51.69 8.3
-3 -5 3 68.29 7.9
-3 -5 3 73.29 8
3 5 -3 70.79 5
-3 5 3 63.69 7.2
3 5 -3 71.49 9.1
-3 5 3 108.29 13.1
2 -5 -3 351.46 17.3
-2 -5 3 392.16 16.8
-2 -5 3 359.96 16.1
2 -5 -3 324.07 11.4
2 -5 -3 336.97 17.7
-2 5 3 339.07 20.3
2 5 -3 341.97 13.2
2 5 -3 350.76 17
2 5 -3 356.96 13.5
-2 5 3 331.77 14.6
-2 5 3 325.07 14.8
-1 -5 3 5.7 4.2
-1 -5 3 5.1 4.6
-1 -5 3 13 3.2
-1 5 3 5.8 7.2
1 5 -3 6.9 2.7
-1 5 3 7.9 3
1 5 -3 4.1 4.2
0 -5 -3 94.69 10.2
0 -5 3 83.29 9
0 -5 3 78.29 8.5
0 -5 3 84.69 6.3
0 -5 -3 69.39 8.8
0 5 3 76.19 6.2
0 5 -3 95.39 6.8
0 5 -3 77.39 4.4
0 5 3 82.49 12.6
-1 -5 -3 99.99 10.5
1 -5 3 76.69 8.8
-1 -5 -3 83.39 9.6
1 -5 3 75.79 6.1
1 -5 3 88.49 9.5
-1 5 -3 93.49 8.5
1 5 3 80.49 6.5
1 5 3 115.99 15.6
-1 5 -3 83.69 5.1
2 -5 3 21.3 5.8
2 -5 3 24.5 4
-2 -5 -3 16.9 5.2
-2 -5 -3 19.7 5.7
2 -5 3 18.1 5.6
2 5 3 14 8.8
-2 5 -3 30.8 5.3
-2 5 -3 18.8 3.4
2 5 3 21.2 3.8
3 -5 3 1.7 2.9
-3 -5 -3 -1.2 3.3
-3 -5 -3 7.2 4.4
3 -5 3 1.7 4.2
3 -5 3 1.8 4.2
-3 5 -3 0.2 2
3 5 3 2.4 2.2
-3 5 -3 0.4 2.7
3 5 3 5.5 8.9
-4 -5 -3 231.38 14.1
-4 -5 -3 237.78 14
4 -5 3 255.87 12.4
4 -5 3 232.68 14.8
4 -5 3 272.67 15.6
4 5 3 241.08 24.3
-4 5 -3 240.88 13
4 5 3 241.18 19.4
-4 5 -3 225.68 11.3
-5 -5 -3 174.98 12.6
5 -5 3 221.28 14.2
5 -5 3 216.58 14.6
-5 -5 -3 156.48 11.9
5 -5 3 193.68 11.4
-5 5 -3 185.68 11.8
5 5 3 188.18 18.5
5 5 3 148.29 19.6
-5 5 -3 186.68 10.4
6 -5 3 33.6 6.2
-6 -5 -3 35.2 7.4
-6 -5 -3 35.7 7
6 -5 3 44.2 8.3
6 -5 3 49 8.9
-6 5 -3 45.4 7.2
6 5 3 44.2 12
6 5 3 28.7 12.3
-6 5 -3 47.4 6.7
-7 -5 -3 191.08 12.7
7 -5 3 197.28 15
7 -5 3 195.68 15.2
-7 -5 -3 188.08 13.5
7 -5 3 177.68 12.6
-7 5 -3 183.18 12.4
7 5 3 208.58 20.7
-7 5 -3 195.78 12.1
-8 -5 -3 286.57 15.9
8 -5 3 240.48 15.1
-8 -5 -3 262.77 14.7
8 -5 3 291.87 17.9
8 5 3 241.08 23.8
8 5 3 292.97 30.7
-8 5 -3 245.68 14.5
-8 5 -3 250.37 15
9 -5 3 45.7 8.2
9 -5 3 52.89 10.6
-9 -5 -3 39.9 7.7
-9 -5 -3 45.8 7.6
9 5 3 27.5 13.3
-9 5 -3 31.9 6.6
9 5 3 35.3 13.7
-9 5 -3 49.5 8.2
10 -5 3 126.69 12.8
-10 -5 -3 132.69 11.6
-10 5 -3 121.59 12.4
10 5 3 142.89 21
10 5 3 143.99 22.9
-10 5 -3 130.29 12.8
-11 -5 -3 46 7.9
11 -5 3 48.5 9.7
11 5 3 31.7 15.9
-11 5 -3 56.89 9
-11 5 -3 61.99 9.8
-12 -5 -3 4.4 5.3
12 -5 3 8.8 6.2
-12 5 -3 4.5 5
-12 5 -3 0.2 4.8
12 5 3 -6 14.1
13 -5 3 54.29 10.1
13 5 3 69.09 20.5
-13 5 -3 78.69 12.3
-13 5 -3 65.09 10.1
13 -6 -3 -5.2 4.9
-13 6 3 3.9 4.9
13 6 -3 1.3 15.5
13 6 -3 0.6 11.5
12 -6 -3 59.49 9.8
12 6 -3 64.59 18.2
-12 6 3 65.29 9.8
12 6 -3 47.3 14.5
11 -6 -3 -0.9 4.7
-11 6 3 0.5 3.8
11 6 -3 -13.9 12.6
11 6 -3 6.9 10
10 -6 -3 56.29 8.9
-10 -6 3 62.29 9.5
10 6 -3 58.99 15.7
10 6 -3 42.9 12.5
-10 6 3 61.79 9.1
-9 -6 3 4.9 4.7
9 -6 -3 3.6 4.2
9 6 -3 -7 8
9 6 -3 6.6 10.8
-9 6 3 1.5 3.8
8 -6 -3 111.79 10.7
-8 -6 3 113.69 10.8
8 -6 -3 105.39 13.6
8 6 -3 103.99 15.3
8 6 -3 111.69 16.5
-8 6 3 103.99 11.1
7 -6 -3 20.7 4.8
-7 -6 3 22.4 6.3
7 -6 -3 16.9 7.1
-7 -6 3 19.6 5.9
7 6 -3 6.8 8.5
7 6 -3 17.6 10.5
-7 6 3 22.9 5.5
6 -6 -3 10.6 6.4
6 -6 -3 12.5 4.6
6 -6 -3 18.4 7
-6 -6 3 12.9 5.5
-6 -6 3 21.5 6.3
-6 6 3 19 5.5
6 6 -3 15 8.5
6 6 -3 0.3 9
-5 -6 3 7.8 5.5
-5 -6 3 0.8 4.9
5 -6 -3 5 5.6
5 -6 -3 0.9 5.4
-5 6 3 8.8 4.2
5 6 -3 11.3 8.8
4 -6 -3 20.5 7.3
-4 -6 3 22.2 6.4
4 -6 -3 47.8 9.3
-4 -6 3 31.6 6.9
4 6 -3 54.69 10.5
-4 6 3 41.5 6.5
3 -6 -3 1.9 5.3
3 -6 -3 -1.6 4.8
-3 -6 3 1.4 4.8
-3 -6 3 -0.5 4.6
-3 6 3 1.5 6.6
3 6 -3 5.2 6.7
-3 6 3 -0.8 2.9
-3 6 3 -2 2.7
2 -6 -3 166.88 14
-2 -6 3 177.68 12.7
-2 -6 3 181.78 12.9
2 -6 -3 180.28 14
2 6 -3 171.88 9.5
2 6 -3 163.38 14
-2 6 3 192.58 11.1
-2 6 3 166.38 10.8
-2 6 3 193.58 17.7
1 -6 -3 162.18 14.9
-1 -6 3 134.99 12.4
-1 -6 3 136.49 11.5
1 -6 -3 125.89 13
1 6 -3 126.69 8.4
-1 6 3 142.59 17.6
-1 6 3 124.19 9.2
1 6 -3 123.59 8.6
0 -6 3 226.88 15
0 -6 -3 252.97 15.8
0 -6 -3 249.68 16.3
0 -6 3 261.17 15.8
0 6 3 244.88 12.6
0 6 -3 248.98 12.7
0 6 3 256.97 21.2
-1 -6 -3 128.89 12.6
1 -6 3 119.79 12.3
-1 -6 -3 111.69 12.2
1 -6 3 86.09 10.5
1 6 3 106.79 8.1
1 6 3 89.39 15.1
-1 6 -3 98.29 8.3
2 -6 3 11.5 5.2
-2 -6 -3 3.4 4.8
2 -6 3 -2.9 4.5
-2 -6 -3 -2 4.6
-2 6 -3 1 2.4
-2 6 -3 2.9 3.4
2 6 3 7.6 10
2 6 3 2 2.8
3 -6 3 298.67 17.6
-3 -6 -3 293.77 17.8
3 -6 3 274.37 13.1
-3 -6 -3 287.97 17.1
3 -6 3 277.37 17.9
-3 6 -3 300.97 15.3
-3 6 -3 272.37 12.4
3 6 3 241.28 25.5
-4 -6 -3 142.89 13.7
4 -6 3 127.69 9.6
4 -6 3 115.59 13.6
4 -6 3 128.69 13.1
-4 -6 -3 148.79 14.5
-4 6 -3 123.19 8.7
4 6 3 139.39 22.1
-4 6 -3 135.69 10.7
5 -6 3 11.6 7.1
-5 -6 -3 3.4 5.8
5 -6 3 7.2 6.4
5 -6 3 4.8 3.7
-5 -6 -3 0.4 5.4
5 6 3 9.4 11.5
-5 6 -3 5.4 3.6
-5 6 -3 8.6 4.6
5 6 3 10.3 11.2
6 -6 3 68.89 11.3
-6 -6 -3 51.09 9.4
-6 -6 -3 68.29 9.8
6 -6 3 59.29 7.8
6 -6 3 50.99 9.5
6 6 3 57.79 14.1
-6 6 -3 62.49 8
-6 6 -3 56.59 8.4
6 6 3 87.29 18.9
7 -6 3 46.4 9.7
7 -6 3 32.4 6.8
7 -6 3 50.49 9.8
-7 -6 -3 50.99 8.7
-7 -6 -3 50.59 8.6
7 6 3 51.19 16.3
-7 6 -3 53.29 7.9
7 6 3 36.7 13.3
-7 6 -3 39.3 7.2
8 -6 3 61.49 10.6
-8 -6 -3 2.5 5.2
8 -6 3 27.8 6.6
-8 -6 -3 5.1 5.4
8 6 3 -3.5 11.3
8 6 3 2.4 10.8
-8 6 -3 7.9 4.6
-8 6 -3 9.3 4.8
-9 -6 -3 19.1 8.4
-9 -6 -3 37.2 7.9
9 -6 3 49.7 10.2
9 -6 3 19.2 6.3
-9 6 -3 16.2 5.9
9 6 3 31.3 15.4
9 6 3 2.4 11.1
-9 6 -3 30.4 7
10 -6 3 3.6 5.4
-10 -6 -3 2.6 5.5
-10 6 -3 4 4.7
10 6 3 5.5 11.8
10 6 3 -2.3 13.5
-10 6 -3 0 4.3
-11 -6 -3 20.2 6.8
11 -6 3 8.8 6.1
-11 6 -3 11.6 6.3
-11 6 -3 7.5 5.1
11 6 3 -10 14.1
-12 -6 -3 12.4 6.5
12 -6 3 8.4 6.2
-12 6 -3 16 6.8
12 6 3 5.9 16.2
-12 6 -3 -0.4 5
-12 7 3 -1.2 4.7
12 7 -3 -3.7 16.4
12 7 -3 -5.4 11.5
11 7 -3 -27.7 13.3
11 7 -3 -0.5 10.6
-11 7 3 6.7 5.6
-10 -7 3 9.8 6
10 7 -3 23.5 16.3
-10 7 3 16.1 6.7
10 7 -3 13.2 11.6
-9 -7 3 3.4 5.6
9 7 -3 -1.9 9.7
-9 7 3 2.2 4.8
9 7 -3 2.4 13.3
-8 -7 3 14.7 6.7
8 -7 -3 20.5 9.3
8 7 -3 3.9 12.3
-8 7 3 22 6.6
7 -7 -3 30 9.2
-7 -7 3 32.9 7.8
-7 -7 3 42.5 8.6
7 7 -3 19.8 12.3
-7 7 3 34.7 7.2
-6 -7 3 55.09 9.6
6 -7 -3 88.99 12.6
-6 -7 3 49.99 9.3
6 -7 -3 72.29 12.3
6 7 -3 44.5 13.1
-6 7 3 83.89 10.7
5 -7 -3 -0.5 5.6
-5 -7 3 2.8 5.5
-5 -7 3 9.6 5.6
5 -7 -3 3.3 5.5
5 7 -3 0.8 8.8
-5 7 3 8.9 4.7
-4 -7 3 66.09 10.2
4 -7 -3 79.49 12
4 -7 -3 83.29 11.8
-4 -7 3 70.49 10.4
-4 7 3 94.69 10.4
-4 7 3 74.69 9.2
3 -7 -3 41.6 9.1
-3 -7 3 54.49 9.7
-3 -7 3 77.39 10.8
3 -7 -3 71.49 11.8
-3 7 3 74.79 9.2
-3 7 3 61.99 8.3
-2 -7 3 244.08 17.1
2 -7 -3 274.97 18.7
-2 -7 3 213.08 15.9
2 -7 -3 234.08 17.4
-2 7 3 213.68 19.7
-2 7 3 227.28 13.5
1 -7 -3 25.4 7.5
1 -7 -3 36.8 9.1
-1 -7 3 19.6 7.6
-1 -7 3 31.2 8.3
-1 7 3 39.5 6.6
-1 7 3 34.4 11.8
0 -7 3 38 9.2
0 -7 -3 40.5 9.3
0 -7 -3 35.8 9.3
0 -7 3 37.8 9
0 7 -3 38.2 6.5
0 7 3 41.9 6.5
0 7 3 46 13.4
1 -7 3 120.59 14.1
-1 -7 -3 161.58 16.1
1 -7 3 167.18 16
-1 -7 -3 159.28 15.6
-1 7 -3 150.88 11
1 7 3 141.09 10.1
1 7 3 156.38 20.6
2 -7 3 191.28 17.8
-2 -7 -3 207.98 16.7
-2 -7 -3 135.49 14.8
2 -7 3 154.28 15.2
2 7 3 174.48 23.1
-2 7 -3 183.58 12.2
3 -7 3 9.4 7
-3 -7 -3 2.1 6.4
-3 -7 -3 9.7 6.5
3 -7 3 -4.2 5.7
-3 7 -3 0.2 3.8
3 7 3 0.9 10.5
-4 -7 -3 -7.4 5.3
4 -7 3 0.5 6.5
-4 -7 -3 -2.8 5.5
4 -7 3 6 6.7
-4 7 -3 4.3 4.2
4 7 3 7.3 10.7
5 -7 3 7.1 6.7
-5 -7 -3 -0.9 5.8
5 -7 3 0.4 6
-5 -7 -3 9.5 6.6
5 7 3 2.9 10.4
-5 7 -3 11.1 4.3
-5 7 -3 5.8 4.8
-6 -7 -3 44.1 9.3
-6 -7 -3 75.99 11.7
6 -7 3 65.09 12.3
6 -7 3 46.2 10.3
-6 7 -3 59.19 8.3
6 7 3 65.59 18
-6 7 -3 54.19 9.4
-7 -7 -3 25.8 8.7
7 -7 3 18.3 8.3
-7 -7 -3 27.4 8.1
7 -7 3 18.3 10.1
-7 7 -3 30 7.5
-7 7 -3 23.1 6
7 7 3 26.3 12.7
-8 -7 -3 -5.9 6.1
-8 -7 -3 -10.5 5.1
8 -7 3 5.1 7.4
-8 7 -3 -1.5 3.9
8 7 3 -2.4 10.5
8 7 3 -6.6 13.6
-8 7 -3 2.4 5.3
9 -7 3 4.6 7.7
-9 -7 -3 0.5 6.3
9 7 3 -6.5 11
-9 7 -3 6.3 5.4
9 7 3 10.9 16.2
-9 7 -3 2.1 5.6
-10 -7 -3 17.3 7.4
10 -7 3 5.3 6.7
-10 7 -3 4.7 5
-10 7 -3 4.1 4.8
10 7 3 -15.6 15.4
11 -7 3 11.2 6.4
-11 -7 -3 9.8 7.2
11 7 3 -17 16.1
-11 7 -3 16.1 5.9
-11 7 -3 9 5.9
-10 -8 3 30.3 8.3
10 8 -3 13.6 17.3
-10 8 3 39.4 9.8
-9 -8 3 1.4 7.1
9 8 -3 -23.8 13.5
-9 8 3 1.6 5.2
8 -8 -3 4.9 8.2
-8 -8 3 13.5 7.1
-8 8 3 1.3 5.6
8 8 -3 2.6 13.8
-7 -8 3 29.8 8.9
7 -8 -3 30.7 11
-7 -8 3 37.2 9.7
-7 8 3 34.8 8.5
7 8 -3 19.8 14.9
6 -8 -3 35.5 10
6 -8 -3 27.3 9.9
-6 -8 3 29.8 8.4
-6 -8 3 31.7 8.8
-6 8 3 39.7 8.6
-6 8 3 25.1 7
5 -8 -3 5.7 7.6
-5 -8 3 24.6 8.1
5 -8 -3 17 8.9
-5 -8 3 14.6 8
-5 8 3 26.5 7.6
-5 8 3 16.5 6.3
-4 -8 3 66.99 11.4
4 -8 -3 56.59 11.8
4 -8 -3 67.59 12
-4 -8 3 57.59 11
-4 8 3 63.19 9.4
-4 8 3 56.69 9.5
-3 -8 3 0.3 6.7
3 -8 -3 14.5 7.9
-3 -8 3 7.4 7.2
3 -8 -3 31.1 10.1
-3 8 3 15.2 5.3
-2 -8 3 34.5 9.4
2 -8 -3 29.8 9
2 -8 -3 51.69 11.1
-2 -8 3 25.4 8.6
-2 8 3 34.8 6.9
-1 -8 3 20.5 8.8
-1 -8 3 29.1 8.7
1 -8 -3 37.6 10.1
1 -8 -3 25.1 8.3
-1 8 3 34.2 6.9
-1 8 3 35.8 12.6
0 -8 -3 231.38 18.2
0 -8 3 251.27 19.3
0 -8 3 243.08 18.8
0 -8 -3 244.08 19.3
0 8 3 281.37 28.6
0 8 3 237.98 14.2
1 -8 3 61.49 11.7
-1 -8 -3 59.09 11.5
1 -8 3 101.29 14.3
-1 -8 -3 56.29 11.4
-1 8 -3 81.29 9.9
-2 -8 -3 40.4 10.3
2 -8 3 32.4 9.8
2 -8 3 40.9 10.4
-2 -8 -3 18.2 8.4
-2 8 -3 30.6 6.9
2 8 3 49.3 15.3
3 -8 3 16.4 8.5
-3 -8 -3 13.7 7.5
-3 -8 -3 12.8 8.2
3 -8 3 12.9 8.3
3 8 3 19 12.6
-3 8 -3 7.5 4.9
-4 -8 -3 4.4 6.7
4 -8 3 5.4 7.2
4 -8 3 -6.2 6.2
-4 -8 -3 -0.3 6.9
-4 8 -3 5.8 5
4 8 3 -6.4 10.4
-5 -8 -3 7.5 7.7
5 -8 3 -4.9 7.2
5 -8 3 4.9 7.5
-5 -8 -3 4.9 7.4
-5 8 -3 6.1 5.3
5 8 3 15.6 12.9
-6 -8 -3 -1 6.9
6 -8 3 6.1 8.5
-6 -8 -3 27.9 9.6
6 -8 3 8.8 8.7
-6 8 -3 9.1 5.9
6 8 3 17.2 12.8
-7 -8 -3 24.4 9.3
-7 -8 -3 7.3 8.9
7 -8 3 9.4 8.1
7 8 3 19 13
-7 8 -3 21 7.9
-8 -8 -3 8.5 7.5
-8 -8 -3 5.4 6.8
8 -8 3 9 8.9
-8 8 -3 3.4 5.9
8 8 3 22.8 14.9
-9 -8 -3 25 8.5
9 -8 3 1.5 9.1
-9 8 -3 19.3 8
-9 8 -3 11.4 6.1
-8 -9 3 26.7 9.7
8 -9 -3 4.6 10.2
-8 9 3 20.7 8.3
-8 9 3 21.1 7.3
-7 -9 3 119.79 15.4
-7 -9 3 113.69 14.8
7 -9 -3 96.19 16.9
-7 9 3 112.29 15.2
-7 9 3 83.49 12.5
-6 -9 3 4.2 7.4
-6 -9 3 -0.1 7.1
6 -9 -3 3.8 8.3
6 -9 -3 -3.4 8.4
-6 9 3 -4.8 5.2
-6 9 3 4.2 5.5
5 -9 -3 22.6 11.8
-5 -9 3 20 9.1
-5 -9 3 40.5 10.4
5 -9 -3 26.8 10.1
-5 9 3 38.1 9.6
-5 9 3 27.8 7.5
4 -9 -3 41.4 13.2
4 -9 -3 50.19 11.4
-4 -9 3 40.7 10.3
-4 -9 3 47.7 11.1
-4 9 3 42.8 8.5
3 -9 -3 1.1 7.3
-3 -9 3 6.9 7.9
3 -9 -3 0.4 8.8
-3 -9 3 8.3 8.4
-3 9 3 1.2 4.1
-2 -9 3 48.2 11.6
2 -9 -3 34.8 10.6
2 -9 -3 38.3 12.4
-2 -9 3 53.19 12.1
-2 9 3 42.3 8.2
-1 -9 3 121.19 16.2
-1 -9 3 121.89 16.2
1 -9 -3 115.59 15.9
1 -9 -3 96.79 15.8
0 -9 -3 79.89 14.2
0 -9 3 76.89 13.9
0 -9 -3 54.29 12.9
0 -9 3 57.49 12.5
-1 -9 -3 107.39 15.4
1 -9 3 111.99 15.8
1 -9 3 147.99 18.5
-1 -9 -3 119.49 16.7
1 9 3 99.49 19.5
-2 -9 -3 21.2 9.2
2 -9 3 -1.5 8.4
-2 -9 -3 12.5 9
2 -9 3 16.7 9
-2 9 -3 28 12
2 9 3 3.2 10.5
-3 -9 -3 11.3 9.1
-3 -9 -3 10 8.8
3 -9 3 18.3 9.8
3 -9 3 16.9 9.9
-3 9 -3 14.7 6.8
3 9 3 5.4 11.7
4 -9 3 169.28 19.9
4 -9 3 152.38 19.3
-4 -9 -3 202.68 20.8
-4 -9 -3 138.09 17.5
-4 9 -3 142.29 15.2
4 9 3 200.38 29
-5 -9 -3 10 7.9
-5 -9 -3 10.2 8
5 -9 3 6.3 8.4
5 -9 3 1.4 8.4
5 9 3 -1.4 11.7
-5 9 -3 6.9 6.1
6 -9 3 10.8 10.2
-6 -9 -3 15.4 9
6 -9 3 17.2 9.7
-6 -9 -3 11.6 8.8
-6 9 -3 20.7 8.1
6 9 3 17.7 13.5
-7 -9 -3 21.5 9.8
7 -9 3 46.2 13.1
-7 -9 -3 28.1 10.1
-7 9 -3 51.99 11.3
-4 -10 3 6 8.4
4 -10 -3 25.3 10.8
3 -10 -3 48.9 14.2
-3 -10 3 44.4 11.6
3 -10 -3 29.9 11.6
-3 -10 3 39.4 12.1
-3 10 3 31 10.2
2 -10 -3 14.8 10.5
-2 -10 3 3.7 8
-2 -10 3 10.9 9
2 -10 -3 3.7 9
1 -10 -3 -2.8 7.9
1 -10 -3 10.8 9
-1 -10 3 -8.1 7
-1 -10 3 6.1 8.3
0 -10 -3 24.3 10.8
0 -10 -3 20 11.2
0 -10 3 41.5 11.9
0 -10 3 21.1 10
-1 -10 -3 19.6 10.5
1 -10 3 32.2 11.2
1 -10 3 32.4 11.3
-1 -10 -3 29.8 10.7
2 -10 3 11.7 9.3
-2 -10 -3 11 9.4
2 -10 3 12.5 9.7
-2 -10 -3 16 10.3
2 10 3 29.4 14.6
-3 -10 -3 22.7 10.2
3 -10 3 23.1 11.1
-3 -10 -3 16.4 10.2
3 -10 3 24 10.7
16 0 -4 -12.5 12.8
-16 0 4 13.9 6.3
16 0 -4 -2.8 9.7
16 0 -4 3.8 4.9
15 0 -4 -5 11.5
15 0 -4 -4.4 9
-15 0 4 0.2 5.1
15 0 -4 4.4 5.1
14 0 -4 43.7 12
-14 0 4 69.49 9.6
14 0 -4 59.59 14.6
14 0 -4 50.69 8.3
13 0 -4 11.5 9.2
13 0 -4 6.8 4.3
-13 0 4 4.6 4.3
13 0 -4 5.8 9.9
12 0 -4 60.59 8.2
12 0 -4 57.09 10.9
12 0 -4 62.69 12.5
11 0 -4 14.9 8.7
11 0 -4 -1.7 3.2
11 0 -4 10.2 7.4
10 0 -4 10.4 6.2
10 0 -4 18.2 7.6
10 0 -4 19.5 5.1
-10 0 4 12.4 2.6
9 0 -4 92.89 8
-9 0 4 87.69 5
9 0 -4 96.59 11.5
9 0 -4 92.59 10.4
-8 0 4 17.3 2.3
8 0 -4 24.6 5.9
8 0 -4 20 6.1
8 0 -4 21.5 4.4
7 0 -4 1077.59 36.6
7 0 -4 1042.1 33.1
-7 0 4 1037.4 28.8
7 0 -4 1055.39 35.4
6 0 -4 547.55 19
-6 0 4 511.25 15.1
6 0 -4 530.95 21.7
6 0 -4 517.65 20.6
5 0 -4 1553.54 45.4
-5 0 4 1445.36 39.2
5 0 -4 1477.85 44.2
5 0 -4 1502.65 42.8
4 0 -4 3153.98 82.59
-4 0 4 2987.5 79.79
4 0 -4 3167.18 83.99
-3 0 4 80.89 3.5
-3 0 4 85.09 3.6
3 0 -4 89.09 5
3 0 -4 95.79 6.2
2 0 -4 1.7 1.5
-2 0 4 -0.5 0.8
1 0 -4 23.6 2.6
1 0 -4 24.2 2.3
-1 0 4 24.8 2.3
0 0 -4 4335.17 112.09
0 0 -4 4279.17 112.79
0 0 4 4398.36 112.19
-1 0 -4 937.11 28.2
1 0 4 1017.4 27.8
-1 0 -4 993.3 27.5
2 0 4 954.9 28.2
2 0 4 920.11 27.1
-2 0 -4 948.41 27.1
-2 0 -4 967.5 27.9
3 0 4 243.28 10.2
3 0 4 219.78 9
3 0 4 227.38 14.6
-3 0 -4 225.68 9.6
-3 0 -4 220.98 9.1
-4 0 -4 49.2 5.2
-4 0 -4 51.79 5
4 0 4 49.9 4.5
-4 0 -4 53.29 4.7
4 0 4 57.29 6.5
4 0 4 54.89 8
4 0 4 48.6 5
-5 0 -4 452.15 16.7
-5 0 -4 475.65 17
5 0 4 462.25 20.5
5 0 4 489.45 16.3
5 0 4 449.46 18.8
5 0 4 459.35 17.4
-5 0 -4 435.76 15.7
-6 0 -4 52.29 5.8
6 0 4 58.09 7.9
6 0 4 53.49 9
6 0 4 64.09 5.7
6 0 4 62.59 6.7
-6 0 -4 49.9 5.1
-6 0 -4 48.4 5.7
6 0 4 60.39 8.7
7 0 4 -2.3 4.9
-7 0 -4 4.8 2.6
7 0 4 7.6 6.8
-7 0 -4 6.2 2.6
7 0 4 7 3.1
7 0 4 0.3 2.2
7 0 4 -1 4.9
-7 0 -4 2.5 2.6
8 0 4 -1 2.7
8 0 4 4.2 7.7
8 0 4 4.2 5.5
8 0 4 -6.7 5.1
-8 0 -4 0.6 2.5
-8 0 -4 0.9 2.2
-8 0 -4 0.1 2.9
-9 0 -4 1.3 3.1
9 0 4 4.9 6.3
9 0 4 4.9 6.4
-9 0 -4 6.4 3.9
9 0 4 6 3.6
9 0 4 12.9 9.4
-9 0 -4 2.7 3
10 0 4 14.9 8.9
-10 0 -4 11.1 4.2
-10 0 -4 29.5 6.3
10 0 4 13.6 4.6
-10 0 -4 15.2 4.8
10 0 4 21 11.4
11 0 4 2.9 8.6
-11 0 -4 6 3.8
11 0 4 -5.7 9.9
-11 0 -4 7.5 3.5
11 0 4 6.2 4.5
-11 0 -4 12 5
12 0 4 62.99 9.3
12 0 4 74.69 13.7
-12 0 -4 73.39 8.6
-12 0 -4 88.99 8.5
12 0 4 89.69 16.4
13 0 4 -4.4 12.2
-13 0 -4 4.4 4.4
-13 0 -4 0.1 4.9
13 0 4 -0.9 8.8
13 0 4 1.7 4.6
-13 0 -4 0.6 3.5
-14 0 -4 -1.8 5.5
14 0 4 4.4 10.4
14 0 4 2 5
15 0 4 29.3 13
-15 0 -4 37 9.1
15 0 4 27.3 8.7
16 -1 -4 40.7 12.9
16 -1 -4 21.9 7
16 1 -4 33.9 8.6
-16 1 4 22.9 7.9
16 1 -4 12 11.3
16 1 -4 9.9 14.8
-15 -1 4 15.3 6
15 -1 -4 3.3 9.7
15 -1 -4 -3.2 11.6
15 -1 -4 10.2 5.4
-15 1 4 8.7 6.3
15 1 -4 3 13
15 1 -4 18.6 6.6
15 1 -4 6.6 10
-14 -1 4 149.19 11.6
14 -1 -4 130.29 13.8
14 -1 -4 138.19 17.8
14 -1 -4 144.59 18.7
14 1 -4 130.79 18
14 1 -4 116.49 18
-14 1 4 144.59 13.8
14 1 -4 153.08 13.1
13 -1 -4 10.2 4.7
-13 -1 4 7.1 4.7
13 -1 -4 3 9.2
13 -1 -4 14.9 8.4
13 1 -4 5.1 4.2
13 1 -4 1.9 10.1
13 1 -4 11 9.2
12 -1 -4 49.8 11.2
12 -1 -4 42.7 7.3
12 -1 -4 49.4 10.6
-12 -1 4 65.69 8.2
12 1 -4 56.49 8
12 1 -4 43.8 12
12 1 -4 70.19 12.1
11 -1 -4 5.2 6.5
11 -1 -4 -5.4 6.8
11 -1 -4 3.5 3.2
11 1 -4 8.1 4
11 1 -4 12.3 8.7
-11 1 4 1.5 2.7
11 1 -4 11.3 8.4
10 -1 -4 26 8.3
10 -1 -4 23 5.1
10 -1 -4 22.1 7.1
10 1 -4 25.2 5.1
-10 1 4 28.3 4.1
10 1 -4 15.6 7.3
10 1 -4 23.3 8.6
9 -1 -4 16.4 4.1
9 -1 -4 8 5.9
9 -1 -4 13.1 5.4
-9 -1 4 16 1.7
9 1 -4 22.1 7
9 1 -4 34.6 8.7
9 1 -4 15 4.2
-9 1 4 19.4 3.2
8 -1 -4 45.2 7.6
8 -1 -4 45.5 7
8 -1 -4 48.6 6
8 1 -4 36.8 7.7
8 1 -4 45.8 7.8
8 1 -4 42.5 5.6
-8 1 4 40.6 4.1
7 -1 -4 36.6 5
7 -1 -4 42.2 6.5
7 -1 -4 40.3 6.6
7 1 -4 42 5.2
7 1 -4 33.1 6.8
7 1 -4 31.4 5.8
-7 1 4 35.6 3.7
6 -1 -4 2361.06 64.29
6 -1 -4 2347.47 66.09
6 -1 -4 2224.88 65.39
6 1 -4 2294.07 68.09
-6 1 4 2254.17 61.29
6 1 -4 2250.47 66.29
6 1 -4 2294.37 63.69
5 -1 -4 249.18 10.9
5 -1 -4 258.47 11.9
-5 1 4 241.38 9.1
5 1 -4 252.17 12.4
5 1 -4 254.97 13.8
5 1 -4 266.17 10.9
4 -1 -4 1239.28 37.3
4 -1 -4 1295.97 36.6
4 -1 -4 1315.77 35.9
4 1 -4 1295.97 36.5
4 1 -4 1293.77 38.1
4 1 -4 1260.57 39.3
-4 1 4 1242.98 35
3 -1 -4 8.5 2.1
3 -1 -4 8.9 2.2
-3 -1 4 10.1 1.1
3 1 -4 6.5 1.8
-3 1 4 11.2 1.8
3 1 -4 6.1 2.4
2 -1 -4 898.41 24.8
2 1 -4 704.23 23.5
-2 1 4 870.11 23.4
1 -1 -4 102.09 5.1
-1 -1 4 115.39 5.2
1 -1 -4 113.89 5.2
1 -1 -4 130.29 6.8
1 1 -4 112.19 4.6
-1 1 4 120.89 5.2
1 1 -4 113.69 5
0 -1 4 1526.15 42.2
0 -1 -4 1545.85 41.9
0 -1 -4 1546.55 43.2
0 1 -4 1598.24 41.4
0 1 4 1496.75 41.8
0 1 -4 1604.24 42.4
-1 -1 -4 1313.57 37.8
-1 -1 -4 1305.47 36.5
1 -1 4 1385.66 37.4
-1 1 -4 1354.06 37.2
1 1 4 1296.97 36.5
-1 1 -4 1324.87 36.3
2 -1 4 110.09 7.3
-2 -1 -4 103.69 5.2
-2 -1 -4 96.79 6.3
2 -1 4 114.69 6.3
2 1 4 141.59 14.1
-2 1 -4 98.79 5.2
-2 1 -4 114.79 6
2 1 4 106.29 6.3
2 1 4 95.29 5.3
-3 -1 -4 59.29 4.9
3 -1 4 60.89 5.4
-3 -1 -4 64.99 4.3
3 -1 4 43.6 4.6
3 1 4 63.59 9.6
-3 1 -4 52.69 4
-3 1 -4 55.89 5.1
3 1 4 53.89 4.6
3 1 4 61.59 4
4 -1 4 576.74 19.7
-4 -1 -4 579.44 18.5
-4 -1 -4 558.74 18.6
4 -1 4 552.54 19.4
-4 -1 -4 580.04 19.5
4 -1 4 592.74 21.3
4 -1 4 559.14 19.9
4 1 4 614.54 25.1
-4 1 -4 582.34 18.5
-4 1 -4 592.34 19.3
-4 1 -4 545.35 19.2
4 1 4 547.95 21.2
4 1 4 582.94 17.9
4 1 4 562.04 19.1
-5 -1 -4 6.3 2.8
-5 -1 -4 10.3 3
5 -1 4 7.2 3.3
-5 -1 -4 3.5 2.3
5 -1 4 2.8 3
5 -1 4 -3.3 4
5 -1 4 -3 3.4
5 1 4 3.4 6.5
5 1 4 3.3 2.6
5 1 4 1.9 5.3
5 1 4 4.8 4.7
-5 1 -4 4.6 2.6
-5 1 -4 5.9 2.6
5 1 4 6.2 2.4
-5 1 -4 5.6 2.4
6 -1 4 2.4 3.9
-6 -1 -4 3.5 2.4
6 -1 4 1.8 2.8
-6 -1 -4 2.4 2.4
6 -1 4 6.7 3.2
-6 -1 -4 1.3 2.4
6 -1 4 4.4 3.8
6 1 4 7.8 6.2
6 1 4 4.5 2.4
6 1 4 3.2 2.4
-6 1 -4 3.2 2.3
6 1 4 4.5 4.3
-6 1 -4 3.3 2.6
6 1 4 3.3 6
-6 1 -4 5.7 2.4
7 -1 4 5.8 4.7
-7 -1 -4 0.2 2.6
7 -1 4 2.5 4.3
-7 -1 -4 1.1 2.3
-7 -1 -4 2.3 2.6
7 -1 4 2 2.6
7 -1 4 -0.3 2.6
7 1 4 -2.7 5.1
7 1 4 -1 2.2
-7 1 -4 2.3 2.2
-7 1 -4 2.1 2.5
7 1 4 7.1 6.7
-7 1 -4 -1.7 2.3
7 1 4 8.4 6.3
8 -1 4 99.09 10.4
-8 -1 -4 107.19 8.1
-8 -1 -4 92.49 7.7
8 -1 4 84.49 9.1
8 -1 4 99.79 11.1
-8 -1 -4 98.89 7
8 1 4 110.29 12.9
-8 1 -4 104.39 8.3
8 1 4 77.89 12.6
-8 1 -4 87.19 7.4
8 1 4 97.89 8.2
8 1 4 106.79 14.3
-8 1 -4 94.19 6.9
9 -1 4 116.19 12.3
9 -1 4 120.19 14.3
-9 -1 -4 121.09 8.1
9 -1 4 128.39 10.5
-9 -1 -4 130.19 9.7
-9 -1 -4 112.39 8.9
-9 1 -4 141.29 10.2
9 1 4 148.59 15.2
-9 1 -4 142.59 9.5
9 1 4 122.99 16.2
9 1 4 106.99 15.4
9 1 4 126.59 9.9
-9 1 -4 127.49 8.5
10 -1 4 131.39 14.4
10 -1 4 100.29 10.5
-10 -1 -4 148.79 10.9
-10 -1 -4 128.39 9.9
-10 -1 -4 151.38 9.3
10 -1 4 129.19 16.1
-10 1 -4 120.29 10.1
10 1 4 147.39 18.2
-10 1 -4 144.69 11.2
10 1 4 132.69 17.2
10 1 4 123.39 15.4
10 1 4 138.49 11.3
-11 -1 -4 472.95 18.7
-11 -1 -4 478.15 19.9
11 -1 4 510.65 23.6
11 -1 4 472.95 25.8
-11 -1 -4 496.15 21.4
11 1 4 474.85 30.9
-11 1 -4 470.05 20.4
11 1 4 476.35 27.9
-11 1 -4 488.45 22.1
11 1 4 454.75 22.1
12 -1 4 16.9 9.3
-12 -1 -4 16.8 5.7
12 -1 4 16.5 5.9
-12 -1 -4 27.5 5.6
-12 -1 -4 18.5 5.1
-12 1 -4 29.4 7.2
12 1 4 29.5 11.1
12 1 4 15.9 12.6
12 1 4 22.7 5.9
-12 1 -4 25.6 5.9
-13 -1 -4 18.6 5.2
13 -1 4 15.2 10
13 -1 4 20.7 6.7
-13 -1 -4 37.4 7.8
-13 1 -4 25.3 7.1
13 1 4 41.7 15.3
13 1 4 7.2 10.4
13 1 4 13.3 6.1
-13 1 -4 23.9 6.2
14 -1 4 16.3 6.9
14 -1 4 17.3 11.3
-14 -1 -4 18.4 6.8
-14 -1 -4 26.9 6.2
-14 1 -4 30 7.8
14 1 4 18.9 6.8
14 1 4 -5.8 14.1
-14 1 -4 33.7 7.4
14 1 4 18.7 11.9
-15 -1 -4 125.99 13.9
-15 -1 -4 127.79 11.3
15 -1 4 95.49 13
15 -1 4 91.99 17.4
-15 1 -4 95.49 12.5
15 1 4 119.49 14
15 1 4 96.39 18.3
16 -2 -4 19.2 11.2
16 -2 -4 44.5 9.7
-16 2 4 18.5 7
16 2 -4 3.9 15.5
16 2 -4 18.3 7.4
16 2 -4 32 13.5
15 -2 -4 -4.8 9
15 -2 -4 10.2 6
-15 2 4 -1.8 4.4
15 2 -4 -9.6 12.5
15 2 -4 9.3 10.4
15 2 -4 -2.7 4.4
14 -2 -4 20.5 10.1
14 -2 -4 10.7 5.8
14 2 -4 31.5 13.5
14 2 -4 19.5 6.5
14 2 -4 26.5 11.5
13 -2 -4 6.3 4.5
13 -2 -4 -6.9 6.9
-13 2 4 2 3.1
13 2 -4 5.4 4.3
13 2 -4 -7.8 9.5
13 2 -4 3.8 8.4
12 -2 -4 62.09 10.9
12 -2 -4 55.59 11.4
-12 -2 4 67.39 7.9
12 -2 -4 44.4 7.4
12 2 -4 60.09 8.5
12 2 -4 90.09 15.4
12 2 -4 56.29 11.7
-12 2 4 69.09 7.3
11 -2 -4 132.09 14.3
11 -2 -4 110.09 13.5
11 -2 -4 158.08 12
-11 -2 4 155.78 9.9
11 2 -4 134.69 10.8
11 2 -4 134.99 16.6
11 2 -4 123.59 15.6
-11 2 4 140.99 9.2
-10 -2 4 66.19 6.9
10 -2 -4 69.09 8.5
10 -2 -4 51.49 9.1
10 -2 -4 68.09 9.9
10 2 -4 54.49 9.8
10 2 -4 61.29 11.9
-10 2 4 80.49 7.1
10 2 -4 46.2 6.8
9 -2 -4 43.8 6.2
9 -2 -4 41.1 7.4
9 -2 -4 48 8.1
9 2 -4 46.1 10.3
9 2 -4 37.1 5.7
-9 2 4 43.6 5.2
9 2 -4 50.69 9.6
8 -2 -4 454.25 20.8
8 -2 -4 462.05 20.6
8 -2 -4 459.95 19.3
8 2 -4 492.85 18.9
8 2 -4 475.35 22.8
8 2 -4 522.25 25.4
-8 2 4 511.15 17.6
7 -2 -4 0.3 2.1
7 -2 -4 -1.9 2.7
7 -2 -4 -3.6 3.2
7 -2 -4 2.8 2.3
7 2 -4 0.1 1.9
7 2 -4 0.7 3.7
7 2 -4 -2.8 4.5
-7 2 4 0.1 1.5
6 -2 -4 126.89 8
6 -2 -4 136.59 9.1
6 -2 -4 134.79 7.9
6 -2 -4 133.49 9.3
-6 2 4 130.59 7.1
6 2 -4 133.49 7.6
6 2 -4 136.99 10.4
6 2 -4 125.39 11.4
5 -2 -4 42.8 4.9
5 -2 -4 36.5 5.1
5 -2 -4 37.1 5
5 2 -4 44.4 4.6
5 2 -4 30.2 6.4
-5 2 4 35.4 4
5 2 -4 41.4 6.1
4 -2 -4 468.15 16.1
-4 -2 4 471.65 13.4
4 -2 -4 469.05 16.9
4 -2 -4 484.75 17.2
4 2 -4 485.95 19.7
-4 2 4 450.35 15.7
4 2 -4 462.45 15.8
4 2 -4 469.95 17.9
-3 -2 4 34.3 2.8
3 -2 -4 39.3 3.4
3 -2 -4 29.9 4.1
3 2 -4 42.1 3.5
3 2 -4 41.1 5.6
3 2 -4 35.3 4.4
-3 2 4 34.7 3.7
2 -2 -4 612.54 20.9
2 -2 -4 648.34 18.7
-2 -2 4 607.14 18.6
-2 2 4 630.44 19.4
-2 2 4 630.84 19.3
-1 -2 4 154.48 7
1 -2 -4 164.78 6.1
1 -2 -4 152.18 8.2
1 2 -4 165.48 6.6
-1 2 4 157.88 6.9
0 -2 4 841.72 25.2
0 -2 -4 851.21 26.4
0 -2 -4 840.22 24.2
0 2 -4 816.22 24.6
0 2 -4 841.32 23.3
0 2 4 827.72 24.4
1 -2 4 110.39 6.4
-1 -2 -4 108.49 5.2
-1 -2 -4 110.29 6.8
1 2 4 109.09 13
1 2 4 106.19 5.4
-1 2 -4 100.59 5.8
-1 2 -4 104.79 5
2 -2 4 339.97 13.1
-2 -2 -4 302.77 12.8
-2 -2 -4 329.97 11.3
2 -2 4 312.17 12.8
-2 2 -4 322.27 11.4
2 2 4 299.87 11.1
2 2 4 326.77 19.4
2 2 4 341.47 11.2
-2 2 -4 329.07 12.4
-3 -2 -4 16.9 2.8
3 -2 4 15.4 3.7
-3 -2 -4 14.8 3.5
-3 -2 -4 19.4 3.9
3 -2 4 16.6 3.8
-3 2 -4 17.3 3.4
-3 2 -4 17 3.1
3 2 4 5.2 6.5
3 2 4 13.7 2.7
3 2 4 16.2 2.7
-4 -2 -4 469.55 16.5
4 -2 4 452.65 17.5
4 -2 4 480.25 19.5
-4 -2 -4 436.56 17
-4 -2 -4 438.06 15.4
4 -2 4 468.55 17.6
-4 2 -4 441.56 16.8
4 2 4 445.16 15.5
-4 2 -4 462.55 16.4
4 2 4 430.16 14.6
4 2 4 450.45 23.5
4 2 4 433.76 20.8
5 -2 4 10.3 3.6
-5 -2 -4 3 2.8
5 -2 4 4.5 3.2
5 -2 4 14.9 3.9
-5 -2 -4 3.4 3
-5 -2 -4 6.3 2.8
5 2 4 9.1 7.5
5 2 4 3.6 5.4
-5 2 -4 6 2.7
5 2 4 3.4 2
-5 2 -4 8.2 2.9
5 2 4 6.6 2.5
5 2 4 4.7 5.1
-6 -2 -4 74.59 6.5
6 -2 4 61.99 7
-6 -2 -4 66.59 5.4
6 -2 4 55.09 6.8
6 -2 4 47.4 6.3
-6 -2 -4 65.99 6.6
6 2 4 49.6 9.9
6 2 4 49.9 10.5
6 2 4 54.59 5.7
-6 2 -4 66.19 6.8
-6 2 -4 59.19 6.5
6 2 4 50.39 8.1
7 -2 4 160.38 10.9
7 -2 4 176.98 10.7
-7 -2 -4 175.98 9.4
7 -2 4 168.18 11.3
-7 -2 -4 179.38 9.3
-7 -2 -4 188.88 10.4
7 2 4 152.88 14.4
7 2 4 169.18 17.7
7 2 4 168.78 9.6
-7 2 -4 180.58 10.3
7 2 4 147.79 15
-7 2 -4 168.48 10
-8 -2 -4 96.09 8
-8 -2 -4 86.69 8.1
8 -2 4 75.09 9.3
8 -2 4 105.09 9.4
-8 -2 -4 85.69 7.8
8 -2 4 112.69 10.4
8 2 4 80.49 12.2
8 2 4 97.09 14.7
-8 2 -4 85.29 8.6
-8 2 -4 107.29 8.5
8 2 4 64.39 12.9
8 2 4 84.59 8.2
9 -2 4 56.59 9.2
9 -2 4 36.9 6.4
-9 -2 -4 58.69 7.4
-9 -2 -4 46.8 6.8
-9 -2 -4 55.79 6.4
-9 2 -4 48.7 7.6
-9 2 -4 48.7 7.1
9 2 4 61.89 14.1
9 2 4 46.1 6.6
9 2 4 29.6 12.4
9 2 4 34.9 10.6
10 -2 4 26.8 8.6
-10 -2 -4 41.3 5.9
-10 -2 -4 42.9 6.7
10 -2 4 24.1 5.8
-10 -2 -4 42.2 6.6
10 2 4 37.2 6.7
-10 2 -4 37.4 6.8
10 2 4 28.3 10.1
10 2 4 31.8 11.4
-10 2 -4 39.7 6.7
10 2 4 34 13.2
-11 -2 -4 46.5 7.2
-11 -2 -4 40.8 7
11 -2 4 44.7 10.4
11 -2 4 50.49 8.8
-11 -2 -4 49.6 6.6
11 2 4 60.69 13.8
-11 2 -4 46.9 7.4
-11 2 -4 43.4 7.7
11 2 4 57.99 8.2
11 2 4 37.5 11.1
11 2 4 68.79 15.9
-12 -2 -4 12.4 4.5
12 -2 4 5.2 8.4
-12 -2 -4 14.5 5.5
12 -2 4 6.8 4.7
-12 2 -4 16.2 5.2
12 2 4 18.5 13.3
12 2 4 14.7 5.1
12 2 4 12.3 10.3
-12 2 -4 9.7 5.3
-13 -2 -4 -4.9 4.1
13 -2 4 1.6 8.5
-13 -2 -4 -1.7 3.8
13 -2 4 0.9 4.6
13 2 4 -4.1 3.5
13 2 4 -1.4 12.8
13 2 4 -5.1 9.4
-13 2 -4 -1.7 4
-13 2 -4 -6.1 3.2
-14 -2 -4 5.2 5.8
-14 -2 -4 0.2 4
14 -2 4 2.6 4.9
14 2 4 -7.1 9.9
14 2 4 -10.7 13.1
-14 2 -4 0.1 4.4
14 2 4 3.6 5.1
-14 2 -4 -2.9 4.5
-15 -2 -4 4.6 6.8
15 -2 4 -0.3 5.1
-15 -2 -4 -2.4 4.9
15 2 4 11.5 12.7
15 2 4 2 5.6
15 2 4 -10.9 15.3
-15 2 -4 3.5 6.2
-15 2 -4 5.4 5.5
16 -3 -4 24.6 12.2
16 3 -4 31 14.9
16 3 -4 -26 13.2
-16 3 4 20.9 7.7
15 -3 -4 47.8 9.6
15 -3 -4 81.59 15
-15 3 4 76.69 11.4
15 3 -4 38.4 8.7
15 3 -4 48.4 14.7
15 3 -4 51.69 18.4
14 -3 -4 57.49 10.1
14 -3 -4 88.89 14.2
14 3 -4 60.69 17.5
14 3 -4 71.29 10.1
14 3 -4 55.39 14.3
-14 3 4 85.19 9.5
13 -3 -4 37 10
13 -3 -4 21 6.3
13 3 -4 5.8 9.2
-13 3 4 37.7 6.5
13 3 -4 29.7 12.9
13 3 -4 22.9 6.1
12 -3 -4 -2.2 6.2
12 -3 -4 -5.3 3.1
12 3 -4 11.2 8.8
-12 3 4 4.9 3.5
12 3 -4 -2.4 10.1
12 3 -4 2.5 3.6
11 -3 -4 418.86 20.4
11 -3 -4 380.86 21.9
11 3 -4 396.66 25.2
11 3 -4 396.16 28
11 3 -4 410.66 18.9
-11 3 4 407.46 17.6
10 -3 -4 196.68 15
10 -3 -4 189.78 13
10 3 -4 184.48 19.6
10 3 -4 164.48 16.6
10 3 -4 164.88 11.2
-10 3 4 192.68 11
9 -3 -4 570.34 23.2
9 -3 -4 580.34 24.6
9 3 -4 573.84 28
9 3 -4 594.74 30.3
-9 3 4 559.34 21.1
9 3 -4 529.25 21.5
8 -3 -4 158.18 11.6
-8 -3 4 171.58 8
8 -3 -4 168.78 12
8 -3 -4 165.68 10.5
8 -3 -4 165.78 10.6
8 3 -4 165.68 9.8
-8 3 4 168.28 9.7
8 3 -4 189.18 14.9
8 3 -4 147.29 15.3
7 -3 -4 37.9 5.9
7 -3 -4 39.6 5.7
7 -3 -4 43 6.1
-7 -3 4 33.8 2.9
7 -3 -4 37.7 5.2
-7 -3 4 33.2 3.5
-7 -3 4 34.9 3.6
7 3 -4 46.1 5.4
-7 3 4 40.6 5.2
7 3 -4 41.9 8.4
7 3 -4 46.3 8.4
-6 -3 4 120.29 5.3
-6 -3 4 112.79 5.3
6 -3 -4 121.69 8.8
-6 -3 4 114.29 5.9
6 -3 -4 117.19 7.9
6 -3 -4 120.09 8.9
6 3 -4 116.39 7.1
6 3 -4 113.39 11.5
-6 3 4 115.89 7.4
6 3 -4 108.99 10.3
-5 -3 4 701.13 19.9
-5 -3 4 714.43 21.2
5 -3 -4 725.23 25.6
5 -3 -4 751.02 23.9
5 -3 -4 764.92 24.8
-5 -3 4 709.83 21.4
5 3 -4 714.53 28.1
-5 3 4 714.93 23.8
5 3 -4 738.63 26.6
5 3 -4 721.93 23
4 -3 -4 98.39 8.1
-4 -3 4 107.99 5.9
4 -3 -4 116.09 6.7
-4 -3 4 109.09 6
4 3 -4 104.69 8.6
4 3 -4 109.29 6.2
4 3 -4 121.09 10.2
-4 3 4 111.59 6.9
-3 -3 4 172.28 8.3
3 -3 -4 202.58 11.4
-3 -3 4 203.88 8.9
3 -3 -4 194.08 8.4
3 3 -4 191.78 10.4
-3 3 4 190.58 9.3
3 3 -4 184.98 12
-2 -3 4 158.68 8.2
2 -3 -4 150.78 6.7
-2 -3 4 152.98 8.1
2 -3 -4 154.38 9.8
-2 3 4 167.48 8.3
2 3 -4 166.08 8.5
-2 3 4 153.38 8
2 3 -4 151.28 6.7
1 -3 -4 58.79 6.7
-1 -3 4 49 5.2
1 -3 -4 67.69 7.1
-1 -3 4 61.79 5.7
1 -3 -4 66.49 3.7
1 3 -4 61.79 4.5
-1 3 4 98.69 13.9
-1 3 4 60.79 4.9
0 -3 4 54.69 5.9
0 -3 4 38.8 5
0 -3 -4 56.99 6.6
0 -3 -4 57.79 6.5
0 3 4 51.09 4.8
0 3 -4 53.79 3.5
0 3 -4 56.79 5
0 3 4 67.59 11.9
1 -3 4 145.29 9
-1 -3 -4 151.98 9.6
-1 -3 -4 137.79 9.2
1 -3 4 155.08 9.1
1 -3 4 151.38 8.5
-1 -3 -4 148.89 7
1 3 4 147.89 7.5
-1 3 -4 140.99 7.9
-1 3 -4 146.09 6.6
1 3 4 169.08 16.9
-2 -3 -4 837.42 24.2
-2 -3 -4 802.12 27.2
2 -3 4 776.22 27
2 -3 4 832.52 26.9
2 -3 4 813.82 26.1
-2 -3 -4 801.02 26.8
2 3 4 755.42 33.5
-2 3 -4 788.52 26
2 3 4 814.62 24.6
2 3 4 841.12 22.8
-2 3 -4 816.02 24.5
3 -3 4 1.4 3.2
-3 -3 -4 4.4 3.4
-3 -3 -4 2.2 2.9
3 -3 4 -1.6 3.2
3 -3 4 5.3 3.2
-3 -3 -4 2.9 2
3 3 4 2.8 1.9
3 3 4 -7.2 6.8
3 3 4 2 1.5
-3 3 -4 -2.5 2
-3 3 -4 4.4 2.2
4 -3 4 21.4 5
4 -3 4 29.2 5.4
-4 -3 -4 31.2 5.1
-4 -3 -4 34 4.1
4 -3 4 29.9 4.8
-4 -3 -4 27 4.8
-4 3 -4 28.7 4.1
4 3 4 28.1 9.2
-4 3 -4 30.9 4.6
4 3 4 36.9 3.7
4 3 4 27.9 7.4
4 3 4 32.4 3.9
5 -3 4 67.99 7.8
-5 -3 -4 54.99 6.3
-5 -3 -4 45.2 5.9
5 -3 4 57.89 5.3
5 -3 4 39.6 6.2
-5 -3 -4 53.89 5.2
5 -3 4 45.6 6
5 3 4 49.3 4.1
5 3 4 38.6 10.4
5 3 4 43.3 9.1
-5 3 -4 33.5 4.8
-5 3 -4 65.99 7
5 3 4 47.4 4.7
-6 -3 -4 332.27 14.4
6 -3 4 332.47 14.5
-6 -3 -4 350.96 13.7
6 -3 4 339.07 15.9
-6 -3 -4 354.86 15.6
6 -3 4 334.97 16
6 -3 4 385.36 16.9
-6 3 -4 364.66 15.3
6 3 4 340.77 13.7
-6 3 -4 356.06 15.7
6 3 4 314.27 20.7
6 3 4 359.36 23.7
-7 -3 -4 6.4 3.9
7 -3 4 1.1 4
7 -3 4 8.1 4.4
-7 -3 -4 7.4 3.2
7 -3 4 11.8 4.3
-7 -3 -4 8.5 4.2
7 3 4 1.7 7
-7 3 -4 3.5 3.1
7 3 4 -9.7 7.8
7 3 4 6.8 9.6
7 3 4 9.3 3.1
-7 3 -4 12 4
8 -3 4 461.25 20.5
-8 -3 -4 436.36 17.5
8 -3 4 430.06 19.6
-8 -3 -4 436.66 18.8
-8 -3 -4 453.25 17.8
8 -3 4 450.75 19.9
-8 3 -4 455.95 19.4
8 3 4 449.95 18.3
8 3 4 415.86 28.6
-8 3 -4 451.45 19.3
8 3 4 419.26 24.9
8 3 4 468.25 28.7
9 -3 4 25.5 6.2
-9 -3 -4 12 4.8
-9 -3 -4 17.7 5.5
-9 -3 -4 12.3 4.5
9 3 4 14.8 11.2
9 3 4 29.8 10.8
9 3 4 20.5 5
-9 3 -4 16.5 5.2
9 3 4 19.5 12.1
-9 3 -4 14.5 4.9
10 -3 4 -2.2 3.9
-10 -3 -4 0.5 3.8
-10 -3 -4 1.2 3.7
-10 -3 -4 7.3 4.1
10 3 4 11.7 11.4
-10 3 -4 2.1 3.6
-10 3 -4 -4.1 3.4
10 3 4 7.2 4
10 3 4 -1.2 9.1
10 3 4 -15.2 7.1
-11 -3 -4 17.7 4.8
-11 -3 -4 14.4 4.8
11 -3 4 12 5.5
11 3 4 11.1 11.9
-11 3 -4 12.1 5.1
11 3 4 3.5 9.6
-11 3 -4 3.8 4.7
11 3 4 11.9 4.5
11 3 4 12.8 9.9
-12 -3 -4 189.68 17.8
-12 -3 -4 177.18 11.2
12 -3 4 185.28 15.2
-12 3 -4 159.28 13.1
12 3 4 149.39 12.3
12 3 4 170.68 20.9
12 3 4 162.38 23.5
-12 3 -4 152.48 12.5
-13 -3 -4 7.7 5
13 -3 4 5.6 5.8
13 3 4 -9.3 12.9
13 3 4 4.6 4.8
-13 3 -4 19.9 6.9
13 3 4 -1.6 10.3
-13 3 -4 -1.1 4.7
-14 -3 -4 20.5 5.6
14 -3 4 19.2 8
-14 3 -4 24 7
14 3 4 4.2 11.7
-14 3 -4 23.4 7.7
14 3 4 -6.4 15.7
15 3 4 24.5 14
15 3 4 58.09 21
15 -4 -4 68.39 11.9
-15 4 4 60.09 9.4
15 4 -4 68.99 16.5
-15 4 4 81.99 12.3
15 4 -4 36 17.5
14 -4 -4 7.3 6
14 4 -4 4.3 10.7
14 4 -4 -14.9 11.5
-14 4 4 8.1 4.9
13 -4 -4 17.5 8.7
13 -4 -4 29.7 7.9
13 4 -4 15.6 12.6
-13 4 4 20.4 6
13 4 -4 -1.4 9.6
12 -4 -4 18 7.5
12 -4 -4 7.4 5
-12 4 4 16.6 5.4
12 4 -4 -2.5 8.1
12 4 -4 10 4.5
12 4 -4 5.6 10.2
11 -4 -4 5.7 6.1
11 -4 -4 3 4.6
11 4 -4 2.7 8.4
11 4 -4 -2.5 9.6
11 4 -4 2.4 3.3
-11 4 4 14.1 4.7
10 -4 -4 0 4.9
10 -4 -4 0.2 3.8
10 4 -4 17.1 10.5
10 4 -4 3.1 7.3
-10 4 4 0.3 2.8
10 4 -4 -2.3 2.7
9 -4 -4 426.86 19.4
9 -4 -4 387.36 19.7
9 4 -4 348.27 23.2
9 4 -4 392.46 26.5
-9 4 4 365.36 17.2
9 4 -4 377.76 16.9
8 -4 -4 2.6 3.3
-8 -4 4 1 2.7
8 -4 -4 1.6 4.3
8 -4 -4 3.9 4.6
8 4 -4 4.8 2.9
8 4 -4 2.6 8
8 4 -4 1.7 7.2
-8 4 4 6 3.5
7 -4 -4 46.2 7.3
7 -4 -4 49 6.2
7 -4 -4 51.99 6.9
-7 -4 4 48.5 5
-7 -4 4 46.1 4.8
7 4 -4 40.2 8.7
7 4 -4 47.3 9.9
7 4 -4 48.8 5.7
-7 4 4 51.49 6.6
6 -4 -4 4.3 2.7
-6 -4 4 1.2 2.4
-6 -4 4 1.8 2.6
6 -4 -4 2.2 3.4
6 -4 -4 0.5 3.2
6 -4 -4 7.4 4.1
6 4 -4 13.4 6.3
6 4 -4 -0.2 5.5
-6 4 4 0.2 2.3
6 4 -4 -0.6 1.9
5 -4 -4 1727.03 53.49
5 -4 -4 1825.52 55.09
5 -4 -4 1825.82 51.09
-5 -4 4 1776.12 49.99
-5 -4 4 1770.72 49.7
5 4 -4 1723.13 57.09
-5 4 4 1767.92 52.09
5 4 -4 1822.32 50.19
5 4 -4 1736.13 54.49
-4 -4 4 2.3 2.7
4 -4 -4 2.5 1.9
-4 -4 4 2.6 2.6
4 -4 -4 -1.2 2.9
4 -4 -4 0.1 3.5
-4 4 4 -0.1 2
4 4 -4 3.8 4.4
4 4 -4 6.2 4.4
-4 4 4 -6.2 8.3
3 -4 -4 876.61 26.2
3 -4 -4 916.81 31.6
-3 -4 4 886.51 28.2
3 -4 -4 880.81 30.4
-3 -4 4 880.61 27.8
3 4 -4 902.91 25.5
3 4 -4 856.71 31
-3 4 4 899.01 28.5
-3 4 4 879.81 28.7
3 4 -4 852.21 28.8
-3 4 4 903.01 36.9
2 -4 -4 55.09 3.8
-2 -4 4 47.5 5.7
2 -4 -4 51.99 7.1
2 -4 -4 58.99 8.1
-2 -4 4 48.3 5.8
-2 4 4 65.29 6.3
-2 4 4 47.6 5.7
2 4 -4 55.19 5.8
2 4 -4 55.29 6.8
2 4 -4 49.7 4.6
-2 4 4 67.59 12.2
1 -4 -4 6.7 4
1 -4 -4 4.2 1.4
1 -4 -4 9.2 4.5
-1 -4 4 5 3.3
-1 -4 4 5.3 3.5
1 4 -4 5 2.3
1 4 -4 4.4 1.4
-1 4 4 4.2 2.3
-1 4 4 -1.2 7.2
0 -4 -4 348.17 16.3
0 -4 4 336.97 15.1
0 -4 -4 344.47 15.9
0 -4 4 339.47 15
0 4 -4 346.47 13.5
0 4 -4 323.17 11.1
0 4 4 358.46 22.3
0 4 4 353.96 13.6
1 -4 4 136.19 8.4
-1 -4 -4 137.79 9.8
1 -4 4 134.79 9.3
-1 -4 -4 133.29 9.7
1 -4 4 129.99 9.4
-1 4 -4 134.59 6.4
1 4 4 129.39 7.4
-1 4 -4 147.69 8.4
1 4 4 118.49 14.6
-2 -4 -4 10.3 4.1
2 -4 4 6.6 3.3
2 -4 4 10.1 4
-2 -4 -4 10.5 2.4
-2 -4 -4 18.9 4.8
2 -4 4 12.1 4.5
-2 4 -4 12.1 2.6
2 4 4 9.3 2.6
2 4 4 8.3 7
-2 4 -4 11.7 3.2
3 -4 4 87.69 9.1
-3 -4 -4 71.69 8.1
-3 -4 -4 69.79 4.8
3 -4 4 49.9 6.9
-3 -4 -4 62.79 7.8
3 -4 4 64.19 6.4
3 4 4 66.59 3.5
3 4 4 70.89 13.6
3 4 4 63.59 5.1
-3 4 -4 64.69 6.9
-3 4 -4 71.59 5.4
-4 -4 -4 95.29 9.2
-4 -4 -4 102.79 9.7
-4 -4 -4 90.29 5.8
4 -4 4 103.39 7.9
4 -4 4 117.19 10.9
4 -4 4 86.79 9
4 4 4 99.19 14.6
4 4 4 98.19 5
-4 4 -4 94.89 7.6
4 4 4 82.79 5.8
-4 4 -4 108.69 7
-5 -4 -4 4.3 3.7
5 -4 4 -2.7 3.7
-5 -4 -4 -0.5 1.9
5 -4 4 -1.1 3
5 -4 4 5.7 4
-5 -4 -4 1.2 3.2
5 4 4 7.8 9.6
-5 4 -4 2.2 2.8
5 4 4 11.2 8.8
-5 4 -4 0.3 2.5
5 4 4 2.3 1.8
-6 -4 -4 186.48 11.9
-6 -4 -4 201.98 9.6
6 -4 4 202.68 13
6 -4 4 184.38 12
-6 -4 -4 183.58 11.5
6 -4 4 179.08 12.7
-6 4 -4 196.68 11.1
6 4 4 182.48 9.3
-6 4 -4 197.98 11.9
6 4 4 196.78 22.6
6 4 4 177.28 18.3
7 -4 4 47.4 8
-7 -4 -4 41.2 7.1
7 -4 4 52.39 7.4
-7 -4 -4 45.8 6.9
7 -4 4 66.89 9.2
-7 -4 -4 46.9 5.5
7 4 4 39 12
7 4 4 33.7 12.9
-7 4 -4 55.99 7.6
-7 4 -4 34.9 6.5
-8 -4 -4 383.06 15.8
-8 -4 -4 400.26 18.7
-8 -4 -4 362.46 16.9
8 -4 4 380.76 19.6
8 -4 4 385.26 19.3
8 4 4 373.96 29.2
-8 4 -4 340.67 17.1
8 4 4 401.36 29.2
-8 4 -4 364.16 18
9 -4 4 11 5.2
-9 -4 -4 6.4 5
-9 -4 -4 15.8 5.5
9 4 4 16.4 11.5
-9 4 -4 6.1 4.1
9 4 4 2.9 11.7
-9 4 -4 5.8 3.9
10 -4 4 133.89 13.1
-10 -4 -4 127.39 10
-10 4 -4 109.59 11.3
-10 4 -4 143.09 11.5
10 4 4 156.98 21.2
10 4 4 195.48 25.1
-11 -4 -4 2.2 4.6
11 -4 4 12.6 6.3
11 4 4 0.4 12.8
-11 4 -4 4.2 5
11 4 4 14 11.8
-11 4 -4 5.5 4.1
12 -4 4 105.19 12.7
-12 -4 -4 110.69 10.8
-12 4 -4 183.08 13.8
12 4 4 94.99 20.2
-13 -4 -4 165.28 12.1
13 -4 4 151.18 16
13 4 4 183.08 26.9
-13 4 -4 188.18 17.7
-13 4 -4 208.38 15.1
14 -4 4 26 8.9
-14 4 -4 21.1 8
14 4 4 30.9 19.1
-14 4 -4 30.8 7.8
14 -5 -4 37 8.9
-14 5 4 69.09 10.2
14 5 -4 58.19 15.6
14 5 -4 40.9 18.6
13 -5 -4 0.7 4.9
13 5 -4 5.4 10.6
13 5 -4 0.9 13.2
-13 5 4 -1.7 4.1
12 -5 -4 7.8 5.6
-12 5 4 -4.6 3.8
12 5 -4 -9.7 9.3
12 5 -4 14.2 13.2
11 -5 -4 3.3 4.5
11 5 -4 10.5 9.8
-11 5 4 0.6 3.5
11 5 -4 -13.4 9.6
10 -5 -4 49.4 7.8
10 5 -4 48.2 11.7
-10 5 4 61.49 8.6
10 5 -4 33 13.3
9 -5 -4 172.58 18.8
9 -5 -4 156.78 11.6
-9 -5 4 136.09 9.2
-9 5 4 158.48 11.4
9 5 -4 150.48 19
9 5 -4 155.28 17.6
8 -5 -4 6.8 5
8 -5 -4 7.7 4.1
-8 -5 4 3.8 3.9
8 -5 -4 7 5.3
-8 5 4 8.8 4.3
8 5 -4 2.2 7.8
8 5 -4 16.9 9.9
-7 -5 4 157.48 10
7 -5 -4 138.99 10.2
7 -5 -4 130.19 13.1
-7 -5 4 133.59 9.5
7 -5 -4 147.49 11.2
7 5 -4 158.18 17.5
7 5 -4 113.89 13.7
-7 5 4 151.08 10.8
6 -5 -4 24.7 7
-6 -5 4 22.2 5.2
-6 -5 4 22.3 5
6 -5 -4 13.8 5.9
6 -5 -4 31.8 5.8
6 -5 -4 26.4 4.8
-6 5 4 12 4.3
6 5 -4 30.9 8.1
6 5 -4 27.4 9
-5 -5 4 -0.3 3.2
5 -5 -4 2 2.4
5 -5 -4 2.1 4.6
-5 -5 4 -2.1 3.2
5 -5 -4 4.3 4.4
-5 5 4 7.3 8.7
5 5 -4 2.3 6
-5 5 4 3.9 3.1
5 5 -4 -2.5 6.1
4 -5 -4 1.3 4.2
4 -5 -4 4.1 2.4
4 -5 -4 10.4 5
4 5 -4 8.7 5.8
4 5 -4 9.9 5.9
-4 5 4 1 8.1
-4 5 4 14.1 4.1
-3 -5 4 1.5 3.1
3 -5 -4 2.7 1.9
-3 -5 4 3.3 3.7
3 -5 -4 1.1 3.9
3 -5 -4 8.1 5.1
-3 5 4 4.3 8.5
3 5 -4 2.8 2.6
3 5 -4 -0.2 4.6
-3 5 4 3.8 2.8
3 5 -4 10.4 5.3
-3 5 4 6.7 3.1
2 -5 -4 93.99 10.7
-2 -5 4 81.49 8.3
-2 -5 4 86.69 8.7
2 -5 -4 89.79 4.9
2 -5 -4 104.69 10.9
2 5 -4 87.39 6.1
2 5 -4 98.09 9.6
-2 5 4 85.19 7
-2 5 4 111.89 14.5
1 -5 -4 36.5 6.9
-1 -5 4 31.7 5.8
1 -5 -4 35.6 7.1
-1 -5 4 32 6
-1 5 4 33.7 10.4
-1 5 4 39.9 5.4
1 5 -4 35.8 5.9
1 5 -4 41.7 4.9
0 -5 4 58.99 7.8
0 -5 4 43.8 6.8
0 -5 -4 35.7 7.2
0 -5 -4 40.3 7.4
0 -5 4 46.4 5.4
0 5 4 38.7 5.2
0 5 4 61.39 12.3
0 5 -4 47 5.7
0 5 -4 43.7 3.8
-1 -5 -4 253.17 14.7
1 -5 4 270.67 14.4
-1 -5 -4 244.38 14.9
1 -5 4 267.27 14.7
1 -5 4 271.77 12
1 5 4 255.87 11.2
1 5 4 257.97 12
-1 5 -4 242.28 12.3
-1 5 -4 266.37 10.2
1 5 4 273.27 21.3
2 -5 4 14.6 5.2
-2 -5 -4 17 5.3
-2 -5 -4 24.1 6.2
2 -5 4 13.1 5
2 -5 4 14.3 4
2 5 4 21 10.6
2 5 4 21.4 4
-2 5 -4 24.3 3.7
-2 5 -4 23.2 4.7
3 -5 4 299.67 13.5
-3 -5 -4 266.77 15.3
-3 -5 -4 283.27 15.8
3 -5 4 289.47 16.2
3 -5 4 261.27 15.5
-3 5 -4 286.47 14.2
3 5 4 289.07 23.4
3 5 4 277.67 12.1
-3 5 -4 265.17 11.9
-4 -5 -4 0.8 2.5
4 -5 4 5.3 5
4 -5 4 8.5 3.8
4 -5 4 5.6 4.8
4 5 4 -9.8 7.8
-4 5 -4 -3.2 2.3
-4 5 -4 5 3.1
-5 -5 -4 115.89 11
-5 -5 -4 121.79 11.6
5 -5 4 158.78 10.4
5 -5 4 134.59 13
5 -5 4 159.38 12.9
5 5 4 97.19 17
-5 5 -4 114.99 9.5
-5 5 -4 139.29 9.1
6 -5 4 -3.1 5.4
6 -5 4 3.5 4.2
-6 -5 -4 11.6 5.3
6 -5 4 8 5.5
-6 -5 -4 -2.6 4.6
-6 5 -4 1.3 3.5
6 5 4 21.5 12.1
-6 5 -4 6.9 4.2
6 5 4 10 11.4
7 -5 4 173.78 15.1
-7 -5 -4 152.68 12.3
7 -5 4 132.19 13.7
7 -5 4 135.99 11.3
-7 -5 -4 147.89 11.8
7 5 4 147.29 22.4
-7 5 -4 144.69 10.5
-7 5 -4 130.49 11
7 5 4 145.69 19.1
8 -5 4 75.99 9.4
-8 -5 -4 64.49 9.6
8 -5 4 62.19 10
-8 -5 -4 74.49 9.2
-8 5 -4 63.89 8.6
8 5 4 54.19 15
8 5 4 90.19 19.2
-8 5 -4 69.89 9.2
9 -5 4 17.8 5.8
9 -5 4 18.5 7.8
-9 -5 -4 15.4 6.6
-9 -5 -4 23.2 6
-9 5 -4 18.1 5.3
9 5 4 30.9 13.6
-9 5 -4 18.4 5.4
9 5 4 23.3 13.8
10 -5 4 -6.6 3.9
-10 -5 -4 7.8 5.1
-10 5 -4 1.1 4
10 5 4 10 13.4
-10 5 -4 3.8 4.6
10 5 4 -10.6 9.3
-11 -5 -4 11.3 5.7
11 -5 4 4.3 5.9
11 5 4 -22.5 13
11 5 4 4 10.4
-11 5 -4 2.9 5.2
-11 5 -4 11.6 5.5
12 -5 4 29.6 8.8
-12 -5 -4 51.09 8.4
-12 5 -4 37.1 7.9
12 5 4 26 17.2
-12 5 -4 66.99 10.6
13 -5 4 61.59 11
-13 -5 -4 57.29 9
-13 5 -4 48.7 9.2
-13 5 -4 54.39 10.1
13 5 4 37.3 18.9
13 -6 -4 -1.1 5.4
13 6 -4 0.3 11.6
13 6 -4 -15.2 14
-13 6 4 3.2 4.4
12 -6 -4 0.6 5.1
12 6 -4 4 14.2
12 6 -4 -8 9.8
-12 6 4 4 4.5
11 -6 -4 10.4 6
-11 6 4 6.1 5.2
11 6 -4 24.4 11.4
11 6 -4 8.7 13.7
10 -6 -4 -0.5 4.2
10 6 -4 -9.1 8.4
10 6 -4 -2.7 11.5
-10 6 4 3.6 4.1
9 -6 -4 40.2 7.2
-9 -6 4 43.2 7.4
9 6 -4 42.3 13.7
-9 6 4 50.49 8.2
9 6 -4 22.6 10.7
-8 -6 4 13.7 5.3
8 -6 -4 18.6 5.1
8 -6 -4 20.2 7.5
8 6 -4 12.5 10.2
8 6 -4 16.3 8.5
-8 6 4 18.6 5.4
-7 -6 4 105.39 10.4
7 -6 -4 114.29 9.2
7 -6 -4 99.89 13
-7 -6 4 101.69 10.3
7 6 -4 103.09 13.8
-7 6 4 111.49 11.3
7 6 -4 91.59 15.1
6 -6 -4 5.5 6.2
6 -6 -4 1 5.4
-6 -6 4 4.5 4.8
-6 -6 4 6.3 4.8
6 6 -4 2.4 8.4
6 6 -4 -2.5 7.3
-6 6 4 6.2 4.1
-5 -6 4 32.9 7
-5 -6 4 35.6 7.2
5 -6 -4 20.5 8
5 -6 -4 38.5 8.5
5 6 -4 27.5 8.9
-5 6 4 37.2 6.8
5 6 -4 25.4 9.4
4 -6 -4 1.3 5.5
-4 -6 4 -3.6 4.8
-4 -6 4 11.2 5.5
4 -6 -4 15.1 7.3
-4 6 4 8 4.3
-4 6 4 8.9 4.5
4 6 -4 7.5 7.7
3 -6 -4 11.7 6
-3 -6 4 7.9 5.1
3 -6 -4 11.7 5.9
-3 -6 4 10.7 5.3
-3 6 4 8.2 3.9
-3 6 4 11.5 4
-3 6 4 9.9 9.2
3 6 -4 20.6 7.5
-2 -6 4 75.79 9.4
2 -6 -4 71.59 10.6
2 -6 -4 77.89 10.4
-2 -6 4 66.19 9.2
2 6 -4 90.09 11.2
2 6 -4 81.59 11.1
2 6 -4 76.69 12.7
-2 6 4 75.49 8.2
-2 6 4 81.09 14.4
1 -6 -4 28.4 7.5
-1 -6 4 26.6 6.5
-1 -6 4 30.1 7.1
1 -6 -4 17.7 6.7
-1 6 4 17 10.3
1 6 -4 31.5 5.1
-1 6 4 12.4 3.9
0 -6 4 73.79 9.5
0 -6 -4 50.49 9.1
0 -6 4 44.9 8.3
0 -6 -4 72.09 10.1
0 6 4 77.89 8.1
0 6 -4 59.19 7
0 6 4 67.29 15.2
-1 -6 -4 235.78 15.6
-1 -6 -4 210.78 15.1
1 -6 4 228.78 14.9
1 -6 4 209.78 14.6
-1 6 -4 192.18 11.8
1 6 4 229.18 23.3
1 6 4 202.18 11.4
-2 -6 -4 -1.3 5.3
-2 -6 -4 6.5 5.4
2 -6 4 -3.6 4.9
2 -6 4 -0.5 3.3
2 -6 4 4.2 6.1
-2 6 -4 -0.9 3.7
-2 6 -4 0.8 2.3
2 6 4 7.1 3.4
2 6 4 7.4 10.5
3 -6 4 10.3 6.2
3 -6 4 4.7 3.9
-3 -6 -4 13.3 6.6
-3 -6 -4 14.2 6.5
3 -6 4 15.4 6.8
-3 6 -4 3.5 4.1
3 6 4 4.8 10.9
-3 6 -4 4.9 3.1
4 -6 4 3 5.6
4 -6 4 21.6 8.1
-4 -6 -4 15.9 7.1
-4 -6 -4 9.2 6.1
4 -6 4 15.8 4.6
4 6 4 16.1 12.5
-4 6 -4 21.8 4.6
-4 6 -4 12.9 5
-5 -6 -4 110.09 12.1
5 -6 4 88.99 8.8
-5 -6 -4 90.89 12
5 -6 4 63.09 10.6
5 -6 4 104.09 12.9
5 6 4 93.89 18.4
-5 6 -4 96.29 10.6
-5 6 -4 108.69 9.6
6 -6 4 12.4 4.8
-6 -6 -4 3.2 5.7
6 -6 4 7 5.9
-6 -6 -4 4 5.2
6 -6 4 1.3 5.5
-6 6 -4 2.7 3.4
6 6 4 5.9 11.3
-6 6 -4 8.1 4.3
7 -6 4 11.8 5.2
7 -6 4 24.9 8.2
-7 -6 -4 16.7 6.5
-7 -6 -4 24 7.6
7 -6 4 11.6 7
7 6 4 -2.8 10.6
-7 6 -4 12.7 4.9
-7 6 -4 12.1 5.4
8 -6 4 1 4.5
-8 -6 -4 9.3 6.5
-8 -6 -4 -0.6 4.8
8 -6 4 7.4 6.9
-8 6 -4 4.3 4.5
8 6 4 2.5 11.9
8 6 4 -6.6 10
-8 6 -4 -0.8 3.8
9 -6 4 32.5 9.4
-9 -6 -4 27.3 7.5
-9 -6 -4 21.2 7.7
9 -6 4 15.6 6.4
-9 6 -4 24.2 7
9 6 4 16.7 13.4
9 6 4 -3.9 13.8
-9 6 -4 29.7 6.5
-10 -6 -4 19.6 6.9
10 -6 4 7.2 6
-10 6 -4 7.1 5.2
10 6 4 7.8 15.3
-10 6 -4 7.1 5.7
10 6 4 3.2 11.7
-11 -6 -4 -6.4 4.9
11 -6 4 -1.9 6
-11 6 -4 2.3 4.9
-11 6 -4 5.5 5.3
11 6 4 -3.1 14.9
-12 -6 -4 5.9 5.9
12 -6 4 0.6 5.9
-12 6 -4 1 5.3
-12 6 -4 0.5 5.1
12 7 -4 3.2 15.8
-12 7 4 23.6 7.2
12 7 -4 13.3 13.2
11 7 -4 24.7 13.3
11 7 -4 28.8 17.1
-11 7 4 38.9 8.4
-10 -7 4 2.6 5.6
10 7 -4 -2.6 10.5
-10 7 4 6.8 5.3
10 7 -4 -16.8 12.5
-9 -7 4 13.3 6.4
-9 7 4 11 5.9
9 7 -4 -15 11.9
9 7 -4 15.3 11
-8 -7 4 82.79 10.6
8 -7 -4 96.69 13.9
8 7 -4 91.39 14.5
-8 7 4 92.89 11.8
8 7 -4 86.49 17.1
-7 -7 4 84.99 10.8
7 -7 -4 64.89 12.3
-7 -7 4 70.49 9.9
-7 7 4 59.69 9.2
7 7 -4 61.69 14.5
6 -7 -4 163.98 17.6
-6 -7 4 216.38 15.3
-6 -7 4 206.38 14.8
6 -7 -4 227.08 17.8
-6 7 4 221.38 14.9
6 7 -4 198.78 20.8
-5 -7 4 113.19 12.2
-5 -7 4 119.09 12.7
5 -7 -4 91.39 13.6
5 -7 -4 97.79 13.3
5 7 -4 83.39 13.8
-5 7 4 95.19 10.3
-5 7 4 114.19 11.5
4 -7 -4 -0.1 5.4
-4 -7 4 12.4 6.2
4 -7 -4 2.8 6.3
-4 -7 4 7.4 5.8
-4 7 4 3.8 3.9
-4 7 4 -0.4 3.2
-3 -7 4 210.88 15.2
3 -7 -4 211.38 16.6
3 -7 -4 208.18 17.3
-3 -7 4 178.48 14.5
-3 7 4 198.58 12.8
2 -7 -4 352.36 20.8
-2 -7 4 368.16 20.1
-2 -7 4 371.16 20.5
2 -7 -4 341.77 21.8
-2 7 4 335.27 24.6
-2 7 4 349.47 17.3
-1 -7 4 131.29 14
1 -7 -4 133.19 14.6
1 -7 -4 144.39 15.9
-1 -7 4 121.29 13.1
-1 7 4 115.99 17.7
-1 7 4 125.99 9.9
0 -7 4 296.17 18.7
0 -7 -4 299.67 19
0 -7 4 275.87 18.8
0 -7 -4 303.67 20.2
0 7 4 294.57 15.1
0 7 -4 298.37 15.3
0 7 4 315.27 25.1
1 -7 4 24.9 7.9
-1 -7 -4 28.9 8.5
1 -7 4 32.7 8.6
-1 -7 -4 16.1 7.2
-1 7 -4 32.1 6.2
1 7 4 30.4 5.6
1 7 4 34.6 13.1
-2 -7 -4 7.9 6.5
2 -7 4 13.7 6.8
2 -7 4 13.2 7.1
-2 -7 -4 10.5 6.6
2 7 4 27.1 12.2
-2 7 -4 16.2 5.1
3 -7 4 291.77 19.5
-3 -7 -4 281.67 18.9
3 -7 4 267.17 18.5
-3 -7 -4 270.47 18.4
-3 7 -4 266.37 15.7
3 7 4 298.87 30.9
4 -7 4 234.58 17.6
4 -7 4 223.78 18
-4 -7 -4 256.27 17.6
-4 -7 -4 242.48 18
-4 7 -4 226.78 14.8
4 7 4 246.28 28.5
-5 -7 -4 107.19 13.3
5 -7 4 101.69 14.1
-5 -7 -4 101.39 12.7
5 -7 4 97.99 13.6
-5 7 -4 109.99 12.5
-5 7 -4 114.99 14.1
5 7 4 107.59 20.2
6 -7 4 49.3 11.1
6 -7 4 35.8 9.8
-6 -7 -4 51.69 10.6
-6 -7 -4 30.7 8.4
-6 7 -4 32.4 7.7
6 7 4 59.79 17.7
-6 7 -4 41.3 6.9
-7 -7 -4 36.2 8.9
7 -7 4 35.3 11.7
7 -7 4 43 10.5
-7 -7 -4 46.8 9.2
-7 7 -4 55.19 7.9
-7 7 -4 62.59 10.3
7 7 4 51.89 17.1
-8 -7 -4 24 8
8 -7 4 25.3 9.6
-8 -7 -4 21.7 8.9
-8 7 -4 30.8 6.7
8 7 4 13 13.4
-8 7 -4 31.6 8.2
-9 -7 -4 114.59 13.7
-9 -7 -4 129.59 14.8
9 -7 4 177.38 19.2
9 -7 4 149.79 17.7
-9 7 -4 189.18 17.4
9 7 4 132.59 25.3
-9 7 -4 160.48 12.7
-10 -7 -4 23 8
10 -7 4 18.3 7.5
-10 7 -4 23.5 7.5
-10 7 -4 24.4 7
10 7 4 21.5 14.4
11 -7 4 38.3 9.6
-11 -7 -4 20.2 7.7
-11 7 -4 28.3 8.4
-11 7 -4 11.9 7.1
-10 -8 4 22.4 7.7
10 8 -4 9.8 16.9
-10 8 4 11.8 7
-9 -8 4 6 6.7
-9 8 4 2.5 5.7
9 8 -4 -14.6 14
-8 -8 4 36.7 8.9
8 -8 -4 17.4 9.2
8 8 -4 8.3 14.3
-8 8 4 32.3 8.6
-7 -8 4 18.5 8
-7 -8 4 8.3 7.2
7 -8 -4 6.3 8
-7 8 4 9.1 6
-7 8 4 8.1 5.4
-6 -8 4 11.6 7.9
6 -8 -4 32 10
6 -8 -4 11.9 8.3
-6 -8 4 13.3 7
-6 8 4 13.9 6
-6 8 4 31.5 8.1
5 -8 -4 -2.5 6.8
-5 -8 4 4.7 6.5
-5 -8 4 3.9 6.7
5 -8 -4 -7.1 6.9
-5 8 4 4.5 4.5
-5 8 4 4.4 5
-4 -8 4 0.8 6.8
-4 -8 4 -5.6 4.9
4 -8 -4 6.6 7.4
4 -8 -4 7.6 7.6
-4 8 4 0.3 3.9
3 -8 -4 9.3 7.2
3 -8 -4 -0.3 6.7
-3 -8 4 -4 6.1
-3 -8 4 6.5 7
-3 8 4 3.4 3.8
2 -8 -4 8.2 7.6
2 -8 -4 -4.5 6.4
-2 -8 4 -6.7 6.1
-2 -8 4 1 6
-2 8 4 5.7 3.9
-1 -8 4 0.4 6.2
1 -8 -4 3.4 6.9
1 -8 -4 2.8 6.5
-1 -8 4 -4.7 6.3
-1 8 4 2.5 4.3
-1 8 4 21.7 11.3
0 -8 -4 31.4 9.8
0 -8 4 59.19 11.7
0 -8 4 42.5 9.8
0 -8 -4 61.09 11.7
0 8 4 41 7.3
0 8 4 61.79 15.3
1 -8 4 31.7 9.7
1 -8 4 42 10.4
-1 -8 -4 38.6 9.9
-1 -8 -4 31.7 9.8
-1 8 -4 38 7.2
1 8 4 51.29 15.2
-2 -8 -4 151.48 16.7
2 -8 4 148.89 16.4
-2 -8 -4 136.09 16.3
2 -8 4 153.38 17.4
-2 8 -4 143.29 12.1
2 8 4 144.89 22.5
-3 -8 -4 95.49 13.6
-3 -8 -4 101.89 14.6
3 -8 4 78.89 13.1
3 -8 4 73.29 13.2
3 8 4 82.19 17.7
-3 8 -4 83.69 11
4 -8 4 34.7 10.6
-4 -8 -4 30.2 9.3
4 -8 4 38.7 10.8
-4 -8 -4 34.2 9.7
4 8 4 40.2 15.8
-4 8 -4 43.2 8.8
5 -8 4 287.77 22
-5 -8 -4 290.77 21.1
-5 -8 -4 241.88 19.3
5 -8 4 264.07 23.3
5 8 4 199.98 29.4
-5 8 -4 272.77 17.6
-6 -8 -4 2 7.2
6 -8 4 22.1 9.7
-6 -8 -4 10.4 7.7
6 -8 4 0.6 7.4
6 8 4 12.1 12
-6 8 -4 2.8 5.9
-7 -8 -4 12.6 7.9
-7 -8 -4 4.6 7
7 -8 4 31.4 11.3
7 8 4 34.9 15.6
-7 8 -4 29.1 8.6
-8 -8 -4 1.1 7.1
8 -8 4 7.4 8.8
-8 -8 -4 17.7 8.7
-8 8 -4 1.7 5.8
8 8 4 21.2 14.9
9 -8 4 6.2 9.5
-9 -8 -4 18.4 8.5
-9 8 -4 3.8 6.3
9 8 4 28.7 14.9
8 -9 -4 13.6 9.9
-8 -9 4 26.8 10.3
-8 9 4 10.9 7.7
7 -9 -4 18.7 10.1
-7 -9 4 45.9 10.6
-7 9 4 38.7 9.5
-7 9 4 55.99 11.4
-6 -9 4 39 10.4
6 -9 -4 17.3 10.1
-6 -9 4 24.6 9.7
6 -9 -4 37.5 11.6
-6 9 4 30.9 8.8
-6 9 4 21.1 7.1
-5 -9 4 58.59 12
5 -9 -4 65.19 14.5
5 -9 -4 77.99 14.8
-5 -9 4 50.59 11.9
-5 9 4 69.69 10.9
4 -9 -4 8.8 8.8
-4 -9 4 7.9 6.9
-4 -9 4 14.7 8.5
4 -9 -4 12.8 9
-4 9 4 8.4 5.3
-3 -9 4 9 7.7
-3 -9 4 0.4 7.8
3 -9 -4 3.3 8.2
3 -9 -4 1.2 8.5
-3 9 4 11.6 5.6
2 -9 -4 5 9.2
2 -9 -4 13.7 9.1
-2 -9 4 12.6 8.6
-2 -9 4 26 10.1
-2 9 4 15.2 6.3
-1 -9 4 -1.9 6.7
1 -9 -4 1.8 7.7
-1 -9 4 0.3 7.4
1 -9 -4 20.9 10
0 -9 -4 2 8.1
0 -9 4 17.4 8.7
0 -9 4 13.7 8.9
0 -9 -4 -6.7 7.3
0 9 4 32.8 13.9
-1 -9 -4 1 7
1 -9 4 4.8 7.8
-1 -9 -4 -6.9 7.4
1 -9 4 10.1 8.5
1 9 4 -3.3 10.2
2 -9 4 85.09 15.3
2 -9 4 74.79 13.6
-2 -9 -4 77.49 13.8
-2 -9 -4 111.19 15.8
2 9 4 53.09 16.2
3 -9 4 -4.8 7.4
-3 -9 -4 1.8 7.6
-3 -9 -4 -6 7.2
3 -9 4 3.9 7.9
-3 9 -4 6 5.6
3 9 4 24.9 14.4
4 -9 4 6.3 8.2
-4 -9 -4 8.3 8.7
4 -9 4 -9.2 6.8
-4 -9 -4 9 7.9
4 9 4 19.5 13.8
-4 9 -4 4 5.6
-5 -9 -4 8 8.6
5 -9 4 0.3 7.4
5 -9 4 -12.2 7.4
-5 -9 -4 3.2 7.7
-5 9 -4 -0.7 5.6
5 9 4 9.6 12.2
-6 -9 -4 6.2 7.9
6 -9 4 -1.8 8.4
-6 -9 -4 4.4 8
6 -9 4 -7 7
6 9 4 8.9 13.8
-6 9 -4 2.4 6.4
7 -9 4 16 9.8
-7 -9 -4 -9.1 6.6
-7 -9 -4 -1.1 7.6
7 9 4 20.4 14.6
-7 9 -4 -4.3 5.3
-3 -10 4 19.7 10
3 -10 -4 11.4 9.8
3 -10 -4 13.4 10.2
-3 -10 4 7.8 7.8
-3 10 4 5.9 6.8
-2 -10 4 26.3 10.8
2 -10 -4 23.2 10.9
-2 -10 4 35.4 11.7
2 -10 -4 34.4 11.7
-1 -10 4 32.4 11.8
1 -10 -4 29.2 11.5
1 -10 -4 23 10.6
-1 -10 4 24.5 10.6
0 -10 4 -4.9 7.6
0 -10 -4 9.6 8.8
0 -10 4 -6.4 7.6
0 -10 -4 -0.8 8.5
1 -10 4 0.8 8.8
-1 -10 -4 12.7 9.3
-1 -10 -4 -1.1 7.3
1 -10 4 -12.1 8
2 -10 4 -2.3 8
2 -10 4 -4.7 8.6
-2 -10 -4 -8 7.7
-2 -10 -4 8 8.6
2 10 4 8.6 11.3
16 0 -5 -1.6 4.8
16 0 -5 -2.1 9.3
16 0 -5 -11.4 12.1
-16 0 5 -3.2 5.6
15 0 -5 6.5 4.9
-15 0 5 -1.3 4.6
15 0 -5 1 9
15 0 -5 -27.5 9.7
14 0 -5 2.1 4.2
14 0 -5 -0.9 8
-14 0 5 1.4 4
14 0 -5 2.4 10.2
13 0 -5 2.9 3.6
13 0 -5 -12.4 7.7
13 0 -5 4.5 7.6
12 0 -5 -5.3 7.2
12 0 -5 -3.2 2.8
12 0 -5 3.1 7.2
11 0 -5 7 7.2
11 0 -5 -0.7 3.6
11 0 -5 0.5 8.1
10 0 -5 -0.9 6
-10 0 5 5.3 2.3
10 0 -5 -2.1 5.4
10 0 -5 3.8 3.1
9 0 -5 1.4 4.2
9 0 -5 1.3 2.4
-9 0 5 1.7 1.5
9 0 -5 -2.7 4.8
8 0 -5 -2.1 3.8
8 0 -5 4.2 4
-8 0 5 -0.3 1.1
8 0 -5 1.8 2.2
7 0 -5 3.1 2.1
7 0 -5 3.1 3.7
7 0 -5 7.2 4.3
-6 0 5 2.6 1.2
6 0 -5 -0.6 2.1
6 0 -5 -2.1 3
6 0 -5 -2.9 3.4
-5 0 5 4.8 1.3
5 0 -5 1.6 3.5
5 0 -5 7.1 3.1
5 0 -5 1.9 2.1
4 0 -5 -1.2 1.8
4 0 -5 1.8 2.7
-4 0 5 0.5 0.9
-4 0 5 -1.3 0.8
4 0 -5 1.2 1.4
3 0 -5 -1.7 1.2
-3 0 5 1.6 0.9
3 0 -5 -3.4 1.7
2 0 -5 0.9 1.4
2 0 -5 -0.6 1.3
-2 0 5 0.5 1.1
1 0 -5 -2.6 1.4
-1 0 5 0.4 1.3
1 0 -5 -0.2 1.9
0 0 5 0.8 1.6
0 0 -5 -1.7 1.6
0 0 -5 0.1 2
-1 0 -5 2.1 1.6
1 0 5 0.3 1.5
-1 0 -5 -0.9 1.7
-2 0 -5 1.3 1.7
-2 0 -5 -0.7 1.2
2 0 5 -0.9 1.3
3 0 5 1.5 1.7
-3 0 -5 1.2 1.7
-3 0 -5 3.3 1.9
3 0 5 3.3 2.7
3 0 5 3.5 7.1
4 0 5 0 2.8
-4 0 -5 1 2.4
4 0 5 0.3 2.4
-4 0 -5 -1.6 2.6
-4 0 -5 4.4 2.8
4 0 5 -3.2 6
-5 0 -5 1 2.4
-5 0 -5 -4.1 2.4
5 0 5 6.6 6.1
-5 0 -5 -1.1 2.2
5 0 5 4.8 2.9
5 0 5 -1.3 3.7
5 0 5 0.1 2.5
6 0 5 -0.2 5
6 0 5 0 4.1
-6 0 -5 -1 2.2
-6 0 -5 4.2 2.9
6 0 5 -0.9 2.5
6 0 5 0.2 2.3
-6 0 -5 0.3 2.1
7 0 5 -2.9 5
7 0 5 2.3 2.9
-7 0 -5 2.1 2.9
7 0 5 -2.5 5.3
-7 0 -5 -1.9 2.2
7 0 5 -1.6 2.3
-7 0 -5 0.8 2.7
-8 0 -5 3.9 3
8 0 5 3 6.5
-8 0 -5 -0.8 2.9
8 0 5 -0.8 2.9
-8 0 -5 -4.8 2.5
8 0 5 -4.1 6.1
-9 0 -5 2.5 3.6
-9 0 -5 2 4
9 0 5 -3 6.5
9 0 5 -1.4 3.2
9 0 5 3.5 7.1
-9 0 -5 1.7 3.2
10 0 5 19.1 9
-10 0 -5 0.6 3.7
-10 0 -5 -2.2 3.5
-10 0 -5 0.7 3.7
10 0 5 3.7 4
-11 0 -5 -1.8 3.7
11 0 5 -0.5 4
-11 0 -5 0.6 3.8
11 0 5 -10.7 6.9
-11 0 -5 -1.1 3.1
12 0 5 -13.3 7.1
-12 0 -5 1 3.9
12 0 5 3.7 4.4
-12 0 -5 1.8 4.4
-12 0 -5 -0.2 3.4
-13 0 -5 -5 4.6
-13 0 -5 -4.3 3.1
-13 0 -5 0.9 4.1
13 0 5 3 4.9
13 0 5 -0.7 10.2
-14 0 -5 -2.7 5.3
14 0 5 -26.5 8.3
14 0 5 -7.3 4.1
15 0 5 4 11.6
15 0 5 4.3 5.6
-15 0 -5 -1.9 5.3
16 -1 -5 20.3 21.2
16 -1 -5 3.7 5.3
16 -1 -5 8.2 10.4
16 1 -5 8.4 5.7
16 1 -5 10.1 13.8
-16 1 5 10.4 6.2
16 1 -5 -4.2 9.8
15 -1 -5 62.99 10.3
-15 -1 5 86.49 10.8
15 -1 -5 51.89 15.1
15 -1 -5 77.29 15.1
15 1 -5 76.69 14.9
15 1 -5 76.19 17.6
-15 1 5 100.19 11.9
15 1 -5 75.19 11
14 -1 -5 8.8 4.8
14 -1 -5 -5.8 7.8
-14 -1 5 11.7 5.4
14 -1 -5 -0.7 9.8
14 1 -5 3.6 10.5
14 1 -5 0.1 8.5
14 1 -5 1.4 4.7
-13 -1 5 47.9 7.6
13 -1 -5 64.29 12.4
13 -1 -5 58.49 12.4
13 -1 -5 57.89 9.1
13 1 -5 46 11.5
13 1 -5 56.49 13.8
13 1 -5 45.6 7.7
12 -1 -5 221.48 19.1
12 -1 -5 234.28 14.9
12 -1 -5 246.98 18.9
12 1 -5 227.98 21.3
12 1 -5 216.58 20.5
12 1 -5 219.78 14.4
11 -1 -5 24 9.3
11 -1 -5 29 6
11 -1 -5 21.3 7.8
11 1 -5 25.4 9.4
-11 1 5 14.5 3.4
11 1 -5 11.3 7.5
11 1 -5 12.1 4.9
10 -1 -5 83.49 10.8
10 -1 -5 59.79 10
10 -1 -5 96.99 9.9
-10 1 5 75.79 5.7
9 -1 -5 307.87 17.1
9 -1 -5 280.47 14.4
9 -1 -5 294.77 17.7
9 1 -5 307.07 17.8
9 1 -5 292.67 14.5
-9 1 5 291.37 11.5
9 1 -5 292.47 19.4
8 -1 -5 65.29 7.2
8 -1 -5 48.6 7.8
8 -1 -5 54.89 7.8
8 1 -5 46.4 8.4
8 1 -5 52.49 6.3
-8 1 5 57.79 4.4
8 1 -5 51.29 8.1
7 -1 -5 1.6 1.9
7 -1 -5 1.6 3.3
7 -1 -5 4 3.9
7 1 -5 0.1 3.4
7 1 -5 -2.3 3.9
-7 1 5 0.5 1.3
6 -1 -5 620.24 23.2
6 -1 -5 627.74 23.8
6 -1 -5 642.34 21.9
6 1 -5 675.03 22
6 1 -5 644.44 25.4
6 1 -5 639.14 23.9
-6 1 5 605.54 19.3
5 -1 -5 28.3 4
5 -1 -5 36 5.7
5 -1 -5 28 4.1
5 -1 -5 34.4 5.6
5 1 -5 31.9 5.2
5 1 -5 31.9 5.9
5 1 -5 33.5 4.4
-5 1 5 33.9 3.5
4 -1 -5 2105.49 57.69
4 -1 -5 2127.59 58.79
-4 -1 5 2095.49 54.29
4 -1 -5 2051.69 56.79
4 1 -5 2053.89 58.89
4 1 -5 2101.59 57.69
4 1 -5 2154.88 60.79
-4 1 5 2115.29 56.19
3 -1 -5 9 2
3 -1 -5 5.2 1.9
-3 -1 5 5.3 1.1
-3 1 5 5 1.4
3 1 -5 6.2 2.3
3 1 -5 9 2.1
-2 -1 5 294.87 9.7
2 -1 -5 300.57 10.5
2 -1 -5 272.37 11
-2 1 5 296.77 10.1
2 1 -5 289.27 9.5
1 -1 -5 670.33 20.5
1 -1 -5 688.03 21.6
-1 -1 5 705.53 20.3
1 1 -5 680.23 20.2
1 1 -5 713.03 19.8
-1 1 5 659.83 20.2
0 -1 -5 0.3 1.5
0 -1 5 0.3 1.5
0 -1 -5 0.7 2.2
0 1 -5 1.7 1.6
0 1 5 2.6 1.5
0 1 -5 1.7 1.7
-1 -1 -5 568.84 17.9
-1 -1 -5 576.94 19.3
1 -1 5 568.74 18.4
1 1 5 597.44 18.1
-1 1 -5 591.74 17.8
-1 1 -5 584.24 18.7
2 -1 5 36.8 4
-2 -1 -5 30.5 4
2 -1 5 33.9 4.6
-2 -1 -5 33.3 3.5
-2 1 -5 26.6 3.2
2 1 5 29.5 3.4
-2 1 -5 39.1 4.3
2 1 5 31.2 9.3
-3 -1 -5 1577.84 44.5
-3 -1 -5 1566.44 44
3 -1 5 1562.04 45.5
-3 -1 -5 1522.65 45.1
3 -1 5 1593.04 44.8
3 1 5 1610.14 43.7
3 1 5 1548.95 44.5
-3 1 -5 1596.54 43.9
3 1 5 1527.55 52.99
-3 1 -5 1565.94 44.9
-3 1 -5 1577.24 44.2
4 -1 5 76.39 7
-4 -1 -5 53.09 5.2
4 -1 5 46.8 5.6
-4 -1 -5 52.79 6.1
4 -1 5 85.69 10.6
-4 -1 -5 58.99 5.8
4 1 5 58.59 5.8
-4 1 -5 63.89 5.7
4 1 5 68.89 5.4
-4 1 -5 58.19 6.2
4 1 5 67.99 11.1
-4 1 -5 72.69 6.6
5 -1 5 145.29 10
5 -1 5 149.59 9.6
-5 -1 -5 147.39 8.9
-5 -1 -5 152.98 8.2
5 -1 5 150.78 9
5 -1 5 165.48 11.5
-5 -1 -5 153.98 8.4
5 1 5 152.88 7.6
5 1 5 158.88 8.9
-5 1 -5 151.38 8.8
-5 1 -5 158.08 8.6
-5 1 -5 148.29 8
5 1 5 153.88 14.1
6 -1 5 30 5.2
-6 -1 -5 26.4 4.5
6 -1 5 30.1 6
6 -1 5 28.7 4.9
-6 -1 -5 29.1 4.1
6 -1 5 30.3 6.2
-6 -1 -5 26.7 4.4
6 1 5 31.2 4.4
6 1 5 20.8 6.6
-6 1 -5 24.3 4.5
-6 1 -5 26.4 4.5
6 1 5 20.5 8.2
-6 1 -5 24.7 4
6 1 5 27.5 4.7
-7 -1 -5 250.37 12.2
7 -1 5 250.57 12
-7 -1 -5 245.38 12.5
7 -1 5 266.67 13.7
7 -1 5 267.87 14.5
7 -1 5 230.38 14.7
-7 -1 -5 242.48 11.4
7 1 5 231.68 16.2
-7 1 -5 261.97 12.6
-7 1 -5 245.98 12.6
7 1 5 243.38 18.2
-7 1 -5 266.67 11.7
7 1 5 257.77 12.9
-8 -1 -5 60.39 7.2
8 -1 5 45.5 8.4
-8 -1 -5 61.29 7.1
-8 -1 -5 49.7 6
8 -1 5 44.8 7.1
8 -1 5 49.1 12.9
-8 1 -5 48.6 6.5
8 1 5 43.5 11.2
-8 1 -5 48.5 6
-8 1 -5 37.7 5.7
8 1 5 43.6 6.5
8 1 5 58.39 10.3
8 1 5 47.3 11.2
9 -1 5 2.6 4.1
-9 -1 -5 10.3 4.3
-9 -1 -5 5.8 4.2
9 -1 5 9.9 7.4
-9 -1 -5 10.1 4
9 1 5 18.5 8.8
9 1 5 -4 8.9
-9 1 -5 10 4
9 1 5 4.2 10.8
-9 1 -5 8.3 3.4
-9 1 -5 6 4.2
9 1 5 3.6 3.9
10 -1 5 232.78 18.7
-10 -1 -5 226.28 12.5
-10 -1 -5 254.07 14.1
-10 -1 -5 269.57 14.6
10 -1 5 264.27 16
10 1 5 291.27 25.1
10 1 5 226.68 20.4
-10 1 -5 244.28 14
-10 1 -5 264.77 13.3
10 1 5 261.37 15.3
10 1 5 240.38 20.3
-10 1 -5 273.07 15.2
-11 -1 -5 46.9 6.7
11 -1 5 35 7.4
11 -1 5 49.1 10.9
-11 -1 -5 51.39 7.4
-11 -1 -5 38.5 7.1
11 1 5 36.3 10.7
-11 1 -5 53.79 8.4
11 1 5 41.7 13.8
11 1 5 35.5 7
-11 1 -5 43.3 7.2
11 1 5 50.09 12.9
12 -1 5 -3.4 3.6
-12 -1 -5 -1.4 3.8
12 -1 5 6.5 8.3
-12 -1 -5 -0.7 3.4
-12 -1 -5 -0.4 3.5
-12 1 -5 -2 3.3
-12 1 -5 1.9 4.4
12 1 5 -1.5 8.8
12 1 5 -5.3 3.3
-13 -1 -5 6.6 4.7
-13 -1 -5 23.7 6.8
13 -1 5 -7.6 8
13 -1 5 9 5.6
13 1 5 16.1 6.5
-13 1 -5 20 6.6
-13 1 -5 13.4 5.5
13 1 5 0.9 9.3
-14 -1 -5 3.1 5.5
14 -1 5 5.8 6
14 -1 5 8.3 10.7
-14 -1 -5 18 5.5
-14 1 -5 16.2 6.2
14 1 5 9.5 5.9
-14 1 -5 5.7 5.7
14 1 5 6.4 11.4
15 -1 5 62.79 16.2
15 -1 5 80.49 12.6
-15 -1 -5 98.79 10.2
-15 -1 -5 85.89 11.8
-15 1 -5 100.89 13.2
15 1 5 87.09 12.8
15 1 5 61.89 16.8
16 -2 -5 11.5 10.7
16 2 -5 15.8 11.9
16 2 -5 28.5 8.3
-16 2 5 21.1 7.6
16 2 -5 15.4 16.1
15 -2 -5 9.5 6.1
15 -2 -5 12.6 9.3
15 2 -5 11.1 13.5
15 2 -5 25.5 7
15 2 -5 11.6 10.3
14 -2 -5 163.98 18.3
14 -2 -5 184.58 14.9
14 2 -5 132.39 18
14 2 -5 149.99 21.3
14 2 -5 181.58 14.2
13 -2 -5 12 5.2
13 -2 -5 8.6 7.3
-13 2 5 9.7 3.5
13 2 -5 3.9 4.2
13 2 -5 16.7 9.2
13 2 -5 -7.7 9.3
12 -2 -5 6.3 4.3
-12 -2 5 3.4 3.9
12 -2 -5 -6.5 7.1
12 -2 -5 9.6 7.2
-12 2 5 4.8 3.2
12 2 -5 7.2 8
12 2 -5 -2.8 3.3
12 2 -5 10.5 9.2
11 -2 -5 82.99 11.9
-11 -2 5 101.39 8.8
11 -2 -5 51.59 7.9
11 -2 -5 88.99 11.5
11 2 -5 85.29 12.8
-11 2 5 74.79 7.4
11 2 -5 79.09 9.1
11 2 -5 61.99 13.4
10 -2 -5 84.09 9.2
10 -2 -5 118.79 12.1
10 -2 -5 118.39 12.4
10 2 -5 130.99 10
10 2 -5 112.49 13.4
10 2 -5 123.79 15.6
-10 2 5 114.59 7.7
9 -2 -5 10 3.9
9 -2 -5 7.3 5.3
9 -2 -5 14 6.2
9 2 -5 10.6 3.7
9 2 -5 9 6.4
9 2 -5 14.7 7.7
-9 2 5 16.1 3.5
8 -2 -5 28.4 4.9
8 -2 -5 15.3 5.3
8 -2 -5 24.3 5.9
-8 2 5 23.6 4
8 2 -5 25.8 6.9
8 2 -5 18.6 7
8 2 -5 22.6 4.5
7 -2 -5 581.44 23.1
7 -2 -5 608.04 20.7
7 -2 -5 578.54 23.2
7 -2 -5 622.24 22.3
7 2 -5 592.74 24.9
7 2 -5 631.94 22
-7 2 5 636.44 20.5
7 2 -5 626.84 27.2
6 -2 -5 32.5 4.5
6 -2 -5 17.5 4.5
6 -2 -5 16.8 3.5
6 -2 -5 12.5 4
6 2 -5 30.5 6.6
6 2 -5 15.7 4.8
-6 2 5 22.5 3.3
6 2 -5 20 3.5
-5 -2 5 262.17 7.9
5 -2 -5 250.77 12.3
5 -2 -5 246.38 11.6
5 -2 -5 278.17 11.7
-5 2 5 254.87 10.5
5 2 -5 260.87 13.3
5 2 -5 255.37 14.8
5 2 -5 253.67 11.1
4 -2 -5 303.87 13.2
-4 -2 5 300.37 10
4 -2 -5 337.17 12.5
4 2 -5 308.17 13.8
4 2 -5 335.57 16
4 2 -5 330.97 12.6
-4 2 5 319.37 12.1
3 -2 -5 7.5 2.7
-3 -2 5 5.8 1.6
3 -2 -5 6.2 1.9
-3 2 5 5.9 2.1
-3 2 5 5.8 1.9
3 2 -5 5.7 2.6
3 2 -5 1.1 2.7
3 2 -5 3.7 1.8
2 -2 -5 39.9 3.4
2 -2 -5 51.19 5.6
-2 -2 5 41.6 3.5
2 2 -5 40.8 2.9
2 2 -5 42.6 2.5
-2 2 5 32.4 3.5
1 -2 -5 1254.87 37.5
-1 -2 5 1208.48 35.5
1 2 -5 1260.77 35
-1 2 5 1249.18 35.5
1 2 -5 1289.17 33.9
0 -2 -5 520.35 16.8
0 -2 -5 548.95 19
0 -2 5 510.65 17.5
0 2 5 519.75 16.9
0 2 -5 524.05 15.8
0 2 -5 531.65 17.2
1 -2 5 583.14 19.8
-1 -2 -5 581.24 20.7
-1 -2 -5 616.44 18.8
-1 2 -5 626.84 18.4
1 2 5 576.84 18.8
-1 2 -5 589.64 19.5
1 2 5 616.84 29.6
2 -2 5 37.9 4.9
-2 -2 -5 31.5 4.8
-2 -2 -5 40.6 3.9
2 -2 5 28.2 4.2
-2 -2 -5 38.2 4.9
2 2 5 42 11.1
-2 2 -5 42 4.8
2 2 5 36.7 3.9
2 2 5 36.4 3.9
-2 2 -5 22.5 3.2
3 -2 5 142.59 9.4
-3 -2 -5 144.19 9.1
3 -2 5 135.99 9.1
-3 -2 -5 120.59 8.3
-3 -2 -5 131.59 7.2
3 2 5 137.69 7.2
3 2 5 130.19 7.3
-3 2 -5 134.69 7.5
3 2 5 113.99 14.1
-3 2 -5 140.29 8.4
4 -2 5 0.1 3
4 -2 5 2.7 3
-4 -2 -5 -2.3 2.1
-4 -2 -5 2 3.1
-4 -2 -5 5 3.2
4 2 5 1.2 2.2
-4 2 -5 0.5 2.3
4 2 5 -3.5 7.1
-4 2 -5 1.8 2.1
4 2 5 0.9 2
-5 -2 -5 57.89 6.7
-5 -2 -5 51.19 5.4
5 -2 5 53.29 6.3
5 -2 5 48.7 5.9
5 -2 5 38.5 5.6
-5 -2 -5 47.6 5.6
5 -2 5 46.9 6.1
5 2 5 55.99 5
-5 2 -5 40.1 5
5 2 5 51.29 5.4
5 2 5 56.99 11.1
-5 2 -5 46.1 6
-6 -2 -5 64.79 6.6
6 -2 5 46.6 6.2
6 -2 5 52.29 6.6
-6 -2 -5 51.89 6.4
-6 -2 -5 39.2 5.2
6 -2 5 55.59 5.8
6 -2 5 40.5 5.9
6 2 5 55.69 4.6
6 2 5 60.59 12.5
6 2 5 49.5 5.7
-6 2 -5 63.89 6.9
-6 2 -5 61.59 6.9
7 -2 5 164.88 10.6
-7 -2 -5 136.49 8.7
-7 -2 -5 143.79 8.9
7 -2 5 158.98 11.7
7 -2 5 151.88 10.9
-7 -2 -5 147.99 9.8
7 2 5 150.48 18
7 2 5 152.38 16.4
7 2 5 151.18 9.4
-7 2 -5 152.98 9.9
-7 2 -5 141.39 9.7
7 2 5 154.28 14.9
8 -2 5 4.5 3.4
8 -2 5 -1.1 5.4
-8 -2 -5 0.8 3.2
8 -2 5 -0.6 3.5
-8 -2 -5 -6 3.1
-8 -2 -5 0 3.5
8 2 5 2.2 3.1
-8 2 -5 -0.2 2.9
8 2 5 2.5 8
8 2 5 0.5 9.8
-8 2 -5 -0.2 3.4
8 2 5 1 9.1
-9 -2 -5 12.5 4.7
9 -2 5 1.6 6.6
9 -2 5 20.9 5.5
-9 -2 -5 5.6 3.8
-9 -2 -5 8.2 4.5
-9 2 -5 7.7 4.5
9 2 5 -6 7.1
9 2 5 16.5 10.6
9 2 5 16 12
-9 2 -5 7.2 4.6
9 2 5 1 3.3
-10 -2 -5 105.29 10.4
-10 -2 -5 112.39 9.7
10 -2 5 101.39 11.3
-10 -2 -5 114.29 9.5
10 -2 5 113.99 13.2
10 2 5 102.39 17.2
-10 2 -5 116.29 11
10 2 5 132.39 19.2
-10 2 -5 132.49 10.8
10 2 5 121.69 10.4
10 2 5 113.19 15.4
-11 -2 -5 -3.4 3.9
-11 -2 -5 -3 4.1
11 -2 5 -0.7 3.7
11 -2 5 -9.8 6.8
-11 -2 -5 -6 3.5
11 2 5 6.7 9.4
-11 2 -5 -2.9 3.8
-11 2 -5 1.9 3.8
11 2 5 3.7 8.7
11 2 5 -3.6 3.2
11 2 5 3.9 11.3
12 -2 5 89.59 13.9
-12 -2 -5 95.39 9.3
12 -2 5 80.19 10.9
-12 -2 -5 91.19 10.5
-12 2 -5 95.69 10.9
-12 2 -5 72.59 10.5
12 2 5 120.39 17.6
12 2 5 97.19 11.1
12 2 5 93.59 18.9
13 -2 5 114.79 13.3
-13 -2 -5 105.79 10.3
-13 -2 -5 120.09 12.8
-13 2 -5 122.39 13.5
13 2 5 115.19 13
-13 2 -5 96.89 11.2
13 2 5 103.19 17.8
14 -2 5 13.5 6.8
-14 -2 -5 3.7 5.5
-14 -2 -5 21.5 5.7
-14 2 -5 12.7 5.9
-14 2 -5 14.6 6.7
14 2 5 7.4 12.1
14 2 5 2.7 5.1
-15 -2 -5 28.6 8.2
15 -2 5 16.5 7.5
-15 -2 -5 23.4 6.4
15 2 5 -4.5 11.6
15 2 5 31.9 8.2
-15 2 -5 25.8 8.8
-15 2 -5 21.1 6.7
16 -3 -5 -1.6 9.5
16 3 -5 -5.7 11.5
-16 3 5 -4.2 5
16 3 -5 -11.6 14.1
15 -3 -5 50.49 9.5
15 -3 -5 43.1 12.1
15 3 -5 34 8.1
15 3 -5 28.4 13.6
15 3 -5 34.6 16.1
14 -3 -5 89.19 14.1
14 -3 -5 65.19 10.2
14 3 -5 77.49 17.8
14 3 -5 81.09 10.8
14 3 -5 55.79 14
-14 3 5 79.39 9.4
13 -3 -5 2.4 4.7
13 -3 -5 5 7.5
-13 3 5 -1.8 3.3
13 3 -5 -4.7 10.5
13 3 -5 11.8 9.5
13 3 -5 0.8 3.6
12 -3 -5 137.59 14.8
12 -3 -5 125.19 12.5
12 3 -5 114.29 17.3
12 3 -5 129.79 12.3
-12 3 5 130.49 9.8
12 3 -5 138.99 17.5
11 -3 -5 131.49 13.5
11 -3 -5 132.09 12.4
11 3 -5 121.89 15.4
11 3 -5 114.99 16.7
-11 3 5 119.59 9.1
11 3 -5 101.89 10.3
10 -3 -5 20.8 7.1
10 -3 -5 13.7 4.8
10 3 -5 15.1 4.5
-10 3 5 18.3 4.5
10 3 -5 11.5 8.3
10 3 -5 25.4 10.2
9 -3 -5 93.29 9.2
9 -3 -5 92.89 11.2
9 -3 -5 102.49 10.9
9 3 -5 71.69 12.6
9 3 -5 93.59 12.8
-9 3 5 107.99 7.9
9 3 -5 92.29 8.8
8 -3 -5 4.1 3.2
8 -3 -5 2.1 4.2
-8 -3 5 8 3.2
8 -3 -5 10.2 5
8 -3 -5 11 6.4
8 3 -5 4.8 2.9
8 3 -5 18.8 6.8
8 3 -5 12 7.2
-8 3 5 11.4 3.4
7 -3 -5 147.49 10.3
7 -3 -5 140.39 9.3
-7 -3 5 139.79 5.6
-7 -3 5 145.59 5.5
7 -3 -5 144.19 9.5
7 -3 -5 147.49 10.6
7 3 -5 154.38 14.1
7 3 -5 129.59 12.2
-7 3 5 140.69 8.5
7 3 -5 136.99 8.5
6 -3 -5 149.29 8.8
6 -3 -5 152.58 9.7
6 -3 -5 136.29 9.3
-6 -3 5 143.49 6.1
-6 -3 5 149.59 6
6 -3 -5 135.39 9.7
-6 3 5 142.19 8.3
6 3 -5 157.48 8.5
6 3 -5 150.18 11.4
6 3 -5 136.99 12.8
-5 -3 5 112.29 5.6
5 -3 -5 99.39 8
-5 -3 5 103.79 5.3
5 -3 -5 112.39 8.2
5 -3 -5 117.09 7.2
5 3 -5 121.29 11.2
5 3 -5 97.39 9.1
-5 3 5 108.59 6.9
5 3 -5 111.09 6.8
-4 -3 5 58.79 4.5
-4 -3 5 63.09 4.7
4 -3 -5 56.89 6.7
4 -3 -5 60.89 5.1
4 3 -5 55.49 4.9
4 3 -5 68.39 8.4
4 3 -5 60.39 6.7
-4 3 5 63.79 5.3
-3 -3 5 170.58 8.1
3 -3 -5 155.68 10.1
-3 -3 5 183.88 8.1
3 -3 -5 151.68 7.5
3 3 -5 158.18 10.9
-3 3 5 153.68 8.2
-3 3 5 147.89 8.2
3 3 -5 169.58 9.3
2 -3 -5 2.1 3.5
-2 -3 5 -2.8 2.6
2 -3 -5 -2.3 1.8
-2 -3 5 0.9 2.6
2 -3 -5 5.6 4.4
-2 3 5 2.6 2.4
2 3 -5 0.8 1.9
2 3 -5 2.3 2.7
2 3 -5 -1.6 3.4
1 -3 -5 364.56 15.9
1 -3 -5 356.16 15.7
-1 -3 5 374.06 14
-1 -3 5 361.46 14.4
1 3 -5 370.16 13.1
1 3 -5 364.86 11.1
-1 3 5 329.57 13.3
-1 3 5 332.37 23.3
0 -3 -5 140.69 9.8
0 -3 -5 141.09 9.6
0 3 5 113.89 16.6
0 3 5 139.29 7.5
1 -3 5 18.4 4.6
-1 -3 -5 21.5 5.1
-1 -3 -5 17.9 3.3
-1 -3 -5 18.4 4.9
1 -3 5 19.2 4.5
-1 3 -5 19.2 3
1 3 5 21.3 9.5
-1 3 -5 15.8 3.4
1 3 5 17.6 3.3
-2 -3 -5 87.69 8.4
2 -3 5 78.29 7.5
-2 -3 -5 93.29 5.6
-2 -3 -5 92.29 8.5
2 -3 5 100.69 8.6
2 -3 5 81.09 7.3
-2 3 -5 80.39 5.3
2 3 5 80.59 5.7
2 3 5 67.29 13.2
-2 3 -5 92.59 6.9
2 3 5 74.79 5.2
3 -3 5 898.51 30.1
-3 -3 -5 931.31 27.3
3 -3 5 877.71 29.3
-3 -3 -5 908.51 29.4
3 -3 5 875.11 29.6
-3 -3 -5 900.71 30.2
-3 3 -5 895.21 29.2
3 3 5 930.11 26.4
-3 3 -5 905.71 27.8
3 3 5 872.01 27.2
3 3 5 894.91 38
4 -3 5 93.89 8.8
-4 -3 -5 70.59 7.1
-4 -3 -5 72.99 7.6
-4 -3 -5 74.69 5.4
4 -3 5 82.49 8
4 -3 5 76.29 8.1
4 3 5 87.49 14.4
-4 3 -5 66.89 6.3
4 3 5 83.99 5.6
4 3 5 68.89 5.1
-4 3 -5 75.69 7.3
-5 -3 -5 26.9 5.3
5 -3 5 21.5 4.8
5 -3 5 21.9 4
-5 -3 -5 27.9 5
-5 -3 -5 25 3.9
5 -3 5 35.4 5.9
5 -3 5 27.6 5.6
-5 3 -5 30.1 5.1
5 3 5 31.9 3.9
5 3 5 39 11.7
5 3 5 26.6 3.6
-5 3 -5 17.2 3.8
6 -3 5 61.39 7.4
-6 -3 -5 83.49 8.8
6 -3 5 73.99 8.2
-6 -3 -5 85.59 8.1
-6 -3 -5 78.49 6.2
6 -3 5 85.59 9.3
6 -3 5 73.09 7.1
6 3 5 63.19 6.2
6 3 5 60.69 13.3
-6 3 -5 88.99 8.3
-6 3 -5 72.09 7.6
-7 -3 -5 261.57 12.6
7 -3 5 280.17 15.8
7 -3 5 248.38 14.7
7 -3 5 256.67 14.7
-7 -3 -5 290.07 14.6
-7 -3 -5 246.28 13.1
-7 3 -5 295.57 14.4
7 3 5 261.47 22.5
-7 3 -5 290.37 14.4
7 3 5 296.87 23.5
7 3 5 272.07 12.8
-8 -3 -5 171.18 10.1
8 -3 5 158.48 12.1
8 -3 5 178.28 12.5
-8 -3 -5 157.38 10.4
-8 -3 -5 153.88 11.3
8 3 5 131.39 20
-8 3 -5 154.18 11
-8 3 -5 136.79 10.4
8 3 5 163.78 19.4
8 3 5 142.39 10.1
-9 -3 -5 3.9 4.3
-9 -3 -5 3.4 4.7
9 -3 5 5.2 5.1
-9 -3 -5 1.5 3.7
9 3 5 3.4 3.6
9 3 5 -0.9 10
9 3 5 6.7 11.2
-9 3 -5 8.5 4.5
-9 3 -5 8.6 4.8
-10 -3 -5 13.2 5.3
-10 -3 -5 7.1 4.4
-10 -3 -5 -1.6 3.8
10 -3 5 6.3 4.8
10 3 5 6.1 4
10 3 5 24.7 10.5
-10 3 -5 5.2 4
10 3 5 24.4 13.5
10 3 5 25 11.7
-10 3 -5 13.6 5.3
-11 -3 -5 13.7 4.9
-11 -3 -5 12.5 4.9
11 -3 5 16.6 6.1
11 3 5 4.2 9.6
-11 3 -5 17.3 6.1
11 3 5 8 12.3
-11 3 -5 9.5 4.9
11 3 5 12.2 4.8
11 3 5 -1.1 8.4
12 -3 5 7.4 6.2
-12 -3 -5 16.1 5.4
-12 -3 -5 10 5.5
12 3 5 -2.6 14
-12 3 -5 9.2 5.2
12 3 5 16.7 6
12 3 5 4.6 9.4
-12 3 -5 21.5 6.5
12 3 5 32.5 12.5
-13 -3 -5 0.1 4.5
13 -3 5 -1.7 5.2
13 3 5 2.9 10.8
13 3 5 3.3 5.1
-13 3 -5 5 5.2
-13 3 -5 0.6 4.4
-14 -3 -5 54.49 7.8
14 -3 5 51.19 10.4
-14 3 -5 62.99 11
-14 3 -5 45.5 9.2
15 -4 -5 8.4 6.3
15 4 -5 -2.7 11.5
-15 4 5 10.3 5.1
15 4 -5 1.3 13.8
14 -4 -5 50.99 9.5
14 -4 -5 46.2 11.6
14 4 -5 -0.2 10.7
-14 4 5 50.79 8.1
14 4 -5 35.1 15.8
13 -4 -5 7 5.4
13 -4 -5 14.5 8.3
13 4 -5 2.1 11.5
13 4 -5 3.7 10
-13 4 5 17.4 5.6
12 -4 -5 14.8 6
12 -4 -5 12.2 7.4
-12 4 5 6.6 4.3
12 4 -5 -5.8 8.4
12 4 -5 -5 10.3
12 4 -5 9.7 4.4
11 -4 -5 57.49 9.6
11 -4 -5 46.7 7.9
11 4 -5 31.6 12.8
-11 4 5 56.89 8
11 4 -5 48.8 7.5
11 4 -5 71.99 12.9
10 -4 -5 76.09 9.4
10 -4 -5 61.29 9.4
10 4 -5 52.99 7.1
10 4 -5 69.99 12.7
-10 4 5 68.89 8.1
10 4 -5 80.09 14.2
9 -4 -5 192.88 13
9 -4 -5 188.08 14
9 4 -5 183.68 11.6
9 4 -5 210.48 18.1
-9 4 5 223.58 12.7
9 4 -5 229.68 21.1
-8 -4 5 26.7 3.9
8 -4 -5 19.3 5.8
8 -4 -5 11.3 4.2
8 -4 -5 25.9 6
8 4 -5 29.8 5
-8 4 5 31.2 5.6
8 4 -5 25.3 8.6
8 4 -5 34 10.4
7 -4 -5 109.99 8.6
-7 -4 5 130.49 7.2
7 -4 -5 116.89 9.8
7 -4 -5 146.89 11.1
-7 -4 5 118.29 6.9
-7 4 5 134.79 9.4
7 4 -5 142.49 8.8
7 4 -5 115.09 12.4
7 4 -5 134.89 14.5
-6 -4 5 30.1 4.3
6 -4 -5 20.7 4
-6 -4 5 18.7 3.6
6 -4 -5 11.8 4.6
6 -4 -5 26.9 6
6 -4 -5 38 6.6
-6 4 5 19.3 4.2
6 4 -5 27.1 7.8
6 4 -5 21 6.4
6 4 -5 27.2 4.2
5 -4 -5 204.88 12.1
5 -4 -5 192.28 9.8
5 -4 -5 191.38 12.4
-5 -4 5 177.18 9.2
-5 -4 5 204.48 9.4
-5 4 5 198.18 10.8
5 4 -5 197.58 12.9
5 4 -5 196.78 14.4
-4 -4 5 3.9 2.8
4 -4 -5 6.6 2.6
4 -4 -5 8.3 4.2
4 -4 -5 -2.3 3.6
-4 -4 5 7.7 3
-4 4 5 9.8 3.1
-4 4 5 5.2 2.7
4 4 -5 10.1 4.6
4 4 -5 7.7 5
3 -4 -5 438.96 18.9
3 -4 -5 434.16 19.4
3 -4 -5 447.86 15.1
-3 -4 5 439.06 16.8
-3 -4 5 462.65 16.7
3 4 -5 449.56 14.6
-3 4 5 437.16 26.9
3 4 -5 427.66 19.6
3 4 -5 452.05 14.4
-3 4 5 459.65 17.4
-3 4 5 455.65 17
3 4 -5 406.56 17.2
2 -4 -5 1.7 3.6
-2 -4 5 -0.8 2.8
2 -4 -5 0.3 3.1
2 -4 -5 2.4 1.6
-2 -4 5 6.2 3.2
2 4 -5 2.9 3.3
-2 4 5 1.8 8.5
2 4 -5 -2.4 3.1
2 4 -5 0.9 1.7
-2 4 5 0 1.9
-1 -4 5 32.3 5.3
-1 -4 5 54.79 6.5
1 4 -5 45 3
1 4 -5 44.5 4.9
-1 4 5 129.79 16.6
1 4 -5 59.89 10.4
0 -4 5 29 5.1
0 -4 -5 48.1 7.2
0 -4 -5 35.6 6
0 -4 5 39.2 6
0 4 -5 33.6 4.5
0 4 5 28.5 10.4
0 4 -5 39.5 3.3
0 4 5 42.3 5.1
1 -4 5 71.09 7.5
-1 -4 -5 91.29 9
-1 -4 -5 87.79 9
1 -4 5 75.59 7.1
1 -4 5 93.39 8.9
-1 4 -5 76.19 4.8
1 4 5 88.79 14.6
-1 4 -5 85.59 6.4
1 4 5 76.99 6
1 4 5 78.79 4.1
2 -4 5 54.19 6.3
-2 -4 -5 54.29 7.3
2 -4 5 38.7 5.9
2 -4 5 57.49 7.5
-2 -4 -5 67.19 8.2
-2 -4 -5 69.79 5.1
-2 4 -5 58.49 4.7
-2 4 -5 74.79 7.1
2 4 5 62.89 5.9
2 4 5 50.59 3.2
2 4 5 47 12.5
3 -4 5 446.26 19.1
3 -4 5 406.06 17.2
-3 -4 -5 424.46 15.2
-3 -4 -5 422.36 18.7
-3 -4 -5 407.66 18
3 -4 5 453.95 18.9
3 4 5 421.86 13.2
3 4 5 440.16 15.8
-3 4 -5 439.16 17.7
3 4 5 423.36 26.7
-3 4 -5 431.36 15.9
-4 -4 -5 21.9 5.2
4 -4 5 34.7 6.6
-4 -4 -5 29.1 4.1
-4 -4 -5 22.1 5.4
4 -4 5 27.2 5.2
4 -4 5 22.3 5.6
4 4 5 39.5 12.9
-4 4 -5 26.5 4.4
4 4 5 29.7 3.3
-4 4 -5 30.8 5.2
4 4 5 32.3 4.2
5 -4 5 154.08 10.5
5 -4 5 135.09 11.1
5 -4 5 124.99 11.6
-5 -4 -5 136.89 10.7
-5 -4 -5 137.09 8
-5 -4 -5 130.69 10.1
-5 4 -5 142.19 9
5 4 5 160.48 19.9
5 4 5 151.08 8.1
-5 4 -5 135.39 9.8
-6 -4 -5 20.4 4.1
6 -4 5 28.7 5.9
-6 -4 -5 23.1 6.1
-6 -4 -5 28.2 5.9
6 -4 5 25 6.2
6 -4 5 25.8 6.7
-6 4 -5 25 5.5
-6 4 -5 21.6 4.7
6 4 5 16.7 11.3
7 -4 5 145.89 12.2
7 -4 5 164.28 13.9
-7 -4 -5 140.99 11.7
-7 -4 -5 149.59 9.2
7 -4 5 147.89 13.7
-7 -4 -5 151.28 11
7 4 5 128.59 19.5
-7 4 -5 150.08 10.5
-7 4 -5 153.38 11.2
8 -4 5 110.09 11.1
8 -4 5 91.59 11.1
-8 -4 -5 105.19 10.5
-8 -4 -5 100.39 8.3
-8 -4 -5 96.49 10.8
8 4 5 78.89 15.1
8 4 5 111.29 19.9
-8 4 -5 102.19 10.7
-8 4 -5 91.29 10.1
-9 -4 -5 17.6 5.5
-9 -4 -5 15.6 5.9
9 -4 5 3.8 4.6
9 4 5 13.7 12.3
-9 4 -5 15.8 5.4
-9 4 -5 7.2 4.8
9 4 5 18.2 12.5
-10 -4 -5 38.9 6.8
10 -4 5 38.2 8.3
-10 -4 -5 42.6 7.7
-10 4 -5 36.9 7.3
-10 4 -5 55.89 9.1
10 4 5 45 15
10 4 5 27 13.3
-11 -4 -5 19.6 5.7
11 -4 5 5.8 5.6
11 4 5 11.7 11
-11 4 -5 26.9 7.5
11 4 5 7.9 14.4
-11 4 -5 14.8 5.9
12 -4 5 35.8 8.9
-12 -4 -5 35.5 7.4
-12 4 -5 31.5 8.2
-12 4 -5 38.5 8
12 4 5 45.8 15.9
13 -4 5 5.3 6.7
-13 -4 -5 5.5 5.3
-13 4 -5 12.8 5.8
-13 4 -5 10.2 6.2
14 -4 5 0.1 6
-14 -4 -5 -4.4 4.8
-14 4 -5 4.5 5.6
-14 4 -5 0.9 5.2
14 -5 -5 16 7.1
-14 5 5 28.3 6.9
14 5 -5 26.2 17
14 5 -5 48.9 14.8
13 -5 -5 8.9 6
-13 5 5 13 5.4
13 5 -5 2.4 12.7
13 5 -5 11.5 10.5
12 -5 -5 16 6.4
12 5 -5 10.4 11
12 5 -5 14.7 13.5
-12 5 5 25.1 6.4
11 -5 -5 -3.4 3.9
-11 5 5 3.7 3.8
11 5 -5 -5.9 10.8
11 5 -5 -4.2 8.5
10 -5 -5 29.6 8
10 -5 -5 19.4 5.7
10 5 -5 32.3 10.7
10 5 -5 9 10.5
-10 5 5 30.4 6.5
-9 -5 5 3.9 3.7
9 -5 -5 4.3 5
9 -5 -5 -1.9 3.5
9 5 -5 -0.2 7.3
9 5 -5 -3.9 8.9
-9 5 5 -0.9 3.2
8 -5 -5 154.98 14.6
8 -5 -5 159.18 11.2
-8 -5 5 132.09 9.2
8 -5 -5 148.19 12
8 5 -5 154.58 17.6
8 5 -5 156.78 16.3
-8 5 5 149.49 11.1
7 -5 -5 135.99 13.4
-7 -5 5 113.29 8.9
7 -5 -5 126.19 9.4
7 -5 -5 105.29 10.3
-7 -5 5 108.49 8.8
7 5 -5 133.69 15.8
7 5 -5 119.09 13.7
-7 5 5 129.19 10.2
-6 -5 5 29 5.3
-6 -5 5 23.9 4.8
6 -5 -5 29.6 4.9
6 -5 -5 21.5 5.6
6 -5 -5 14.6 5.9
6 -5 -5 13.4 5.9
-6 5 5 29.9 5.8
6 5 -5 20.9 7.4
6 5 -5 23.1 8.1
-5 -5 5 39.3 6.2
-5 -5 5 43.8 6.2
-5 5 5 57.39 7.3
5 5 -5 56.69 8.7
5 5 -5 25.7 8.2
-5 5 5 63.19 14.1
-4 -5 5 3.6 3.4
-4 -5 5 5.8 3.8
4 -5 -5 -0.3 4.1
4 -5 -5 2.1 2.3
4 -5 -5 5.6 4.2
-4 5 5 4.6 3.3
-4 5 5 2.6 2.9
4 5 -5 7.3 5.2
4 5 -5 4.6 5.8
-4 5 5 11.6 10.9
3 -5 -5 362.36 13.2
-3 -5 5 377.36 16.6
3 -5 -5 391.06 19.4
-3 -5 5 382.96 16.4
3 -5 -5 378.66 18.5
-3 5 5 365.06 24.9
3 5 -5 372.56 16.8
-3 5 5 373.06 16.3
3 5 -5 358.06 18.6
-3 5 5 375.16 16.2
2 -5 -5 24.3 2.9
2 -5 -5 19 5.3
-2 -5 5 16.8 4.7
-2 -5 5 25.6 5.6
2 -5 -5 16.7 5.6
2 5 -5 27.2 5.4
2 5 -5 20.5 3.8
-2 5 5 16.5 4
-2 5 5 33 11.2
2 5 -5 18.1 5.4
-1 -5 5 558.84 21.7
-1 -5 5 586.44 22.5
1 -5 -5 526.15 23.5
1 -5 -5 519.85 22.7
1 5 -5 576.94 19.8
-1 5 5 476.45 29.1
1 5 -5 547.55 21.2
-1 5 5 543.15 20.3
0 -5 5 202.68 11
0 -5 5 220.28 12.8
0 -5 -5 214.38 13.7
0 -5 5 214.28 12.8
0 -5 -5 240.08 13.9
0 5 5 221.58 20.1
0 5 5 194.28 10.5
0 5 -5 204.38 10.7
0 5 -5 192.98 8.1
1 -5 5 6.9 4.3
-1 -5 -5 9.5 4.7
-1 -5 -5 -0.6 3.8
1 -5 5 3.7 3.6
1 -5 5 -0.4 3.7
1 5 5 0.3 2.2
-1 5 -5 2.7 1.8
1 5 5 -1.5 9.4
-1 5 -5 5.8 3.2
1 5 5 6.2 2.9
2 -5 5 214.68 13.3
-2 -5 -5 209.28 13.7
-2 -5 -5 210.08 13.8
2 -5 5 199.48 11.6
2 -5 5 223.88 13.9
-2 5 -5 209.78 9.6
2 5 5 191.38 21.3
2 5 5 199.88 10.5
-2 5 -5 191.98 11.3
3 -5 5 542.65 22.7
3 -5 5 484.75 19.8
3 -5 5 544.25 23.4
-3 -5 -5 495.15 22
-3 -5 -5 493.05 22.5
-3 -5 -5 525.15 17.8
-3 5 -5 514.65 18.5
3 5 5 515.35 31.7
-3 5 -5 508.75 20.7
3 5 5 477.15 18.3
4 -5 5 8.6 5.5
4 -5 5 12.6 4.9
-4 -5 -5 1.8 4.3
4 -5 5 9.3 5.6
-4 -5 -5 9.7 3
-4 -5 -5 1.5 4.4
4 5 5 0.1 10.3
-4 5 -5 8.4 3.8
-4 5 -5 8.1 3.7
-5 -5 -5 154.38 12.4
5 -5 5 154.68 13
5 -5 5 122.29 12.8
-5 -5 -5 136.29 12.3
5 -5 5 154.68 11
-5 5 -5 130.19 9.1
-5 5 -5 130.29 10.6
5 5 5 106.69 19.5
-6 -5 -5 54.89 8.3
-6 -5 -5 66.59 9.6
6 -5 5 49.2 9
6 -5 5 55.89 7.9
6 -5 5 55.49 9.3
6 5 5 69.99 15.9
-6 5 -5 61.49 7.4
-6 5 -5 54.79 7.9
7 -5 5 2 4.9
7 -5 5 12.3 6.7
-7 -5 -5 8.1 5.8
7 -5 5 7.9 5.8
-7 -5 -5 10.8 5.7
-7 5 -5 16.5 5
7 5 5 4.6 11
-7 5 -5 1.7 3.6
-8 -5 -5 6.1 4.6
8 -5 5 17.1 5.9
8 -5 5 17.7 6.8
-8 -5 -5 13.3 6
-8 5 -5 11.9 4.9
-8 5 -5 16.5 5.4
8 5 5 21.4 12.3
9 -5 5 12.8 5.8
-9 -5 -5 1.5 4.9
9 -5 5 4.4 5.9
-9 -5 -5 4.5 5.6
-9 5 -5 4.8 4.4
-9 5 -5 12.6 5.4
9 5 5 19.5 12.7
10 -5 5 21.9 6.7
-10 -5 -5 37.8 7.6
-10 5 -5 23.3 6.9
10 5 5 18.9 13.3
-11 -5 -5 7 5.5
11 -5 5 3.3 6.1
-11 5 -5 11.3 6.2
11 5 5 22.6 14
-11 5 -5 4 5.3
12 -5 5 10.5 7
-12 -5 -5 10.2 5.9
-12 5 -5 13.2 6.2
-12 5 -5 16.2 7.1
12 5 5 37.4 15.3
-13 -5 -5 7.8 6.1
13 -5 5 28.5 9.4
-13 5 -5 16 6.6
-13 5 -5 14.9 6.5
13 -6 -5 -1.4 5.1
-13 6 5 14.8 6.4
13 6 -5 -26.2 12.6
13 6 -5 5.4 11.5
12 -6 -5 -2.5 4.3
12 6 -5 -7.2 12.5
-12 6 5 13.4 5.6
12 6 -5 -9.7 9.7
11 -6 -5 4.2 5
11 6 -5 -1.2 11.7
-11 6 5 6.3 5
11 6 -5 7.1 10.6
10 -6 -5 22.3 5.9
-10 6 5 33.5 7
10 6 -5 24.3 10.9
10 6 -5 14.2 12.7
9 -6 -5 0.3 3.8
-9 -6 5 0.4 4.3
9 6 -5 1 8.4
9 6 -5 6 10.8
-9 6 5 0.1 3.6
8 -6 -5 59.09 10.6
-8 -6 5 71.09 8.4
8 -6 -5 74.99 8.4
8 6 -5 56.89 13.8
-8 6 5 49 7.8
8 6 -5 78.89 13.2
7 -6 -5 9.2 6
-7 -6 5 0 4
-7 -6 5 7.5 5
7 -6 -5 -4.7 4.8
7 6 -5 5.5 8.4
7 6 -5 -3 8.7
-7 6 5 7.5 4.1
-6 -6 5 106.89 10.5
6 -6 -5 111.99 13.4
6 -6 -5 108.09 12.6
-6 -6 5 103.69 10
6 6 -5 67.99 12.6
6 6 -5 84.49 12.1
-6 6 5 122.09 11.8
5 -6 -5 7 6.1
-5 -6 5 15.1 5.6
5 -6 -5 9.9 6.4
-5 -6 5 6.4 5.4
-5 6 5 13.8 4.7
5 6 -5 19.9 8.5
-5 6 5 12.6 4.7
4 -6 -5 70.29 10.2
4 -6 -5 77.99 11.3
-4 -6 5 69.89 9.5
-4 -6 5 68.19 9.5
-4 6 5 84.59 9.6
-4 6 5 86.99 15.3
-4 6 5 68.99 8.5
4 6 -5 77.39 12
-3 -6 5 13.5 5.8
3 -6 -5 6.2 5.6
-3 -6 5 21.9 6.3
3 -6 -5 9.9 6.3
-3 6 5 18.6 4.8
3 6 -5 9.7 6.9
-3 6 5 1.9 10.4
2 -6 -5 95.79 12.1
-2 -6 5 88.09 10.1
2 -6 -5 68.79 9.7
-2 -6 5 77.29 9.7
-2 6 5 63.09 14.3
-2 6 5 75.09 8.4
-1 -6 5 -2 4.6
1 -6 -5 4.8 5.2
-1 -6 5 3.3 4.9
1 -6 -5 2 4.8
-1 6 5 10.4 11.1
-1 6 5 -4.5 2.7
1 6 -5 -0.3 2.7
0 -6 -5 5.6 5.2
0 -6 5 0.8 5
0 -6 5 5.3 5.3
0 -6 -5 14.5 6.8
0 6 5 5 10.8
0 6 5 5.2 3.3
0 6 -5 13.3 4
1 -6 5 112.29 12
1 -6 5 108.09 11.9
-1 -6 -5 97.99 11.7
-1 -6 -5 122.29 12.9
1 -6 5 118.39 12.7
1 6 5 123.79 20.2
-1 6 -5 103.99 10.1
1 6 5 104.19 8.2
2 -6 5 132.39 13.6
2 -6 5 150.08 14.4
-2 -6 -5 148.49 14.4
2 -6 5 133.19 10.1
-2 -6 -5 139.69 14.2
-2 6 -5 138.69 10.4
2 6 5 152.98 21.8
2 6 5 148.19 9.7
-3 -6 -5 275.37 17.8
-3 -6 -5 263.27 17.2
3 -6 5 288.87 18
3 -6 5 299.27 18.1
3 -6 5 285.37 14.3
-3 6 -5 243.98 14.4
3 6 5 281.37 28.1
-3 6 -5 266.57 12.5
-4 -6 -5 420.06 22.2
4 -6 5 414.86 22.2
-4 -6 -5 421.66 21.8
4 -6 5 431.56 19
4 -6 5 446.86 22.6
-4 6 -5 434.16 17.6
-4 6 -5 428.56 20.2
4 6 5 391.66 30.7
-5 -6 -5 20.3 6.9
5 -6 5 21.7 7.5
-5 -6 -5 30.1 7.7
5 -6 5 32.7 8.4
5 -6 5 24 5.7
-5 6 -5 21.5 4.9
5 6 5 18.4 12.3
-5 6 -5 22.6 6
-6 -6 -5 28.9 8.2
6 -6 5 35 6.8
6 -6 5 19 7.7
-6 -6 -5 41.4 8.2
6 -6 5 36 8.4
-6 6 -5 25.9 6.8
6 6 5 33.4 15.1
-6 6 -5 39.4 6.4
7 -6 5 580.34 25
7 -6 5 617.54 28.3
7 -6 5 588.14 28.6
-7 -6 -5 561.94 25.5
-7 -6 -5 635.94 27.8
-7 6 -5 572.84 25.6
7 6 5 559.94 38.4
-7 6 -5 572.74 23.8
8 -6 5 170.48 17.3
-8 -6 -5 120.19 13.5
-8 -6 -5 135.69 13.1
8 -6 5 110.29 12.3
-8 6 -5 91.99 10.5
8 6 5 96.69 19.4
-8 6 -5 141.49 14.1
-9 -6 -5 26.8 7.8
-9 -6 -5 31.9 8.1
9 -6 5 22.3 7
9 -6 5 28.5 9.6
-9 6 -5 24.8 6.9
-9 6 -5 24.9 6.8
9 6 5 27.1 15.4
10 -6 5 147.99 14.9
-10 -6 -5 127.29 13.7
-10 6 -5 159.88 15.1
10 6 5 199.88 28.4
-10 6 -5 158.58 15.3
-11 -6 -5 29.5 8.3
11 -6 5 22.4 8
11 6 5 51.19 18.3
-11 6 -5 24.5 7.4
-11 6 -5 18.4 7
-12 -6 -5 0.7 5.3
12 -6 5 4.4 6.8
-12 6 -5 2.6 5.1
-12 6 -5 6.6 5.6
-12 7 5 33.6 8.3
12 7 -5 33.7 18.8
12 7 -5 26.3 14
-11 7 5 3.9 5
11 7 -5 -15.4 12.7
11 7 -5 -9.2 10.4
-10 -7 5 -5 5.5
-10 7 5 -2.9 4.1
10 7 -5 -13 12.7
10 7 -5 -9.5 9.7
-9 -7 5 36.1 8.9
9 7 -5 45.6 15.8
-9 7 5 36.6 8.2
9 7 -5 24.3 12.1
8 -7 -5 13.6 7.1
-8 -7 5 7.4 5.9
8 7 -5 10.8 11.7
8 7 -5 -5.3 10.9
-8 7 5 19.1 6.1
7 -7 -5 -6.4 5.4
-7 -7 5 3.2 5.2
-7 -7 5 -2.3 5
7 7 -5 -1.3 10.3
-7 7 5 -0.8 3.9
-7 7 5 4.8 4.8
-6 -7 5 105.89 11.8
6 -7 -5 106.99 14.2
-6 -7 5 102.19 11.9
6 -7 -5 102.69 14.2
-6 7 5 85.89 10.7
-6 7 5 112.09 11.7
6 7 -5 105.19 16.1
-5 -7 5 3.4 5
5 -7 -5 1.4 6.2
-5 -7 5 13.9 6
5 -7 -5 2.3 6
-5 7 5 -1 3.4
-5 7 5 1.5 3.4
5 7 -5 -2.2 8.2
-4 -7 5 311.97 18.4
4 -7 -5 317.67 20.2
-4 -7 5 316.57 18.4
4 -7 -5 308.27 20.8
-4 7 5 339.97 17.3
3 -7 -5 10.7 6.9
3 -7 -5 10.7 6.6
-3 7 5 11.9 4.8
-3 7 5 19.8 11.3
-2 -7 5 35.2 8.3
2 -7 -5 30.9 8.4
-2 -7 5 50.89 9
2 -7 -5 37.4 9.3
-2 7 5 50.99 7.4
-2 7 5 63.89 14.8
-1 -7 5 196.18 14.8
1 -7 -5 184.48 16.5
1 -7 -5 196.78 16.2
-1 -7 5 154.78 15.2
-1 7 5 178.88 11.8
-1 7 5 201.68 23
0 -7 -5 57.79 10.4
0 -7 -5 70.29 10.6
0 -7 5 42.2 9.3
0 -7 5 47.2 9.1
0 7 5 79.79 16.5
0 7 -5 59.69 7.7
0 7 5 68.59 8.1
-1 -7 -5 201.48 17.6
1 -7 5 238.08 16.7
1 -7 5 208.58 18
-1 -7 -5 231.28 17.6
1 7 5 241.58 26.6
1 7 5 219.78 12.8
-1 7 -5 244.68 14.1
-2 -7 -5 15 7.7
-2 -7 -5 28.6 8.4
2 -7 5 17.7 7.6
2 -7 5 14.2 7
-2 7 -5 25 6.2
2 7 5 3.8 11.1
-3 -7 -5 109.09 13.7
-3 -7 -5 90.79 12.5
3 -7 5 91.49 12.8
3 -7 5 90.99 12.3
3 7 5 97.49 19.1
-3 7 -5 90.99 10.6
4 -7 5 21.4 8.1
4 -7 5 13.8 7.2
-4 -7 -5 19 7.8
-4 -7 -5 27.1 8.5
4 7 5 23.5 12.9
-4 7 -5 21.3 6
5 -7 5 64.99 11.8
5 -7 5 52.29 11.3
-5 -7 -5 49.6 11
-5 -7 -5 62.19 11.3
5 7 5 64.49 18
-5 7 -5 56.19 9.7
6 -7 5 49.99 11.3
-6 -7 -5 56.49 10.7
-6 -7 -5 31 8.3
6 -7 5 61.89 11.7
-6 7 -5 37.6 6.7
-6 7 -5 51.19 8.6
6 7 5 64.39 18.4
7 -7 5 18.2 10.5
7 -7 5 20 8.5
-7 -7 -5 22.3 8.4
-7 -7 -5 10.8 7.1
7 7 5 37.2 16.5
-7 7 -5 30.4 7.8
-7 7 -5 17.1 5.6
-8 -7 -5 12.2 7.3
-8 -7 -5 5.3 6.7
8 -7 5 5.8 9.1
8 -7 5 2.2 7.4
-8 7 -5 7.9 5.5
8 7 5 8.6 13.2
-8 7 -5 12.7 6.1
-9 -7 -5 4.5 7.2
9 -7 5 -2.2 5.5
9 -7 5 9.5 7.9
-9 -7 -5 1 6.6
-9 7 -5 8.5 5.5
9 7 5 20.2 13.8
-9 7 -5 11 5.8
-10 -7 -5 3.4 6.1
10 -7 5 -0.8 5.3
-10 7 -5 -0.8 4.7
10 7 5 0.4 13.3
-10 7 -5 4.7 5.9
-11 -7 -5 7.4 6.4
11 7 5 11.8 12.8
-10 -8 5 3.6 6.5
-10 8 5 -4.9 4.5
10 8 -5 -15.1 13.4
-9 -8 5 5.5 6.6
9 8 -5 -20.8 12.8
-9 8 5 0 5.1
-9 8 5 -3.6 4.6
8 -8 -5 -0.3 7.6
-8 -8 5 -3 6.2
8 8 -5 -29.7 11.1
-8 8 5 3.6 5.5
-8 8 5 -0.8 3.7
7 -8 -5 1 7.6
-7 -8 5 8 7.1
-7 -8 5 -2.8 5.9
-7 8 5 -0.4 4.3
-7 8 5 -3.4 5.1
6 -8 -5 11.5 9.2
6 -8 -5 41.5 11
-6 -8 5 36.1 9.4
-6 -8 5 30.5 8.5
-6 8 5 29.5 7.5
-6 8 5 33.6 8.2
5 -8 -5 -2.3 7.1
5 -8 -5 -8 6.2
-5 -8 5 2.4 6.4
-5 -8 5 -3 6.1
-5 8 5 1.3 4.3
4 -8 -5 4.1 7.5
-4 -8 5 0.4 6.6
4 -8 -5 6.4 6.8
-4 -8 5 11.1 7.5
-4 8 5 -1.4 3.8
-3 -8 5 23.1 8.6
3 -8 -5 7.4 7.2
-3 -8 5 15.6 7.9
3 -8 -5 -0.9 6.7
-3 8 5 8.6 5.1
-2 -8 5 0.3 5.8
-2 -8 5 -4.4 5.2
2 -8 -5 4.6 7.2
2 -8 -5 -5.1 5.1
-2 8 5 2.9 4
-1 -8 5 16.5 8
1 -8 -5 11.4 7
-1 -8 5 20.6 7.9
1 -8 -5 1.9 6.6
-1 8 5 32.2 12.9
-1 8 5 23.2 5.7
0 -8 -5 93.59 13.5
0 -8 5 68.19 11.9
0 -8 5 97.89 13.8
0 -8 -5 91.59 14.3
0 8 5 87.49 17.7
0 8 5 91.29 10.1
1 -8 5 5.6 7.3
-1 -8 -5 -3 6.3
1 -8 5 0.7 6.6
-1 -8 -5 0.7 6
1 8 5 3.2 10.2
2 -8 5 0.2 6.4
-2 -8 -5 21.7 8
2 -8 5 0.6 6.8
-2 -8 -5 7 6.7
2 8 5 7.3 12.3
-2 8 -5 8.6 5.2
-3 -8 -5 7.1 8.1
3 -8 5 2.1 7.6
3 -8 5 -4.7 6.7
-3 -8 -5 1.1 7.3
-3 8 -5 15.9 6.3
3 8 5 9.3 12.3
4 -8 5 30.1 10
4 -8 5 20.9 9.2
-4 -8 -5 9.9 7.9
-4 -8 -5 14.5 8.5
-4 8 -5 7.3 5.5
4 8 5 14.3 12.5
-5 -8 -5 15.7 8.6
5 -8 5 8.6 8.6
5 -8 5 14.4 9.2
-5 -8 -5 12.4 7.9
5 8 5 5.9 13.2
-5 8 -5 6.2 6.4
-6 -8 -5 -3.8 6.8
6 -8 5 10.7 8.5
-6 -8 -5 0.2 7.2
6 -8 5 16.7 10
-6 8 -5 18.7 7.6
6 8 5 3 13.3
7 -8 5 17.5 9.9
-7 -8 -5 10.4 7.6
-7 -8 -5 28.8 8.9
7 8 5 21.1 14.8
-7 8 -5 31.1 8.6
-8 -8 -5 3 7.2
8 -8 5 9 9.2
-8 -8 -5 8.7 8
8 8 5 20 15.9
-8 8 -5 4.7 6.6
-9 -8 -5 -1.8 6.9
9 -8 5 2.9 9.2
-9 -8 -5 -1.7 7
9 8 5 8.6 14.3
-9 8 -5 5.2 6.8
-8 -9 5 2.9 7.9
8 -9 -5 17.4 10.4
-7 -9 5 3.5 6.9
-7 -9 5 1.3 6.9
7 -9 -5 6.1 9.3
-7 9 5 -1.5 5.9
-7 9 5 2 4.8
-6 -9 5 61.99 12.6
-6 -9 5 60.79 12
6 -9 -5 61.09 13.3
-6 9 5 61.19 10.5
-5 -9 5 75.69 13.1
5 -9 -5 116.29 17
5 -9 -5 100.69 16.2
-5 -9 5 90.59 14.1
-5 9 5 89.19 11.9
-4 -9 5 -3.4 6.9
4 -9 -5 2.3 7.5
-4 -9 5 0 7.1
4 -9 -5 -1.7 7.6
-4 9 5 1.3 4.9
3 -9 -5 56.59 12.6
3 -9 -5 91.79 15.7
-3 -9 5 48.4 11.6
-3 -9 5 58.59 12.3
-3 9 5 70.89 10.3
2 -9 -5 5.2 8
2 -9 -5 0.1 7.4
-2 -9 5 6.7 7.4
-2 9 5 5.5 5.2
1 -9 -5 10.7 8.9
1 -9 -5 10 7.7
-1 -9 5 -9.4 6.5
-1 -9 5 6.6 7.5
0 -9 5 0.8 7.8
0 -9 -5 4.2 8.3
0 -9 5 11.1 8.8
0 -9 -5 19.3 9.2
0 9 5 23.4 13.5
-1 -9 -5 26.9 9.7
1 -9 5 28 10.6
1 -9 5 30.8 10.6
-1 -9 -5 16.7 9.6
1 9 5 27.1 14.8
2 -9 5 32.2 11.3
2 -9 5 34.9 11.2
-2 -9 -5 13.9 8.7
-2 -9 -5 17.3 9.4
2 9 5 45.6 15.2
-3 -9 -5 20.4 10
-3 -9 -5 18.4 8.7
3 -9 5 24.4 10.4
3 -9 5 36.6 11.1
3 9 5 49.8 16.4
-3 9 -5 14.6 6.6
-4 -9 -5 24.7 10.5
4 -9 5 52.79 12.8
4 -9 5 26.6 10.2
-4 -9 -5 22.1 9.5
-4 9 -5 36.4 9.3
4 9 5 7.7 12.9
5 -9 5 66.39 14.3
5 -9 5 74.39 14.4
-5 -9 -5 56.59 13
-5 -9 -5 77.29 13.7
-5 9 -5 111.89 14.8
5 9 5 63.09 19.1
6 -9 5 3.2 8.7
6 -9 5 2.4 9.8
-6 -9 -5 2.4 8.2
-6 -9 -5 6.6 7.8
-6 9 -5 -1.3 5.6
6 9 5 1.5 13.3
-3 -10 5 3 9.2
3 -10 -5 0.7 9.3
3 -10 -5 -0.9 8.3
-3 -10 5 8.3 8.2
2 -10 -5 14.5 10.5
2 -10 -5 15.4 10.2
-2 -10 5 19.8 11
-2 -10 5 17.8 9.9
1 -10 -5 34 11.3
-1 -10 5 24.2 10.7
-1 -10 5 41.5 11.4
1 -10 -5 51.39 13.1
0 -10 5 3.6 8.7
0 -10 -5 4.6 8.6
0 -10 5 24.9 10.7
0 -10 -5 15.4 10.2
-1 -10 -5 11.4 10.1
1 -10 5 21.9 10.1
-1 -10 -5 9.6 10
1 -10 5 14.1 10.4
-2 -10 -5 -2.3 7.8
2 -10 5 -0.8 7.9
2 10 5 3.3 12.7
16 0 -6 -0.4 9.6
-16 0 6 -3.1 5.2
16 0 -6 -16.2 11.1
16 0 -6 -2 5.1
15 0 -6 67.69 15
-15 0 6 61.69 9.6
15 0 -6 77.89 17
15 0 -6 67.09 10.5
14 0 -6 70.69 13.7
14 0 -6 46.9 13.6
14 0 -6 56.59 9.4
13 0 -6 62.49 13
13 0 -6 56.29 8.7
13 0 -6 79.99 12.9
12 0 -6 481.15 22.6
12 0 -6 495.65 28.8
12 0 -6 506.05 27.5
11 0 -6 92.29 10.2
11 0 -6 63.99 11.3
11 0 -6 79.49 12.5
10 0 -6 353.76 21.6
10 0 -6 372.96 20.8
10 0 -6 339.47 17
9 0 -6 323.47 19.3
9 0 -6 302.97 14.9
-9 0 6 284.77 10.3
9 0 -6 290.87 17.5
8 0 -6 64.19 6.7
-8 0 6 64.49 3.8
8 0 -6 48.9 8.3
8 0 -6 72.39 9
-7 0 6 78.69 4.2
7 0 -6 88.79 7.1
7 0 -6 77.39 8.6
7 0 -6 84.89 9.4
6 0 -6 542.95 19.4
6 0 -6 555.44 21.3
6 0 -6 549.15 22.3
-6 0 6 511.05 15.7
-5 0 6 7.2 1.8
5 0 -6 10.9 3.3
5 0 -6 6.5 3.7
-5 0 6 10.6 2
5 0 -6 8.1 4.7
-4 0 6 12.2 1.8
4 0 -6 9.6 3.1
4 0 -6 8.9 2.2
4 0 -6 11.4 3.7
3 0 -6 123.99 6.5
3 0 -6 120.89 7.1
3 0 -6 110.69 5.4
-3 0 6 120.39 5.2
3 0 -6 143.19 10.5
-2 0 6 962.8 26.4
2 0 -6 915.51 26.7
2 0 -6 905.61 26.8
1 0 -6 276.77 10
-1 0 6 278.27 10
1 0 -6 283.27 10.7
0 0 -6 3295.77 88.19
0 0 6 3417.46 88.59
0 0 -6 3342.17 89.29
-1 0 -6 145.89 6.8
1 0 6 146.49 7
-1 0 -6 151.38 7.7
-2 0 -6 -1 1.8
2 0 6 1.9 1.7
-2 0 -6 0.2 1.4
3 0 6 145.79 7.9
-3 0 -6 155.18 8.9
3 0 6 165.48 9.5
-3 0 -6 150.08 7.9
-3 0 -6 166.38 7.9
-4 0 -6 29 4.6
-4 0 -6 27.6 4.3
4 0 6 18.1 4.5
-4 0 -6 23.2 4.7
4 0 6 37.1 10.5
4 0 6 25.1 4.3
5 0 6 24.2 4.6
5 0 6 20.7 8.2
-5 0 -6 15.5 3.8
-5 0 -6 18.9 4.2
-5 0 -6 30.9 4.5
5 0 6 25.3 4.2
-6 0 -6 67.29 6.5
6 0 6 63.49 6.7
6 0 6 36.3 9.2
6 0 6 47.6 6.4
-6 0 -6 70.79 7.4
6 0 6 44.2 7.7
-6 0 -6 52.79 6.2
7 0 6 37 8
7 0 6 26.5 5.2
-7 0 -6 36.5 5.7
7 0 6 28.2 8.4
-7 0 -6 33.8 4.9
-7 0 -6 25.8 4.7
7 0 6 34.4 5.1
-8 0 -6 9.7 4.1
-8 0 -6 8.4 4
-8 0 -6 8.8 3.6
8 0 6 12.3 7.2
8 0 6 15.1 4.8
8 0 6 9.7 7.9
9 0 6 54.39 7.6
-9 0 -6 40 6.5
9 0 6 38.8 10
-9 0 -6 57.49 8
9 0 6 53.69 11.6
-9 0 -6 43.8 6.4
10 0 6 74.09 12.6
-10 0 -6 93.89 9.8
-10 0 -6 96.89 10.2
-10 0 -6 87.69 8.8
10 0 6 68.69 9.1
11 0 6 456.15 22.3
-11 0 -6 443.46 20.4
11 0 6 452.85 26.7
-11 0 -6 438.86 21
-11 0 -6 438.36 18.9
-12 0 -6 -2.3 4.2
12 0 6 3.3 4.8
-12 0 -6 3.2 3.9
12 0 6 -14.5 7
-12 0 -6 1.5 3.6
13 0 6 14.7 6.8
13 0 6 31.6 12.4
-13 0 -6 16.2 5.5
-13 0 -6 21.4 7.2
-13 0 -6 26.9 6.7
14 0 6 36.1 13.4
14 0 6 58.29 10.5
-14 0 -6 69.39 10.9
-14 0 -6 58.59 9.1
-15 0 -6 147.39 16.1
15 0 6 122.99 15.5
15 0 6 113.99 19.6
16 -1 -6 -16.5 8.5
16 -1 -6 -28.5 10.4
16 -1 -6 -4.4 4.5
-16 1 6 3.1 5.1
16 1 -6 -4.2 12.9
16 1 -6 16.1 11.6
16 1 -6 0.3 5.1
-15 -1 6 53.99 8.8
15 -1 -6 39.3 9.1
15 -1 -6 32.6 11.4
15 -1 -6 26.7 13.7
15 1 -6 36.1 8
15 1 -6 22.4 11.3
15 1 -6 45.4 15
14 -1 -6 30.2 7.3
-14 -1 6 12.8 5.6
14 -1 -6 15.6 9.6
14 -1 -6 6.4 9.3
14 1 -6 22.4 12.1
14 1 -6 24.6 10.3
14 1 -6 23.5 6.8
13 -1 -6 10.5 7.9
13 -1 -6 8.2 8.5
13 -1 -6 11.5 4.9
13 1 -6 2.9 7.7
13 1 -6 12.9 5.3
13 1 -6 3.6 9.5
12 -1 -6 161.68 12.3
12 -1 -6 146.19 16.9
12 -1 -6 141.29 15.5
12 1 -6 130.59 15.7
12 1 -6 148.79 11.9
12 1 -6 140.09 17.4
11 -1 -6 91.79 10.1
11 -1 -6 71.39 12.1
11 -1 -6 80.59 11.5
11 1 -6 94.69 12.7
11 1 -6 85.39 9.8
11 1 -6 76.29 13.1
-11 1 6 93.49 6.4
10 -1 -6 13.7 7.2
10 -1 -6 8.9 6.1
10 -1 -6 7.3 3.6
10 1 -6 10.3 7
-10 1 6 7.8 2.5
10 1 -6 15.4 8
10 1 -6 5.8 3.7
9 -1 -6 4.7 5.5
9 -1 -6 10 3.7
9 -1 -6 5.2 5.3
-9 1 6 4.5 2.2
9 1 -6 -3.2 4.9
9 1 -6 2.2 5.6
9 1 -6 11.6 3.8
8 -1 -6 19.9 5.5
8 -1 -6 24.5 6
8 -1 -6 20.3 4.6
8 1 -6 24 6.6
-8 1 6 25.2 3.3
8 1 -6 29.5 5.1
8 1 -6 22.2 5.8
7 -1 -6 264.57 12.5
7 -1 -6 261.97 14.5
7 -1 -6 262.27 14
7 1 -6 243.78 15.7
7 1 -6 253.77 14.3
-7 1 6 235.58 9.6
7 1 -6 264.87 12.4
-6 -1 6 3.1 1
-6 -1 6 3.1 1
6 -1 -6 7.5 3
6 -1 -6 3.4 3.3
6 -1 -6 4.5 4.1
6 1 -6 2.2 4.2
-6 1 6 1.7 1.5
6 1 -6 2.9 2.5
6 1 -6 5.4 3.5
5 -1 -6 696.63 21.3
5 -1 -6 728.83 25.4
-5 -1 6 676.43 18.9
5 -1 -6 709.93 23
5 -1 -6 688.53 24.2
5 1 -6 689.83 26.1
-5 1 6 661.63 20.8
5 1 -6 689.43 24.5
5 1 -6 664.83 22.6
4 -1 -6 4.8 3.5
4 -1 -6 4.1 2.1
4 -1 -6 5.3 2.2
4 -1 -6 7.6 3.5
-4 -1 6 4.8 1.3
4 1 -6 6.7 2.3
-4 1 6 5 1.7
4 1 -6 13.6 4.3
4 1 -6 3.5 2.9
3 -1 -6 2088.99 57.79
-3 -1 6 2166.38 55.69
3 -1 -6 2107.29 57.49
3 1 -6 2204.28 60.49
3 1 -6 2046.9 58.09
3 1 -6 2082.59 57.89
-3 1 6 2031.7 56.39
2 -1 -6 179.58 8.5
2 -1 -6 184.18 8
-2 -1 6 179.38 7.2
2 1 -6 179.58 7.1
-2 1 6 183.98 7.4
2 1 -6 173.78 8
2 1 -6 176.38 7
1 -1 -6 354.66 13.8
1 -1 -6 371.36 12.9
-1 -1 6 382.66 12.7
1 1 -6 396.46 12.9
1 1 -6 370.06 12.1
-1 1 6 358.26 12.6
0 -1 -6 15.3 3.1
0 -1 6 13.3 2.5
0 -1 -6 22.4 3
0 1 6 15.6 2.4
0 1 -6 20.2 3
0 1 -6 15.8 2.3
-1 -1 -6 319.17 13
-1 -1 -6 335.87 11.8
1 -1 6 332.67 12.4
-1 1 -6 322.07 11.5
-1 1 -6 306.97 12.3
1 1 6 317.27 11.8
-2 -1 -6 1485.55 42.9
-2 -1 -6 1371.26 39.6
-2 -1 -6 1414.26 41.4
2 -1 6 1425.56 40.5
-2 1 -6 1341.27 40.6
-2 1 -6 1382.96 39.5
2 1 6 1382.56 39.6
3 -1 6 312.17 12.8
-3 -1 -6 299.17 11.9
-3 -1 -6 293.47 12.2
3 -1 6 281.27 13.2
-3 -1 -6 283.77 12.9
-3 1 -6 297.67 12
-3 1 -6 272.97 12.5
-3 1 -6 301.07 12
3 1 6 255.17 20.3
3 1 6 296.77 12.8
3 1 6 302.77 11.8
-4 -1 -6 247.88 10.9
-4 -1 -6 241.38 12
-4 -1 -6 237.78 10.9
4 1 6 239.18 11.7
4 1 6 233.78 10.4
4 1 6 210.28 19
-5 -1 -6 107.09 6.8
5 -1 6 116.39 12.2
5 -1 6 108.19 9
5 -1 6 98.29 8.4
-5 -1 -6 108.39 7.8
-5 -1 -6 104.69 7.1
5 1 6 91.39 7.7
5 1 6 119.69 14.6
-5 1 -6 92.49 6.9
-5 1 -6 74.89 6.2
-5 1 -6 91.79 7.5
5 1 6 104.49 6.5
6 -1 6 3.1 3.4
-6 -1 -6 8.3 3.2
6 -1 6 15.2 4.4
6 -1 6 10.5 4.7
-6 -1 -6 9.9 3.3
-6 -1 -6 12.8 3.7
6 -1 6 7.1 5.8
6 1 6 11.6 3.1
6 1 6 9.5 3.7
6 1 6 5.3 7.5
-6 1 -6 9.9 3.5
-6 1 -6 8.4 2.9
-6 1 -6 9.1 3.3
-7 -1 -6 30.4 5.7
7 -1 6 29.3 7
7 -1 6 25.6 5.4
7 -1 6 8.8 6.4
-7 -1 -6 42.7 5.6
7 -1 6 31.7 5.3
-7 -1 -6 40.9 5.6
-7 1 -6 38.4 5.9
-7 1 -6 38.2 6.1
7 1 6 38.4 10.3
7 1 6 13.7 6.6
7 1 6 23.2 4.9
-7 1 -6 31.3 4.8
8 -1 6 109.99 12
-8 -1 -6 113.49 8.3
8 -1 6 124.09 10.4
-8 -1 -6 111.19 8.9
-8 -1 -6 115.29 9.3
8 1 6 127.09 9.8
-8 1 -6 116.69 9.1
-8 1 -6 112.89 10.5
8 1 6 111.89 13.1
8 1 6 117.29 15.6
-8 1 -6 99.59 7.9
9 -1 6 -0.4 4
-9 -1 -6 2 3.4
-9 -1 -6 -1.2 3.8
-9 -1 -6 1.8 4
9 -1 6 -16.6 6
9 1 6 -1.4 8.7
-9 1 -6 -1.8 3
9 1 6 -2.3 7.7
9 1 6 1.6 3.8
-9 1 -6 -2.7 2.8
-9 1 -6 -1 3.8
-10 -1 -6 52.29 7.9
-10 -1 -6 53.79 7
-10 -1 -6 47 7.2
10 -1 6 35.9 9.5
10 -1 6 43.7 7.8
10 1 6 40.1 11.9
-10 1 -6 52.29 7.1
-10 1 -6 42.4 7
10 1 6 43 11.2
-10 1 -6 44.4 7.6
10 1 6 31.8 6.5
11 -1 6 26.7 10
11 -1 6 27.7 6.7
-11 -1 -6 36.1 6.2
-11 -1 -6 45.2 7.8
-11 -1 -6 48.4 7.6
11 1 6 58.09 12.4
11 1 6 35.5 7.2
-11 1 -6 21.5 6.1
-11 1 -6 30.1 7.1
12 -1 6 -0.1 3.8
-12 -1 -6 3.2 4.5
12 -1 6 1.8 8.9
-12 -1 -6 -3.5 3.8
-12 -1 -6 2.2 3.8
-12 1 -6 2.5 4.2
12 1 6 5.9 4.8
12 1 6 11.9 9.6
-12 1 -6 6.1 5
13 -1 6 -1.2 5
-13 -1 -6 5.6 4.9
-13 -1 -6 2.3 5.6
-13 -1 -6 2.1 5.2
13 -1 6 5.5 9.8
-13 1 -6 -2.6 5.1
-13 1 -6 5.2 5.1
13 1 6 -15.7 8.9
13 1 6 -0.1 4.7
-14 -1 -6 17.3 5.4
14 -1 6 -1.5 9.7
14 -1 6 0.4 5
-14 -1 -6 7.4 5.7
-14 1 -6 5.4 5.1
14 1 6 3.6 5.2
-14 1 -6 6.8 6.4
14 1 6 -12.8 9.4
-15 -1 -6 12.8 7.1
-15 -1 -6 12 5.6
15 -1 6 30.1 8.6
15 -1 6 -0.1 12.1
-15 1 -6 12.2 6.6
-15 1 -6 10.6 7.2
15 1 6 -6.7 11.5
15 1 6 21.9 7.6
16 -2 -6 8.5 10.7
16 -2 -6 3.3 5.7
16 2 -6 11.1 14.7
16 2 -6 2.3 5.1
16 2 -6 -16.8 8.5
-16 2 6 2.6 5.2
15 -2 -6 128.69 14.1
15 -2 -6 111.99 16.4
15 2 -6 111.09 20.1
15 2 -6 106.59 12.5
15 2 -6 122.69 18.9
14 -2 -6 14.7 9.1
14 -2 -6 5.4 5
14 2 -6 10.9 12.4
14 2 -6 12.1 10
14 2 -6 7.8 5.6
13 -2 -6 -8.6 6.1
13 -2 -6 -1.9 3.6
13 -2 -6 6.9 9.1
-13 2 6 4.4 3.3
13 2 -6 3.8 10.4
13 2 -6 19 9.8
13 2 -6 -0.5 4
12 -2 -6 -4.6 7.1
-12 -2 6 4.7 4.7
12 -2 -6 4.3 4.4
12 -2 -6 6.7 6.3
12 2 -6 0.5 3.7
12 2 -6 2.5 7.8
12 2 -6 12.7 9.5
-12 2 6 0.8 3
11 -2 -6 818.02 34.4
11 -2 -6 782.52 30.8
11 -2 -6 847.02 34.1
11 2 -6 787.42 30.3
11 2 -6 829.52 36.6
-11 2 6 831.02 27.3
11 2 -6 799.12 38.8
10 -2 -6 43.8 8.9
10 -2 -6 30.5 7.7
10 -2 -6 26.2 5.9
10 2 -6 22.3 8.4
10 2 -6 20.9 5.1
-10 2 6 27 4.5
10 2 -6 29.3 10
9 -2 -6 536.15 24.2
9 -2 -6 566.64 24.8
9 -2 -6 570.44 22.6
-9 2 6 540.75 19.5
9 2 -6 572.24 28.4
9 2 -6 524.95 21.6
9 2 -6 560.74 26.4
8 -2 -6 1.7 3.9
8 -2 -6 1.2 2.6
8 -2 -6 6.6 4.5
-8 2 6 0.5 1.9
8 2 -6 10.2 6.2
8 2 -6 1.9 4.5
8 2 -6 0.9 2.3
7 -2 -6 18 3.8
7 -2 -6 22.8 4.5
7 -2 -6 13.1 4.3
7 -2 -6 18.2 5.1
7 2 -6 9.8 4.9
-7 2 6 16.3 3.1
7 2 -6 14.5 3.6
7 2 -6 11.4 5.4
6 -2 -6 21.5 4
6 -2 -6 19 3.9
6 -2 -6 23 5
6 -2 -6 22.5 4.7
-6 -2 6 21.1 1.8
-6 2 6 22.4 3.3
6 2 -6 24 6.2
6 2 -6 22.4 5.1
6 2 -6 23.1 3.9
5 -2 -6 371.26 14.4
5 -2 -6 385.56 15
5 -2 -6 334.47 15.2
-5 -2 6 366.86 11.2
5 -2 -6 363.36 15.8
-5 2 6 370.46 13.6
5 2 -6 354.26 15.8
5 2 -6 344.27 17.3
5 2 -6 354.76 14.2
4 -2 -6 177.08 9
4 -2 -6 192.88 11.1
4 -2 -6 192.08 10.4
-4 -2 6 177.28 7.1
4 2 -6 181.48 9.1
4 2 -6 180.48 12
4 2 -6 174.68 10.3
-4 2 6 170.08 8.4
-4 2 6 188.98 8.5
-3 -2 6 1075.99 30.9
3 -2 -6 1136.59 32.2
3 -2 -6 1070.49 34
3 2 -6 1081.59 33.1
-3 2 6 1105.89 32.1
3 2 -6 1125.59 35.7
-2 -2 6 324.67 11.7
2 -2 -6 322.37 13.9
2 -2 -6 339.67 11.8
2 2 -6 336.97 10.5
2 2 -6 336.97 14.5
-2 2 6 305.47 11.8
2 2 -6 305.27 10.9
2 2 -6 318.67 12
1 -2 -6 1015.2 29.7
-1 -2 6 963.3 31.3
-1 -2 6 1007.2 29.7
1 -2 -6 1034.9 32
-1 2 6 994.9 29.5
1 2 -6 1031.5 28.2
1 2 -6 994.5 29.3
0 -2 -6 176.28 9.8
0 -2 6 178.08 8.5
0 -2 -6 191.58 8.3
0 -2 6 183.88 8.8
0 2 -6 189.38 8.6
0 2 -6 181.28 7.4
0 2 6 188.08 8.3
-1 -2 -6 336.87 12.9
1 -2 6 376.66 14.3
1 -2 6 339.97 13.6
-1 -2 -6 365.96 14.4
-1 -2 -6 346.27 14.9
-1 2 -6 340.97 12.3
1 2 6 381.66 13.3
-1 2 -6 365.96 13.9
2 -2 6 141.79 8.7
2 -2 6 154.68 9.2
-2 -2 -6 141.19 9.7
2 -2 6 150.98 9.8
-2 -2 -6 153.28 9.1
-2 -2 -6 151.28 7.8
2 2 6 164.98 19.1
2 2 6 161.58 8
-2 2 -6 148.89 7.6
-2 2 -6 143.99 8.6
-3 -2 -6 596.84 21.5
3 -2 6 618.14 22.6
-3 -2 -6 657.93 22.9
-3 -2 -6 602.44 20.4
3 -2 6 647.14 22.4
3 -2 6 648.74 21.9
3 2 6 615.04 20.2
-3 2 -6 604.84 20.5
3 2 6 601.04 20.5
3 2 6 571.24 31
-3 2 -6 641.74 21.9
-4 -2 -6 44.9 5.7
4 -2 6 49.5 6.3
4 -2 6 51.89 6.5
-4 -2 -6 35.2 5.6
4 -2 6 42.8 6
-4 -2 -6 55.69 5.7
4 2 6 53.09 11.7
-4 2 -6 33.5 5
-4 2 -6 39 4.9
4 2 6 53.09 5.1
4 2 6 39.1 5
5 -2 6 292.07 15.7
5 -2 6 315.37 14.5
-5 -2 -6 258.97 12.2
5 -2 6 318.27 14.7
5 -2 6 280.17 13.5
-5 -2 -6 286.27 13
-5 -2 -6 298.87 14.1
5 2 6 296.37 11.8
5 2 6 295.57 21.4
-5 2 -6 295.47 13.3
5 2 6 304.57 13
-5 2 -6 303.87 14
6 -2 6 2.2 3.2
-6 -2 -6 4 3.4
6 -2 6 9 5.2
6 -2 6 1.8 3.3
-6 -2 -6 4.2 2.8
6 -2 6 4.1 4.2
6 -2 6 -0.3 3.6
-6 -2 -6 -0.2 2.8
-6 2 -6 2.6 2.9
6 2 6 9.8 2.6
6 2 6 2.3 2.7
6 2 6 -1.7 8.2
-6 2 -6 2.5 2.8
-7 -2 -6 158.88 9.7
7 -2 6 153.58 10.6
7 -2 6 153.38 12.2
-7 -2 -6 146.89 10.4
7 -2 6 149.69 11
-7 -2 -6 149.19 9.8
-7 2 -6 156.48 10.1
7 2 6 130.99 17.7
7 2 6 145.39 9.9
-7 2 -6 165.58 10.6
-8 -2 -6 42.4 6.4
-8 -2 -6 28.4 5.6
-8 -2 -6 30.6 6.2
8 -2 6 27.6 7.6
8 -2 6 28.6 6.3
8 -2 6 24.6 5.8
8 2 6 26 11.3
-8 2 -6 30.1 5.8
-8 2 -6 33.3 6.3
8 2 6 23.9 5.3
-9 -2 -6 296.77 15.8
-9 -2 -6 295.27 15.1
9 -2 6 299.27 16.9
-9 -2 -6 276.87 14.1
9 -2 6 291.37 18.7
9 2 6 270.57 15.1
9 2 6 251.97 23
-9 2 -6 320.67 16.4
-9 2 -6 281.97 15.5
10 -2 6 71.19 11.1
10 -2 6 56.39 8.7
-10 -2 -6 60.39 7.9
-10 -2 -6 59.39 8.5
-10 -2 -6 66.49 8
-10 2 -6 54.39 8
10 2 6 53.49 12.1
-10 2 -6 57.79 8.4
10 2 6 60.79 8.1
10 2 6 63.49 14.8
-11 -2 -6 -1.4 4.1
11 -2 6 4.8 7.9
11 -2 6 0.6 3.6
-11 -2 -6 2 3.9
-11 -2 -6 6.8 4.6
11 2 6 5.5 10.1
-11 2 -6 3 4.5
11 2 6 26.1 10.7
-11 2 -6 4.8 3.9
11 2 6 5 4.3
-12 -2 -6 6.1 5
-12 -2 -6 4.4 4.9
-12 -2 -6 3.7 4.2
12 -2 6 1.5 4.7
12 2 6 6.1 10.2
-12 2 -6 -2.3 4.2
-12 2 -6 13.5 5.7
12 2 6 1.6 4.3
12 2 6 0 9.2
-13 -2 -6 78.99 9.4
-13 -2 -6 64.89 9.6
13 -2 6 57.39 10.8
-13 2 -6 58.69 9.3
13 2 6 38.8 14.1
13 2 6 50.79 9.1
-13 2 -6 68.19 11
-14 -2 -6 115.79 12.8
-14 -2 -6 121.59 11.4
14 -2 6 113.89 14.3
14 2 6 103.49 13
-14 2 -6 135.29 13.6
-14 2 -6 106.79 13.2
16 -3 -6 9.2 10.3
16 3 -6 11 15.5
16 3 -6 -2.2 10.8
15 -3 -6 5.3 9.8
15 -3 -6 2.8 4.9
15 3 -6 10.4 6.2
15 3 -6 -2 13.7
15 3 -6 22.3 12.3
14 -3 -6 57.99 10.2
14 -3 -6 83.69 13.7
-14 3 6 86.69 9.5
14 3 -6 66.49 9.9
14 3 -6 47.1 16.3
14 3 -6 74.09 15.7
13 -3 -6 4.7 4.9
13 -3 -6 0.2 6.7
13 3 -6 11.3 8.8
13 3 -6 0 3.9
-13 3 6 3.5 3.5
13 3 -6 2.4 11.1
12 -3 -6 0.3 6.3
12 -3 -6 1.5 4.2
-12 3 6 6.6 3.8
12 3 -6 -3.6 9.4
12 3 -6 0.5 7.8
12 3 -6 -1 3.6
11 -3 -6 -1 3.3
11 -3 -6 7.3 6.1
11 3 -6 -0.7 7.4
11 3 -6 -7.9 8.2
11 3 -6 1.9 3.1
-11 3 6 -1.3 2.9
10 -3 -6 64.69 9.6
10 -3 -6 61.99 8.3
10 3 -6 42.8 10.1
10 3 -6 64.99 7.8
-10 3 6 71.69 7.6
10 3 -6 67.19 13.2
9 -3 -6 146.49 11
9 -3 -6 156.18 13.2
9 -3 -6 145.39 12.8
9 3 -6 170.78 17.6
-9 3 6 163.88 9.8
9 3 -6 177.18 11.1
9 3 -6 162.18 15.8
8 -3 -6 59.29 7.9
8 -3 -6 66.49 7.2
8 -3 -6 71.79 8.8
8 3 -6 81.99 8
8 3 -6 69.89 11.2
8 3 -6 42.9 8.9
-8 3 6 76.59 7.3
7 -3 -6 25.3 5.7
7 -3 -6 30.4 5.7
7 -3 -6 23.4 4.8
-7 -3 6 32.8 2.9
-7 -3 6 30.3 2.9
7 -3 -6 22 4.4
7 3 -6 28.4 4.6
-7 3 6 32.6 4.7
7 3 -6 36.4 7.9
7 3 -6 32.8 7
6 -3 -6 55.29 6.7
-6 -3 6 47 3.9
-6 -3 6 51.09 3.8
6 -3 -6 50.79 6.8
6 -3 -6 69.09 7.3
6 -3 -6 54.99 6
6 3 -6 43.8 5.2
6 3 -6 42.1 8.3
6 3 -6 36.5 6.6
-6 3 6 52.79 5.8
5 -3 -6 160.58 8.7
-5 -3 6 165.08 7.3
5 -3 -6 185.18 10.3
-5 -3 6 163.08 7.1
5 -3 -6 161.28 10.3
5 3 -6 159.28 10.7
5 3 -6 161.08 12.5
-5 3 6 169.28 9.1
5 3 -6 189.68 9.3
-4 -3 6 158.48 7.8
-4 -3 6 168.38 7.6
4 -3 -6 180.38 10.8
4 -3 -6 185.58 8.9
4 3 -6 168.28 12
-4 3 6 185.78 9
-4 3 6 175.78 9.1
4 3 -6 174.98 10.2
3 -3 -6 123.29 6.7
-3 -3 6 138.49 7.3
-3 -3 6 122.39 6.9
3 -3 -6 120.19 9
3 -3 -6 131.19 9.5
3 3 -6 118.39 9.6
-3 3 6 119.29 7.3
3 3 -6 122.79 5.6
3 3 -6 122.29 8.2
2 -3 -6 44.2 4
-2 -3 6 32.1 4.5
-2 -3 6 42.6 4.9
2 -3 -6 51.69 6.9
2 -3 -6 31.8 5.5
2 3 -6 35.9 3.8
-2 3 6 39 4.8
2 3 -6 37.1 2.8
2 3 -6 30.8 4.2
2 3 -6 34.6 5.4
-1 -3 6 358.66 14.1
-1 -3 6 354.86 14.4
1 -3 -6 371.76 16.3
1 -3 -6 374.56 16
-1 3 6 367.46 13.9
1 3 -6 343.27 13.1
1 3 -6 364.76 11.6
0 -3 -6 4.2 2.6
0 -3 -6 -0.9 3
0 -3 6 9.1 3.4
0 -3 -6 7.2 4.1
0 -3 6 7.6 3.1
0 3 6 5.1 11.2
0 3 6 5.2 2.4
0 3 -6 9.8 2.1
0 3 -6 4.2 2.4
0 3 6 8 2.9
-1 -3 -6 47.8 6.3
-1 -3 -6 42.2 4.7
1 -3 6 50.29 6.2
-1 -3 -6 50.59 6.8
1 -3 6 48.3 6.1
1 3 6 35.8 12.1
-1 3 -6 45.4 4.4
1 3 6 44.6 4.8
-1 3 -6 48.7 5.4
2 -3 6 -1.4 3.7
-2 -3 -6 2.1 2.2
-2 -3 -6 3.1 3.3
2 -3 6 3.2 3.5
2 -3 6 4.1 3.3
-2 -3 -6 2.1 3.2
2 3 6 0.7 1.8
2 3 6 4.6 9.9
-2 3 -6 0.3 2.3
-2 3 -6 1.6 2
2 3 6 3 2.5
-3 -3 -6 0.8 3.1
-3 -3 -6 6.9 3.5
3 -3 6 10.5 4.1
-3 -3 -6 8.4 2.6
3 -3 6 5.4 3.8
3 -3 6 9.7 4
3 3 6 5.1 2.4
3 3 6 6.7 9.6
-3 3 -6 10.1 2.8
3 3 6 8.3 2.6
-3 3 -6 7.4 3
4 -3 6 79.39 8.3
4 -3 6 58.19 7.1
-4 -3 -6 80.19 8.3
4 -3 6 73.19 8
-4 -3 -6 74.79 7.8
-4 -3 -6 67.49 5.6
4 3 6 87.59 14.7
-4 3 -6 68.39 7.2
-4 3 -6 73.89 6
4 3 6 57.19 5.3
4 3 6 67.39 5.3
5 -3 6 9 3.6
-5 -3 -6 0.1 2.3
-5 -3 -6 6.1 3.4
5 -3 6 2.6 4
-5 -3 -6 -3.4 3
5 -3 6 0.9 3.3
5 3 6 2.3 2.2
-5 3 -6 2.5 2.4
5 3 6 3.6 9.6
-5 3 -6 6 3
5 3 6 0.8 2.1
-6 -3 -6 1.3 3.7
6 -3 6 1.5 4.1
6 -3 6 1.9 3.8
6 -3 6 2.1 3.7
-6 -3 -6 3.5 3.2
-6 -3 -6 6.4 4.2
-6 3 -6 4.6 3.3
-6 3 -6 5.3 3.2
6 3 6 -1.7 9.6
6 3 6 7.1 3
-7 -3 -6 45.3 6.8
-7 -3 -6 47.9 6.2
7 -3 6 46.1 7.4
7 -3 6 47.2 7.6
-7 -3 -6 36.9 6.8
7 3 6 31 12.7
-7 3 -6 47.6 7
7 3 6 44 6
-7 3 -6 35.8 5.9
-8 -3 -6 27.9 5.5
-8 -3 -6 28 6.7
8 -3 6 21.7 6.2
8 -3 6 34.4 7.2
-8 -3 -6 23.6 6
8 3 6 14.4 11.7
-8 3 -6 22.3 5.6
8 3 6 21.6 4.9
-8 3 -6 24.8 5.9
-9 -3 -6 7.5 4.5
9 -3 6 5.2 4.6
-9 -3 -6 8.6 4.9
-9 -3 -6 7.9 5.4
-9 3 -6 6.1 4.1
9 3 6 16 11.3
9 3 6 5.2 3.8
-9 3 -6 7.9 4.4
-10 -3 -6 5.5 5
-10 -3 -6 11.5 4.9
10 -3 6 6.8 5.4
10 3 6 12.2 11.2
10 3 6 7 4.3
-10 3 -6 11.4 5.1
-10 3 -6 4.3 4
-11 -3 -6 2.1 3.9
11 -3 6 2.2 5.2
-11 -3 -6 2.7 4.9
-11 -3 -6 1.1 4.4
11 3 6 4.9 4.1
-11 3 -6 4.4 4.2
11 3 6 2.6 10.3
-11 3 -6 9.7 5.1
-12 -3 -6 2.1 4.6
12 -3 6 -1.5 5.1
-12 -3 -6 -1.7 4.4
-12 3 -6 0.2 4.5
-12 3 -6 3.4 4.7
12 3 6 20.1 12.2
12 3 6 -3 3.9
-13 -3 -6 55.59 8.8
13 -3 6 69.89 11.7
-13 3 -6 64.79 9.9
-13 3 -6 61.59 10.9
-14 -3 -6 13.7 5.7
14 -3 6 -4.4 5.5
-14 3 -6 7.6 5.9
-14 3 -6 -0.5 5
15 -4 -6 17 7.2
15 -4 -6 9.1 11.9
15 4 -6 3.5 11.4
-15 4 6 30.5 6.9
15 4 -6 4.2 14.7
14 -4 -6 46.8 11.6
14 -4 -6 63.19 10.5
-14 4 6 80.09 9.7
14 4 -6 46.2 14.6
14 4 -6 24.8 14.9
13 -4 -6 21.3 8.5
13 -4 -6 19 6.9
13 4 -6 -3.6 11.2
-13 4 6 17.8 5.5
13 4 -6 9.1 4.9
13 4 -6 -1.2 9.7
12 -4 -6 26.6 6.9
12 -4 -6 20.6 7.5
-12 4 6 25.8 5.8
12 4 -6 9.8 9.2
12 4 -6 16 5.1
12 4 -6 24.8 12.4
11 -4 -6 46.8 8.1
11 -4 -6 46.4 9.2
11 4 -6 50.89 7.3
11 4 -6 31 10.2
11 4 -6 23.4 10.9
-11 4 6 54.49 7.4
10 4 -6 41.3 6.7
10 4 -6 33.8 10.1
10 4 -6 15.7 9.9
9 -4 -6 627.94 27
9 -4 -6 654.63 25.9
9 4 -6 649.43 31
-9 4 6 634.84 24.9
9 4 -6 679.63 34.6
9 4 -6 679.83 25
-8 -4 6 65.49 5.5
8 -4 -6 76.69 8.4
8 -4 -6 74.49 9.3
8 -4 -6 62.39 8.4
8 4 -6 48.9 10
8 4 -6 75.49 7.6
-8 4 6 59.99 7.2
8 4 -6 62.89 12.1
-7 -4 6 61.79 5.4
7 -4 -6 38.1 6
7 -4 -6 53.89 7.7
-7 -4 6 52.69 5.1
7 -4 -6 46.3 7
-7 4 6 53.39 6.6
7 4 -6 34.5 8.9
7 4 -6 68.99 10.1
7 4 -6 44.4 5.7
-6 -4 6 200.48 9.2
6 -4 -6 186.68 10.5
6 -4 -6 198.18 12.3
6 -4 -6 198.58 12.4
6 -4 -6 203.98 12.9
-6 -4 6 183.48 9.3
6 4 -6 195.58 13.7
-6 4 6 199.68 11.2
6 4 -6 213.48 10.8
6 4 -6 215.28 16.2
5 -4 -6 19.3 3.6
5 -4 -6 24.4 5.7
5 -4 -6 21 5.4
5 -4 -6 20.2 4.6
-5 -4 6 19.3 3.8
-5 -4 6 13.8 3.4
5 4 -6 21.8 6.8
-5 4 6 14.3 3.7
5 4 -6 15.1 5.3
-5 4 6 12.6 3.5
4 -4 -6 20.7 3.5
4 -4 -6 9.3 4.6
-4 -4 6 26.7 4.2
4 -4 -6 20.4 5.7
-4 -4 6 25.3 4.1
-4 4 6 26 4.7
4 4 -6 14.5 4.6
4 4 -6 21 5.9
-4 4 6 18.9 4
3 -4 -6 223.48 13.2
-3 -4 6 205.28 10.3
-3 -4 6 215.98 10.8
3 -4 -6 191.08 12.1
3 -4 -6 202.98 8.9
-3 4 6 210.48 10.6
3 4 -6 212.48 8.5
3 4 -6 199.58 10.9
3 4 -6 196.38 12.7
2 -4 -6 10.9 4.5
-2 -4 6 8.5 3.5
-2 -4 6 10.4 3.7
2 -4 -6 12 4.4
2 -4 -6 8.3 2.1
2 4 -6 11.1 2.9
-2 4 6 18.8 12.1
2 4 -6 11.7 3.4
2 4 -6 4.1 3.6
-2 4 6 10.9 3.3
2 4 -6 16 1.9
-1 -4 6 9 3.5
-1 -4 6 5.9 3.5
1 -4 -6 13.1 4.3
1 -4 -6 9.5 4.5
-1 4 6 7.8 2.6
-1 4 6 5.3 10.6
1 4 -6 8.8 1.8
1 4 -6 4.6 2.2
1 4 -6 17.6 4.2
0 -4 -6 97.29 9.5
0 -4 -6 116.69 10.5
0 -4 6 105.19 8.9
0 -4 6 104.79 8.3
0 4 6 109.79 7.1
0 4 6 110.49 6.7
0 4 6 114.09 17
0 4 -6 107.29 7.1
0 4 -6 107.39 5.5
1 -4 6 423.66 17.3
1 -4 6 393.36 17.5
-1 -4 -6 414.46 15.5
1 -4 6 442.16 18.4
-1 -4 -6 409.36 18.9
-1 -4 -6 441.56 18.9
1 4 6 459.05 28.5
1 4 6 409.36 16.1
1 4 6 431.66 15.6
-1 4 -6 450.35 17.1
-1 4 -6 443.66 14.9
-2 -4 -6 339.47 16.9
2 -4 6 356.26 15.9
2 -4 6 381.76 17
2 -4 6 360.96 16.4
-2 -4 -6 354.86 13.8
-2 -4 -6 320.67 16.1
2 4 6 364.26 11.9
2 4 6 364.66 14.3
-2 4 -6 349.67 13.5
2 4 6 349.37 25.6
-2 4 -6 358.86 15.4
-3 -4 -6 23.6 5.5
-3 -4 -6 24.6 5.7
3 -4 6 23.3 5.8
-3 -4 -6 21.7 3.7
3 -4 6 17.4 4.9
3 -4 6 15.6 4.9
3 4 6 23.9 12.2
-3 4 -6 14 4.2
-3 4 -6 24.6 4.1
3 4 6 21.2 3
3 4 6 24.5 4
4 -4 6 14.7 4.8
-4 -4 -6 11.5 4.6
-4 -4 -6 15 3.5
4 -4 6 18 5.5
4 -4 6 15.5 5
-4 -4 -6 6.3 4
-4 4 -6 9.2 3
-4 4 -6 12.4 4.1
4 4 6 17.5 3.5
4 4 6 14.7 2.8
4 4 6 17.5 11.8
-5 -4 -6 -1 4
-5 -4 -6 -0.7 2.3
5 -4 6 -0.5 3.9
-5 -4 -6 4.2 4
5 -4 6 4.2 4.5
5 -4 6 1.5 4.1
-5 4 -6 -0.7 2.4
-5 4 -6 4.7 3.6
5 4 6 1.7 11
6 -4 6 857.11 31.2
-6 -4 -6 851.31 31.4
-6 -4 -6 853.11 27.9
6 -4 6 877.81 32.5
6 -4 6 819.82 31.2
-6 -4 -6 822.02 30
-6 4 -6 844.32 30.9
-6 4 -6 839.32 29.5
6 4 6 830.82 42.4
7 -4 6 190.08 13.6
7 -4 6 178.88 13.7
-7 -4 -6 213.68 14
7 -4 6 156.18 14.6
-7 -4 -6 179.48 10.7
-7 -4 -6 198.08 12.7
-7 4 -6 185.68 12.8
7 4 6 157.68 21.7
-7 4 -6 177.68 11.8
-8 -4 -6 1165.48 36.2
-8 -4 -6 1072.89 37.2
8 -4 6 1101.19 39.6
8 -4 6 1108.99 40.2
-8 -4 -6 1174.68 39.4
-8 4 -6 1096.89 39
-8 4 -6 1104.79 38.3
8 4 6 1078.29 51.69
-9 -4 -6 182.58 11.8
9 -4 6 193.48 14.5
-9 -4 -6 173.18 12.4
-9 -4 -6 186.18 13.7
-9 4 -6 189.58 13.3
9 4 6 148.39 22.4
-9 4 -6 169.58 12.5
-10 -4 -6 36 7.3
10 -4 6 12.5 6.4
-10 -4 -6 20.7 6.8
-10 4 -6 24.4 6.6
-10 4 -6 6.1 4.7
10 4 6 26.3 14.2
-11 -4 -6 22.3 6.2
11 -4 6 22.2 7.4
11 4 6 27.9 13.2
-11 4 -6 30.3 7.3
-11 4 -6 21.5 6.8
-12 -4 -6 144.49 12.9
12 -4 6 138.19 15.7
12 4 6 151.08 24
-12 4 -6 126.09 13.5
-12 4 -6 134.99 13.8
-13 -4 -6 21.9 6.5
13 -4 6 10.5 7
-13 4 -6 17.1 6.6
-13 4 -6 19.5 7.1
14 -5 -6 5.6 5.7
-14 5 6 19.9 6.8
14 5 -6 2.6 14.7
14 5 -6 19.1 13.3
13 -5 -6 9.2 5.6
13 5 -6 -13.6 8.7
13 5 -6 -7 12.2
-13 5 6 4.1 4.8
12 -5 -6 3.1 5.1
12 5 -6 -8.3 8.9
12 5 -6 11.5 13.1
-12 5 6 2.7 4.2
11 -5 -6 21.6 6.2
11 -5 -6 22.5 8
11 5 -6 6 9.6
-11 5 6 25.9 6.1
11 5 -6 9.2 11.8
10 -5 -6 8.6 4.5
10 -5 -6 0.7 5.4
-10 5 6 0 3.2
10 5 -6 1.6 9.4
10 5 -6 -5.4 7.3
-9 -5 6 386.56 15.5
9 -5 -6 380.46 18.4
9 -5 -6 396.56 20.1
-9 5 6 385.56 18.4
9 5 -6 326.17 25.6
9 5 -6 334.07 22.8
8 -5 -6 21.8 6.6
8 -5 -6 20.9 6.6
8 -5 -6 15.4 4.8
-8 -5 6 26.4 5.1
8 5 -6 21.8 8.6
8 5 -6 8.6 9
-8 5 6 25.5 5.6
-7 -5 6 173.28 10.4
7 -5 -6 197.28 13.4
-7 -5 6 179.08 10.7
7 -5 -6 191.38 11.7
7 -5 -6 167.48 13.8
7 5 -6 190.88 18.9
7 5 -6 198.88 17.3
-7 5 6 184.38 12.1
6 -5 -6 45.4 8.1
6 -5 -6 33.4 7.2
-6 -5 6 53.39 6.5
6 -5 -6 54.59 6.3
-6 -5 6 52.29 6.6
6 5 -6 37.4 9.6
-6 5 6 38.3 6.1
6 5 -6 55.09 9.4
-5 -5 6 74.99 8
5 -5 -6 68.69 9.7
-5 -5 6 64.49 7.4
5 -5 -6 79.49 10
5 -5 -6 81.59 6.8
-5 5 6 68.09 17.1
-5 5 6 73.49 8.1
5 5 -6 71.69 9.7
5 5 -6 73.29 10.7
-5 5 6 68.39 7.8
4 -5 -6 64.39 9.2
4 -5 -6 54.19 8.6
-4 -5 6 51.59 6.8
4 -5 -6 46.5 5
-4 -5 6 46.4 6.6
4 5 -6 46.9 7.4
-4 5 6 52.59 7
-4 5 6 55.49 15.9
4 5 -6 49.2 8.7
-4 5 6 53.49 7.1
3 -5 -6 3.9 4.5
-3 -5 6 7.3 4.2
3 -5 -6 5 2.5
-3 -5 6 7.2 3.9
3 -5 -6 8.9 4.8
-3 5 6 26.6 13.5
3 5 -6 6.7 5.3
-3 5 6 7.2 3.1
3 5 -6 2.6 4.5
2 -5 -6 54.19 8.3
-2 -5 6 63.49 7.6
2 -5 -6 62.09 9
-2 -5 6 60.29 7.6
2 5 -6 53.99 7.6
2 5 -6 70.99 6.5
-2 5 6 58.99 7.2
-2 5 6 67.09 15.7
-1 -5 6 83.39 8.9
-1 -5 6 102.69 9.9
1 -5 -6 86.29 10.3
1 -5 -6 87.49 10.2
1 5 -6 85.19 8.5
-1 5 6 85.99 7.1
1 5 -6 79.79 6.7
-1 5 6 88.89 16.9
0 -5 -6 9.2 5.2
0 -5 6 5.6 4.2
0 -5 -6 8 4.6
0 -5 6 6.7 4.6
0 5 6 5.8 2.8
0 5 6 -0.4 11.3
0 5 -6 10.4 3.5
0 5 6 6.2 3
0 5 -6 9.5 2.3
1 -5 6 247.08 14.4
1 -5 6 260.57 13.5
-1 -5 -6 252.17 15.1
-1 -5 -6 237.88 15.1
1 -5 6 263.07 15
-1 5 -6 275.17 10.8
1 5 6 261.67 23.8
1 5 6 262.07 11.9
-1 5 -6 253.67 13
1 5 6 250.97 12.3
2 -5 6 2.9 4.4
-2 -5 -6 4.6 5
2 -5 6 9.2 4.6
-2 -5 -6 12.1 5.7
2 -5 6 3.7 4.8
-2 5 -6 10.9 3.8
2 5 6 15.2 4
-2 5 -6 6.3 2.6
2 5 6 16 12.3
-3 -5 -6 87.79 10.4
3 -5 6 78.89 8.4
3 -5 6 83.19 10.4
-3 -5 -6 83.39 6.4
3 -5 6 83.29 9.6
3 5 6 45.3 14.2
-3 5 -6 76.39 7.2
3 5 6 79.69 7.3
-3 5 -6 75.89 8.2
-4 -5 -6 37.7 5.2
4 -5 6 50.99 9.3
4 -5 6 56.29 8.8
-4 -5 -6 63.69 9
4 -5 6 47.6 7.1
-4 -5 -6 40.3 8.1
-4 5 -6 45.5 7.2
4 5 6 61.69 16.5
-4 5 -6 44.3 5.7
5 -5 6 41 7
5 -5 6 50.29 9.4
-5 -5 -6 40.5 8
-5 -5 -6 46.1 8.8
5 -5 6 48.2 8.8
-5 -5 -6 60.39 6.4
5 5 6 36.6 15.8
-5 5 -6 42.7 6.1
-5 5 -6 34.9 6.7
-6 -5 -6 74.79 10.4
6 -5 6 66.99 10.1
6 -5 6 87.49 9.8
-6 -5 -6 54.29 8.7
6 -5 6 112.69 13.2
-6 5 -6 63.49 8.5
-6 5 -6 64.59 7.7
6 5 6 55.69 16.6
7 -5 6 91.79 10.7
-7 -5 -6 67.49 9.3
7 -5 6 72.79 11
-7 -5 -6 76.49 10.7
7 -5 6 71.99 10.8
7 5 6 70.99 17.4
-7 5 -6 64.59 8.4
-7 5 -6 76.69 9.7
-8 -5 -6 63.29 9.2
8 -5 6 59.69 8.9
8 -5 6 57.49 9.8
-8 -5 -6 40.8 8.5
-8 5 -6 44.8 8
8 5 6 76.69 18.4
-8 5 -6 48.6 7.7
9 -5 6 32.9 9.5
-9 -5 -6 21.1 6.6
9 -5 6 17 6.4
-9 -5 -6 11.7 6.5
9 5 6 42.4 15.5
-9 5 -6 17.8 6
-9 5 -6 15.3 5.4
-10 -5 -6 13.8 6.4
10 -5 6 12.8 7.1
-10 -5 -6 11 5.9
-10 5 -6 19.3 6.3
-10 5 -6 9.1 5.3
10 5 6 8.4 12
-11 -5 -6 3.2 5.5
11 -5 6 8.3 6.4
-11 5 -6 -5.8 3.7
11 5 6 -8.8 9.8
-11 5 -6 -0.3 4.6
-12 -5 -6 1 5.4
12 -5 6 6.8 7
12 5 6 3 11.6
-12 5 -6 9.3 5.4
-12 5 -6 3.3 5.5
13 -5 6 13.6 7.8
-13 -5 -6 8.5 6.3
-13 5 -6 17.9 7.1
-13 5 -6 13.1 7.2
13 -6 -6 12.4 6.7
-13 6 6 19.2 6.7
13 6 -6 -7.7 14.4
13 6 -6 21.2 13.3
12 -6 -6 2.5 5.1
12 6 -6 1.7 10.8
-12 6 6 4.7 4.8
12 6 -6 -3.5 11.9
11 -6 -6 7 5.2
11 6 -6 8.8 12.4
-11 6 6 -4.3 3.6
11 6 -6 -14.7 9
10 -6 -6 7.8 4.9
10 6 -6 5.6 10
10 6 -6 9.6 12.1
-10 6 6 3.1 4.4
9 -6 -6 73.99 9.1
-9 -6 6 97.89 9.4
-9 6 6 92.59 10.7
9 6 -6 72.99 13.3
9 6 -6 79.29 15.6
-8 -6 6 27.4 6.3
8 -6 -6 24.6 5.6
8 -6 -6 38 9
8 6 -6 30 9.8
-8 6 6 27.1 6.4
8 6 -6 17.8 10
-7 -6 6 78.29 9
7 -6 -6 93.09 13
-7 -6 6 82.39 9.1
7 -6 -6 70.79 10.9
-7 6 6 96.79 10.4
7 6 -6 107.09 13.7
-7 6 6 90.19 10.4
7 6 -6 92.09 14.3
6 -6 -6 88.39 11.6
6 -6 -6 54.89 9.5
-6 -6 6 75.89 8.8
-6 -6 6 86.69 9.3
-6 6 6 60.99 8.1
6 6 -6 71.69 11.2
6 6 -6 61.39 12
-6 6 6 77.89 9.4
5 -6 -6 23 7.6
5 -6 -6 35.7 8.8
-5 -6 6 33.6 7
-5 -6 6 27.1 6.6
5 6 -6 21.3 8.7
-5 6 6 28.9 5.9
-5 6 6 27.7 5.9
-4 -6 6 15.2 6.1
4 -6 -6 20.9 7.7
-4 -6 6 10.7 5.8
4 -6 -6 9.4 6
4 6 -6 19.2 8.2
-4 6 6 20.8 5.5
-4 6 6 15.2 13.2
-3 -6 6 178.28 12.7
-3 -6 6 180.98 13
3 -6 -6 143.89 15.1
3 -6 -6 181.58 16.2
-3 6 6 171.18 11.2
-3 6 6 168.08 21.5
3 6 -6 148.79 14.2
-2 -6 6 33.5 7.4
-2 -6 6 24.8 6.8
2 -6 -6 34.2 7.4
2 -6 -6 27.6 7.5
-2 6 6 19.1 12.9
1 -6 -6 141.79 14.4
-1 -6 6 161.88 12.4
-1 -6 6 170.48 13.4
1 -6 -6 165.98 14.9
-1 6 6 165.08 21.8
-1 6 6 150.08 10.4
1 6 -6 155.98 9.9
0 -6 6 -1.3 5
0 -6 6 -3.6 4.5
0 -6 -6 2.5 5.2
0 -6 -6 2.4 5.4
0 6 6 1.1 3.2
0 6 -6 5.6 3.5
0 6 6 4.8 3.3
0 6 6 -0.9 12.3
1 -6 6 4.7 4.7
1 -6 6 6.5 5.7
-1 -6 -6 4.4 5.3
1 -6 6 5 5.7
-1 -6 -6 17.9 7.2
1 6 6 -4.2 11.5
-1 6 -6 6.6 3.9
1 6 6 6.8 3.6
2 -6 6 10.9 6.6
-2 -6 -6 8.1 6.6
2 -6 6 7.1 4.8
-2 -6 -6 12.7 6.5
2 -6 6 4.6 6.3
2 6 6 4.3 3.5
-2 6 -6 9.8 4.3
2 6 6 12.6 13.9
3 -6 6 175.88 16.1
3 -6 6 135.09 11.2
3 -6 6 154.08 14.6
3 6 6 107.49 20.3
-3 6 -6 149.79 9.1
-3 6 -6 150.78 11.7
4 -6 6 198.98 15.7
4 -6 6 171.38 15.9
-4 -6 -6 204.98 16
4 -6 6 210.98 13.4
-4 -6 -6 237.88 15.9
4 6 6 255.47 29.1
-4 6 -6 193.38 11.2
-4 6 -6 210.08 13.7
5 -6 6 246.58 17.2
-5 -6 -6 249.68 17.3
5 -6 6 234.38 17.2
5 -6 6 233.88 14.8
-5 -6 -6 208.78 15.5
-5 6 -6 288.07 16.2
-5 6 -6 241.58 13
5 6 6 292.07 31.3
6 -6 6 12.2 6.3
6 -6 6 -0.4 6
6 -6 6 -0.3 4.5
-6 -6 -6 4.3 6.1
-6 -6 -6 9.9 6.2
-6 6 -6 8.7 4.6
-6 6 -6 5.3 3.7
6 6 6 8.5 11.1
-7 -6 -6 7.6 6.2
7 -6 6 4.2 6.4
7 -6 6 2.6 5.7
-7 -6 -6 9.3 6
7 -6 6 4.6 5
-7 6 -6 6.9 4.2
7 6 6 11.7 12.3
-7 6 -6 9 4.6
8 -6 6 58.39 9.2
8 -6 6 51.59 10.5
-8 -6 -6 68.09 10.9
-8 -6 -6 43.9 8.5
-8 6 -6 73.69 9.6
8 6 6 55.69 16.7
-8 6 -6 53.89 8.8
9 -6 6 15.1 7
-9 -6 -6 36.1 9.1
-9 -6 -6 23.8 7.4
9 -6 6 26.3 9.6
-9 6 -6 23.2 7.1
-9 6 -6 29.9 7.6
9 6 6 37.1 16.6
10 -6 6 -7.8 5
-10 -6 -6 3.8 6.2
-10 6 -6 1.1 4.6
-10 6 -6 0.4 5
10 6 6 5.3 12.9
11 -6 6 33 9.2
-11 -6 -6 22.2 7.4
-11 6 -6 32.8 7.9
11 6 6 34.9 16.2
-11 6 -6 21.7 7.4
12 -6 6 3.2 6.9
-12 -6 -6 1.8 6
12 6 6 18.2 14.8
-12 6 -6 -4.2 4.8
-12 6 -6 11 6.1
12 7 -6 10.8 12.5
12 7 -6 -20.3 13.9
-12 7 6 3.9 5.6
-11 7 6 -4.5 4.4
11 7 -6 -5.3 12.8
11 7 -6 -1 10.7
10 7 -6 -19.7 11.1
10 7 -6 -3 10.7
-10 7 6 -5.2 4.1
-9 -7 6 26.1 8.4
9 7 -6 52.29 15.6
-9 7 6 31.8 7.7
9 7 -6 21.7 14.7
-8 -7 6 0.6 5.4
8 -7 -6 9.9 7
-8 7 6 0.9 4.2
8 7 -6 -6.1 10.6
-8 7 6 1.5 4
-7 -7 6 11.1 6.1
-7 -7 6 9.9 6.2
7 -7 -6 3.9 6.8
-7 7 6 4.8 4.7
-7 7 6 15 5.7
7 7 -6 -0.8 9.9
-6 -7 6 -2.9 4.7
-6 -7 6 -2.6 4.7
6 -7 -6 -9.6 5.6
6 -7 -6 0.9 6.4
-6 7 6 -2.5 3.1
-6 7 6 -1.8 3.4
6 7 -6 0.1 8.8
-5 -7 6 25.7 7.3
-5 -7 6 37.5 8
5 -7 -6 66.29 11.3
5 -7 -6 40.2 9.6
-5 7 6 38.6 7
5 7 -6 44.7 11.4
4 -7 -6 22.9 8.4
-4 -7 6 21.9 7.1
4 -7 -6 14.9 7.5
-4 -7 6 29.4 7.8
-4 7 6 20.1 5.7
-3 -7 6 90.49 11.4
-3 -7 6 64.19 10
3 -7 -6 66.69 11.2
3 -7 -6 53.69 10.4
-3 7 6 67.29 15
-3 7 6 77.09 9.3
-2 -7 6 59.39 10
2 -7 -6 46.8 10.2
2 -7 -6 28.8 8.7
-2 -7 6 42.4 8.8
-2 7 6 39.4 7
-2 7 6 44.9 14.1
1 -7 -6 -4.6 5.7
1 -7 -6 -0.2 5.9
-1 -7 6 9.8 6.3
-1 -7 6 11.7 6.7
-1 7 6 20.5 12.4
-1 7 6 14.3 4.7
0 -7 6 -1.8 5.4
0 -7 -6 2.3 5.4
0 -7 6 -3.4 5.7
0 -7 -6 -4.6 5.5
0 7 6 -9 10.2
0 7 6 1 3.5
0 7 -6 2.9 3.6
1 -7 6 31.2 8.5
-1 -7 -6 42 9.6
-1 -7 -6 31.9 8.9
1 -7 6 42.9 9.6
1 7 6 43 7
-1 7 -6 52.09 7.8
1 7 6 44.5 14.7
-2 -7 -6 168.68 17.2
-2 -7 -6 189.68 17.4
2 -7 6 255.97 17.7
2 -7 6 271.47 18
-2 7 -6 218.08 14
2 7 6 177.38 25.6
-3 -7 -6 18.1 7.6
-3 -7 -6 4.4 5.6
3 -7 6 1.2 6.3
3 -7 6 -0.9 5.5
3 7 6 -12.3 9.8
-3 7 -6 -1.3 3.8
-4 -7 -6 180.38 17
4 -7 6 167.98 16.6
-4 -7 -6 141.29 14.9
4 -7 6 223.78 19.6
4 7 6 198.18 27.1
-4 7 -6 182.08 13.6
5 -7 6 12.4 7.2
-5 -7 -6 10.5 6.7
-5 -7 -6 11 7.1
5 -7 6 8.3 7.3
5 7 6 16.7 12.6
-5 7 -6 16.4 6.3
6 -7 6 1.4 6.7
6 -7 6 -0.5 5.8
-6 -7 -6 -1.1 6
-6 -7 -6 4.9 6.5
-6 7 -6 2.5 3.6
6 7 6 15 14.2
-6 7 -6 5.6 4.9
7 -7 6 57.59 12.3
-7 -7 -6 42.5 9.7
7 -7 6 56.29 17.1
-7 -7 -6 53.39 10.5
7 7 6 43.8 17.1
-7 7 -6 34.2 7.1
-7 7 -6 51.49 9.5
8 -7 6 53.49 12.3
-8 -7 -6 64.99 11.5
8 -7 6 59.99 10
-8 -7 -6 42.9 9.9
8 7 6 41.3 17.4
-8 7 -6 57.59 10.5
-8 7 -6 74.59 10
9 -7 6 3.2 7.5
9 -7 6 2.1 5.7
-9 -7 -6 1.7 6.4
-9 -7 -6 -7 6
-9 7 -6 10.1 6.3
9 7 6 1.9 13.1
-9 7 -6 9.3 5.5
10 -7 6 18.9 8
-10 -7 -6 -3.8 7.1
-10 7 -6 28.5 8.5
-10 7 -6 23.5 7.3
10 7 6 8.3 13.3
-10 -8 6 22 7.6
-10 8 6 25.9 8.3
10 8 -6 -24.4 13.9
-10 8 6 12.8 6.5
-9 -8 6 29.9 8.9
-9 8 6 17.6 6.6
-9 8 6 22.3 7.8
9 8 -6 16.5 15.7
8 -8 -6 7.4 7.8
-8 -8 6 7.3 6.9
8 8 -6 -0.9 12
-8 8 6 10.8 5.6
-8 8 6 2.9 5.5
7 -8 -6 -0.2 7.8
-7 -8 6 -0.8 6.6
-7 -8 6 -1.7 6.5
-7 8 6 9 6.4
-7 8 6 1.2 4.4
6 -8 -6 135.39 17.3
-6 -8 6 150.78 15.8
-6 -8 6 154.48 16.2
6 -8 -6 165.48 19.3
-6 8 6 148.19 15.2
5 -8 -6 27.2 9.5
-5 -8 6 39.7 9.5
-5 -8 6 35 8.7
5 -8 -6 38.2 10.8
-5 8 6 39.8 8.1
-4 -8 6 62.89 11
4 -8 -6 92.39 13.7
-4 -8 6 84.79 12
4 -8 -6 51.29 11.4
-4 8 6 74.69 10.4
3 -8 -6 108.69 14.9
-3 -8 6 123.59 14.3
3 -8 -6 95.89 14.4
-3 -8 6 101.39 13.3
-3 8 6 134.49 13.1
-2 -8 6 76.49 11.7
-2 -8 6 100.99 13.2
2 -8 -6 85.39 13.9
2 -8 -6 96.19 13.6
-2 8 6 88.69 10.9
-2 8 6 93.59 20.9
-1 -8 6 47.6 9.9
-1 -8 6 48.9 10.9
1 -8 -6 38.3 10.1
1 -8 -6 30.1 9.5
-1 8 6 58.49 8.8
-1 8 6 42.2 14.5
0 -8 -6 192.78 19
0 -8 6 205.68 17.4
0 -8 6 214.18 19.3
0 -8 -6 219.28 20.2
0 8 6 224.28 26.2
0 8 6 212.78 13.7
-1 -8 -6 5 6.7
1 -8 6 6.7 6.8
1 -8 6 7.7 7.3
-1 -8 -6 23.7 8.4
-1 8 -6 1.2 5.1
1 8 6 6.6 11.6
2 -8 6 3.9 7
-2 -8 -6 -0.4 6.5
2 -8 6 -5.2 5.5
-2 -8 -6 3.7 6.8
-2 8 -6 1.9 4.3
2 8 6 -5.5 10.7
3 -8 6 63.89 12.3
-3 -8 -6 60.19 11.6
-3 -8 -6 60.79 11.5
3 -8 6 67.79 11.9
-3 8 -6 70.79 10.4
3 8 6 85.59 19.7
4 -8 6 5.7 7.8
4 -8 6 2.9 7.2
-4 -8 -6 13 7.5
-4 -8 -6 8.8 8.2
4 8 6 1.1 12.5
-4 8 -6 6.4 5.5
-5 -8 -6 28.1 9.7
5 -8 6 9.3 8.1
5 -8 6 20 9.2
-5 -8 -6 27.3 9.7
5 8 6 53.89 17.8
-5 8 -6 29.6 8.6
-6 -8 -6 -4.5 6.7
-6 -8 -6 0.9 7.1
6 -8 6 8.9 8.7
6 -8 6 0.3 7.9
6 8 6 7.9 13.8
-6 8 -6 2.7 5.5
7 -8 6 2.1 8.3
-7 -8 -6 6.3 8.1
-7 -8 -6 -8.1 6.5
7 8 6 30.9 17.7
-7 8 -6 7.9 6.6
-8 -8 -6 5.7 7.4
-8 -8 -6 -1.9 6.7
8 -8 6 7.9 9.1
-8 8 -6 3 6.7
8 8 6 8 13.6
-7 -9 6 19.7 9.4
-7 -9 6 19.7 8.7
7 -9 -6 11.7 9.3
-7 9 6 15.3 7
6 -9 -6 -0.5 8
-6 -9 6 -1.4 7.5
-6 -9 6 -2.2 6.9
-6 9 6 -3.8 3.9
-5 -9 6 53.09 12
-5 -9 6 56.19 11.4
5 -9 -6 68.79 14.5
5 -9 -6 61.49 12.8
-5 9 6 55.59 9.9
-4 -9 6 -4.6 7.8
4 -9 -6 17.9 9.7
-4 -9 6 11 8.1
4 -9 -6 18.4 9.6
-4 9 6 12.1 5.6
-3 -9 6 26.7 10.1
-3 -9 6 21.8 9.4
3 -9 -6 13.8 9.3
3 -9 -6 22.5 9.9
-3 9 6 21.5 7.1
2 -9 -6 9 8.4
-2 -9 6 -1.3 7.3
2 -9 -6 12.7 9.2
-2 -9 6 5.4 7.8
-2 9 6 8.4 5.4
-1 -9 6 105.69 15
-1 -9 6 138.59 17.1
1 -9 -6 96.09 15.4
1 -9 -6 105.49 16.8
0 -9 -6 12.8 9
0 -9 -6 10 8.2
0 -9 6 13.4 8.9
0 -9 6 13.4 8.7
0 9 6 11.6 13.1
1 -9 6 26.5 10.2
-1 -9 -6 32.5 10.7
1 -9 6 14.7 9.3
-1 -9 -6 27.6 10.3
1 9 6 28.4 14.9
2 -9 6 12.8 9.4
2 -9 6 14.4 9
-2 -9 -6 5.2 8.1
-2 -9 -6 20.1 9.6
2 9 6 40.6 16.4
-3 -9 -6 13.4 8.6
3 -9 6 13.4 8.8
3 -9 6 2.9 9.1
-3 -9 -6 8.7 7.9
3 9 6 6.9 12.2
-3 9 -6 12.7 6.6
4 -9 6 21.3 10.6
4 -9 6 15.8 10.1
-4 -9 -6 14.8 9.4
-4 -9 -6 14.1 8.6
4 9 6 22.9 15
-4 9 -6 29.8 8.8
-5 -9 -6 15.3 8.8
5 -9 6 5.1 9.1
5 -9 6 5.2 9
-5 -9 -6 15.2 9.1
5 9 6 14.5 13.4
-5 9 -6 5.8 6
6 -9 6 46.7 13.6
-6 -9 -6 72.49 13
6 -9 6 72.39 14.3
-6 -9 -6 79.89 13.9
6 9 6 81.29 22.9
-6 9 -6 99.09 14.6
2 -10 -6 39.4 12.9
-2 -10 6 14.9 9.3
2 -10 -6 53.69 13.6
-2 -10 6 16.3 10.5
1 -10 -6 -2.6 8.4
-1 -10 6 2.9 8.8
1 -10 -6 6.4 9
-1 -10 6 4.9 8.5
0 -10 6 117.69 17.5
0 -10 6 99.59 16.7
0 -10 -6 114.39 18.6
0 -10 -6 92.19 16.3
1 10 6 34.3 18.6
16 0 -7 2.3 10.6
16 0 -7 -5 4.3
-16 0 7 -2.3 4.7
16 0 -7 -4.3 12
15 0 -7 -3.5 8
15 0 -7 4.3 4.7
15 0 -7 -2.8 10.4
14 0 -7 0 8
14 0 -7 1.4 4.1
14 0 -7 -14.4 8.4
13 0 -7 7.6 9.2
13 0 -7 -5 6.5
13 0 -7 -5 3
12 0 -7 4.8 8.1
12 0 -7 -3.2 5.8
12 0 -7 -0.7 3.8
11 0 -7 3.3 6.6
11 0 -7 -1.7 3.5
11 0 -7 -0.3 7.2
10 0 -7 0 3
10 0 -7 -4.9 5.5
10 0 -7 7.8 6.6
9 0 -7 -2 5
-9 0 7 -0.1 1.4
9 0 -7 -3.8 2.5
9 0 -7 -0.1 5.1
7 0 -7 0.2 2
7 0 -7 0.4 3.5
7 0 -7 3 4.3
-7 0 7 1.2 1.2
6 0 -7 2.7 3.9
6 0 -7 2.3 3
-6 0 7 -1.5 1.1
6 0 -7 5.2 2.4
5 0 -7 -1.6 3.4
5 0 -7 -1.7 3.9
5 0 -7 -0.5 2.4
-5 0 7 0.8 1.4
4 0 -7 -3.6 2.6
4 0 -7 2.8 2.3
-4 0 7 1.2 1.4
4 0 -7 -1.7 3.6
3 0 -7 -0.7 1.4
3 0 -7 1.9 1.8
-3 0 7 0 1
3 0 -7 -2.4 2.9
2 0 -7 1.8 1.6
2 0 -7 -0.9 1.5
-2 0 7 0.8 1.2
1 0 -7 0.9 1.7
-1 0 7 -0.5 1.2
1 0 -7 1.2 1.5
0 0 7 0.4 1.4
0 0 -7 -1.4 1.7
0 0 -7 1 1.4
-1 0 -7 4.5 2.3
-1 0 -7 -0.7 1.3
1 0 7 1 1.5
-2 0 -7 0.2 2.2
2 0 7 2.1 2.1
-2 0 -7 -2.7 1.6
-2 0 -7 -0.7 2.1
3 0 7 1.4 2.7
-3 0 -7 4.8 3.6
-3 0 -7 -0.1 3
3 0 7 -1 3.6
-3 0 -7 5.2 3.1
-4 0 -7 3.8 3.1
-4 0 -7 4.2 2.8
4 0 7 6.5 9.9
4 0 7 -1.8 2.2
-4 0 -7 -1 2.3
4 0 7 2.3 3.6
-5 0 -7 0.6 2.2
5 0 7 0.4 8.4
5 0 7 1.1 3.2
-5 0 -7 -0.3 2.2
5 0 7 -2.3 2.2
-5 0 -7 -1.6 2.5
-6 0 -7 -0.5 2.4
-6 0 -7 1 2.4
-6 0 -7 3.6 2.9
6 0 7 12.2 8.1
6 0 7 4 3.6
6 0 7 8.6 3.5
7 0 7 -1.6 2.9
-7 0 -7 4.1 2.9
7 0 7 -2.9 3.3
-7 0 -7 -0.2 2.9
7 0 7 1.2 7.2
-7 0 -7 2 2.9
8 0 7 -6.2 7.3
-8 0 -7 -0.5 3.3
8 0 7 -2.3 3.4
-8 0 -7 -4.3 3
-8 0 -7 -1.5 2.9
-9 0 -7 4.1 4.1
9 0 7 29.5 10.6
9 0 7 18.9 8.7
-9 0 -7 11.1 4.9
-9 0 -7 3.8 3.7
9 0 7 -3.1 4.3
-10 0 -7 0.6 3.8
10 0 7 -1.7 3.9
10 0 7 8.6 8.1
-10 0 -7 -5.3 3.2
-10 0 -7 2.7 4
-11 0 -7 3.5 4.5
-11 0 -7 -1.4 3.4
11 0 7 0 3.9
11 0 7 -10 7
-11 0 -7 2.1 4.4
-12 0 -7 7 4.6
12 0 7 10.5 9.9
-12 0 -7 0.4 3.7
12 0 7 -2.2 4.1
-12 0 -7 -1.1 4.1
-13 0 -7 6 4.7
-13 0 -7 -2.7 4.6
13 0 7 -7.8 9.6
-13 0 -7 -0.1 4.5
13 0 7 -7 4.1
14 0 7 -11.7 4.1
-14 0 -7 -7.2 4.8
-14 0 -7 2.6 4.8
-14 0 -7 1.3 4.7
16 -1 -7 -9.1 8.7
16 -1 -7 -13 11.1
16 -1 -7 7.5 5.9
16 1 -7 -1.9 4.4
16 1 -7 -8.4 10
16 1 -7 -14.1 11.4
15 -1 -7 74.59 15.8
15 -1 -7 79.99 11.6
15 -1 -7 71.19 13.7
-15 -1 7 106.99 13.6
15 1 -7 64.29 15.8
15 1 -7 58.69 10
15 1 -7 84.39 15.9
14 -1 -7 66.39 13.2
14 -1 -7 62.79 13.8
14 -1 -7 47.8 8.7
14 1 -7 67.49 13.8
14 1 -7 44.8 14.1
14 1 -7 56.19 9.5
13 -1 -7 5.1 7.8
13 -1 -7 12 5.1
13 -1 -7 14.6 9.9
13 1 -7 11.4 8.5
13 1 -7 20.9 10.5
13 1 -7 2.8 4.4
12 -1 -7 40.5 10.6
12 -1 -7 40 10
12 -1 -7 49.1 7.6
12 1 -7 55.49 11.7
12 1 -7 42.4 7.3
12 1 -7 53.99 12.4
11 -1 -7 239.38 14.8
11 -1 -7 224.48 18.8
11 -1 -7 243.28 17.7
-11 1 7 219.18 10.4
11 1 -7 219.88 14
11 1 -7 246.78 20.8
11 1 -7 239.08 18.5
10 -1 -7 79.49 10.6
10 -1 -7 100.59 10
10 -1 -7 78.69 11.4
10 1 -7 70.29 12.4
10 1 -7 69.89 8
10 1 -7 80.39 11.4
-10 1 7 83.79 6
9 -1 -7 10.9 4.1
9 -1 -7 18.6 6.6
9 -1 -7 9.8 5.5
9 1 -7 15.2 7.3
-9 1 7 18.6 3.1
9 1 -7 21.6 6.7
9 1 -7 13.3 4
8 -1 -7 37.5 5.6
-8 -1 7 27.3 2.1
8 -1 -7 28 5.9
8 -1 -7 30.9 6.7
8 1 -7 24.7 6.2
8 1 -7 26.5 7.2
-8 1 7 24.8 3.4
8 1 -7 20.7 4.4
7 -1 -7 535.15 21.8
7 -1 -7 534.15 20
7 -1 -7 503.85 22.1
-7 -1 7 512.55 14.8
7 1 -7 498.05 21.7
-7 1 7 509.15 16.9
7 1 -7 556.24 24.3
7 1 -7 507.95 19.6
6 -1 -7 103.59 8.3
6 -1 -7 82.59 8
-6 -1 7 86.49 4
6 -1 -7 84.09 7
6 -1 -7 90.49 9.1
6 1 -7 79.09 6.5
6 1 -7 82.79 9.2
6 1 -7 88.39 8.7
-6 1 7 80.09 5.1
-6 1 7 83.79 5.2
5 -1 -7 29.3 3.9
5 -1 -7 18.5 5.2
5 -1 -7 27.8 4.2
5 -1 -7 18 4.3
-5 -1 7 31 2.9
5 1 -7 31.6 6.3
-5 1 7 23.9 3.2
5 1 -7 28.7 4.5
5 1 -7 22.3 4.5
-4 -1 7 1.3 1.6
4 -1 -7 5.5 4.4
4 -1 -7 3.6 2.9
4 -1 -7 1.5 2.6
4 1 -7 0.5 4
4 1 -7 0.7 2.5
4 1 -7 0.6 3
-4 1 7 0.7 1.9
-3 -1 7 62.69 4.1
3 -1 -7 81.79 5.8
3 -1 -7 59.19 4.9
3 1 -7 63.89 4
-3 1 7 75.09 4.4
3 1 -7 60.79 6.8
-3 1 7 74.89 4.8
3 1 -7 65.59 5.7
-2 -1 7 372.36 13
2 -1 -7 371.76 14.6
2 -1 -7 383.36 13.8
2 1 -7 374.06 12.8
-2 1 7 382.66 13.3
2 1 -7 428.16 16.5
2 1 -7 382.56 13
1 -1 -7 104.59 5.9
-1 -1 7 105.49 5.9
1 -1 -7 103.39 6.8
1 1 -7 108.89 5.5
-1 1 7 109.69 5.8
1 1 -7 99.69 5.8
0 -1 -7 107.49 6.1
0 -1 -7 104.79 7
0 -1 7 104.59 6.1
0 1 -7 111.99 5.8
0 1 -7 104.49 6.3
0 1 7 112.39 6.1
-1 -1 -7 112.39 6.3
1 -1 7 113.39 6.8
-1 -1 -7 93.99 7.1
-1 1 -7 109.19 6
-1 1 -7 109.69 6.9
1 1 7 110.49 6.3
-2 -1 -7 33.3 4.9
-2 -1 -7 26.5 4.8
-2 -1 -7 23.5 3.6
2 -1 7 32 4.5
-2 1 -7 30.3 4.6
2 1 7 23.2 3.7
-2 1 -7 42.1 4.8
-2 1 -7 25.9 4.2
-3 -1 -7 23.9 4
-3 -1 -7 16.8 3.9
3 -1 7 14 4.2
3 -1 7 19.3 4.3
-3 -1 -7 17.4 4.3
3 1 7 13.4 4.2
3 1 7 32.9 12.9
-3 1 -7 10.5 3.2
-3 1 -7 11.7 3.3
-3 1 -7 16.4 4.1
3 1 7 14.6 3.3
4 -1 7 -0.2 2.7
4 -1 7 -1.4 3.8
-4 -1 -7 6.8 2.9
-4 -1 -7 2.5 2.8
-4 -1 -7 -0.5 2.5
-4 1 -7 -0.1 2.2
4 1 7 4.3 3.3
-4 1 -7 4.5 3
-4 1 -7 2.2 2.5
4 1 7 6.7 2.5
4 1 7 12.8 9.9
5 -1 7 132.29 9.1
5 -1 7 140.89 15.1
-5 -1 -7 147.19 8.6
-5 -1 -7 119.79 8.9
-5 -1 -7 133.29 8.4
5 -1 7 140.69 10.2
5 1 7 129.39 16.6
5 1 7 136.49 9.3
5 1 7 123.19 7.7
-5 1 -7 139.39 8.6
-5 1 -7 130.49 8.1
-5 1 -7 129.19 9.1
-6 -1 -7 7.9 3.4
-6 -1 -7 5.3 2.9
6 -1 7 10.7 7.3
6 -1 7 9.3 3.9
6 -1 7 5.6 4.2
-6 -1 -7 8.6 3.7
6 1 7 3.2 8.3
-6 1 -7 12.8 3.9
6 1 7 3.5 2.8
6 1 7 5.6 3.5
-6 1 -7 9.1 3.3
-6 1 -7 12.2 3.4
7 -1 7 21.8 5.3
7 -1 7 24.1 8.1
7 -1 7 19.9 5
-7 -1 -7 26.3 5
-7 -1 -7 23.8 5.6
-7 1 -7 28.7 5.4
-7 1 -7 19.5 4.4
-7 1 -7 27.7 5.6
7 1 7 18.1 10.2
7 1 7 19.8 5.1
8 -1 7 19.3 7.5
8 -1 7 12 5.3
-8 -1 -7 19.5 5.4
-8 -1 -7 14.7 5.1
-8 -1 -7 10.1 4.3
-8 1 -7 24.7 5.5
-8 1 -7 17.7 5.4
8 1 7 6.9 4.3
8 1 7 10.1 10.2
-8 1 -7 15.5 4.5
9 -1 7 21.5 8.6
-9 -1 -7 27.9 6.5
-9 -1 -7 19 6.1
-9 -1 -7 24 5.8
9 -1 7 23.4 6.5
-9 1 -7 30.3 5.8
-9 1 -7 24.1 6.1
9 1 7 14.6 5.2
-9 1 -7 21.6 6
9 1 7 37.4 12.3
-10 -1 -7 -0.9 4.2
-10 -1 -7 -5 3.9
10 -1 7 -0.7 4.1
-10 -1 -7 -6.2 3.3
10 -1 7 1.9 7
-10 1 -7 -3.3 3
10 1 7 3.8 3.9
-10 1 -7 5.9 4.3
-10 1 -7 0.4 3.7
10 1 7 5.4 8.9
-11 -1 -7 -0.5 3.9
11 -1 7 1.2 7.8
-11 -1 -7 1.5 3.6
-11 -1 -7 0.9 4.1
11 -1 7 -6.6 2.9
-11 1 -7 -0.9 4.3
11 1 7 -0.8 3.8
-11 1 -7 -2.8 3.6
-12 -1 -7 8.7 5.4
-12 -1 -7 4.8 4.9
12 -1 7 12.6 5.9
12 -1 7 15 10
-12 -1 -7 9.5 4.9
-12 1 -7 12.5 5.9
-12 1 -7 19 6.3
12 1 7 8.5 5
13 -1 7 -13 8.3
13 -1 7 -2 5.4
-13 -1 -7 -1.8 5.2
-13 -1 -7 -1.9 4.3
-13 -1 -7 0.2 4.8
13 1 7 -1 4.9
-13 1 -7 0.2 4.7
-13 1 -7 7.5 5.5
-14 -1 -7 15.8 7.2
14 -1 7 19.6 11.4
-14 -1 -7 13.1 5.6
14 -1 7 10.2 6.5
-14 1 -7 10.2 6.7
-14 1 -7 8.3 5.5
14 1 7 21 7.9
16 -2 -7 36.7 8.7
16 -2 -7 60.39 14.3
16 2 -7 51.69 14.5
16 2 -7 43 16.8
16 2 -7 39.3 9
15 -2 -7 113.19 13.8
15 -2 -7 106.69 15.7
15 2 -7 84.09 16.4
15 2 -7 114.09 20
15 2 -7 98.89 12
14 -2 -7 6.5 8.1
14 -2 -7 10.1 6
14 2 -7 9.3 9.3
14 2 -7 -9.8 9.8
14 2 -7 5.3 5
13 -2 -7 166.28 13.9
13 -2 -7 175.48 17.3
13 -2 -7 139.89 17.2
13 2 -7 177.18 13.3
13 2 -7 191.78 19.9
13 2 -7 152.68 19.9
12 -2 -7 131.09 13.1
12 -2 -7 99.59 13.4
12 -2 -7 75.09 12.1
12 2 -7 76.29 13.6
12 2 -7 77.69 9.4
-12 2 7 92.59 7.5
12 2 -7 91.29 15.6
11 -2 -7 78.39 11
11 -2 -7 66.29 8.8
11 -2 -7 79.49 11.8
11 2 -7 66.49 9.1
11 2 -7 76.19 13.6
-11 2 7 76.69 7.2
11 2 -7 72.79 12.1
10 -2 -7 179.78 12.5
10 -2 -7 178.18 15.6
10 -2 -7 170.48 14.6
10 2 -7 147.69 11.3
10 2 -7 160.78 15.7
10 2 -7 160.78 16.9
-10 2 7 181.78 9.7
9 -2 -7 202.68 12.4
9 -2 -7 209.58 14.4
9 -2 -7 216.08 15
-9 2 7 192.98 9.9
9 2 -7 155.78 15.8
9 2 -7 198.98 11.9
9 2 -7 167.98 15.3
8 -2 -7 232.58 14.6
8 -2 -7 225.38 14.3
8 -2 -7 239.28 12.8
-8 2 7 240.58 10.7
8 2 -7 242.18 12.5
8 2 -7 231.08 17.4
8 2 -7 239.38 15.9
-7 -2 7 399.06 12
7 -2 -7 396.46 18.5
7 -2 -7 442.16 19.4
7 -2 -7 431.66 17.3
7 -2 -7 433.36 16
7 2 -7 395.66 19.3
7 2 -7 420.96 17
7 2 -7 404.66 21.5
-7 2 7 406.26 15.3
6 -2 -7 266.67 14.1
-6 -2 7 288.77 9.3
6 -2 -7 308.37 15.1
6 -2 -7 280.77 12.9
-6 -2 7 281.47 10.2
6 -2 -7 290.07 12.8
6 2 -7 280.97 14.7
-6 2 7 286.37 11.6
6 2 -7 283.57 13
6 2 -7 290.37 16.9
-6 2 7 305.47 12
5 -2 -7 36.3 5.2
-5 -2 7 42.3 3.4
5 -2 -7 29.2 5.6
5 -2 -7 36.1 4.8
-5 -2 7 37 3.2
5 2 -7 36.4 6.5
-5 2 7 35 4.3
-5 2 7 32.5 4.1
5 2 -7 22.8 3.9
5 2 -7 28.9 5.2
4 -2 -7 325.37 14.9
-4 -2 7 323.97 10.9
-4 -2 7 312.97 11.1
4 -2 -7 336.37 13
4 -2 -7 279.67 13.7
-4 2 7 307.77 12.3
4 2 -7 327.57 14.3
4 2 -7 319.07 16.1
4 2 -7 341.57 13.6
3 -2 -7 25 3.9
-3 -2 7 23.6 3.6
3 -2 -7 19.7 4.9
-3 -2 7 27.9 3.7
3 2 -7 20.2 4.1
3 2 -7 23.9 2.8
-3 2 7 26 3.9
3 2 -7 28.7 5.8
-2 -2 7 4.9 2.4
2 -2 -7 4.3 3.3
-2 -2 7 2.2 2.2
2 -2 -7 3.1 2.2
-2 2 7 3.8 2
2 2 -7 3.7 1.8
2 2 -7 2 2
2 2 -7 1.4 3.7
-2 2 7 6.5 2.4
2 2 -7 3.7 2.6
-1 -2 7 44.2 4.7
-1 -2 7 44.4 5
1 -2 -7 39.9 4.5
1 -2 -7 54.49 6.5
-1 2 7 47.9 5
-1 2 7 45.8 4.5
1 2 -7 47.9 4.7
1 2 -7 45.3 3.7
1 2 -7 61.69 6.7
0 -2 -7 67.99 5.4
0 -2 -7 72.19 7.2
0 -2 7 78.49 6.1
0 -2 7 74.99 6.1
0 -2 -7 73.09 7.3
0 2 7 64.89 5.3
0 2 -7 84.09 6
0 2 -7 69.79 4.9
-1 -2 -7 171.98 10.8
1 -2 7 199.58 10.2
-1 -2 -7 189.38 10.6
1 -2 7 180.68 9.6
-1 -2 -7 176.68 8.7
-1 2 -7 189.38 9.7
1 2 7 164.98 8.8
-1 2 -7 190.08 8.6
-2 -2 -7 85.89 6.2
2 -2 7 86.09 7.7
-2 -2 -7 89.49 8.7
2 -2 7 76.69 7.2
-2 -2 -7 97.39 7.6
2 2 7 86.99 6.1
2 2 7 117.79 18.8
-2 2 -7 91.69 7.1
-2 2 -7 87.39 6
3 -2 7 18.3 4.4
-3 -2 -7 19 4.6
-3 -2 -7 14.3 3.1
-3 -2 -7 14.8 4
3 -2 7 18.5 5.1
3 -2 7 14 4.1
3 2 7 9.7 12.1
3 2 7 15.8 3.3
-3 2 -7 15.9 3.7
3 2 7 13 3.8
-3 2 -7 15 3.4
-4 -2 -7 215.88 10.8
4 -2 7 227.58 12
-4 -2 -7 251.87 13.1
4 -2 7 254.97 12.9
4 -2 7 234.68 13.1
-4 -2 -7 225.38 11.7
4 2 7 242.18 10.8
4 2 7 235.08 21.5
-4 2 -7 248.08 11.5
4 2 7 251.77 11.7
-4 2 -7 268.47 12.7
5 -2 7 272.07 14
-5 -2 -7 349.47 14.5
-5 -2 -7 312.37 13.4
5 -2 7 301.87 14.8
5 -2 7 304.17 15.5
5 -2 7 281.97 18.6
-5 -2 -7 338.77 15.6
5 2 7 300.27 12.5
5 2 7 308.47 14
5 2 7 329.57 24
-5 2 -7 292.97 13.5
-5 2 -7 303.47 14.5
-6 -2 -7 17.6 4.9
-6 -2 -7 18.7 4.4
6 -2 7 25.1 5.5
6 -2 7 21.7 5.3
6 -2 7 19.6 5.1
-6 -2 -7 26 5
-6 2 -7 18.1 4.7
6 2 7 34.4 12.4
6 2 7 27.2 5
-6 2 -7 25.1 5.1
6 2 7 24.2 4.2
7 -2 7 136.99 10.3
-7 -2 -7 140.59 9.6
-7 -2 -7 144.59 9.6
-7 -2 -7 151.18 11
7 -2 7 146.79 11.6
-7 2 -7 147.09 10.4
-7 2 -7 135.49 10.1
7 2 7 117.69 17.9
7 2 7 141.09 10.1
8 -2 7 194.78 14.1
8 -2 7 205.78 13.3
-8 -2 -7 194.18 11.8
-8 -2 -7 231.88 13.7
8 -2 7 204.28 15.4
-8 -2 -7 217.08 12.5
8 2 7 252.77 22.6
8 2 7 219.98 13
-8 2 -7 210.78 13.2
9 -2 7 62.49 9
-9 -2 -7 70.09 8.5
-9 -2 -7 61.69 8.5
-9 -2 -7 68.69 8.2
9 -2 7 66.39 10.5
9 2 7 63.29 8.4
9 2 7 56.09 14.9
-9 2 -7 54.79 8.3
-9 2 -7 66.59 8.9
-10 -2 -7 66.19 9
10 -2 7 54.79 9
-10 -2 -7 75.69 9.2
10 -2 7 58.29 10.7
-10 -2 -7 72.39 8.7
10 2 7 81.79 16.2
-10 2 -7 62.49 9.1
-10 2 -7 70.59 9.3
10 2 7 73.49 9.3
-11 -2 -7 117.09 11.2
11 -2 7 117.19 13
-11 -2 -7 131.89 11
-11 -2 -7 155.88 12.5
11 2 7 151.58 14
-11 2 -7 120.49 12.1
11 2 7 168.28 22.1
-11 2 -7 120.49 12.5
-12 -2 -7 -2.1 3.7
-12 -2 -7 4.2 4.6
12 -2 7 3.7 5.3
-12 -2 -7 1.9 5
-12 2 -7 1.4 5.4
-12 2 -7 -6.4 3.5
12 2 7 2 5
13 -2 7 19.8 7
-13 -2 -7 31.3 6.8
-13 -2 -7 22.6 6.9
13 2 7 24.1 7.2
-13 2 -7 26 7.6
-13 2 -7 33.1 8
-14 -2 -7 66.39 10.4
14 -2 7 60.79 11.1
-14 -2 -7 79.49 9.9
14 2 7 71.79 11.7
-14 2 -7 54.19 10.1
-14 2 -7 61.49 10.2
16 3 -7 0 14.6
15 -3 -7 -2.9 4.8
15 -3 -7 13.6 9.7
15 3 -7 9.9 10.8
15 3 -7 1.6 5.1
15 3 -7 -19.6 12.1
14 -3 -7 -1.5 7.8
14 -3 -7 0.4 5.2
14 3 -7 -8.2 11.2
14 3 -7 13.5 10.9
-14 3 7 8 4.1
14 3 -7 -0.4 4.5
13 -3 -7 18.7 8.3
13 -3 -7 27.9 7.2
-13 3 7 25.4 5.4
13 3 -7 14.6 5.4
13 3 -7 13.6 9.8
13 3 -7 6.9 11
12 -3 -7 10.9 5.4
12 -3 -7 22.6 7.9
12 3 -7 10.5 8.8
12 3 -7 12.8 10.1
-12 3 7 9 3.8
12 3 -7 17.7 5.5
11 -3 -7 -2 3.9
11 -3 -7 4.6 5.6
11 3 -7 2.3 3.6
11 3 -7 -6.7 7.2
11 3 -7 -12.6 7.6
-11 3 7 -2.5 2.7
10 -3 -7 15.1 7.1
10 -3 -7 28.8 6.6
-10 3 7 41.9 6.2
10 3 -7 25.3 9.1
10 3 -7 30 10.2
10 3 -7 23.8 5.7
9 -3 -7 59.59 8.9
9 -3 -7 60.09 9.1
9 -3 -7 58.49 7.6
9 3 -7 51.89 11
-9 3 7 66.79 7.2
9 3 -7 58.39 9.9
9 3 -7 55.09 7.2
8 -3 -7 137.99 11.3
8 -3 -7 125.39 9.6
8 -3 -7 131.89 11.8
-8 -3 7 128.39 5.4
8 3 -7 130.09 13.2
8 3 -7 142.59 15.3
-8 3 7 142.19 8.8
8 3 -7 136.49 9.5
7 -3 -7 136.29 10.5
7 -3 -7 122.79 8.8
-7 -3 7 108.89 5.3
7 -3 -7 124.19 11
-7 -3 7 117.19 5.6
7 -3 -7 139.49 9.4
-7 3 7 119.79 8
7 3 -7 115.99 8.6
7 3 -7 123.09 13
7 3 -7 120.39 11.9
-6 -3 7 10.3 2.3
-6 -3 7 10.8 2.4
6 -3 -7 7.9 4.1
6 -3 -7 7.2 3.6
6 -3 -7 9.2 3
6 -3 -7 9.5 4.4
-6 3 7 7.8 2.8
6 3 -7 13.3 3.3
-6 3 7 11.6 3.2
6 3 -7 2.8 5.1
6 3 -7 19.2 5.1
5 -3 -7 43.5 6.4
-5 -3 7 47.7 4.4
-5 -3 7 43.9 4.2
5 -3 -7 55.49 5.6
5 -3 -7 56.89 6.8
-5 3 7 51.89 5.6
5 3 -7 39.4 4.9
5 3 -7 39.2 7.2
5 3 -7 38.1 6.1
-5 3 7 51.99 5.7
4 -3 -7 346.27 16.2
-4 -3 7 357.06 13.3
4 -3 -7 388.16 14.3
-4 -3 7 353.26 13.1
4 3 -7 391.06 16
-4 3 7 357.06 14.5
4 3 -7 407.56 18.7
3 -3 -7 171.78 10.8
3 -3 -7 166.58 10.7
3 -3 -7 163.38 8
-3 -3 7 152.68 7.9
-3 -3 7 162.68 8.4
-3 3 7 151.08 8.5
3 3 -7 156.48 10.9
3 3 -7 174.78 9.3
3 3 -7 153.98 6.7
2 -3 -7 495.05 16.9
2 -3 -7 528.15 20.2
2 -3 -7 523.75 20.8
-2 -3 7 490.75 18.1
-2 -3 7 500.95 17.9
2 3 -7 511.35 20.5
2 3 -7 494.95 16.7
2 3 -7 514.65 17.3
2 3 -7 533.75 15.6
-2 3 7 528.75 18.3
-1 -3 7 24 4.2
-1 -3 7 20.2 4.2
1 -3 -7 15.8 4.8
1 -3 -7 15.2 4.2
1 3 -7 14.1 2.4
-1 3 7 16 3.3
1 3 -7 16.9 3.2
-1 3 7 17.9 3.2
1 3 -7 8.2 3.8
0 -3 -7 467.75 16.8
0 -3 7 505.75 18.5
0 -3 7 457.05 17.5
0 -3 -7 492.15 19.9
0 -3 -7 521.45 19.5
0 3 7 472.15 16.4
0 3 7 442.96 16.9
0 3 7 430.36 30.2
0 3 -7 464.35 17.2
0 3 -7 467.75 15.5
-1 -3 -7 140.59 10.3
1 -3 7 155.48 9.6
-1 -3 -7 161.88 10.3
1 -3 7 151.28 9.2
-1 -3 -7 155.88 8.2
-1 3 -7 155.48 7.4
1 3 7 163.78 22.3
-1 3 -7 137.59 8.5
1 3 7 164.78 8.6
1 3 7 137.19 7.6
2 -3 7 63.59 7.2
-2 -3 -7 64.99 5.4
-2 -3 -7 78.09 8
2 -3 7 78.59 7.9
-2 -3 -7 74.99 8
2 -3 7 86.19 8.3
2 3 7 61.59 5.8
2 3 7 65.89 14.6
-2 3 -7 76.89 5.5
-2 3 -7 80.49 6.6
-3 -3 -7 476.85 19.5
3 -3 7 491.35 19.7
-3 -3 -7 479.25 20.8
3 -3 7 495.05 20.4
-3 -3 -7 489.75 17.9
3 -3 7 542.55 20.8
3 3 7 519.15 31.1
3 3 7 502.05 17.7
-3 3 -7 506.85 18.1
3 3 7 502.35 18
-3 3 -7 503.05 19.4
-4 -3 -7 -2.3 3.3
4 -3 7 -0.1 3.4
4 -3 7 0.6 3.5
-4 -3 -7 5.4 3.5
-4 -3 -7 1.2 2.3
4 -3 7 4.4 4
-4 3 -7 5.1 3
4 3 7 2.6 2.6
4 3 7 4.6 2.5
4 3 7 19.7 12.1
-4 3 -7 3.5 2.9
-5 -3 -7 47.5 7.3
-5 -3 -7 65.89 7.8
5 -3 7 53.89 7.5
-5 -3 -7 51.19 6
5 -3 7 58.49 8.1
5 -3 7 45.7 7
5 3 7 50.29 5.8
-5 3 -7 44.6 6.5
5 3 7 60.09 5.8
5 3 7 54.09 14.2
-5 3 -7 44.3 5.8
-6 -3 -7 75.39 8.5
-6 -3 -7 66.99 6.9
6 -3 7 61.09 8.4
6 -3 7 58.89 8
-6 -3 -7 68.99 8.7
6 -3 7 52.69 8.1
-6 3 -7 73.79 8
6 3 7 53.99 15.9
6 3 7 44.4 5.7
-6 3 -7 62.49 8.1
-7 -3 -7 119.39 11.6
7 -3 7 97.49 10.4
-7 -3 -7 88.19 9.4
7 -3 7 124.79 11.9
-7 -3 -7 102.79 8.3
7 3 7 102.79 19.3
7 3 7 119.89 8.9
-7 3 -7 90.49 10
-7 3 -7 122.69 11.2
8 -3 7 44.5 8.2
-8 -3 -7 54.29 7.4
-8 -3 -7 62.19 9
-8 -3 -7 51.69 7.8
8 -3 7 74.39 9.7
8 3 7 48.4 7
8 3 7 54.69 15.6
-8 3 -7 72.19 9.5
-8 3 -7 47.5 7.7
-9 -3 -7 366.76 17.2
-9 -3 -7 409.56 19.6
-9 -3 -7 351.26 17.3
9 -3 7 343.97 19.6
-9 3 -7 367.66 18.6
9 3 7 347.07 28.6
-9 3 -7 387.66 19.1
9 3 7 340.77 17.4
10 -3 7 96.99 12
-10 -3 -7 87.49 9.7
-10 -3 -7 87.29 9.6
-10 -3 -7 77.49 9.8
-10 3 -7 63.09 9.3
10 3 7 84.49 9.6
-10 3 -7 88.99 10.6
10 3 7 104.69 19.5
-11 -3 -7 121.89 11.7
-11 -3 -7 136.39 12.3
-11 -3 -7 122.09 12.4
11 -3 7 123.09 13.8
-11 3 -7 112.99 12.1
-11 3 -7 125.39 13.5
11 3 7 97.79 11.1
11 3 7 139.59 21.3
-12 -3 -7 5.4 5.7
-12 -3 -7 -2.5 4.5
12 -3 7 4.4 5.8
-12 3 -7 7.7 5.4
-12 3 -7 5.1 5.4
12 3 7 0.5 5.4
12 3 7 -0.3 9.9
-13 -3 -7 62.19 8.9
13 -3 7 70.89 12.1
-13 3 -7 49 9.1
-13 3 -7 59.69 10.7
13 3 7 71.09 22.9
-14 -3 -7 33 7.3
14 -3 7 27.3 9.3
-14 3 -7 34.4 8.7
-14 3 -7 47.4 10.2
15 -4 -7 38.4 12
15 -4 -7 40.5 9.2
-15 4 7 56.49 8.7
15 4 -7 50.89 16.8
15 4 -7 13.7 15.1
14 -4 -7 17.6 9.1
14 -4 -7 8 5.9
14 4 -7 12.6 13.2
14 4 -7 0.2 10.6
-14 4 7 16.3 5.3
14 4 -7 5.2 8.3
13 -4 -7 22.5 8.8
13 -4 -7 25.6 7.5
13 4 -7 28.4 12.2
13 4 -7 22 6.1
-13 4 7 25.3 6.1
13 4 -7 5.6 12.6
12 -4 -7 4.9 4.8
12 -4 -7 18.5 7.8
12 4 -7 15.3 11.8
12 4 -7 -0.5 3.8
-12 4 7 3.8 4
12 4 -7 7.8 9.2
11 -4 -7 -3.1 5.6
11 -4 -7 1.5 4.4
11 4 -7 0.5 9.1
11 4 -7 -5.8 7.1
-11 4 7 1.1 3.3
11 4 -7 -5.8 2.8
10 -4 -7 87.99 10.8
10 -4 -7 56.69 8.1
10 4 -7 87.39 15.2
-10 4 7 58.49 7.6
10 4 -7 64.39 8.1
10 4 -7 61.09 12
9 -4 -7 3.7 4.1
9 -4 -7 12.8 5.9
-9 4 7 -0.7 3.2
9 4 -7 4.5 8.7
9 4 -7 -10.5 6.2
9 4 -7 4.5 3.4
-8 -4 7 110.69 6.7
8 -4 -7 105.49 9.8
8 -4 -7 113.49 13.9
8 -4 -7 109.79 11.1
-8 4 7 107.59 8.9
8 4 -7 101.59 13.1
8 4 -7 113.79 9.1
8 4 -7 107.19 14.6
7 -4 -7 0.9 4.3
-7 -4 7 2.5 2.6
7 -4 -7 6 4.1
-7 -4 7 1.7 2.6
7 -4 -7 4 3.2
7 4 -7 -5.8 5
-7 4 7 2.4 2.8
7 4 -7 0.8 6
7 4 -7 7.8 3.4
-6 -4 7 102.09 6.9
6 -4 -7 99.09 9.2
-6 -4 7 103.39 6.6
6 -4 -7 96.69 10.3
6 -4 -7 120.79 10.9
6 -4 -7 96.19 7.7
6 4 -7 85.69 11.2
-6 4 7 97.89 8.1
6 4 -7 88.69 10.1
-6 4 7 95.09 7.9
5 -4 -7 51.89 7.4
5 -4 -7 40.2 5.3
-5 -4 7 47.9 5.5
-5 -4 7 56.19 5.8
5 -4 -7 50.19 7.1
5 -4 -7 49.1 6.4
5 4 -7 52.99 8.9
5 4 -7 43.2 7.2
-5 4 7 54.59 6.8
-5 4 7 42.6 5.9
4 -4 -7 31.6 4.1
-4 -4 7 31.7 4.8
4 -4 -7 27.7 5.7
-4 -4 7 34.7 4.8
4 -4 -7 26.8 6
4 4 -7 29.9 6.8
-4 4 7 29.3 4.6
4 4 -7 30.2 5.7
3 -4 -7 71.09 5.3
3 -4 -7 74.49 8.9
-3 -4 7 79.39 7.5
-3 -4 7 67.39 6.7
3 -4 -7 76.59 8.3
-3 4 7 75.99 6.3
3 4 -7 82.99 5.1
3 4 -7 71.49 8.7
3 4 -7 67.79 7
-2 -4 7 23 4.6
-2 -4 7 30.9 5.2
2 -4 -7 37.9 6.5
2 -4 -7 34.1 5.8
2 4 -7 27.2 3.8
-2 4 7 31.2 4.7
-2 4 7 14.4 13.1
2 4 -7 28.7 4.5
2 4 -7 28.3 5.4
2 4 -7 30.8 2.8
1 -4 -7 19 4.9
-1 -4 7 13.9 4.3
-1 -4 7 17 4.5
1 -4 -7 27.8 5.7
-1 4 7 17.2 3.4
-1 4 7 21.8 4.2
-1 4 7 9.1 13.2
1 4 -7 13.8 4.3
1 4 -7 24.4 2.9
1 4 -7 17.5 3.5
0 -4 7 104.39 9.7
0 -4 -7 114.59 10.6
0 -4 7 108.59 9.5
0 -4 -7 87.99 9.5
0 4 -7 96.39 7.1
0 4 7 114.99 19.8
0 4 -7 111.99 5.9
0 4 7 107.89 7.3
0 4 7 102.99 6.9
0 4 -7 103.39 8.3
-1 -4 -7 320.47 13.4
-1 -4 -7 342.47 17
1 -4 7 344.27 16.1
1 -4 7 355.46 15.9
-1 -4 -7 333.87 16.4
-1 4 -7 320.47 14.4
1 4 7 343.27 27.4
1 4 7 314.67 13.1
1 4 7 339.57 14
-1 4 -7 336.67 12.6
-2 -4 -7 29.6 4.4
2 -4 7 19.3 5.4
-2 -4 -7 18.8 5.3
2 -4 7 28.8 5.9
-2 -4 -7 18.4 5.3
2 -4 7 17.4 5
2 4 7 11 12.4
-2 4 -7 30.2 4.2
2 4 7 24 3.7
-2 4 -7 21.3 4.4
2 4 7 30.9 4.6
2 4 7 26.1 4.3
-3 -4 -7 66.89 8.5
-3 -4 -7 58.79 8.1
-3 -4 -7 71.89 6.7
3 4 7 61.39 6.2
-3 4 -7 64.59 7.3
3 4 7 70.99 5.5
3 4 7 77.99 16.2
-3 4 -7 66.49 6.6
-4 -4 -7 2.1 4
4 -4 7 4.8 4.7
-4 -4 -7 -3 2.5
-4 -4 -7 7.3 4.2
4 -4 7 3 4.5
4 -4 7 0.8 3.9
4 4 7 -12.1 11.5
-4 4 -7 4.8 2.9
-4 4 -7 2.8 3.5
4 4 7 2.2 2.7
5 -4 7 218.88 13.8
-5 -4 -7 212.48 10.8
-5 -4 -7 209.38 14.1
-5 -4 -7 201.68 12.9
5 -4 7 197.78 13.5
5 -4 7 225.48 14.4
-5 4 -7 194.88 11.3
-5 4 -7 224.48 13
5 4 7 264.57 27.9
-6 -4 -7 5.5 5.1
-6 -4 -7 9.3 3.8
-6 -4 -7 0.8 4.4
6 -4 7 4.5 5.1
6 -4 7 8.4 5.5
6 -4 7 4.8 5
6 4 7 13.2 13.4
-6 4 -7 8.1 4.3
-6 4 -7 4.3 3.4
-7 -4 -7 22.6 6.8
7 -4 7 12.9 5.8
7 -4 7 17.4 6.8
-7 -4 -7 24.8 5.4
-7 -4 -7 26.2 6.9
7 -4 7 10.9 9.6
-7 4 -7 15.1 5.2
-7 4 -7 19.7 5.7
7 4 7 16.2 13.8
-8 -4 -7 -0.2 4.4
8 -4 7 0.3 4.9
8 -4 7 5.9 5.6
-8 -4 -7 1.6 4.5
-8 -4 -7 5.9 3.8
-8 4 -7 0.7 3.8
-8 4 -7 -3 3.5
8 4 7 4.8 11.5
-9 -4 -7 151.58 10.8
9 -4 7 129.59 13.3
-9 -4 -7 133.09 12.4
-9 -4 -7 158.98 13.1
-9 4 -7 163.48 12.9
-9 4 -7 150.28 11.9
9 4 7 173.98 24
10 -4 7 8.4 6
-10 -4 -7 -1.1 4.3
-10 -4 -7 4 5.2
10 4 7 2.8 12.1
-10 4 -7 2.5 4.4
-10 4 -7 2.3 4.5
-11 -4 -7 17 6.7
-11 -4 -7 8.9 6.4
11 -4 7 25.3 8.3
-11 4 -7 15.1 6.3
-11 4 -7 13.1 6.3
11 4 7 22.2 13.8
12 -4 7 7.2 6.3
-12 -4 -7 -2.5 4.9
12 4 7 -11.1 11
-12 4 -7 2.6 5.5
-12 4 -7 7 5.7
13 -4 7 13 7.9
-13 -4 -7 4.7 5.2
-13 4 -7 2.3 5
-13 4 -7 6.3 5.9
13 4 7 20.5 13.1
14 -5 -7 31 8.3
-14 5 7 47.6 8.8
14 5 -7 27.2 15.7
14 5 -7 36.8 13.6
13 -5 -7 10 5.9
-13 5 7 9.8 5.3
13 5 -7 -1.9 12.8
13 5 -7 7.2 10.3
12 -5 -7 15.8 8
12 -5 -7 11.8 6.2
-12 5 7 18.2 6
12 5 -7 5.8 10.2
12 5 -7 5.5 12.9
11 -5 -7 0.8 4.4
11 -5 -7 -8.6 5.6
-11 5 7 4.4 4
11 5 -7 -17.6 7.3
11 5 -7 -6.5 9.4
10 -5 -7 14.6 5.4
10 -5 -7 9.6 6.1
10 5 -7 14 10.8
-10 5 7 9.3 4.5
10 5 -7 7.1 8.9
9 -5 -7 30.8 6.2
9 -5 -7 21.7 6.9
-9 -5 7 32.7 5.7
9 5 -7 31.5 10.7
9 5 -7 25 9.2
-9 5 7 44.2 7.2
8 -5 -7 66.89 8.2
8 -5 -7 68.39 9.4
-8 -5 7 100.69 7.9
8 -5 -7 76.09 10.4
8 5 -7 81.69 13.8
-8 5 7 80.59 9.4
7 -5 -7 94.99 10.3
7 -5 -7 112.99 9.3
7 -5 -7 107.89 12.3
-7 -5 7 90.79 8.4
-7 -5 7 107.69 8.7
7 5 -7 114.09 14.6
7 5 -7 95.19 12.2
-7 5 7 97.99 9.6
-7 5 7 108.29 10.3
6 -5 -7 55.39 6.4
-6 -5 7 60.29 7.1
6 -5 -7 51.19 8.7
6 -5 -7 50.09 8.7
-6 -5 7 53.99 6.9
-6 5 7 66.19 8.1
6 5 -7 43 9
-6 5 7 62.19 8
6 5 -7 43.8 9.7
5 -5 -7 40 7.9
-5 -5 7 43 6.6
5 -5 -7 38 7.6
-5 -5 7 46.4 6.9
5 -5 -7 60.29 6.1
-5 5 7 51.69 6.7
-5 5 7 55.89 17.4
-5 5 7 48.1 6.5
5 5 -7 28.8 9
5 5 -7 42.3 8.3
-4 -5 7 256.97 13.4
4 -5 -7 246.58 11.3
4 -5 -7 263.67 15.9
-4 -5 7 263.87 13.2
4 -5 -7 283.47 16.6
4 5 -7 277.47 15
-4 5 7 261.37 27.9
4 5 -7 265.67 17.5
-4 5 7 262.07 13.6
3 -5 -7 74.39 10
3 -5 -7 94.29 10.6
-3 -5 7 80.99 8.4
-3 -5 7 80.09 8.4
3 -5 -7 62.89 5.3
3 5 -7 73.29 9.5
-3 5 7 103.69 20.3
-3 5 7 89.39 8.4
2 -5 -7 163.48 12.8
-2 -5 7 167.58 11.3
2 -5 -7 171.28 12.8
-2 -5 7 155.98 10.8
-2 5 7 175.68 10.3
2 5 -7 175.28 12.4
-2 5 7 154.48 21.9
2 5 -7 176.18 9.2
-1 -5 7 20.7 5.5
1 -5 -7 16.7 6.2
1 -5 -7 16 5.8
-1 -5 7 11.3 4.8
1 5 -7 17.6 5.2
-1 5 7 22.2 4.8
1 5 -7 19 4.1
-1 5 7 31.5 14.1
0 -5 7 3.6 4.2
0 -5 -7 3 3.9
0 -5 7 1.9 4.3
0 -5 -7 12.7 5.3
0 5 -7 3.7 3
0 5 7 2.1 2.6
0 5 -7 3.3 2
0 5 7 4.1 12
0 5 7 3.9 3.1
1 -5 7 242.88 14.6
1 -5 7 260.27 14.1
1 -5 7 258.37 14.9
-1 -5 -7 240.88 14.8
-1 -5 -7 220.88 14.9
-1 5 -7 251.07 12.8
1 5 7 245.58 11.6
1 5 7 232.58 12.2
-1 5 -7 241.48 10.4
1 5 7 248.88 25.6
-2 -5 -7 56.89 8.6
-2 -5 -7 60.29 6.4
2 -5 7 50.69 7.4
2 -5 7 51.29 8.1
-2 -5 -7 48.3 8.3
2 -5 7 60.19 8.7
-2 5 -7 62.89 7.5
2 5 7 67.79 7
2 5 7 50.69 15.2
-2 5 -7 69.19 6.4
-3 -5 -7 238.18 15.2
-3 -5 -7 282.47 16.8
3 -5 7 236.48 14.5
-3 -5 -7 245.68 11.8
3 -5 7 238.28 15.1
3 -5 7 261.27 15.8
-3 5 -7 242.88 12
3 5 7 190.48 24
-3 5 -7 253.37 13.8
3 5 7 263.07 12.6
-4 -5 -7 10.9 6
4 -5 7 22.6 7.3
-4 -5 -7 23.9 4.8
4 -5 7 19.3 6.7
4 -5 7 28.4 6.2
-4 -5 -7 12.6 5.6
-4 5 -7 11.6 4.9
-4 5 -7 16.1 4.2
4 5 7 13.2 12.4
-5 -5 -7 10.8 4
-5 -5 -7 3.3 5.5
5 -5 7 3.1 5.7
5 -5 7 6.9 5.2
-5 -5 -7 9.4 5.5
5 -5 7 3.7 6
5 5 7 25.1 15.1
-5 5 -7 -1.5 3.4
-5 5 -7 5.3 3.5
6 -5 7 87.69 11.3
-6 -5 -7 62.89 9
-6 -5 -7 55.39 9.4
6 -5 7 85.59 10.7
6 -5 7 86.79 10.5
6 5 7 41.9 16.4
-6 5 -7 76.39 9.6
-6 5 -7 92.39 9.2
7 -5 7 52.79 9.8
7 -5 7 74.59 11.4
7 -5 7 62.59 9
-7 -5 -7 48.4 9.5
-7 -5 -7 45.6 8.3
-7 5 -7 77.79 10.2
-7 5 -7 59.59 8
7 5 7 74.89 17.9
-8 -5 -7 4.3 5.9
8 -5 7 -5.2 4.4
-8 -5 -7 -6.8 4.4
8 -5 7 9.8 6.6
-8 5 -7 5 4.1
-8 5 -7 1.2 3.9
8 5 7 4.5 11.9
-9 -5 -7 65.59 10.6
-9 -5 -7 72.89 9.8
9 -5 7 44.4 9.1
9 -5 7 87.19 14.5
9 5 7 47.8 18
-9 5 -7 74.59 10.5
-9 5 -7 71.59 10.2
-10 -5 -7 13.2 6.9
-10 -5 -7 20.4 6.8
10 -5 7 29.9 8.3
-10 5 -7 26.2 7.6
10 5 7 30.6 15.4
-10 5 -7 22 6.5
-11 -5 -7 1 5.6
11 -5 7 13.1 7
-11 5 -7 2.9 4.9
-11 5 -7 5.3 5.7
11 5 7 20.5 14.9
-12 -5 -7 -4.1 5.2
12 -5 7 -1.4 5.9
-12 5 -7 -3.8 4.6
12 5 7 13.4 12.9
-12 5 -7 -0.2 4.9
13 -6 -7 24.7 7.8
13 6 -7 12.8 12.8
13 6 -7 57.99 18.2
-13 6 7 35.2 8.1
12 -6 -7 51.69 9.4
12 6 -7 53.99 14.3
12 6 -7 27.6 16
-12 6 7 51.49 9.2
11 -6 -7 7 5.7
11 6 -7 7.1 10.2
11 6 -7 13.4 14
-11 6 7 5.7 5
10 -6 -7 -5 4
-10 6 7 -2 4.3
10 6 -7 14.2 10.1
10 6 -7 6.7 10.9
9 -6 -7 25.5 6.1
-9 -6 7 21.4 5.9
9 6 -7 32.9 10.5
-9 6 7 29.5 7
9 6 -7 32.1 12.4
8 -6 -7 17.6 7.4
8 -6 -7 26.7 7.8
-8 -6 7 26.9 6.3
8 6 -7 13.7 10.7
-8 6 7 17.8 5.4
-8 6 7 22.5 5.5
8 6 -7 15.1 8.8
7 -6 -7 161.48 16.2
7 -6 -7 187.58 13.7
-7 -6 7 179.68 11.9
-7 -6 7 181.88 12.3
-7 6 7 178.58 12.4
-7 6 7 189.98 13
7 6 -7 184.98 19
7 6 -7 159.48 16.1
-6 -6 7 108.59 10.3
6 -6 -7 117.99 14
-6 -6 7 97.49 10.1
6 -6 -7 107.99 12.2
-6 6 7 127.69 10.1
6 6 -7 104.39 14.4
-6 6 7 93.89 10.1
-5 -6 7 255.17 15
5 -6 -7 257.67 17.7
-5 -6 7 261.57 14.7
5 -6 -7 282.67 18.7
5 6 -7 276.97 20.7
-5 6 7 282.07 15.3
4 -6 -7 477.35 24.7
-4 -6 7 481.55 21.4
4 -6 -7 521.65 24.3
-4 -6 7 468.15 21
-4 6 7 422.26 31.8
-4 6 7 470.85 20.7
4 6 -7 463.55 24.6
3 -6 -7 77.39 11.6
-3 -6 7 85.19 9.9
-3 -6 7 84.39 10.1
3 -6 -7 88.09 11.3
3 6 -7 81.49 10.6
-3 6 7 97.29 19.9
-3 6 7 87.79 9.7
-2 -6 7 110.89 11.4
2 -6 -7 115.49 13.4
-2 -6 7 101.39 11.2
2 -6 -7 98.69 12.2
-2 6 7 112.89 10.4
-2 6 7 103.39 19.7
1 -6 -7 758.12 32.1
-1 -6 7 779.72 29.8
-1 -6 7 715.33 28.9
1 -6 -7 752.92 31
1 6 -7 735.13 26
-1 6 7 706.73 40
-1 6 7 712.73 26.9
0 -6 7 98.19 11.3
0 -6 7 87.19 9
0 -6 -7 78.89 10.9
0 -6 -7 85.99 11.9
0 -6 7 80.39 10.4
0 6 7 84.09 8.3
0 6 -7 108.89 8.9
0 6 7 108.69 20.4
0 6 7 108.09 8.9
-1 -6 -7 149.88 14.7
1 -6 7 145.99 13.6
-1 -6 -7 143.69 15
1 -6 7 126.09 13.1
1 -6 7 149.39 11.9
1 6 7 168.78 24.7
-1 6 -7 134.19 10.4
1 6 7 135.09 10.1
2 -6 7 192.98 14.7
-2 -6 -7 210.58 16.2
-2 -6 -7 164.68 15
2 -6 7 188.38 15
2 -6 7 171.18 12.6
-2 6 -7 166.08 11.9
2 6 7 159.78 24.7
2 6 7 175.78 11.2
-3 -6 -7 116.79 12.7
-3 -6 -7 123.59 13.7
3 -6 7 117.89 13.1
3 -6 7 125.79 13.6
3 -6 7 96.39 10
-3 6 -7 142.29 12.9
-3 6 -7 120.99 8.6
3 6 7 93.99 20.3
-4 -6 -7 29.6 8.3
4 -6 7 30.7 8.6
4 -6 7 25 6.5
4 -6 7 19.9 7.6
-4 -6 -7 32.4 8.1
-4 6 -7 23.3 5
-4 6 -7 23.1 5.9
4 6 7 16.1 13.9
5 -6 7 133.89 14.2
5 -6 7 101.39 13
-5 -6 -7 101.49 12.2
-5 -6 -7 101.29 12.7
5 6 7 82.59 18.9
-5 6 -7 110.09 10.1
-5 6 -7 105.19 11.3
6 -6 7 15.7 6.2
6 -6 7 18 7.3
-6 -6 -7 15.4 6.5
6 -6 7 4.3 6.3
-6 6 -7 10.9 4.6
-6 6 -7 19.1 6
6 6 7 32.4 14.2
7 -6 7 18.3 7.4
7 -6 7 -2.8 6.1
-7 -6 -7 12.3 6.5
-7 -6 -7 2.4 5
7 -6 7 5 5.4
7 6 7 3.9 12
-7 6 -7 1.3 3.3
-7 6 -7 -1.2 3.7
-8 -6 -7 22.9 8.1
8 -6 7 8 7.4
8 -6 7 27.9 7.2
-8 -6 -7 26.6 7.5
-8 6 -7 15.6 5.3
-8 6 -7 15.8 6.3
8 6 7 4.4 13.2
-9 -6 -7 1 6.1
-9 -6 -7 -8.4 5
9 -6 7 2.7 6.1
9 -6 7 -1.6 6.4
-9 6 -7 0.3 4.3
9 6 7 16.7 14.3
-9 6 -7 -3 4.6
-10 -6 -7 29.4 8.4
-10 -6 -7 22 7.5
10 -6 7 26.9 8.4
-10 6 -7 43 8.8
-10 6 -7 15.8 6.9
10 6 7 36.6 17
-11 -6 -7 73.39 10.5
11 -6 7 53.99 10.5
-11 6 -7 48.7 8.9
-11 6 -7 64.69 11.4
11 6 7 60.19 19.9
12 7 -7 29.7 17.2
12 7 -7 1.3 12.1
-12 7 7 47.7 9.8
-11 7 7 12.2 5.6
11 7 -7 10.6 14.3
11 7 -7 -1.9 10.8
-11 7 7 7.3 5.3
-10 7 7 1.7 4.6
10 7 -7 8.6 18
10 7 -7 1.9 12.4
-10 7 7 4.4 4.6
-9 -7 7 7.8 5.9
-9 7 7 11.7 5.5
-9 7 7 8.8 5.6
9 7 -7 -15.7 10
8 -7 -7 3.5 6.4
-8 -7 7 1.6 5.7
8 7 -7 0.7 11
-8 7 7 2.3 4.5
-8 7 7 1.4 4.1
7 -7 -7 1.3 6.6
-7 -7 7 2.5 5.5
-7 -7 7 14.4 6
7 7 -7 -0.9 8.9
-7 7 7 1.1 3.8
-7 7 7 3.7 4.1
6 -7 -7 181.88 18
6 -7 -7 155.88 17.3
-6 -7 7 164.58 13.8
-6 -7 7 170.78 13.6
-6 7 7 182.78 13.1
6 7 -7 167.88 19
-5 -7 7 25.5 7.1
5 -7 -7 44.5 9.9
-5 -7 7 46.6 8.5
5 -7 -7 43.2 10.2
5 7 -7 33.9 12
-5 7 7 22.7 6.2
-4 -7 7 -4.8 4.9
4 -7 -7 5.5 5.9
-4 -7 7 4.5 6
4 -7 -7 -3.1 5.6
-4 7 7 -4.1 2.9
-3 -7 7 1.1 5.6
3 -7 -7 -2.7 6.1
3 -7 -7 1.5 5.7
-3 -7 7 4.5 5.8
-3 7 7 -6.6 10.7
-3 7 7 2.5 4.6
-2 -7 7 23.9 7.3
-2 -7 7 16.2 6.8
2 -7 -7 20 7.8
2 -7 -7 22.7 8.5
-2 7 7 20.8 5.5
-2 7 7 27.5 13.5
-1 -7 7 10.2 6.1
1 -7 -7 4.5 6.3
1 -7 -7 7.7 6.4
-1 -7 7 -0.1 6.2
-1 7 7 9.5 4.1
-1 7 7 13.7 12.5
-1 7 7 2.6 3.5
0 -7 7 100.19 12.8
0 -7 -7 59.79 10.4
0 -7 -7 106.49 14.3
0 -7 7 95.59 12.5
0 7 7 68.79 17.9
0 7 -7 92.39 9.6
0 7 7 92.09 9.6
-1 -7 -7 119.39 13.9
1 -7 7 136.89 14.5
1 -7 7 160.78 16.2
-1 -7 -7 165.08 16.5
1 7 7 134.69 10.7
-1 7 -7 161.98 11.8
1 7 7 146.59 23.9
2 -7 7 1.4 6.6
-2 -7 -7 5.8 6.6
-2 -7 -7 -1.6 5.3
2 -7 7 3.8 5.9
-2 7 -7 23.6 5.8
2 7 7 2.7 11.5
3 -7 7 116.69 13.8
-3 -7 -7 107.79 13.8
3 -7 7 155.08 16.5
-3 -7 -7 138.29 14.6
-3 7 -7 182.38 13.3
3 7 7 136.99 22.5
4 -7 7 174.28 17.6
-4 -7 -7 199.38 17.8
-4 -7 -7 151.38 16.4
4 -7 7 185.78 17.5
4 7 7 177.68 25.9
-4 7 -7 181.88 13.6
-5 -7 -7 -8 5
-5 -7 -7 3 6.2
5 -7 7 -1.1 6.2
5 -7 7 15.3 7.5
5 7 7 22.8 13.4
-5 7 -7 -1.8 3.8
-6 -7 -7 20 8.3
6 -7 7 27.2 9.7
-6 -7 -7 16.3 7.5
6 -7 7 13.7 8.1
6 7 7 34.9 16.9
-6 7 -7 40 8.8
7 -7 7 8.2 6.5
7 -7 7 26.4 10.1
-7 -7 -7 20.1 8.2
-7 -7 -7 4.2 7.3
-7 7 -7 18 5.9
-7 7 -7 21.4 7.7
7 7 7 32.6 14.7
8 -7 7 0.3 7.2
-8 -7 -7 7.7 6.8
-8 -7 -7 11.6 7.1
8 -7 7 -5.3 5.3
-8 7 -7 4.9 6
8 7 7 18 13.7
-8 7 -7 -3.2 3.5
9 -7 7 16.5 7.1
-9 -7 -7 15.6 7.7
9 -7 7 28.5 9.9
-9 -7 -7 22.4 8.9
-9 7 -7 21.7 8.1
-9 7 -7 12.2 5.8
9 7 7 4.2 12.7
-10 -7 -7 -4.6 5.4
10 -7 7 0.1 6.3
-10 7 -7 -5.5 5.3
-10 7 -7 -1.1 4.7
10 7 7 36.6 15.8
-10 -8 7 36.4 9.1
-10 8 7 47.8 10
-10 8 7 28.6 7.5
10 8 -7 18.2 16.6
-9 -8 7 7.4 7.2
9 8 -7 -28.2 11.2
-9 8 7 5.5 4.7
-9 8 7 14.5 6.4
8 -8 -7 7 7.9
-8 -8 7 -3.7 6.3
-8 8 7 -2.9 4.6
-8 8 7 0.7 4.4
8 8 -7 -19.8 10
-7 -8 7 2.5 6.4
-7 -8 7 -2 6.7
7 -8 -7 -3.8 6.7
-7 8 7 2 4.4
6 -8 -7 2.5 8
-6 -8 7 -3.9 6.6
-6 -8 7 5.4 6.9
-6 8 7 8.5 5.5
5 -8 -7 2.2 7.7
-5 -8 7 -6.4 5.2
5 -8 -7 -0.8 7.1
-5 -8 7 5.4 6.8
-5 8 7 -2.2 3.7
4 -8 -7 12.1 8.4
-4 -8 7 2.8 5.9
-4 -8 7 -0.8 6.8
4 -8 -7 8.7 7.3
-4 8 7 -2.5 4.2
3 -8 -7 115.09 15.8
-3 -8 7 99.49 13.7
-3 -8 7 81.49 11.8
3 -8 -7 112.19 15.6
-3 8 7 110.29 12
2 -8 -7 9.4 8
-2 -8 7 -3.1 6.1
2 -8 -7 -0.3 6.3
-2 -8 7 2.7 5.7
-2 8 7 -1.2 3.4
-2 8 7 30.6 13.4
1 -8 -7 116.69 15.4
-1 -8 7 91.59 13.3
1 -8 -7 73.29 12.9
-1 -8 7 89.69 12.8
-1 8 7 109.09 11.6
-1 8 7 99.59 19.2
0 -8 7 32.2 9.3
0 -8 -7 46 10.5
0 -8 -7 9.6 8
0 -8 7 38.7 10.2
0 8 7 45.9 7.7
0 8 7 59.29 16.7
1 -8 7 44.8 10
1 -8 7 51.09 11.2
-1 -8 -7 39.9 10.3
-1 -8 -7 40.9 10.1
1 8 7 36.4 15.5
-2 -8 -7 36 10.5
2 -8 7 54.99 11.7
-2 -8 -7 38.5 10.8
2 -8 7 55.99 11.4
2 8 7 59.99 17.7
-2 8 -7 61.29 9.3
3 -8 7 59.99 11.6
3 -8 7 64.09 12.5
-3 -8 -7 71.59 13
-3 -8 -7 72.69 12.4
3 8 7 68.79 19.1
-3 8 -7 93.19 12.2
-4 -8 -7 26.3 9.4
-4 -8 -7 32.8 10
4 -8 7 21.8 9.5
4 -8 7 26.7 9.7
4 8 7 41.4 15.3
-4 8 -7 31.3 8.3
5 -8 7 47.6 11.5
-5 -8 -7 20.3 8.8
-5 -8 -7 19.3 8.7
5 -8 7 24.3 10.2
-5 8 -7 17.5 7.7
5 8 7 21.9 15.5
-6 -8 -7 4.7 7.7
6 -8 7 13.1 9
-6 -8 -7 13.7 8.1
6 -8 7 1.9 8.1
6 8 7 18 14.7
-6 8 -7 4.4 6.5
-7 -8 -7 -5.9 6.4
7 -8 7 -1.1 8.1
-7 -8 -7 -4.1 6.8
-7 8 -7 2.6 6.5
7 8 7 5.9 13.6
-8 -8 -7 0.7 6.8
8 -8 7 12.3 10
-8 -8 -7 0.1 7.2
8 8 7 -2.4 13.8
-8 8 -7 -7.5 5.2
-7 -9 7 38.1 14.6
-7 -9 7 32 10.1
7 -9 -7 22 10.8
-7 9 7 29.5 8.1
-6 -9 7 16 9.3
6 -9 -7 4.4 9.4
-6 -9 7 2.1 7.7
-6 9 7 15.7 6.6
-5 -9 7 50.19 11.3
-5 -9 7 68.39 12.8
5 -9 -7 49.6 12.5
5 -9 -7 59.99 14.1
-5 9 7 85.39 12.1
-4 -9 7 -3.6 7.2
-4 -9 7 3.1 7.5
4 -9 -7 5.7 9.2
4 -9 -7 -2.1 7.3
-4 9 7 -3.6 4.6
-3 -9 7 99.29 14.6
3 -9 -7 73.09 13.7
-3 -9 7 94.49 14.5
3 -9 -7 136.69 19.6
-3 9 7 143.19 15.2
2 -9 -7 -9.5 6.6
-2 -9 7 20.3 8.4
2 -9 -7 -2 7.6
-2 -9 7 -0.9 7.2
-2 9 7 3 4.8
1 -9 -7 8.5 8.5
-1 -9 7 -1.8 6.4
-1 -9 7 11.1 8
1 -9 -7 8.8 8.2
0 -9 -7 -3.4 7.7
0 -9 7 6.5 7.6
0 -9 7 6.1 7.4
0 -9 -7 3 8.5
0 9 7 37.8 14.3
1 -9 7 -2.3 7.2
1 -9 7 -1.8 7.3
-1 -9 -7 11.5 8.2
-1 -9 -7 7.7 8.4
1 9 7 4.1 12
-2 -9 -7 -1.5 6.9
2 -9 7 5.9 8
2 -9 7 1.4 7.6
-2 -9 -7 -15 6.7
2 9 7 6.5 11.7
3 -9 7 -5.6 6.4
-3 -9 -7 1.5 7.3
3 -9 7 -6.5 7.9
-3 -9 -7 -0.9 7.2
3 9 7 7.3 12.7
-3 9 -7 0.9 7.6
-4 -9 -7 23.7 9.2
4 -9 7 1.4 8.6
4 -9 7 2 8.5
-4 -9 -7 9.3 7.6
4 9 7 28.8 16
-4 9 -7 15.3 6.9
-5 -9 -7 -1.6 7.7
5 -9 7 17.3 10
5 -9 7 12 9.9
-5 -9 -7 7.9 8
5 9 7 23.1 16
-5 9 -7 25.4 8.2
16 0 -8 57.59 16.5
16 0 -8 75.39 11.6
16 0 -8 63.79 14.6
15 0 -8 -0.4 10.6
15 0 -8 1.1 4.7
15 0 -8 12.1 9.2
14 0 -8 -1.7 9.6
14 0 -8 -4.4 4.2
14 0 -8 4.6 8.4
13 0 -8 43.5 8.1
13 0 -8 40.9 10.8
13 0 -8 31.4 11.1
12 0 -8 1.7 6.6
12 0 -8 1.4 3.4
12 0 -8 5.8 7.6
11 0 -8 135.59 15.8
11 0 -8 154.58 11.8
11 0 -8 156.38 15.9
10 0 -8 -0.8 5.5
10 0 -8 2.8 6.5
10 0 -8 -2.3 2.8
9 0 -8 123.29 9.6
-9 0 8 101.89 5.6
9 0 -8 146.29 13.3
9 0 -8 114.19 12.7
-8 0 8 354.56 12.1
8 0 -8 381.56 20.1
8 0 -8 379.36 16.7
-8 0 8 342.57 12.1
8 0 -8 373.06 18.7
7 0 -8 1.2 3.4
7 0 -8 0.6 3.9
-7 0 8 5.3 1.6
7 0 -8 4.2 2.4
6 0 -8 461.95 21.2
6 0 -8 495.55 18.6
-6 0 8 459.65 15
6 0 -8 500.15 20.1
-5 0 8 1166.78 32.9
5 0 -8 1127.39 37.2
5 0 -8 1220.78 39.6
-5 0 8 1173.78 33.4
5 0 -8 1257.67 36.8
-4 0 8 125.29 6
4 0 -8 112.69 8.8
4 0 -8 130.39 6.5
-4 0 8 115.19 6.2
4 0 -8 144.29 11
4 0 -8 124.19 8.1
-3 0 8 200.48 8.7
3 0 -8 223.68 9.4
-3 0 8 209.48 8.4
3 0 -8 212.28 12.4
3 0 -8 231.98 10.4
-2 0 8 128.79 6.4
2 0 -8 136.79 7.4
2 0 -8 128.99 6.8
-2 0 8 142.59 6.8
1 0 -8 107.59 6.8
-1 0 8 104.19 6.1
-1 0 8 113.39 6
1 0 -8 108.09 6.1
0 0 -8 2069.09 59.59
0 0 -8 2340.57 61.49
0 0 8 2193.88 59.59
0 0 8 2119.49 59.99
-1 0 -8 92.89 7.3
1 0 8 95.69 6.6
1 0 8 90.49 6.5
-1 0 -8 86.19 6.6
-1 0 -8 91.39 6.2
-2 0 -8 0.5 2.4
-2 0 -8 2.1 3.3
2 0 8 -0.6 2.7
-2 0 -8 1 3.4
-3 0 -8 151.08 8.7
3 0 8 143.29 8.6
-3 0 -8 157.58 9.7
-3 0 -8 160.98 8.7
3 0 8 146.29 10.5
-4 0 -8 0.1 2.4
4 0 8 2.9 3.3
4 0 8 15.5 11.3
-4 0 -8 -0.2 2.4
-4 0 -8 -1.2 2.7
4 0 8 -1.9 2.2
5 0 8 8.5 3.3
-5 0 -8 6.7 3.8
-5 0 -8 6.8 3.1
-5 0 -8 5.6 3
5 0 8 9.6 4.2
5 0 8 20.9 11
6 0 8 430.56 17.4
-6 0 -8 415.86 18.2
6 0 8 435.16 25.5
6 0 8 396.06 18.7
-6 0 -8 436.76 17.6
-6 0 -8 430.96 17.2
7 0 8 89.29 8.7
-7 0 -8 72.69 8.4
7 0 8 89.19 14.1
-7 0 -8 52.79 6.8
-7 0 -8 60.39 7.9
7 0 8 72.69 8.3
8 0 8 105.09 10.6
-8 0 -8 120.59 9.4
-8 0 -8 142.99 10.5
8 0 8 121.29 15.9
-8 0 -8 131.09 10.6
-9 0 -8 237.98 14.4
-9 0 -8 257.17 14.9
-9 0 -8 231.18 13.3
9 0 8 223.38 15.1
-10 0 -8 101.99 10.8
-10 0 -8 130.39 11.5
-10 0 -8 77.59 9.5
10 0 8 114.39 12.2
11 0 8 2.4 4.6
-11 0 -8 -2.1 4.1
-11 0 -8 0.6 3.8
-11 0 -8 -0.8 4.2
-12 0 -8 38.6 7.1
-12 0 -8 36.3 7.8
-12 0 -8 48.2 9
12 0 8 40.1 8.7
-13 0 -8 2.9 4.7
13 0 8 9.3 6.3
-13 0 -8 3.6 4.7
-13 0 -8 12.6 6.4
14 0 8 -2.6 5.4
-14 0 -8 -2.1 5.3
-14 0 -8 -1.1 4.5
-14 0 -8 3.9 5.6
16 -1 -8 9.9 6.3
16 -1 -8 0.9 11.5
16 -1 -8 13.2 11
16 1 -8 22.1 12.1
16 1 -8 10.4 13.2
16 1 -8 19 6.6
15 -1 -8 2.3 10.6
15 -1 -8 2.5 4.7
15 -1 -8 1.9 8.9
15 1 -8 -4.1 10.5
15 1 -8 5.4 9.5
15 1 -8 0.1 4.4
14 -1 -8 26.2 11.1
14 -1 -8 18.1 6.1
14 -1 -8 40 11.2
14 1 -8 39.8 11.5
14 1 -8 32.5 7.1
14 1 -8 32.3 12.7
13 -1 -8 48.4 10.8
13 -1 -8 62.89 12.9
13 -1 -8 57.09 8.9
13 1 -8 80.89 13.5
13 1 -8 52.59 13.6
13 1 -8 55.19 8.7
12 -1 -8 69.59 9.2
12 -1 -8 103.99 14
12 -1 -8 87.69 12.6
12 1 -8 84.29 13.4
12 1 -8 84.19 9.8
12 1 -8 94.49 14.5
11 -1 -8 7.1 7.2
11 -1 -8 2.9 6.5
11 -1 -8 7.5 4.5
11 1 -8 6.1 4.5
11 1 -8 0.4 6.6
11 1 -8 4.8 8.2
-11 1 8 12 3.2
10 -1 -8 -2.6 5.8
10 -1 -8 -2.7 3.3
10 -1 -8 6.8 6.7
10 1 -8 -3.1 6.3
-10 1 8 -0.3 1.9
10 1 -8 1 3.4
10 1 -8 -3.1 5.8
9 -1 -8 16.4 4.6
9 -1 -8 6.1 6.1
9 -1 -8 11.3 6.4
9 1 -8 28 7.8
9 1 -8 17.8 6.2
-9 1 8 18 3.2
9 1 -8 17 4.6
8 -1 -8 39 7.1
8 -1 -8 26.1 4.9
-8 -1 8 30 2.7
8 -1 -8 27 6.5
-8 1 8 34.8 4
8 1 -8 24.5 6.8
8 1 -8 19.3 6.2
8 1 -8 32.8 5.5
7 -1 -8 48.7 6.2
7 -1 -8 42.4 6.9
7 -1 -8 40.7 7.2
-7 -1 8 49.99 3.2
7 1 -8 35.6 6.6
7 1 -8 23.9 6.2
7 1 -8 39.6 5.5
-7 1 8 43.8 4.4
-7 1 8 43.1 4.3
-6 -1 8 130.29 5.5
6 -1 -8 152.18 10.5
6 -1 -8 136.79 8.6
6 -1 -8 131.19 6.9
6 -1 -8 125.49 11
-6 -1 8 129.09 5.7
6 1 -8 135.59 10.1
6 1 -8 155.58 9.1
-6 1 8 137.99 6.8
6 1 -8 136.59 11.4
5 -1 -8 17.2 4.7
5 -1 -8 10.6 4.5
5 -1 -8 9.5 2.8
-5 -1 8 12.6 2.1
-5 -1 8 6.2 1.8
5 -1 -8 6.8 2.7
5 1 -8 8.7 3.9
-5 1 8 12 2.6
5 1 -8 17.3 5.3
5 1 -8 9 2.8
-4 -1 8 25.8 3.1
4 -1 -8 20.9 3.9
4 -1 -8 21.4 3.9
-4 -1 8 21 2.9
4 -1 -8 19.2 5.3
-4 1 8 25.4 3.5
4 1 -8 22.9 4.2
4 1 -8 26.4 5.8
4 1 -8 19 4.3
3 -1 -8 1082.09 32.1
-3 -1 8 1003.5 29.3
3 -1 -8 1043 31.6
-3 -1 8 1032.3 29.9
3 1 -8 1016.5 31.7
-3 1 8 1050.79 29.8
-3 1 8 996 30.3
3 1 -8 1032.3 34.4
3 1 -8 1043.7 30.1
3 1 -8 1011.8 29.5
-2 -1 8 208.48 8.7
-2 -1 8 193.58 8.8
2 -1 -8 176.08 9.8
2 -1 -8 207.88 9.4
2 1 -8 204.18 8.6
2 1 -8 193.28 8.7
-2 1 8 214.58 8.7
2 1 -8 237.98 12.5
-2 1 8 186.58 8.7
1 -1 -8 1284.77 37.7
-1 -1 8 1274.97 37
1 -1 -8 1280.67 39.2
-1 -1 8 1277.07 37.5
-1 1 8 1328.07 37.1
1 1 -8 1317.17 37.8
1 1 -8 1303.07 37
-1 1 8 1325.97 37.7
0 -1 -8 3.7 2.4
0 -1 8 1.7 2.3
0 -1 -8 2.8 2.6
0 -1 8 0.2 2.3
0 1 8 0.3 1.9
0 1 -8 1.2 2.3
0 1 -8 0.6 1.9
0 1 8 -0.6 1.8
1 -1 8 460.85 17.3
1 -1 8 475.15 17
-1 -1 -8 470.75 18.5
-1 -1 -8 456.35 16.7
-1 -1 -8 458.95 17.5
1 1 8 495.25 17.1
-1 1 -8 488.15 17.9
-1 1 -8 469.55 16.4
2 -1 8 -2.7 2.4
-2 -1 -8 0 2.6
-2 -1 -8 -0.7 2.1
2 -1 8 2.5 3
-2 -1 -8 0.1 3.3
-2 1 -8 -3 2
-2 1 -8 -1.8 2.4
2 1 8 0 2.3
-2 1 -8 -1.4 2.6
3 -1 8 731.43 23.7
-3 -1 -8 643.64 24.6
3 -1 8 685.03 25.2
-3 -1 -8 715.43 23.4
-3 -1 -8 658.63 23.5
3 -1 8 696.93 24.2
3 1 8 715.23 24.7
-3 1 -8 708.23 24.6
-3 1 -8 680.73 23.1
3 1 8 709.63 23.2
-3 1 -8 690.93 23.3
4 -1 8 99.79 7.9
4 -1 8 108.49 8.1
-4 -1 -8 119.39 7.9
-4 -1 -8 104.99 7.4
-4 -1 -8 113.79 8.8
4 -1 8 120.69 10
-4 1 -8 115.59 7.5
4 1 8 117.59 17.9
4 1 8 133.99 9.7
-4 1 -8 125.79 8.7
4 1 8 105.19 7.2
-4 1 -8 101.49 7.3
5 -1 8 308.67 14.3
5 -1 8 297.87 22.1
-5 -1 -8 301.07 13.6
5 -1 8 316.07 15.9
5 -1 8 322.27 14.2
-5 -1 -8 327.37 15.3
-5 -1 -8 288.97 13.6
-5 1 -8 327.57 14.3
-5 1 -8 325.77 15.2
5 1 8 299.07 24.4
-5 1 -8 301.17 13.6
5 1 8 318.27 15.3
5 1 8 302.97 13.4
-6 -1 -8 43 6
6 -1 8 33 10.5
6 -1 8 41.3 7
-6 -1 -8 61.49 7.8
6 -1 8 54.09 7.3
6 -1 8 33.9 5.9
-6 -1 -8 38.2 5.4
-6 1 -8 47.1 6.9
6 1 8 28.2 5.7
-6 1 -8 30.9 5.7
6 1 8 51.99 13.2
6 1 8 39 5.3
-6 1 -8 41.4 5.9
7 -1 8 47 10.3
7 -1 8 46.9 7
-7 -1 -8 41.2 6.4
7 -1 8 41.2 7.3
-7 -1 -8 39.2 6.8
-7 -1 -8 50.29 6.9
7 1 8 10.7 10.8
-7 1 -8 36.4 6.4
7 1 8 41.7 6.9
-7 1 -8 43.7 6.9
-7 1 -8 42.4 6.4
-8 -1 -8 4.5 4.6
8 -1 8 0.3 4.6
-8 -1 -8 -5.7 3.1
-8 -1 -8 3.6 3.6
-8 1 -8 4 4.1
-8 1 -8 5.9 3.9
8 1 8 4.7 4.4
8 1 8 6.1 9.8
-8 1 -8 4.6 3.7
-9 -1 -8 83.79 10
9 -1 8 109.99 11.6
-9 -1 -8 108.19 10
-9 -1 -8 105.19 10.3
-9 1 -8 127.79 11.8
-9 1 -8 94.49 10.2
-9 1 -8 112.09 10.2
9 1 8 108.29 11.3
9 1 8 100.69 16.5
10 -1 8 45.2 8.5
-10 -1 -8 33.9 7
-10 -1 -8 44.6 7.2
-10 -1 -8 51.09 7.7
10 1 8 50.89 8.1
-10 1 -8 36.4 7
-10 1 -8 48.5 7.2
-10 1 -8 41.5 7.6
10 1 8 34.2 11.3
-11 -1 -8 19.8 6
-11 -1 -8 40.6 7.2
11 -1 8 20.3 6.7
-11 -1 -8 19.2 5.9
11 1 8 32.1 7.3
-11 1 -8 34.4 7.2
-11 1 -8 35 6.7
-11 1 -8 24.6 6.4
12 -1 8 -0.7 4.9
-12 -1 -8 -4.7 4.5
-12 -1 -8 3.1 4.7
-12 -1 -8 0.7 4.4
-12 1 -8 0.5 4.8
12 1 8 1.9 4.6
-12 1 -8 1.8 4.9
-13 -1 -8 5.1 5.5
13 -1 8 -1 4.8
-13 -1 -8 3.3 5.8
-13 -1 -8 3.9 5.1
-13 1 -8 7.4 5.3
13 1 8 5.4 5.8
-13 1 -8 10.3 5.6
14 -1 8 40.7 10
-14 -1 -8 39.5 7.9
-14 -1 -8 50.79 9.9
-14 1 -8 31.6 8.7
-14 1 -8 51.49 9.5
14 1 8 54.79 11.3
16 -2 -8 12.3 10.1
16 -2 -8 3.2 6.1
16 2 -8 2.6 10.5
16 2 -8 8 5.9
16 2 -8 -7.1 11.8
15 -2 -8 51.09 10
15 -2 -8 49.1 12.5
15 2 -8 65.19 16.4
15 2 -8 53.69 9.7
15 2 -8 79.69 15.8
14 -2 -8 20.1 9.3
14 -2 -8 12.3 6
14 2 -8 0.4 10.6
14 2 -8 30.8 11.5
14 2 -8 5 5.2
13 -2 -8 9 7.4
13 -2 -8 8 5.7
13 -2 -8 8.7 9
13 2 -8 11.5 5.3
13 2 -8 8.2 8.9
13 2 -8 2 10.1
12 -2 -8 134.49 13
12 -2 -8 140.29 15.2
12 -2 -8 132.99 15.4
12 2 -8 157.38 16.9
12 2 -8 123.69 16.8
-12 2 8 150.78 9.4
12 2 -8 142.69 11.9
11 -2 -8 -4.5 5.6
11 -2 -8 8.8 4.8
11 -2 -8 6.2 6.2
11 2 -8 3.6 6.7
11 2 -8 9.1 8.5
11 2 -8 3.3 3.7
-11 2 8 4.6 2.9
10 -2 -8 17.8 5.3
10 -2 -8 18.1 6.9
10 -2 -8 23.6 7.9
10 2 -8 15.1 4.7
10 2 -8 28 8.6
-10 2 8 19.3 4.1
10 2 -8 36.5 10.3
9 -2 -8 23.9 5.7
9 -2 -8 50.79 8.8
9 -2 -8 36.8 7.8
9 2 -8 50.19 10.7
-9 2 8 37.9 5
9 2 -8 44.8 9.3
9 2 -8 40.7 6.1
8 -2 -8 10.6 5.8
8 -2 -8 10.5 3.7
8 -2 -8 4.2 4.5
-8 -2 8 8.6 1.6
8 2 -8 22.3 6.4
8 2 -8 11.4 6.6
-8 2 8 18.8 3.6
8 2 -8 7.9 3.6
-7 -2 8 139.89 5.6
7 -2 -8 146.69 8.7
7 -2 -8 155.08 9.8
7 -2 -8 135.79 10.8
-7 -2 8 143.99 5.8
7 -2 -8 154.88 11.7
7 2 -8 149.29 13.3
-7 2 8 145.39 8.1
-7 2 8 152.18 8.1
7 2 -8 142.59 9.4
7 2 -8 147.49 11.4
-6 -2 8 200.18 7.4
6 -2 -8 195.38 12.1
-6 -2 8 190.68 7.6
6 -2 -8 203.28 10.4
6 -2 -8 193.88 12.7
6 -2 -8 212.68 11
6 2 -8 219.28 11.1
6 2 -8 225.88 13.1
-6 2 8 193.58 9.4
6 2 -8 204.48 14.2
-6 2 8 197.98 9.5
5 -2 -8 75.49 7.2
5 -2 -8 59.19 7.3
5 -2 -8 71.09 6.1
-5 -2 8 58.89 4
-5 -2 8 61.19 4.1
5 2 -8 62.19 6.4
5 2 -8 58.39 6.9
-5 2 8 58.09 4.9
5 2 -8 60.09 8.4
-4 -2 8 62.09 4.4
-4 -2 8 55.29 4.3
4 2 -8 67.19 8.6
4 2 -8 54.99 6.3
-3 -2 8 793.22 24.8
-3 -2 8 840.52 24.6
3 -2 -8 846.32 25.9
3 -2 -8 820.12 27.6
3 2 -8 817.92 29.2
3 2 -8 781.62 26
3 2 -8 808.22 23.8
3 2 -8 818.62 24
-3 2 8 791.92 25.5
-2 -2 8 69.59 5.9
2 -2 -8 67.89 7.4
-2 -2 8 60.99 5.8
2 2 -8 49.2 7
-2 2 8 53.79 5.3
2 2 -8 62.19 5.1
-2 2 8 64.19 4.9
2 2 -8 53.59 5.3
2 2 -8 70.99 4.6
-1 -2 8 16.4 3.9
-1 -2 8 18.7 3.8
1 -2 -8 16.1 3.5
1 2 -8 14.4 3.5
-1 2 8 16.8 3.4
1 2 -8 14.2 2.8
1 2 -8 12.6 4.7
1 2 -8 18.8 3.5
-1 2 8 14.7 3.3
0 -2 8 3.1 2.9
0 -2 8 -6.3 2.3
0 -2 -8 6.2 3.7
0 -2 -8 4.9 3.6
0 -2 -8 6 2.8
0 2 -8 3.5 2.7
0 2 8 2.9 2.4
0 2 -8 2 2.1
0 2 8 5.5 2.6
-1 -2 -8 114.79 7.1
-1 -2 -8 116.39 8.5
1 -2 8 115.89 8.1
1 -2 8 134.89 8.2
-1 -2 -8 121.79 9.2
-1 2 -8 120.49 7.9
1 2 8 130.09 7.5
-1 2 -8 126.09 7
1 2 8 116.99 6.9
2 -2 8 1580.14 46.8
-2 -2 -8 1589.64 45.4
-2 -2 -8 1540.65 47.9
2 -2 8 1565.64 46.2
-2 -2 -8 1544.65 46.4
-2 2 -8 1568.84 46.6
-2 2 -8 1564.74 44.8
2 2 8 1575.74 45.2
2 2 8 1469.95 59.79
3 -2 8 9.6 3.7
3 -2 8 14.2 4.2
3 -2 8 18.5 5.2
-3 -2 -8 11.3 3.3
-3 -2 -8 14.9 4
-3 -2 -8 9 4
3 2 8 20.8 13.4
-3 2 -8 9.3 3.6
3 2 8 8.5 3.7
3 2 8 5.2 2.7
-3 2 -8 11.2 3.3
4 -2 8 886.31 28.7
-4 -2 -8 825.12 27.4
4 -2 8 839.82 29
-4 -2 -8 861.51 28.5
4 -2 8 806.72 29.9
-4 -2 -8 810.72 29.7
4 2 8 762.62 40.3
4 2 8 850.71 27.1
4 2 8 833.22 28.2
-4 2 -8 841.02 29
-4 2 -8 865.11 28
5 -2 8 1.4 3.8
-5 -2 -8 4.4 3
5 -2 8 -0.3 4.2
5 -2 8 1.7 3.3
-5 -2 -8 7.4 3.8
-5 -2 -8 2.3 2.9
5 2 8 -0.3 10.3
5 2 8 3.8 2.4
-5 2 -8 -1.2 2.7
5 2 8 0.2 2.9
-5 2 -8 -2.3 2.1
-6 -2 -8 77.59 8.2
-6 -2 -8 64.09 6.9
6 -2 8 70.69 8.2
6 -2 8 73.19 9
6 -2 8 72.79 9.1
-6 -2 -8 70.69 8.6
6 2 8 81.49 16.3
-6 2 -8 65.19 7.5
-6 2 -8 75.49 8.8
6 2 8 80.79 7.2
6 2 8 69.49 7.7
-7 -2 -8 26.6 5.5
-7 -2 -8 13.2 5.1
7 -2 8 16.4 5.6
-7 -2 -8 9.9 4.5
7 -2 8 21.4 5.9
7 2 8 19.4 5.1
-7 2 -8 19.1 5.4
7 2 8 -3.5 9.5
-7 2 -8 19.7 5.3
-8 -2 -8 53.99 7.6
-8 -2 -8 66.89 9.1
8 -2 8 62.79 9.5
8 -2 8 60.59 8.7
-8 -2 -8 63.39 8.4
8 2 8 47.6 15.1
-8 2 -8 71.99 9
8 2 8 66.39 8.4
-8 2 -8 52.79 8.3
-9 -2 -8 3.9 4.8
9 -2 8 15.5 5.5
-9 -2 -8 4.1 4.1
-9 -2 -8 12.4 5
9 2 8 7.3 4.3
-9 2 -8 17.3 5.6
9 2 8 8.5 10.7
-9 2 -8 15.9 5
10 -2 8 39.1 7.6
-10 -2 -8 45.1 7.2
-10 -2 -8 38.5 7
-10 2 -8 32.3 7.5
10 2 8 40.7 13.8
-10 2 -8 26.5 6.5
10 2 8 40.1 7.2
-11 -2 -8 130.39 12.8
-11 -2 -8 109.69 12
11 -2 8 98.69 12.1
-11 -2 -8 119.89 11.6
11 2 8 114.39 12.4
-11 2 -8 112.19 12.4
-11 2 -8 113.19 12.3
11 2 8 122.19 19.8
-12 -2 -8 2 5.2
-12 -2 -8 11.1 6.1
12 -2 8 9.5 5.9
-12 -2 -8 9.1 6.1
-12 2 -8 6 5.8
12 2 8 -1.5 5.1
-12 2 -8 -1.8 4.7
13 -2 8 6.3 5.9
-13 -2 -8 6.9 9.4
-13 2 -8 3 4.9
-13 2 -8 6.8 5.5
-14 -2 -8 25.5 7.1
14 -2 8 25.3 8.5
-14 -2 -8 16.2 7.3
-14 2 -8 16.2 7.2
-14 2 -8 13.7 7.5
14 2 8 13.5 6.9
15 -3 -8 153.38 15.9
15 -3 -8 109.19 15.9
15 3 -8 107.99 12.8
15 3 -8 85.19 19
15 3 -8 80.79 16.9
14 -3 -8 0 5
14 -3 -8 -4.2 7.3
14 3 -8 5.2 5.3
14 3 -8 -6.9 8.9
-14 3 8 2.3 3.7
14 3 -8 2.8 11.3
13 -3 -8 35.4 7.9
13 -3 -8 42.3 10
13 3 -8 25.6 6.4
13 3 -8 40.8 13.6
-13 3 8 30.4 6.2
13 3 -8 10.5 9.6
12 -3 -8 69.39 11.6
12 -3 -8 48.2 8.5
12 3 -8 47.4 8
12 3 -8 36.8 11.1
-12 3 8 48 6.8
12 3 -8 34 12.6
11 -3 -8 376.06 21.7
11 -3 -8 355.36 19
-11 3 8 357.16 16.2
11 3 -8 354.96 26
11 3 -8 348.77 23.6
11 3 -8 365.66 18.3
10 -3 -8 71.89 10.7
10 -3 -8 89.59 11.1
10 -3 -8 84.99 9.7
10 3 -8 103.89 14.6
10 3 -8 106.39 13.6
-10 3 8 99.59 8.2
10 3 -8 87.59 9.6
9 -3 -8 511.65 24.1
9 -3 -8 520.25 24.1
9 -3 -8 515.75 22.2
9 3 -8 528.15 29.3
9 3 -8 531.05 22
9 3 -8 562.94 27
-9 3 8 513.05 20.3
8 -3 -8 -3.3 4.1
8 -3 -8 1.8 3.4
-8 -3 8 3.4 2
8 -3 -8 5.4 4.9
8 3 -8 6.8 6.9
8 3 -8 -1.1 5.4
8 3 -8 1.2 3.1
-8 3 8 0.9 2.5
7 -3 -8 40.1 7
7 -3 -8 37.9 5.6
-7 -3 8 29.4 3.3
-7 -3 8 27.6 3.3
7 -3 -8 40 6.8
7 -3 -8 24.1 5.2
-7 3 8 39.7 5.4
7 3 -8 30 5.2
7 3 -8 35.9 8.1
-7 3 8 47.7 5.9
7 3 -8 36.2 7.1
6 -3 -8 207.08 12.1
6 -3 -8 188.28 12.4
-6 -3 8 217.98 8.6
6 -3 -8 195.48 12.9
-6 -3 8 209.98 8.8
6 -3 -8 214.78 11.2
-6 3 8 210.78 10.8
6 3 -8 210.48 11.3
-6 3 8 203.18 10.4
6 3 -8 220.48 15.7
6 3 -8 210.08 13.6
5 -3 -8 196.58 11.9
5 -3 -8 161.18 9.2
-5 -3 8 161.48 7.8
-5 -3 8 174.18 8.2
5 -3 -8 179.78 11.2
5 3 -8 175.88 11.2
5 3 -8 174.08 13.2
-5 3 8 175.28 9.3
4 -3 -8 33.4 6
4 -3 -8 39.1 4.9
-4 -3 8 39.6 4.5
4 -3 -8 40.2 6.5
-4 -3 8 48.9 4.9
-4 3 8 43.4 5.4
4 3 -8 29.2 6.3
4 3 -8 29.7 5.2
-3 -3 8 144.99 8
3 -3 -8 146.49 7.9
-3 -3 8 151.28 8.3
3 -3 -8 136.79 9.7
3 -3 -8 140.79 10.3
3 3 -8 155.78 7
3 3 -8 144.49 10.8
3 3 -8 147.99 8.8
-3 3 8 159.48 8.6
3 3 -8 159.98 6.5
-2 -3 8 27.5 4.4
2 -3 -8 22.8 5.2
2 -3 -8 27.8 5.6
-2 -3 8 25.8 4.1
2 3 -8 23.1 3.5
-2 3 8 29.5 4.1
-2 3 8 20.5 3.6
2 3 -8 30.6 3.3
2 3 -8 22.5 5.1
2 3 -8 19.9 3.6
-1 -3 8 1426.36 42.3
1 -3 -8 1441.16 44
1 -3 -8 1390.66 45.1
-1 -3 8 1408.46 42.7
1 3 -8 1371.06 39.7
-1 3 8 1438.76 42.1
-1 3 8 1432.66 41.4
1 3 -8 1458.15 44.4
1 3 -8 1469.75 41.7
0 -3 8 117.89 8.5
0 -3 8 115.29 8.1
0 -3 -8 130.69 9.5
0 -3 -8 120.09 9.7
0 -3 -8 129.69 7.7
0 3 8 137.59 7.4
0 3 -8 115.29 8.9
0 3 -8 126.69 6.6
0 3 8 132.29 7.8
0 3 -8 122.39 7.7
-1 -3 -8 2.7 2.4
1 -3 8 0.6 3
-1 -3 -8 -1.6 3
1 -3 8 1.5 2.8
-1 -3 -8 -1 2.7
1 3 8 -1.8 1.7
-1 3 -8 0.2 1.8
1 3 8 16.1 13.7
-1 3 -8 1.8 2.2
1 3 8 1.9 2.2
-2 -3 -8 120.99 9.3
2 -3 8 140.09 9.5
-2 -3 -8 142.99 8.3
2 -3 8 134.29 9.6
-2 -3 -8 133.09 10.3
-2 3 -8 149.19 8
2 3 8 139.99 21
2 3 8 136.89 7.8
-2 3 -8 147.69 9.1
2 3 8 152.58 8.5
3 -3 8 352.96 16.9
-3 -3 -8 391.16 17
3 -3 8 367.16 17.7
-3 -3 -8 347.47 14.7
-3 -3 -8 413.06 18.3
3 -3 8 397.96 17
3 3 8 394.86 15.3
-3 3 -8 350.46 16.1
3 3 8 370.06 29.2
3 3 8 347.17 14.7
-3 3 -8 352.36 14.7
-4 -3 -8 1.6 2.4
4 -3 8 -2.9 4.3
-4 -3 -8 3.9 3.9
4 -3 8 0.7 3.5
4 -3 8 -3.2 3.2
-4 -3 -8 4.8 3.8
4 3 8 6.9 2.8
-4 3 -8 3.5 2.7
-4 3 -8 -0.8 2.8
4 3 8 6.7 12.4
4 3 8 11.7 3.6
-5 -3 -8 7.8 4.6
-5 -3 -8 -0.2 2.7
5 -3 8 2.8 4.8
5 -3 8 -0.5 3.8
-5 -3 -8 -1.1 3.5
5 -3 8 -4.2 3.7
5 3 8 0.4 12.2
-5 3 -8 3.6 2.9
5 3 8 -0.5 2.4
5 3 8 4.7 3.3
-5 3 -8 0.2 3.2
-6 -3 -8 479.05 19.2
6 -3 8 506.75 22.2
-6 -3 -8 478.95 21.8
6 -3 8 490.55 21.6
6 -3 8 476.85 21
-6 -3 -8 455.75 20
-6 3 -8 489.45 21
6 3 8 476.35 32.2
-6 3 -8 442.76 19.5
6 3 8 461.35 19
-7 -3 -8 108.99 9.8
7 -3 8 93.49 10.7
-7 -3 -8 93.79 9.8
7 -3 8 100.39 11.1
-7 -3 -8 122.09 12.1
-7 3 -8 100.79 10.4
7 3 8 96.19 18.5
-7 3 -8 107.09 10.9
7 3 8 118.59 9.6
-8 -3 -8 513.15 21.7
8 -3 8 486.45 22.8
8 -3 8 512.05 24
-8 -3 -8 481.95 22.8
-8 -3 -8 496.25 20.7
-8 3 -8 506.95 22.6
-8 3 -8 491.15 21.9
8 3 8 461.35 33.1
8 3 8 492.65 20.9
-9 -3 -8 10.3 4.8
9 -3 8 8.7 5.7
-9 -3 -8 15.3 6.1
-9 -3 -8 19.6 5.4
-9 3 -8 16.1 5.8
9 3 8 14.6 12
9 3 8 14.5 5.1
-9 3 -8 10.6 5.4
-10 -3 -8 9.2 5.3
10 -3 8 9.1 5.4
-10 -3 -8 4.2 5.1
-10 -3 -8 10.7 5
10 3 8 6.7 11.3
10 3 8 8.7 4.9
-10 3 -8 0 4.3
-10 3 -8 5.2 4.7
11 -3 8 69.99 10.9
-11 -3 -8 51.59 8.4
-11 -3 -8 80.89 11.1
-11 -3 -8 82.59 10.2
-11 3 -8 78.19 10.5
-11 3 -8 54.19 9.2
11 3 8 89.19 18.4
11 3 8 76.59 10.3
-12 -3 -8 8.1 6.2
-12 -3 -8 13.8 6
12 -3 8 13.6 7.5
-12 -3 -8 20.7 6.6
-12 3 -8 4.3 5.9
12 3 8 11.7 12.3
-12 3 -8 12.9 6.1
-13 -3 -8 32.4 7.5
13 -3 8 58.29 11.4
-13 -3 -8 44.8 10
-13 3 -8 39.7 9.3
-13 3 -8 54.69 9.6
15 -4 -8 10.4 9.5
15 -4 -8 4.1 6.3
15 4 -8 6.7 11.8
15 4 -8 6.7 13.8
-15 4 8 8.8 5.1
14 -4 -8 99.59 12.6
14 -4 -8 104.09 15.1
-14 4 8 125.69 12.2
14 4 -8 83.29 16.7
14 4 -8 100.79 19.7
14 4 -8 67.09 10.3
13 -4 -8 7 5.5
13 -4 -8 6.7 7.5
-13 4 8 11.7 4.9
13 4 -8 10.8 5.5
13 4 -8 -2.7 9.3
13 4 -8 3.9 11.9
12 -4 -8 0.6 4.7
12 -4 -8 7.3 7.2
12 4 -8 17.3 11.7
12 4 -8 4.9 4.4
-12 4 8 9.7 4.5
12 4 -8 11 9.3
11 -4 -8 18.2 6.7
11 4 -8 0.6 3.6
11 4 -8 24.6 11.4
11 4 -8 -3.8 7
10 -4 -8 45.3 7.4
10 -4 -8 53.19 9.3
10 4 -8 56.09 11.4
-10 4 8 51.19 7.3
10 4 -8 50.39 7.6
10 4 -8 50.59 12.8
9 -4 -8 327.77 16.8
9 -4 -8 304.27 18.7
9 4 -8 332.57 24
9 4 -8 338.47 16.7
-9 4 8 325.77 15.9
9 4 -8 345.77 21.4
8 -4 -8 159.78 11.3
8 -4 -8 163.68 13.4
-8 -4 8 153.48 8
8 4 -8 184.28 11.6
-8 4 8 187.38 11.4
8 4 -8 150.78 16.8
-8 4 8 166.08 10.9
8 4 -8 147.39 14.9
-7 -4 8 124.29 7.6
7 -4 -8 117.99 11.1
7 -4 -8 136.09 9.5
-7 -4 8 117.79 7.2
7 -4 -8 113.79 11.2
7 4 -8 148.49 15.8
-7 4 8 123.29 9.2
7 4 -8 140.79 13.7
7 4 -8 124.29 9.5
-7 4 8 134.59 9.3
6 -4 -8 176.98 15.2
-6 -4 8 165.78 8.7
-6 -4 8 170.58 8.4
6 -4 -8 118.39 10.6
6 -4 -8 133.69 10.9
6 -4 -8 121.59 8.9
6 4 -8 150.58 12.7
-6 4 8 122.29 8.7
6 4 -8 116.19 12.7
-6 4 8 110.19 8.6
5 -4 -8 80.89 9.2
5 -4 -8 78.79 8.6
5 -4 -8 104.19 10.3
5 -4 -8 86.39 7
-5 -4 8 88.99 6.7
-5 -4 8 84.59 6.8
-5 4 8 94.49 7.5
5 4 -8 78.89 10.6
5 4 -8 84.69 9.2
-4 -4 8 34.3 5
4 -4 -8 35.7 6.4
4 -4 -8 42 5
-4 -4 8 46 5.4
4 -4 -8 41.3 7
4 4 -8 47.2 8.1
4 4 -8 42.6 6.4
-4 4 8 44.4 5.8
3 -4 -8 13.3 4.9
3 -4 -8 15.1 4.8
3 -4 -8 9.8 2.6
-3 -4 8 10.8 3.7
-3 -4 8 15.1 3.7
3 4 -8 9.5 5
-3 4 8 7.5 2.8
3 4 -8 14.8 2.9
3 4 -8 7.9 3.7
2 -4 -8 141.99 11.1
-2 -4 8 151.88 9.3
2 -4 -8 174.38 11.6
-2 -4 8 152.58 9.6
2 4 -8 143.69 10.8
-2 4 8 156.68 9.1
2 4 -8 146.89 7.9
2 4 -8 143.49 6.4
2 4 -8 137.49 8.1
1 -4 -8 909.41 32
-1 -4 8 906.51 30.3
1 -4 -8 857.41 32.6
-1 -4 8 847.42 30.3
1 4 -8 914.91 26.5
-1 4 8 887.21 45.6
-1 4 8 903.31 28.7
-1 4 8 955 29.9
1 4 -8 942.71 31.5
1 4 -8 912.31 28.9
0 -4 -8 110.29 11
0 -4 8 119.09 9.3
0 -4 -8 95.19 10
0 -4 8 113.89 8.9
0 4 8 137.49 22.8
0 4 -8 120.39 6.5
0 4 -8 107.49 7.8
0 4 8 101.09 7.6
0 4 8 110.79 7.3
0 4 -8 124.79 9.4
-1 -4 -8 719.83 27.5
1 -4 8 689.33 25.4
-1 -4 -8 639.04 25.7
1 -4 8 670.73 25.8
-1 -4 -8 676.23 23.2
-1 4 -8 665.53 24.3
1 4 8 699.83 23.1
1 4 8 701.43 23.9
-1 4 -8 670.73 21.9
-1 4 -8 689.93 24.2
1 4 8 638.84 38.9
2 -4 8 2.9 4.7
2 -4 8 0.9 3.8
-2 -4 -8 -4.5 3
-2 -4 -8 1.7 2.5
2 -4 8 -0.7 3.5
-2 -4 -8 0.3 3.9
-2 4 -8 2.7 2.3
2 4 8 1.3 2.9
2 4 8 -1.3 13.3
2 4 8 0 2.3
2 4 8 3.1 2.5
-2 4 -8 -2.1 4
-2 4 -8 -1.4 2.4
-3 -4 -8 279.57 16.1
3 -4 8 241.88 14.8
-3 -4 -8 256.37 14.4
3 -4 8 266.17 14.8
-3 -4 -8 245.58 12.2
3 -4 8 256.47 15
-3 4 -8 283.57 12.6
3 4 8 261.37 12.5
3 4 8 277.17 12.5
-3 4 -8 268.47 14.1
3 4 8 308.57 30.2
-4 -4 -8 83.89 7.9
-4 -4 -8 94.49 10.1
-4 -4 -8 70.39 9.6
4 -4 8 74.59 9.3
4 -4 8 84.19 9.6
4 -4 8 70.39 9.3
-4 4 -8 81.89 9
4 4 8 79.89 7.6
-4 4 -8 77.29 7.7
4 4 8 96.69 19.8
-5 -4 -8 2.9 4.9
-5 -4 -8 4.5 4.5
5 -4 8 3.3 5.1
5 -4 8 2 4.9
5 -4 8 4.6 4.9
-5 -4 -8 3.4 3.3
5 4 8 -1.1 11.4
-5 4 -8 2.9 3.8
-5 4 -8 -0.1 3
6 -4 8 48.3 8.7
6 -4 8 49.8 9.1
-6 -4 -8 63.39 7.5
-6 -4 -8 77.99 9.9
-6 -4 -8 72.99 10
6 -4 8 57.49 8.8
6 4 8 70.19 18.6
-6 4 -8 71.69 9.1
-6 4 -8 48.9 7.3
-7 -4 -8 2.7 5.2
-7 -4 -8 3.3 3.8
7 -4 8 3.4 5.3
-7 -4 -8 -1.9 4.6
7 -4 8 6.7 5.5
7 4 8 -2.7 12.4
-7 4 -8 -3.6 3.6
-7 4 -8 8.2 4.6
-8 -4 -8 11.3 5.4
-8 -4 -8 10.5 5
8 -4 8 10.2 6.1
-8 -4 -8 16.2 6.7
8 -4 8 4.2 5.6
-8 4 -8 16.3 5.3
8 4 8 10.2 11.6
-8 4 -8 16.4 5.7
-9 -4 -8 17.4 6.5
-9 -4 -8 17.1 4.9
-9 -4 -8 14.5 5.7
9 -4 8 9.5 6.4
-9 4 -8 15.8 6
-9 4 -8 7.1 4.7
9 4 8 9.7 11.9
-10 -4 -8 9.2 5.9
-10 -4 -8 3.7 5.9
10 -4 8 18.4 7
-10 4 -8 11.2 5.7
10 4 8 -2 12.1
-10 4 -8 15.9 6.6
-11 -4 -8 0 5.6
-11 -4 -8 19.7 6.5
11 -4 8 2.9 6.4
-11 4 -8 11.4 6.3
11 4 8 15.8 12.7
-11 4 -8 10.4 7.5
12 -4 8 22.2 8.6
-12 4 -8 26.7 7.6
-12 4 -8 14.3 6.6
12 4 8 13.7 14
-13 -4 -8 54.69 9.3
13 -4 8 49.2 11
13 4 8 67.89 19
-13 4 -8 66.29 11.6
-13 4 -8 51.69 10.2
14 -5 -8 19.8 7.6
14 5 -8 4 14.3
-14 5 8 27.2 7.2
14 5 -8 4.7 11.3
13 -5 -8 9.2 8.9
13 -5 -8 1.6 5.4
-13 5 8 18.8 6
13 5 -8 9.5 13.4
13 5 -8 17.3 11.9
12 -5 -8 31.1 7.7
12 -5 -8 35.5 9.1
-12 5 8 37 7.6
12 5 -8 9.5 11
12 5 -8 45.4 14.5
11 -5 -8 54.59 8.9
11 -5 -8 41.3 8.9
-11 5 8 47.3 7.8
11 5 -8 36.4 13.6
11 5 -8 50.79 12.6
10 -5 -8 15.6 6.9
10 -5 -8 -0.9 4.3
10 5 -8 -1 8.6
10 5 -8 3.6 8.1
-10 5 8 -0.2 3.3
9 -5 -8 70.39 10.1
9 -5 -8 64.49 8.4
-9 -5 8 58.39 6.5
9 5 -8 39.6 12
9 5 -8 68.29 11.8
-9 5 8 57.79 8.3
-9 5 8 66.29 8.4
8 -5 -8 2.5 5
8 -5 -8 4.2 5
8 -5 -8 5.4 3.9
-8 -5 8 1.3 3.6
-8 5 8 -1.7 2.9
8 5 -8 -0.2 6.4
8 5 -8 5.9 7.8
-8 5 8 1.8 3.2
7 -5 -8 36.8 7.8
-7 -5 8 45.1 6.4
7 -5 -8 46.7 8.8
-7 -5 8 44.6 6.2
7 -5 -8 57.39 7.2
-7 5 8 42.6 7.3
-7 5 8 46.1 7.2
7 5 -8 53.49 10.8
7 5 -8 51.79 10
-6 -5 8 45.6 6.4
-6 -5 8 54.99 6.9
6 -5 -8 49.3 6.4
6 -5 -8 57.59 9.5
6 -5 -8 65.39 9.6
-6 5 8 47 6.9
6 5 -8 46.2 10.4
6 5 -8 51.59 9.6
-5 -5 8 69.69 7.8
5 -5 -8 69.79 6.9
5 -5 -8 78.39 10
-5 -5 8 70.79 7.8
5 -5 -8 68.29 9.7
5 5 -8 99.89 12.3
5 5 -8 97.29 10.6
-5 5 8 87.09 9.3
-4 -5 8 60.09 7.5
4 -5 -8 47.5 5.3
4 -5 -8 67.59 9.7
4 -5 -8 54.89 8.5
-4 -5 8 46 6.9
-4 5 8 53.09 6.7
4 5 -8 44.6 7.1
-4 5 8 64.29 19.3
4 5 -8 56.19 9.4
3 -5 -8 46.1 8
3 -5 -8 25.9 7.1
-3 -5 8 35.1 6.1
-3 -5 8 37.9 6.3
3 -5 -8 38.3 4.8
3 5 -8 37.2 7.6
-3 5 8 39.6 6
-3 5 8 68.19 19.7
-2 -5 8 77.99 9
2 -5 -8 89.79 11.1
-2 -5 8 107.19 10.3
2 -5 -8 81.99 10.3
2 5 -8 82.79 9.6
2 5 -8 87.79 6.8
-2 5 8 93.29 20.8
-2 5 8 95.49 8
1 -5 -8 63.29 9
-1 -5 8 55.49 7.9
-1 -5 8 65.39 8.2
1 -5 -8 39.7 7.6
-1 5 8 69.19 7.6
-1 5 8 52.69 6.2
1 5 -8 54.39 7.6
-1 5 8 55.99 17.9
1 5 -8 64.69 6.8
0 -5 8 213.08 13.8
0 -5 -8 232.98 15.5
0 -5 -8 195.38 13.9
0 -5 8 229.18 14.2
0 5 -8 244.68 13.1
0 5 8 205.48 11.1
0 5 -8 232.08 12.3
0 5 8 182.68 25.4
0 5 8 251.87 12.6
1 -5 8 8.5 5.4
-1 -5 -8 7.5 4.8
1 -5 8 11.3 5.7
1 -5 8 2 4.5
-1 -5 -8 11.3 5.9
1 5 8 19.1 4.2
1 5 8 11.9 4
-1 5 -8 16.2 3.5
1 5 8 28.5 15.7
-1 5 -8 23.9 5.2
2 -5 8 40.9 7.6
-2 -5 -8 39.1 5.7
-2 -5 -8 31.6 7.5
2 -5 8 27 7.2
-2 -5 -8 50.09 8.8
2 -5 8 24.1 6.6
2 5 8 49.1 18
-2 5 -8 42.3 6.5
-2 5 -8 41.8 5.4
2 5 8 48 6.4
-3 -5 -8 168.88 9.9
-3 -5 -8 164.48 15.1
3 -5 8 183.88 13.7
3 -5 8 135.79 12.9
3 -5 8 173.18 12.9
-3 -5 -8 133.89 12.7
-3 5 -8 143.39 9.1
-3 5 -8 158.58 11.4
3 5 8 189.58 26.8
3 5 8 154.18 9.9
4 -5 8 1.9 5.5
-4 -5 -8 4.2 3.7
4 -5 8 -1.6 5
4 -5 8 -0.1 5
-4 -5 -8 -1.8 5.3
-4 -5 -8 2.7 5
-4 5 -8 -2 2.9
-4 5 -8 8.9 4.3
4 5 8 -1.8 14.2
5 -5 8 1.1 5.6
5 -5 8 -2.7 4.8
-5 -5 -8 7.1 3.8
5 -5 8 8 6
-5 -5 -8 -2 5.4
-5 -5 -8 4.1 5.5
-5 5 -8 7.4 4.7
5 5 8 6.6 13.7
-5 5 -8 3.9 3.4
6 -5 8 341.07 20.2
-6 -5 -8 346.67 18.6
6 -5 8 324.67 19.5
-6 -5 -8 351.66 20.1
-6 -5 -8 340.87 15.7
6 -5 8 340.17 18.8
6 5 8 405.66 32.6
-6 5 -8 343.07 18.5
-6 5 -8 341.87 16.9
-7 -5 -8 57.99 10
-7 -5 -8 71.29 10
7 -5 8 44.3 8.5
7 -5 8 47.8 13.4
7 -5 8 51.29 9.6
-7 5 -8 35 7.2
-7 5 -8 33.8 6.2
7 5 8 35.3 15.1
-8 -5 -8 203.38 15.9
-8 -5 -8 243.88 15.6
8 -5 8 223.38 16.8
8 -5 8 229.78 16.4
8 5 8 164.98 25.4
-8 5 -8 237.58 15.7
-8 5 -8 197.78 13.8
9 -5 8 -12.7 7.7
9 -5 8 1.9 5.8
-9 -5 -8 -7 4.7
-9 -5 -8 -8 4.9
-9 5 -8 6 4.7
9 5 8 5.2 11.4
-9 5 -8 1.4 4.5
-10 -5 -8 -6.8 5.3
-10 -5 -8 9.2 7.1
10 -5 8 5.1 6.3
10 5 8 7.7 12.8
-10 5 -8 0.7 4.8
-10 5 -8 4.6 5
-11 -5 -8 6.1 6.2
-11 -5 -8 13.6 7.9
11 -5 8 -5.7 5.8
11 5 8 -0.9 11.8
-11 5 -8 2.8 5.2
-11 5 -8 -2.1 4.4
12 -5 8 3 7
-12 -5 -8 6.9 6
-12 5 -8 -4.7 4.9
-12 5 -8 -2 4.8
12 5 8 14.5 14.3
13 -6 -8 27.6 8
-13 6 8 37.2 8.5
13 6 -8 1.1 14.6
13 6 -8 11.4 11.8
12 -6 -8 19.9 7
12 6 -8 27.3 14.8
12 6 -8 18.7 11.9
-12 6 8 18.4 6.4
11 -6 -8 24.2 7.3
-11 6 8 22.6 6.4
-11 6 8 35 7.9
11 6 -8 10.6 11.2
11 6 -8 -0.4 10.9
10 -6 -8 0.4 4.6
10 6 -8 -5.4 9.2
10 6 -8 -2.6 10.3
-10 6 8 3.8 4.5
-10 6 8 -1.9 4.2
-9 -6 8 16.6 5.6
9 -6 -8 9.3 7.4
-9 6 8 38.9 7.7
-9 6 8 21.4 6.2
9 6 -8 3.3 9.5
9 6 -8 20.2 9.7
-8 -6 8 12.1 4.8
8 -6 -8 2.2 5.7
8 -6 -8 2.1 5.2
8 6 -8 -4.7 7.2
-8 6 8 1.5 3.8
8 6 -8 -9.6 7.7
-8 6 8 6.8 4.3
7 -6 -8 2.9 5.6
7 -6 -8 12.4 6.5
-7 -6 8 4 4.4
-7 -6 8 4.2 4.3
7 6 -8 -5.8 8.2
-7 6 8 3.3 4
-7 6 8 2.1 3.7
7 6 -8 -0.6 8
6 -6 -8 11.9 6.6
-6 -6 8 2.9 4.8
6 -6 -8 2.8 6.4
-6 -6 8 -3.2 4
6 6 -8 3.3 7.9
-6 6 8 2.8 3.4
5 -6 -8 27 8.2
-5 -6 8 28.6 6.5
5 -6 -8 42.6 9.2
-5 -6 8 30.3 6.9
-5 6 8 28.5 17
-5 6 8 26.7 5.8
5 6 -8 27 9
4 -6 -8 -7.2 4.9
4 -6 -8 -2.1 6
-4 -6 8 0.7 4.8
-4 -6 8 5.1 4.9
4 6 -8 1 6.1
-4 6 8 1 15.9
-4 6 8 0.3 3.3
3 -6 -8 -4.9 5.1
-3 -6 8 4.2 5.3
3 -6 -8 -9.9 5
-3 -6 8 -5.5 4.2
-3 6 8 -5.2 15.5
-3 6 8 -2 2.9
3 6 -8 2.2 5.8
-2 -6 8 43.7 8
-2 -6 8 24.7 7.4
2 -6 -8 36.5 8.9
2 -6 -8 40.7 8.9
-2 6 8 34.3 6.5
-2 6 8 -0.6 15.9
-1 -6 8 40.6 8.4
-1 -6 8 49.4 8.9
1 -6 -8 52.39 9.6
1 -6 -8 40.8 8.9
-1 6 8 14.3 15.8
-1 6 8 43.9 6.5
1 6 -8 52.69 6.9
-1 6 8 53.89 7.7
0 -6 -8 38 8.6
0 -6 -8 35.4 8.9
0 -6 8 44.5 8.8
0 -6 8 35.6 8
0 -6 8 25.4 6.8
0 6 -8 43 6.8
0 6 8 33.5 6.6
0 6 8 33.6 5.8
0 6 8 28.2 16.6
1 -6 8 124.89 13.7
-1 -6 -8 77.89 11.4
1 -6 8 96.89 12.2
1 -6 8 81.59 9.7
-1 -6 -8 112.29 13.1
-1 6 -8 141.39 10.5
1 6 8 128.39 9.8
1 6 8 122.69 21.6
2 -6 8 346.87 20.1
2 -6 8 336.57 18
-2 -6 -8 347.87 20.8
2 -6 8 339.37 19.6
-2 -6 -8 336.57 20
2 6 8 369.56 16.6
2 6 8 343.87 33.7
-2 6 -8 361.96 17.9
-3 -6 -8 9.8 6.8
3 -6 8 15 6.8
-3 -6 -8 20 7.2
3 -6 8 12 6.4
3 -6 8 1.7 5
-3 6 -8 8.3 4.6
-3 6 -8 17.5 5.6
4 -6 8 475.45 21.5
4 -6 8 437.26 23.1
4 -6 8 450.55 24
-4 -6 -8 441.06 22.6
-4 -6 -8 494.95 24.7
-4 6 -8 434.06 18.4
4 6 8 362.56 31.4
-4 6 -8 457.45 21.4
5 -6 8 15.8 5.9
-5 -6 -8 -2.5 5.8
-5 -6 -8 17.7 7.2
5 -6 8 12.2 7.2
5 -6 8 19.4 7.7
-5 6 -8 20.3 6.3
-5 6 -8 13.3 4.7
5 6 8 27.5 14.7
-6 -6 -8 -2.8 4.5
6 -6 8 -4.3 4.9
6 -6 8 -0.2 5.7
-6 -6 -8 7.4 6
6 -6 8 -3.1 5.8
-6 6 -8 5.4 4.8
6 6 8 8.1 13
-6 6 -8 4.6 4
7 -6 8 5.1 5.6
7 -6 8 5.6 6.4
-7 -6 -8 5.1 5.5
7 -6 8 19 12
-7 -6 -8 7.2 7.1
-7 6 -8 6.3 5.4
7 6 8 -3.1 12.5
-7 6 -8 2.6 4
8 -6 8 29.9 9.2
8 -6 8 21.6 7.5
-8 -6 -8 20.8 8.3
-8 -6 -8 36.5 8.4
-8 6 -8 39.9 8.9
8 6 8 60.39 17.9
-8 6 -8 37.1 7.4
9 -6 8 -4.3 5.4
9 -6 8 5.2 7.8
-9 -6 -8 8.3 6.3
-9 -6 -8 -3.8 5.9
-9 6 -8 5.1 5
-9 6 -8 0.1 5
9 6 8 -2.1 12.2
-10 -6 -8 8.3 6.6
-10 -6 -8 15.8 7.5
10 -6 8 1.9 6.9
-10 6 -8 10.2 6
-10 6 -8 16 6.5
10 6 8 21.3 15.6
-11 -6 -8 6.8 6.8
11 -6 8 1.8 6.7
-11 6 -8 4.7 5.8
-11 6 -8 3.8 5.4
11 6 8 10.4 13.7
12 7 -8 -5.5 11.7
12 7 -8 -2.9 14.6
-11 7 8 12 6.4
-11 7 8 4.2 5
11 7 -8 -1.9 13.6
-10 7 8 -1.6 3.8
10 7 -8 -12 11
-10 7 8 2.4 4.8
-9 -7 8 6.5 6
9 7 -8 18.3 12.1
-9 7 8 4.2 4.7
-9 7 8 6.8 5.4
-8 -7 8 5.4 5.9
8 -7 -8 0.1 7
-8 7 8 0.8 4.4
-8 7 8 0.9 4
8 7 -8 -1.3 10
-7 -7 8 53.29 9
7 -7 -8 44 10.6
-7 -7 8 68.09 9.4
7 7 -8 41.5 13.2
-7 7 8 63.69 9.5
6 -7 -8 48.5 10.4
-6 -7 8 47.2 8.9
-6 -7 8 42.1 8.3
6 7 -8 56.09 12.4
-6 7 8 45.1 8.1
5 -7 -8 9.8 7.5
5 -7 -8 12.8 7.7
-5 -7 8 8.8 6.1
-5 -7 8 13.3 6
-5 7 8 14.2 5.3
-4 -7 8 164.48 14.7
-4 -7 8 169.58 14.2
3 -7 -8 487.25 26.4
3 -7 -8 452.55 24.3
-3 -7 8 451.25 22.4
-3 -7 8 439.26 22.7
-3 7 8 443.46 20.6
-3 7 8 359.96 29.4
-2 -7 8 10.8 6
2 -7 -8 0.8 5.5
2 -7 -8 -4.9 5.9
-2 -7 8 5.1 6
-2 7 8 1.4 12.4
-2 7 8 5.4 3.9
1 -7 -8 300.47 21
-1 -7 8 271.87 17.9
1 -7 -8 315.77 20.1
-1 -7 8 299.27 19.2
-1 7 8 285.37 30.9
-1 7 8 299.77 15.2
-1 7 8 283.77 15.9
0 -7 8 227.38 17
0 -7 -8 260.87 19.5
0 -7 -8 231.58 17.8
0 -7 8 289.97 18.2
0 7 8 281.67 30
0 7 8 266.97 14.9
-1 -7 -8 29.9 8.7
1 -7 8 48.5 9.7
1 -7 8 24.7 7.6
-1 -7 -8 17.9 7.4
1 7 8 16 5.2
1 7 8 14.1 13.8
-2 -7 -8 75.09 11.5
2 -7 8 84.59 12.3
-2 -7 -8 76.19 12.1
2 -7 8 77.49 11.7
-2 7 -8 62.99 8.8
2 7 8 82.39 19.7
3 -7 8 319.87 21
-3 -7 -8 368.36 22.7
3 -7 8 341.87 21.5
-3 -7 -8 335.17 20.6
3 7 8 279.67 31.8
-3 7 -8 335.67 18.4
-4 -7 -8 7 7.1
4 -7 8 12.8 7.4
-4 -7 -8 2.9 6.1
4 -7 8 11.9 7.8
-4 7 -8 17.6 6
4 7 8 29.8 14.7
-5 -7 -8 94.19 13
5 -7 8 103.69 14.6
5 -7 8 94.59 13.5
-5 -7 -8 97.09 13.5
-5 7 -8 113.89 13.4
5 7 8 107.39 23.6
6 -7 8 5.3 7
6 -7 8 1.2 7.3
-6 -7 -8 -4.2 5.8
6 -7 8 -1.5 6.5
-6 -7 -8 -4 6
-6 7 -8 3.6 5.5
6 7 8 -0.2 11.5
7 -7 8 -1.5 5.3
-7 -7 -8 -2.7 6.6
-7 -7 -8 -6 6
7 -7 8 -1.6 6.7
7 7 8 16.9 13.8
-7 7 -8 -0.8 4.1
-7 7 -8 6.4 6.3
-8 -7 -8 5.6 7.1
8 -7 8 2.5 6.3
8 -7 8 9.4 8.7
-8 -7 -8 4 7.1
8 7 8 23.4 15.4
-8 7 -8 5.4 6.1
-8 7 -8 10.7 5.7
-9 -7 -8 14.6 7.3
-9 -7 -8 31.6 9.4
9 -7 8 17.4 9.9
9 -7 8 21.1 8.2
-9 7 -8 28.6 9.1
-9 7 -8 19.7 6.7
9 7 8 20.8 15.2
10 7 8 7.1 15.5
-10 -8 8 12.3 7.4
10 8 -8 -9.3 14.4
-10 8 8 16.7 7.7
-9 -8 8 0.9 6.7
9 8 -8 -6.3 12.4
-9 8 8 -0.6 4.4
-8 -8 8 16.7 7.5
8 -8 -8 21.7 9.7
-8 8 8 1.1 4.5
8 8 -8 -7.3 17.3
7 -8 -8 3.7 8.2
-7 -8 8 -0.6 6.7
-7 -8 8 3.2 7.1
-7 8 8 13.6 6.3
-6 -8 8 -5.9 6.5
-6 -8 8 0.1 5.8
6 -8 -8 12.8 9.7
-6 8 8 1.6 4.4
5 -8 -8 12 8.4
-5 -8 8 30.8 8.3
-5 -8 8 28.1 9.1
5 -8 -8 44.8 11.2
-5 8 8 19.4 6.4
4 -8 -8 -0.2 6.4
4 -8 -8 -2.3 7.4
-4 -8 8 10.4 7.3
-4 -8 8 -1.9 6.8
-4 8 8 14.2 6.1
3 -8 -8 5.6 7.5
-3 -8 8 14.6 8.1
3 -8 -8 21.5 9.4
-3 -8 8 15.2 7.4
-3 8 8 7.8 5.3
2 -8 -8 96.59 14.4
-2 -8 8 84.99 12.6
2 -8 -8 104.39 15.4
-2 -8 8 128.19 15
-2 8 8 164.38 15.2
-2 8 8 121.29 21.4
1 -8 -8 1.2 8
-1 -8 8 16.4 8.5
-1 -8 8 17.1 8.2
1 -8 -8 18.2 8.6
-1 8 8 33.1 14.9
-1 8 8 19.5 6.1
0 -8 8 5.8 7.4
0 -8 8 11.8 7.7
0 -8 -8 9.5 7.7
0 -8 -8 14.2 8.3
0 8 8 14.8 5.8
0 8 8 28.8 15.2
-1 -8 -8 12.7 7.6
1 -8 8 4.2 7
-1 -8 -8 6.5 7.2
1 -8 8 -1.1 6.6
1 8 8 -1.1 12
2 -8 8 18.9 9.1
-2 -8 -8 11.2 8.2
2 -8 8 12.7 7.6
-2 -8 -8 21.2 9.1
2 8 8 35.2 16
-2 8 -8 15.6 6.1
-3 -8 -8 12.9 8
-3 -8 -8 5.8 7.4
3 -8 8 7.3 7.3
3 -8 8 23.8 9.3
3 8 8 17.6 14.4
-3 8 -8 10.9 6.3
-4 -8 -8 25 9.6
-4 -8 -8 26.3 9.6
4 -8 8 17.6 9.1
4 -8 8 50.79 12.3
4 8 8 5.7 13.4
-4 8 -8 37.8 8.9
-5 -8 -8 13.2 7.6
5 -8 8 11.4 8.5
5 -8 8 15.1 9
-5 -8 -8 -0.7 7.2
-5 8 -8 7.9 6.3
5 8 8 16.9 14.4
6 -8 8 20.1 9.7
-6 -8 -8 32.4 9.8
-6 -8 -8 42.6 10.5
6 -8 8 24.2 9.8
6 8 8 58.89 19.4
-6 8 -8 22.5 8.4
-7 -8 -8 -0.8 7.8
-7 -8 -8 5.2 7.5
7 -8 8 5.5 9
-7 8 -8 1.1 5.9
7 8 8 36.2 16.6
-8 -8 -8 21.3 9.3
8 -8 8 5.2 9.6
8 8 8 27.9 17.9
-7 -9 8 31.5 10.1
7 -9 -8 13.3 12.3
-7 9 8 26.2 7.8
-6 -9 8 1.2 8.1
6 -9 -8 -5.2 8.7
-6 -9 8 8.5 8
-6 9 8 1 5
-5 -9 8 1.5 6.9
5 -9 -8 2.4 10.2
5 -9 -8 5.3 9.3
-5 -9 8 8.5 8.1
-5 9 8 3.6 5.8
4 -9 -8 8.5 10.6
-4 -9 8 9.2 8.2
-4 -9 8 14.7 8.4
4 -9 -8 6.1 8.3
-4 9 8 -4.4 4.5
-3 -9 8 2.5 8.4
-3 -9 8 17.9 8.9
3 -9 -8 9.1 10.6
3 -9 -8 13 8.7
-3 9 8 15.3 6.7
2 -9 -8 8.3 9.6
2 -9 -8 2.9 8.6
-2 -9 8 3.2 7.8
-2 -9 8 0.6 6.4
-2 9 8 1.7 5
1 -9 -8 9.1 9.6
-1 -9 8 -2 6.6
-1 -9 8 12.5 8.4
1 -9 -8 10 9.6
-1 9 8 25 13.3
0 -9 8 37.6 10.8
0 -9 -8 15.2 9.6
0 -9 8 21 8.9
0 -9 -8 7.4 8.3
0 9 8 14.9 14
-1 -9 -8 3.6 8.5
1 -9 8 12.7 8.8
1 -9 8 8.4 8.2
-1 -9 -8 -8.9 7.3
1 9 8 22 14.3
-2 -9 -8 -5.2 7.2
2 -9 8 13.8 8.6
-2 -9 -8 8.2 8.5
2 -9 8 12 8.6
2 9 8 27.6 14.7
-3 -9 -8 0 7.1
3 -9 8 -0.9 7.8
-3 -9 -8 -10.8 5.9
3 -9 8 21.1 10
3 9 8 26.7 15
4 -9 8 5.2 8.6
-4 -9 -8 5.7 8.2
4 -9 8 4.6 8.5
-4 -9 -8 -0.3 8.2
-4 9 -8 1.8 5.4
4 9 8 7.5 13.2
-5 -9 -8 2.8 8.4
5 -9 8 21.3 10.4
5 -9 8 6.5 8.4
-5 -9 -8 2.9 8.2
5 9 8 29.1 16.4
-5 9 -8 9.1 7.8
16 0 -9 4.6 9.6
16 0 -9 -12.1 10.4
16 0 -9 -1.3 4.4
15 0 -9 -11.1 8.1
15 0 -9 -16.8 6.9
15 0 -9 1.6 4.6
14 0 -9 -4.5 9.5
14 0 -9 2.4 8.3
14 0 -9 -1.8 3.8
13 0 -9 1.7 7.7
13 0 -9 0.5 4.1
13 0 -9 -6.4 7.7
12 0 -9 4.9 7.9
12 0 -9 -2.1 6.6
12 0 -9 -0.8 3.2
11 0 -9 1.4 3.8
11 0 -9 1.7 7
11 0 -9 3 5.9
10 0 -9 -9.9 5.5
10 0 -9 3.8 4.1
10 0 -9 1.7 6.2
9 0 -9 -5.3 4.6
9 0 -9 -2 2.8
9 0 -9 10.2 6.1
-9 0 9 -0.4 1.4
-8 0 9 1 1.4
8 0 -9 -3.9 3.9
8 0 -9 2.6 3
8 0 -9 -0.3 4.6
7 0 -9 3.4 3.6
-7 0 9 0.7 1.4
7 0 -9 6.4 4.6
7 0 -9 -1.4 2.3
-6 0 9 0.3 1.5
6 0 -9 6.8 3.6
6 0 -9 1.2 2.4
6 0 -9 -4.8 3.7
-5 0 9 2.4 1.6
5 0 -9 3.2 4.2
5 0 -9 1.7 1.8
5 0 -9 2.3 2.3
5 0 -9 1.9 3.6
-5 0 9 0.8 1.6
-4 0 9 -3.1 1.2
4 0 -9 -1 3.9
4 0 -9 -4.2 1.9
4 0 -9 -0.9 3.3
4 0 -9 -1.1 1.9
-4 0 9 0.4 1.5
-3 0 9 0.3 1.9
-3 0 9 0.1 1.9
3 0 -9 -0.2 2.6
2 0 -9 -3.8 2.6
2 0 -9 0.7 2.3
-2 0 9 1.3 2.2
-2 0 9 2.9 2.4
1 0 -9 1.8 2.9
-1 0 9 3.4 2.4
-1 0 9 -2.3 2.1
1 0 -9 -2 2
0 0 9 0.8 2.6
0 0 9 -0.9 2.5
0 0 -9 0.7 2.6
0 0 -9 1.5 3.2
-1 0 -9 -0.6 2.2
1 0 9 1.1 2.4
-1 0 -9 2.2 2.7
-1 0 -9 2.4 3.2
1 0 9 2.1 2.6
2 0 9 0.5 2.3
-2 0 -9 0.6 2.9
-2 0 -9 -2.4 2.4
2 0 9 0.3 2.5
-2 0 -9 1 2.5
3 0 9 1.5 2.5
-3 0 -9 3.3 2.8
-3 0 -9 3.9 2.9
-3 0 -9 0.1 2.7
3 0 9 7.3 3.2
4 0 9 -0.6 2.2
-4 0 -9 0.1 2.5
4 0 9 0.6 4
4 0 9 -4.8 2.6
-4 0 -9 0.7 3.2
-4 0 -9 -4 2
5 0 9 0.8 4.2
5 0 9 -0.7 2.6
-5 0 -9 -0.8 2.9
-5 0 -9 5.3 3.3
-5 0 -9 0.7 2.5
5 0 9 -1.7 2.7
5 0 9 0.8 11.1
-6 0 -9 -1.1 3
6 0 9 0.4 3
6 0 9 3.9 4.5
6 0 9 4.6 11.1
-6 0 -9 8.1 3.9
-6 0 -9 -0.4 3.2
-7 0 -9 -1 3.1
-7 0 -9 4 3.8
-7 0 -9 1.7 3.8
7 0 9 3.2 10.1
7 0 9 -0.7 3.6
7 0 9 0.1 4.2
-8 0 -9 -1.3 3.7
-8 0 -9 3.5 4.2
8 0 9 -4.9 9.5
-8 0 -9 1.7 3.8
8 0 9 2 4.9
-9 0 -9 -2.2 3.6
-9 0 -9 -6.3 3.3
-9 0 -9 -1.5 4
9 0 9 2.5 4.5
-10 0 -9 0.2 4
-10 0 -9 -0.7 3.9
10 0 9 -1.7 4.3
-10 0 -9 0.1 4.3
-11 0 -9 4.1 4.5
11 0 9 1.2 4.5
-11 0 -9 1 4.5
-11 0 -9 2.4 4.4
-12 0 -9 1.6 5
12 0 9 -1 5
-12 0 -9 3.7 4.7
-12 0 -9 -1.8 4.6
-13 0 -9 4 5
-13 0 -9 0.8 4.9
13 0 9 1.7 5.4
-13 0 -9 -0.3 4.2
-14 0 -9 2.4 5.6
14 0 9 -1.9 5.3
-14 0 -9 10.7 5.4
-14 0 -9 6.9 5.6
16 -1 -9 54.29 15.6
16 -1 -9 68.69 15.3
16 -1 -9 71.19 11.8
16 1 -9 70.39 15.7
16 1 -9 65.79 11.2
16 1 -9 68.69 18
15 -1 -9 -8.4 9.5
15 -1 -9 3.9 9
15 -1 -9 5.5 5.3
15 1 -9 19.5 10.4
15 1 -9 19.1 12.4
15 1 -9 21.1 7.3
14 -1 -9 6.2 8.4
14 -1 -9 -2.6 9.2
14 -1 -9 3.8 4.8
14 1 -9 4.8 10.8
14 1 -9 7.9 9
14 1 -9 6.4 5.4
13 -1 -9 20.5 6.2
13 -1 -9 15.5 8.6
13 -1 -9 16.9 9.6
13 1 -9 23.8 6.2
13 1 -9 34.9 10.1
13 1 -9 28.7 11.7
12 -1 -9 40.1 7.7
12 -1 -9 37.9 9.8
12 -1 -9 16.8 8.8
12 1 -9 36.8 10.8
12 1 -9 38.2 10.1
12 1 -9 38 7.5
11 -1 -9 97.99 12.7
11 -1 -9 122.69 14.4
11 -1 -9 99.79 10.5
-11 1 9 105.19 6.9
11 1 -9 91.39 10.4
11 1 -9 79.59 12.3
11 1 -9 72.59 13
10 -1 -9 139.09 14.1
10 -1 -9 129.39 14.6
10 -1 -9 126.99 10.9
10 1 -9 145.69 11.3
10 1 -9 127.39 15.3
-10 1 9 131.79 7.7
10 1 -9 149.19 15.2
9 -1 -9 10.6 5.8
9 -1 -9 9 6.1
9 -1 -9 14 4.3
-9 1 9 14.3 3.1
9 1 -9 10.6 4.1
-9 1 9 8.5 2.7
9 1 -9 8.7 6.4
9 1 -9 13.2 6.5
8 -1 -9 117.19 11.2
8 -1 -9 129.79 12.5
8 -1 -9 112.29 9.3
8 1 -9 120.59 12
8 1 -9 150.78 10.2
-8 1 9 129.89 7.1
-8 1 9 122.89 6.9
8 1 -9 119.69 13.4
7 -1 -9 16.3 5.7
-7 -1 9 17.9 2.4
7 -1 -9 12.4 5
7 -1 -9 17.9 4.1
-7 -1 9 23 2.9
-7 1 9 24.9 3.5
7 1 -9 30.5 6.4
7 1 -9 15.6 3.9
7 1 -9 21.8 6.7
6 -1 -9 117.09 6.7
6 -1 -9 111.69 9.5
6 -1 -9 131.89 10.9
-6 -1 9 104.19 5.2
-6 -1 9 112.19 5.6
6 -1 -9 92.29 7.6
6 1 -9 110.99 11.3
6 1 -9 102.29 8
-6 1 9 100.79 6.1
6 1 -9 112.49 9.4
5 -1 -9 17.7 3.7
5 -1 -9 12.6 3.2
5 -1 -9 26.4 5.9
-5 -1 9 19 2.8
-5 -1 9 21.9 2.9
5 -1 -9 16.4 4.7
-5 1 9 19.3 3.2
5 1 -9 21.1 5.4
5 1 -9 13.3 4.1
5 1 -9 21.1 4.2
-4 -1 9 14 2.7
4 -1 -9 11.6 3.2
4 -1 -9 18 3.9
-4 -1 9 12.1 2.4
4 -1 -9 13.6 5
4 1 -9 15 2.6
4 1 -9 14.7 4.1
4 1 -9 20 5.5
-4 1 9 13.3 2.8
-4 1 9 15.1 2.7
-3 -1 9 90.89 5.8
3 -1 -9 91.39 7.2
-3 -1 9 88.89 5.6
3 1 -9 96.99 5.8
-3 1 9 89.29 5.7
3 1 -9 94.59 6
-3 1 9 90.69 6.1
3 1 -9 88.69 7.2
3 1 -9 100.29 9.9
2 -1 -9 241.48 12.2
-2 -1 9 261.17 10.9
2 -1 -9 277.47 11.5
-2 -1 9 270.87 11.3
2 1 -9 278.47 10.9
-2 1 9 261.37 10.7
2 1 -9 253.57 11.1
-2 1 9 259.87 11.1
1 -1 -9 59.29 6.9
1 -1 -9 67.59 5.6
-1 -1 9 72.29 6.2
-1 -1 9 62.59 6
1 1 -9 67.49 5.4
1 1 -9 62.29 6.2
-1 1 9 50.69 5.3
-1 1 9 69.09 5.7
0 -1 -9 82.89 6.3
0 -1 -9 73.49 7.6
0 -1 -9 66.79 6.8
0 -1 9 60.49 6.1
0 -1 9 74.09 6.6
0 1 -9 67.99 5.5
0 1 -9 67.49 6.6
0 1 9 72.89 5.8
0 1 9 76.99 6.2
1 -1 9 510.45 18.2
-1 -1 -9 490.55 19.9
-1 -1 -9 502.75 18.1
1 -1 9 507.35 18.7
-1 -1 -9 503.45 18.7
-1 1 -9 466.25 18.7
-1 1 -9 533.85 18.1
-1 1 -9 523.05 18.2
1 1 9 506.85 17.7
1 1 9 528.35 18.5
-2 -1 -9 66.09 6.5
2 -1 9 66.39 6.5
-2 -1 -9 51.39 6.6
2 -1 9 65.99 6.9
-2 -1 -9 52.99 6.2
2 1 9 73.39 6.2
2 1 9 66.29 6.3
-2 1 -9 52.79 6.3
-2 1 -9 61.99 6
-2 1 -9 66.19 6.6
3 -1 9 300.37 13.4
-3 -1 -9 293.57 12.9
-3 -1 -9 297.07 13.4
3 -1 9 271.27 14.6
-3 -1 -9 297.47 14.5
3 -1 9 281.37 13.4
3 1 9 279.37 12.3
3 1 9 302.17 14.6
-3 1 -9 282.47 12.8
-3 1 -9 299.47 14
-3 1 -9 294.17 12.9
3 1 9 296.07 12.9
4 -1 9 53.89 6.6
-4 -1 -9 65.79 7.1
-4 -1 -9 64.89 6.8
4 -1 9 63.59 7.2
-4 -1 -9 70.29 8
4 -1 9 66.29 8.2
-4 1 -9 73.69 7.2
4 1 9 68.19 7.7
4 1 9 64.09 16.8
-4 1 -9 76.99 8.1
-4 1 -9 57.19 6.3
4 1 9 60.49 6.3
-5 -1 -9 29.9 5.3
5 -1 9 21 12.2
5 -1 9 29.5 5.5
-5 -1 -9 15.5 4.7
5 -1 9 16.7 5.6
-5 -1 -9 17.5 4.2
5 -1 9 23.7 5.1
5 1 9 19.3 4.4
-5 1 -9 26.7 5
5 1 9 10.3 12.8
5 1 9 19.7 5.4
-5 1 -9 22.7 4.6
-5 1 -9 25.1 5.3
-6 -1 -9 209.28 11.9
6 -1 9 207.48 12
-6 -1 -9 205.78 12
-6 -1 -9 211.58 13.2
6 -1 9 196.18 12.3
6 -1 9 226.18 21.2
6 -1 9 197.98 13.7
6 1 9 219.78 23
6 1 9 230.68 12
6 1 9 228.68 13.6
-6 1 -9 206.98 11.8
-6 1 -9 225.98 13.2
-6 1 -9 214.48 12.2
-7 -1 -9 270.67 14.2
-7 -1 -9 271.97 15.5
-7 -1 -9 259.47 14.2
7 -1 9 275.07 16.4
7 -1 9 238.38 21.3
7 -1 9 259.27 14.8
7 1 9 261.67 23.6
7 1 9 252.97 15.4
-7 1 -9 290.77 15.5
-7 1 -9 280.07 13.9
-7 1 -9 275.17 14.6
-8 -1 -9 2.7 3.9
8 -1 9 1.7 5.1
-8 -1 -9 8.4 5
-8 -1 -9 -1.5 4.7
-8 1 -9 8.7 5.1
-8 1 -9 0.8 3.9
8 1 9 13.8 5.3
8 1 9 3.9 10.7
-8 1 -9 4.7 4.4
9 -1 9 2.8 5.1
-9 -1 -9 2.6 3.9
-9 -1 -9 -1.8 4.4
-9 -1 -9 -2.6 4
9 1 9 -2.8 9.2
-9 1 -9 3.4 3.7
-9 1 -9 0.1 4
9 1 9 0.5 4.2
-9 1 -9 -2.1 3.2
-10 -1 -9 106.49 11.4
10 -1 9 104.99 12
-10 -1 -9 122.59 11.6
-10 1 -9 144.49 13.6
-10 1 -9 121.49 12.2
10 1 9 124.79 12.7
-10 1 -9 111.19 10.7
11 -1 9 186.98 15.3
-11 -1 -9 191.18 13.2
-11 -1 -9 189.88 14.2
-11 -1 -9 171.78 13.3
-11 1 -9 183.48 12.9
-11 1 -9 177.08 14
-11 1 -9 175.88 14
11 1 9 191.58 15
12 -1 9 14 6.7
-12 -1 -9 13.5 6.4
-12 -1 -9 3.2 4.9
-12 -1 -9 8 5.7
-12 1 -9 10.1 6.4
-12 1 -9 6.8 5.6
12 1 9 12.5 6.4
-13 -1 -9 28.4 7.7
-13 -1 -9 39.8 7.8
-13 -1 -9 39 8.6
13 -1 9 24.8 8.1
-13 1 -9 29.6 7.7
-13 1 -9 26.1 7.8
13 1 9 33.2 8.6
-14 -1 -9 2 5.8
14 -1 9 1.3 5.9
-14 -1 -9 13.9 6.4
-14 -1 -9 13.4 6.6
-14 1 -9 5 6.2
14 1 9 4.5 6.8
-14 1 -9 2 5.3
16 -2 -9 -4.6 9
16 -2 -9 8.2 6.8
16 2 -9 16.9 7.1
16 2 -9 9.6 11.1
16 2 -9 1.6 13.1
15 -2 -9 5.5 6.2
15 -2 -9 -9 7.5
15 2 -9 6.8 5.4
15 2 -9 2.8 11.2
15 2 -9 -4.7 9.5
14 -2 -9 49.6 9.6
14 -2 -9 58.09 12.3
14 2 -9 70.79 10.5
14 2 -9 52.09 13.2
14 2 -9 39.4 14.1
13 -2 -9 -0.2 8
13 -2 -9 3 6.8
13 -2 -9 1.4 4.5
13 2 -9 -10.9 8.9
13 2 -9 -5.6 7.2
13 2 -9 2 4.2
12 -2 -9 16.5 7.5
12 -2 -9 7.9 4.3
12 -2 -9 14.3 8.2
12 2 -9 4.3 8.9
12 2 -9 0.7 8.3
-12 2 9 6.5 3.3
12 2 -9 4.3 3.8
11 -2 -9 90.79 12.5
11 -2 -9 80.69 9.6
11 -2 -9 95.69 11.9
-11 2 9 97.59 7.5
11 2 -9 121.69 16.3
11 2 -9 99.39 13.8
11 2 -9 94.99 10.5
10 -2 -9 5.6 4.2
10 -2 -9 -9.3 6.1
10 -2 -9 -10 5.7
-10 2 9 4.2 2.9
10 2 -9 6.9 7.8
10 2 -9 4.8 4
10 2 -9 2.3 6.4
9 -2 -9 37.5 8.2
-9 -2 9 49.4 3.3
9 -2 -9 34.2 6.2
9 -2 -9 48.6 8.7
-9 2 9 45.1 5.6
9 2 -9 39.9 6.7
9 2 -9 39.4 8.7
9 2 -9 38.8 10
-9 2 9 46.5 5.7
-8 -2 9 47.7 3.4
8 -2 -9 57.19 8.7
8 -2 -9 49.1 6.6
8 -2 -9 58.59 8.5
8 2 -9 30 7.2
-8 2 9 56.09 5.7
8 2 -9 43.3 6.4
8 2 -9 38.1 9.2
-8 2 9 51.99 5.7
-7 -2 9 -0.1 1.4
7 -2 -9 -6 3.9
7 -2 -9 -1.3 3.8
7 -2 -9 0.3 2.6
7 -2 -9 -0.6 4
-7 -2 9 0.4 1.3
7 2 -9 0.9 2.7
7 2 -9 2.9 4.2
7 2 -9 0.1 4.4
-7 2 9 8.7 2.6
-6 -2 9 2.2 1.6
6 -2 -9 -0.6 2.3
6 -2 -9 3.6 2.7
6 -2 -9 -1.7 3.8
-6 -2 9 1.5 1.6
6 -2 -9 7.3 5
-6 2 9 2.4 2.2
6 2 -9 -4.9 3.7
6 2 -9 -0.3 3.4
6 2 -9 1.1 2.3
5 -2 -9 16.7 4.1
-5 -2 9 22.5 3.2
5 -2 -9 26.1 4.5
5 -2 -9 26.9 5.9
-5 -2 9 24.7 3.2
-5 2 9 20.5 3.6
5 2 -9 14.7 5.4
5 2 -9 22.9 4.2
5 2 -9 13.7 4.2
4 -2 -9 -1.1 2.5
-4 -2 9 -2.4 1.5
-4 -2 9 -1.2 1.5
4 -2 -9 5 2.3
4 2 -9 -5.3 3.3
4 2 -9 -0.2 2.7
-4 2 9 3.3 2.1
3 -2 -9 94.99 8.2
-3 -2 9 94.59 6.2
-3 -2 9 105.99 6.6
3 -2 -9 107.29 7.3
3 2 -9 110.29 6
3 2 -9 126.29 10.4
-3 2 9 105.69 6.7
-3 2 9 111.49 6.5
3 2 -9 106.29 5.9
3 2 -9 101.19 7.5
-2 -2 9 193.18 8.9
2 -2 -9 122.69 9.2
-2 -2 9 193.78 9.4
2 2 -9 188.28 8.9
2 2 -9 181.08 8.1
2 2 -9 174.68 9.1
2 2 -9 204.98 12.4
1 -2 -9 86.49 8.3
1 -2 -9 59.29 5.8
1 -2 -9 59.79 7.3
-1 -2 9 84.29 7.1
-1 -2 9 63.89 6.3
-1 2 9 78.19 5.6
1 2 -9 78.49 6.2
1 2 -9 71.79 5.1
-1 2 9 56.69 5.6
0 -2 -9 113.39 7.5
0 -2 9 125.79 8
0 -2 -9 130.89 9.6
0 -2 9 131.79 8.5
0 -2 -9 127.89 8.8
0 2 -9 112.89 7.7
0 2 9 135.59 7.4
0 2 -9 132.49 7.1
0 2 9 124.29 7.7
-1 -2 -9 367.56 15.6
-1 -2 -9 365.06 16.7
1 -2 9 335.97 14.6
1 -2 9 344.47 15.1
-1 -2 -9 352.06 14.4
1 2 9 340.37 14.2
-1 2 -9 340.37 13.5
-1 2 -9 378.16 15.4
1 2 9 346.07 13.7
-2 -2 -9 67.09 7.3
-2 -2 -9 61.29 6
2 -2 9 62.19 7
-2 -2 -9 61.99 7.6
2 -2 9 59.59 6.9
2 2 9 79.49 6.1
2 2 9 72.19 6.3
-2 2 -9 78.89 7.9
-2 2 -9 76.69 6.8
-3 -2 -9 125.69 9.2
3 -2 9 131.69 11.3
3 -2 9 110.99 8.6
3 -2 9 144.79 9.7
-3 -2 -9 128.59 9.8
-3 -2 -9 121.09 8
3 2 9 127.19 9.8
-3 2 -9 110.69 8.6
3 2 9 120.59 7.9
3 2 9 117.49 7.6
-3 2 -9 117.59 7.8
3 2 9 110.89 21.4
-4 -2 -9 33 5.4
4 -2 9 35.4 6.2
4 -2 9 29.1 6.7
-4 -2 -9 35.4 5.6
4 -2 9 28.3 5.7
-4 2 -9 28 4.8
4 2 9 26.9 4.7
-4 2 -9 32.2 5.2
4 2 9 34 5.8
4 2 9 41.7 15.5
-4 2 -9 35.9 6
5 -2 9 367.86 18.6
-5 -2 -9 387.66 18.1
5 -2 9 368.36 16.8
-5 -2 -9 352.06 15.7
5 -2 9 370.56 17.6
-5 -2 -9 332.07 16.3
5 2 9 353.86 15.1
5 2 9 369.86 16.8
-5 2 -9 335.37 15.5
5 2 9 326.77 28.1
-5 2 -9 376.06 16.3
-5 2 -9 364.96 17.1
-6 -2 -9 102.79 10.8
-6 -2 -9 100.19 9.2
6 -2 9 74.99 9.2
6 -2 9 105.69 10
-6 -2 -9 94.59 9.3
6 -2 9 81.79 9.8
6 2 9 72.59 16.3
6 2 9 78.59 7.9
-6 2 -9 91.29 8.9
6 2 9 100.69 9.7
-6 2 -9 98.19 10.1
7 -2 9 -1 4.6
-7 -2 -9 1.1 4.3
-7 -2 -9 0.9 3.9
-7 -2 -9 1.8 4.1
7 -2 9 3.5 5.4
7 2 9 -4.1 11.3
7 2 9 0.9 4.2
-7 2 -9 1 4.3
-7 2 -9 3.5 4.1
-8 -2 -9 78.99 10
-8 -2 -9 77.69 9
8 -2 9 98.69 11.4
-8 -2 -9 72.49 8.9
8 -2 9 91.19 10.4
8 2 9 71.79 16.6
-8 2 -9 85.19 10.2
8 2 9 98.79 10.5
-8 2 -9 64.49 8.4
9 -2 9 92.99 11.8
-9 -2 -9 136.29 12.2
-9 -2 -9 100.59 10.3
-9 -2 -9 92.39 10.9
9 2 9 103.49 10.7
-9 2 -9 110.49 11.6
9 2 9 101.09 18.5
-9 2 -9 108.09 11.3
10 -2 9 2.8 4.9
-10 -2 -9 -2.2 4.5
-10 -2 -9 2 4.4
-10 -2 -9 1.3 4.6
-10 2 -9 -1.9 3.9
10 2 9 -6.8 9.7
-10 2 -9 1 3.7
10 2 9 -0.7 3.8
-11 -2 -9 58.19 8.8
11 -2 9 62.69 10.9
-11 -2 -9 81.99 10.5
-11 -2 -9 59.79 9.7
11 2 9 95.49 18.1
11 2 9 70.79 10.2
-11 2 -9 66.79 9.9
-11 2 -9 63.69 9.9
12 -2 9 12.7 6.5
-12 -2 -9 15.1 6.9
-12 -2 -9 22.4 7.2
-12 -2 -9 20.9 6.9
-12 2 -9 16.3 6.5
12 2 9 20.7 6.9
-12 2 -9 19.9 6.4
-13 -2 -9 8.7 6.2
13 -2 9 0.9 5.4
-13 -2 -9 11 6.5
-13 -2 -9 14.6 6.4
-13 2 -9 19.5 7.4
-13 2 -9 3.9 5.4
13 2 9 15.8 6.5
15 -3 -9 17.8 7.3
15 -3 -9 15.7 10.1
15 3 -9 7 10.9
15 3 -9 38.7 15.6
15 3 -9 14.3 6.6
14 -3 -9 29.1 8.2
14 -3 -9 4 8
14 3 -9 6.8 10
14 3 -9 19 12.8
-14 3 9 19.8 5.5
14 3 -9 23.5 7.1
13 -3 -9 237.48 19.3
13 -3 -9 213.58 16.1
13 3 -9 221.58 24.5
13 3 -9 225.98 15.7
13 3 -9 220.28 22.7
-13 3 9 221.58 13.2
12 -3 -9 15.5 7.3
12 -3 -9 6.1 5.1
12 3 -9 8.7 4.8
12 3 -9 9.5 9.2
-12 3 9 21.8 5.2
12 3 -9 17.3 10.4
11 -3 -9 57.59 9.7
11 -3 -9 41 7.5
-11 3 9 60.79 7.3
11 3 -9 44.5 11.6
11 3 -9 40.9 10.6
11 3 -9 48.1 7.7
10 -3 -9 46 9
10 -3 -9 51.89 9.1
10 -3 -9 51.29 7.7
10 3 -9 58.19 8.1
10 3 -9 56.19 12.1
-10 3 9 64.89 7.5
10 3 -9 50.79 10.6
9 -3 -9 331.87 16.9
9 -3 -9 291.17 18.3
9 -3 -9 344.57 19.2
9 3 -9 315.07 16.5
-9 3 9 298.37 14.4
-9 3 9 325.07 15
9 3 -9 325.47 23.1
9 3 -9 320.67 20.5
8 -3 -9 -0.9 4.9
8 -3 -9 21.3 5.2
8 -3 -9 4 5.4
-8 -3 9 14.4 2.8
8 3 -9 5.6 6.1
-8 3 9 11.2 3.7
8 3 -9 19 8.2
-8 3 9 11.6 3.7
8 3 -9 7.7 3.9
-7 -3 9 683.83 20.4
7 -3 -9 660.43 26.9
-7 -3 9 670.33 20.6
7 -3 -9 662.93 25.1
7 -3 -9 650.23 26.6
7 -3 -9 661.33 24.6
-7 3 9 657.83 23.3
7 3 -9 650.53 27.3
7 3 -9 681.23 30.8
7 3 -9 647.54 24.7
-7 3 9 674.73 23.7
-6 -3 9 47.9 4.7
6 -3 -9 52.09 6.3
6 -3 -9 41.5 6.6
-6 -3 9 49 4.8
6 -3 -9 49 7.4
-6 3 9 41.9 5.4
6 3 -9 37 8.3
6 3 -9 42 6
6 3 -9 49.1 7.5
5 -3 -9 64.49 8
5 -3 -9 60.59 7.9
-5 -3 9 59.09 5.5
5 -3 -9 60.89 6.4
-5 -3 9 75.59 5.6
-5 3 9 75.09 6.2
5 3 -9 56.69 7
5 3 -9 61.69 8.9
4 -3 -9 49 6.9
-4 -3 9 52.29 5.5
4 -3 -9 52.19 5.5
4 -3 -9 40.9 6.4
-4 -3 9 61.19 5.7
4 3 -9 50.29 6.2
-4 3 9 40.5 5.1
4 3 -9 46.6 7.3
-3 -3 9 174.58 9.3
3 -3 -9 162.38 11.2
-3 -3 9 173.38 9
3 -3 -9 161.68 8.9
3 -3 -9 191.38 11.4
3 3 -9 159.68 12.1
3 3 -9 169.88 7.8
3 3 -9 171.68 9.6
-3 3 9 166.38 9.3
3 3 -9 187.38 7.7
-3 3 9 176.58 8.9
2 -3 -9 679.73 25.8
-2 -3 9 636.44 22.6
2 -3 -9 683.53 24.5
-2 -3 9 650.03 22.3
-2 3 9 651.23 21.8
-2 3 9 645.64 22.5
2 3 -9 658.83 20.3
2 3 -9 628.34 25
2 3 -9 648.44 21.5
2 3 -9 652.53 21.4
1 -3 -9 148.49 8.9
-1 -3 9 154.38 9.5
-1 -3 9 165.48 9.4
1 -3 -9 169.18 11.6
1 -3 -9 159.08 10.5
-1 3 9 160.78 9.1
1 3 -9 154.28 7.4
1 3 -9 157.18 7.7
1 3 -9 142.19 10.7
1 3 -9 152.88 8.6
-1 3 9 159.98 8.4
0 -3 -9 -1.6 3.1
0 -3 -9 4.3 3.5
0 -3 -9 1.1 2.3
0 -3 9 3.3 3.1
0 -3 9 2.2 3.2
0 3 -9 3.7 2.2
0 3 9 1.7 2.1
0 3 9 1.2 2.2
0 3 -9 -2.3 3.3
0 3 -9 0.8 2.2
-1 -3 -9 62.09 8
-1 -3 -9 65.99 6.5
1 -3 9 67.59 7.7
-1 -3 -9 68.89 8.2
1 -3 9 68.99 7.6
-1 3 -9 62.79 5.9
1 3 9 95.79 6.5
1 3 9 91.79 6.8
1 3 9 59.59 17.6
-1 3 -9 66.09 6.9
-2 -3 -9 289.67 14.8
-2 -3 -9 302.47 13.3
2 -3 9 276.07 14.6
-2 -3 -9 283.47 15.6
2 -3 9 301.47 14.5
-2 3 -9 291.87 12.6
2 3 9 346.97 30.5
-2 3 -9 303.77 14.5
2 3 9 300.47 13.4
2 3 9 312.27 13
-3 -3 -9 71.79 8.4
-3 -3 -9 57.09 8.1
-3 -3 -9 61.59 6.8
3 -3 9 60.79 8.7
3 -3 9 70.39 8.5
3 -3 9 66.19 8.2
3 3 9 99.19 20.2
3 3 9 74.59 7.2
-3 3 -9 77.89 6.4
3 3 9 63.89 6.3
3 3 9 71.69 7.5
-3 3 -9 78.99 8.4
4 -3 9 822.72 29.6
4 -3 9 856.21 31.3
-4 -3 -9 820.62 31
-4 -3 -9 798.02 29.3
4 -3 9 809.12 30.4
-4 -3 -9 858.21 28.1
-4 3 -9 792.72 27.8
4 3 9 856.61 44.8
4 3 9 805.42 27.3
4 3 9 845.72 28
-4 3 -9 776.62 29.3
-5 -3 -9 10.5 5.4
-5 -3 -9 14.4 5.2
5 -3 9 7.4 5.4
5 -3 9 10.5 5.3
5 -3 9 2.8 4.7
-5 -3 -9 6.9 3.5
5 3 9 7.7 4.1
-5 3 -9 11 4.5
5 3 9 26.6 14.1
-5 3 -9 10.7 4.1
5 3 9 13.7 3.8
6 -3 9 17.2 6.1
-6 -3 -9 22.9 6.5
-6 -3 -9 27.7 5.8
6 -3 9 36.6 7.7
-6 -3 -9 26.8 6.4
6 -3 9 35.8 7.9
6 3 9 27.8 5.5
6 3 9 33.1 15.7
-6 3 -9 29.1 5.9
-6 3 -9 29.9 6.3
-7 -3 -9 19.9 5.6
7 -3 9 11.7 6
7 -3 9 14.3 6.5
-7 -3 -9 12.5 5.6
-7 -3 -9 22.7 6.5
-7 3 -9 15.7 5.7
7 3 9 11.1 5
7 3 9 2.8 14
-7 3 -9 15.1 5.2
8 -3 9 261.17 17.3
-8 -3 -9 252.07 16.6
-8 -3 -9 273.37 15.8
-8 -3 -9 261.97 14.6
8 -3 9 269.37 16.8
8 3 9 277.37 15.2
-8 3 -9 274.87 16.3
8 3 9 226.48 26.2
-8 3 -9 266.97 15.4
-9 -3 -9 182.08 13
9 -3 9 170.18 14.6
-9 -3 -9 211.78 14.9
-9 -3 -9 164.68 11.9
9 3 9 174.68 12.7
9 3 9 172.88 23.2
-9 3 -9 170.38 12.6
-9 3 -9 201.28 14.4
10 -3 9 -0.2 5.4
-10 -3 -9 -3.3 4.1
-10 -3 -9 0.8 4.8
-10 -3 -9 1 4.3
10 3 9 -3.4 10
-10 3 -9 -0.3 4.3
10 3 9 -0.1 4.1
-10 3 -9 -3.8 3.2
-11 -3 -9 -3 5.5
-11 -3 -9 2.6 4.9
11 -3 9 3.2 6
-11 -3 -9 3.6 5.4
-11 3 -9 1.5 5
-11 3 -9 1.2 5.5
11 3 9 9.8 12.3
-12 -3 -9 4.8 5.9
-12 -3 -9 5.6 6.4
12 -3 9 -2 5.6
-12 -3 -9 2 5
-12 3 -9 -0.7 5
-12 3 -9 7.8 5.7
12 3 9 19.2 13.4
-13 -3 -9 -9 4.9
13 -3 9 -0.6 6.1
-13 -3 -9 -5.9 4.5
-13 3 -9 3.2 5.6
-13 3 -9 7 5.6
15 -4 -9 8.9 6.9
15 -4 -9 5.6 8.4
-15 4 9 4.1 5.5
15 4 -9 4.2 13.6
15 4 -9 42.1 14.4
14 -4 -9 10.9 6.5
14 -4 -9 19.3 9.4
-14 4 9 11.1 5.3
14 4 -9 10.9 6
14 4 -9 19.5 13.7
14 4 -9 7.3 10.5
13 -4 -9 -0.7 5.4
13 -4 -9 10.3 8
13 4 -9 -14 9.8
13 4 -9 -6.9 9.1
13 4 -9 -7.3 3.7
-13 4 9 3.8 4.2
12 -4 -9 0.3 6.1
12 -4 -9 7.6 5.3
12 4 -9 5 9.4
12 4 -9 2.8 4
12 4 -9 -13.3 9.2
-12 4 9 17 5.3
11 -4 -9 22 6.2
11 -4 -9 17 7.5
11 4 -9 22.7 11.6
-11 4 9 16 4.7
11 4 -9 18.1 9.6
11 4 -9 22.6 6.1
10 -4 -9 -5.7 4.7
10 -4 -9 -0.9 3.7
-10 4 9 -1.1 2.8
10 4 -9 -1.9 3.1
10 4 -9 10.8 8
-10 4 9 5.1 3.6
10 4 -9 -0.1 7.9
9 -4 -9 -4.3 4.8
9 -4 -9 4.3 3.7
-9 4 9 2.8 3.3
9 4 -9 -1.9 6.8
9 4 -9 -9.4 6.6
-9 4 9 4.5 3.5
9 4 -9 3.8 3.6
8 -4 -9 24 6.8
8 -4 -9 15.8 5.2
-8 -4 9 14.8 3.8
8 4 -9 3.8 7.4
8 4 -9 21.6 8.1
-8 4 9 13.7 4.4
8 4 -9 22.5 5.4
-8 4 9 14.8 4.7
7 -4 -9 34.2 7.2
7 -4 -9 37.1 7.5
7 -4 -9 49.6 6.7
-7 -4 9 34.4 5
-7 -4 9 33.5 4.8
7 -4 -9 38.6 7.5
7 4 -9 32.1 7.8
7 4 -9 27.6 9.1
-7 4 9 27.6 5.3
6 -4 -9 6.7 4.4
-6 -4 9 0.1 2.9
6 -4 -9 1.4 2.9
6 -4 -9 1.9 4.5
-6 -4 9 5.4 3.1
-6 4 9 2.9 2.8
6 4 -9 -2.7 4.4
6 4 -9 3 6.2
-5 -4 9 6 3.5
5 -4 -9 13.6 5.3
-5 -4 9 9.2 3.7
5 -4 -9 11.5 3.6
5 -4 -9 11.6 4.7
5 4 -9 14.1 5.3
-5 4 9 7.7 3.2
5 4 -9 8.7 5.8
4 -4 -9 10.1 4.6
4 -4 -9 10.3 5.1
-4 -4 9 10.5 3.8
4 -4 -9 10.2 3.2
-4 -4 9 15.3 4
-4 4 9 5.5 2.9
4 4 -9 4.5 4
4 4 -9 3 4.9
3 -4 -9 14.5 5.1
3 -4 -9 19.4 3.6
3 -4 -9 37.8 7.1
-3 -4 9 14 4
-3 -4 9 16.7 4.4
3 4 -9 19.3 4.6
3 4 -9 20.8 3.7
-3 4 9 20.3 4.4
3 4 -9 21.7 5.8
2 -4 -9 0.1 3.6
-2 -4 9 13.6 4
2 -4 -9 2.8 4.1
-2 -4 9 13.2 4.1
-2 4 9 12.6 3.6
2 4 -9 6.9 3.1
2 4 -9 13.9 4.7
2 4 -9 9.8 2.4
-2 4 9 8.3 3.1
2 4 -9 8.3 2.8
1 -4 -9 61.69 8.7
-1 -4 9 72.39 7.8
-1 -4 9 64.69 7.6
1 -4 -9 55.89 8.4
1 4 -9 63.39 4.8
-1 4 9 66.89 7.4
1 4 -9 71.29 6.9
-1 4 9 62.79 6.5
1 4 -9 63.99 8.1
-1 4 9 61.59 18.5
0 -4 -9 75.79 7.2
0 -4 9 53.09 7.2
0 -4 -9 81.09 9.3
0 -4 -9 57.29 8.7
0 -4 9 49.4 6.9
0 4 9 51.59 5.8
0 4 -9 64.29 7
0 4 -9 76.29 8
0 4 9 85.39 8.1
0 4 -9 74.89 5.4
0 4 9 90.79 22.4
-1 -4 -9 23.8 5.9
1 -4 9 9.4 4.5
-1 -4 -9 13.7 5.2
-1 -4 -9 15.5 3.8
1 -4 9 16.8 5.3
-1 4 -9 8.5 3.8
1 4 9 22.3 4.2
1 4 9 32.3 17.5
-1 4 -9 19.6 3.6
1 4 9 15.9 3.9
-1 4 -9 20 4.9
-2 -4 -9 103.69 7.7
2 -4 9 93.29 9.9
2 -4 9 96.59 10.2
-2 -4 -9 112.79 11.1
-2 -4 -9 97.39 10.8
2 -4 9 88.79 10
-2 4 -9 98.99 8.9
2 4 9 88.89 7.6
2 4 9 153.38 25
-2 4 -9 92.29 7
-2 4 -9 83.09 8.7
2 4 9 84.79 7.3
2 4 9 90.39 7.9
-3 -4 -9 4.5 3.3
-3 -4 -9 -0.9 4.4
3 -4 9 -1.5 4.2
3 -4 9 9.1 5.8
-3 -4 -9 8.3 4.3
3 -4 9 5.2 4.5
3 4 9 -8.5 14
-3 4 -9 3.5 3.6
-3 4 -9 2.2 2.8
3 4 9 0.9 2.5
4 -4 9 4.5 5.8
4 -4 9 2.6 4.9
4 -4 9 6.3 5
-4 -4 -9 -3.1 2.6
-4 -4 -9 -0.4 4.6
-4 -4 -9 4.1 4.6
-4 4 -9 4.1 3.9
4 4 9 -3 2.6
4 4 9 -15.6 13
-4 4 -9 3.4 3.3
5 -4 9 10.5 6
-5 -4 -9 16.3 4.7
-5 -4 -9 11.4 6.1
5 -4 9 14.8 6
5 -4 9 11.3 6.5
5 4 9 7 13.8
-5 4 -9 17.1 4.9
-5 4 -9 13.5 5
-6 -4 -9 47.3 6.8
-6 -4 -9 46.7 8
6 -4 9 51.79 9.2
-6 -4 -9 51.49 9.2
6 -4 9 53.69 9.5
6 -4 9 37.5 8.4
6 4 9 56.69 18.3
-6 4 -9 39.8 6.6
-6 4 -9 51.89 8.3
-7 -4 -9 4.1 4.1
-7 -4 -9 7.1 4.9
7 -4 9 3.6 5.4
7 -4 9 9.9 6.2
-7 -4 -9 6.8 5.6
-7 4 -9 -3.6 3.8
7 4 9 19 14.3
-7 4 -9 6.5 4.7
-8 -4 -9 -1.5 3.8
-8 -4 -9 8.5 5.8
-8 -4 -9 -5 4.3
8 -4 9 2 5.4
8 -4 9 3.1 5.5
-8 4 -9 2.8 4.1
8 4 9 5.6 12.5
-8 4 -9 4.1 4.2
9 -4 9 5.3 6.1
-9 -4 -9 10.1 5
-9 -4 -9 10.1 6.4
-9 -4 -9 4.2 5.6
-9 4 -9 9.5 5.3
-9 4 -9 2.2 4.3
9 4 9 18.6 13.5
-10 -4 -9 -3.4 5
-10 -4 -9 7.4 6.7
-10 -4 -9 13 5.5
10 -4 9 0.4 5.7
-10 4 -9 6.7 5.6
-10 4 -9 4.7 5.4
10 4 9 23.5 14.6
-11 -4 -9 -3.9 5.6
11 -4 9 4.2 6.3
-11 -4 -9 13.3 6.8
-11 4 -9 4.9 5
-11 4 -9 8.9 5.4
11 4 9 18.1 14.9
12 -4 9 1.9 6.1
-12 -4 -9 8.1 5.9
-12 4 -9 9.6 6
-12 4 -9 -4.1 4.8
12 4 9 15.8 14.5
14 -5 -9 -4.3 11.1
14 -5 -9 -5.5 4.6
14 5 -9 -4.8 13.4
14 5 -9 -1 11.5
-14 5 9 3.6 5.1
13 -5 -9 33.8 8.3
13 -5 -9 19.5 8.8
13 5 -9 34.9 15
13 5 -9 24.3 12.4
-13 5 9 35.1 7.9
12 -5 -9 46.7 9
12 -5 -9 20.7 8.7
12 5 -9 57.69 13.9
-12 5 9 37.2 7.5
12 5 -9 44.8 14.9
11 -5 -9 0.5 4.5
11 -5 -9 -1.1 5.6
11 5 -9 -9.1 7.2
-11 5 9 3.2 4.1
-11 5 9 1 4
11 5 -9 -4 9.3
10 -5 -9 126.09 12.1
10 -5 -9 108.39 13.1
10 5 -9 125.49 18.5
-10 5 9 126.09 10.7
-10 5 9 122.69 10.3
10 5 -9 109.89 15.2
9 -5 -9 1.3 4
-9 -5 9 -4.7 3.2
9 -5 -9 -0.2 5.1
9 5 -9 -5.9 7.9
-9 5 9 2.3 3.3
-9 5 9 0 3.2
9 5 -9 -5 7.1
-8 -5 9 0.9 3.6
8 -5 -9 2.4 5.3
8 -5 -9 1.8 3.8
-8 5 9 4.2 3.6
8 5 -9 -3.1 6.1
-8 5 9 0.5 3
8 5 -9 6 8
-7 -5 9 193.28 11.2
7 -5 -9 207.78 12.4
7 -5 -9 214.78 15.6
7 -5 -9 200.28 14.9
-7 -5 9 209.78 11.8
7 5 -9 224.08 19.8
7 5 -9 228.48 16.2
-7 5 9 209.08 13
6 -5 -9 93.29 8.4
-6 -5 9 61.39 7.8
6 -5 -9 70.69 10.2
-6 -5 9 66.39 7.8
-6 5 9 96.49 9.9
6 5 -9 67.39 10.6
6 5 -9 82.19 12.6
-5 -5 9 439.06 18.7
5 -5 -9 420.36 21
-5 -5 9 416.46 17.9
5 -5 -9 407.96 21.8
5 -5 -9 397.26 16.9
5 5 -9 425.76 20.3
5 5 -9 458.25 24.5
-5 5 9 442.16 19
-4 -5 9 201.88 12.2
-4 -5 9 193.48 11.7
4 -5 -9 182.08 13.5
4 -5 -9 169.18 9.7
4 -5 -9 213.58 15
-4 5 9 190.68 11.6
4 5 -9 170.38 15.2
-3 -5 9 9.5 4.6
-3 -5 9 5.8 4.4
3 5 -9 1.6 5.3
2 -5 -9 424.86 20.5
-2 -5 9 399.76 18.5
-2 -5 9 405.86 18.3
2 -5 -9 408.56 21.1
2 5 -9 368.86 15.7
-2 5 9 349.17 35.3
-2 5 9 403.06 16.6
-2 5 9 391.66 17.4
2 5 -9 371.26 19.5
1 -5 -9 231.18 15.9
-1 -5 9 227.68 13.7
-1 -5 9 230.78 14.2
1 -5 -9 225.18 15.5
-1 5 9 240.68 12.9
-1 5 9 239.68 12
1 5 -9 218.28 13.7
1 5 -9 225.68 11.8
-1 5 9 218.28 29
0 -5 -9 5.8 5.3
0 -5 9 -1 5
0 -5 -9 18.4 6.7
0 -5 9 -0.3 4.4
0 5 9 20.8 16.6
0 5 9 10.2 3.5
0 5 -9 4.9 3.6
-1 -5 -9 327.87 19
1 -5 9 319.87 17.3
-1 -5 -9 347.97 18.5
1 -5 9 338.47 18.1
1 -5 9 319.27 17.6
1 5 9 319.17 14.7
1 5 9 347.67 15.8
-1 5 -9 331.87 13.6
-1 5 -9 351.96 16.4
1 5 9 386.56 33.9
2 -5 9 46.1 8.2
-2 -5 -9 52.79 6.6
2 -5 9 64.59 9.6
2 -5 9 45.1 8.2
-2 -5 -9 40.3 8.4
-2 -5 -9 57.69 9.5
-2 5 -9 60.39 6.4
2 5 9 61.29 7.3
-2 5 -9 58.69 8.2
2 5 9 43.3 19.2
3 -5 9 53.39 9
-3 -5 -9 51.79 9.7
3 -5 9 67.49 10.2
-3 -5 -9 64.39 7.6
3 -5 9 55.59 9
-3 -5 -9 66.19 9.5
-3 5 -9 56.79 6.8
3 5 9 63.29 7.5
-3 5 -9 76.19 9.4
3 5 9 37 18.4
-4 -5 -9 99.29 9.2
4 -5 9 100.59 11.9
-4 -5 -9 94.09 12.2
4 -5 9 108.09 12.6
-4 -5 -9 105.69 12
4 -5 9 112.49 11.9
-4 5 -9 88.29 10.2
4 5 9 84.69 21.3
-4 5 -9 102.89 9.5
-5 -5 -9 331.97 15.2
5 -5 9 286.27 18.3
-5 -5 -9 303.07 19.4
5 -5 9 315.47 19.3
-5 -5 -9 317.67 17.9
5 -5 9 290.07 17.9
5 5 9 357.96 31.7
-5 5 -9 311.17 17.4
-5 5 -9 297.17 15.2
-6 -5 -9 6.2 6.2
-6 -5 -9 7.5 4.2
6 -5 9 13.3 6.5
6 -5 9 7 6.1
6 -5 9 16.3 6.7
-6 -5 -9 15.4 6.1
6 5 9 13 13.3
-6 5 -9 9.6 5.2
-6 5 -9 7.3 4.3
7 -5 9 119.19 14.2
-7 -5 -9 120.69 12.9
7 -5 9 102.19 12.1
-7 -5 -9 93.69 12.2
-7 5 -9 109.69 11.3
7 5 9 143.19 24.1
-7 5 -9 116.09 12.4
8 -5 9 96.39 13
8 -5 9 100.79 12.1
-8 -5 -9 91.19 12.3
-8 -5 -9 120.29 13.2
-8 5 -9 79.99 10.4
-8 5 -9 114.29 12.9
8 5 9 133.59 24.3
9 -5 9 36.4 9.2
-9 -5 -9 39.9 8.9
-9 -5 -9 39.5 9.5
-9 5 -9 39.2 8.1
9 5 9 26.3 16.1
-9 5 -9 42.7 8.6
-10 -5 -9 53.19 9.4
10 -5 9 43.7 9.8
-10 -5 -9 24.4 8.9
10 5 9 39.1 17.3
-10 5 -9 46.6 8.9
-10 5 -9 39.2 8.8
-11 -5 -9 33.6 8.7
-11 -5 -9 59.19 11.1
11 -5 9 31.8 9.8
-11 5 -9 47.9 9.8
11 5 9 48.5 17.5
-11 5 -9 55.69 10.1
-12 -5 -9 24.5 8
-12 5 -9 44.1 9.7
12 5 9 29.1 16.6
-12 5 -9 33.1 8.6
13 -6 -9 15.1 6.9
13 6 -9 7.5 14.3
13 6 -9 19.1 12.7
-13 6 9 9.7 5.5
-13 6 9 8.9 5.8
12 -6 -9 14.6 6.5
12 6 -9 7.8 10.7
-12 6 9 7.2 5.2
-12 6 9 17.2 6.6
12 6 -9 -16 11
11 -6 -9 -1.3 4.6
-11 6 9 -1 4
11 6 -9 -8 10.7
11 6 -9 -0.7 9.5
-11 6 9 0.6 3.8
10 -6 -9 9 7.3
10 6 -9 1.3 9.4
-10 6 9 -1.2 3.9
-10 6 9 10.1 5.1
10 6 -9 3.1 10.9
-9 -6 9 10.8 5
9 -6 -9 11.7 7
9 6 -9 -4.2 9
-9 6 9 5.3 4.4
-9 6 9 9.2 4.6
9 6 -9 11.6 8.7
8 -6 -9 78.49 10.5
8 -6 -9 64.09 16.2
-8 -6 9 88.29 9.3
8 6 -9 76.19 13
-8 6 9 58.99 8.9
8 6 -9 61.79 13.5
-7 -6 9 8 4.8
-7 -6 9 12 5
7 -6 -9 1.6 5.2
7 6 -9 -4.9 7.6
-7 6 9 -0.3 3.2
-6 -6 9 15 5.2
6 -6 -9 11 6.3
-6 -6 9 11.6 5.2
-6 6 9 12.5 4.4
5 -6 -9 14.4 7.3
5 -6 -9 13 6.9
-5 -6 9 25.6 6.1
5 6 -9 14.4 8
-5 6 9 -7.4 16.2
-5 6 9 13.6 5
-4 -6 9 16.6 5.6
-4 -6 9 30.8 7
4 -6 -9 23.4 7.3
4 -6 -9 17.3 7
-4 6 9 17.6 18.8
4 6 -9 13.3 7.5
-4 6 9 20.5 5.3
-3 -6 9 45.6 8.3
3 -6 -9 54.19 9.7
3 -6 -9 52.59 10.2
-3 -6 9 55.09 8.6
3 6 -9 39.7 8.6
-3 6 9 29 19.2
-3 6 9 58.19 8.4
2 -6 -9 45.3 9.4
2 -6 -9 46.6 9.8
-2 -6 9 51.59 9
-2 -6 9 45.5 8.7
-2 6 9 56.19 7.2
-2 6 9 61.69 20.5
-2 6 9 56.49 7.9
-1 -6 9 234.58 15.5
1 -6 -9 238.48 16.8
-1 -6 9 235.88 15.7
1 -6 -9 199.68 16.7
-1 6 9 245.28 13.1
-1 6 9 222.58 29.2
1 6 -9 266.27 19.2
-1 6 9 245.78 13.9
0 -6 -9 186.18 17.1
0 -6 9 177.38 13.8
0 -6 9 172.08 13.9
0 -6 -9 166.18 15.8
0 -6 9 183.18 14.2
0 6 -9 178.58 11.5
0 6 9 180.68 11.1
0 6 9 154.48 25.6
0 6 9 144.39 10.9
-1 -6 -9 32.4 8.3
1 -6 9 33.4 8.4
1 -6 9 18.9 7.3
-1 -6 -9 20.8 8
1 -6 9 24.1 7.2
1 6 9 28.3 5.9
1 6 9 22.3 17
-1 6 -9 40.7 6.9
2 -6 9 19.6 7
-2 -6 -9 23.3 7.5
2 -6 9 23.3 7.3
2 -6 9 28.9 7.9
-2 -6 -9 27.2 8.2
2 6 9 -6.9 12.3
-2 6 -9 24.7 5.9
2 6 9 22.4 5.6
-3 -6 -9 492.45 25.7
3 -6 9 453.85 22.3
3 -6 9 512.35 25.3
-3 -6 -9 433.56 23.2
3 -6 9 509.85 24.8
-3 6 -9 542.95 23.1
3 6 9 469.85 36.5
-4 -6 -9 13 7.8
-4 -6 -9 10.7 7
4 -6 9 19.7 7.3
4 -6 9 14.9 6.3
4 -6 9 39.1 9.3
-4 6 -9 21.3 4.9
4 6 9 18.3 15.6
-4 6 -9 16.6 5.9
-5 -6 -9 77.89 11.2
-5 -6 -9 61.09 10.9
5 -6 9 74.69 12.3
5 -6 9 81.79 10.8
5 -6 9 71.39 11.2
5 6 9 115.79 23.5
-5 6 -9 96.59 9.7
-5 6 -9 99.09 11.7
6 -6 9 78.19 12.3
-6 -6 -9 89.99 12.5
-6 -6 -9 59.79 9.9
6 -6 9 91.09 11.3
6 -6 9 98.09 13.6
-6 6 -9 73.99 8.9
6 6 9 53.19 18.4
-6 6 -9 97.99 12.2
-7 -6 -9 28.5 8.1
-7 -6 -9 25.7 8.5
7 -6 9 22.5 7.3
7 -6 9 37 10.1
-7 6 -9 38.4 8.5
-7 6 -9 42.1 7.7
7 6 9 48.7 17
-8 -6 -9 -2.1 6.1
-8 -6 -9 4.7 6.9
8 -6 9 2.4 7
8 -6 9 4 6.6
-8 6 -9 6 5.1
-8 6 -9 1.8 5.5
8 6 9 19.1 14.5
-9 -6 -9 58.39 10.7
-9 -6 -9 56.69 10.2
9 -6 9 83.19 12.2
9 -6 9 82.39 17.6
-9 6 -9 95.39 13.5
-9 6 -9 79.29 10.9
9 6 9 78.29 19.7
-10 -6 -9 1.3 6.4
10 -6 9 8.6 7.4
-10 -6 -9 1.8 5.9
10 6 9 1.6 13.8
-10 6 -9 1.6 4.7
-10 6 -9 -4.4 4.4
11 6 9 8.2 14
11 7 -9 26.2 15.8
-11 7 9 51.89 9.2
-11 7 9 47.8 9.2
-10 7 9 1 4.1
-10 7 9 -1.4 4.4
10 7 -9 -11.8 10.7
-9 -7 9 46.4 8.8
-9 7 9 52.19 8.9
9 7 -9 50.49 15
-8 -7 9 35.3 8
8 -7 -9 40 12.5
-8 7 9 37 8
8 7 -9 12.9 11.8
7 -7 -9 68.99 12.6
-7 -7 9 67.69 10
-7 -7 9 77.99 10.6
-7 7 9 94.39 11.6
7 7 -9 53.19 13.4
-6 -7 9 1.2 5.4
-6 -7 9 3.4 5.8
6 -7 -9 -2.3 6.6
6 7 -9 3.9 8.7
-6 7 9 -1.2 3.5
-5 -7 9 101.99 11.6
5 -7 -9 87.09 14.2
5 -7 -9 83.99 12.9
-5 -7 9 71.29 10.5
-5 7 9 67.99 9.6
-4 -7 9 21.5 6.7
4 -7 -9 25.8 8
4 -7 -9 6.9 7.3
-4 -7 9 5.9 5.9
-4 7 9 14.3 5.2
-4 7 9 33.6 15.7
3 -7 -9 87.59 12.4
-3 -7 9 74.09 10.7
-3 -7 9 88.99 11.7
3 -7 -9 98.39 14.3
-3 7 9 76.99 19.3
-3 7 9 66.79 9.2
-2 -7 9 4.6 5.8
2 -7 -9 9.6 7.2
-2 -7 9 5.5 5.8
2 -7 -9 7.9 7.2
-2 7 9 1.3 3.6
-2 7 9 7.5 4
-2 7 9 14 14.8
1 -7 -9 42.8 10.1
-1 -7 9 58.29 10.4
-1 -7 9 60.69 10.4
1 -7 -9 52.19 11
-1 7 9 56.29 8.3
-1 7 9 79.19 19.4
-1 7 9 41.8 6.6
0 -7 -9 10.6 6.7
0 -7 -9 1.4 5.9
0 -7 9 -0.9 5.7
0 -7 9 13.4 7.1
0 7 9 22.2 14.8
0 7 9 9.7 4.6
1 -7 9 71.29 11.3
1 -7 9 93.39 13
-1 -7 -9 73.49 11.8
-1 -7 -9 92.89 13.2
-1 7 -9 56.99 8.7
1 7 9 69.59 19.1
1 7 9 80.89 9.5
2 -7 9 17.8 8.1
-2 -7 -9 27.2 8.6
2 -7 9 7.7 7
-2 -7 -9 13.1 7.4
-2 7 -9 19.2 6
2 7 9 15.1 13.8
-3 -7 -9 -5.6 5.6
3 -7 9 9.1 7.5
3 -7 9 -0.4 6.2
-3 -7 -9 3.5 6.3
-3 7 -9 3.4 4.5
3 7 9 28.9 16.9
4 -7 9 11.9 7.3
-4 -7 -9 -4 5.6
4 -7 9 8 7.1
-4 -7 -9 -2.9 6.3
-4 7 -9 12 5.6
4 7 9 7.5 14.2
-5 -7 -9 -5.9 5.9
5 -7 9 7.2 7.5
5 -7 9 0.1 6.7
-5 -7 -9 2.3 6.8
-5 7 -9 3.6 5.2
5 7 9 -14.5 11.5
6 -7 9 19.5 9.3
6 -7 9 3.1 6.5
6 -7 9 18 9.1
-6 -7 -9 2.4 7.6
-6 -7 -9 20.3 9
-6 7 -9 17.5 7.1
6 7 9 17.6 14.8
7 -7 9 5.6 6.3
-7 -7 -9 4.4 6.7
-7 -7 -9 -5 6.3
7 -7 9 -1.7 7.3
-7 7 -9 -6.7 4.8
7 7 9 -12.8 11.7
-7 7 -9 -3.7 4.5
-8 -7 -9 15.3 7.9
8 -7 9 7.8 6.9
8 -7 9 3.1 7.9
-8 -7 -9 19.3 7.6
-8 7 -9 6.9 5.5
-8 7 -9 8.9 6.6
8 7 9 7.7 15.5
-9 -7 -9 10.7 8.7
-9 -7 -9 20.6 8.8
9 -7 9 6.9 7.6
9 -7 9 33.7 14.3
9 7 9 27.9 16.1
-9 7 -9 31.1 9
-9 7 -9 19.3 6.5
-9 -8 9 -3.6 6
9 8 -9 -9.8 12.4
-9 8 9 0.6 4.5
-8 -8 9 98.49 12.9
-8 8 9 49.3 9.3
-7 -8 9 7.2 7.4
-7 -8 9 27.5 12.7
7 -8 -9 6.2 9.6
-7 8 9 -0.3 4.2
-6 -8 9 19.6 8.1
-6 -8 9 26.3 8.3
6 -8 -9 26.9 10.1
-6 8 9 30.2 7.8
-5 -8 9 20.8 8.3
5 -8 -9 1.9 8.6
-5 -8 9 8.1 6.5
5 -8 -9 15.7 9
-5 8 9 7 5.4
-4 -8 9 9.4 8.2
-4 -8 9 13.6 7.6
4 -8 -9 -2.9 7.9
4 -8 -9 -4.1 8
-4 8 9 19.4 6.6
-3 -8 9 1.2 7.5
3 -8 -9 -6.7 7.8
3 -8 -9 -7.7 6.1
-3 -8 9 4.1 6.8
-3 8 9 -1.5 4.1
-2 -8 9 29.1 9.1
-2 -8 9 21.7 8.6
2 -8 -9 40.4 10.9
2 -8 -9 37.4 11.6
-2 8 9 21.6 6.6
-2 8 9 43.2 17.3
-1 -8 9 19.6 8.1
-1 -8 9 14.1 8.6
1 -8 -9 34.8 10.7
1 -8 -9 27.5 9.7
-1 8 9 52.79 16.9
-1 8 9 31.2 7.2
0 -8 -9 94.49 14.6
0 -8 -9 75.69 13.2
0 -8 9 83.09 13.4
0 -8 9 63.49 11.6
0 8 9 81.69 10.8
0 8 9 98.79 22
1 -8 9 68.79 12.4
1 -8 9 74.59 12.8
-1 -8 -9 69.79 12.9
-1 -8 -9 71.39 13.5
1 8 9 77.69 20.5
2 -8 9 -6.7 5.9
-2 -8 -9 -10.2 6.6
-2 -8 -9 -5.1 7.7
2 -8 9 3.4 7.3
-2 8 -9 7.6 5.5
2 8 9 2.1 12.7
-3 -8 -9 43.6 11.8
3 -8 9 20.8 9.4
3 -8 9 24.4 9.8
-3 -8 -9 40.6 11.5
3 8 9 38.1 17.4
-3 8 -9 34.1 7.9
4 -8 9 7.3 8.1
-4 -8 -9 -0.8 7.3
4 -8 9 1.1 7.4
-4 -8 -9 4.3 7
-4 8 -9 0.8 5.8
4 8 9 -3.6 13.1
-5 -8 -9 8.9 8.3
5 -8 9 47.8 12.1
5 -8 9 8.2 8.1
-5 -8 -9 29.2 10.1
-5 8 -9 28 8.5
5 8 9 18.2 14.7
-6 -8 -9 0.5 7
6 -8 9 2.9 7.8
-6 -8 -9 11.3 8
6 -8 9 19.5 10.2
-6 8 -9 0.2 5.8
6 8 9 7.4 14.1
-7 -8 -9 66.09 13
7 -8 9 87.69 15.6
-7 -8 -9 70.79 12.7
7 8 9 97.39 23.8
-7 8 -9 125.89 16.2
6 -9 -9 9.7 11.1
-6 -9 9 0.5 7.3
-6 -9 9 8.6 8
-6 9 9 4.5 6.3
-5 -9 9 0.9 7.8
5 -9 -9 -8.6 7.2
-5 -9 9 3.1 7.2
5 -9 -9 -0.8 9.6
-5 9 9 -3.4 4.6
-4 -9 9 114.49 15
4 -9 -9 102.19 16.2
4 -9 -9 131.39 20.6
-4 -9 9 136.99 16.4
-4 9 9 84.19 12.7
-3 -9 9 38.6 11.6
-3 -9 9 67.69 12.3
3 -9 -9 58.79 14.6
3 -9 -9 49 12.7
-3 9 9 65.29 10.8
2 -9 -9 30 10.7
2 -9 -9 52.09 14.2
-2 -9 9 40.8 10.7
-2 -9 9 36.9 11
-2 9 9 38.4 8.6
1 -9 -9 95.49 15.2
-1 -9 9 208.58 19.8
1 -9 -9 144.99 20.5
-1 -9 9 129.49 16.5
-1 9 9 175.08 25.9
0 -9 -9 28.6 10.3
0 -9 9 12.9 8.5
0 -9 9 12.3 9
0 -9 -9 25.7 9.8
0 9 9 30.5 16
1 -9 9 25.5 9.6
-1 -9 -9 39 11.5
1 -9 9 53.39 12.4
-1 -9 -9 49.2 12.8
1 9 9 32.9 15.3
-2 -9 -9 138.79 18.4
2 -9 9 168.98 18.5
-2 -9 -9 90.69 14.6
2 -9 9 149.39 18.2
2 9 9 105.89 23
-3 -9 -9 24 9.4
3 -9 9 6.5 8.5
3 -9 9 1.1 7.9
-3 -9 -9 22.4 9.3
3 9 9 27 15.4
-4 -9 -9 23.5 9.8
-4 -9 -9 33.8 10.7
4 -9 9 35.3 11.6
4 -9 9 23.2 10.6
4 9 9 23 15.5
-4 9 -9 58.59 11.2
16 0 -10 60.09 14
16 0 -10 58.79 16
16 0 -10 96.29 13.4
15 0 -10 239.98 25.5
15 0 -10 235.58 17.5
15 0 -10 276.27 25.4
14 0 -10 15.5 6.3
14 0 -10 32.9 11.5
14 0 -10 23.5 11.3
13 0 -10 70.59 9.7
13 0 -10 84.09 14.8
13 0 -10 83.09 13.4
12 0 -10 10.6 7.9
12 0 -10 0.8 7.4
12 0 -10 7.7 4.4
11 0 -10 378.56 24.1
11 0 -10 350.76 18.6
11 0 -10 339.57 21.5
10 0 -10 44.4 10.4
10 0 -10 28.8 8.4
10 0 -10 27.1 6
-9 0 10 2.6 1.9
9 0 -10 -0.7 3
9 0 -10 0.3 6.1
9 0 -10 -0.6 5
8 0 -10 79.19 10.9
-8 0 10 68.19 5
8 0 -10 53.19 8.1
8 0 -10 64.59 7.4
7 0 -10 344.67 17.8
-7 0 10 352.26 12.3
7 0 -10 359.96 16.4
7 0 -10 364.56 19.8
-7 0 10 345.97 12.8
6 0 -10 20.8 6.4
-6 0 10 27.5 3.4
6 0 -10 21.2 4.3
-6 0 10 25 3.5
6 0 -10 24.5 5.4
-5 0 10 51.59 4.6
5 0 -10 58.29 5
5 0 -10 46.9 6.2
5 0 -10 56.49 6.4
-5 0 10 51.09 4.9
5 0 -10 41.7 7.4
-4 0 10 1.5 1.8
-4 0 10 1.7 1.9
4 0 -10 4.4 4.2
4 0 -10 1.7 2.3
4 0 -10 0.2 2.1
3 0 -10 554.54 19.5
3 0 -10 538.75 19.2
-3 0 10 551.84 18.8
-3 0 10 579.34 18.6
-2 0 10 269.17 11.4
2 0 -10 259.27 11.2
-2 0 10 262.17 10.8
2 0 -10 234.38 11.7
-1 0 10 -0.5 2.2
-1 0 10 2.1 2.2
1 0 -10 3.1 2.9
1 0 -10 -2.2 1.9
0 0 10 17.1 3.6
0 0 -10 16.8 4.2
0 0 -10 18.6 4.1
0 0 -10 17.8 3.6
0 0 10 17.5 3.7
-1 0 -10 336.27 14.2
-1 0 -10 365.86 14.4
1 0 10 335.27 13.8
1 0 10 341.07 14.4
-1 0 -10 341.77 15.4
2 0 10 76.89 7.3
-2 0 -10 75.49 6.2
2 0 10 82.59 6.9
-2 0 -10 75.59 7.3
-2 0 -10 65.29 7.3
-3 0 -10 727.23 26.8
3 0 10 754.42 25.5
-3 0 -10 691.73 24.9
3 0 10 725.73 24.7
-3 0 -10 739.23 25.1
4 0 10 65.89 8.6
4 0 10 60.39 7.1
4 0 10 66.29 7.3
-4 0 -10 58.79 6.8
-4 0 -10 70.29 8.2
-4 0 -10 68.29 7.4
5 0 10 5.4 3.6
-5 0 -10 9.2 4.3
5 0 10 -6.7 12.6
5 0 10 0.7 3.4
5 0 10 3.2 4.6
-5 0 -10 6.9 3.7
-5 0 -10 3.7 3.4
6 0 10 77.99 17.1
-6 0 -10 73.79 8
-6 0 -10 80.59 9.1
6 0 10 83.39 9.6
-6 0 -10 84.39 8.8
6 0 10 75.89 8.5
-7 0 -10 0.8 4
7 0 10 -7.8 10.4
7 0 10 5.8 5.2
7 0 10 -2.1 3.7
-7 0 -10 -1.6 3.8
-7 0 -10 0.1 4
-8 0 -10 105.49 11
8 0 10 61.89 15
8 0 10 78.89 10.5
-8 0 -10 86.49 9.4
-8 0 -10 110.89 10.7
-9 0 -10 7.6 4.5
-9 0 -10 2 3.9
9 0 10 4.5 4.9
-9 0 -10 3.7 4.4
-10 0 -10 49.99 8.4
-10 0 -10 46.7 8.4
10 0 10 55.09 9.5
-10 0 -10 50.89 8.3
-11 0 -10 163.58 12.6
-11 0 -10 160.28 13.3
-11 0 -10 149.59 14.4
11 0 10 122.99 13.7
-12 0 -10 9.9 6.1
-12 0 -10 13.4 6.5
12 0 10 18.1 7.1
-12 0 -10 15.2 6.1
-13 0 -10 1.5 4.8
-13 0 -10 0.9 5
13 0 10 -5.4 4.9
-13 0 -10 7.4 5.8
16 -1 -10 26.9 8.1
16 -1 -10 40 13
16 -1 -10 8.8 12.2
16 1 -10 -4 11.5
16 1 -10 11.3 11.1
16 1 -10 20.3 7.4
15 -1 -10 -9.6 9.8
15 -1 -10 2.5 4.8
15 -1 -10 -6.1 7.9
15 1 -10 -7.1 7.8
15 1 -10 -1.3 4.5
15 1 -10 -15.6 10.1
14 -1 -10 -5 9.2
14 -1 -10 -1.9 7.8
14 -1 -10 1.3 4.6
14 1 -10 6.5 5
14 1 -10 13.7 9.7
14 1 -10 -5.1 8.5
13 -1 -10 42.9 10.8
13 -1 -10 36.9 10.9
13 -1 -10 30.8 7.4
13 1 -10 25.3 11.1
13 1 -10 25.1 9.5
12 -1 -10 6.1 7.1
12 -1 -10 3.9 7.8
12 -1 -10 6.4 4.9
12 1 -10 14.7 5.4
12 1 -10 8.8 8.8
12 1 -10 8.1 6.9
11 -1 -10 31 9
11 -1 -10 45.5 10.2
11 -1 -10 40.3 7.3
-11 1 10 48 5.4
11 1 -10 26.9 6.3
11 1 -10 46.7 9.8
11 1 -10 72.29 12.6
-11 1 10 43.7 5.1
10 -1 -10 11.2 7.3
10 -1 -10 20.6 7.7
10 -1 -10 11.5 4.5
10 1 -10 17.2 5.1
10 1 -10 28.3 9.7
10 1 -10 13.4 7.3
-10 1 10 20.8 3.9
-10 1 10 22.1 3.9
9 -1 -10 76.39 10.7
9 -1 -10 73.19 10.5
9 -1 -10 96.59 10
-9 -1 10 78.39 4.6
9 1 -10 81.29 12
9 1 -10 93.39 9.5
9 1 -10 68.89 10.1
-9 1 10 78.49 5.9
8 -1 -10 373.86 17.3
-8 -1 10 368.56 12.7
-8 -1 10 367.56 12.3
8 -1 -10 388.16 19.6
8 -1 -10 372.16 20.4
8 1 -10 375.86 21.6
8 1 -10 362.66 19.4
8 1 -10 370.66 17.4
-8 1 10 342.17 13.7
7 -1 -10 214.98 12.2
-7 -1 10 207.28 8.1
-7 -1 10 197.48 8.4
7 -1 -10 201.18 12.9
7 -1 -10 190.08 14.3
7 1 -10 210.18 13.6
7 1 -10 194.38 11.7
-7 1 10 195.38 9.2
7 1 -10 200.88 15.2
-6 -1 10 153.38 6.9
6 -1 -10 160.08 12.9
6 -1 -10 149.29 11
6 -1 -10 148.89 8.1
6 -1 -10 152.18 9.8
-6 -1 10 140.29 7.1
6 1 -10 158.18 10
6 1 -10 163.08 11.3
-6 1 10 153.28 8
6 1 -10 158.18 13.2
-5 -1 10 -0.2 1.6
5 -1 -10 -0.1 4.2
5 -1 -10 -2.4 2
5 -1 -10 -2.7 2.1
-5 -1 10 0.4 1.6
-5 1 10 1.6 1.6
5 1 -10 -2.7 4
5 1 -10 -6.9 2.5
5 1 -10 -1.6 2.1
-5 1 10 0 1.6
-4 -1 10 193.18 8.5
4 -1 -10 198.88 10.7
4 -1 -10 173.88 9.8
-4 -1 10 190.68 8.8
4 1 -10 199.98 13.3
4 1 -10 176.88 10.6
4 1 -10 190.38 8.4
-4 1 10 214.88 9.6
-4 1 10 191.18 8.7
-3 -1 10 129.99 7.5
-3 -1 10 133.59 7.1
3 -1 -10 131.29 8.7
-3 1 10 143.29 7.4
3 1 -10 134.79 7.3
3 1 -10 131.79 11.1
3 1 -10 137.59 7.5
-3 1 10 130.39 7.6
-2 -1 10 744.63 23.3
2 -1 -10 748.03 25.6
-2 -1 10 717.63 23.6
2 -1 -10 727.03 24
2 1 -10 725.73 23.2
2 1 -10 694.13 23.5
-2 1 10 710.53 23.1
-2 1 10 720.53 23.8
1 -1 -10 399.56 15.8
-1 -1 10 387.46 14.8
1 -1 -10 403.86 17
-1 -1 10 401.76 15.5
1 -1 -10 373.66 15.1
-1 1 10 399.66 15.3
-1 1 10 387.66 14.6
1 1 -10 412.46 15
1 1 -10 375.26 15.5
0 -1 -10 31 5.5
0 -1 -10 20 4.2
0 -1 10 17.8 3.8
0 -1 -10 32.1 4.6
0 -1 10 26.6 4.6
0 1 -10 26.2 4.4
0 1 10 28.7 4.1
0 1 10 37 4.9
0 1 -10 21.8 4.1
0 1 -10 18 3.5
1 -1 10 422.66 16.7
-1 -1 -10 429.86 16.7
-1 -1 -10 445.16 17.3
-1 -1 -10 463.15 18.8
1 -1 10 448.96 17.4
-1 1 -10 432.86 17.7
1 1 10 420.06 16.7
-1 1 -10 436.16 16.4
-1 1 -10 431.86 16.6
1 1 10 440.36 16.3
-2 -1 -10 41.2 6.5
-2 -1 -10 33.1 5.2
2 -1 10 42 5.7
2 -1 10 48.6 6.3
-2 -1 -10 39.6 5.1
-2 1 -10 55.19 6
-2 1 -10 33.8 4.9
2 1 10 53.49 5.8
-2 1 -10 45.6 6.4
2 1 10 41 5.4
-3 -1 -10 565.74 20.7
-3 -1 -10 538.95 20.8
-3 -1 -10 569.34 22.5
3 -1 10 584.34 21.1
3 -1 10 558.14 21.3
3 1 10 546.05 20.5
-3 1 -10 529.45 20.3
-3 1 -10 542.35 20.4
3 1 10 554.04 20
-3 1 -10 560.14 21.8
-4 -1 -10 436.06 19.3
-4 -1 -10 427.16 17.5
4 -1 10 414.96 19.6
4 -1 10 435.36 18.3
4 -1 10 441.96 17.8
-4 -1 -10 424.26 17.7
4 1 10 432.46 17.3
-4 1 -10 411.36 17.4
4 1 10 432.56 16.8
-4 1 -10 409.26 18.6
4 1 10 412.36 19.1
4 1 10 352.16 30.4
-4 1 -10 429.06 17.5
5 -1 10 24.8 5.7
-5 -1 -10 38 6.3
5 -1 10 30.9 5.9
-5 -1 -10 26.4 6.1
5 -1 10 22.6 6.8
-5 -1 -10 27.8 5.6
5 1 10 29.9 5.4
5 1 10 20.2 14.6
-5 1 -10 28.6 5.5
5 1 10 19.3 6.1
5 1 10 33.1 5.8
-5 1 -10 24.1 4.9
-5 1 -10 27.5 5.9
6 -1 10 141.29 12.9
6 -1 10 152.78 20.4
-6 -1 -10 137.49 9.8
6 -1 10 134.39 10.7
-6 -1 -10 145.19 10.1
6 -1 10 128.39 11.2
-6 -1 -10 135.69 11.3
-6 1 -10 140.79 10
6 1 10 111.69 20
-6 1 -10 139.19 11
-6 1 -10 135.29 10.1
6 1 10 143.59 11.7
6 1 10 121.79 9.4
-7 -1 -10 140.99 13.1
7 -1 10 141.79 12
7 -1 10 169.58 13.9
-7 -1 -10 156.98 11.3
-7 -1 -10 147.79 10.9
-7 1 -10 142.89 11
-7 1 -10 157.28 12.5
7 1 10 145.99 12.4
-7 1 -10 165.48 11.1
7 1 10 149.49 21.1
-8 -1 -10 8.6 5.3
8 -1 10 -4.2 4.6
-8 -1 -10 2.3 4.3
-8 -1 -10 -2 4
8 1 10 6.6 5.1
8 1 10 6.9 11
-8 1 -10 -4.6 3.3
-8 1 -10 -0.2 4
-8 1 -10 0.3 3.6
-9 -1 -10 499.35 21.8
9 -1 10 516.75 24.8
-9 -1 -10 482.15 23
-9 -1 -10 494.85 22.3
-9 1 -10 468.25 22.3
9 1 10 495.35 31.5
9 1 10 517.55 23.9
-9 1 -10 494.05 23
-9 1 -10 484.15 21.3
-10 -1 -10 -0.7 4.6
10 -1 10 -0.2 4.7
-10 -1 -10 -0.1 4.3
-10 -1 -10 4.3 4.4
10 1 10 -3.9 4.1
-10 1 -10 0.2 4
-10 1 -10 4.5 4.4
-10 1 -10 5.1 5
11 -1 10 26.8 7.5
-11 -1 -10 30.3 7.6
-11 -1 -10 40.8 7.8
-11 -1 -10 35.3 7.9
-11 1 -10 31.5 7.5
-11 1 -10 35.9 7.6
11 1 10 35.3 8
-11 1 -10 30.1 7.6
-12 -1 -10 7.8 5.6
-12 -1 -10 5.2 5.3
-12 -1 -10 3.9 5.8
12 -1 10 -0.5 5.3
12 1 10 5.4 6
-12 1 -10 2.1 5.1
-12 1 -10 -1.4 5
-13 -1 -10 1.4 5.4
-13 -1 -10 7.3 5.8
-13 -1 -10 4.3 6.5
13 -1 10 7.3 6.5
-13 1 -10 11.6 6.7
-13 1 -10 5.1 5.6
13 1 10 -0.9 6.1
16 -2 -10 12.6 10.3
16 -2 -10 6 6.6
16 2 -10 16.1 6.9
16 2 -10 10.8 13.9
16 2 -10 13.7 11.5
15 -2 -10 30.5 8.5
15 -2 -10 34 11.4
15 2 -10 44.3 13.1
15 2 -10 40.2 8.7
15 2 -10 22 13.4
14 -2 -10 16.5 6.6
14 -2 -10 13.5 10.5
14 -2 -10 8.1 8.9
14 2 -10 13.3 6.4
14 2 -10 29.2 13.6
14 2 -10 22.8 11.1
13 -2 -10 1.3 8.2
13 -2 -10 13 7.9
13 -2 -10 10.9 5.3
13 2 -10 0.3 3.7
13 2 -10 -4 8.1
13 2 -10 4 9.4
12 -2 -10 35.9 7.2
12 -2 -10 25 8.7
12 -2 -10 39.6 10.3
12 2 -10 18 9.7
12 2 -10 39.3 10.3
12 2 -10 30.9 6.8
-12 2 10 23.9 4.9
-12 2 10 27.5 5
11 -2 -10 298.07 20.9
11 -2 -10 296.37 17.6
11 -2 -10 343.07 20.9
11 2 -10 318.77 22.1
-11 2 10 303.97 14.1
-11 2 10 326.27 14.2
11 2 -10 318.07 24.2
11 2 -10 329.17 17.7
10 -2 -10 20.2 7.6
10 -2 -10 21.8 7
-10 2 10 22.4 4.4
10 2 -10 3.8 7.8
-10 2 10 18.2 4.1
10 2 -10 18.2 8.2
10 2 -10 19.1 5.7
9 -2 -10 40.3 6.9
9 -2 -10 35.3 8.6
9 -2 -10 46.1 9.1
-9 -2 10 38.4 3.6
-9 2 10 31.7 5
9 2 -10 41.6 10.1
-9 2 10 44 5.7
9 2 -10 48.4 9.3
9 2 -10 37.6 6.6
-8 -2 10 93.69 5.4
8 -2 -10 98.79 11.4
8 -2 -10 87.89 10.2
8 -2 -10 103.39 9.5
-8 -2 10 95.89 5.1
8 2 -10 84.09 11.7
-8 2 10 97.99 7.1
8 2 -10 93.69 11.1
8 2 -10 85.69 9.1
7 -2 -10 285.27 16.9
7 -2 -10 279.67 14.3
-7 -2 10 267.07 10.5
7 -2 -10 293.87 16.4
-7 -2 10 281.37 10.3
7 2 -10 273.57 16.3
7 2 -10 267.37 18.1
7 2 -10 288.17 14.6
-7 2 10 304.87 12.6
6 -2 -10 3.6 4.4
6 -2 -10 0.4 2.8
6 -2 -10 1 2.7
-6 -2 10 1.4 1.8
-6 -2 10 -1 1.5
6 -2 -10 4.5 4.5
6 2 -10 3.1 3
6 2 -10 -0.5 3.4
-6 2 10 0.9 1.9
6 2 -10 0 4.6
-5 -2 10 37.6 4.3
-5 -2 10 28.1 3.9
5 -2 -10 37 6.7
5 -2 -10 23.9 4.2
5 -2 -10 34.2 5.5
5 2 -10 21.5 6.3
5 2 -10 28.6 5.5
-5 2 10 29 4.3
-4 -2 10 62.59 5.5
-4 -2 10 66.79 5.2
4 -2 -10 62.59 6.5
4 -2 -10 51.99 6.9
-4 2 10 53.69 5.5
4 2 -10 54.89 6.5
4 2 -10 56.49 8.3
-4 2 10 56.59 5.8
4 2 -10 62.39 4.3
-3 -2 10 1118.89 33.9
3 -2 -10 1141.79 37.3
-3 -2 10 1143.99 34.5
3 -2 -10 1254.97 40.4
3 2 -10 1122.19 33.3
-3 2 10 1107.89 34.8
-3 2 10 1166.98 34.3
3 2 -10 1150.48 39.3
3 2 -10 1078.39 35.1
3 2 -10 1190.78 33.7
2 -2 -10 154.18 10.4
2 -2 -10 146.69 8.7
-2 -2 10 160.78 8.8
-2 -2 10 149.29 8.3
2 -2 -10 160.38 9.9
2 2 -10 159.48 8.4
2 2 -10 135.79 11.3
2 2 -10 170.78 7.9
-2 2 10 141.59 8.4
-2 2 10 159.58 8.3
2 2 -10 135.49 8.5
-1 -2 10 1915.31 54.29
1 -2 -10 1805.72 54.69
1 -2 -10 1889.51 56.59
1 -2 -10 1814.42 53.79
-1 -2 10 1867.91 53.49
-1 2 10 1860.51 53.89
1 2 -10 1888.01 53.79
1 2 -10 1927.61 52.69
-1 2 10 1899.21 53.09
0 -2 -10 296.17 13.1
0 -2 10 302.17 13.8
0 -2 10 294.77 13.2
0 -2 -10 312.67 14.4
0 -2 -10 324.47 15.6
0 2 -10 294.77 12.3
0 2 -10 299.77 13.5
0 2 10 287.97 12.5
0 2 10 304.27 13.2
1 -2 10 5 3.2
-1 -2 -10 10.8 4.2
1 -2 10 4.5 3.3
-1 -2 -10 11.1 4
-1 -2 -10 11.3 3.4
1 2 10 6.2 2.7
-1 2 -10 4.8 3.3
-1 2 -10 8.8 2.8
1 2 10 5.9 2.7
-2 -2 -10 67.49 6.7
2 -2 10 68.79 7.5
2 -2 10 77.49 8
-2 -2 -10 67.09 8.3
-2 -2 -10 75.89 8.1
2 2 10 77.99 7.5
2 2 10 73.49 6.7
-2 2 -10 72.89 7.4
-2 2 -10 69.69 7.4
-2 2 -10 71.59 6.8
-3 -2 -10 151.78 9.3
-3 -2 -10 156.78 10.3
3 -2 10 140.49 12.4
-3 -2 -10 150.68 11.2
3 -2 10 145.49 10.3
3 -2 10 160.48 10.3
3 2 10 170.18 11.5
-3 2 -10 167.58 10.5
3 2 10 149.69 8.8
-3 2 -10 142.89 9.1
3 2 10 105.09 21
-3 2 -10 153.48 9.3
3 2 10 135.39 8.8
-4 -2 -10 62.19 8.4
-4 -2 -10 66.89 7.1
4 -2 10 79.99 10
-4 -2 -10 79.59 8.8
4 -2 10 76.09 8.3
4 -2 10 78.59 8.8
-4 2 -10 87.49 8.3
4 2 10 66.99 8.1
4 2 10 81.59 7.8
-4 2 -10 78.39 7.8
-4 2 -10 74.29 8.6
4 2 10 103.39 8.5
4 2 10 69.29 20
5 -2 10 1.5 5.6
-5 -2 -10 -1.7 3.6
-5 -2 -10 -0.7 3.2
5 -2 10 -4.4 3.6
-5 -2 -10 0.1 3.2
5 -2 10 -6 3.4
5 2 10 0.1 3.9
-5 2 -10 2.8 3.5
-5 2 -10 1.5 3.2
5 2 10 -0.8 2.7
-5 2 -10 -3.2 3
5 2 10 -17 13.8
-6 -2 -10 9.6 4.5
6 -2 10 10.6 6.2
-6 -2 -10 8.1 4.8
-6 -2 -10 5.9 4.5
6 -2 10 9.3 5.2
6 -2 10 18.3 6
6 2 10 4.2 3.8
-6 2 -10 9.6 4.5
-6 2 -10 7.2 4.6
6 2 10 8.7 13.8
-6 2 -10 13.6 4.9
6 2 10 2.4 4.3
-7 -2 -10 101.29 11.5
-7 -2 -10 75.39 8.7
7 -2 10 65.29 9.3
7 -2 10 102.69 11
-7 -2 -10 88.39 9.7
-7 2 -10 87.29 10.1
7 2 10 90.69 9.8
7 2 10 88.29 19
-7 2 -10 78.99 9.2
8 -2 10 22.4 6.4
-8 -2 -10 17.8 6.2
8 -2 10 15.1 6.1
-8 -2 -10 8.6 4.8
-8 -2 -10 20.4 5.7
-8 2 -10 4.8 4.8
8 2 10 8.8 12.2
8 2 10 10 5.1
-8 2 -10 16.3 5.4
-9 -2 -10 62.09 8.6
9 -2 10 72.39 10.9
-9 -2 -10 57.79 8.5
-9 -2 -10 67.29 9.6
-9 2 -10 83.39 10.6
-9 2 -10 67.29 9.1
9 2 10 78.29 16.4
9 2 10 52.99 8.4
-10 -2 -10 8.8 5.9
10 -2 10 4 5.1
-10 -2 -10 -0.7 4
-10 -2 -10 3 4.5
-10 2 -10 -1.6 4.2
10 2 10 6.8 10.9
-10 2 -10 -3.7 4.3
10 2 10 1.6 4.8
-11 -2 -10 2.3 5.3
-11 -2 -10 -0.4 4.8
-11 -2 -10 -2 4.9
11 -2 10 2.3 5.5
11 2 10 12.5 17.8
-11 2 -10 9.1 5.4
-11 2 -10 4.2 5.3
11 2 10 -3.6 4.5
-12 -2 -10 8.3 5.7
-12 -2 -10 3.9 5.6
12 -2 10 5.1 6.1
-12 -2 -10 7 6.1
12 2 10 10 6.5
-12 2 -10 4 5.4
-12 2 -10 11.1 5.9
-13 -2 -10 -2.9 4.7
-13 -2 -10 -8 4.9
-13 -2 -10 -12.5 4.4
13 -2 10 -2.6 5.3
-13 2 -10 -5.5 4.6
13 2 10 1.5 5.8
-13 2 -10 -2.4 5
15 -3 -10 41.4 11.8
15 -3 -10 28.6 7.9
15 3 -10 37.3 15.4
15 3 -10 35.8 8.4
15 3 -10 19 12.3
14 -3 -10 30.8 8
14 -3 -10 37.9 10.6
14 3 -10 30.7 7.6
14 3 -10 38.7 14.7
14 3 -10 37.8 12.9
-14 3 10 45.6 7.6
13 -3 -10 3.8 5.1
13 -3 -10 19.2 8.7
-13 3 10 11.9 4.6
13 3 -10 9 5.5
13 3 -10 10.1 9.3
13 3 -10 10.6 11.2
12 -3 -10 9.1 7.1
12 -3 -10 16.2 5.8
12 3 -10 8.2 8.6
-12 3 10 17.6 4.7
12 3 -10 11 5.3
-12 3 10 6.8 3.7
12 3 -10 3 9.3
11 -3 -10 75.79 11.5
11 -3 -10 93.39 10.9
11 -3 -10 75.89 17.3
-11 3 10 91.09 8.8
-11 3 10 93.69 9
11 3 -10 76.39 9.8
11 3 -10 79.29 13.2
11 3 -10 72.49 14
10 -3 -10 -4.4 4.8
10 -3 -10 0.8 3.8
10 -3 -10 3.5 6.2
10 3 -10 1.9 7.5
-10 3 10 0.2 2.9
10 3 -10 0 6.8
-10 3 10 2 2.6
10 3 -10 -1.3 3.4
9 -3 -10 0.3 5.7
9 -3 -10 -2.4 5.3
-9 -3 10 0 2.1
9 -3 -10 0.8 3.9
9 3 -10 2.4 7.2
9 3 -10 8 7
-9 3 10 4 3.1
-9 3 10 -1 2.8
9 3 -10 -0.6 3.2
-8 -3 10 33.6 4.2
8 -3 -10 36.2 8.2
8 -3 -10 30.3 5.9
8 -3 -10 36.8 8.3
-8 3 10 39.8 5.8
8 3 -10 44 9
8 3 -10 38.9 10
8 3 -10 21.9 5.3
-7 -3 10 331.57 12.7
7 -3 -10 311.37 15.7
7 -3 -10 330.97 18
-7 -3 10 308.17 12.3
7 -3 -10 336.97 16.4
7 -3 -10 327.77 18.4
7 3 -10 329.67 21
7 3 -10 344.97 18.7
-7 3 10 351.06 15
7 3 -10 365.76 16.9
6 -3 -10 103.29 10.6
6 -3 -10 99.69 8.3
-6 -3 10 116.19 6.6
6 -3 -10 122.29 9.9
-6 -3 10 81.19 6.2
6 3 -10 101.59 11.9
-6 3 10 97.19 7.5
6 3 -10 113.89 10.6
5 -3 -10 500.65 20.1
-5 -3 10 505.85 17.8
-5 -3 10 491.65 17.3
5 -3 -10 491.65 21
5 -3 -10 473.25 19.1
-5 3 10 527.45 19.3
5 3 -10 512.45 24
5 3 -10 490.25 20.7
4 -3 -10 55.49 7.4
-4 -3 10 59.99 6
-4 -3 10 60.79 5.9
4 -3 -10 40.6 5.2
4 -3 -10 55.49 7.7
4 3 -10 43.5 7.7
-4 3 10 50.39 5.8
4 3 -10 50.29 6.5
-3 -3 10 10.6 3.3
-3 -3 10 10.6 3.1
3 -3 -10 11.2 4.4
3 -3 -10 13.1 4.6
3 3 -10 7.9 2.5
3 3 -10 12.2 2.7
-3 3 10 3.8 2.4
-3 3 10 10.4 3
3 3 -10 9.6 4.6
3 3 -10 2.4 2.9
2 -3 -10 68.09 7.7
-2 -3 10 82.99 7.7
2 -3 -10 91.49 9.7
-2 -3 10 69.39 7.2
2 3 -10 92.39 9.7
-2 3 10 74.99 6.9
2 3 -10 71.09 5.9
2 3 -10 71.39 5.2
-2 3 10 82.59 6.7
2 3 -10 68.59 6.3
1 -3 -10 386.36 18
-1 -3 10 436.36 17.8
1 -3 -10 457.15 19.9
-1 -3 10 435.66 17.1
1 -3 -10 427.16 17
1 3 -10 409.06 16.4
1 3 -10 411.56 19.3
1 3 -10 425.26 15.1
1 3 -10 410.96 15
-1 3 10 417.86 16.1
-1 3 10 418.06 16.8
0 -3 -10 715.43 26.1
0 -3 10 711.33 25.5
0 -3 -10 698.23 27.3
0 -3 -10 684.63 24.1
0 -3 10 708.63 24.9
0 3 -10 700.73 22.7
0 3 -10 677.33 24.2
0 3 10 678.63 23.4
0 3 -10 678.03 21.4
0 3 10 692.43 24.3
0 3 -10 705.13 26.2
1 -3 10 378.26 16.7
-1 -3 -10 405.36 19
1 -3 10 368.46 17.1
-1 -3 -10 355.46 17.1
-1 -3 -10 366.36 15.6
-1 3 -10 385.66 14.9
1 3 10 397.16 16
1 3 10 372.96 15.2
-1 3 -10 377.36 16.5
2 -3 10 551.34 22
2 -3 10 553.04 22.6
-2 -3 -10 559.14 20.8
-2 -3 -10 547.05 22.4
-2 -3 -10 555.04 24
2 3 10 591.34 20.5
-2 3 -10 549.45 22
-2 3 -10 561.74 20.3
2 3 10 571.74 21
2 3 10 506.15 36.6
3 -3 10 11.1 4.5
3 -3 10 0.5 5.3
-3 -3 -10 10.8 5
3 -3 10 13.3 5
-3 -3 -10 7 4.5
-3 -3 -10 3 3.3
3 3 10 10.2 3.4
-3 3 -10 10.9 4.3
3 3 10 8.5 3.5
3 3 10 3.6 4.5
-3 3 -10 6.9 3.4
3 3 10 24.2 18
4 -3 10 13 6.4
4 -3 10 4.2 4.3
4 -3 10 5.4 4.1
-4 -3 -10 -2.5 2.6
-4 -3 -10 8.4 4.9
-4 -3 -10 5.7 4.5
4 3 10 6.3 4.3
-4 3 -10 0.2 2.8
-4 3 -10 0.9 3.4
4 3 10 7.5 3.4
4 3 10 23.5 17.5
-5 -3 -10 -2.7 4.4
-5 -3 -10 -2.7 4.4
5 -3 10 7.4 5.2
-5 -3 -10 0.3 3.3
5 -3 10 4 4.8
5 -3 10 1 5.7
5 3 10 0.1 3.8
5 3 10 -1.3 14.4
5 3 10 1.5 3.3
-5 3 -10 9.5 4
-5 3 -10 4.6 4.2
-6 -3 -10 283.57 17.4
6 -3 10 256.97 16.2
6 -3 10 249.08 15.8
-6 -3 -10 255.47 15.4
-6 -3 -10 254.77 14.1
6 -3 10 248.98 17
-6 3 -10 249.48 15.2
6 3 10 240.58 14.3
6 3 10 274.77 29.9
-6 3 -10 227.58 13.8
7 -3 10 -7.7 4.3
-7 -3 -10 1.8 4.8
7 -3 10 -2.4 5
-7 -3 -10 3.2 4.7
-7 -3 -10 -1.9 3.5
-7 3 -10 3 4.2
7 3 10 1.2 4
-7 3 -10 2.7 3.9
7 3 10 0.2 12.6
-8 -3 -10 6 4.6
8 -3 10 7.9 5.7
8 -3 10 20 6.9
-8 -3 -10 4.3 5.4
-8 -3 -10 20.5 6
8 3 10 12.4 5
8 3 10 22.2 13.8
-8 3 -10 5.8 5.1
-8 3 -10 15.1 5.5
-9 -3 -10 63.59 8.7
-9 -3 -10 58.19 8.8
9 -3 10 75.59 11.3
-9 -3 -10 67.79 10.1
9 3 10 50.29 8.1
-9 3 -10 81.39 10.8
-9 3 -10 66.69 9.3
9 3 10 64.09 17.7
-10 -3 -10 120.89 13.2
-10 -3 -10 120.89 12.4
-10 -3 -10 147.19 11.9
10 -3 10 149.09 15.3
10 3 10 124.99 12.8
-10 3 -10 114.69 12.9
10 3 10 130.19 22.5
-10 3 -10 138.39 14.2
-11 -3 -10 15.3 6.7
-11 -3 -10 -3.4 5.8
-11 -3 -10 15.6 6.4
11 -3 10 18.3 7.9
-11 3 -10 4.4 5.2
-11 3 -10 16.8 6.8
11 3 10 29.5 14.6
-12 -3 -10 113.39 13.6
-12 -3 -10 123.39 13.4
12 -3 10 130.09 15.2
-12 -3 -10 128.39 13.4
12 3 10 128.09 22.7
-12 3 -10 129.79 14.3
-12 3 -10 155.88 16.2
-13 -3 -10 18.9 7.4
-13 -3 -10 18.6 6.7
13 -3 10 1.1 6.7
-13 -3 -10 2.3 7.4
-13 3 -10 12.6 6.4
-13 3 -10 15.5 7.3
15 -4 -10 50.89 12.7
15 4 -10 58.09 16
-15 4 10 59.99 9.4
15 4 -10 34.2 16.9
14 -4 -10 10 8.8
14 -4 -10 6.2 5.9
14 4 -10 19.5 6.7
-14 4 10 8.6 5
-14 4 10 9.6 4.7
14 4 -10 3.9 12.1
14 4 -10 4.9 10.9
13 -4 -10 75.49 11.1
13 -4 -10 73.09 12.9
13 4 -10 65.99 16.3
-13 4 10 78.19 9.3
-13 4 10 81.09 9.9
13 4 -10 79.69 15.7
13 4 -10 69.39 10.2
12 -4 -10 11.3 6.9
12 -4 -10 6 5.4
12 4 -10 14.2 11.6
-12 4 10 9.3 4.3
-12 4 10 14.6 5
12 4 -10 2.9 4.4
12 4 -10 12.7 9.7
11 -4 -10 6.2 6.1
11 -4 -10 7.6 5.2
11 4 -10 -12.3 7.8
11 4 -10 7.5 4.5
-11 4 10 7 4.3
11 4 -10 3.6 8.5
-11 4 10 10.4 4.1
10 -4 -10 79.89 10
10 -4 -10 86.49 11.8
10 4 -10 68.99 8.7
-10 4 10 97.59 9.6
-10 4 10 100.19 10
10 4 -10 92.09 15.4
10 4 -10 102.39 14.4
-9 -4 10 56.99 5.6
9 -4 -10 65.89 10.4
9 -4 -10 65.69 8.5
9 4 -10 72.49 13.3
-9 4 10 66.39 8.2
-9 4 10 70.49 8
9 4 -10 65.89 11.6
9 4 -10 56.09 8.1
-8 -4 10 83.39 6.9
8 -4 -10 88.29 11
8 -4 -10 88.79 9.2
8 4 -10 80.19 9.2
-8 4 10 73.79 8.3
8 4 -10 75.89 12.9
8 4 -10 76.19 11.2
7 -4 -10 221.28 15.7
-7 -4 10 202.88 10.3
-7 -4 10 231.58 11.1
7 -4 -10 212.58 14.7
7 -4 -10 213.58 15.1
7 -4 -10 223.68 12.8
7 4 -10 227.38 19
7 4 -10 197.78 15.7
-7 4 10 205.58 12.4
-6 -4 10 317.67 13.8
-6 -4 10 301.67 13.2
6 -4 -10 292.47 17.2
6 -4 -10 326.37 15.2
6 -4 -10 323.57 17.3
6 4 -10 303.67 17.5
-6 4 10 305.47 14.7
6 4 -10 311.67 20.5
5 -4 -10 42.4 7.3
-5 -4 10 40.2 5.7
-5 -4 10 25.8 4.8
5 -4 -10 27.5 6.6
5 -4 -10 25.8 4.8
5 4 -10 30.1 7.8
5 4 -10 32.8 6.4
-5 4 10 33.5 5.4
4 -4 -10 183.08 12.3
-4 -4 10 165.08 10.1
4 -4 -10 174.38 10
4 -4 -10 208.48 13.7
-4 -4 10 194.08 10.9
-4 4 10 191.18 11
4 4 -10 159.58 11.2
4 4 -10 185.18 14.5
3 -4 -10 56.09 8
-3 -4 10 48.7 6.4
3 -4 -10 39 7.3
-3 -4 10 39.7 6
3 4 -10 39.9 5.8
-3 4 10 45.1 6.1
-3 4 10 51.69 6.2
3 4 -10 42.8 7.6
-2 -4 10 28.9 5.5
2 -4 -10 39.7 7.3
-2 -4 10 41.4 6.1
2 -4 -10 35 7.2
-2 4 10 39.5 6
2 4 -10 43.5 4.5
2 4 -10 41.3 5.3
2 4 -10 33.5 7
-2 4 10 37.4 5.2
-1 -4 10 21 5.3
1 -4 -10 19.7 6
-1 -4 10 21.1 5.2
1 -4 -10 35.3 6.4
-1 4 10 13.9 3.7
1 4 -10 17.6 4.1
-1 4 10 27.4 5.2
1 4 -10 30.5 3.9
1 4 -10 19.1 5.6
0 -4 -10 152.28 14
0 -4 -10 103.29 10.8
0 -4 10 116.59 9.8
0 -4 -10 138.19 9
0 -4 10 110.89 10.6
0 4 10 125.79 8.5
0 4 -10 109.09 10.1
0 4 -10 119.49 7.3
0 4 -10 174.38 10
0 4 10 72.69 22.9
0 4 10 130.49 9.1
-1 -4 -10 15.6 4.4
1 -4 10 20 5.7
-1 -4 -10 9.7 5.5
-1 -4 -10 5.4 5.4
1 -4 10 8.1 4.5
1 4 10 17.1 4.5
-1 4 -10 15.8 5.2
1 4 10 12.9 3.9
1 4 10 27.2 20.1
-1 4 -10 13.8 4.2
-1 4 -10 17.2 3.7
-2 -4 -10 264.57 16.3
2 -4 10 259.77 16.6
2 -4 10 244.58 15
-2 -4 -10 229.58 14.3
2 -4 10 239.98 14.2
-2 -4 -10 240.38 12.5
2 4 10 233.58 12.1
-2 4 -10 259.37 12.1
2 4 10 235.48 31.1
-2 4 -10 238.28 13.7
2 4 10 242.78 12.6
-3 -4 -10 27 5.2
3 -4 10 21.3 6.9
3 -4 10 29.2 7.3
-3 -4 -10 30.2 7
-3 -4 -10 22.9 6.5
3 -4 10 26.9 6.6
-3 4 -10 30.1 5
3 4 10 32.5 18.9
-3 4 -10 23.5 5.6
3 4 10 29.8 5.5
4 -4 10 -4.7 4.5
4 -4 10 -1.4 6
-4 -4 -10 -1.4 4.9
4 -4 10 -0.7 4.8
-4 -4 -10 1.4 4.6
-4 -4 -10 4.4 3.9
4 4 10 0.9 3.4
4 4 10 -0.4 16.2
-4 4 -10 3.7 4.3
-4 4 -10 1.7 3.2
-5 -4 -10 7.4 4.4
5 -4 10 18.8 7
5 -4 10 7.2 5.9
-5 -4 -10 12.6 6.9
-5 -4 -10 3.6 6
5 -4 10 13 6.9
5 4 10 8.3 16
-5 4 -10 8.1 4.8
-5 4 -10 6.7 4
-6 -4 -10 212.18 12.5
6 -4 10 194.18 15
-6 -4 -10 220.48 14.6
6 -4 10 208.58 14.9
6 -4 10 191.48 15.3
-6 -4 -10 204.48 15.5
-6 4 -10 191.28 13.9
6 4 10 183.08 26.5
-6 4 -10 205.48 12.6
-7 -4 -10 6.7 4.6
-7 -4 -10 11.7 6
7 -4 10 16 7
7 -4 10 24.8 7.6
-7 -4 -10 20.4 7.1
-7 4 -10 21.6 5.7
7 4 10 6 12.6
-7 4 -10 14.7 5.4
8 -4 10 100.79 13
8 -4 10 86.09 11.4
-8 -4 -10 95.69 12.4
-8 -4 -10 98.19 11.9
-8 -4 -10 93.49 10
-8 4 -10 101.39 12.2
-8 4 -10 102.89 11.2
8 4 10 100.39 20.6
-9 -4 -10 -0.5 5.6
-9 -4 -10 6.4 4.7
9 -4 10 5.5 6.3
-9 -4 -10 7.2 6.1
-9 4 -10 -1 4.2
9 4 10 21.8 13.8
-9 4 -10 3.8 5.2
-10 -4 -10 48.5 10
-10 -4 -10 69.79 10.3
10 -4 10 59.49 10.9
-10 -4 -10 57.39 9.2
-10 4 -10 37.5 7.8
-10 4 -10 40.9 9
10 4 10 71.79 19.1
-11 -4 -10 33.7 8.7
11 -4 10 20.9 8.2
-11 -4 -10 33.4 8
-11 4 -10 31.4 8.4
-11 4 -10 46.4 9.7
11 4 10 58.59 18.3
12 -4 10 -0.4 6.7
-12 -4 -10 -3.3 5.5
-12 -4 -10 -0.3 6.4
-12 4 -10 -1.6 5
-12 4 -10 -0.7 5.4
12 4 10 21.4 15.5
14 -5 -10 21.6 9.5
14 -5 -10 12.3 7.3
-14 5 10 29.1 7.5
14 5 -10 20.2 12.7
-14 5 10 30 7.6
14 5 -10 15.5 15
13 -5 -10 18.3 8.5
13 -5 -10 14.2 7.1
13 5 -10 5.4 12.1
-13 5 10 13.4 5.5
13 5 -10 32.7 12.8
-13 5 10 13.3 6
12 -5 -10 38.2 9.6
12 -5 -10 42.1 8.8
-12 5 10 45.3 8.4
12 5 -10 45.5 12.8
-12 5 10 49.1 8.3
12 5 -10 26.6 13.3
11 -5 -10 29.6 9.2
11 -5 -10 36.4 8.3
-11 5 10 29 6.6
11 5 -10 15.1 12.2
11 5 -10 9.8 10.5
-11 5 10 28.3 6.7
10 -5 -10 0.6 5.9
10 -5 -10 -1.5 4.2
10 5 -10 12.2 9.3
-10 5 10 1.8 3.4
10 5 -10 7.8 9.4
-10 5 10 2.1 3.4
9 -5 -10 4.3 4.2
9 -5 -10 13.5 6.9
-9 -5 10 13.5 4.2
9 5 -10 10.6 9
9 5 -10 13.2 8.3
-9 5 10 9 4.2
8 -5 -10 401.36 21.5
-8 -5 10 396.26 16.6
8 -5 -10 406.46 18.8
8 5 -10 420.76 27.2
-8 5 10 404.06 19
8 5 -10 424.36 23.8
-7 -5 10 169.68 10.6
7 -5 -10 193.58 14.7
-7 -5 10 189.48 11.2
7 -5 -10 182.58 11.9
7 5 -10 180.28 16.3
7 5 -10 180.48 18.6
-7 5 10 182.58 12.2
6 -5 -10 124.19 9.9
-6 -5 10 145.19 10.3
6 -5 -10 162.18 15.1
-6 -5 10 150.88 10.6
-6 5 10 145.09 10.7
6 5 -10 152.38 13.7
6 5 -10 143.69 15.7
5 -5 -10 134.49 14
5 -5 -10 113.19 12.7
-5 -5 10 119.59 10.4
5 -5 -10 131.19 9.2
-5 -5 10 92.59 9.5
5 5 -10 115.39 13.7
-5 5 10 112.09 9.5
4 -5 -10 127.29 13.2
-4 -5 10 129.29 10.5
4 -5 -10 121.29 8.7
4 -5 -10 121.99 13
-4 -5 10 125.89 11
-4 5 10 125.89 9.8
4 5 -10 116.49 13.2
-3 -5 10 96.39 9.8
3 -5 -10 67.19 9.8
3 -5 -10 80.29 11.2
-3 -5 10 74.19 8.9
-3 5 10 80.69 23.3
3 5 -10 62.49 9.7
-3 5 10 67.09 7.5
-3 5 10 92.79 9.6
-2 -5 10 110.59 10.9
2 -5 -10 119.89 13.1
-2 -5 10 125.29 11.8
2 -5 -10 113.39 12
-2 5 10 112.29 8.6
-2 5 10 103.09 9.8
2 5 -10 102.79 11.3
-2 5 10 96.49 25.6
-1 -5 10 61.89 8.9
1 -5 -10 36 8.3
-1 -5 10 47.8 8.1
1 -5 -10 37.8 8.4
-1 5 10 33.2 20.7
1 5 -10 55.19 7.1
1 5 -10 34.7 7.2
-1 5 10 52.89 6.6
-1 5 10 62.89 7.8
0 -5 10 85.29 10.1
0 -5 10 89.79 11
0 -5 -10 75.99 10.8
0 -5 -10 101.19 11.9
0 5 10 104.59 8.1
0 5 -10 86.09 8.8
0 5 10 93.69 9.1
0 5 10 114.09 26.2
1 -5 10 153.88 14
-1 -5 -10 167.18 15.1
-1 -5 -10 177.38 15
1 -5 10 191.48 13.9
1 5 10 186.98 10.8
1 5 10 248.88 32.7
-1 5 -10 172.58 11.6
1 5 10 173.78 11.4
-1 5 -10 171.58 9.7
2 -5 10 267.27 16.8
-2 -5 -10 253.57 13.3
2 -5 10 264.47 16.9
2 -5 10 225.88 15.7
-2 -5 -10 276.47 16.9
-2 -5 -10 244.98 17.5
2 5 10 263.07 14
-2 5 -10 260.67 14.8
-2 5 -10 234.88 12.1
2 5 10 291.57 34.1
-3 -5 -10 118.99 9.4
-3 -5 -10 109.79 12
3 -5 10 141.09 14.2
-3 -5 -10 124.29 14.3
3 -5 10 133.69 13
3 -5 10 95.79 12
-3 5 -10 143.29 11.5
-3 5 -10 135.79 9.2
3 5 10 110.89 22.7
3 5 10 132.59 10.1
-4 -5 -10 35.6 8
-4 -5 -10 21.5 7.5
4 -5 10 29.6 7.5
-4 -5 -10 34.7 6.1
4 -5 10 32.7 8.2
4 -5 10 22.5 7.5
4 5 10 46.6 18.6
-4 5 -10 36.7 6.1
5 -5 10 0.7 5.7
5 -5 10 -5.1 4.8
-5 -5 -10 27.6 7.8
5 -5 10 3.8 5.8
-5 5 -10 1.9 3.5
-5 5 -10 9.1 5.1
5 5 10 45.5 17.3
6 -5 10 17.4 7.2
-6 -5 -10 4.8 4.6
6 -5 10 13.6 6.5
6 -5 10 -1.4 5.9
-6 -5 -10 8.7 6.5
-6 -5 -10 14 6.3
-6 5 -10 7.8 4.1
-6 5 -10 15.5 5.9
6 5 10 23.1 15.6
-7 -5 -10 -8.5 4.6
-7 -5 -10 0.2 4.3
7 -5 10 1.3 5.7
-7 -5 -10 4.3 5.6
7 -5 10 -4.4 5.2
7 5 10 -8.9 12
-7 5 -10 -0.2 3.3
-7 5 -10 2.7 4.7
-8 -5 -10 5.2 6.1
-8 -5 -10 12.5 7.4
8 -5 10 7.8 6.8
8 -5 10 1.2 6.1
8 5 10 21.1 15.6
-8 5 -10 1.9 4.7
-8 5 -10 2.6 4.3
9 -5 10 95.79 13.3
-9 -5 -10 73.19 11.1
-9 -5 -10 64.29 11.2
9 5 10 77.49 21.8
-9 5 -10 103.39 12.4
-9 5 -10 98.09 12.4
10 -5 10 15 7.9
-10 -5 -10 9.5 6.9
-10 -5 -10 5.6 6.5
10 5 10 14.6 15.4
-10 5 -10 11.9 5.8
-10 5 -10 20.6 7
11 -5 10 13.3 8.2
-11 -5 -10 10 6.6
-11 -5 -10 -2.4 6.3
11 5 10 5.8 14.3
-11 5 -10 11.4 6.3
-11 5 -10 5.3 5.7
13 6 -10 1.5 13.5
13 6 -10 3.3 12.1
-13 6 10 0.8 5.1
12 -6 -10 2.7 5.9
-12 6 10 8 5.3
12 6 -10 1.2 11.1
-12 6 10 14.1 5.5
12 6 -10 3.2 12.3
11 -6 -10 16.9 8.4
-11 6 10 9.9 5.4
11 6 -10 0.4 10.1
11 6 -10 6.8 12.3
-11 6 10 15.2 5.8
10 -6 -10 -7.3 6.1
10 6 -10 -1.4 11.2
-10 6 10 2.8 4.2
10 6 -10 0.6 9.4
9 -6 -10 19.2 7.7
-9 -6 10 29 6.4
9 6 -10 31.2 10.8
-9 6 10 20.5 6.1
9 6 -10 6.4 10.4
-8 -6 10 0.9 4.9
8 -6 -10 0.6 5.9
-8 6 10 5.9 4.3
8 6 -10 20.1 10.2
7 -6 -10 4.9 5.7
-7 -6 10 11.1 5.2
-7 -6 10 0.3 4.4
7 6 -10 7.4 8.2
-7 6 10 6.9 4.3
-6 -6 10 44.6 7.8
-6 -6 10 36.6 7.4
6 -6 -10 53.39 10.4
-6 6 10 41.5 7.2
6 6 -10 23 9.3
5 -6 -10 108.59 13.7
5 -6 -10 119.09 14.6
-5 -6 10 112.89 11.6
-5 -6 10 99.99 10.8
-5 6 10 123.89 25.1
5 6 -10 91.19 13.2
-5 6 10 106.59 10.8
-4 -6 10 -5.1 4.1
4 -6 -10 4.2 5.7
-4 -6 10 -0.8 4.5
4 -6 -10 18.5 7.4
-4 6 10 1.1 3.6
-4 6 10 -11.8 17.1
4 6 -10 6.1 6.6
3 -6 -10 541.35 27.1
3 -6 -10 494.85 25.2
-3 -6 10 584.04 24.5
-3 -6 10 582.44 24.2
-3 6 10 525.35 21.6
-3 6 10 533.75 22.8
3 6 -10 534.05 27.3
-3 6 10 417.86 37.4
-2 -6 10 45.7 8.6
2 -6 -10 70.19 11.8
-2 -6 10 40.8 8.1
2 -6 -10 57.79 9.9
-2 6 10 22.7 19.8
-2 6 10 39.6 6.4
-2 6 10 51.49 7.6
-1 -6 10 121.69 13.2
1 -6 -10 134.79 15
-1 -6 10 150.68 14.6
1 -6 -10 147.09 15.3
-1 6 10 102.19 24
-1 6 10 145.99 10.6
-1 6 10 141.29 10.9
0 -6 10 76.29 10.3
0 -6 -10 14.1 6.9
0 -6 -10 12.3 7
0 -6 10 73.99 10.7
0 6 10 17.7 16.9
0 6 -10 26.5 5.7
0 6 10 16 5
0 6 10 13.1 5
-1 -6 -10 60.29 10.1
1 -6 10 57.09 9.7
1 -6 10 74.59 11
1 -6 10 37.5 8.4
-1 -6 -10 60.89 11.1
1 6 10 63.99 8.1
-1 6 -10 58.79 8.2
1 6 10 59.79 20.6
-2 -6 -10 16.9 7.4
2 -6 10 14 6.7
-2 -6 -10 32.9 9
2 -6 10 40.4 8.9
2 -6 10 21.4 8
2 6 10 25.1 5.6
2 6 10 22.1 17.5
-2 6 -10 26.9 6.2
3 -6 10 1.1 6.1
-3 -6 -10 12.1 7.3
-3 -6 -10 17.6 6.6
3 -6 10 16.9 6.5
-3 -6 -10 6.6 4.3
3 -6 10 11.8 6.7
3 6 10 17.7 16.2
-3 6 -10 15 5.5
-4 -6 -10 15.6 7.3
4 -6 10 15.4 7.3
4 -6 10 11.1 7
-4 -6 -10 23.1 7.5
4 -6 10 10.8 6.7
4 6 10 28.1 15.6
-4 6 -10 30.4 7.1
-4 6 -10 24.6 5.4
5 -6 10 10.4 6.5
-5 -6 -10 21.8 8.1
5 -6 10 8.9 6.8
5 -6 10 0.1 5.9
-5 -6 -10 14.2 6.4
5 6 10 17.6 14.9
-5 6 -10 12.8 5.9
-5 6 -10 9.9 4.5
6 -6 10 16.2 7.2
6 -6 10 7 7
-6 -6 -10 21 7.8
6 -6 10 35.5 9.4
-6 -6 -10 15.4 7.5
6 6 10 11.4 14.9
-6 6 -10 19.9 6.8
-6 6 -10 5.6 4.6
-7 -6 -10 15.1 8.3
-7 -6 -10 4.6 6.7
7 -6 10 -3.6 6.3
7 -6 10 5.5 7.5
-7 6 -10 5.2 4.7
7 6 10 12.4 15.4
-7 6 -10 3.3 5.5
8 -6 10 10.5 7.4
-8 -6 -10 3.7 7
-8 -6 -10 0 6.4
8 -6 10 8.6 7.8
-8 6 -10 7.9 6.5
-8 6 -10 0.4 4.7
8 6 10 19.2 15.5
-9 -6 -10 -1.5 5.6
-9 -6 -10 11.6 7.4
9 -6 10 -3.6 6.9
9 6 10 21.9 15.9
-9 6 -10 4.8 5.1
-9 6 -10 2.5 5.9
10 -6 10 -7.2 6.2
-10 -6 -10 -1.2 6.6
-10 -6 -10 1.7 6.8
-10 6 -10 4.6 5.5
-10 6 -10 2.5 5.4
10 6 10 40.9 17.5
-11 7 10 114.49 13.6
11 7 -10 87.09 19.6
10 7 -10 -0.8 12.4
-10 7 10 23.7 7.1
-9 -7 10 17.9 6.7
9 7 -10 -6.5 10.3
-9 7 10 27.8 7.2
-8 -7 10 70.09 10.2
8 7 -10 46.8 14.9
-8 7 10 65.69 9.7
-7 -7 10 3.5 5.8
7 -7 -10 4.2 7
-7 -7 10 8.8 6.2
-7 7 10 2 4.4
7 7 -10 -10.4 8.9
6 -7 -10 52.79 11.1
-6 -7 10 43.9 8.9
-6 -7 10 28 7.8
-6 7 10 28.6 6.8
6 7 -10 22.9 10.5
5 -7 -10 57.19 10.9
-5 -7 10 59.39 9.9
5 -7 -10 55.29 11.4
-5 -7 10 50.39 9.4
-5 7 10 67.29 9.7
-4 -7 10 21.7 7.1
4 -7 -10 9.9 7.7
-4 -7 10 12.3 6.6
4 -7 -10 10.3 8
-4 7 10 12.8 5.4
-4 7 10 15.5 15.4
-3 -7 10 80.39 11.1
-3 -7 10 77.99 11.2
3 -7 -10 87.49 13.7
3 -7 -10 89.49 13.3
-3 7 10 68.19 8.7
-3 7 10 109.49 11.9
-3 7 10 66.19 20.6
-2 -7 10 261.77 17.7
-2 -7 10 227.08 16.9
2 -7 -10 223.88 19.2
2 -7 -10 261.87 18.8
-2 7 10 222.78 13.5
-2 7 10 223.68 14.6
-2 7 10 193.28 28.1
-1 -7 10 76.99 11.6
1 -7 -10 71.79 11.9
1 -7 -10 103.79 14.6
-1 -7 10 102.69 13.1
-1 7 10 89.39 10.1
-1 7 10 100.19 22.1
-1 7 10 88.49 10.4
0 -7 10 59.99 10.4
0 -7 10 63.59 11.3
0 -7 -10 49.99 11
0 -7 -10 48.6 10.5
0 7 10 55.69 18.9
0 7 10 51.19 8.2
-1 -7 -10 10.2 6.8
-1 -7 -10 8 7
1 -7 10 12 7.1
1 -7 10 22.7 8.5
-1 7 -10 6.5 4.9
1 7 10 8.6 4.7
1 7 10 -11.2 13.7
-2 -7 -10 68.99 11.7
2 -7 10 48.3 10
-2 -7 -10 79.09 13.3
2 -7 10 99.89 13.5
-2 7 -10 86.19 11
2 7 10 46.8 18.7
3 -7 10 77.19 12.8
-3 -7 -10 50.89 10.9
3 -7 10 88.79 13.3
-3 -7 -10 73.79 12.1
-3 7 -10 102.99 12
3 7 10 57.89 19.2
-4 -7 -10 124.29 14.7
-4 -7 -10 119.99 15.3
4 -7 10 141.79 16.8
4 -7 10 133.89 16.1
-4 7 -10 173.28 16.2
4 7 10 117.79 26.2
-5 -7 -10 -1 7.3
5 -7 10 20.2 8.9
5 -7 10 -4 5.7
5 -7 10 11.6 8.2
-5 -7 -10 6.1 7.3
5 7 10 -0.7 13.7
-5 7 -10 -0.1 5
-6 -7 -10 31.8 9.8
6 -7 10 48.4 10
6 -7 10 29.6 10.5
-6 -7 -10 41 9.7
-6 7 -10 65.69 11.5
6 7 10 49.1 18.6
7 -7 10 8.6 9
-7 -7 -10 -0.6 6.6
-7 -7 -10 -4.4 6.2
7 -7 10 -0.9 6.4
-7 7 -10 3.2 5.7
7 7 10 7.4 14.2
8 -7 10 -3.5 6.4
8 -7 10 -2 7.6
-8 -7 -10 1.5 6.8
-8 -7 -10 -6.7 6.4
8 7 10 24.3 16.1
-8 7 -10 0.5 5.7
-8 7 -10 3.3 4.8
-9 -7 -10 26.4 8.9
9 7 10 35.8 20.1
-9 -8 10 8.8 7.4
9 8 -10 -17.8 12.2
-9 8 10 -0.2 4.9
-8 -8 10 -4.7 6.4
-8 8 10 -0.9 4.2
-7 -8 10 44.4 10.6
7 -8 -10 52.09 12.8
-7 8 10 31.9 7.9
6 -8 -10 8.3 8.5
-6 -8 10 7.6 7.2
-6 -8 10 16.1 7.5
-6 8 10 6 5.5
5 -8 -10 8.2 9
-5 -8 10 8.3 7.5
-5 -8 10 18.3 7.5
5 -8 -10 9.3 8.6
-5 8 10 4 5.3
4 -8 -10 12.6 9.1
4 -8 -10 46.9 12.5
-4 -8 10 28.8 9.1
-4 -8 10 18.5 7.7
-4 8 10 22.2 6.8
3 -8 -10 36.2 11.9
-3 -8 10 41.7 9.5
3 -8 -10 12.2 8.7
-3 -8 10 26.1 9.3
-3 8 10 26.2 7.6
-3 8 10 29.9 6.9
-3 8 10 25.6 15.6
2 -8 -10 17.6 9.7
-2 -8 10 -0.1 6.3
-2 -8 10 17.8 8.5
2 -8 -10 12.1 8.5
-2 8 10 17.9 15.8
-2 8 10 6.4 5.2
-1 -8 10 7.8 7.4
1 -8 -10 4.4 7.5
1 -8 -10 10.4 8.8
-1 -8 10 4.4 7.5
-1 8 10 16.7 6.3
-1 8 10 5.2 14.3
0 -8 -10 14 8.3
0 -8 10 -7.3 7
0 -8 -10 7.3 7.6
0 -8 10 -4.2 6.4
0 8 10 1.7 4.6
0 8 10 13.4 14.8
1 -8 10 15.1 8.9
-1 -8 -10 13.1 9.4
1 -8 10 15.7 8.7
-1 -8 -10 16.2 8.8
1 8 10 16.1 16
2 -8 10 7.6 8.7
-2 -8 -10 3.8 7.4
-2 -8 -10 11.5 9
2 -8 10 32.6 10.5
2 8 10 14 16.7
-3 -8 -10 92.39 14.4
3 -8 10 84.89 14.7
-3 -8 -10 75.59 13.2
3 -8 10 60.39 12.3
3 8 10 82.19 21.1
-3 8 -10 104.99 13.2
-4 -8 -10 46.5 11.7
4 -8 10 44.8 11.5
4 -8 10 61.49 12.6
-4 -8 -10 33.9 11
4 8 10 49.9 19.2
-4 8 -10 65.59 11
5 -8 10 60.39 12.9
-5 -8 -10 60.79 12.9
-5 -8 -10 43.2 10.9
5 -8 10 49.4 12.5
-5 8 -10 82.99 13
5 8 10 89.89 22.9
-6 -8 -10 -1.5 6.7
6 -8 10 13.4 9.2
-6 -8 -10 0.8 7.3
6 -8 10 6.1 8.2
6 8 10 21.9 15.8
-6 8 -10 12.7 7.4
7 8 10 16.8 15.4
6 -9 -10 6.4 9.2
-6 -9 10 12.9 7.8
-6 -9 10 -3.3 7.7
-5 -9 10 7.8 7.8
5 -9 -10 18.7 10.8
-5 -9 10 8 8.6
5 -9 -10 -0.6 10.4
-5 9 10 13.6 6.8
4 -9 -10 27.4 11.6
-4 -9 10 22.1 9.3
4 -9 -10 3.6 9.5
-4 -9 10 13.4 8.2
-4 9 10 6.7 6.1
-3 -9 10 6.6 7.4
3 -9 -10 9.4 9.3
-3 -9 10 21.6 9.6
3 -9 -10 17.4 11.1
-3 9 10 4.8 6.1
-2 -9 10 5.7 8.7
2 -9 -10 3.1 8.4
2 -9 -10 6.1 9.5
-2 -9 10 1.5 7
-2 9 10 -0.9 5.5
-1 -9 10 0.1 7.8
-1 -9 10 2.2 8.1
1 -9 -10 0.3 7.7
1 -9 -10 -12.3 7.5
-1 9 10 17.2 14.5
0 -9 10 1.1 7.1
0 -9 -10 18.5 9.4
0 -9 10 6.2 8.3
0 -9 -10 2.6 9
0 9 10 5.2 13.5
-1 -9 -10 26.5 11.1
1 -9 10 29.4 9.7
-1 -9 -10 12.5 9.2
1 -9 10 -0.7 8.3
1 9 10 41.5 16.9
2 -9 10 -10.5 7.4
2 -9 10 6.3 7.8
-2 -9 -10 9.8 9.1
-2 -9 -10 -6.3 8.2
2 9 10 8.3 14.3
-3 -9 -10 -10.9 7.3
3 -9 10 3.3 8.6
-3 -9 -10 9.1 8.8
3 -9 10 1.1 8.2
3 9 10 5.5 13.9
16 0 -11 4 5.2
16 0 -11 -6 9.1
16 0 -11 -11.1 9.6
15 0 -11 5 8.9
15 0 -11 -4.3 4.2
15 0 -11 4.5 10.6
14 0 -11 2.7 5.1
14 0 -11 13.2 10.4
14 0 -11 -4.7 7.6
13 0 -11 -2.3 7.3
13 0 -11 1.9 8.8
13 0 -11 -0.1 4.4
12 0 -11 0.3 6.8
12 0 -11 -3.2 6.8
12 0 -11 0.2 3.6
11 0 -11 -0.4 6.1
11 0 -11 3.3 7
11 0 -11 4.8 4.2
10 0 -11 8.6 6.1
10 0 -11 -3.2 6.3
-10 0 11 -0.2 2
10 0 -11 -0.1 3.3
9 0 -11 3.2 6.3
-9 0 11 -0.7 1.9
9 0 -11 -0.2 5.5
9 0 -11 -4.4 3.1
8 0 -11 4.3 5.7
8 0 -11 -1.7 3.1
-8 0 11 -1.6 1.5
8 0 -11 -2 4.8
-8 0 11 0.3 1.7
-7 0 11 2.8 2
7 0 -11 -4.7 3.7
7 0 -11 -0.9 4.9
-7 0 11 -0.3 1.9
7 0 -11 -1 2.8
-6 0 11 0 1.6
6 0 -11 -4.5 4.1
6 0 -11 1.8 3.7
-6 0 11 2.3 1.9
6 0 -11 2.3 2.6
5 0 -11 -4.6 3.2
-5 0 11 -1.8 1.5
5 0 -11 -0.2 4.5
5 0 -11 1.3 2.4
-5 0 11 -2.1 1.5
5 0 -11 1 2
-4 0 11 -0.9 1.6
4 0 -11 0.7 4.5
-4 0 11 1.2 1.7
4 0 -11 0.1 2.1
-3 0 11 1.4 2
3 0 -11 -0.5 2.5
-3 0 11 -0.4 1.7
3 0 -11 -1.2 2
2 0 -11 0.8 2.5
2 0 -11 2.9 2.4
-2 0 11 1.2 2.2
-2 0 11 3.3 2.2
1 0 -11 3.1 3
1 0 -11 0.5 2.3
1 0 -11 -3.7 2.2
-1 0 11 0.2 2.1
-1 0 11 0.9 2.4
0 0 11 -0.4 2.1
0 0 -11 -2.2 2.6
0 0 -11 -0.9 2.3
0 0 11 2.8 2.4
0 0 -11 0.3 2.6
-1 0 -11 -3.7 2.1
-1 0 -11 -0.3 2.3
-1 0 -11 -0.5 2.7
1 0 11 -1.4 2.2
1 0 11 -1.3 2.4
2 0 11 2.4 2.9
-2 0 -11 -2.2 2.2
2 0 11 0.7 2.5
-2 0 -11 -0.4 3
-2 0 -11 4.5 3.1
3 0 11 2.4 2.9
3 0 11 1.6 2.9
-3 0 -11 -1.7 2.5
-3 0 -11 2.7 2.8
-3 0 -11 9.4 3.8
-4 0 -11 1 2.9
4 0 11 8.7 5.2
-4 0 -11 -0.6 2.9
4 0 11 -3.8 3
4 0 11 0.7 2.9
-4 0 -11 -1.3 3.2
-5 0 -11 0.1 3.3
5 0 11 -0.5 3.3
5 0 11 -25.1 13.3
5 0 11 -0.9 5.1
5 0 11 6.3 3.8
-5 0 -11 1.1 3.8
-5 0 -11 0.9 3.3
-6 0 -11 1.2 3.8
6 0 11 3.4 4
-6 0 -11 -0.5 4.2
6 0 11 -9.6 13.4
-6 0 -11 3.4 3.8
6 0 11 10.9 6
7 0 11 -5.5 12.6
-7 0 -11 -4.3 3.2
-7 0 -11 -3.9 4.1
7 0 11 2.6 4.2
-7 0 -11 1.4 4.5
7 0 11 -0.5 5.7
-8 0 -11 1.1 4
-8 0 -11 4.3 4.8
8 0 11 8.7 11.9
-8 0 -11 9.7 4.4
8 0 11 1.5 5
-9 0 -11 -0.9 3.8
-9 0 -11 2.5 4.5
9 0 11 -0.9 4.5
-9 0 -11 -5 3.8
-10 0 -11 13.3 5.9
-10 0 -11 13.4 5.4
10 0 11 1.4 4.9
-11 0 -11 -3 4.6
-11 0 -11 -0.4 5.1
11 0 11 2 5.8
-11 0 -11 -3.8 4.6
-12 0 -11 -2.8 4.4
12 0 11 -4.3 4.7
-12 0 -11 5.2 5.1
-12 0 -11 2.9 5.4
-13 0 -11 -3.6 4.6
13 0 11 4.4 6.2
-13 0 -11 10 6.1
-13 0 -11 0.6 6
16 -1 -11 -4.3 11.6
16 -1 -11 -2.9 9
16 -1 -11 8.7 5.8
16 1 -11 16.4 13.2
16 1 -11 7.1 6
16 1 -11 1.9 9.7
15 -1 -11 29.2 7.7
15 -1 -11 21.2 12
15 -1 -11 37.4 11.1
15 1 -11 27.7 11.5
15 1 -11 44.3 9.5
15 1 -11 22.2 12.6
14 -1 -11 13.5 6.2
14 -1 -11 1.5 8.4
14 -1 -11 5 9.1
14 1 -11 3.6 8.3
14 1 -11 6 10.3
14 1 -11 6.2 5.4
13 -1 -11 43.5 8.3
13 -1 -11 70.79 12.3
13 -1 -11 59.69 12.8
13 1 -11 76.99 13.8
13 1 -11 54.79 9.3
13 1 -11 72.59 14.7
12 -1 -11 42.5 7.9
12 -1 -11 39.5 10.5
12 -1 -11 43.5 10.3
12 1 -11 45.6 10.7
12 1 -11 45 12.4
12 1 -11 38.4 7.6
11 -1 -11 34.9 8.7
11 -1 -11 29.6 9.3
11 -1 -11 37.7 7.1
11 1 -11 39.5 7
11 1 -11 40.4 10.8
-11 1 11 38.4 5
11 1 -11 57.49 10.8
10 -1 -11 96.69 12.1
10 -1 -11 107.39 12.5
10 1 -11 12.1 6.9
10 1 -11 14.6 5.3
10 1 -11 12.8 8.5
-9 -1 11 8.4 2.5
9 -1 -11 6.7 6.3
-9 -1 11 10.9 2.9
9 -1 -11 4 4.2
9 1 -11 11.4 4.7
9 1 -11 3.1 6.2
-9 1 11 9.3 2.9
9 1 -11 9.7 7.2
-8 -1 11 7.7 2.5
8 -1 -11 12.3 6.5
8 -1 -11 18.6 4.9
8 -1 -11 11.2 5.7
-8 -1 11 14.5 2.9
8 1 -11 8.9 5.7
8 1 -11 16.3 7.5
-8 1 11 13.4 3.2
8 1 -11 17.1 4.5
-7 -1 11 139.29 6.9
7 -1 -11 138.49 10.3
-7 -1 11 141.59 7.3
7 -1 -11 115.29 12.5
7 -1 -11 147.79 12.1
7 1 -11 144.49 12
-7 1 11 142.99 8
7 1 -11 124.49 9.9
7 1 -11 153.58 14.1
6 -1 -11 134.89 8
-6 -1 11 109.29 6.3
-6 -1 11 114.09 6.7
6 -1 -11 122.29 11
6 -1 -11 109.79 12
6 -1 -11 119.89 8.9
6 1 -11 107.39 8.9
6 1 -11 116.59 12.4
-6 1 11 123.79 6.9
6 1 -11 137.29 10.7
-6 1 11 121.59 7.3
-5 -1 11 115.79 6.5
-5 -1 11 119.09 6.8
5 -1 -11 124.59 12.1
5 -1 -11 117.89 8.6
5 -1 -11 112.09 7.7
-5 1 11 118.39 7.3
5 1 -11 119.39 9.5
5 1 -11 91.49 10.5
-5 1 11 101.79 6.4
-4 -1 11 2 1.8
-4 -1 11 5.7 2.3
4 -1 -11 0 2.5
-4 1 11 2.4 2
-4 1 11 2.9 2.1
4 1 -11 1.3 1.9
4 1 -11 3.7 3.6
4 1 -11 7.6 5
-3 -1 11 33.9 4.4
3 -1 -11 24.9 4.7
-3 -1 11 21.3 3.7
-3 1 11 28.4 4.3
3 1 -11 24.5 3.8
3 1 -11 20.9 3.8
-3 1 11 28.6 4.1
3 1 -11 36.4 6.8
2 -1 -11 372.76 16.6
-2 -1 11 399.96 14.9
2 -1 -11 414.06 16
2 -1 -11 411.36 16.3
-2 -1 11 389.66 15.4
2 1 -11 383.36 14.9
-2 1 11 359.56 15.1
2 1 -11 395.26 15.6
-2 1 11 388.76 14.9
1 -1 -11 7.3 2.9
-1 -1 11 6 2.9
1 -1 -11 2.3 3
1 -1 -11 2.9 3.1
-1 -1 11 0.1 2.4
-1 1 11 3.4 2.4
1 1 -11 3 2.8
-1 1 11 0.8 2.1
1 1 -11 3.4 2.5
0 -1 -11 4.4 3.5
0 -1 11 4.9 3
0 -1 11 3.5 2.9
0 -1 -11 6.1 3.1
0 -1 -11 6.4 2.9
0 1 11 5.5 2.9
0 1 -11 11.9 3.8
0 1 11 6 2.7
0 1 -11 3.1 2.6
0 1 -11 9 3
-1 -1 -11 95.19 7.2
-1 -1 -11 84.89 8.8
1 -1 11 96.69 8.3
-1 -1 -11 94.59 8.6
1 -1 11 96.39 7.6
-1 1 -11 101.29 8.6
-1 1 -11 79.79 8
-1 1 -11 87.39 6.9
1 1 11 94.29 7.4
1 1 11 89.49 6.8
-2 -1 -11 10.1 4.1
-2 -1 -11 -0.2 2.8
2 -1 11 6.2 3.8
-2 -1 -11 4.3 2.7
2 -1 11 5.7 3.3
-2 1 -11 3.5 3.3
2 1 11 -1.3 2.4
-2 1 -11 2.3 2.7
-2 1 -11 7.2 2.9
2 1 11 0.4 2.5
3 -1 11 -0.8 2.8
-3 -1 -11 -0.5 3.2
-3 -1 -11 -2.2 2.9
3 -1 11 1.3 3.6
-3 -1 -11 5.3 3.3
-3 1 -11 5.6 2.9
3 1 11 7.8 3.5
-3 1 -11 -1.4 2.7
-3 1 -11 4.2 3.6
3 1 11 -0.8 2.4
4 -1 11 40.9 7.7
4 -1 11 49 6.9
4 -1 11 60.69 7.9
-4 -1 -11 43.2 5.9
-4 -1 -11 54.69 7.1
4 1 11 49.8 8
-4 1 -11 55.09 7.6
-4 1 -11 42.9 6.5
-4 1 -11 51.09 6.9
4 1 11 38.3 17.3
5 -1 11 28 7.5
-5 -1 -11 26.5 5.7
-5 -1 -11 18.5 5
5 -1 11 16.3 5.3
5 -1 11 16.7 5.2
-5 -1 -11 20.6 6
5 1 11 24.4 5.3
5 1 11 25.3 8.4
-5 1 -11 16.1 4.7
-5 1 -11 16.5 4.5
5 1 11 15.2 16.2
5 1 11 24.8 6.7
-5 1 -11 18.8 5.1
6 -1 11 219.58 13.6
6 -1 11 225.58 25.8
6 -1 11 209.48 15.4
-6 -1 -11 215.38 14.6
-6 -1 -11 209.78 12.9
-6 -1 -11 174.28 12.5
-6 1 -11 218.58 12.9
6 1 11 217.78 15
6 1 11 272.87 29.2
-6 1 -11 201.28 13.8
-6 1 -11 217.28 13
6 1 11 229.68 13
-7 -1 -11 2.8 4.5
-7 -1 -11 5 5.5
7 -1 11 5.6 5.2
-7 -1 -11 8.5 4.8
7 -1 11 3 5.7
-7 1 -11 6.1 5.5
7 1 11 9.2 13.3
7 1 11 12 5.6
-7 1 -11 5.9 4.5
-7 1 -11 4.6 4.2
-8 -1 -11 165.88 13.6
8 -1 11 151.48 15.1
-8 -1 -11 166.68 12.1
-8 -1 -11 166.28 12.1
-8 1 -11 157.58 11.7
-8 1 -11 169.08 13.3
-8 1 -11 147.39 11.1
8 1 11 164.38 22
8 1 11 139.29 13.3
-9 -1 -11 78.69 10.5
-9 -1 -11 74.99 9.9
-9 -1 -11 58.09 8.6
9 1 11 54.99 9
-9 1 -11 74.19 9.1
-9 1 -11 59.99 8.9
-9 1 -11 65.49 9.5
9 1 11 74.99 15.9
10 -1 11 52.19 9.9
-10 -1 -11 52.79 8.5
-10 -1 -11 62.99 9
-10 -1 -11 62.29 9.5
-10 1 -11 66.09 10
-10 1 -11 68.69 10.3
10 1 11 49 9.2
-10 1 -11 73.59 9.3
11 -1 11 54.39 10.2
-11 -1 -11 58.79 9.5
-11 -1 -11 61.59 10
-11 -1 -11 60.89 9.5
11 1 11 42.3 9.1
-11 1 -11 84.49 10.6
-11 1 -11 57.59 10
-11 1 -11 54.59 9.6
12 -1 11 44.1 10.3
-12 -1 -11 44.6 9.1
-12 -1 -11 46 9.4
-12 -1 -11 34.4 7.7
-12 1 -11 40 9.1
12 1 11 38.1 9.2
-12 1 -11 42.7 8.8
-13 -1 -11 9.7 6.7
-13 -1 -11 16.7 6.8
-13 -1 -11 10.8 6.6
13 -1 11 13.8 7.4
-13 1 -11 14.1 7.4
13 1 11 1.5 6.9
-13 1 -11 12.7 6.5
15 -2 -11 5 5.8
15 -2 -11 -10.1 7
15 2 -11 9.9 10.6
15 2 -11 -0.5 4.5
15 2 -11 -5.6 11
14 -2 -11 137.59 18
14 -2 -11 137.19 14.7
14 -2 -11 158.58 17.9
14 2 -11 119.39 13
14 2 -11 114.89 17.4
14 2 -11 152.38 21.5
13 -2 -11 85.59 11.2
13 -2 -11 88.69 14
13 -2 -11 105.19 15.4
13 2 -11 100.59 16.8
13 2 -11 72.09 13.8
13 2 -11 102.99 12.3
12 -2 -11 13.2 5.8
12 -2 -11 -2.1 6.8
12 -2 -11 20.9 8.4
-12 2 11 12.6 4
-12 2 11 17.4 4.2
12 2 -11 18.8 10.3
12 2 -11 13.6 8.4
12 2 -11 7.7 4.9
11 -2 -11 14.9 7.1
11 -2 -11 19.5 8.2
11 -2 -11 15.6 5.5
11 2 -11 14.4 9.5
11 2 -11 27.7 9.4
11 2 -11 6.8 4.6
-11 2 11 19 4.4
10 -2 -11 349.77 21.2
10 -2 -11 367.46 21.2
10 -2 -11 338.87 18.1
10 2 -11 303.97 23
-10 2 11 338.37 14.7
10 2 -11 342.37 18.1
10 2 -11 343.17 21.2
9 -2 -11 61.59 10.5
9 -2 -11 65.29 8.2
9 -2 -11 84.99 11.3
-9 -2 11 70.59 4.9
-9 2 11 73.59 7.2
9 2 -11 53.69 11.3
9 2 -11 76.29 11
9 2 -11 73.99 9.4
8 -2 -11 42.7 6.5
-8 -2 11 30 3.9
8 -2 -11 33.4 8.1
-8 -2 11 40.9 4.1
8 -2 -11 43.4 8.4
8 2 -11 44.5 9.9
8 2 -11 30.8 5.7
8 2 -11 31.6 8.4
-8 2 11 35.4 5.1
7 -2 -11 41.5 6.5
-7 -2 11 40 4.2
7 -2 -11 43.2 8.3
-7 -2 11 49.8 4.8
7 -2 -11 56.69 8.8
7 2 -11 39.1 6.6
7 2 -11 35.3 7.3
7 2 -11 38.5 8.5
-7 2 11 35.8 5.2
6 -2 -11 -2.7 2.4
-6 -2 11 -0.5 1.9
6 -2 -11 2.6 3.1
6 -2 -11 1.8 5
-6 -2 11 0.5 1.9
6 2 -11 0.3 4.8
-6 2 11 1.7 2.4
6 2 -11 1.3 3.9
-5 -2 11 111.89 7
5 -2 -11 121.89 9.2
-5 -2 11 109.39 6.6
5 -2 -11 110.99 8.4
5 -2 -11 131.09 11.7
-5 2 11 110.79 7.6
5 2 -11 127.99 10
-5 2 11 101.79 6.9
5 2 -11 121.79 12.4
-4 -2 11 5.8 2.6
4 -2 -11 1.6 3.1
-4 -2 11 4.1 2.3
4 -2 -11 6.9 3
-4 2 11 2.9 2.3
4 2 -11 2.8 2
4 2 -11 8.4 3.6
4 2 -11 8.8 5
-4 2 11 4.4 2.3
-3 -2 11 125.69 7.6
3 -2 -11 91.69 9.2
3 -2 -11 106.59 8.4
-3 -2 11 108.99 7.6
-3 2 11 133.69 8.1
3 2 -11 133.39 11.5
3 2 -11 124.39 8.6
3 2 -11 125.59 7.2
3 2 -11 119.69 7.2
-3 2 11 110.29 7.1
-2 -2 11 8.8 3.1
2 -2 -11 10.8 3.5
2 -2 -11 8.9 3.9
2 -2 -11 10.9 4.2
-2 2 11 12.1 3.2
2 2 -11 6.4 4.7
2 2 -11 11.2 3
-2 2 11 11.4 3.1
2 2 -11 7.1 2.6
2 2 -11 1.5 3
1 -2 -11 35.3 6.3
-1 -2 11 39.1 5.4
1 -2 -11 46.2 6.5
1 -2 -11 52.99 6.3
-1 -2 11 31.2 4.9
-1 2 11 48.7 5.7
1 2 -11 52.09 6
-1 2 11 31 5
1 2 -11 36.7 4.7
0 -2 -11 112.99 9.9
0 -2 11 94.49 8.1
0 -2 11 117.69 8.5
0 -2 -11 129.69 8.4
0 -2 -11 128.39 10.2
0 2 -11 104.49 8
0 2 -11 102.79 7
0 2 11 99.19 7.6
0 2 11 119.89 7.7
1 -2 11 730.23 25.7
-1 -2 -11 725.83 25.3
1 -2 11 675.63 25.6
-1 -2 -11 676.63 25.9
-1 -2 -11 722.43 27.9
-1 2 -11 725.63 24.7
1 2 11 743.73 24.6
-1 2 -11 748.23 24.6
1 2 11 717.63 25.2
-1 2 -11 743.83 26.1
2 -2 11 156.08 10.3
2 -2 11 155.08 10.7
-2 -2 -11 150.28 10.5
-2 -2 -11 157.98 9.6
-2 -2 -11 155.68 11.4
-2 2 -11 160.18 9.5
2 2 11 147.59 9.4
-2 2 -11 162.88 9.4
2 2 11 148.69 9
-2 2 -11 157.98 10.4
3 -2 11 140.79 13.2
-3 -2 -11 170.48 12.4
-3 -2 -11 132.99 9.2
3 -2 11 139.59 10.3
3 -2 11 144.79 10.8
-3 -2 -11 148.59 10.8
3 2 11 160.98 9.8
-3 2 -11 145.89 9.4
3 2 11 152.78 9.4
-3 2 -11 141.69 9.3
3 2 11 216.68 29.8
-3 2 -11 135.19 10.2
4 -2 11 254.77 13.9
4 -2 11 249.48 16.4
4 -2 11 235.78 14
-4 -2 -11 255.77 13.9
-4 -2 -11 222.38 14.7
-4 -2 -11 260.47 13.3
-4 2 -11 254.97 13
-4 2 -11 241.28 14
-4 2 -11 239.28 12.7
4 2 11 256.17 15.1
4 2 11 240.68 12.3
4 2 11 216.48 12.3
4 2 11 309.37 33.9
5 -2 11 1 4.1
5 -2 11 -3.3 5.3
-5 -2 -11 1.8 4.3
5 -2 11 3.5 4.6
-5 -2 -11 5.5 3.9
-5 -2 -11 0.8 4.4
-5 2 -11 1.5 3.5
5 2 11 2.8 5.1
-5 2 -11 1.1 3.6
5 2 11 8.4 16.5
5 2 11 3.9 3.2
-5 2 -11 -1.9 3
6 -2 11 -0.6 5.5
6 -2 11 -0.4 4.6
6 -2 11 -1.3 4.9
-6 -2 -11 0.6 4.4
-6 -2 -11 12.9 5.1
-6 -2 -11 0.9 5.1
-6 2 -11 5.4 4.8
6 2 11 0.7 4.9
-6 2 -11 10.8 5
6 2 11 20.1 16.3
-6 2 -11 12.1 4.5
6 2 11 9 4.3
7 -2 11 59.29 9.5
-7 -2 -11 40.6 8.1
-7 -2 -11 33.8 6.8
-7 -2 -11 47.3 7.9
7 -2 11 50.19 9.3
-7 2 -11 35.2 6.6
7 2 11 49 16.6
-7 2 -11 52.89 8.5
7 2 11 65.79 9.3
-8 -2 -11 50.29 9.4
-8 -2 -11 47.6 8.3
8 -2 11 43.9 8.6
-8 -2 -11 50.69 7.9
8 -2 11 55.39 9.5
8 2 11 39.8 7.9
-8 2 -11 38.8 7.2
-8 2 -11 46.7 8.4
8 2 11 65.99 17.5
-9 -2 -11 1 4.9
-9 -2 -11 9.3 5.1
9 -2 11 -3.1 5.4
-9 -2 -11 2.6 5
9 2 11 -5.9 10.2
-9 2 -11 4 4.4
9 2 11 -1.2 4.2
-9 2 -11 4.7 5
10 -2 11 3 6
-10 -2 -11 4.4 4.9
-10 -2 -11 1.5 5.6
-10 -2 -11 4.1 5.5
-10 2 -11 3.7 4.5
10 2 11 9.1 12.7
-10 2 -11 9.3 5.5
10 2 11 4.7 5.2
-11 -2 -11 5.4 5.9
-11 -2 -11 2.8 5
11 -2 11 2.1 5.9
-11 -2 -11 -3.5 5.2
11 2 11 3.7 5.9
-11 2 -11 -1.6 5.1
-11 2 -11 0 4.6
-12 -2 -11 39.3 8.6
-12 -2 -11 37.8 8.4
12 -2 11 30.7 8.7
-12 -2 -11 28.9 8.1
-12 2 -11 27.2 7.8
-12 2 -11 32.7 7.7
12 2 11 36.6 8.9
13 -2 11 4.9 6.4
-13 -2 -11 10.3 5.9
-13 -2 -11 8.8 6.2
-13 -2 -11 5.3 6.7
-13 2 -11 5.8 5.5
-13 2 -11 -0.5 5.4
13 2 11 9.1 6.7
15 -3 -11 -6.4 7.9
15 -3 -11 5.1 5.7
15 3 -11 -5.8 9
15 3 -11 -9.5 11.1
15 3 -11 0.5 5.3
14 -3 -11 19.4 7.3
14 -3 -11 19 9.4
-14 3 11 17.9 7.1
14 3 -11 15.9 6.3
-14 3 11 30.8 8.6
14 3 -11 21.3 12.3
14 3 -11 7.9 10.1
13 -3 -11 6.8 8
13 -3 -11 -0.3 4.9
13 3 -11 0.3 4.5
-13 3 11 -0.9 3.5
-13 3 11 4.6 3.7
13 3 -11 2 9.2
13 3 -11 0.2 10.4
12 -3 -11 16.9 6.5
12 -3 -11 25.8 8.5
12 3 -11 10.3 5.1
-12 3 11 20.9 5.2
12 3 -11 31.4 11.4
-12 3 11 20.1 4.9
12 3 -11 12.6 9.3
11 -3 -11 1.3 6.3
11 -3 -11 1.2 4.1
11 -3 -11 -5.6 5.6
-11 3 11 5 3.4
11 3 -11 -7.9 8.3
11 3 -11 -1.1 3.5
-11 3 11 1.1 2.8
11 3 -11 1.4 7.1
10 -3 -11 -0.9 5.3
10 -3 -11 1.9 3.8
10 -3 -11 -3.7 5.6
10 3 -11 -1.8 6.2
10 3 -11 -4.6 3
10 3 -11 -1.7 7.2
-10 3 11 -0.5 2.5
9 -3 -11 16.9 7.2
-9 -3 11 12.6 3.1
9 -3 -11 29.2 7.6
9 -3 -11 28.6 6.2
9 3 -11 13.9 7.7
9 3 -11 21.4 8.9
9 3 -11 22.2 5.7
-9 3 11 24.8 4.9
-8 -3 11 70.59 5.9
8 -3 -11 77.79 10.7
8 -3 -11 64.99 8.2
8 -3 -11 63.69 9.5
8 3 -11 61.59 8.6
8 3 -11 70.79 12.3
8 3 -11 75.39 10.7
-8 3 11 68.29 7.6
7 -3 -11 351.06 21
7 -3 -11 360.36 19.9
7 -3 -11 354.66 19.1
-7 -3 11 331.67 13.5
7 -3 -11 338.17 16.6
-7 -3 11 352.36 13.4
7 3 -11 349.87 21.8
7 3 -11 341.47 19
-7 3 11 350.86 15.5
6 -3 -11 21.6 6.7
-6 -3 11 17.9 3.8
6 -3 -11 15 5.1
6 -3 -11 9.8 3.7
-6 -3 11 20.4 3.9
-6 3 11 28 5
6 3 -11 18.2 5.7
6 3 -11 12.9 6.7
-5 -3 11 5.2 2.8
5 -3 -11 -0.6 2.8
5 -3 -11 3.5 3.8
5 -3 -11 3.6 4.1
-5 -3 11 1.6 2.6
5 3 -11 -1.4 3.7
-5 3 11 5.1 3
5 3 -11 3 5.1
4 -3 -11 25.9 5.6
-4 -3 11 23.5 4.6
4 -3 -11 22.3 4.4
-4 -3 11 32.4 5.1
4 -3 -11 24.6 5.9
4 3 -11 38.5 5.9
-4 3 11 31.1 5.3
4 3 -11 30.4 7.3
-4 3 11 23.6 4.3
-3 -3 11 271.17 13
-3 -3 11 253.07 12.2
3 -3 -11 275.67 14.4
3 -3 -11 248.38 14.5
3 3 -11 260.97 16
-3 3 11 277.77 12.4
-3 3 11 287.87 13.2
3 3 -11 251.47 11.3
3 3 -11 281.27 11.2
3 3 -11 272.37 13
-2 -3 11 83.39 8
2 -3 -11 98.89 10
2 -3 -11 63.59 8.2
-2 -3 11 80.69 8.2
2 3 -11 62.09 8.7
2 3 -11 84.49 5.9
-2 3 11 72.19 6.7
2 3 -11 65.09 6.6
2 3 -11 73.79 6.8
-2 3 11 77.49 7.8
-1 -3 11 21 4.7
-1 -3 11 18.8 4.7
1 -3 -11 21.4 5.7
1 -3 -11 21.8 5.2
1 -3 -11 15.6 4.2
-1 3 11 26.1 4.8
1 3 -11 14.9 3.2
1 3 -11 27.7 6.4
1 3 -11 19.4 4.3
1 3 -11 30.1 4.2
-1 3 11 20.5 3.9
0 -3 -11 0.7 2.9
0 -3 11 1.7 3.3
0 -3 11 -0.7 3.1
0 -3 -11 4.8 4
0 -3 -11 5.7 4
0 3 -11 -1.7 2.5
0 3 11 3.6 2.7
0 3 -11 1.6 2.3
0 3 11 9.2 3.3
-1 -3 -11 148.49 9.5
-1 -3 -11 148.89 11
1 -3 11 140.19 10.4
-1 -3 -11 146.99 11.8
1 -3 11 134.19 10.1
1 3 11 149.19 9.4
1 3 11 154.38 9.1
-1 3 -11 127.79 8.2
-1 3 -11 143.69 9.8
-2 -3 -11 162.78 10.1
-2 -3 -11 155.38 11.5
2 -3 11 149.88 10.9
-2 -3 -11 148.79 12.2
2 -3 11 126.89 10.9
2 3 11 155.18 9.9
2 3 11 151.28 9.3
-2 3 -11 163.98 9.5
2 3 11 155.28 27.4
-2 3 -11 127.19 10.3
3 -3 11 105.29 11.5
-3 -3 -11 112.79 12.1
-3 -3 -11 123.99 9
3 -3 11 104.69 10.7
-3 -3 -11 125.99 11.7
3 -3 11 124.29 12
-3 3 -11 108.39 10.7
3 3 11 122.19 8.9
-3 3 -11 125.29 8.9
3 3 11 132.49 24.6
3 3 11 120.09 8.6
3 3 11 140.99 11.2
4 -3 11 115.79 12.4
-4 -3 -11 121.39 12.5
4 -3 11 128.79 12
-4 -3 -11 137.59 12.3
-4 -3 -11 124.89 9.5
4 -3 11 146.89 13.2
4 3 11 126.39 11
4 3 11 134.99 9.6
-4 3 -11 154.18 11.3
-4 3 -11 142.49 9.8
4 3 11 155.58 28.4
-5 -3 -11 19.7 7.1
5 -3 11 17.7 6.4
-5 -3 -11 15.4 5
5 -3 11 -0.4 4.8
5 -3 11 9.5 7.4
-5 -3 -11 15 6.1
5 3 11 15.6 4.6
-5 3 -11 8.3 4.9
5 3 11 -29.5 14.2
-5 3 -11 5.4 4.2
5 3 11 10 5.2
6 -3 11 325.07 19.2
-6 -3 -11 353.26 18.5
6 -3 11 329.07 18.3
-6 -3 -11 345.37 19.9
6 -3 11 329.17 20.1
-6 -3 -11 362.86 17.2
-6 3 -11 358.66 18.7
6 3 11 365.66 32.8
-6 3 -11 317.47 16.7
6 3 11 341.47 17.5
-7 -3 -11 37.9 8.7
7 -3 11 41.6 8.4
7 -3 11 51.19 9.7
-7 -3 -11 45.4 7.6
-7 -3 -11 39.3 7.6
-7 3 -11 47.9 8.5
-7 3 -11 45.8 7.8
7 3 11 36.8 16.5
7 3 11 43.2 7.3
8 -3 11 124.19 13.5
-8 -3 -11 136.09 12.5
8 -3 11 115.19 13.2
-8 -3 -11 118.39 12.2
-8 -3 -11 122.39 13.2
-8 3 -11 111.79 12.3
8 3 11 102.69 19.6
-8 3 -11 114.19 12.3
8 3 11 148.59 12.1
-9 -3 -11 4.6 4.5
-9 -3 -11 -0.4 4.8
-9 -3 -11 2.9 5
9 -3 11 -1.4 5.3
-9 3 -11 6.5 5.4
-9 3 -11 4 5
9 3 11 5.7 4.6
9 3 11 20.6 14
10 -3 11 16.8 7.8
-10 -3 -11 19 6.6
-10 -3 -11 31.2 7.8
-10 -3 -11 22.3 7.7
-10 3 -11 13.9 6.7
-10 3 -11 25.3 7.6
10 3 11 35.3 15.6
11 -3 11 11.3 7.2
-11 -3 -11 23.4 8.1
-11 -3 -11 11.4 6.6
-11 -3 -11 28.8 7.2
11 3 11 16.8 14
-11 3 -11 5.8 5.9
-11 3 -11 -3.2 5
12 -3 11 -5.7 5.5
-12 -3 -11 13 6.1
-12 -3 -11 8.8 6.6
-12 -3 -11 7.2 5.8
-12 3 -11 -0.1 5.5
-12 3 -11 0.7 5.5
14 -4 -11 11.8 8.9
14 -4 -11 4.4 6.1
14 4 -11 5.6 5.8
14 4 -11 11.9 13
-14 4 11 8.8 4.8
14 4 -11 9 10.5
-14 4 11 3 4.5
13 -4 -11 4.7 5.4
13 -4 -11 8.2 7.9
13 4 -11 0.3 4.6
-13 4 11 4.1 3.9
13 4 -11 2.7 9.1
13 4 -11 -4.1 11.2
-13 4 11 8.1 4.9
12 -4 -11 13.6 6.6
12 -4 -11 6.5 7.5
-12 4 11 21.9 5.4
-12 4 11 19.8 5.7
12 4 -11 14.3 6
12 4 -11 11.4 9.9
12 4 -11 13.9 11.2
11 -4 -11 -4.5 4
11 -4 -11 3.5 6.3
11 4 -11 6.6 8.7
11 4 -11 -0.1 9.1
-11 4 11 5.5 4
11 4 -11 0.5 4.1
-11 4 11 -0.4 3.1
10 -4 -11 26.2 7.5
10 -4 -11 13 5.1
-10 4 11 11.5 4.3
10 4 -11 1.9 8.6
10 4 -11 10 4.9
10 4 -11 1.1 7
-9 -4 11 33.6 4.8
9 -4 -11 31.3 8.1
9 -4 -11 21 5.6
9 4 -11 22.7 5.8
9 4 -11 31.9 9.1
-9 4 11 34.7 6.1
9 4 -11 10.3 9
8 -4 -11 94.69 14.1
-8 -4 11 101.69 7.2
8 -4 -11 116.39 13
8 -4 -11 83.99 9.4
8 4 -11 77.19 12.9
-8 4 11 90.59 9.3
8 4 -11 125.09 13.6
7 -4 -11 32.2 8
7 -4 -11 32 7.4
-7 -4 11 30.2 5.2
-7 -4 11 31.5 5
7 -4 -11 33 6.2
-7 4 11 31.2 5.8
7 4 -11 40.7 8.4
7 4 -11 39.4 10.4
-6 -4 11 173.08 10.6
-6 -4 11 187.98 10.4
6 -4 -11 193.28 11.8
6 -4 -11 180.08 14.8
6 -4 -11 195.58 14.3
6 4 -11 168.98 13.8
-6 4 11 181.88 11.4
6 4 -11 202.58 17.1
-5 -4 11 41.2 6.2
-5 -4 11 30.1 5.3
5 -4 -11 34.7 7.6
5 -4 -11 37.8 5.7
5 -4 -11 41.1 7.6
-5 4 11 51.89 6.9
5 4 -11 41.4 7.1
5 4 -11 46.2 9
4 -4 -11 15.1 4
-4 -4 11 15.1 4.7
-4 -4 11 18.1 4.7
4 -4 -11 17.5 6.2
4 -4 -11 21.2 6.3
-4 4 11 23.3 5.1
4 4 -11 20.3 5.3
4 4 -11 13.5 6.1
-4 4 11 27 4.8
3 -4 -11 83.19 9.7
-3 -4 11 71.19 8.3
-3 -4 11 67.79 7.9
3 -4 -11 78.49 10.4
-3 4 11 73.09 7.9
3 4 -11 78.49 10.2
-3 4 11 76.69 7.6
3 4 -11 68.79 7.3
-2 -4 11 89.79 9.2
-2 -4 11 104.39 9.7
2 -4 -11 87.09 10.2
2 -4 -11 94.89 11.2
2 4 -11 94.29 7.3
2 4 -11 101.69 6.4
2 4 -11 102.89 11.2
-2 4 11 92.99 8.4
-2 4 11 100.09 8.2
-1 -4 11 155.78 11
-1 -4 11 147.79 10.9
1 -4 -11 145.79 13.8
1 -4 -11 162.68 13.9
1 4 -11 151.78 8.2
1 4 -11 147.29 12.2
-1 4 11 144.49 9.3
-1 4 11 149.49 10.1
1 4 -11 165.98 10
0 -4 11 3.3 3.8
0 -4 11 -2.9 3.9
0 -4 -11 1.1 3.2
0 -4 -11 3.1 4.4
0 -4 -11 3.3 4.5
0 4 -11 -0.4 4.2
0 4 11 0.5 19
0 4 -11 0.6 2.5
0 4 11 3.1 3.2
0 4 11 -1.2 2.5
0 4 -11 1.1 3
1 -4 11 6.4 4.9
-1 -4 -11 15.1 5.9
-1 -4 -11 6.2 5.1
1 -4 11 11.9 5.2
-1 -4 -11 6.5 3.8
1 4 11 -14.8 16.2
-1 4 -11 14.8 4.5
1 4 11 12 4.1
-1 4 -11 14.3 5.2
1 4 11 17.4 4.3
-1 4 -11 3.3 2.7
2 -4 11 -0.4 4.3
2 -4 11 0.5 4.8
-2 -4 -11 4.6 4.9
-2 -4 -11 3.3 4.3
2 -4 11 3.6 6
-2 -4 -11 5.1 3.6
-2 4 -11 4.4 3.1
2 4 11 -19.8 17.5
2 4 11 5.8 3.5
2 4 11 -0.2 3.1
-2 4 -11 2.9 3.6
3 -4 11 13.4 5.8
-3 -4 -11 14.9 6.5
-3 -4 -11 16.4 6.4
-3 -4 -11 37.3 6.3
3 -4 11 24.2 7
3 -4 11 30.5 7.9
-3 4 -11 21.4 5.8
-3 4 -11 14.4 4.4
3 4 11 -0.7 18.8
3 4 11 26 5.4
-4 -4 -11 7.7 6.3
4 -4 11 17.5 7.4
-4 -4 -11 4.5 4.5
-4 -4 -11 3.4 5.4
4 4 11 8.5 17.1
4 4 11 8.4 4.4
-5 -4 -11 153.38 13.8
-5 -4 -11 164.68 11.5
5 -4 11 176.68 15.5
5 -4 11 181.18 14.8
5 -4 11 191.38 15.8
-5 -4 -11 178.68 15
5 4 11 198.18 29.3
-5 4 -11 143.39 10.7
-5 4 -11 154.38 12.4
6 -4 11 33.5 7.9
-6 -4 -11 31.1 6.3
6 -4 11 52.89 9.7
-6 -4 -11 44.4 8.5
-6 -4 -11 34.8 8.5
6 -4 11 48.9 8.9
6 4 11 21.8 16.8
-6 4 -11 34.3 6.9
-6 4 -11 33.4 7.2
7 -4 11 102.79 12.9
-7 -4 -11 92.39 12.3
-7 -4 -11 122.69 11.5
-7 -4 -11 114.19 12.4
7 -4 11 128.29 14.2
-7 4 -11 124.49 12.8
-7 4 -11 98.89 10.7
7 4 11 110.09 21.6
-8 -4 -11 -0.3 3.8
8 -4 11 3.2 6
-8 -4 -11 -5.1 5
-8 -4 -11 -2.7 5.3
8 -4 11 -2.3 5.4
-8 4 -11 -0.2 4.2
8 4 11 6.1 12.3
-8 4 -11 2.6 4.9
-9 -4 -11 -6 4.3
-9 -4 -11 -1 5
9 -4 11 -7.3 5.7
-9 -4 -11 6.1 6.6
-9 4 -11 -0.5 4.6
-9 4 -11 1.3 5
9 4 11 3 13.3
-10 -4 -11 13 7.1
10 -4 11 8.5 7.7
-10 -4 -11 17.9 7.5
-10 -4 -11 7.6 5.9
10 4 11 14 14
-10 4 -11 12.8 6.2
-10 4 -11 11.6 6.1
11 -4 11 21.6 8.9
-11 -4 -11 37.8 9.3
-11 -4 -11 52.39 9.6
11 4 11 55.49 18.6
-11 4 -11 26.6 7.8
-11 4 -11 40.3 9.2
-12 -4 -11 -4.8 5.6
12 -4 11 7.5 8.1
-12 -4 -11 1.2 7
-12 4 -11 7.3 6.5
-12 4 -11 5.4 6.2
12 4 11 21.3 15.1
14 5 -11 11.5 13.9
13 -5 -11 -3.4 6.9
13 -5 -11 -0.6 5.6
13 5 -11 3.8 10.5
-13 5 11 5.7 4.4
13 5 -11 -4.1 11.4
-13 5 11 0.6 4.7
12 -5 -11 39.1 8.3
12 -5 -11 37.6 9.9
12 5 -11 41.8 14.5
-12 5 11 44.6 8.4
12 5 -11 24.8 11.3
-12 5 11 33.7 7.3
11 -5 -11 3.1 5
11 -5 -11 12.2 7.6
-11 5 11 -1 3.6
11 5 -11 4.8 10.1
11 5 -11 -6.8 7.7
10 -5 -11 4.3 6.4
10 -5 -11 -2.7 4.5
-10 5 11 1.2 3.5
10 5 -11 4.9 8.8
10 5 -11 1.4 8.9
-9 -5 11 10.6 4.3
9 -5 -11 3.1 6.3
9 -5 -11 3.6 4.3
9 5 -11 9.8 8.1
9 5 -11 9.3 9.3
-9 5 11 6.1 4.1
8 -5 -11 90.49 11.9
8 -5 -11 94.89 10
-8 -5 11 83.19 8.1
8 5 -11 62.19 13
-8 5 11 89.29 9.9
8 5 -11 110.89 13.8
7 -5 -11 237.18 16.4
-7 -5 11 215.68 11.9
-7 -5 11 202.58 11.9
7 -5 -11 194.68 12.6
7 5 -11 193.38 16.2
7 5 -11 197.68 20.1
-7 5 11 195.08 12.6
-6 -5 11 5 4.3
6 -5 -11 6.3 3.7
-6 -5 11 9.4 4.2
6 -5 -11 2.2 5.8
6 5 -11 4.9 7
-6 5 11 5.6 3.8
5 -5 -11 9.3 6.4
5 -5 -11 13.1 4.4
-5 -5 11 13 4.8
-5 -5 11 11.3 4.9
5 -5 -11 11.2 6.7
-5 5 11 14.1 4.7
5 5 -11 11.9 7.2
4 -5 -11 67.89 10.2
-4 -5 11 33.3 6.4
4 -5 -11 53.29 8.7
-4 -5 11 41.1 7.2
-4 5 11 41.7 6.7
-4 5 11 37.1 6.7
4 5 -11 25.6 8
-3 -5 11 197.88 12.6
3 -5 -11 157.08 15.5
-3 -5 11 167.28 12.1
3 -5 -11 158.28 14.8
-3 5 11 181.38 11
-3 5 11 168.68 11.5
3 5 -11 159.88 14.6
2 -5 -11 15.2 6.4
-2 -5 11 7.5 5.1
-2 -5 11 13.7 5.8
2 -5 -11 11.3 7
-2 5 11 16.4 5.1
-2 5 11 6.9 3.9
-2 5 11 13.5 21.5
2 5 -11 11.2 5.8
1 -5 -11 482.45 24.7
-1 -5 11 470.15 22.4
1 -5 -11 503.75 23.6
-1 -5 11 516.45 22.2
-1 5 11 502.45 19.8
1 5 -11 459.65 22.7
-1 5 11 481.75 42.4
-1 5 11 458.75 20.4
1 5 -11 492.35 19.8
0 -5 -11 144.89 15.3
0 -5 11 129.99 12.5
0 -5 11 147.79 14
0 -5 -11 147.39 13.8
0 5 -11 128.09 9.9
0 5 11 119.99 28
0 5 11 127.49 9.5
0 5 11 141.69 10.6
-1 -5 -11 -5.8 5.4
1 -5 11 0 5.2
1 -5 11 -0.1 4.9
-1 -5 -11 -2 3.7
-1 -5 -11 13.3 6.5
1 5 11 2.8 3.6
1 5 11 7.4 4.1
-1 5 -11 5.2 3.9
-1 5 -11 1.7 3.1
1 5 11 18.3 21.1
-2 -5 -11 108.59 13.6
-2 -5 -11 99.09 9.5
-2 -5 -11 105.89 12
2 -5 11 101.29 12.1
2 -5 11 88.99 11.2
2 -5 11 89.49 11.4
2 5 11 106.69 26.3
-2 5 -11 104.29 8.2
2 5 11 100.29 9.9
-2 5 -11 95.29 10.4
-3 -5 -11 619.54 24.3
3 -5 11 620.64 28.2
3 -5 11 605.74 27.4
3 -5 11 606.34 27.1
-3 -5 -11 608.24 27.3
-3 -5 -11 665.13 29.6
-3 5 -11 621.64 23.3
3 5 11 612.64 41.9
-3 5 -11 650.53 26.5
3 5 11 618.94 24.3
4 -5 11 40.1 8.8
-4 -5 -11 34.8 8.4
-4 -5 -11 26.7 5.6
4 -5 11 27.2 7.9
4 -5 11 29.5 8.8
-4 -5 -11 26 7.3
-4 5 -11 32.4 5.9
-4 5 -11 49.3 8.4
4 5 11 35.4 18.4
-5 -5 -11 152.48 14.4
5 -5 11 168.48 15.3
5 -5 11 139.49 14.9
5 -5 11 145.69 14.6
-5 -5 -11 157.88 11.2
-5 -5 -11 152.48 15.6
-5 5 -11 142.09 10.7
5 5 11 156.38 26.8
-5 5 -11 157.48 12.9
-6 -5 -11 21.8 7.6
6 -5 11 8.5 6.9
-6 -5 -11 9.8 6.8
6 -5 11 -0.5 6.1
6 -5 11 2.2 5.9
-6 -5 -11 6.4 4.5
-6 5 -11 14.5 5.9
-6 5 -11 0.5 3.9
6 5 11 20.9 15.5
-7 -5 -11 -2 4
7 -5 11 -7.2 4.9
-7 -5 -11 1.6 5.8
7 -5 11 -1 5.7
-7 -5 -11 -4 5
7 5 11 -9.5 13
-7 5 -11 -1.7 3.8
-7 5 -11 -2.3 4.3
8 -5 11 -2.3 6.7
-8 -5 -11 4.1 6.7
-8 -5 -11 -5.5 6
8 -5 11 8.7 7.5
8 5 11 22.1 16.4
-8 5 -11 8.5 5.1
-8 5 -11 11.4 6.4
-9 -5 -11 28.8 8.7
9 -5 11 16.3 8
-9 -5 -11 25.4 8.9
9 5 11 36.1 17
-9 5 -11 27.7 8.3
-9 5 -11 30.6 7.6
10 -5 11 -13.2 5.7
-10 -5 -11 7.1 6.7
-10 -5 -11 2.5 6.5
10 5 11 15.9 14.6
-10 5 -11 2.9 5.7
-10 5 -11 5 5.4
-11 -5 -11 17.1 7.5
-11 -5 -11 -0.2 6.6
11 -5 11 -2.4 6.8
-11 5 -11 4.7 5.9
11 5 11 30.8 17.6
-11 5 -11 4.6 6.4
12 -6 -11 18.1 12.6
12 6 -11 -6 11.3
12 6 -11 -13 10
-12 6 11 1.4 4.3
11 -6 -11 49.7 10.5
-11 6 11 62.49 9.8
11 6 -11 56.69 14.3
11 6 -11 33.8 14.7
10 -6 -11 22.9 9
10 6 -11 16.6 11.8
10 6 -11 20.1 13.3
-10 6 11 30.5 7.1
9 -6 -11 18.6 7.8
-9 -6 11 19.7 6.1
-9 6 11 16.1 5.4
9 6 -11 3.8 10.1
-8 -6 11 201.38 12.7
8 -6 -11 159.08 15.2
-8 6 11 189.08 13.4
8 6 -11 166.18 19.7
-7 -6 11 41.2 7.7
-7 -6 11 56.19 8.2
7 -6 -11 51.29 10.4
7 6 -11 43.9 11.4
-7 6 11 42.7 7.8
6 -6 -11 155.18 16.1
-6 6 11 82.89 24.1
6 6 -11 147.39 17.4
-6 6 11 183.38 12.6
-5 -6 11 497.45 21.9
-5 -6 11 476.05 21.3
5 -6 -11 461.55 24.9
5 -6 -11 471.45 24.1
5 6 -11 437.86 26
-5 6 11 472.05 21.6
-5 6 11 420.46 41.5
-4 -6 11 88.69 10.5
4 -6 -11 69.09 11.3
4 -6 -11 131.09 14.5
-4 -6 11 105.69 11
-4 6 11 102.19 10.8
-4 6 11 103.79 10.1
4 6 -11 109.59 13.8
-4 6 11 106.29 26.3
-3 -6 11 78.19 10.4
3 -6 -11 62.09 10.3
3 -6 -11 96.69 13.5
-3 -6 11 94.49 10.8
-3 6 11 51.59 22.3
-3 6 11 66.09 8.3
3 6 -11 66.79 16
-3 6 11 89.09 10
-2 -6 11 222.18 15.7
2 -6 -11 242.58 18.2
2 -6 -11 239.48 17.4
-2 -6 11 240.38 15.4
-2 6 11 233.08 13.1
-2 6 11 193.78 31
-2 6 11 219.28 13.9
-1 -6 11 176.58 14
1 -6 -11 216.88 19.7
1 -6 -11 178.38 16.5
-1 -6 11 174.98 14.2
-1 6 11 221.48 30.9
-1 6 11 208.18 12.1
-1 6 11 171.28 12.4
0 -6 11 6.3 6.4
0 -6 11 3.5 5.6
0 -6 -11 20.5 8.3
0 -6 -11 -0.3 5.3
0 6 11 11.3 4.8
0 6 -11 17.3 5.2
0 6 11 10.4 4.3
0 6 11 0 15.6
-1 -6 -11 133.29 15.4
1 -6 11 102.09 12.6
1 -6 11 127.09 14.5
-1 -6 -11 124.49 13.7
1 -6 11 109.79 12.3
1 6 11 135.89 10.7
-1 6 -11 120.79 11.7
1 6 11 114.09 24.5
2 -6 11 27.2 8.3
-2 -6 -11 32 9.2
2 -6 11 24.1 7.8
2 -6 11 39.4 8.5
-2 -6 -11 19 7.6
-2 6 -11 32.3 6.8
2 6 11 21.1 17.7
2 6 11 30.3 6.4
3 -6 11 13.1 6.9
3 -6 11 -4.8 5.5
-3 -6 -11 8.2 4.5
3 -6 11 8.2 6.7
-3 -6 -11 -1.5 6.3
-3 -6 -11 1.5 5.6
3 6 11 -3.4 15.4
-3 6 -11 1.9 4.5
4 -6 11 36 8.6
-4 -6 -11 29.8 8.1
-4 -6 -11 35.9 9.8
4 -6 11 44 10
-4 -6 -11 28 9
4 -6 11 17.5 7.4
-4 6 -11 32.4 7.2
4 6 11 21.5 16.9
-4 6 -11 36.7 7.8
5 -6 11 -7.3 5.8
-5 -6 -11 15.6 7.4
5 -6 11 -0.6 5.9
-5 -6 -11 -3.1 6
5 -6 11 -4.6 6
-5 6 -11 0.4 3.5
5 6 11 -0.6 15.5
-5 6 -11 0.3 5.1
6 -6 11 0.6 6.4
-6 -6 -11 7.6 7
-6 -6 -11 -3 6.1
6 -6 11 12 7.4
6 -6 11 -9.6 5.8
-6 6 -11 0.7 4.1
-6 6 -11 7.2 5.8
6 6 11 8.3 13.6
-7 -6 -11 10.6 7.6
7 -6 11 14.3 8.1
-7 -6 -11 26.6 8.6
7 -6 11 13.1 8.2
-7 6 -11 16.5 7.8
7 6 11 42.5 18.5
-7 6 -11 18.6 6.2
-8 -6 -11 12.4 7.1
-8 -6 -11 5.8 6.7
-8 6 -11 14.3 5.7
8 6 11 5.8 14.2
-8 6 -11 22.9 7.8
9 -6 11 -0.2 7.1
-9 -6 -11 1.9 7.1
-9 -6 -11 -5.2 6.4
-9 6 -11 4 6.2
-9 6 -11 3.8 4.9
9 6 11 13.1 15.4
-10 -6 -11 2.2 6.5
10 6 11 19.3 17.5
-11 7 11 4.7 4.8
11 7 -11 4.3 13.2
-10 7 11 2.6 4.5
10 7 -11 -13 10.7
-9 -7 11 5.8 6
-9 7 11 10.6 5.4
9 7 -11 -12.6 10
8 -7 -11 12.8 8.8
-8 -7 11 8 6.3
-8 7 11 7.6 5.3
8 7 -11 -8.3 9.7
7 -7 -11 17.6 8.4
-7 -7 11 22 7.1
-7 -7 11 14.5 7.1
7 7 -11 17.5 10.9
-7 7 11 15.1 6.1
-6 -7 11 20.5 7.3
-6 -7 11 29 7.8
6 -7 -11 33.2 9.7
-6 7 11 21.6 6.6
6 7 -11 20 10.2
5 -7 -11 19.8 8.5
-5 -7 11 9.1 6.5
-5 -7 11 20.6 7.2
5 -7 -11 9 7.4
-5 7 11 12.7 5.5
-4 -7 11 -5.3 5.6
4 -7 -11 -5.4 5.8
-4 -7 11 -1.3 5.2
4 -7 -11 -1.1 6.6
-4 7 11 -11.5 15.9
-4 7 11 4.6 4.4
-4 7 11 -0.3 3.2
3 -7 -11 64.19 12
-3 -7 11 73.79 11.2
-3 -7 11 86.79 11.8
3 -7 -11 69.29 13.8
-3 7 11 84.69 11.1
-3 7 11 73.99 9.2
-3 7 11 80.79 22.9
2 -7 -11 78.89 12.8
2 -7 -11 58.89 12.3
-2 -7 11 64.49 11
-2 -7 11 60.89 10.7
-2 7 11 66.49 9.7
-2 7 11 70.79 21.4
-2 7 11 55.59 7.9
-1 -7 11 6.4 6.6
1 -7 -11 20.1 8.4
-1 -7 11 14 7.7
1 -7 -11 12.6 7.6
-1 7 11 29.2 7.1
-1 7 11 17.4 15.8
-1 7 11 22.1 6.3
0 -7 11 -13 5.7
0 -7 11 -9.5 5.3
0 -7 -11 -1.7 6
0 -7 -11 6.7 7
0 7 11 0.2 4
0 7 11 -10.3 13.1
-1 -7 -11 -1.1 6.6
1 -7 11 8.5 7.2
1 -7 11 -3.2 5.5
-1 -7 -11 9.4 7.2
-1 7 -11 4.6 4.7
1 7 11 2.2 14.6
1 7 11 5.5 4.5
-2 -7 -11 -1.9 6.3
2 -7 11 7.7 7.1
-2 -7 -11 0.1 6.2
2 -7 11 -4.4 5.9
2 7 11 17.8 17.5
-2 7 -11 9.9 5.4
3 -7 11 3.1 7
-3 -7 -11 7.5 7
-3 -7 -11 9.5 7.4
3 -7 11 6.4 6.7
3 7 11 -1.5 14.2
-3 7 -11 -2.7 5.1
4 -7 11 -7.5 6.5
4 -7 11 2.3 8.6
-4 -7 -11 5.7 7.4
-4 -7 -11 -2.9 6.5
4 -7 11 -0.3 6.8
4 7 11 13.4 15.8
-4 7 -11 -3.7 4.7
5 -7 11 34.9 9.2
-5 -7 -11 43.8 10.2
-5 -7 -11 62.69 12.6
5 -7 11 59.69 12.6
5 -7 11 42.5 10.7
-5 7 -11 57.29 10.3
5 7 11 27.3 18.5
6 -7 11 33.4 10.1
6 -7 11 25.2 9.2
-6 -7 -11 39.8 9.9
-6 -7 -11 26.7 9.8
6 -7 11 27.9 9.8
-6 7 -11 44.9 10.1
6 7 11 32 17.4
-7 -7 -11 19.3 8.3
-7 -7 -11 2.4 7
7 -7 11 25.3 9.4
7 -7 11 5.2 7.4
7 7 11 7.9 14.5
-7 7 -11 8.8 7
-8 -7 -11 13.6 8.6
8 -7 11 13.1 8.5
8 -7 11 18.4 10.2
-8 -7 -11 18.5 8.5
8 7 11 52.09 19
-8 7 -11 20.4 8.6
-9 -8 11 4.8 7.3
9 8 -11 16.8 14.7
-8 -8 11 67.99 11.6
-8 8 11 67.59 11.3
-7 -8 11 4.1 7
7 -8 -11 0.2 7.9
-7 8 11 2.2 4.9
-6 -8 11 1.8 6.1
-6 -8 11 -1.7 5.8
6 -8 -11 -1 8
-6 8 11 5.9 5.8
-5 -8 11 4 6.4
5 -8 -11 4.2 8.8
5 -8 -11 3.4 8.2
-5 -8 11 9.4 7
-5 8 11 2.1 4.8
4 -8 -11 174.48 19.6
-4 -8 11 219.38 17.8
-4 -8 11 204.78 18.7
4 -8 -11 182.68 21.3
-4 8 11 173.48 13.4
-4 8 11 164.28 15.9
3 -8 -11 4.9 8.2
-3 -8 11 21.4 8.9
3 -8 -11 16.3 10.3
-3 -8 11 14.5 7.9
-3 8 11 17 6.2
-3 8 11 21.7 16.3
-3 8 11 19.8 6.7
2 -8 -11 102.59 15.7
-2 -8 11 90.89 13.5
2 -8 -11 93.09 16.4
-2 -8 11 95.39 13.9
-2 8 11 89.89 11.9
-2 8 11 96.79 22.3
-1 -8 11 1.2 6.5
1 -8 -11 -5 7.5
1 -8 -11 7.3 8.2
-1 -8 11 -8.2 5.5
-1 8 11 5.7 14.6
-1 8 11 2.3 5.2
0 -8 11 12.7 8.9
0 -8 -11 34.2 10.9
0 -8 11 10.1 8
0 -8 -11 39.6 11.5
0 8 11 22.3 16.3
0 8 11 27.2 7.4
-1 -8 -11 7.4 8.2
-1 -8 -11 -11.5 6.6
1 -8 11 14.9 8.7
1 -8 11 5.6 7.4
1 8 11 -1.4 14.2
2 -8 11 88.79 15.3
2 -8 11 79.99 13.8
-2 -8 -11 68.19 13.6
-2 -8 -11 109.59 15.4
2 8 11 91.99 23.8
3 -8 11 -1.6 6.7
-3 -8 -11 12.2 8.3
3 -8 11 12.6 8.2
-3 -8 -11 10.8 8.3
3 8 11 38.5 17.5
-3 8 -11 2.9 5.9
-4 -8 -11 11.6 7.6
4 -8 11 10.4 9.2
4 -8 11 10 8.9
-4 -8 -11 17.1 8.5
-4 8 -11 14.9 6.9
4 8 11 16.5 16.3
-5 -8 -11 -6.5 7.2
-5 -8 -11 -4.1 6.1
5 -8 11 7.9 9.5
5 -8 11 6 8.7
-5 8 -11 8.2 6.9
5 8 11 -2.2 14.3
6 -8 11 9 9.4
-6 -8 -11 14.7 8.5
-6 -8 -11 16.4 8.2
6 -8 11 -2.3 8.3
-6 8 -11 1.6 7
6 8 11 18.5 15.8
-5 -9 11 20.1 9.8
-5 -9 11 21.7 8.6
5 -9 -11 17.3 12.6
-5 9 11 19 7.4
-5 9 11 14.3 5.8
4 -9 -11 -9.5 8
-4 -9 11 16.8 9.2
-4 -9 11 3.2 8.5
4 -9 -11 13.7 9.5
-4 9 11 3.8 5.9
-3 -9 11 7.9 8.6
3 -9 -11 -9 8
3 -9 -11 -3.4 10
-3 -9 11 2.9 7.5
-3 9 11 6.8 5.9
2 -9 -11 -5.3 7.7
-2 -9 11 3.5 8.5
-2 -9 11 0.8 7.4
2 -9 -11 6.5 10.3
-2 9 11 -0.8 5.4
1 -9 -11 26 11.9
-1 -9 11 1 8.1
-1 -9 11 6.3 8
1 -9 -11 8.1 9.1
-1 9 11 6.4 15.4
0 -9 11 6 8.3
0 -9 11 12.3 8.9
0 -9 -11 9.2 9.6
0 -9 -11 5.3 8.9
0 9 11 54.89 19.1
-1 -9 -11 9.9 9.5
1 -9 11 17.4 9.7
1 -9 11 31.3 11.5
-1 -9 -11 27.8 11
1 9 11 41 18.4
-2 -9 -11 -12.7 6.2
-2 -9 -11 7.1 9.1
2 -9 11 -5.8 7.5
2 -9 11 3 8.8
2 9 11 8.6 14.7
16 0 -12 130.49 19.4
16 0 -12 68.99 11.5
16 0 -12 107.49 19.1
15 0 -12 34.2 13.4
15 0 -12 48.8 9.4
15 0 -12 36.9 12.4
14 0 -12 21.6 10.3
14 0 -12 35.2 7.8
14 0 -12 47.2 13.5
13 0 -12 -4.5 8.1
13 0 -12 -6.9 6.3
13 0 -12 -2.3 3.6
12 0 -12 -0.3 7.3
12 0 -12 4.7 7.5
12 0 -12 -4.9 3.3
11 0 -12 187.68 19.1
11 0 -12 172.78 12.9
11 0 -12 177.88 17
-10 0 12 4.6 2.4
10 0 -12 15.3 5.5
10 0 -12 -6.3 6.3
10 0 -12 -11.9 5.3
9 0 -12 439.96 22.8
9 0 -12 452.95 21.1
-9 0 12 438.16 15.5
9 0 -12 434.86 25
-9 0 12 435.26 16.1
-8 0 12 35.2 4.4
8 0 -12 31 7.2
8 0 -12 32.4 6.3
8 0 -12 25.4 8.3
-8 0 12 26.2 4
-7 0 12 100.99 6.8
7 0 -12 81.29 8.9
7 0 -12 87.49 11.7
-7 0 12 95.49 6.1
7 0 -12 86.79 10.5
-6 0 12 5.5 2.4
6 0 -12 13.1 4.9
-6 0 12 6.3 2.6
6 0 -12 9 5.8
6 0 -12 10.2 3.9
-5 0 12 46.4 5.2
-5 0 12 50.79 5.6
5 0 -12 45.7 5.3
5 0 -12 39.5 6.5
5 0 -12 56.69 9
4 0 -12 55.79 5.9
4 0 -12 51.39 8.3
-4 0 12 56.59 5.8
-4 0 12 45.5 5.3
3 0 -12 312.47 13.7
3 0 -12 308.07 13.9
-3 0 12 309.17 13.4
-3 0 12 315.47 12.9
2 0 -12 236.68 12.3
-2 0 12 212.48 11.1
-2 0 12 240.08 11.1
2 0 -12 233.28 11.4
-1 0 12 934.11 30.7
1 0 -12 945.01 30.3
-1 0 12 989.8 30.3
1 0 -12 922.31 31.6
1 0 -12 937.21 30.4
0 0 -12 859.91 28.8
0 0 12 870.01 28.4
0 0 -12 884.51 30.4
0 0 -12 875.41 28.8
0 0 12 867.81 29
-1 0 -12 166.48 10.1
-1 0 -12 152.08 11.2
-1 0 -12 156.78 9.6
1 0 12 172.28 9.8
1 0 12 167.08 10.2
2 0 12 935.31 31.5
-2 0 -12 960.3 31.3
2 0 12 942.41 30.9
-2 0 -12 911.21 31.1
-2 0 -12 922.81 32.8
3 0 12 622.34 22.9
-3 0 -12 595.54 22.9
-3 0 -12 621.24 24.8
-3 0 -12 606.44 23.1
3 0 12 610.54 23.3
4 0 12 78.29 8.7
4 0 12 106.39 11.4
-4 0 -12 74.59 8.1
4 0 12 105.49 9.9
-4 0 -12 83.99 9.8
-4 0 -12 86.59 9
5 0 12 117.49 9.9
5 0 12 132.89 24.5
5 0 12 136.69 10.2
-5 0 -12 113.89 9.4
5 0 12 116.89 12.1
-5 0 -12 136.59 11.1
-5 0 -12 122.99 11.2
6 0 12 529.05 25.2
6 0 12 541.15 23.2
-6 0 -12 580.14 23.1
-6 0 -12 571.44 23.3
6 0 12 475.35 36.8
-6 0 -12 576.64 24.8
-7 0 -12 93.19 10.1
7 0 12 123.09 21.3
7 0 12 84.89 10.9
-7 0 -12 98.39 10.3
-7 0 -12 91.69 10.8
7 0 12 105.99 10.8
-8 0 -12 57.29 8.6
8 0 12 62.59 9.5
-8 0 -12 46.1 8.5
-8 0 -12 63.19 8.8
-9 0 -12 248.78 16
9 0 12 274.97 18.3
-9 0 -12 274.87 15.9
-9 0 -12 228.88 16.2
10 0 12 1.1 5.6
-10 0 -12 3.1 4.8
-10 0 -12 6.3 5.4
-10 0 -12 1 5.1
-11 0 -12 7.5 6.1
-11 0 -12 7.4 6
-11 0 -12 4.6 5
11 0 12 -0.1 5.5
-12 0 -12 1.5 5.4
-12 0 -12 8.9 5.8
-12 0 -12 -0.1 5.7
12 0 12 -0.4 5.8
-13 0 -12 10.2 5.9
-13 0 -12 5.3 6.3
-13 0 -12 3.2 5.9
16 -1 -12 16 13.1
16 -1 -12 -5.7 8.7
16 1 -12 4.7 12.8
16 1 -12 18.1 11.3
15 -1 -12 24.5 12.3
15 -1 -12 40.2 8.6
15 -1 -12 31 11.2
15 1 -12 50.59 14
15 1 -12 47.6 15.2
15 1 -12 44.3 9.4
14 -1 -12 2.9 8
14 -1 -12 1.5 5
14 -1 -12 17.2 10.5
14 1 -12 2.8 8.7
14 1 -12 4.8 9.9
14 1 -12 4.2 5.4
13 -1 -12 21.9 6.4
13 -1 -12 33.6 10.2
13 -1 -12 30.7 10.5
13 1 -12 19.4 11
13 1 -12 32 7.4
13 1 -12 24 10
12 -1 -12 23 9.6
12 -1 -12 44.2 10.3
12 -1 -12 28 7
12 1 -12 26.4 9.9
12 1 -12 27 6.7
12 1 -12 35.2 10.6
-11 -1 12 15.3 3
11 -1 -12 12.4 7.9
11 -1 -12 14.7 7.2
11 -1 -12 14.6 5.5
11 1 -12 -2.5 7
11 1 -12 19 7.5
11 1 -12 15.1 5.1
-11 1 12 19.4 3.9
-10 -1 12 -0.7 1.9
10 -1 -12 -3.1 6.3
10 -1 -12 4.8 4.4
10 -1 -12 13.3 7
-10 1 12 -0.1 2.3
10 1 -12 -0.6 3.3
10 1 -12 1.2 5.9
10 1 -12 -3.5 6.7
9 -1 -12 71.59 9.2
-9 -1 12 81.39 5.6
-9 -1 12 88.89 6.2
9 -1 -12 104.39 13.3
9 -1 -12 75.39 10.9
-9 1 12 83.39 7.4
9 1 -12 77.19 11.5
9 1 -12 91.99 13.4
9 1 -12 93.09 10.2
-8 -1 12 56.89 5.3
8 -1 -12 58.89 10.2
8 -1 -12 44.2 7.1
-8 -1 12 59.29 5.5
8 -1 -12 44 8.6
-8 1 12 45.8 5.7
8 1 -12 34.6 8.7
8 1 -12 40.2 6.8
8 1 -12 57.19 9.4
7 -1 -12 20.7 7.3
-7 -1 12 13.5 3.1
-7 -1 12 25.1 3.7
7 -1 -12 8.2 3.8
7 -1 -12 8.5 5.2
7 1 -12 10.7 6.5
7 1 -12 15.3 5.7
-7 1 12 17.2 3.7
-7 1 12 19.4 3.7
7 1 -12 22.3 5
6 -1 -12 140.89 11.6
-6 -1 12 121.59 7.3
-6 -1 12 130.79 7.1
6 -1 -12 110.39 9.2
6 -1 -12 104.59 11.7
6 1 -12 116.39 10.8
-6 1 12 126.79 7.8
6 1 -12 113.79 10.7
6 1 -12 102.79 12.7
-6 1 12 133.29 7.5
-5 -1 12 42.4 5
5 -1 -12 48.3 6.2
5 -1 -12 37.7 6.2
-5 -1 12 43 4.8
5 -1 -12 40.9 7.8
5 1 -12 42.2 6.7
-5 1 12 51.39 5.9
-5 1 12 51.99 5.6
5 1 -12 33.9 7.5
-4 -1 12 -0.4 1.7
4 -1 -12 0 2.4
-4 -1 12 -0.9 1.9
4 1 -12 2.6 2.3
4 1 -12 3.4 3.8
-4 1 12 1 2
-4 1 12 0.5 2
4 1 -12 4.2 5
3 -1 -12 9.1 3.2
-3 -1 12 17.8 3.5
3 -1 -12 12 4.1
-3 -1 12 11.6 3.4
3 1 -12 10.7 3.1
3 1 -12 13 3.3
3 1 -12 11 5.7
-3 1 12 15.1 3.7
-3 1 12 14.6 3.3
-2 -1 12 49 5.8
2 -1 -12 46.6 6.5
2 -1 -12 38 5.1
-2 -1 12 40 5.3
2 -1 -12 42.7 6
2 1 -12 45.8 6
2 1 -12 38 5
-2 1 12 42.5 5.2
-2 1 12 48.9 5.9
-1 -1 12 161.48 9.2
-1 -1 12 143.99 9.3
1 -1 -12 173.08 9.8
1 -1 -12 149.09 10.5
1 -1 -12 174.28 10.1
-1 1 12 167.38 9.6
1 1 -12 176.38 10.1
-1 1 12 156.18 9
1 1 -12 157.88 9.1
1 1 -12 169.28 9.3
0 -1 12 12.4 3.9
0 -1 12 16.7 4.1
0 -1 -12 18.6 4.2
0 -1 -12 6.5 3.8
0 -1 -12 8.4 3.7
0 1 -12 7.3 3.5
0 1 12 10.9 3.5
0 1 -12 8.2 3.2
0 1 -12 12 3.5
0 1 12 15 3.6
-1 -1 -12 10.6 3.7
1 -1 12 9.9 3.9
-1 -1 -12 7.6 3.5
1 -1 12 12.8 3.9
-1 -1 -12 7.9 3.8
1 1 12 5.3 3
1 1 12 3 2.9
-1 1 -12 1.4 3.2
-1 1 -12 11.5 3.4
-1 1 -12 12.4 3.9
2 -1 12 99.29 8.5
-2 -1 -12 109.09 10.8
-2 -1 -12 103.19 9.4
2 -1 12 118.79 9
-2 -1 -12 117.29 8.3
-2 1 -12 114.69 8.4
-2 1 -12 105.59 10
2 1 12 91.69 7.7
-2 1 -12 100.69 7.6
2 1 12 97.89 7.8
3 -1 12 41.7 6.9
-3 -1 -12 58.59 8.3
3 -1 12 61.39 7.9
-3 -1 -12 61.09 7.1
-3 -1 -12 56.39 7.3
-3 1 -12 61.99 8.2
3 1 12 43.3 6.4
3 1 12 48.5 6.6
-3 1 -12 46.2 6.4
-3 1 -12 55.79 7
-4 -1 -12 5.4 3.9
-4 -1 -12 4.8 4.5
4 -1 12 3.6 6
-4 -1 -12 10.2 4.4
4 -1 12 4.9 4.6
4 -1 12 9.8 4.9
4 1 12 5 3.7
-4 1 -12 9.6 4.7
4 1 12 2.6 3.6
4 1 12 4.9 5.8
-4 1 -12 3.2 3.7
-4 1 -12 9.4 4.1
-5 -1 -12 2.2 4.1
5 -1 12 29.5 7.8
5 -1 12 16.6 5.3
-5 -1 -12 0.3 5
5 -1 12 23.3 5.7
-5 -1 -12 -6.1 3.8
-5 1 -12 19.4 5.3
5 1 12 2.7 3.7
5 1 12 -0.8 16.2
5 1 12 -1.6 5.2
-5 1 -12 23.4 6
-5 1 -12 10.2 4.3
6 -1 12 90.09 20.8
-6 -1 -12 119.39 11.3
6 -1 12 111.19 11.6
-6 -1 -12 106.99 10.9
6 -1 12 93.99 12
-6 -1 -12 89.99 11.4
-6 1 -12 120.59 12.4
6 1 12 106.29 10.5
-6 1 -12 106.19 10.4
6 1 12 89.39 21.8
-6 1 -12 79.69 9.2
6 1 12 81.29 10.4
7 -1 12 86.39 11.1
7 -1 12 82.29 10.9
-7 -1 -12 96.39 10.3
-7 -1 -12 72.69 10
-7 -1 -12 83.49 9.9
-7 1 -12 73.69 9.8
7 1 12 76.79 10.3
7 1 12 109.29 21.1
-7 1 -12 86.79 11.2
-7 1 -12 97.49 10.6
-8 -1 -12 42.4 7.8
-8 -1 -12 53.19 8.9
-8 -1 -12 46.2 7.7
8 -1 12 33.1 7.9
-8 1 -12 49.7 8.7
8 1 12 29 13.8
8 1 12 41.7 8.7
-8 1 -12 26.5 6.6
-8 1 -12 52.69 8.3
-9 -1 -12 7.7 5.2
-9 -1 -12 16.2 6.5
9 -1 12 4.5 5.7
9 1 12 26 13.1
9 1 12 6.2 5.8
-9 1 -12 18.4 5.9
-9 1 -12 16.2 5.9
-9 1 -12 11.3 5.5
-10 -1 -12 -1.7 4.8
10 -1 12 -2.5 5.5
-10 -1 -12 -2 4.8
-10 -1 -12 -5.7 4.2
-10 1 -12 8.9 5.8
10 1 12 -3.9 4.9
-10 1 -12 6.7 5.1
-10 1 -12 5.9 4.9
-11 -1 -12 130.09 14.2
-11 -1 -12 104.79 12.1
11 -1 12 92.79 13.1
-11 -1 -12 86.69 12.1
11 1 12 115.99 13.6
-11 1 -12 110.49 13.4
-11 1 -12 113.69 13
-11 1 -12 121.09 12.8
-12 -1 -12 11.4 6.5
12 -1 12 -1.6 5.6
-12 -1 -12 2.5 5.6
-12 -1 -12 10.1 6.6
-12 1 -12 11 6.4
-12 1 -12 6.7 6
12 1 12 -4.1 5.7
15 -2 -12 1.4 5.5
15 -2 -12 1.3 8.8
15 2 -12 10.8 12.1
15 2 -12 12.9 6.4
15 2 -12 9.9 10.3
14 -2 -12 52.79 12.6
14 -2 -12 55.49 10.2
14 -2 -12 43.4 12.6
14 2 -12 47.9 12.6
14 2 -12 40.8 14.2
14 2 -12 50.39 9.2
13 -2 -12 -2.6 7.7
13 -2 -12 -0.6 7.4
13 -2 -12 8.8 6.1
13 2 -12 13.8 9.5
13 2 -12 6.4 5.4
13 2 -12 -0.8 9.3
12 -2 -12 21.5 9.3
12 -2 -12 8.7 5
12 -2 -12 2.3 6.5
12 2 -12 13.2 5.5
12 2 -12 8.7 8.2
12 2 -12 -2.6 8.9
-12 2 12 11.8 3.9
11 -2 -12 -5.9 6
11 -2 -12 -0.8 3.9
11 -2 -12 10.1 7.2
11 2 -12 4.5 4.1
11 2 -12 -1.7 6
-11 2 12 -1.8 2.3
11 2 -12 3 7.9
-10 -2 12 203.58 8.7
10 -2 -12 191.68 13.7
10 -2 -12 210.58 17.3
10 -2 -12 205.58 16.5
10 2 -12 172.08 18.7
10 2 -12 184.38 17.1
-10 2 12 198.58 10.8
10 2 -12 185.98 13.6
9 -2 -12 9.2 6.8
-9 -2 12 3.8 2.4
9 -2 -12 2.6 4.2
9 -2 -12 -0.4 6.1
9 2 -12 -2.4 7.3
9 2 -12 1.7 3.5
9 2 -12 -9.1 5.1
-9 2 12 3.4 2.7
-8 -2 12 53.39 5.4
8 -2 -12 62.49 9.9
8 -2 -12 57.19 8.1
8 -2 -12 42.2 8.6
-8 -2 12 44.7 4.8
8 2 -12 47.9 10
8 2 -12 43.5 7.4
8 2 -12 42.6 8.9
-8 2 12 50.09 6.1
7 -2 -12 107.49 11.6
7 -2 -12 107.99 12.4
7 -2 -12 98.29 9.5
-7 -2 12 106.39 6.8
-7 -2 12 104.09 6.5
-7 2 12 112.09 8
7 2 -12 93.39 10.6
7 2 -12 112.29 13.3
7 2 -12 107.49 10.4
-6 -2 12 51.79 5.5
6 -2 -12 53.39 8.9
6 -2 -12 40.2 6.4
-6 -2 12 45.6 5.1
6 -2 -12 50.59 6.9
6 2 -12 43.7 7.5
6 2 -12 51.39 9.7
-6 2 12 44 5.8
-6 2 12 46.2 5.5
5 -2 -12 164.28 10.9
-5 -2 12 141.29 8.3
-5 -2 12 138.49 7.9
5 -2 -12 158.38 10.4
5 -2 -12 137.29 12.8
5 2 -12 159.88 11.2
-5 2 12 150.38 9.1
-5 2 12 132.49 8.2
5 2 -12 141.29 14
-4 -2 12 198.58 10.1
-4 -2 12 212.98 9.9
4 -2 -12 174.38 10.9
4 -2 -12 175.38 11.7
-4 2 12 199.18 10.6
4 2 -12 175.88 9.3
4 2 -12 189.08 9.5
4 2 -12 189.08 11.7
4 2 -12 173.48 14.2
-4 2 12 183.48 9.6
-3 -2 12 509.65 18.9
3 -2 -12 491.55 21
3 -2 -12 482.65 19.8
-3 -2 12 488.95 18.2
3 2 -12 469.45 22.9
3 2 -12 500.25 19.5
3 2 -12 487.75 17.9
3 2 -12 509.75 18
-3 2 12 467.25 18.7
-3 2 12 472.65 18.1
2 -2 -12 10.3 3.7
2 -2 -12 10.8 4.6
-2 -2 12 6.5 3.2
2 -2 -12 15.2 4.6
-2 -2 12 11.1 3.4
2 2 -12 16.5 6
-2 2 12 7.7 3.1
2 2 -12 10.9 3
2 2 -12 10.2 3.3
-2 2 12 8.7 3.1
-1 -2 12 439.46 18.6
1 -2 -12 477.45 19.7
-1 -2 12 495.25 18.6
1 -2 -12 469.45 18.8
1 -2 -12 466.75 21
1 2 -12 481.75 17.7
-1 2 12 465.35 18
1 2 -12 454.85 18.4
-1 2 12 483.65 18.8
0 -2 12 20.5 4.8
0 -2 -12 28.8 5.1
0 -2 12 22.3 4.9
0 -2 -12 40.4 6.7
0 -2 -12 22 5.5
0 2 12 34.6 5.2
0 2 12 35 5.3
0 2 -12 25 4.5
0 2 -12 26.6 5.1
1 -2 12 -0.1 3.4
-1 -2 -12 4.8 4.2
-1 -2 -12 0.2 3.4
1 -2 12 4.2 3.5
-1 -2 -12 1.7 3
-1 2 -12 -1.4 2.2
1 2 12 -1.6 2.3
-1 2 -12 -2.2 2.6
-1 2 -12 -2 2.4
1 2 12 1.6 2.9
-2 -2 -12 70.79 7.7
2 -2 12 93.39 9.2
-2 -2 -12 92.99 10.7
-2 -2 -12 84.69 9.4
2 -2 12 84.99 9.5
-2 2 -12 72.39 8.3
-2 2 -12 95.79 7.3
-2 2 -12 95.39 9
2 2 12 85.99 8.5
2 2 12 81.09 7.7
-3 -2 -12 16.5 4.9
3 -2 12 13.5 5.1
3 -2 12 15 5.2
-3 -2 -12 7.5 5
-3 -2 -12 15.9 4.6
-3 2 -12 20.7 5.4
3 2 12 11 4.2
-3 2 -12 13.8 4.3
3 2 12 20.2 4.7
-3 2 -12 21.3 4.9
3 2 12 28.9 20.7
4 -2 12 7.3 7.1
-4 -2 -12 6.3 4.1
4 -2 12 6.4 4.8
-4 -2 -12 12 5.1
-4 -2 -12 7.2 4.9
4 -2 12 5.7 5.1
4 2 12 10.9 4.5
-4 2 -12 4.3 3.9
4 2 12 10.8 4.3
-4 2 -12 7.7 5
-4 2 -12 6.3 3.6
4 2 12 9.7 18.7
4 2 12 6.3 5.6
5 -2 12 19.7 6.3
5 -2 12 11.8 5.9
-5 -2 -12 8.1 5.7
-5 -2 -12 16.2 5.9
5 -2 12 25.9 7.9
-5 -2 -12 11.7 4.6
-5 2 -12 18.1 5.4
-5 2 -12 19.5 6
-5 2 -12 5.1 4.5
5 2 12 8.5 5.8
5 2 12 34.7 19
5 2 12 18.8 5
6 -2 12 79.59 10.2
-6 -2 -12 75.79 8.9
6 -2 12 73.09 10.4
-6 -2 -12 77.19 9.9
6 -2 12 80.29 10.6
-6 -2 -12 76.19 10.3
6 2 12 81.39 9.5
-6 2 -12 81.69 9.6
-6 2 -12 64.09 8.7
6 2 12 65.19 20.8
-6 2 -12 74.59 10.2
6 2 12 71.99 9.7
-7 -2 -12 9.2 5.3
-7 -2 -12 19.5 6.9
7 -2 12 13.1 6.3
-7 -2 -12 27.5 6.6
7 -2 12 8.9 6.1
-7 2 -12 7.7 5.3
-7 2 -12 15.7 6
7 2 12 5.4 13.4
-7 2 -12 13.2 5.4
7 2 12 15.7 6.3
-8 -2 -12 19.2 6.5
8 -2 12 10.1 6.5
8 -2 12 10.5 7.1
-8 -2 -12 14.3 6.3
-8 -2 -12 12 5.1
-8 2 -12 22.5 6.9
8 2 12 7.4 5.3
8 2 12 29.1 14.5
-8 2 -12 18.7 6.2
9 -2 12 1.9 5.7
-9 -2 -12 -2.2 3.6
-9 -2 -12 4 4.9
-9 -2 -12 0.3 4.9
-9 2 -12 3.5 5.1
9 2 12 22.3 13.3
-9 2 -12 4.3 4.6
9 2 12 9.8 5.9
-10 -2 -12 166.18 13.6
-10 -2 -12 153.98 15.7
-10 -2 -12 165.68 15.1
10 -2 12 159.58 16.1
10 2 12 151.58 23.1
-10 2 -12 159.48 15.2
10 2 12 152.58 15.1
-10 2 -12 157.28 15.7
-11 -2 -12 0.9 5.5
11 -2 12 -0.4 5.7
-11 -2 -12 0.7 5.2
-11 -2 -12 -0.3 5.4
-11 2 -12 -0.9 4.9
-11 2 -12 4.2 4.8
11 2 12 -0.3 4.8
-12 -2 -12 59.49 10.2
-12 -2 -12 101.79 12.6
-12 -2 -12 82.19 11.2
12 -2 12 77.89 13.2
-12 2 -12 71.49 11.6
-12 2 -12 79.79 11.8
12 2 12 88.59 12.8
15 -3 -12 18.5 9.7
15 -3 -12 7.8 6.2
15 3 -12 21.8 7.6
15 3 -12 13.5 11.5
15 3 -12 17.2 14.4
14 -3 -12 10 6.1
14 -3 -12 -2.2 7.2
14 3 -12 -9.7 11.4
14 3 -12 -5.2 8.4
14 3 -12 -1 4.5
13 -3 -12 24.5 7.9
13 -3 -12 26.8 10
-13 3 12 21.4 5.3
13 3 -12 16 6.5
13 3 -12 13.4 11.1
13 3 -12 27.2 11.1
12 -3 -12 19.8 8.3
12 -3 -12 5.4 5.2
12 3 -12 2.9 4.2
12 3 -12 24.3 11
12 3 -12 2.1 8.4
-12 3 12 6.9 3.9
11 -3 -12 6 7
11 -3 -12 -2.2 5.5
11 -3 -12 -4.8 3.8
11 3 -12 6.8 7.3
11 3 -12 5.7 4.1
11 3 -12 24.3 10.3
-11 3 12 -1.9 2.7
10 -3 -12 30.2 8.3
10 -3 -12 38 7.4
10 -3 -12 42.3 9
10 3 -12 41.1 10.3
10 3 -12 33.5 10.7
10 3 -12 30.3 6.6
-10 3 12 55.49 7.2
9 -3 -12 64.89 10.9
-9 -3 12 73.19 6.2
9 -3 -12 80.79 9.4
9 -3 -12 84.89 11.8
9 3 -12 77.09 11.4
9 3 -12 84.29 14
9 3 -12 84.39 10.2
-9 3 12 77.39 8.1
-8 -3 12 99.69 6.7
8 -3 -12 61.09 9.9
8 -3 -12 54.39 8
8 -3 -12 44.5 9
8 3 -12 56.59 8.2
8 3 -12 66.29 10.3
8 3 -12 77.79 12.2
-8 3 12 61.89 7.4
7 -3 -12 14.2 7.1
-7 -3 12 22.5 4.3
7 -3 -12 40.4 8.8
7 -3 -12 15 5.2
-7 -3 12 25.4 4.5
-7 3 12 20.3 4.9
7 3 -12 27.6 7.6
7 3 -12 33.1 9.3
6 -3 -12 351.96 19.8
6 -3 -12 313.07 16.8
-6 -3 12 303.37 13.2
-6 -3 12 306.97 13.5
6 -3 -12 346.87 16.1
6 3 -12 329.47 20.7
6 3 -12 304.27 17.1
-6 3 12 325.27 15.1
-5 -3 12 33.2 5
5 -3 -12 44.4 7.7
-5 -3 12 34.5 5.2
5 -3 -12 48.3 6.8
5 3 -12 48.1 8.7
-5 3 12 34.3 5.6
5 3 -12 39.7 6.6
-5 3 12 51.99 6.1
4 -3 -12 18.3 5.4
-4 -3 12 5.3 3.5
-4 -3 12 11.2 3.9
4 -3 -12 8.5 4.9
4 3 -12 10.5 5.9
4 3 -12 12.9 3.3
-4 3 12 11.1 3.7
4 3 -12 16.8 4.6
-4 3 12 12.8 3.7
-3 -3 12 0.3 2.9
-3 -3 12 6.6 3.4
3 3 -12 -2.4 2.1
-3 3 12 1.9 2.5
-3 3 12 -2.3 2.3
3 3 -12 0.9 2.5
3 3 -12 -0.2 4.5
3 3 -12 0.4 3.1
-2 -3 12 154.28 10.2
-2 -3 12 161.08 10.1
2 -3 -12 170.88 12.5
2 -3 -12 140.99 11.3
-2 3 12 172.48 10.3
2 3 -12 138.79 9.2
2 3 -12 168.18 9.6
2 3 -12 155.68 13.1
-2 3 12 161.38 9.5
2 3 -12 156.08 8.6
1 -3 -12 8.3 4
1 -3 -12 5.3 4.6
1 -3 -12 10.9 4.5
-1 -3 12 1 3.4
-1 -3 12 14.2 4.5
1 3 -12 13.7 5.4
-1 3 12 10 3.4
1 3 -12 3.5 2.5
1 3 -12 5 3
1 3 -12 10.7 3.8
-1 3 12 11.8 4
0 -3 12 125.99 11.1
0 -3 -12 126.49 11.2
0 -3 -12 119.59 12.4
0 -3 12 120.29 9.7
0 -3 -12 116.19 9
0 3 -12 130.09 9.3
0 3 12 117.89 8.7
0 3 -12 118.79 7.9
0 3 12 117.09 8.9
-1 -3 -12 -6 3.6
-1 -3 -12 0.9 3.2
1 -3 12 -0.4 3.7
1 -3 12 4.6 4.1
-1 -3 -12 3.7 4.5
-1 3 -12 0.2 2.6
-1 3 -12 0.1 3.1
1 3 12 1 3
1 3 12 3.2 3.1
2 -3 12 151.68 11.4
-2 -3 -12 138.29 13.6
2 -3 12 151.68 11.6
-2 -3 -12 140.09 12.3
-2 -3 -12 146.79 10.1
2 3 12 151.58 9.9
2 3 12 175.98 29.2
-2 3 -12 137.49 9.4
2 3 12 142.89 10.1
-2 3 -12 145.79 10.7
3 -3 12 10.4 5.4
3 -3 12 5.8 6.9
-3 -3 -12 3.5 4
3 -3 12 2.6 4.2
-3 -3 -12 3.6 4.9
-3 -3 -12 8.8 5.6
3 3 12 7.4 5.6
3 3 12 3.1 3.3
-3 3 -12 0.9 4.1
-3 3 -12 8.9 3.8
3 3 12 13.3 20.2
3 3 12 4 3.6
-4 -3 -12 49.4 9.4
4 -3 12 43.5 8
4 -3 12 36.9 9
-4 -3 -12 56.79 8
-4 -3 -12 40.5 7.8
4 -3 12 33.4 7.5
-4 3 -12 39.5 7.3
4 3 12 46.4 6.8
4 3 12 39.1 7.7
4 3 12 25.5 21.4
-4 3 -12 36.2 6.5
-5 -3 -12 10.5 4.9
5 -3 12 13.1 6.3
5 -3 12 11.3 7.6
5 -3 12 6.9 5.8
-5 -3 -12 -1.3 5.3
-5 -3 -12 8.3 5.8
5 3 12 -15.9 17.8
-5 3 -12 10.4 5.1
-5 3 -12 12.9 4.9
5 3 12 1.2 4.9
5 3 12 5.7 4.1
-6 -3 -12 31.1 8.1
-6 -3 -12 40.9 8
6 -3 12 38.7 8.6
6 -3 12 31.2 8.9
-6 -3 -12 45.7 7.4
6 -3 12 41.4 8.6
6 3 12 30.7 16.7
-6 3 -12 39.5 6.6
-6 3 -12 41.2 8
6 3 12 46 7.8
7 -3 12 43.6 8.9
-7 -3 -12 40.7 7.5
-7 -3 -12 47.3 9.1
7 -3 12 43.8 8.9
-7 -3 -12 51.59 8.7
-7 3 -12 30.7 6.6
-7 3 -12 39.7 7.6
7 3 12 48.4 8.1
7 3 12 35.7 16.1
-8 -3 -12 63.49 9.5
8 -3 12 79.79 11.2
-8 -3 -12 56.99 8.5
8 -3 12 64.79 10.8
-8 -3 -12 63.39 10.2
-8 3 -12 71.89 10.8
8 3 12 51.19 17.5
8 3 12 58.09 9.1
-8 3 -12 47.3 8.7
9 -3 12 2.7 6.3
-9 -3 -12 1.8 6
-9 -3 -12 -4.4 4.8
-9 -3 -12 -0.5 4.8
-9 3 -12 -1.4 4.3
9 3 12 11.2 12.6
-9 3 -12 7.2 5.4
-10 -3 -12 47.3 10.1
10 -3 12 37.3 9.3
-10 -3 -12 53.79 9.7
-10 -3 -12 46.7 9
-10 3 -12 60.99 10.2
10 3 12 75.69 19.8
-10 3 -12 51.49 10
-11 -3 -12 44.1 9.2
-11 -3 -12 23 8.1
11 -3 12 7.9 6.9
-11 -3 -12 32.2 7.7
-11 3 -12 6.2 5.8
11 3 12 23 14.5
-11 3 -12 17 7.1
-12 -3 -12 2.3 5.8
-12 -3 -12 -2.4 5
-12 -3 -12 2.2 6.1
12 -3 12 4.1 7.2
-12 3 -12 0 6
-12 3 -12 5.1 6.2
14 -4 -12 128.89 14.5
14 -4 -12 170.08 19.8
14 4 -12 140.69 22.3
-14 4 12 178.58 12.6
14 4 -12 157.38 21.2
14 4 -12 166.28 16.3
13 -4 -12 11.4 6.4
13 -4 -12 19.4 8.9
13 4 -12 1.9 5.2
13 4 -12 21.6 11.8
13 4 -12 5.8 11.4
-13 4 12 11.9 5
12 -4 -12 263.97 18.2
12 -4 -12 314.27 22.1
12 4 -12 315.17 19.1
12 4 -12 282.57 26.5
12 4 -12 280.67 24
-12 4 12 303.37 16.3
11 -4 -12 301.47 20.7
11 -4 -12 304.27 18.4
-11 4 12 270.17 15.4
11 4 -12 287.27 25.4
11 4 -12 280.37 22.3
11 4 -12 296.07 18.1
10 -4 -12 4.7 4.5
10 -4 -12 1 6.3
10 4 -12 3.6 4.4
-10 4 12 8.5 4
10 4 -12 7.6 9
10 4 -12 9.6 8.3
9 -4 -12 41 7.5
-9 -4 12 39.6 5.6
9 -4 -12 24.5 7.5
9 4 -12 20.5 9.7
9 4 -12 47 10.2
-9 4 12 42.1 6.7
-8 -4 12 328.87 14
8 -4 -12 315.77 17.1
8 -4 -12 357.56 20.3
8 -4 -12 300.77 19.3
8 4 -12 334.77 23.7
8 4 -12 348.17 21
-8 4 12 322.97 16
7 -4 -12 212.18 13.2
-7 -4 12 210.48 11.6
7 -4 -12 201.18 14.6
-7 -4 12 214.48 11.4
7 -4 -12 216.28 16.1
7 4 -12 206.98 18.5
7 4 -12 232.38 16.8
-7 4 12 241.68 13.2
6 -4 -12 503.15 23.4
6 -4 -12 477.05 20.8
-6 -4 12 526.25 20.1
6 -4 -12 467.05 24
-6 -4 12 502.95 19.5
-6 4 12 522.95 21.3
6 4 -12 526.85 27.3
6 4 -12 524.75 23.4
5 -4 -12 85.59 8.4
-5 -4 12 87.79 8.6
-5 -4 12 76.09 8
5 -4 -12 94.69 11.2
5 -4 -12 66.69 9.6
5 4 -12 92.49 12.2
5 4 -12 77.89 9.3
-5 4 12 85.59 8.6
-5 4 12 81.39 8.8
-4 -4 12 140.69 9.6
4 -4 -12 124.39 12.1
4 -4 -12 125.79 13.1
-4 -4 12 126.39 9.8
-4 4 12 93.99 8.7
4 4 -12 119.99 10.3
-4 4 12 135.29 9.7
4 4 -12 102.39 12.2
3 -4 -12 175.28 13.8
-3 -4 12 156.88 11.2
3 -4 -12 173.48 14.6
-3 -4 12 179.88 11.3
-3 4 12 168.18 10.9
3 4 -12 171.98 14.9
-3 4 12 162.08 10.3
-2 -4 12 22.4 5.5
2 -4 -12 25.3 6.4
-2 -4 12 16.9 5.2
2 -4 -12 16.3 6.4
-2 4 12 20 4.8
-2 4 12 23.7 5.1
2 4 -12 22 7.3
2 4 -12 27.8 5
2 4 -12 26.6 4.1
1 -4 -12 53.69 8.9
-1 -4 12 48 7.5
-1 -4 12 70.79 8.9
1 -4 -12 62.59 9.6
1 4 -12 57.49 8.9
-1 4 12 60.19 7.6
1 4 -12 59.09 6.1
1 4 -12 64.59 7.4
-1 4 12 54.59 6.7
0 -4 -12 538.35 21.3
0 -4 12 490.15 22.4
0 -4 12 504.15 22
0 -4 -12 526.75 24.9
0 -4 -12 523.65 23.4
0 4 12 538.95 20.7
0 4 12 481.05 43
0 4 -12 554.04 23.9
0 4 -12 510.55 19.1
0 4 12 504.75 21.3
0 4 -12 521.95 21.2
-1 -4 -12 10.4 5.8
-1 -4 -12 1.6 5.1
1 -4 12 1.5 4.3
-1 -4 -12 16.3 5
1 -4 12 3.6 5.1
-1 4 -12 16.5 6.1
1 4 12 2.7 3.4
-1 4 -12 6.3 4.3
1 4 12 -10.4 21.5
-1 4 -12 6.3 3.3
1 4 12 5.2 3.8
2 -4 12 445.06 21.5
-2 -4 -12 453.55 21.8
-2 -4 -12 447.16 19.4
2 -4 12 430.36 20.9
-2 -4 -12 433.56 23.2
-2 4 -12 435.16 18.2
2 4 12 425.26 38.6
-2 4 -12 471.55 20.7
2 4 12 431.46 18.6
2 4 12 460.85 19.7
3 -4 12 4.6 5.6
3 -4 12 -1.4 5.2
3 -4 12 9.2 7.4
-3 -4 -12 -0.8 4
-3 -4 -12 -0.2 5.1
-3 -4 -12 -4.4 4.9
3 4 12 2.7 3.9
3 4 12 -14.3 18.5
-3 4 -12 8.5 4.8
-3 4 -12 0.1 3.6
4 -4 12 43.1 9.3
-4 -4 -12 17 8.1
4 -4 12 23.9 7.3
-4 -4 -12 24.7 5.9
4 -4 12 48.2 9.1
-4 -4 -12 14 7.1
-4 4 -12 21.5 5.3
-4 4 -12 35.8 7.5
4 4 12 27.4 6.1
4 4 12 21.3 21.2
-5 -4 -12 242.48 17.5
-5 -4 -12 236.98 15.8
5 -4 12 240.78 16.5
5 -4 12 236.18 17.2
-5 -4 -12 235.68 14
5 -4 12 258.27 18.3
5 4 12 229.18 31.2
-5 4 -12 222.08 13.4
-5 4 -12 241.58 15.4
6 -4 12 80.19 11.7
-6 -4 -12 86.69 11.3
-6 -4 -12 92.09 10
6 -4 12 80.09 11.5
-6 -4 -12 106.29 13.5
6 -4 12 79.49 11.5
-6 4 -12 86.49 10.9
6 4 12 132.59 23.9
-6 4 -12 92.79 10.3
7 -4 12 51.19 10
-7 -4 -12 45.2 8.9
-7 -4 -12 45.9 9.7
-7 -4 -12 36.5 7
7 -4 12 36.8 9.2
-7 4 -12 41.5 8.2
7 4 12 71.29 19.7
-7 4 -12 49.99 8.1
-8 -4 -12 63.59 10.9
-8 -4 -12 59.49 9.2
8 -4 12 63.79 10.8
-8 -4 -12 74.19 11.7
8 -4 12 66.09 11.3
8 4 12 74.29 20.7
-8 4 -12 91.29 11.5
-8 4 -12 49.4 9.3
-9 -4 -12 57.79 9.1
-9 -4 -12 53.09 10.7
-9 -4 -12 51.99 9.9
9 -4 12 50.99 10.9
-9 4 -12 52.09 9.9
9 4 12 75.29 20.4
-9 4 -12 52.09 9.5
-10 -4 -12 6.5 6.6
-10 -4 -12 0.5 6.3
-10 -4 -12 13.4 5.7
10 -4 12 5.5 7.1
10 4 12 28.5 16.2
-10 4 -12 9.4 5.9
-10 4 -12 14.4 7
-11 -4 -12 66.59 10.6
-11 -4 -12 68.39 11.6
11 -4 12 52.79 11.6
11 4 12 34.2 16.7
-11 4 -12 43.6 9.9
-11 4 -12 72.89 12.1
13 -5 -12 16.1 8.2
13 -5 -12 23.5 7.3
13 5 -12 11.7 13
-13 5 12 13.5 5.5
13 5 -12 17.4 11.9
12 -5 -12 80.99 13.3
12 -5 -12 68.29 10.2
-12 5 12 70.79 9.6
12 5 -12 74.89 14.8
11 -5 -12 15.1 6.5
11 -5 -12 24.5 9.1
11 5 -12 36.5 13.6
11 5 -12 29.5 11.9
-11 5 12 24.3 6.4
10 -5 -12 -4.9 4.2
10 -5 -12 0.1 6.2
10 5 -12 -2.6 7
10 5 -12 4.3 9
-10 5 12 1.2 3.6
9 -5 -12 3.1 4.2
-9 -5 12 2.3 3.7
9 -5 -12 -8.8 5
9 5 -12 7.7 8.5
-9 5 12 -1.3 3
9 5 -12 8.9 8
-8 -5 12 15.5 4.9
8 -5 -12 21.4 5.7
8 -5 -12 14.2 7.1
8 5 -12 27.4 9.1
-8 5 12 27.1 5.9
8 5 -12 24.7 10.1
7 -5 -12 148.89 11.3
-7 -5 12 152.68 10.9
-7 -5 12 141.59 10.3
7 -5 -12 168.78 16.4
7 5 -12 143.99 16.5
7 5 -12 137.29 17.1
-7 5 12 168.38 11.8
-6 -5 12 5.1 4.1
-6 -5 12 7.4 4.6
6 -5 -12 3.8 3.5
6 -5 -12 -0.2 5.6
-6 5 12 4 3.6
6 5 -12 -1 6
5 -5 -12 202.78 12.3
5 -5 -12 214.78 17.9
-5 -5 12 197.68 12.4
-5 -5 12 207.58 13
5 -5 -12 194.08 17.8
-5 5 12 198.98 12.1
-5 5 12 215.88 13.5
5 5 -12 184.08 16.8
-4 -5 12 49.99 7.6
-4 -5 12 63.49 8.5
4 -5 -12 65.69 10.8
4 -5 -12 57.79 9.7
4 5 -12 49.2 9.9
-4 5 12 52.49 7.1
-3 -5 12 62.39 8.6
-3 -5 12 65.69 8.9
3 -5 -12 56.09 10.6
3 -5 -12 67.39 10.9
-3 5 12 76.49 9.4
3 5 -12 61.69 10.3
-3 5 12 68.09 8
2 -5 -12 5.6 6.6
-2 -5 12 15.5 5.6
2 -5 -12 4.5 6.2
-2 -5 12 12.1 5.6
-2 5 12 30 23
2 5 -12 6.9 5.9
-2 5 12 18.4 5.6
-2 5 12 9 4.1
-1 -5 12 56.69 8.8
1 -5 -12 48 9.8
-1 -5 12 39.3 8
1 -5 -12 42.5 9.4
-1 5 12 21.4 22.3
1 5 -12 43.7 8.4
-1 5 12 43.1 6.5
-1 5 12 55.29 8.1
1 5 -12 52.59 7.1
0 -5 12 165.18 14
0 -5 12 165.38 14.6
0 -5 -12 173.88 15.8
0 -5 -12 145.99 15.5
0 5 12 178.28 11.8
0 5 -12 185.98 12
0 5 12 131.29 10.2
0 5 12 144.69 30.8
-1 -5 -12 10.9 6.4
1 -5 12 15 6.7
1 -5 12 14.7 6.2
-1 -5 -12 17.2 6.8
-1 -5 -12 8.5 4.8
-1 5 -12 12.6 5.2
1 5 12 2.4 18.8
1 5 12 12.9 4.8
-1 5 -12 13 4.3
1 5 12 9.6 4.1
-2 -5 -12 19.8 7.4
2 -5 12 15.4 6.4
2 -5 12 27.1 8
-2 -5 -12 15.3 7.2
2 -5 12 18.2 7.9
-2 -5 -12 12.8 4.7
2 5 12 16.5 4.8
2 5 12 24.3 20.2
-2 5 -12 26.9 6.3
-2 5 -12 21.1 5
3 -5 12 4.6 6
3 -5 12 2.6 5.9
3 -5 12 4.7 7.1
-3 -5 -12 0.5 4.8
-3 -5 -12 8.7 4.7
-3 -5 -12 14.8 6.4
-3 5 -12 12.2 4.3
-3 5 -12 10.7 5.4
3 5 12 -5.8 15.6
3 5 12 8.2 4
4 -5 12 0.9 5.8
4 -5 12 -2.4 6.6
-4 -5 -12 2.5 4.3
-4 -5 -12 4.1 5.2
-4 -5 -12 1.4 5.6
4 -5 12 4.9 6.1
-4 5 -12 -1.4 3.5
4 5 12 13.4 17.1
-4 5 -12 -2.8 4.1
5 -5 12 40.3 9.6
-5 -5 -12 26 7.5
-5 -5 -12 26.5 8.3
-5 -5 -12 35.9 7
5 -5 12 29.9 8.7
5 -5 12 35.2 9
-5 5 -12 53.09 9.6
-5 5 -12 32.8 6.5
5 5 12 20.8 17.2
6 -5 12 5.3 6.3
6 -5 12 4.7 6.6
-6 -5 -12 5.7 6.2
6 -5 12 8.5 6.5
-6 -5 -12 -3.6 4
-6 -5 -12 2 5.4
-6 5 -12 6 5.2
6 5 12 -4.2 14.1
-6 5 -12 -1 3.5
7 -5 12 49.4 10.4
7 -5 12 43.5 10.5
-7 -5 -12 29.3 8.7
-7 -5 -12 46.2 10.6
-7 -5 -12 36.2 7.6
-7 5 -12 44.3 9.3
-7 5 -12 46.2 8.5
7 5 12 27.1 18.6
8 -5 12 27.3 9.3
8 -5 12 20.5 8.5
-8 -5 -12 26.3 8.4
-8 -5 -12 20 8.2
8 5 12 39.5 18
-8 5 -12 37.5 9.7
-8 5 -12 23.6 7.1
-9 -5 -12 2.6 6.8
-9 -5 -12 -2.4 5.9
9 -5 12 1.2 7.3
-9 5 -12 7.8 6
9 5 12 7.9 14.5
-9 5 -12 -5.9 4.1
10 -5 12 65.19 12.4
-10 -5 -12 54.99 11.5
-10 -5 -12 82.79 11.7
-10 5 -12 71.49 12
10 5 12 60.89 20.4
-10 5 -12 74.59 11.9
12 -6 -12 4.6 7.9
12 6 -12 2.5 10.8
-12 6 12 3.3 4.3
12 6 -12 4.6 12.1
11 -6 -12 11.4 7.8
11 6 -12 -19.2 12.8
11 6 -12 3.7 11.6
-11 6 12 4.7 4
10 -6 -12 34.5 9.6
-10 6 12 37.9 7.6
10 6 -12 24.5 12.5
-9 -6 12 30.4 7.2
9 -6 -12 33.6 9.6
-9 6 12 40.6 8.1
9 6 -12 11.7 10.7
8 -6 -12 18.9 7.6
-8 -6 12 5.2 5.1
-8 6 12 0.7 3.7
8 6 -12 4.3 8.9
-7 -6 12 68.99 9
-7 -6 12 43.4 7.8
7 -6 -12 42.3 9.7
7 6 -12 54.29 12.4
-7 6 12 51.39 8.3
6 -6 -12 -0.7 6
-6 -6 12 3.7 4.9
-6 -6 12 -4 4.4
-6 6 12 -0.6 3.4
6 6 -12 1 7.2
-6 6 12 -14.3 18.1
-5 -6 12 3.2 4.9
5 -6 -12 8.3 6.8
-5 -6 12 6.1 5.1
5 -6 -12 11.8 7.1
5 6 -12 6.2 6.8
-5 6 12 -25.2 18.2
-5 6 12 17.4 5.6
-4 -6 12 1.6 5.1
-4 -6 12 6.4 4.9
4 -6 -12 -4.1 5.4
4 -6 -12 -1.4 5.8
-4 6 12 4.9 3.8
4 6 -12 0.8 6.5
-4 6 12 1.5 3.6
-4 6 12 -34.1 17.6
3 -6 -12 110.59 14
-3 -6 12 135.49 13.7
-3 -6 12 107.59 12.1
3 -6 -12 163.08 16
-3 6 12 124.99 9.9
-3 6 12 64.09 23
-3 6 12 136.69 11.3
2 -6 -12 76.49 12.6
-2 -6 12 78.49 10.8
-2 -6 12 90.49 11.6
2 -6 -12 79.09 11.9
-2 6 12 80.89 24.6
-2 6 12 80.79 9.1
-2 6 12 102.39 11.7
-1 -6 12 69.59 10.7
1 -6 -12 61.49 11.4
1 -6 -12 63.89 10.7
-1 -6 12 72.59 10.8
-1 6 12 22.3 21.3
-1 6 12 51.59 7.2
-1 6 12 58.79 8.4
0 -6 12 26.7 7.5
0 -6 -12 53.49 10.9
0 -6 12 35.7 8.7
0 -6 -12 26 8.4
0 6 12 17.4 19.5
0 6 12 27 5.7
0 6 -12 39.3 7.1
0 6 12 42.1 7.5
1 -6 12 26.7 8.4
-1 -6 -12 10.9 6.8
1 -6 12 21.7 7.3
-1 -6 -12 21.5 8.3
1 -6 12 11.4 7.3
-1 6 -12 14.3 5.4
1 6 12 17.9 18.9
1 6 12 26.6 6.1
2 -6 12 -3 5.8
2 -6 12 6.9 6.6
-2 -6 -12 5.5 6.2
-2 -6 -12 1.1 5.4
2 -6 12 1.2 5.8
-2 6 -12 -0.6 3.8
2 6 12 -3.9 15.9
2 6 12 6.5 4
-3 -6 -12 7 7.1
-3 -6 -12 22.8 5.8
3 -6 12 28.5 9
3 -6 12 24.1 8
3 -6 12 6.8 7.3
-3 -6 -12 10.3 6.9
3 6 12 9.4 14.9
-3 6 -12 16.2 6.3
4 -6 12 14 7.6
4 -6 12 9.8 7.4
4 -6 12 11.1 7.2
-4 -6 -12 17.8 7.1
-4 -6 -12 8.9 7.1
4 6 12 53.29 20.3
-4 6 -12 14.9 6.1
5 -6 12 -7.7 5.8
-5 -6 -12 0.3 6.2
5 -6 12 2.5 6.3
5 -6 12 -2.1 6.4
-5 -6 -12 8.3 6.7
5 6 12 16.5 16.6
-5 6 -12 4.4 4.2
-5 6 -12 4.8 6.2
6 -6 12 -1.4 7.5
-6 -6 -12 11.4 7.5
-6 -6 -12 7.3 6.8
6 -6 12 9.4 8.1
6 -6 12 7.4 7.6
6 6 12 65.79 21.7
-6 6 -12 13.7 7.4
-6 6 -12 20.1 5.9
-7 -6 -12 24.9 8.4
-7 -6 -12 15.1 8
7 -6 12 9.9 8.3
7 -6 12 4.3 7.5
7 6 12 -8.3 14.2
-7 6 -12 7.9 5
-7 6 -12 3.7 6.5
8 -6 12 18.4 9
-8 -6 -12 10.9 7.8
-8 -6 -12 17.5 8
8 -6 12 17.3 8.7
-8 6 -12 25.2 8.7
8 6 12 7.2 15.6
-8 6 -12 16.1 6.3
-9 -6 -12 0.6 7.2
-9 -6 -12 0.3 6.9
9 -6 12 -7.4 6.7
9 6 12 8.3 15.7
-9 6 -12 -6.2 5.4
-9 6 -12 -11.2 3.6
10 7 -12 -17.2 10.3
-10 7 12 1.6 4.7
-9 -7 12 4 6.5
9 -7 -12 -6.2 8.3
9 7 -12 -2.2 11.4
-9 7 12 6.5 4.8
-8 -7 12 13.3 7.2
8 -7 -12 4.3 7.4
-8 7 12 21.3 6.7
8 7 -12 0.4 10.3
7 -7 -12 44.5 11.7
-7 -7 12 45.9 9.4
-7 -7 12 30.4 8.3
7 7 -12 35.5 12.5
-7 7 12 47.6 8.9
6 -7 -12 -1.5 7.6
-6 -7 12 12.7 7
-6 -7 12 3.2 6
-6 7 12 5.6 5.2
6 7 -12 -1.4 10.9
-5 -7 12 15.3 7
5 -7 -12 1.1 8.8
-5 -7 12 11.9 7.2
5 -7 -12 11.3 8.4
-5 7 12 24.1 6.2
-5 7 12 -30.6 16.2
-5 7 12 19.8 6.2
4 -7 -12 46.7 10.7
-4 -7 12 74.39 11.2
4 -7 -12 84.89 14.7
-4 -7 12 78.99 11.5
-4 7 12 54.69 21.8
-4 7 12 75.49 9.7
-4 7 12 79.29 10.9
-3 -7 12 145.49 15.1
-3 -7 12 152.78 15.6
3 -7 -12 141.79 17.9
3 -7 -12 122.59 15.4
-3 7 12 121.39 13
-3 7 12 126.29 27.3
-3 7 12 123.29 11.8
-2 -7 12 126.99 14.5
-2 -7 12 122.79 14.4
2 -7 -12 95.39 13.4
2 -7 -12 137.49 17.7
-2 7 12 110.39 11.5
-2 7 12 90.99 24.2
-2 7 12 118.19 12.6
-1 -7 12 92.19 12.8
1 -7 -12 84.39 12.8
-1 -7 12 87.89 12.6
1 -7 -12 115.89 15.9
-1 7 12 130.49 13.3
-1 7 12 81.89 22.2
0 -7 12 3.5 7
0 -7 -12 19.5 8.2
0 -7 12 20 7.4
0 -7 -12 4.8 7.4
0 7 12 -6.8 15.1
0 7 12 -3.4 3.8
-1 -7 -12 11.2 7.6
-1 -7 -12 18.6 7.6
1 -7 12 4.6 6.7
1 -7 12 4.9 7.2
1 7 12 1.4 4.4
1 7 12 20.9 18.1
2 -7 12 30.5 9.3
-2 -7 -12 54.19 11.3
-2 -7 -12 42.9 10.9
2 -7 12 50.99 10.8
-2 7 -12 67.79 10.2
2 7 12 59.99 21.6
-3 -7 -12 24.2 9.9
3 -7 12 35.1 9.7
-3 -7 -12 39.8 10.3
-3 7 -12 35.9 8.5
3 7 12 41.4 20.3
-4 -7 -12 96.59 13.9
4 -7 12 82.19 12.2
4 -7 12 94.69 15
-4 -7 -12 87.79 14.3
4 -7 12 74.69 13
-4 7 -12 110.29 13.7
4 7 12 90.99 23
5 -7 12 31.3 10.7
5 -7 12 9.1 7.9
-5 -7 -12 29.6 9.8
5 -7 12 24.3 9.3
-5 -7 -12 17.7 8.2
-5 7 -12 30.5 9
5 7 12 10.8 17.5
6 -7 12 3.6 7.8
6 -7 12 7.5 8.5
-6 -7 -12 5.2 7.2
6 -7 12 3.3 7.3
-6 -7 -12 -3.3 6.4
-6 7 -12 -6.4 5.1
6 7 12 -7.1 14.7
7 -7 12 -4.7 6.7
-7 -7 -12 9.7 8.1
-7 -7 -12 7.5 8
7 -7 12 -0.4 8.1
-7 7 -12 -3 5.8
7 7 12 -10.4 14.8
-8 -8 12 54.69 11
-8 8 12 54.49 10.7
7 -8 -12 30.8 11.8
-7 -8 12 36.9 9.4
-7 8 12 64.89 11.2
-6 -8 12 81.09 12.5
-6 -8 12 61.59 11.6
6 -8 -12 73.09 14.3
-6 8 12 85.29 12.3
-5 -8 12 25.2 8.8
-5 -8 12 4.7 7.2
5 -8 -12 9.7 9.5
-5 8 12 31.3 8.1
-4 -8 12 13.8 7.6
4 -8 -12 22.3 9.1
-4 -8 12 29.5 9.1
4 -8 -12 19.1 10.3
-4 8 12 15.7 6.5
-4 8 12 14.2 5.6
-3 -8 12 133.99 16.1
3 -8 -12 140.79 18.8
3 -8 -12 143.39 17.5
-3 -8 12 134.79 15.7
-3 8 12 99.69 23
-3 8 12 122.39 12.7
-3 8 12 113.89 13.6
2 -8 -12 80.49 15.3
-2 -8 12 79.59 12.3
2 -8 -12 93.69 14.9
-2 8 12 114.39 24
-2 8 12 101.19 12.6
1 -8 -12 30.8 10.8
-1 -8 12 42 10.8
-1 -8 12 40.4 10.3
1 -8 -12 50.79 12.9
-1 8 12 58.99 9.7
-1 8 12 41.8 18
0 -8 12 28.2 9.7
0 -8 -12 32.7 10.5
0 -8 -12 22.7 11
0 -8 12 15.2 8.3
0 8 12 41.6 19.7
0 8 12 38.2 8.2
-1 -8 -12 31.9 10.8
1 -8 12 23.9 10
1 -8 12 28.9 9.5
-1 -8 -12 54.89 12.1
1 8 12 64.39 20.3
-2 -8 -12 5.8 8.1
-2 -8 -12 9.5 7.8
2 -8 12 3.6 7.7
2 -8 12 -5.9 6.4
2 8 12 -11.1 14.3
-3 -8 -12 13.6 8.8
3 -8 12 15.8 9.2
3 -8 12 4.8 7.8
-3 -8 -12 17.3 8.8
3 8 12 18.6 17.5
-3 8 -12 13.9 7.3
4 -8 12 3.4 8.3
-4 -8 -12 0.8 8.1
4 -8 12 -2.3 7.3
-4 -8 -12 -7.4 5.9
4 8 12 2.7 15.5
-4 8 -12 3.4 6.2
5 -8 12 -1.3 7.2
-5 -8 -12 9.6 7.9
-5 -8 -12 -6.1 7
5 -8 12 -3.8 7.5
5 8 12 2.8 15.8
-5 8 -12 -4.2 5.6
-4 -9 12 9.9 8.6
4 -9 -12 -2.4 8.3
3 -9 -12 -1.1 9.2
-3 -9 12 8.4 7.8
-3 -9 12 0.2 8.2
3 -9 -12 -6.5 8.2
-3 9 12 -6.5 4.6
2 -9 -12 0.4 8.3
-2 -9 12 13.3 9.3
-2 -9 12 16 8.9
2 -9 -12 -2.5 9.3
-2 9 12 1.5 5.9
-2 9 12 4.4 15.3
1 -9 -12 35.8 11.7
-1 -9 12 31.2 10.2
-1 -9 12 37.9 11.3
1 -9 -12 38.9 13.4
-1 9 12 61.79 20
0 -9 -12 0.8 9.9
0 -9 12 10 8.5
0 -9 -12 7.2 8.7
0 -9 12 4.4 9.2
0 9 12 19.7 16.7
-1 -9 -12 -2.6 8.9
1 -9 12 4.7 8.7
15 0 -13 5.9 10.6
15 0 -13 4.8 9
15 0 -13 -2.2 4.6
14 0 -13 -12.1 8.1
14 0 -13 3.8 8.3
14 0 -13 -0.3 4.6
13 0 -13 -10.5 7.5
13 0 -13 1 4.7
13 0 -13 -4.2 7.1
12 0 -13 -4.2 6.7
12 0 -13 -2.4 3.5
12 0 -13 -2.9 7.3
-11 0 13 0.8 2.2
11 0 -13 5.2 4.1
11 0 -13 6 7.4
11 0 -13 -10.7 5.4
10 0 -13 3.3 6.6
10 0 -13 3.4 4.1
9 0 -13 2 4
-9 0 13 -1.3 2.1
9 0 -13 -0.2 6.3
-9 0 13 4.1 2.8
9 0 -13 0.6 7
8 0 -13 -1.8 5.3
8 0 -13 0.7 4.2
8 0 -13 7.4 7.4
-8 0 13 0.2 2.3
-8 0 13 0.8 2.2
6 0 -13 0.8 4.6
6 0 -13 8.3 6.4
-6 0 13 3.2 2.5
6 0 -13 -0.9 2.9
-6 0 13 0.9 2.3
5 0 -13 3.4 5.5
-5 0 13 2.6 2.3
5 0 -13 0.9 4.7
-5 0 13 2.6 2.4
5 0 -13 1 2.5
4 0 -13 -3.3 2.3
-4 0 13 0.6 2.2
4 0 -13 4.4 5.1
-4 0 13 -0.4 2.2
-3 0 13 2.1 2.5
-3 0 13 2.4 2.5
3 0 -13 -2 2.5
3 0 -13 -0.5 2.6
2 0 -13 2.5 2.7
2 0 -13 -3.5 2.5
-2 0 13 2.7 2.5
2 0 -13 2.6 2.8
-2 0 13 2.9 2.5
1 0 -13 1.1 2.9
-1 0 13 -1.3 2.2
-1 0 13 1 2.3
1 0 -13 -0.3 2.9
1 0 -13 -0.8 2.6
0 0 -13 7.1 3.6
0 0 13 2.3 2.8
0 0 13 8.3 3.3
0 0 -13 3.8 2.8
0 0 -13 2.8 3.3
1 0 13 2 3
-1 0 -13 0.7 3.4
-1 0 -13 3.6 3
1 0 13 2 3
-1 0 -13 5.1 3.4
2 0 13 -5.1 2.7
-2 0 -13 -4.5 3
-2 0 -13 2.1 3.8
2 0 13 -0.3 3
-2 0 -13 -0.8 2.7
-3 0 -13 1.3 3.5
3 0 13 0.5 3.4
-3 0 -13 2.2 3.6
3 0 13 3.5 3.8
-3 0 -13 1.1 4.1
4 0 13 8 6.4
-4 0 -13 4.5 4.4
-4 0 -13 0 3.7
4 0 13 0.1 4
-4 0 -13 0 3.5
4 0 13 0.1 3.9
5 0 13 -2.7 6.2
5 0 13 -2.3 3.7
-5 0 -13 -4.3 4
5 0 13 -17.4 17.3
-5 0 -13 3 4
-5 0 -13 0.9 4.5
5 0 13 6.7 4.8
6 0 13 -0.4 5.9
6 0 13 -0.5 16.5
6 0 13 4 4.8
-6 0 -13 1 4.8
-6 0 -13 -0.2 3.7
-6 0 -13 0 4.1
-7 0 -13 -2.9 3.6
7 0 13 -10.1 13.1
7 0 13 -2.2 5.3
7 0 13 1.3 4.6
-7 0 -13 5.5 4.9
-7 0 -13 11.6 5
-8 0 -13 0.9 4.3
-8 0 -13 -0.7 4.4
-8 0 -13 -2 4.5
8 0 13 -3.6 5.3
-9 0 -13 -5 4.5
-9 0 -13 0.4 5
9 0 13 5.7 6.2
-9 0 -13 1.8 4.6
-10 0 -13 4.3 6
-10 0 -13 3.8 6
10 0 13 -3.4 5.6
-10 0 -13 4.1 5.3
11 0 13 -7.7 5
-11 0 -13 1.5 5.3
-11 0 -13 3.7 5.6
-11 0 -13 2.1 4.9
-12 0 -13 1.1 5.9
-12 0 -13 -0.1 5.6
12 0 13 -7 5.2
-12 0 -13 -0.9 5.9
15 -1 -13 11 9.9
15 -1 -13 12.2 6.5
15 -1 -13 7.3 10.5
15 1 -13 9 11.7
15 1 -13 22.7 11.2
15 1 -13 21.1 7.6
14 -1 -13 11.8 8.5
14 -1 -13 10.1 10.1
14 -1 -13 7 5.4
14 1 -13 6.9 9.1
14 1 -13 7.6 5.9
14 1 -13 4.8 10.5
13 -1 -13 -6.7 7.6
13 -1 -13 8.7 8.3
13 -1 -13 6 5.6
13 1 -13 -0.6 8.9
13 1 -13 2.5 8.3
13 1 -13 4.7 5
12 -1 -13 165.38 18.6
12 -1 -13 166.38 17.4
12 -1 -13 161.78 13.9
12 1 -13 137.69 13.8
12 1 -13 122.09 17
12 1 -13 131.29 16
-11 -1 13 25.3 4
11 -1 -13 28 6.7
11 -1 -13 9.6 7.9
11 -1 -13 25.5 8
11 1 -13 22.4 9.5
-11 1 13 22.6 4.5
11 1 -13 16 8.2
11 1 -13 26.8 6.5
10 -1 -13 85.59 12.4
-10 -1 13 79.29 5.8
10 -1 -13 88.59 13.1
10 -1 -13 75.99 9.4
10 1 -13 80.29 13.1
10 1 -13 110.89 13.7
-10 1 13 87.49 6.9
10 1 -13 78.89 9.7
9 -1 -13 69.39 10.8
-9 -1 13 56.69 5.6
-9 -1 13 60.49 5.9
9 -1 -13 45.1 7.6
9 -1 -13 73.89 12.2
9 1 -13 58.59 8
9 1 -13 61.49 11.6
-9 1 13 51.79 6.2
-9 1 13 63.49 6.2
9 1 -13 48.2 9.6
8 -1 -13 -1.1 6
-8 -1 13 -0.5 2.2
8 -1 -13 10.2 4.5
-8 -1 13 -0.9 2.2
8 -1 -13 3.2 5.8
8 1 -13 2.8 3.9
-8 1 13 -0.5 2.2
-8 1 13 0.9 2.5
8 1 -13 -3.5 6.5
8 1 -13 5.2 6.2
-7 -1 13 7 3
-7 -1 13 5.6 2.7
7 -1 -13 4.9 6.5
7 -1 -13 9.4 5.4
7 -1 -13 6.4 4
7 1 -13 8.5 4.4
-7 1 13 5.3 3
7 1 -13 6.5 5.2
-7 1 13 5.2 2.7
7 1 -13 11.3 6.7
6 -1 -13 69.29 9.7
-6 -1 13 64.29 6.1
6 -1 -13 57.49 7.9
6 -1 -13 58.39 9.6
-6 -1 13 64.79 6.4
-6 1 13 65.89 6.4
6 1 -13 60.69 10
-6 1 13 60.19 6.6
6 1 -13 46.6 8
5 -1 -13 20.7 4.9
-5 -1 13 19.6 3.7
5 -1 -13 32 8.3
-5 -1 13 22.6 4.2
-5 1 13 22 4.1
5 1 -13 21.1 7.3
-5 1 13 17.3 3.9
5 1 -13 21.8 5.5
4 -1 -13 50.29 7.1
-4 1 13 51.79 6.2
-4 1 13 50.89 5.7
3 -1 -13 34.6 5.8
3 -1 -13 24.4 4.8
3 -1 -13 38.2 5.8
-3 -1 13 22.4 4.6
-3 -1 13 27.7 4.8
3 1 -13 29.4 4.9
3 1 -13 32.8 4.9
-3 1 13 28.7 4.6
-3 1 13 28.5 4.9
3 1 -13 24.1 7.4
2 -1 -13 343.87 15.3
2 -1 -13 338.27 15.3
-2 -1 13 346.27 14.6
-2 -1 13 350.06 15.1
2 -1 -13 338.17 16.4
-2 1 13 355.96 15.4
2 1 -13 356.36 14.8
2 1 -13 343.47 15.4
-2 1 13 326.87 14.4
-1 -1 13 9.1 3.3
1 -1 -13 9 3.6
1 -1 -13 3.7 3.4
1 -1 -13 17.8 4.7
-1 1 13 21.2 4.4
-1 1 13 11.7 3.5
0 -1 13 2.6 3.2
0 -1 13 2.3 2.9
0 -1 -13 5.2 4
0 -1 -13 2.7 3.7
0 -1 -13 5.4 3.4
0 1 13 -0.4 2.6
0 1 13 1 3.1
0 1 -13 4.2 3.4
0 1 -13 5.9 3.2
0 1 -13 10.6 3.9
1 -1 13 248.78 13.1
-1 -1 -13 257.57 13.7
-1 -1 -13 268.97 15.2
1 -1 13 282.17 14.2
-1 -1 -13 255.87 13.5
-1 1 -13 248.98 14
1 1 13 286.57 13.9
-1 1 -13 256.47 12.9
1 1 13 251.67 12.8
-1 1 -13 251.97 13
-2 -1 -13 55.99 7.8
-2 -1 -13 56.79 8.4
2 -1 13 47.4 7.2
2 -1 13 61.79 7.9
-2 -1 -13 48.8 6.5
-2 1 -13 49.6 6.7
2 1 13 65.19 7.7
-2 1 -13 53.09 7.7
-2 1 -13 70.99 7.8
2 1 13 67.79 7.5
-3 -1 -13 78.09 8.7
3 -1 13 97.59 9.9
-3 -1 -13 84.99 9.4
3 -1 13 92.39 9.8
-3 -1 -13 78.99 9.8
-3 1 -13 94.69 9.5
3 1 13 101.19 9.8
-3 1 -13 81.19 8.3
-3 1 -13 97.49 10.2
3 1 13 64.19 7.8
4 -1 13 93.69 11.4
-4 -1 -13 106.99 10.6
4 -1 13 109.19 10.7
-4 -1 -13 85.49 9
-4 -1 -13 86.29 10.2
4 -1 13 115.59 11.6
4 1 13 99.29 11.2
-4 1 -13 113.69 10.7
-4 1 -13 118.19 11.6
4 1 13 117.29 10.5
4 1 13 96.19 9.7
-4 1 -13 104.59 10.2
-5 -1 -13 103.19 11
5 -1 13 113.39 11.9
-5 -1 -13 112.19 10.7
-5 -1 -13 131.89 13.4
5 -1 13 97.29 12.5
5 -1 13 139.69 12.5
5 1 13 142.89 11.2
5 1 13 94.79 11.2
-5 1 -13 111.79 11.7
-5 1 -13 109.59 10.6
5 1 13 93.59 24.7
-5 1 -13 114.89 11.1
6 -1 13 32.7 7.3
-6 -1 -13 26 6.1
6 -1 13 -5.4 16.6
-6 -1 -13 28.6 6.6
-6 -1 -13 18.4 6.6
6 -1 13 12.1 7.9
-6 1 -13 27.9 6.7
6 1 13 11.2 6.9
6 1 13 22.1 6.1
6 1 13 -2.6 16.8
-6 1 -13 29.7 6.7
-6 1 -13 22.7 7
7 -1 13 418.86 20.9
7 -1 13 410.36 22.6
-7 -1 -13 439.66 20.5
-7 -1 -13 404.46 21.8
-7 -1 -13 387.36 19.6
-7 1 -13 439.96 21.9
7 1 13 409.96 21.7
-7 1 -13 432.16 20
7 1 13 315.87 32.8
-7 1 -13 388.96 19.6
8 -1 13 1.9 5.5
-8 -1 -13 -5.2 4
-8 -1 -13 1.1 5.1
-8 -1 -13 2.9 4.8
-8 1 -13 4.4 5.2
-8 1 -13 1 4.3
8 1 13 -6.4 4.3
-8 1 -13 -3.2 3.6
8 1 13 -11.4 11.1
9 -1 13 -2 5.1
-9 -1 -13 9.7 5.4
-9 -1 -13 14.2 5.4
-9 1 -13 2.2 4.8
-9 1 -13 9.8 5.6
9 1 13 -4.6 4.8
-9 1 -13 3.2 4.9
-10 -1 -13 87.39 11.3
-10 -1 -13 67.19 10
-10 -1 -13 55.99 10.2
10 -1 13 63.59 11.5
-10 1 -13 59.49 10
10 1 13 81.29 12
-10 1 -13 79.69 11.2
-10 1 -13 75.99 10
-11 -1 -13 69.99 10.8
11 -1 13 63.09 11.4
-11 -1 -13 52.79 9.8
-11 -1 -13 50.89 9.9
-11 1 -13 65.09 10.2
-11 1 -13 45.8 9.8
-11 1 -13 61.89 10.7
11 1 13 58.89 11.1
-12 -1 -13 19.7 7.5
-12 -1 -13 17.4 7.5
12 -1 13 5.2 6.9
-12 -1 -13 19.2 7.4
12 1 13 7.3 7.2
-12 1 -13 15.7 7.5
-12 1 -13 12.6 7.1
15 -2 -13 83.69 14.9
15 -2 -13 93.99 12.9
15 2 -13 69.29 17.7
15 2 -13 96.49 17.1
15 2 -13 87.49 12.4
14 -2 -13 0 8.2
14 -2 -13 -5.5 8
14 -2 -13 5.3 5.1
14 2 -13 1.9 4.9
14 2 -13 -7.1 9.3
14 2 -13 -6.1 8.5
13 -2 -13 59.89 10.2
13 -2 -13 84.09 14
13 -2 -13 59.39 12.6
13 2 -13 68.29 14.5
13 2 -13 66.69 14.1
13 2 -13 42.9 8.9
12 -2 -13 72.09 12.5
12 -2 -13 69.19 10.2
12 -2 -13 94.49 14.5
-12 2 13 81.99 8
12 2 -13 81.59 14
12 2 -13 69.79 14.4
12 2 -13 60.29 9.5
11 -2 -13 14.7 5.6
11 -2 -13 18.6 7.8
11 -2 -13 19.9 8.7
-11 2 13 26.8 4.8
11 2 -13 11.9 7.8
11 2 -13 15 9
11 2 -13 20.6 6.6
10 -2 -13 163.58 16
-10 -2 13 140.09 7.7
10 -2 -13 153.48 15.7
10 -2 -13 149.69 12.5
10 2 -13 127.49 15.1
10 2 -13 160.58 18
-10 2 13 146.69 9.6
10 2 -13 165.78 13
9 -2 -13 46.7 9.5
9 -2 -13 22.9 8.2
-9 -2 13 37.2 4.6
9 -2 -13 35.8 6.6
9 2 -13 18.8 8.4
9 2 -13 36.4 10.5
-9 2 13 29.7 5.3
9 2 -13 39.2 7.2
8 -2 -13 8.4 7.1
8 -2 -13 9.2 6.8
8 -2 -13 5.1 4.3
-8 -2 13 4.7 2.8
-8 -2 13 0.8 2.6
8 2 -13 9.3 7.3
-8 2 13 5.2 3.3
8 2 -13 1.8 5.6
8 2 -13 4.9 4.3
-7 -2 13 274.27 12.4
-7 -2 13 285.97 12
7 -2 -13 312.47 18.3
7 -2 -13 271.07 19.1
7 -2 -13 292.97 15.7
-7 2 13 258.07 12.5
7 2 -13 281.37 20.2
-7 2 13 267.07 13.3
7 2 -13 303.87 17.7
6 -2 -13 580.34 23.5
-6 -2 13 569.94 20
-6 -2 13 593.94 20.6
6 -2 -13 583.64 27.3
6 -2 -13 553.04 22.7
6 2 -13 569.94 28.5
-6 2 13 571.24 20.6
6 2 -13 548.55 24.3
-6 2 13 557.54 21.4
5 -2 -13 55.89 7.9
-5 -2 13 59.59 6.5
-5 -2 13 57.59 6.3
5 2 -13 45.8 8.9
-5 2 13 49.6 5.9
-5 2 13 62.89 7.1
5 2 -13 72.79 9
4 -2 -13 149.49 10.6
-4 -2 13 151.28 9.4
4 -2 -13 150.48 11.2
-4 -2 13 150.28 8.9
-4 2 13 142.69 8.9
4 2 -13 160.18 14.3
-4 2 13 142.39 9.4
4 2 -13 139.19 10.8
4 2 -13 146.89 8.8
-3 -2 13 29.6 5.2
-3 -2 13 21.5 4.5
3 -2 -13 18.5 5.4
3 -2 -13 28.9 6.2
3 2 -13 26 5.5
-3 2 13 27.9 4.8
3 2 -13 28.2 4.8
3 2 -13 28.6 4.7
3 2 -13 26.7 7.5
-3 2 13 23.3 4.6
2 -2 -13 22.8 4.7
-2 -2 13 21.6 4.8
2 -2 -13 15 5
-2 -2 13 20.4 4.6
2 -2 -13 28.1 6.3
-2 2 13 24.6 4.7
2 2 -13 22.2 4.6
-2 2 13 29 4.8
2 2 -13 19.1 6.6
2 2 -13 19.1 4
-1 -2 13 366.36 16
-1 -2 13 361.66 16.6
1 -2 -13 354.16 18.1
1 -2 -13 363.16 17.2
1 -2 -13 348.47 16.2
-1 2 13 356.36 16
1 2 -13 371.16 15.4
1 2 -13 373.86 16.4
-1 2 13 345.37 15.3
0 -2 -13 13.7 5.1
0 -2 -13 20 4.5
0 -2 13 29.4 5.7
0 -2 -13 18.7 5.2
0 -2 13 18.3 4.9
0 2 13 23.7 4.6
0 2 -13 22.9 4.8
0 2 13 19.2 4.7
0 2 -13 20.9 4.9
0 2 -13 22.3 4.7
1 -2 13 99.59 9.9
-1 -2 -13 76.49 8.3
-1 -2 -13 81.49 8.8
-1 -2 -13 69.39 9.7
1 -2 13 65.09 8.2
-1 2 -13 83.49 8.4
-1 2 -13 91.79 8.4
-1 2 -13 79.09 8.9
1 2 13 59.69 6.8
1 2 13 77.39 8.3
-2 -2 -13 675.13 25.4
-2 -2 -13 703.03 28.7
-2 -2 -13 685.13 26.5
2 -2 13 658.93 25.7
2 -2 13 700.63 26.8
2 2 13 701.53 25.6
-2 2 -13 680.53 24.8
-2 2 -13 649.64 26.1
-2 2 -13 659.73 24.6
2 2 13 646.04 24.5
3 -2 13 10 5
-3 -2 -13 10 5.1
-3 -2 -13 5.7 4.2
-3 -2 -13 14.5 6
3 -2 13 10.9 5.1
3 2 13 16.5 4.6
-3 2 -13 8.8 4.5
-3 2 -13 9 4.4
-3 2 -13 16 4.7
3 2 13 17.6 4.8
4 -2 13 191.38 16.3
-4 -2 -13 175.98 14.2
-4 -2 -13 172.78 12.6
-4 -2 -13 165.68 11.4
4 -2 13 183.48 13.1
4 -2 13 168.68 13
4 2 13 180.48 14.8
-4 2 -13 170.98 12.7
-4 2 -13 156.48 11.2
4 2 13 172.78 11.5
4 2 13 211.68 33.1
4 2 13 184.58 11.8
-4 2 -13 165.68 11.5
-5 -2 -13 357.26 20.5
5 -2 13 415.16 22.9
5 -2 13 389.26 19.4
5 -2 13 400.96 20.2
-5 -2 -13 355.56 18.9
-5 -2 -13 369.36 18.4
5 2 13 391.16 39.6
-5 2 -13 377.26 18.4
-5 2 -13 413.96 20.4
5 2 13 402.96 21
-5 2 -13 400.06 18.7
5 2 13 364.66 17.8
6 -2 13 22.2 7
-6 -2 -13 21.5 5.8
6 -2 13 10 6.2
-6 -2 -13 14.2 6.1
-6 -2 -13 20.8 7
6 -2 13 11.9 6.1
6 2 13 18.8 8.3
-6 2 -13 9.8 5
-6 2 -13 20.2 5.8
6 2 13 20.1 6.8
6 2 13 55.09 21
-6 2 -13 18.4 6
-7 -2 -13 225.78 17.4
-7 -2 -13 281.27 15.9
7 -2 13 266.07 17.5
7 -2 13 271.37 18.2
-7 -2 -13 251.97 16.2
-7 2 -13 253.17 15.6
-7 2 -13 288.57 17.4
7 2 13 267.27 17.4
-7 2 -13 259.77 15.8
7 2 13 233.78 29.1
8 -2 13 125.69 14.9
-8 -2 -13 104.69 11.8
-8 -2 -13 97.39 10.9
-8 -2 -13 104.79 13.2
8 2 13 114.19 12.1
-8 2 -13 93.89 10.9
-8 2 -13 110.79 12.9
8 2 13 81.29 20.1
-9 -2 -13 -2.5 4.1
-9 -2 -13 2.2 4.7
9 -2 13 0.9 6
-9 -2 -13 3.3 6
9 2 13 -2.7 5.2
9 2 13 1.7 12.5
-9 2 -13 -2.3 4.9
-9 2 -13 -8 4
-10 -2 -13 127.19 13.5
-10 -2 -13 132.49 13.8
-10 -2 -13 126.89 14.8
10 -2 13 107.79 14.4
10 2 13 125.69 22.6
-10 2 -13 107.19 13.6
10 2 13 126.79 14.1
-10 2 -13 160.88 15.6
-11 -2 -13 36.3 8.5
-11 -2 -13 27.4 7.9
11 -2 13 26.1 8.7
-11 -2 -13 11.1 7
11 2 13 19.9 7.7
-11 2 -13 25.5 7.9
-11 2 -13 22.9 7.3
12 -2 13 3.9 6.7
-12 -2 -13 7.6 6.4
-12 -2 -13 3.4 6.2
-12 -2 -13 -1.7 5.9
12 2 13 1.8 6.7
-12 2 -13 5.9 5.5
-12 2 -13 3.8 5.9
15 -3 -13 -4.4 8.7
15 3 -13 14.4 13.6
15 3 -13 5.6 10.5
14 -3 -13 70.39 13.7
14 -3 -13 47.1 9.5
14 3 -13 31.6 12.2
14 3 -13 46.4 9.1
14 3 -13 33.2 13.8
13 -3 -13 17.4 8.8
13 -3 -13 40.5 9
13 3 -13 31.4 8.1
13 3 -13 28.2 11
13 3 -13 15.6 11.3
-13 3 13 30.2 6
12 -3 -13 68.29 10.8
12 -3 -13 100.59 14.4
12 3 -13 68.39 14.9
12 3 -13 65.39 10.3
-12 3 13 82.49 9
12 3 -13 73.79 13.9
11 -3 -13 -1.5 4.1
11 -3 -13 -0.7 6.7
11 -3 -13 -2.8 5.7
-11 3 13 -2.7 2.6
11 3 -13 -0.8 8.5
11 3 -13 -9 7
11 3 -13 10.1 5
-10 -3 13 31 5.2
10 -3 -13 28.2 8.5
10 -3 -13 28.1 8.6
10 -3 -13 26.8 6.9
10 3 -13 34.7 9.4
10 3 -13 35.3 10.9
10 3 -13 24.8 6.4
-10 3 13 24.6 5.3
9 -3 -13 80.69 11.8
9 -3 -13 74.79 11.6
9 -3 -13 70.19 9.1
-9 -3 13 89.69 6.6
9 3 -13 84.69 11.9
-9 3 13 92.19 9
9 3 -13 82.09 10.2
9 3 -13 89.89 14.4
-8 -3 13 392.86 15.8
8 -3 -13 403.56 19.6
8 -3 -13 394.76 21.9
-8 -3 13 393.46 15.2
8 -3 -13 379.36 22.3
8 3 -13 414.96 25.3
-8 3 13 403.96 17.6
8 3 -13 388.26 21.5
-7 -3 13 1.9 3.1
7 -3 -13 6.5 6.4
-7 -3 13 -0.1 3.1
7 -3 -13 3.8 4.3
7 3 -13 -3.7 5.3
-7 3 13 2 3.4
7 3 -13 8.6 7.3
6 -3 -13 143.69 14.8
6 -3 -13 165.98 11.8
-6 -3 13 162.78 9.8
6 -3 -13 140.99 12.1
-6 -3 13 158.88 9.4
6 3 -13 155.58 13.1
-6 3 13 154.48 9.8
-6 3 13 163.58 10.7
6 3 -13 147.49 15.9
-5 -3 13 173.08 10.3
5 -3 -13 150.98 12.1
-5 -3 13 138.59 9
-5 3 13 151.78 10.2
5 3 -13 173.88 15.8
-5 3 13 137.79 9.3
5 3 -13 164.18 12.2
-4 -3 13 173.48 10.4
4 -3 -13 208.78 13.8
-4 -3 13 179.58 11
4 -3 -13 198.48 12.8
-4 3 13 177.28 11.1
-4 3 13 166.78 10.2
4 3 -13 217.28 16.3
4 3 -13 169.38 11.8
4 3 -13 185.58 9.6
-3 -3 13 -0.8 3
3 -3 -13 4.2 4.3
3 -3 -13 6.9 4.4
-3 -3 13 1.7 3.4
3 3 -13 7.3 6.1
3 3 -13 -4.3 2.3
3 3 -13 5.1 4
3 3 -13 0.1 3
-3 3 13 -5.4 2.2
-3 3 13 -4.8 2.2
-2 -3 13 249.88 13
2 -3 -13 231.48 15.3
-2 -3 13 226.88 13.3
2 -3 -13 237.08 14.2
-2 3 13 245.48 13.1
2 3 -13 259.37 12.6
2 3 -13 229.08 12.1
2 3 -13 237.98 11.4
-2 3 13 255.97 12.5
2 3 -13 240.68 16.4
1 -3 -13 113.29 9.1
-1 -3 13 96.29 9.7
1 -3 -13 98.49 10.8
-1 -3 13 99.59 9.6
1 -3 -13 91.29 11
1 3 -13 107.69 9.7
1 3 -13 106.59 8.6
-1 3 13 122.39 8.7
1 3 -13 114.09 7.7
1 3 -13 80.19 10.4
-1 3 13 110.59 9
0 -3 -13 20.9 5.1
0 -3 -13 26.1 6.4
0 -3 -13 19.2 6.6
0 3 13 14.9 4.2
0 3 -13 21.2 4.4
0 3 13 9.1 4
1 -3 13 24.2 6.1
-1 -3 -13 26.6 5.5
-1 -3 -13 33.4 7.8
1 -3 13 29 6.7
-1 -3 -13 25.6 6.7
-1 3 -13 35.2 5.4
1 3 13 30.9 5.6
1 3 13 35.1 6
-1 3 -13 36.2 6.5
-2 -3 -13 21.5 5.4
2 -3 13 25.7 6.6
-2 -3 -13 14.2 5.8
2 -3 13 7.1 4.8
-2 -3 -13 29.5 7.7
-2 3 -13 22.5 4.9
2 3 13 16.2 4.7
2 3 13 25.3 23.5
2 3 13 24.9 5.2
-2 3 -13 22.6 6.1
-3 -3 -13 119.19 13.4
3 -3 13 140.79 13.6
-3 -3 -13 138.89 13.1
3 -3 13 160.28 15.4
-3 -3 -13 152.08 11.1
3 -3 13 141.49 12.8
3 3 13 139.29 10.5
-3 3 -13 162.38 12.1
3 3 13 144.39 10.7
3 3 13 205.98 34
3 3 13 166.28 13.5
-3 3 -13 141.69 10.2
-4 -3 -13 105.49 10.5
-4 -3 -13 88.59 11.1
4 -3 13 90.89 10.8
4 -3 13 112.39 12.5
4 -3 13 92.19 12
-4 -3 -13 102.49 12.3
-4 3 -13 92.69 10.1
4 3 13 71.99 8.5
4 3 13 82.29 10.1
-4 3 -13 90.69 10.7
4 3 13 112.19 26.6
5 -3 13 8.5 8
-5 -3 -13 4.6 4.2
5 -3 13 3.8 5.4
-5 -3 -13 5.6 5.6
5 -3 13 5.1 5.1
-5 -3 -13 6 6.1
-5 3 -13 1.8 4.1
5 3 13 -10 17
-5 3 -13 -1.9 3.7
5 3 13 -2 3.4
5 3 13 9.5 5.9
6 -3 13 188.88 15
6 -3 13 206.18 17.1
6 -3 13 201.08 15.3
-6 -3 -13 198.58 14.3
-6 -3 -13 183.68 15.4
-6 -3 -13 194.08 13
-6 3 -13 195.88 14.5
6 3 13 156.68 27
-6 3 -13 179.28 12.9
6 3 13 212.48 14.3
7 -3 13 31.3 8.3
-7 -3 -13 44.2 8.7
7 -3 13 60.79 10.7
-7 -3 -13 44.9 7.9
-7 -3 -13 32.1 8.5
7 3 13 33.9 7.7
7 3 13 26.2 17.4
-7 3 -13 43.6 8.7
-7 3 -13 39.8 7.4
8 -3 13 3.5 6.4
-8 -3 -13 0.8 4.8
-8 -3 -13 6.4 5.8
8 -3 13 -6.8 5.2
-8 -3 -13 15.5 6.7
-8 3 -13 0.9 4.8
8 3 13 1.3 5.2
8 3 13 13.2 14.4
-8 3 -13 0.8 4.5
9 -3 13 57.29 10.9
-9 -3 -13 59.29 9.9
-9 -3 -13 64.99 10.9
-9 -3 -13 74.79 11.5
-9 3 -13 62.89 10.1
9 3 13 63.89 18.7
-9 3 -13 45.7 9.9
10 -3 13 8.1 7.5
-10 -3 -13 -2.7 4.8
-10 -3 -13 3.3 6
-10 -3 -13 5.5 6.5
-10 3 -13 -6.5 3.9
-10 3 -13 -8.4 4.2
10 3 13 8.6 13.9
-11 -3 -13 20.6 7.6
11 -3 13 24.5 9
-11 -3 -13 24.8 7.6
-11 -3 -13 29 8.8
11 3 13 27.6 15.7
-11 3 -13 14.1 7.7
-11 3 -13 43.5 9.6
14 -4 -13 9.7 8.4
14 -4 -13 7.6 6.7
-14 4 13 6.8 4.4
14 4 -13 1.3 5
14 4 -13 5.3 10.8
14 4 -13 11.4 13.4
13 -4 -13 18.3 7.1
13 -4 -13 32.8 10.6
13 4 -13 38.6 8.6
13 4 -13 25 13.7
-13 4 13 25.2 6.1
13 4 -13 5 10.7
12 -4 -13 -5.5 4.6
12 -4 -13 4.8 7.5
-12 4 13 4 4.2
12 4 -13 -3.8 8
12 4 -13 -0.8 9.8
12 4 -13 0.7 4.8
11 -4 -13 -5.3 6.3
11 -4 -13 -0.9 4.8
11 4 -13 2.8 9.4
11 4 -13 -0.3 4.6
11 4 -13 -10.4 7.8
-11 4 13 -1.4 3.1
10 -4 -13 -0.6 4.3
10 -4 -13 -3.2 5.8
10 4 -13 8.3 9.1
-10 4 13 1.3 3.4
10 4 -13 -0.6 6.8
9 -4 -13 2.6 6.1
9 -4 -13 4.7 4.6
-9 -4 13 -4.1 2.8
9 4 -13 1.8 6.7
-9 4 13 -3.4 2.6
9 4 -13 -6.1 7.3
8 -4 -13 55.69 10.2
-8 -4 13 40 5.8
8 -4 -13 48.8 7.5
8 -4 -13 37.4 8.9
8 4 -13 42.5 10.1
-8 4 13 42.8 6.8
8 4 -13 38.8 10.9
-7 -4 13 29.6 5.5
-7 -4 13 23.7 5.1
7 -4 -13 18.4 7.5
7 -4 -13 22.2 5.5
-7 4 13 18.2 5
7 4 -13 27.9 7.8
7 4 -13 27.5 9.9
6 -4 -13 3.1 6.5
6 -4 -13 -0.3 3.8
-6 -4 13 2.1 3.8
6 -4 -13 2.4 5.1
-6 -4 13 8.4 4.1
-6 4 13 5.2 3.3
6 4 -13 -3 5
6 4 -13 -1.6 6.3
-6 4 13 3.9 3.6
5 -4 -13 10.7 6.4
-5 -4 13 14.3 5
-5 -4 13 17.1 5.3
-5 4 13 14.5 4.8
5 4 -13 9.3 5.7
5 4 -13 6.3 6.7
-5 4 13 12.5 4.4
-4 -4 13 161.28 11.3
-4 -4 13 171.68 12.1
4 -4 -13 256.57 16.3
-4 4 13 199.88 12.4
4 4 -13 194.98 16.3
-4 4 13 207.18 12
3 -4 -13 63.29 10.1
-3 -4 13 62.79 8.1
3 -4 -13 57.09 8.9
-3 -4 13 61.99 8.3
-3 4 13 61.89 8.3
-3 4 13 51.99 6.8
3 4 -13 69.69 10.9
-2 -4 13 25.5 6.3
2 -4 -13 42.9 8.6
-2 -4 13 29.3 6.8
2 -4 -13 40.9 8.6
2 4 -13 29 7.8
2 4 -13 43.4 5.8
-2 4 13 39.4 6.6
2 4 -13 40.3 6
-2 4 13 47.5 6.8
1 -4 -13 87.39 10.5
-1 -4 13 72.89 9.2
-1 -4 13 92.89 10.5
1 4 -13 75.29 7.3
-1 4 13 139.79 10.2
1 4 -13 82.39 10.9
1 4 -13 90.59 9.3
0 -4 -13 19.8 5.6
0 -4 13 17.7 6
0 -4 -13 14.4 7.1
0 -4 -13 11.9 6
0 -4 13 13.2 5.7
0 4 13 17.5 5.1
0 4 13 15.7 4.9
0 4 -13 19.3 7.1
0 4 -13 13.6 4.1
0 4 -13 21.9 5.7
-1 -4 -13 33.4 8.7
-1 -4 -13 30 6.3
-1 -4 -13 30.7 8
1 -4 13 45.8 8.9
1 -4 13 27.5 6.9
1 4 13 41.7 7
-1 4 -13 25.1 5.2
1 4 13 39.9 23.1
-1 4 -13 43.9 7.3
-1 4 -13 36 7.8
1 4 13 37.6 6.3
2 -4 13 11.5 6.4
2 -4 13 13.1 6
-2 -4 -13 23.9 7.6
-2 -4 -13 11.5 5.2
-2 -4 -13 25.3 7.8
-2 4 -13 23.6 5.3
2 4 13 17.3 5.2
2 4 13 25.5 5.6
-2 4 -13 25.1 6.3
2 4 13 48.7 23.1
3 -4 13 -3.8 6.3
-3 -4 -13 10.7 6.2
3 -4 13 4.8 5.5
-3 -4 -13 15.1 4.8
-3 -4 -13 6.7 5.7
3 -4 13 1.2 4.9
3 4 13 -2.8 20.8
3 4 13 -1.6 3.7
-3 4 -13 -0.4 3.3
-3 4 -13 0.8 4.1
-4 -4 -13 -1.4 3.7
-4 -4 -13 4.9 5.8
-4 -4 -13 1.4 5.3
4 -4 13 0.7 6.9
4 -4 13 -3 5
4 -4 13 -3 4.8
-4 4 -13 -7.7 3.1
4 4 13 8.5 19
-4 4 -13 2.9 4.5
4 4 13 1.3 3.8
-5 -4 -13 4.6 4.4
5 -4 13 16.3 7.2
5 -4 13 11.7 7.9
5 -4 13 11.3 6.7
-5 -4 -13 18.6 7.1
-5 -4 -13 12.7 6.7
5 4 13 26 18.5
-5 4 -13 26.3 6.7
-5 4 -13 10.8 5
-6 -4 -13 1.2 5.6
6 -4 13 -1 6.3
6 -4 13 -1.2 5.7
6 -4 13 -1.2 6.4
-6 -4 -13 3.1 4.3
-6 -4 -13 -0.4 5.7
6 4 13 19.1 17
-6 4 -13 7 4.9
-6 4 -13 2.4 4.9
-7 -4 -13 -3.4 5.6
7 -4 13 11.6 7
7 -4 13 2.6 6.8
-7 -4 -13 8.5 5
-7 -4 -13 2.4 5.7
7 4 13 -1 14.6
-7 4 -13 3.5 3.9
-7 4 -13 -3.1 4.3
-8 -4 -13 2.4 5
8 -4 13 -7.9 5.6
-8 -4 -13 -4.6 5.4
-8 -4 -13 2.8 6.4
8 -4 13 7.9 7.5
-8 4 -13 -3.4 4.7
8 4 13 25.2 15.8
-8 4 -13 -2.5 3.7
-9 -4 -13 21.6 8
-9 -4 -13 20.9 6.6
9 -4 13 17.4 9.2
-9 -4 -13 23.4 8.3
-9 4 -13 21.5 7.8
9 4 13 33.8 17.4
-9 4 -13 19.5 6.6
10 -4 13 0.1 7.2
-10 -4 -13 13.3 6.3
-10 -4 -13 10.5 6.8
-10 -4 -13 9.7 7.2
10 4 13 25.4 15.8
-10 4 -13 3 5.1
-10 4 -13 3.2 5.5
-11 -4 -13 3.4 6.7
-11 -4 -13 11.6 6.9
-11 -4 -13 3.8 6.2
11 -4 13 12.3 9.1
11 4 13 21.4 15.1
-11 4 -13 15.2 7.3
-11 4 -13 14.5 6.4
13 -5 -13 13.2 6.8
13 -5 -13 19.1 8.5
13 5 -13 6.7 10.1
-13 5 13 16.8 5.7
13 5 -13 19.2 13.7
12 -5 -13 20.6 9
12 -5 -13 20.5 7.2
-12 5 13 25.5 6.3
12 5 -13 41.3 14.6
12 5 -13 16.3 11
11 -5 -13 28.8 9.9
11 -5 -13 18.5 6.9
11 5 -13 29 11.2
-11 5 13 12.8 5.3
11 5 -13 38.5 13.7
10 -5 -13 7.1 7.6
10 -5 -13 -0.3 4.7
10 5 -13 11.2 10.1
-10 5 13 -0.9 3.6
10 5 -13 -7.4 8.5
9 -5 -13 91.79 10.3
9 -5 -13 89.39 12.2
-9 -5 13 97.29 9.3
9 5 -13 102.99 14.5
-9 5 13 99.49 11
9 5 -13 76.79 14.9
8 -5 -13 3 4.2
-8 -5 13 4.1 4.2
8 -5 -13 4.1 6.4
8 5 -13 4.1 6.8
8 5 -13 3.7 8
-8 5 13 11 4.7
-7 -5 13 -1.6 3.8
-7 -5 13 -0.9 3.6
7 -5 -13 1.4 5.3
7 -5 -13 2.8 3.8
7 5 -13 -6.2 6.4
-7 5 13 3.1 3.6
-6 -5 13 1.5 3.9
6 -5 -13 1.9 5.4
6 -5 -13 4.2 3.8
-6 -5 13 1.6 4.1
6 5 -13 1.3 6.2
-6 5 13 3.5 4
-6 5 13 4.8 3.8
-5 -5 13 49.5 7.8
5 -5 -13 61.09 10.3
-5 -5 13 63.69 8.6
-5 5 13 72.09 9.2
5 5 -13 58.49 11
-5 5 13 64.89 8.2
-4 -5 13 130.19 12.3
4 -5 -13 109.19 13.5
4 -5 -13 127.79 13.5
-4 -5 13 119.79 11.3
-4 5 13 135.19 10.8
4 5 -13 146.09 15
-4 5 13 132.89 9.8
-3 -5 13 10.6 5.1
3 -5 -13 -7.9 4.7
-3 -5 13 8.1 4.8
3 -5 -13 3.5 5.1
3 5 -13 6.1 6.1
-3 5 13 -0.6 3.6
-3 5 13 4.3 3.7
-2 -5 13 94.29 10.6
-2 -5 13 100.69 11
2 -5 -13 91.39 11.4
2 -5 -13 153.08 15.7
-2 5 13 89.09 9.2
2 5 -13 86.89 11.6
-2 5 13 85.79 10
-2 5 13 110.79 29
1 -5 -13 32.8 9.4
-1 -5 13 40.3 8
-1 -5 13 31 7.6
1 -5 -13 40 8.8
-1 5 13 29 22.9
1 5 -13 54.29 9.2
1 5 -13 21.1 6.9
-1 5 13 42.3 6.9
-1 5 13 44.6 7.2
0 -5 -13 8.2 6.2
0 -5 13 24.8 7.6
0 -5 -13 13.2 6.9
0 -5 13 18.8 6.4
0 5 13 16.7 5
0 5 13 25.7 6
0 5 -13 21.3 5.7
0 5 13 34.1 23.4
1 -5 13 68.59 10.5
-1 -5 -13 78.69 12.3
-1 -5 -13 56.99 9.9
-1 -5 -13 68.99 8.3
1 -5 13 63.39 9.9
1 5 13 62.69 8.4
1 5 13 101.39 10.4
1 5 13 99.69 28.7
-1 5 -13 75.79 9.5
2 -5 13 63.29 10.6
2 -5 13 53.09 9.7
-2 -5 -13 52.49 7.9
-2 -5 -13 57.29 10.1
-2 -5 -13 49.9 10.2
2 -5 13 48.2 10
-2 5 -13 48.4 8
2 5 13 43.7 7.4
2 5 13 49.1 22.8
-2 5 -13 68.29 7.8
-3 -5 -13 21.2 7
3 -5 13 7.6 6.9
3 -5 13 21.8 7.5
-3 -5 -13 10.5 5
3 -5 13 25.7 7.9
-3 -5 -13 13.1 6.6
3 5 13 20.7 18.5
3 5 13 7 4.5
-3 5 -13 9.3 5.4
-3 5 -13 14.5 4.6
-4 -5 -13 35.6 8.5
4 -5 13 58.49 10.7
4 -5 13 65.49 11.3
-4 -5 -13 28.5 8.2
-4 -5 -13 30.3 6.6
4 5 13 33 19.6
-4 5 -13 40.2 6.8
-5 -5 -13 4.8 4.1
5 -5 13 -8.2 6.4
-5 -5 -13 -1.3 6.4
5 -5 13 4.4 6.2
5 -5 13 7.7 6.4
-5 -5 -13 -0.5 6.1
-5 5 -13 -2.3 3.7
5 5 13 13.6 17.6
-5 5 -13 5.1 4.8
6 -5 13 11.4 7.5
6 -5 13 -3.1 6.9
-6 -5 -13 2.9 4.7
-6 -5 -13 -7.4 5.2
6 -5 13 6.3 7.1
-6 -5 -13 1 6.2
-6 5 -13 6.9 4.5
-6 5 -13 -3.9 4.4
6 5 13 21.3 17.5
-7 -5 -13 15 7.8
7 -5 13 11 9
-7 -5 -13 29.8 7.5
-7 -5 -13 23.4 9
7 -5 13 13.5 8.3
7 5 13 30.8 18.4
-7 5 -13 33.6 7.5
-7 5 -13 19.9 7.6
8 -5 13 12.1 8
8 -5 13 21.8 8.9
-8 -5 -13 18.8 10.6
-8 -5 -13 11.4 7.9
-8 -5 -13 17.9 8.4
8 5 13 17.7 17
-8 5 -13 18.2 6.4
-8 5 -13 25.4 8.3
-9 -5 -13 42.1 10.4
-9 -5 -13 39.9 9.9
9 -5 13 50.59 11.4
9 5 13 41.8 18
-9 5 -13 61.59 11.7
-9 5 -13 44.8 9.1
-10 -5 -13 -2.1 6.4
-10 -5 -13 -3.3 6.1
10 -5 13 -2.4 7.9
-10 5 -13 0.1 5.1
10 5 13 17.8 17.4
-10 5 -13 1.8 5.2
12 -6 -13 87.59 14.2
12 6 -13 82.09 19.5
-12 6 13 89.19 11.5
11 -6 -13 10.4 8.3
-11 6 13 2.5 4.2
11 6 -13 6.4 12.1
10 -6 -13 11 7.6
10 6 -13 26.3 12.4
-10 6 13 21.9 6.3
9 -6 -13 77.59 12.7
-9 -6 13 67.49 9.2
9 6 -13 59.09 14.4
-9 6 13 68.19 10.1
-8 -6 13 7 5.2
8 -6 -13 24.2 8.6
8 6 -13 1.1 8.9
-8 6 13 11.8 5.4
7 -6 -13 133.79 15.9
-7 -6 13 129.39 12.5
-7 -6 13 142.79 12.9
-7 6 13 114.29 12.2
7 6 -13 130.79 17.4
-6 -6 13 95.99 10.5
-6 -6 13 92.29 10.9
6 -6 -13 73.89 12.3
-6 6 13 92.39 10.2
-6 6 13 98.89 11.1
6 6 -13 83.99 14.2
-5 -6 13 71.89 10.2
5 -6 -13 80.69 12.8
-5 -6 13 63.49 9.9
-5 6 13 84.49 10.7
-5 6 13 42.5 24.6
-5 6 13 41.6 7.2
5 6 -13 70.29 12.7
-4 -6 13 70.19 10
4 -6 -13 69.79 11.8
4 -6 -13 50.79 10.7
-4 -6 13 37.3 8.2
-4 6 13 50.09 25.3
-4 6 13 48.3 8.1
4 6 -13 82.29 12.5
-4 6 13 47.8 7.2
-3 -6 13 38.8 8.1
-3 -6 13 28.6 7.5
3 -6 -13 24.6 9.7
3 -6 -13 32.1 8.5
-3 6 13 46.7 24.5
-3 6 13 28.3 6.2
-3 6 13 30.8 7.1
2 -6 -13 171.58 16
-2 -6 13 118.39 13.3
2 -6 -13 172.68 18
-2 -6 13 119.89 13.3
-2 6 13 177.08 32
-2 6 13 152.58 12.3
-2 6 13 146.99 11
-1 -6 13 500.85 24
-1 -6 13 463.35 23.9
1 -6 -13 466.25 24.6
1 -6 -13 467.15 26.6
-1 6 13 459.65 20.7
-1 6 13 492.05 22.4
-1 6 13 428.06 43.8
0 -6 -13 77.09 11.7
0 -6 13 66.89 10.7
0 -6 -13 84.89 14
0 -6 13 64.39 10.4
0 6 13 69.69 8.8
0 6 13 67.39 23.2
0 6 13 85.29 10.4
-1 -6 -13 156.08 16
1 -6 13 129.49 14.5
1 -6 13 119.39 13.8
-1 -6 -13 134.29 16.1
1 -6 13 141.29 14.8
1 6 13 133.19 28.2
-1 6 -13 134.49 12.8
1 6 13 138.39 11.7
2 -6 13 111.49 14.1
-2 -6 -13 128.29 15.8
-2 -6 -13 114.19 13.9
2 -6 13 116.99 13.8
2 -6 13 122.99 15.1
-2 6 -13 130.69 13.3
2 6 13 158.38 29.4
2 6 13 134.39 12.9
-3 -6 -13 30.8 9.7
-3 -6 -13 49 8
-3 -6 -13 40.3 9.2
3 -6 13 30.4 9.4
3 -6 13 35.4 9.4
3 -6 13 15.8 7.9
-3 6 -13 56.79 9.2
3 6 13 60.89 21.9
4 -6 13 78.69 12.8
-4 -6 -13 77.09 12.4
-4 -6 -13 65.69 12.1
4 -6 13 84.89 12.7
4 -6 13 73.79 12.2
-4 -6 -13 70.79 9.2
4 6 13 67.79 21.8
-4 6 -13 80.79 11.6
-5 -6 -13 93.49 13
5 -6 13 103.69 14.5
5 -6 13 115.39 14.8
5 -6 13 153.18 17.9
-5 -6 -13 112.79 15.3
-5 6 -13 84.89 10.2
5 6 13 106.19 25.6
-5 6 -13 169.08 17.1
6 -6 13 21.2 9.3
6 -6 13 11 8.7
-6 -6 -13 12.1 7.4
-6 -6 -13 14.5 7.9
6 -6 13 17.1 8.8
-6 6 -13 21.2 6.4
-6 6 -13 5.7 6.6
6 6 13 12.8 17.1
-7 -6 -13 15.6 8.1
7 -6 13 2 8
-7 -6 -13 27.9 8.8
7 -6 13 24.1 9.9
-7 6 -13 14.6 5.9
-7 6 -13 16.5 7.8
7 6 13 31.6 18.8
-8 -6 -13 -5.1 7.4
8 -6 13 4.9 8
-8 -6 -13 -3.2 7.7
8 -6 13 1.4 7.8
-8 6 -13 8.2 5.5
8 6 13 17.5 17.1
-8 6 -13 0.8 6.4
-10 7 13 -0.5 4.5
10 7 -13 -5.8 11.3
-9 -7 13 1.4 6.3
9 -7 -13 5.8 7.5
9 7 -13 1.5 10.8
-9 7 13 2.3 4.6
-8 -7 13 1.8 5.9
8 -7 -13 7.4 7.6
8 7 -13 -12.4 8.7
-8 7 13 0.1 4.1
-7 -7 13 5.4 6.5
7 -7 -13 18.3 8.5
-7 -7 13 11.4 6.9
-7 7 13 13.4 5.9
7 7 -13 11 9.8
6 -7 -13 44.9 11.5
-6 -7 13 31.5 8.2
-6 -7 13 26.1 8.3
-6 7 13 37.6 7.3
-6 7 13 45.9 8.9
-5 -7 13 5.3 5.8
5 -7 -13 -8.8 6.5
-5 -7 13 4.6 7.1
-5 7 13 -26.5 17.7
-5 7 13 4.7 4.7
-5 7 13 2.4 4.5
-4 -7 13 13.5 7.2
4 -7 -13 16.3 9.6
-4 -7 13 9.1 6.9
4 -7 -13 10.7 7.2
-4 7 13 9.3 5.5
-4 7 13 8.7 5
-4 7 13 1 19.8
-3 -7 13 45.7 9.6
3 -7 -13 49.4 11
-3 -7 13 58.39 10.6
3 -7 -13 55.59 12.8
-3 7 13 37.8 22.4
-3 7 13 30.4 7.3
-3 7 13 45.5 8.7
2 -7 -13 26.4 10.6
-2 -7 13 26.6 8.8
-2 -7 13 28.9 8.2
2 -7 -13 5.6 7.3
-2 7 13 20.6 20.7
-2 7 13 14.8 6.2
-2 7 13 33.8 7.4
1 -7 -13 3.4 7.1
1 -7 -13 18.2 9.4
-1 -7 13 14.2 8.2
-1 -7 13 13.7 7.4
-1 7 13 36.2 21
-1 7 13 13.2 6.1
0 -7 13 64.49 11.3
0 -7 -13 31.2 10.7
0 -7 13 52.19 10.9
0 -7 -13 37.6 10.2
0 7 13 63.89 23.3
0 7 13 46 8.5
1 -7 13 97.19 13.7
-1 -7 -13 85.19 14.5
-1 -7 -13 102.69 14.5
1 -7 13 92.09 13.8
1 7 13 98.79 11.8
1 7 13 107.09 25.7
-2 -7 -13 -4 7.6
2 -7 13 1.8 6.7
2 -7 13 -6.8 6.1
-2 -7 -13 -5.3 8.5
2 7 13 9 17.4
-2 7 -13 -0.9 5.1
3 -7 13 7.8 7.7
3 -7 13 -0.4 8.2
3 -7 13 1.3 7.5
-3 -7 -13 10.6 8.7
-3 -7 -13 8.9 7.3
-3 7 -13 1.5 5.5
3 7 13 24.1 17.9
4 -7 13 28.3 9.5
4 -7 13 59.69 13
4 -7 13 58.19 12.2
-4 -7 -13 76.09 12.6
-4 -7 -13 34.1 10.4
-4 7 -13 71.99 12
4 7 13 71.29 23.5
-5 -7 -13 17.1 8.8
-5 -7 -13 28.8 9.3
5 -7 13 25.4 10.9
5 -7 13 18.6 8.9
5 -7 13 16.5 9.2
5 7 13 27.5 18.8
-5 7 -13 24.9 8.6
-6 -7 -13 4.8 7.5
6 -7 13 25.2 10.4
-6 -7 -13 16.6 8.7
6 -7 13 0.9 7.5
6 -7 13 5.8 8.1
-6 7 -13 5.8 7.4
6 7 13 20.7 17
7 -7 13 40.3 11.7
-7 -7 -13 28.9 9.9
7 -7 13 17.8 9.8
-7 -7 -13 37.6 10.5
7 7 13 27.7 19
-7 7 -13 43.5 11.3
7 -8 -13 -3.6 9.3
-7 -8 13 10.4 7.2
-7 8 13 0.5 5.4
6 -8 -13 2.8 8.4
-6 -8 13 2.1 6.6
-6 -8 13 5 7.2
-6 8 13 6 4.7
-6 8 13 8.4 6
-5 -8 13 14.4 7.9
-5 -8 13 2.7 7.3
5 -8 -13 11.9 10
-5 8 13 16.6 6.9
-5 8 13 4.3 4.9
-4 -8 13 15.7 8.3
4 -8 -13 13.8 10
4 -8 -13 7.6 8.8
-4 -8 13 4.6 6.5
-4 8 13 15.2 6
-4 8 13 1.7 5.5
3 -8 -13 13.3 8.5
3 -8 -13 0.6 8.8
-3 -8 13 -3 6.7
-3 -8 13 14.2 7.7
-3 8 13 24.9 17.7
-3 8 13 -5.4 3.8
-3 8 13 4 5.1
2 -8 -13 23.9 10
-2 -8 13 -1 6.4
-2 -8 13 6.1 8.3
2 -8 -13 11.7 10.6
-2 8 13 5.1 5.8
-2 8 13 19 17.8
1 -8 -13 8.8 9.6
1 -8 -13 10.1 8.5
-1 -8 13 17.6 9.1
-1 -8 13 4.6 7.4
-1 8 13 19 17.1
-1 8 13 17.6 6.5
0 -8 -13 8.9 9.2
0 -8 13 4.4 8
0 -8 13 -4.2 6.6
0 -8 -13 1.2 7.5
0 8 13 7.8 5.6
0 8 13 19.2 17.6
1 -8 13 38.6 10
-1 -8 -13 50.49 11.8
-1 -8 -13 40.6 11.8
1 -8 13 22.7 10
1 8 13 45.7 20
2 -8 13 15 9.6
-2 -8 -13 6.8 7.5
-2 -8 -13 5.1 8.9
2 -8 13 2.1 7.9
2 8 13 1.1 15.4
3 -8 13 34.1 11.7
3 -8 13 34 10.6
-3 -8 -13 23.8 9.6
-3 -8 -13 39.1 11.9
3 8 13 23 17.3
-4 -8 -13 0.5 7.9
4 -8 13 -2.9 8.2
-4 -8 -13 23.4 9.2
4 -8 13 9.1 9.2
-4 8 -13 11.5 7
4 8 13 -9.4 15.5
15 0 -14 13.1 6.2
15 0 -14 -3.3 9.6
15 0 -14 22.9 11
14 0 -14 67.69 14.9
14 0 -14 60.79 10.5
14 0 -14 67.49 13.9
-13 0 14 241.28 11.4
13 0 -14 247.18 17.8
13 0 -14 283.87 22.5
13 0 -14 207.28 22
12 0 -14 8.5 8.1
12 0 -14 9.9 5.3
-12 0 14 7.8 3
12 0 -14 7.7 8.8
-11 0 14 -0.7 2.2
11 0 -14 3.1 4.2
11 0 -14 4.2 7.7
11 0 -14 4.4 6.8
-10 0 14 110.79 7.8
10 0 -14 118.19 15.5
10 0 -14 82.89 10
-10 0 14 119.69 7.4
10 0 -14 107.99 13.1
9 0 -14 51.49 10
9 0 -14 54.09 8.2
9 0 -14 51.09 10.8
-9 0 14 53.49 6
-9 0 14 55.99 6.3
8 0 -14 93.39 10.4
-8 0 14 87.69 7
8 0 -14 117.29 12.9
-8 0 14 105.59 7.9
8 0 -14 89.39 13.2
7 0 -14 12.3 6.5
7 0 -14 15.8 5.5
7 0 -14 12.9 7.5
-7 0 14 19 4.1
-7 0 14 12.1 3.7
-6 0 14 182.98 10.4
-6 0 14 178.08 9.8
6 0 -14 191.88 16.5
6 0 -14 204.78 14.3
-5 0 14 30.6 4.9
5 0 -14 38.8 8.7
-5 0 14 34.4 5.1
4 0 -14 3.1 3.3
-4 0 14 6.3 3
-4 0 14 2.7 2.5
4 0 -14 1.4 6.4
-3 0 14 6.9 3.3
3 0 -14 15 4.3
3 0 -14 14.5 4.6
3 0 -14 5.4 5.2
-3 0 14 7.5 3.1
-2 0 14 21.7 4.5
2 0 -14 22.6 5.1
2 0 -14 19.3 4.5
-2 0 14 32.4 5.3
2 0 -14 28.4 5.2
1 0 -14 337.47 15.3
1 0 -14 327.27 16.2
-1 0 14 318.27 14.8
1 0 -14 327.97 14.9
-1 0 14 316.37 15.3
0 0 14 22.2 4.8
0 0 -14 20.2 5.7
0 0 -14 16.1 4.9
0 0 -14 24.1 5
0 0 14 22.1 5.3
1 0 14 288.47 14.2
-1 0 -14 278.57 15.6
-1 0 -14 265.37 13.9
1 0 14 275.47 14.6
-1 0 -14 269.07 14.3
-2 0 -14 1.2 3.3
2 0 14 2.7 3.7
2 0 14 6 4
-2 0 -14 -1.1 3.2
-2 0 -14 9.4 4.4
3 0 14 211.78 13.4
-3 0 -14 212.38 12.9
-3 0 -14 215.98 13.2
-3 0 -14 197.38 14.2
3 0 14 236.78 13.3
4 0 14 101.99 10.4
-4 0 -14 114.39 12
4 0 14 90.59 12.1
-4 0 -14 99.69 10.2
-4 0 -14 104.79 10.9
4 0 14 109.69 11.7
5 0 14 78.09 11.5
5 0 14 95.49 10.6
-5 0 -14 71.49 10.1
-5 0 -14 84.59 9.7
5 0 14 83.69 10.1
-5 0 -14 61.89 8.5
6 0 14 22.9 6.6
-6 0 -14 28.3 6.6
-6 0 -14 28.2 7.4
6 0 14 13.3 8
-6 0 -14 38 7.5
6 0 14 32.3 18.6
7 0 14 626.14 28.8
-7 0 -14 723.13 29.7
7 0 14 529.45 38.8
-7 0 -14 617.64 26.2
7 0 14 664.53 29.9
-7 0 -14 614.34 26.5
8 0 14 32.5 8.6
-8 0 -14 48.5 8.7
-8 0 -14 58.19 9.2
-9 0 -14 184.58 14.6
-9 0 -14 182.98 15.6
9 0 14 161.88 16.6
-9 0 -14 185.18 14.4
10 0 14 133.79 15.3
-10 0 -14 91.99 12.1
-10 0 -14 97.09 13
-10 0 -14 109.69 12.8
-11 0 -14 10.4 6.6
-11 0 -14 9.8 6.5
-11 0 -14 11 6.5
11 0 14 2.7 6.6
-12 0 -14 77.09 12.3
12 0 14 65.19 12.4
-12 0 -14 78.29 11.6
-12 0 -14 92.29 12.6
15 -1 -14 89.19 12.8
15 -1 -14 79.09 16.3
15 -1 -14 101.09 16.2
15 1 -14 71.69 16.8
15 1 -14 73.09 12.1
15 1 -14 77.39 15.8
14 -1 -14 -10.7 7.7
14 -1 -14 6 6.1
14 -1 -14 -3.8 7.5
14 1 -14 7.6 8.6
14 1 -14 2.9 5.3
14 1 -14 10.7 10.4
13 -1 -14 14.8 9.6
13 -1 -14 2.7 5.3
13 -1 -14 23.4 10.4
13 1 -14 13.6 9.6
13 1 -14 19.5 11.1
13 1 -14 8.9 5.5
12 -1 -14 72.29 13.8
12 -1 -14 77.79 11
12 -1 -14 79.49 13
12 1 -14 80.49 14.5
12 1 -14 96.19 12
12 1 -14 109.89 15.3
-11 -1 14 31.6 4.6
11 -1 -14 20.7 6.4
11 -1 -14 39.5 10.2
11 -1 -14 21.7 8.3
11 1 -14 35.5 10.4
11 1 -14 27.6 6.9
-11 1 14 23.2 4.2
-11 1 14 26.9 4.8
11 1 -14 25.9 10.3
10 -1 -14 160.98 13.2
10 -1 -14 134.89 15.9
10 -1 -14 163.58 16
-10 -1 14 169.98 8.7
-10 1 14 156.28 9.7
10 1 -14 169.78 13.3
10 1 -14 123.89 16.1
-10 1 14 171.28 9.4
10 1 -14 162.48 16.7
9 -1 -14 21.7 7.6
9 -1 -14 33.1 6.8
-9 -1 14 41.7 5.5
9 -1 -14 28.7 9.6
-9 -1 14 28.8 5.2
9 1 -14 25.7 6.2
-9 1 14 36 5.2
9 1 -14 38.2 10.5
9 1 -14 31 8
-9 1 14 40.6 5.8
-8 -1 14 4.9 3.1
8 -1 -14 7.7 7.8
-8 -1 14 1 2.9
8 -1 -14 6 4.7
8 -1 -14 -0.4 5.9
8 1 -14 -0.3 7.2
-8 1 14 3.9 3
8 1 -14 4.6 4.5
-8 1 14 -0.2 2.6
8 1 -14 2.3 5.9
7 -1 -14 30 6.2
7 -1 -14 18.3 7
-7 -1 14 33.4 4.8
7 -1 -14 19.2 8.3
-7 1 14 31.1 5
7 1 -14 16.8 7.1
7 1 -14 29.2 9.5
-7 1 14 30.5 4.9
-6 -1 14 -1 2.4
6 -1 -14 11 7
-6 -1 14 3.1 2.5
6 1 -14 -3.6 4.2
-6 1 14 -1.3 2.7
-6 1 14 -2.3 2.4
6 1 -14 4.9 6.8
-5 -1 14 30.4 4.9
5 -1 -14 27 8.2
-5 -1 14 29.1 4.9
5 -1 -14 24.2 5.3
-5 1 14 25.5 4.9
5 1 -14 25.2 6.4
-5 1 14 22.7 4.6
5 1 -14 30.9 8.5
-4 -1 14 66.69 7.2
-4 -1 14 55.09 6.4
4 -1 -14 64.19 7.9
4 1 -14 60.99 10.6
-4 1 14 57.69 6.8
4 1 -14 81.39 7.9
-4 1 14 90.99 8.1
4 1 -14 66.89 8.9
4 1 -14 67.39 6.8
-3 -1 14 694.43 24.2
3 -1 -14 670.53 26.2
3 -1 -14 695.33 25.3
-3 -1 14 666.83 24.6
3 -1 -14 694.13 24.9
-3 1 14 677.83 24.1
3 1 -14 709.43 24.6
-3 1 14 701.63 25
3 1 -14 660.53 24.4
-2 -1 14 5.8 3.3
2 -1 -14 4 3.6
-2 -1 14 1.1 3
2 -1 -14 5.8 4.4
2 -1 -14 0.3 3.5
2 1 -14 14.9 4.2
-2 1 14 2 2.9
-2 1 14 0.7 2.8
2 1 -14 5.8 3.6
2 1 -14 12.3 3.8
1 -1 -14 95.29 10.2
1 -1 -14 73.89 7.9
-1 -1 14 87.49 8.8
-1 -1 14 105.59 9.6
1 -1 -14 100.39 9.7
-1 1 14 88.09 8.6
1 1 -14 101.79 8
1 1 -14 91.79 8.5
1 1 -14 83.59 8.7
-1 1 14 101.69 9.1
0 -1 14 154.48 10.6
0 -1 14 135.89 10
0 -1 -14 147.19 9.8
0 -1 -14 139.89 11.6
0 -1 -14 132.39 10.3
0 1 -14 152.48 9.9
0 1 14 152.48 10.3
0 1 -14 152.18 10
0 1 -14 163.18 11.3
0 1 14 153.28 9.8
-1 -1 -14 26.9 5.8
1 -1 14 20.4 5
1 -1 14 33.5 6.2
-1 -1 -14 20.3 6
-1 -1 -14 35.1 6
-1 1 -14 35.4 6.7
-1 1 -14 23.7 5.1
1 1 14 40 6.3
-1 1 -14 28.2 5.5
1 1 14 26.6 5.4
-2 -1 -14 318.27 15.7
-2 -1 -14 327.17 16.4
-2 -1 -14 330.67 18
2 -1 14 310.07 16
2 -1 14 314.37 16.5
2 1 14 303.17 14.9
2 1 14 318.67 15.8
-2 1 -14 298.47 16.8
-2 1 -14 318.37 15.5
-2 1 -14 293.87 15.2
-3 -1 -14 7.8 4.2
3 -1 14 5.8 4.9
-3 -1 -14 3.3 4.5
3 -1 14 2.2 4.1
-3 -1 -14 0.5 4.3
3 1 14 0.1 3.7
3 1 14 3.2 3.8
-3 1 -14 -4.8 3.6
-3 1 -14 4.4 4.2
-3 1 -14 8 4.6
-4 -1 -14 -4.6 4.9
4 -1 14 17.9 6
4 -1 14 14.1 7.8
-4 -1 -14 6.6 5.3
-4 -1 -14 7.7 4.7
-4 1 -14 31.9 6.4
4 1 14 7.1 4.7
4 1 14 13.2 6.8
4 1 14 8.2 4.6
-5 -1 -14 8.2 5.4
-5 -1 -14 8.9 4.6
-5 -1 -14 -2.5 5.2
5 -1 14 15.3 8.1
5 -1 14 14.2 6.2
5 -1 14 10.8 5.8
-5 1 -14 7.8 4.9
5 1 14 22.2 20.9
-5 1 -14 3.9 5.4
5 1 14 1.7 4.7
-5 1 -14 8 4.6
5 1 14 9.6 7.3
6 -1 14 105.09 12
6 -1 14 75.09 12.1
-6 -1 -14 73.19 9.1
-6 -1 -14 98.69 11.7
-6 -1 -14 98.29 10.8
-6 1 -14 76.79 10.6
-6 1 -14 87.89 10.6
6 1 14 98.29 10.8
6 1 14 49.5 20.7
6 1 14 77.19 10.9
7 -1 14 25.5 7.4
7 -1 14 8.7 7
-7 -1 -14 27.1 6.6
-7 -1 -14 20.3 7.4
-7 -1 -14 7 4.8
7 1 14 26 16.6
-7 1 -14 17.8 5.6
7 1 14 14.8 6.9
-7 1 -14 7 5.2
-7 1 -14 11.6 6.1
-8 -1 -14 21.9 6.6
8 -1 14 9.3 7.2
-8 -1 -14 21.6 7.3
-8 -1 -14 18.2 6.7
-8 1 -14 23.1 6.9
-8 1 -14 23.2 7.4
8 1 14 3.9 13.5
8 1 14 20.7 7.7
-8 1 -14 24.1 7
-9 -1 -14 6.7 6.4
9 -1 14 4.1 6.2
-9 -1 -14 5.4 5.9
-9 -1 -14 5.7 5.4
9 1 14 0.8 5.8
-9 1 -14 -4.5 3.9
-9 1 -14 -5.1 4.5
-9 1 -14 3.9 5.3
-10 -1 -14 -3 5.3
-10 -1 -14 -4 5.1
10 -1 14 0 6.5
-10 -1 -14 2.5 5.7
-10 1 -14 -1.1 4.9
10 1 14 -0.4 6.1
-10 1 -14 1.4 5.2
-10 1 -14 5.8 4.9
-11 -1 -14 5.5 6
-11 -1 -14 3.2 6
-11 -1 -14 -2.5 5.2
11 -1 14 0 6.9
-11 1 -14 -3.1 4.8
11 1 14 -3.7 5.9
-11 1 -14 4.4 5.9
-11 1 -14 -3.7 5.3
15 -2 -14 3.6 6
15 -2 -14 -3.7 11.8
15 -2 -14 4.6 9.2
15 2 -14 3.7 5.9
15 2 -14 -11.4 10.6
15 2 -14 -8.1 9.7
14 -2 -14 4.8 5.8
14 -2 -14 11.1 9.4
14 -2 -14 -4 8.4
14 2 -14 -5.4 4.3
14 2 -14 -13.5 9
14 2 -14 -2 8.8
13 -2 -14 14.7 9.4
13 -2 -14 10.3 6.1
13 -2 -14 18 9.4
13 2 -14 22 7.2
13 2 -14 2.1 8.7
13 2 -14 4.8 10
12 -2 -14 30.1 9.9
12 -2 -14 26.6 10.1
12 -2 -14 19.8 6.8
12 2 -14 26.4 10.5
12 2 -14 36.5 8.4
12 2 -14 10.5 9.9
-12 2 14 30 5.6
11 -2 -14 4.8 5
11 -2 -14 6.7 7.6
11 -2 -14 3.7 7.1
-11 2 14 13.3 4
11 2 -14 7.9 8.5
11 2 -14 14.7 8.3
11 2 -14 3.9 4.5
10 -2 -14 13.9 5.2
-10 -2 14 7.7 3
10 -2 -14 4.5 6.4
10 -2 -14 15.3 8.2
-10 2 14 14.8 4
10 2 -14 6.5 8.1
10 2 -14 7.3 7
10 2 -14 3.5 4.3
-9 -2 14 4.9 2.8
9 -2 -14 3.5 6.1
9 -2 -14 15.8 7.9
9 -2 -14 7.8 4.8
9 2 -14 18.3 7.6
9 2 -14 8.5 7.6
9 2 -14 9.5 5.5
-9 2 14 5.2 3.4
-9 2 14 8.9 3.4
-8 -2 14 246.88 11.6
-8 -2 14 262.67 12.5
8 -2 -14 264.47 15.9
8 -2 -14 283.57 20.2
8 -2 -14 267.97 18.4
-8 2 14 269.67 13.5
8 2 -14 269.87 20.7
8 2 -14 276.87 18.1
-8 2 14 268.97 12.8
7 -2 -14 30.5 8.5
-7 -2 14 14.3 4
7 -2 -14 13.1 7.9
7 -2 -14 17.4 5.8
-7 -2 14 14.6 4.1
7 2 -14 14.9 6.6
-7 2 14 16.1 4.7
7 2 -14 17.2 8.6
-7 2 14 10.1 3.8
6 -2 -14 485.05 25.8
6 -2 -14 508.05 22.4
-6 -2 14 521.65 19.6
-6 -2 14 483.15 18.6
6 2 -14 522.65 23.4
-6 2 14 547.45 20.8
6 2 -14 477.85 26.6
-6 2 14 499.55 19.4
-5 -2 14 9.8 3.6
5 -2 -14 5.7 4.5
-5 -2 14 7.1 3.5
-5 2 14 6.7 3.3
5 2 -14 -2.9 4.1
5 2 -14 10.8 6.8
-5 2 14 4.2 3
-4 -2 14 208.18 11.4
-4 -2 14 191.48 10.7
4 -2 -14 201.28 13.5
-4 2 14 206.08 11.7
4 2 -14 207.18 10.8
-4 2 14 189.28 10.7
4 2 -14 213.08 13.3
4 2 -14 190.68 16.8
-3 -2 14 5.3 3.4
-3 -2 14 5.2 3.6
3 -2 -14 13.5 5
3 -2 -14 16.5 4.8
3 2 -14 3.5 3
3 2 -14 4.7 4.6
3 2 -14 4.3 5.6
3 2 -14 5.1 3.2
-3 2 14 14.5 3.9
-3 2 14 11.9 3.8
2 -2 -14 15.2 5.3
2 -2 -14 11.9 4.5
-2 -2 14 23.4 5.1
2 -2 -14 12.4 5.2
-2 -2 14 21.9 4.8
2 2 -14 20 6.9
2 2 -14 18.1 4.2
2 2 -14 15.5 4.4
-2 2 14 21.7 4.8
-2 2 14 17.6 4.5
-1 -2 14 5.9 3.8
1 -2 -14 7.9 5.1
1 -2 -14 12.1 4.9
1 -2 -14 13.3 4.6
-1 -2 14 11.2 4.2
1 2 -14 8.8 3.6
1 2 -14 8 4
-1 2 14 17.7 4.5
-1 2 14 10.1 3.8
0 -2 -14 48 8.6
0 -2 14 35.6 6.6
0 -2 -14 45 7.4
0 -2 14 51.29 7.6
0 -2 -14 49.8 7.1
0 2 14 41.7 6.4
0 2 -14 45.6 6.3
0 2 -14 48 7.4
0 2 -14 50.99 6.7
0 2 14 44.3 6.5
1 -2 14 4.5 4.5
-1 -2 -14 4.2 4.5
1 -2 14 -0.2 3.8
-1 -2 -14 0.9 3.4
-1 -2 -14 7.8 5.4
-1 2 -14 2.4 3.6
1 2 14 5.3 3.4
1 2 14 8.7 4
-1 2 -14 4.2 3.3
-1 2 -14 4.1 4
2 -2 14 47.7 7.8
2 -2 14 66.59 8.9
-2 -2 -14 63.59 9.2
-2 -2 -14 40.7 6.8
-2 -2 -14 46 8.5
2 2 14 50.59 7.1
-2 2 -14 65.49 8
-2 2 -14 39.6 7.1
-2 2 -14 47.5 6.9
2 2 14 61.49 8.1
-3 -2 -14 6.4 5
3 -2 14 0.3 4.8
-3 -2 -14 1.3 5.4
-3 -2 -14 10.8 4.5
3 -2 14 6.6 5.4
-3 2 -14 9.5 5.2
-3 2 -14 9.6 4.7
-3 2 -14 6.7 4.4
3 2 14 20.1 5.6
3 2 14 10.5 4.4
-4 -2 -14 10.3 4.6
4 -2 14 6.2 7.5
4 -2 14 5.5 5.2
4 -2 14 9.1 5.5
-4 -2 -14 11.7 6.3
-4 -2 -14 4.5 5.4
4 2 14 8.9 7.1
-4 2 -14 20.2 6
4 2 14 23.9 6
-4 2 -14 18.8 5.8
-4 2 -14 8.7 4.7
4 2 14 -6.4 19.3
5 -2 14 0.4 4.9
-5 -2 -14 3.1 3.9
-5 -2 -14 3.2 5.1
-5 -2 -14 1.3 4.7
5 -2 14 5 5.2
5 -2 14 -4.7 6.4
-5 2 -14 3.9 4.6
-5 2 -14 6.8 4.6
-5 2 -14 2.4 4.2
5 2 14 4 5.8
5 2 14 23.8 20.7
5 2 14 10.2 4.5
-6 -2 -14 75.09 11.4
6 -2 14 100.99 11.8
-6 -2 -14 68.19 9.7
-6 -2 -14 94.59 10.6
6 -2 14 78.09 12.2
6 2 14 79.59 11
6 2 14 32.7 19.7
-6 2 -14 66.19 9.7
-6 2 -14 87.99 10.5
-6 2 -14 71.09 9.6
7 -2 14 11.6 6.6
-7 -2 -14 5.4 6
-7 -2 -14 14.9 5.8
7 -2 14 8.7 7.5
-7 -2 -14 12.7 6.3
7 2 14 12.2 6
-7 2 -14 9.6 5.3
-7 2 -14 12.3 5.7
-7 2 -14 10 5.4
7 2 14 3.9 15.6
-8 -2 -14 9.1 5.7
-8 -2 -14 10.1 6.1
8 -2 14 5.9 6.7
-8 -2 -14 1.7 5.6
-8 2 -14 0.2 5.1
-8 2 -14 -1.1 4.5
8 2 14 29 15.7
8 2 14 6.3 6.1
-9 -2 -14 7.8 5.5
-9 -2 -14 5.5 6.6
9 -2 14 7 7.5
-9 -2 -14 5.7 6.2
-9 2 -14 12.8 6.7
9 2 14 9.8 6.9
-9 2 -14 10.5 6.5
9 2 14 10 13.9
-10 -2 -14 45.5 9.7
-10 -2 -14 56.79 9.9
-10 -2 -14 73.59 11.1
10 -2 14 47.7 10.6
10 2 14 42.6 9.5
-10 2 -14 49.9 10
-10 2 -14 75.49 11.7
-11 -2 -14 -2.2 5.9
-11 -2 -14 -4.4 5.5
-11 -2 -14 -9.9 4.6
11 -2 14 -5.8 5.9
-11 2 -14 8.1 6.1
-11 2 -14 9.5 6.5
11 2 14 -8.5 5.3
14 -3 -14 13.3 7.4
14 -3 -14 24.6 10.4
14 3 -14 20.8 12.7
14 3 -14 16.6 7.1
14 3 -14 21.7 11.6
13 -3 -14 9.4 5.8
13 -3 -14 18.7 9.3
13 3 -14 16.9 11.7
13 3 -14 14.1 6.6
-13 3 14 3.4 3.8
13 3 -14 9.5 9.8
12 -3 -14 48.5 9.3
12 -3 -14 65.99 12.6
12 -3 -14 49.1 12.2
-12 3 14 57.69 7.9
12 3 -14 77.09 11.4
12 3 -14 97.59 14.9
12 3 -14 52.19 14.1
11 -3 -14 22.9 9.5
11 -3 -14 32.9 9.7
11 -3 -14 27.6 7.1
11 3 -14 26.1 11.1
11 3 -14 29.7 9.4
11 3 -14 27.3 7.1
-11 3 14 35.9 6.4
10 -3 -14 83.69 12.6
-10 -3 14 88.39 7.3
10 -3 -14 96.99 13.4
10 -3 -14 69.09 9.4
10 3 -14 83.99 14.8
10 3 -14 88.69 13.1
-10 3 14 99.09 9.6
10 3 -14 68.59 9.7
9 -3 -14 -4 5.6
-9 -3 14 -0.5 2.8
9 -3 -14 1.4 4.1
9 -3 -14 0.5 6.3
9 3 -14 13.8 6.5
9 3 -14 10.1 7.9
-9 3 14 -1.2 2.7
-8 -3 14 14.6 4.1
8 -3 -14 9.2 7.1
-8 -3 14 13.9 4.1
8 -3 -14 9.6 5
8 -3 -14 17.8 7.6
-8 3 14 24.4 5.2
8 3 -14 8.1 7.4
-8 3 14 16.9 4.6
8 3 -14 22.2 7.3
7 -3 -14 18.1 5.5
-7 -3 14 22.4 4.8
-7 -3 14 13.8 4.1
7 -3 -14 9.8 7
-7 3 14 20.1 4.9
7 3 -14 21.9 7.6
-7 3 14 21.3 4.8
7 3 -14 22.9 9
-6 -3 14 158.68 10.3
6 -3 -14 173.28 12.9
6 -3 -14 189.98 13.9
-6 -3 14 199.98 11.3
6 -3 -14 163.98 15.8
-6 3 14 203.28 11.2
6 3 -14 159.48 16.5
6 3 -14 193.18 14.5
-6 3 14 166.38 11.2
-5 -3 14 2.8 3.8
-5 -3 14 6.1 4
5 -3 -14 3.8 5.1
-5 3 14 10.6 3.8
-5 3 14 12.8 4.7
5 3 -14 11.7 7.3
5 3 -14 -4.9 4.2
-4 -3 14 143.19 10.4
4 -3 -14 160.58 13.7
4 -3 -14 155.18 12.9
-4 -3 14 158.88 10.4
-4 3 14 152.48 10.6
-4 3 14 151.88 10.1
4 3 -14 160.68 11.7
4 3 -14 153.68 9.2
4 3 -14 170.18 15.5
-3 -3 14 -0.1 3.2
3 -3 -14 2.7 4.6
-3 -3 14 -3.9 2.9
3 -3 -14 -2.1 4.2
3 3 -14 -2.5 5.7
-3 3 14 -4.6 2.3
3 3 -14 -1.3 2.6
3 3 -14 -1.2 4.3
-3 3 14 -3 2.4
2 -3 -14 34.1 7.8
-2 -3 14 41.4 6.9
2 -3 -14 37.2 7.6
-2 -3 14 28.6 6
2 3 -14 34.4 5.3
-2 3 14 43.9 7.1
2 3 -14 39.5 9
2 3 -14 34.5 5.7
2 3 -14 36.1 6
-2 3 14 24.8 5.4
1 -3 -14 98.09 11.9
1 -3 -14 149.39 13.4
1 -3 -14 140.39 10.2
-1 -3 14 140.19 11.1
-1 -3 14 129.79 11.7
1 3 -14 95.79 12
-1 3 14 141.79 10.1
1 3 -14 126.39 8.7
1 3 -14 117.49 9.6
-1 3 14 144.09 10.4
0 -3 14 106.89 10.8
0 -3 -14 90.09 9.4
0 -3 14 110.39 10.9
0 -3 -14 104.99 11.2
0 -3 -14 114.69 13.3
0 3 14 117.79 9.8
0 3 -14 106.39 10.3
0 3 -14 123.69 8.6
0 3 14 121.79 9.3
1 -3 14 45.2 7.7
-1 -3 -14 34.5 7.7
-1 -3 -14 36 6.7
-1 -3 -14 41.4 8.9
1 -3 14 43.9 8.1
1 3 14 42.2 6.8
-1 3 -14 33.4 6
-1 3 -14 33.5 6.7
1 3 14 31.2 6
2 -3 14 72.59 10.2
-2 -3 -14 53.39 9.9
-2 -3 -14 62.89 9.5
2 -3 14 53.29 8.8
-2 -3 -14 47.6 7.3
2 3 14 57.19 7.5
2 3 14 21.2 25.5
2 3 14 91.69 10.2
-2 3 -14 60.69 7.6
-2 3 -14 52.59 8.2
-3 -3 -14 -1 4.1
-3 -3 -14 -6.4 4.8
-3 -3 -14 -2.6 4.6
3 -3 14 -1.5 4.4
3 -3 14 3.4 6.9
3 -3 14 -7 4.2
3 3 14 10.4 22.1
3 3 14 -0.6 3.5
-3 3 -14 -2.5 4.2
-3 3 -14 0.8 3.6
3 3 14 2.5 5.9
3 3 14 -1.5 3.7
-4 -3 -14 51.39 10.2
4 -3 14 60.19 10.7
4 -3 14 43 8.8
-4 -3 -14 39 8
-4 -3 -14 49.7 7.7
4 -3 14 45.7 8.5
4 3 14 40.6 8.3
-4 3 -14 59.39 9.4
4 3 14 77.69 26.4
4 3 14 56.79 8.1
-4 3 -14 41 6.8
5 -3 14 120.29 13
-5 -3 -14 116.49 11.3
-5 -3 -14 104.59 13
5 -3 14 95.29 13.3
5 -3 14 120.89 12.9
-5 -3 -14 108.39 12
5 3 14 125.59 11.6
-5 3 -14 119.69 11.4
5 3 14 98.29 11.6
-5 3 -14 107.69 12.1
5 3 14 157.18 29.8
-6 -3 -14 197.58 15.8
-6 -3 -14 188.78 13.1
-6 -3 -14 137.09 14.1
6 -3 14 168.08 15.9
6 -3 14 154.08 15.4
6 -3 14 192.78 15
6 3 14 208.68 31.4
-6 3 -14 173.68 14.2
-6 3 -14 152.58 12.2
6 3 14 178.68 14.4
7 -3 14 -1.1 6.3
7 -3 14 18.6 8.2
-7 -3 -14 13.5 5.5
-7 -3 -14 3.1 5.8
-7 -3 -14 12.7 6.9
7 3 14 11 15.9
-7 3 -14 12.6 5.7
7 3 14 7.1 5.9
-7 3 -14 14 6.4
-8 -3 -14 25.5 8.6
-8 -3 -14 28.8 7.2
8 -3 14 20.4 9
-8 -3 -14 19.4 7.7
8 -3 14 29 9.1
-8 3 -14 14.4 6.1
-8 3 -14 22.3 7
8 3 14 26.3 16
-9 -3 -14 25.3 8.9
9 -3 14 11.4 7.8
-9 -3 -14 38.5 8.6
-9 -3 -14 32.5 8.8
9 3 14 24.9 16.6
-9 3 -14 29.8 8.6
-9 3 -14 22.7 7.5
-10 -3 -14 52.29 10.2
10 -3 14 26.5 9.6
-10 -3 -14 41.9 9.1
-10 -3 -14 26.3 8.8
10 3 14 34.5 16.2
-10 3 -14 41.7 9.2
-10 3 -14 50.09 10.4
-11 -3 -14 27.8 8.6
-11 -3 -14 33.2 8.9
11 -3 14 17.7 8.8
-11 -3 -14 31.1 9.4
-11 3 -14 30 8.4
-11 3 -14 37.2 9.2
14 -4 -14 13.9 9.4
14 -4 -14 13.4 7.8
14 4 -14 19.3 13.5
14 4 -14 19.6 7.9
14 4 -14 -8.7 10.1
13 -4 -14 31.2 8.3
13 -4 -14 44 11.5
13 4 -14 15.5 12.5
13 4 -14 15.5 10.7
13 4 -14 36.8 8.9
-13 4 14 25.9 6.2
12 -4 -14 42.3 8.7
12 -4 -14 12.2 8.7
12 4 -14 10.4 6.5
12 4 -14 5.4 9.1
-12 4 14 14.5 5.1
12 4 -14 1.1 10
11 -4 -14 140.49 14.6
11 -4 -14 159.98 17.5
-11 4 14 182.98 12.5
11 4 -14 164.68 20.9
11 4 -14 131.69 17
10 -4 -14 15 5.7
10 -4 -14 16.6 7.8
-10 -4 14 8.3 4.2
10 4 -14 4.1 7.9
10 4 -14 19.5 10.2
-10 4 14 14.2 4.9
9 -4 -14 22.9 9
-9 -4 14 22.9 4.9
9 -4 -14 15.6 5.5
9 -4 -14 17.8 7.9
9 4 -14 20.1 8.7
-9 4 14 19.7 5.3
9 4 -14 20.1 9.9
8 -4 -14 234.18 18.2
8 -4 -14 246.58 15.3
-8 -4 14 227.38 12.3
8 -4 -14 256.47 17.9
8 4 -14 236.68 18.2
8 4 -14 213.48 21.4
-8 4 14 228.08 13.8
-7 -4 14 274.87 13.5
7 -4 -14 218.88 17.9
-7 -4 14 285.07 14.2
7 -4 -14 279.17 15.7
-7 4 14 267.47 13.9
-7 4 14 279.37 15
7 4 -14 260.27 20.8
7 4 -14 267.37 17.8
-6 -4 14 74.79 8.7
6 -4 -14 62.19 8.2
6 -4 -14 69.69 11.3
6 -4 -14 65.99 10.2
-6 -4 14 76.19 8.7
6 4 -14 68.09 12.2
6 4 -14 86.39 10.3
-6 4 14 68.39 8.5
-6 4 14 74.59 8.3
-5 -4 14 373.36 17.2
-5 -4 14 325.97 16.2
5 -4 -14 373.06 20.5
5 4 -14 353.96 22.8
-5 4 14 318.87 16
5 4 -14 383.76 27.2
-5 4 14 342.87 17.2
-4 -4 14 85.49 9.4
4 -4 -14 85.99 11.8
4 -4 -14 78.29 10.6
-4 -4 14 82.29 9.5
-4 4 14 83.39 8.9
-4 4 14 73.09 9
4 4 -14 55.19 10.7
3 -4 -14 6.7 5.9
-3 -4 14 3.6 5.3
-3 -4 14 -1.1 5.1
3 -4 -14 10.4 6.4
3 4 -14 3 6.6
-3 4 14 6.3 3.9
-3 4 14 9.9 4.3
-2 -4 14 123.49 12
2 -4 -14 97.49 11.6
2 -4 -14 108.99 13.3
-2 -4 14 101.89 10.9
2 4 -14 110.39 12.8
-2 4 14 107.19 10.2
-2 4 14 78.29 9.3
1 -4 -14 187.68 14.8
1 -4 -14 166.88 16.2
-1 -4 14 197.08 13.7
-1 -4 14 191.28 14.1
-1 4 14 187.08 12
1 4 -14 189.48 10.7
1 4 -14 213.48 16.6
1 4 -14 200.68 12.4
-1 4 14 198.78 12.9
0 -4 -14 163.98 11.7
0 -4 -14 163.68 16.1
0 -4 14 162.08 13.5
0 -4 14 148.19 13.6
0 -4 -14 156.38 14.8
0 4 -14 162.08 10
0 4 -14 140.29 14.3
0 4 -14 164.78 11.7
0 4 14 161.08 11.9
0 4 14 165.68 11.4
1 -4 14 0.2 4.5
-1 -4 -14 2 4.1
-1 -4 -14 -4.9 5.2
-1 -4 -14 4.9 5.7
1 -4 14 5.5 5.4
-1 4 -14 0.5 3.1
1 4 14 -3.4 22.4
-1 4 -14 10 6.4
-1 4 -14 2.8 4.3
1 4 14 4.7 4.2
1 4 14 0.7 3.5
2 -4 14 131.59 13.5
-2 -4 -14 143.09 14.3
-2 -4 -14 116.49 13.6
2 -4 14 117.59 12.5
-2 -4 -14 136.99 10.5
2 4 14 129.79 31.1
-2 4 -14 116.69 9.3
2 4 14 128.99 10.1
-2 4 -14 151.58 11.7
2 4 14 127.99 10.8
3 -4 14 141.99 14.9
-3 -4 -14 115.09 13.3
-3 -4 -14 122.49 14.9
-3 -4 -14 113.99 11
3 -4 14 99.79 12
3 -4 14 115.19 13.7
3 4 14 127.49 10.7
3 4 14 157.28 31.8
-3 4 -14 128.29 12.8
-3 4 -14 114.59 9.5
4 -4 14 301.37 21
-4 -4 -14 281.27 19.9
4 -4 14 292.87 18.5
-4 -4 -14 311.77 16.7
4 -4 14 297.07 19.2
-4 -4 -14 289.37 18.5
-4 4 -14 309.17 16.1
4 4 14 303.77 38.4
-4 4 -14 325.77 18.3
4 4 14 325.77 16.6
-5 -4 -14 101.79 12.4
5 -4 14 80.99 12.2
-5 -4 -14 71.69 11.8
5 -4 14 104.49 13.6
-5 -4 -14 80.79 9.9
5 -4 14 70.79 12.4
5 4 14 35.9 21
-5 4 -14 76.19 11
-5 4 -14 80.49 9.5
-6 -4 -14 3.3 6.5
-6 -4 -14 7.5 5.4
6 -4 14 10 8.1
6 -4 14 18.6 7.6
6 -4 14 4.9 6.6
-6 -4 -14 9.8 6.5
6 4 14 3.7 15.6
-6 4 -14 8.2 5.9
-6 4 -14 17.1 5.8
-7 -4 -14 -2.6 6.2
7 -4 14 0.2 7.4
-7 -4 -14 -3 5.5
-7 -4 -14 1.7 4.5
7 -4 14 4.1 6.2
-7 4 -14 17.2 6.9
-7 4 -14 9.9 5.7
7 4 14 -6.8 14.8
-8 -4 -14 39.4 9.6
8 -4 14 38.5 10.5
-8 -4 -14 40.9 8.3
8 -4 14 33.5 9.4
-8 -4 -14 31.2 9.2
-8 4 -14 35.6 8.9
8 4 14 41.3 17.6
-8 4 -14 26.8 7.8
9 -4 14 10.8 8.3
-9 -4 -14 9.7 7.5
-9 -4 -14 12.3 5.7
-9 -4 -14 10.6 7.3
-9 4 -14 2.3 5.2
9 4 14 33.2 18
-9 4 -14 14.1 7
-10 -4 -14 60.09 9.8
-10 -4 -14 52.39 10.9
10 -4 14 44.2 11.6
-10 -4 -14 47.9 10.2
10 4 14 69.29 21.7
-10 4 -14 49 9.5
-10 4 -14 46.3 10.3
13 -5 -14 4.7 6.3
13 -5 -14 -5.6 6.5
13 5 -14 -2.1 10.2
-13 5 14 3.1 4.6
13 5 -14 1 12.4
12 -5 -14 203.48 19.9
12 -5 -14 226.48 17.3
12 5 -14 232.38 25.9
-12 5 14 240.38 15.5
12 5 -14 196.48 21.8
11 -5 -14 29.3 9.9
11 -5 -14 34.2 8
11 5 -14 33.9 13.3
11 5 -14 17.4 9.9
-11 5 14 37.3 7.6
10 -5 -14 29.8 9.8
10 -5 -14 27.2 7.6
10 5 -14 35.8 12.8
10 5 -14 36.6 11.1
-10 5 14 36.1 7.3
9 -5 -14 3.4 4.9
9 -5 -14 -3.4 6.5
-9 -5 14 0.6 4.2
9 5 -14 -9.7 8
9 5 -14 -2.4 7.8
-9 5 14 -3.8 3.1
8 -5 -14 34.3 6.8
-8 -5 14 31.7 6.2
8 -5 -14 19.9 8.4
-8 5 14 39.8 7.5
8 5 -14 37.5 11.2
-7 -5 14 8.9 4.7
-7 -5 14 21 5.9
7 -5 -14 6.6 4.7
7 5 -14 4.1 7.6
-7 5 14 5.1 4.7
-7 5 14 18.3 5.3
-6 -5 14 137.79 11.4
6 -5 -14 150.28 15.4
-6 -5 14 151.18 11.3
6 5 -14 137.79 16.5
-6 5 14 146.99 11
-6 5 14 135.69 11.1
-5 -5 14 0.5 4.1
-5 -5 14 7.4 4.6
5 -5 -14 -1.1 5.4
5 5 -14 -2 6.1
-5 5 14 -2 3.3
-5 5 14 0.1 3.3
-4 -5 14 24 6.8
4 -5 -14 29.8 8
-4 -5 14 27.5 6.7
4 -5 -14 13.8 7.4
4 5 -14 23.5 8
-4 5 14 28.9 6.4
-4 5 14 22 5.4
3 -5 -14 13.3 6.8
-3 -5 14 12.7 5.9
-3 -5 14 12.2 5.4
3 -5 -14 16.7 7.1
-3 5 14 16.8 4.9
3 5 -14 7.6 6.3
-3 5 14 8.5 4.5
-2 -5 14 36.9 7.4
2 -5 -14 42.1 9.5
2 -5 -14 31.1 8.2
-2 -5 14 41.2 8
-2 5 14 32.6 6.3
-2 5 14 32.2 6.7
2 5 -14 44.9 9.2
1 -5 -14 -7.3 5
-1 -5 14 4.9 4.9
1 -5 -14 -2.1 5.8
-1 -5 14 4.8 4.5
-1 5 14 -3.2 3.3
-1 5 14 5.9 23.1
1 5 -14 -1.4 5.4
-1 5 14 -2.9 3.2
0 -5 14 22.1 7.1
0 -5 -14 29.8 8.2
0 -5 -14 26.1 7.6
0 -5 14 23.1 7.1
0 5 14 8 22.4
0 5 14 26.6 6.3
0 5 -14 21.5 5.8
0 5 14 23.3 5.5
-1 -5 -14 12.6 7
1 -5 14 20.5 6.5
-1 -5 -14 23.1 7.8
-1 -5 -14 12.5 5.2
1 5 14 11.1 4.9
-1 5 -14 19.7 5.5
1 5 14 -11 18.4
1 5 14 7.9 4.5
2 -5 14 -3.1 6.9
-2 -5 -14 8.1 6.4
-2 -5 -14 1.4 4.3
2 -5 14 1.2 5.1
-2 -5 -14 1.4 5.8
2 -5 14 5.5 5.8
2 5 14 -5.1 3.3
2 5 14 -9.3 17.3
-2 5 -14 6.9 3.8
-2 5 -14 7.3 4.9
3 -5 14 3.3 6.1
3 -5 14 -4.1 5.6
3 -5 14 4.5 7.4
-3 -5 -14 3.3 6.3
-3 -5 -14 -3.5 5.1
-3 -5 -14 0.1 4.3
3 5 14 4 4.2
-3 5 -14 -0.2 3.5
-3 5 -14 -1 4.4
3 5 14 14.1 20.1
-4 -5 -14 13.7 7.4
4 -5 14 20.3 7.7
-4 -5 -14 21.4 5.9
4 -5 14 5.5 7.9
-4 -5 -14 19.7 7.3
4 -5 14 15.4 7.9
-4 5 -14 18 5.6
4 5 14 17.8 19.2
-4 5 -14 15.2 6.2
5 -5 14 25 9.4
5 -5 14 12.9 7.7
-5 -5 -14 23.4 6.6
5 -5 14 0.9 6.6
-5 -5 -14 35 8.9
-5 -5 -14 7.1 7.1
-5 5 -14 25.5 6.2
5 5 14 8.6 17.9
-5 5 -14 26.8 7.8
-6 -5 -14 13.6 8
6 -5 14 16.2 7.9
-6 -5 -14 3.6 6.6
-6 -5 -14 8 5.3
6 -5 14 -2.7 7.7
6 -5 14 11.2 8.2
6 5 14 10.2 17.4
-6 5 -14 11.7 5.7
-6 5 -14 19.2 7.4
7 -5 14 33.9 10
-7 -5 -14 15.7 8.6
-7 -5 -14 24.7 7.1
-7 -5 -14 33.6 9.4
7 -5 14 16 9.1
-7 5 -14 28.2 8.5
7 5 14 29.1 18.2
-7 5 -14 26.8 7.1
-8 -5 -14 5.2 7.1
8 -5 14 10.4 7.8
8 -5 14 6.5 8.3
-8 -5 -14 4.1 6.4
-8 -5 -14 14 6.4
-8 5 -14 11.1 5.9
8 5 14 15.3 16.2
-8 5 -14 17.7 7.9
-9 -5 -14 28.6 9.1
9 -5 14 16.2 9.8
-9 -5 -14 22.3 8.9
-9 5 -14 24.8 8.6
-9 5 -14 33.4 8.5
9 5 14 46.6 19.8
11 -6 -14 8.4 7.9
11 6 -14 16.1 12.7
-11 6 14 0.2 4.3
10 -6 -14 5.5 7.8
10 6 -14 2.7 10.6
-10 6 14 -1.6 3.9
9 -6 -14 7.4 8.4
-9 -6 14 1.1 5.3
-9 6 14 13.5 5.6
9 6 -14 -3.4 9.2
-8 -6 14 78.69 10.2
-8 6 14 71.49 10.3
8 6 -14 27.3 11.6
-7 -6 14 3.5 5.4
-7 -6 14 0.5 5.1
7 6 -14 -3.8 7.9
-7 6 14 1.9 3.8
-7 6 14 -1.2 4.4
-6 -6 14 50.89 8.9
-6 -6 14 53.89 9.1
6 -6 -14 61.59 11.4
-6 6 14 30.9 6.9
6 6 -14 27.1 10.4
-6 6 14 57.69 8.4
-5 -6 14 8.8 5.8
5 -6 -14 7.9 7.3
-5 -6 14 10.6 6
5 6 -14 23.6 8.7
-5 6 14 -0.4 3.6
-5 6 14 16.2 5.2
-4 -6 14 12.2 6.2
4 -6 -14 13 6.9
4 -6 -14 12.2 7.9
-4 -6 14 14.1 6.5
-4 6 14 4.4 4.3
-4 6 14 8.5 5.2
-4 6 14 -13.3 21
4 6 -14 21 8.7
3 -6 -14 19.3 8.7
-3 -6 14 17.3 6.9
-3 -6 14 9.1 6.4
3 -6 -14 17.6 7.6
-3 6 14 2.8 19.9
-3 6 14 17.1 5.5
-3 6 14 15 5.5
-2 -6 14 193.78 15.3
2 -6 -14 183.68 19.5
-2 -6 14 180.68 15.4
2 -6 -14 171.08 16.7
-2 6 14 158.68 12
-2 6 14 209.78 14.2
-2 6 14 133.59 31.9
1 -6 -14 34 8.9
-1 -6 14 30.5 8.6
-1 -6 14 21.8 7.4
1 -6 -14 20.1 9.1
-1 6 14 29.5 6.5
-1 6 14 16.3 5.9
-1 6 14 31.4 23
0 -6 14 16.7 7.2
0 -6 -14 22.2 9.4
0 -6 -14 24.5 8.3
0 -6 14 21.7 8.2
0 6 14 38.5 7.9
0 6 14 25.6 20.7
0 6 14 29.8 7.5
1 -6 14 11.1 7.4
1 -6 14 22.6 9
-1 -6 -14 29.1 9.4
-1 -6 -14 28.6 8.8
1 -6 14 27.3 8.5
-1 6 -14 43.3 7.8
1 6 14 36.9 22.5
1 6 14 28.2 6.8
2 -6 14 52.99 10.8
2 -6 14 57.99 11.1
2 -6 14 63.89 11.5
-2 -6 -14 54.39 11.6
-2 -6 -14 87.89 13
-2 6 -14 91.29 11.4
2 6 14 88.99 10.8
2 6 14 80.79 24.7
-3 -6 -14 4.3 4.7
3 -6 14 -2.5 5.8
3 -6 14 2.7 6.9
-3 -6 -14 13.1 7.5
3 -6 14 2.2 8
-3 -6 -14 38.4 10.2
-3 6 -14 0 4.7
3 6 14 24.6 19.9
4 -6 14 24.4 8.5
-4 -6 -14 10.4 5.8
-4 -6 -14 22.3 8.6
-4 -6 -14 27.5 9.2
4 -6 14 16.7 9.2
4 -6 14 37.8 10.4
4 6 14 7.7 19
-4 6 -14 19 7.5
5 -6 14 -14.4 6
-5 -6 -14 0.8 6.6
5 -6 14 7.2 7.7
-5 -6 -14 -1.9 6.4
5 -6 14 -4.2 7.1
5 6 14 13.6 18
-5 6 -14 3.3 6.1
6 -6 14 29.1 9.9
-6 -6 -14 28.2 8.7
6 -6 14 3.6 8.7
6 -6 14 22.9 10.1
-6 -6 -14 31.8 9.8
6 6 14 0.7 16.5
-6 6 -14 34.4 7.6
-6 6 -14 18 8.3
-7 -6 -14 15.9 8
7 -6 14 5.9 8.7
-7 -6 -14 17.4 8.6
7 -6 14 12.7 9
-7 6 -14 2.5 5
-7 6 -14 6.4 7.3
7 6 14 7.8 16.5
8 -6 14 64.39 14.7
8 -6 14 56.89 12.2
-8 -6 -14 32.1 10.4
-8 -6 -14 79.19 12.9
-8 6 -14 80.59 11.1
-8 6 -14 69.99 13.2
8 6 14 68.19 22.5
10 7 -14 -16.2 10.7
9 -7 -14 84.59 13.8
-9 -7 14 87.29 11.8
9 7 -14 62.49 16.2
-9 7 14 80.89 11.6
-8 -7 14 10.6 7.3
-8 7 14 25.4 7.3
8 7 -14 19.5 11.7
-7 -7 14 12.8 6.7
-7 -7 14 31.5 9
-7 7 14 22.6 6.9
-7 7 14 25.9 6.5
7 7 -14 23 11.5
-6 -7 14 3.1 6.5
-6 -7 14 -3.6 6
6 -7 -14 10.8 8.5
-6 7 14 1.4 4.3
-6 7 14 -2.1 4.1
5 -7 -14 4.2 8.9
-5 -7 14 0.8 6.5
-5 -7 14 -5.5 5.7
-5 7 14 4.2 5
-5 7 14 -4.4 3.5
-5 7 14 -49.2 16.9
-4 -7 14 7.8 6.6
4 -7 -14 -5.4 6.6
4 -7 -14 16.2 9.8
-4 -7 14 9.3 7.6
-4 7 14 3.7 21.8
-4 7 14 7.8 5.5
-4 7 14 6.1 4.9
3 -7 -14 10.5 9.5
-3 -7 14 17 7.6
3 -7 -14 30.9 9.3
-3 -7 14 6.2 7.8
-3 7 14 10.7 6.4
-3 7 14 1.8 20.8
-3 7 14 10.6 5.2
-2 -7 14 15.7 7.7
2 -7 -14 17 9.7
-2 -7 14 6.3 7.6
2 -7 -14 15.5 8.2
-2 7 14 1.8 4.5
-2 7 14 5.4 5.2
-2 7 14 19.2 21.8
-1 -7 14 6.1 7.7
1 -7 -14 16.3 9.8
1 -7 -14 10.6 8
-1 -7 14 9.2 7.3
-1 7 14 -8.9 17.9
-1 7 14 13.4 6.2
0 -7 14 1.6 6.7
0 -7 14 -0.8 7.2
0 -7 -14 -0.4 6.6
0 -7 -14 14.6 9.3
0 7 14 36.8 22.5
0 7 14 10.8 6.1
1 -7 14 12.8 8.7
1 -7 14 18.5 8.5
-1 -7 -14 12 8.9
-1 -7 -14 18.7 8.7
1 7 14 19.2 7
1 7 14 30.5 19.9
2 -7 14 23.6 9.6
-2 -7 -14 30.5 9.8
-2 -7 -14 17.3 9.7
2 -7 14 20 9
2 7 14 -1 17.6
-3 -7 -14 11.8 8.3
-3 -7 -14 15.1 8.4
3 -7 14 20.3 9.1
3 -7 14 16.3 9
3 -7 14 3.1 8.3
3 7 14 3.6 16.8
-3 7 -14 3.7 5.8
-4 -7 -14 0.5 7
-4 -7 -14 4.3 7.7
4 -7 14 4.4 8.1
4 -7 14 -6.5 7.2
4 -7 14 -8 6.7
4 7 14 21.1 17.9
-4 7 -14 -4.9 5.2
-5 -7 -14 12.3 8.5
5 -7 14 22.2 9.5
5 -7 14 7.2 9.1
-5 -7 -14 17.6 8.9
5 -7 14 26.3 10.8
-5 7 -14 16.2 7.8
5 7 14 32.5 21
6 -7 14 28.2 10.6
-6 -7 -14 0.8 6.9
6 -7 14 -4.2 7.6
-6 -7 -14 9.3 7.5
6 -7 14 -6.4 7.9
-6 7 -14 -4.6 6.2
6 7 14 0.5 16.9
-7 -8 14 12.4 8.4
-7 8 14 17.3 6
-6 -8 14 3.4 7.5
6 -8 -14 18.1 10.8
-6 -8 14 4.1 8.1
-6 8 14 17.3 7.2
-6 8 14 11 5.7
-5 -8 14 16.9 8.4
-5 -8 14 1.1 6.3
5 -8 -14 -2.6 8
-5 8 14 8.2 5.9
-5 8 14 1.1 4.2
-4 -8 14 33.5 9.7
-4 -8 14 35.1 10.3
4 -8 -14 45.3 12
4 -8 -14 79.09 15.4
-4 8 14 70.19 10.7
-4 8 14 63.79 10.8
-4 8 14 30.7 20
3 -8 -14 -9.6 8.2
-3 -8 14 -11.4 5.8
3 -8 -14 12.1 8.7
-3 -8 14 -0.2 7.2
-3 8 14 -2.8 4.1
-3 8 14 -4.5 17.4
-3 8 14 -5 5
-2 -8 14 44.3 11
2 -8 -14 58.79 14.8
2 -8 -14 42 11.4
-2 -8 14 60.19 12.2
-2 8 14 45.3 9.5
-2 8 14 52.99 22.1
-1 -8 14 9.1 7.5
1 -8 -14 -5.2 8.8
-1 -8 14 6.2 8.4
1 -8 -14 3.3 8.1
-1 8 14 11.8 16.9
-1 8 14 16.3 6.7
0 -8 14 7.3 7.7
0 -8 -14 34 12.9
0 -8 14 23.4 9.6
0 -8 -14 17.2 9.1
0 8 14 16.6 8
0 8 14 14.5 17.9
-1 -8 -14 82.99 14.5
1 -8 14 87.09 14.1
-1 -8 -14 112.29 18.3
1 -8 14 128.79 16.7
1 8 14 83.19 23.9
-2 -8 -14 1.4 8.8
2 -8 14 -0.6 8
-2 -8 -14 5 8.2
2 -8 14 1.8 7.4
2 8 14 4.7 15
3 -8 14 61.49 13.7
3 -8 14 66.49 13.7
-3 -8 -14 80.29 15.2
-3 -8 -14 66.19 13.2
3 8 14 17.3 19.3
15 0 -15 0.1 5
15 0 -15 -18.4 8.3
15 0 -15 11.1 9.5
14 0 -15 0.6 4.8
14 0 -15 -5.4 7.3
14 0 -15 -6.5 8.5
13 0 -15 -1.7 4.5
13 0 -15 5 8.3
13 0 -15 -5.4 8.8
-13 0 15 1.4 3.2
12 0 -15 -0.1 4.5
12 0 -15 1.2 8.2
-12 0 15 -2.2 2.4
12 0 -15 8.3 7.7
-11 0 15 3.1 2.7
11 0 -15 1.5 4
11 0 -15 11.4 7.9
11 0 -15 4.1 7.3
10 0 -15 2.2 7.2
10 0 -15 -5 5.7
-10 0 15 1.1 2.7
10 0 -15 7.3 4.6
-10 0 15 1 2.6
9 0 -15 -1 5.6
-9 0 15 0.2 2.5
-9 0 15 -3.6 2.3
9 0 -15 7.5 7.4
9 0 -15 4 4.3
8 0 -15 7.8 4.6
-8 0 15 7.2 3.2
-8 0 15 5.4 3
8 0 -15 -1.8 5.8
8 0 -15 5.6 7.5
-7 0 15 5.1 3
-7 0 15 -0.1 2.9
7 0 -15 2.1 6.1
7 0 -15 -2.2 7.3
-6 0 15 -4.3 2.5
-6 0 15 0.8 2.9
6 0 -15 0.1 5.9
6 0 -15 14.1 7.6
5 0 -15 7.2 6.9
-5 0 15 -2.6 2.3
-5 0 15 1.4 2.6
-4 0 15 -1.5 2.6
-4 0 15 -1 2.5
4 0 -15 -4.5 2.8
-3 0 15 0.7 2.7
3 0 -15 -1.6 2.9
3 0 -15 -1.4 3
-3 0 15 2.7 2.9
-2 0 15 3.5 3.4
2 0 -15 3.2 3.6
-2 0 15 -1.6 2.7
2 0 -15 2.4 3.8
2 0 -15 1.9 3.4
1 0 -15 1.6 3
-1 0 15 -1.8 3.1
1 0 -15 -0.1 3.4
-1 0 15 3.2 3.2
1 0 -15 -5.2 3
0 0 15 -1 3.3
0 0 -15 -4 3.6
0 0 -15 -0.7 3.3
0 0 15 -1.3 2.9
0 0 -15 -4.4 3.3
1 0 15 2 3.6
-1 0 -15 8 4.3
1 0 15 -1 3.3
-1 0 -15 2.1 4.1
-1 0 -15 -0.5 3.7
2 0 15 0.1 4.1
-2 0 -15 1.1 3.6
2 0 15 0.7 4.1
-2 0 -15 -6.1 3.7
-2 0 -15 -2.6 4
3 0 15 3.4 4.2
-3 0 -15 7.4 4.7
-3 0 -15 -5.4 3.7
3 0 15 4 4.7
-3 0 -15 11 5.6
-4 0 -15 1.1 3.9
4 0 15 3 4.9
-4 0 -15 8.9 5.3
4 0 15 12.7 7.5
-4 0 -15 -2 4.6
4 0 15 -3.8 4.2
-5 0 -15 -0.4 4.4
-5 0 -15 -3.9 3.8
5 0 15 -0.1 4.1
-5 0 -15 5.2 4.9
5 0 15 2.8 6.7
-6 0 -15 2.5 5.2
-6 0 -15 4.1 4.1
6 0 15 0.3 4.7
6 0 15 -0.3 17.7
-6 0 -15 -0.7 4.5
6 0 15 -1.5 6.3
-7 0 -15 5.1 5.1
7 0 15 2.8 6.6
-7 0 -15 -2.1 5.1
-7 0 -15 -2.1 4.3
8 0 15 -3.6 6.1
-8 0 -15 -10.8 4.7
-8 0 -15 1.8 5.1
-8 0 -15 -3.5 4.6
9 0 15 0.4 6.4
-9 0 -15 -4.9 5.3
-9 0 -15 -8 5.2
-9 0 -15 -1.2 5.5
-10 0 -15 -0.3 5.7
-10 0 -15 -7.7 4.8
-10 0 -15 4.8 5.9
10 0 15 1.8 6.6
-11 0 -15 0.4 6.1
-11 0 -15 -0.2 5.6
11 0 15 -8.2 5.8
-11 0 -15 3.4 6.2
15 -1 -15 22.7 12
15 -1 -15 0.7 9
15 -1 -15 1.9 5.8
15 1 -15 16.5 7.3
15 1 -15 0.1 9.7
15 1 -15 -6.4 9.8
14 -1 -15 17.1 9.8
14 -1 -15 2.9 9.5
14 -1 -15 24.2 8.3
-14 1 15 18.5 4.4
14 1 -15 29.6 11
14 1 -15 12.3 6.5
14 1 -15 14.2 11
13 -1 -15 -4.1 7.8
13 -1 -15 -0.1 5.2
13 -1 -15 -6.3 7.4
-13 1 15 0.5 2.9
13 1 -15 0.2 8.2
13 1 -15 13.8 9.8
13 1 -15 -2.8 4.2
12 -1 -15 0.9 4.4
-12 -1 15 1 2.8
12 -1 -15 -6.6 7.6
12 -1 -15 1.3 7.5
-12 1 15 3.8 3.2
12 1 -15 4.2 8.1
12 1 -15 8.1 9.2
12 1 -15 2.7 4.9
11 -1 -15 0.3 7.3
-11 -1 15 -1.5 2.5
11 -1 -15 3 4.9
11 -1 -15 4.8 7.1
-11 1 15 -3 2.5
11 1 -15 -3 3.6
11 1 -15 0 8.1
11 1 -15 1 7.1
-11 1 15 1.8 2.9
-10 -1 15 63.49 6.5
10 -1 -15 97.79 14.3
10 -1 -15 75.99 10.3
10 -1 -15 85.49 12.2
10 1 -15 97.29 14.7
-10 1 15 91.89 8.7
10 1 -15 95.79 13.4
-10 1 15 93.79 8.3
10 1 -15 89.39 11.4
9 -1 -15 7.9 7
9 -1 -15 1.9 4.4
-9 -1 15 2 2.7
9 -1 -15 -0.1 7.2
-9 -1 15 1.3 2.7
-9 1 15 -1 2.6
9 1 -15 -1.6 6.7
-9 1 15 -0.6 2.5
9 1 -15 -4.9 5.2
9 1 -15 -0.3 3.7
8 -1 -15 109.29 11.4
-8 -1 15 114.69 8.1
-8 -1 15 112.59 8.5
8 -1 -15 113.79 13.5
8 -1 -15 110.89 14
-8 1 15 122.39 8.3
8 1 -15 104.49 14.6
8 1 -15 114.99 12.9
-8 1 15 112.79 8.6
-7 -1 15 -0.7 3
-7 -1 15 -4.1 2.5
7 -1 -15 8 4.9
7 -1 -15 10.4 6.9
7 -1 -15 -6 6.7
-7 1 15 2.1 3.1
-7 1 15 1.3 3
7 1 -15 -10.1 6.4
7 1 -15 -5.9 5.8
-6 -1 15 87.59 8.2
-6 -1 15 103.49 8.4
6 -1 -15 93.79 13.5
6 1 -15 88.59 13.2
6 1 -15 100.39 11.7
-6 1 15 99.49 8.3
-6 1 15 97.89 8.8
-5 -1 15 321.77 15
-5 -1 15 302.57 13.9
5 -1 -15 308.17 20.7
5 -1 -15 285.47 15.1
5 1 -15 305.17 20.8
-5 1 15 304.27 14.9
-5 1 15 298.27 14.1
5 1 -15 297.27 17.2
4 -1 -15 183.68 12.4
-4 -1 15 192.88 10.9
-4 -1 15 187.88 11.5
4 1 -15 188.98 15
-4 1 15 191.08 11.1
-4 1 15 209.58 11.9
4 1 -15 220.38 11.7
4 1 -15 151.48 15.4
-3 -1 15 6 3.4
-3 -1 15 1.6 3.3
3 -1 -15 5.4 4.3
3 -1 -15 5.4 4
3 -1 -15 -2.5 3.3
3 1 -15 0.6 3.1
-3 1 15 5.8 3.2
-3 1 15 6.2 3.8
3 1 -15 8.6 3.8
2 -1 -15 10.1 4.7
2 -1 -15 11.6 4.8
-2 -1 15 11.7 4.1
-2 -1 15 10.6 3.9
2 -1 -15 6.5 3.8
-2 1 15 10.1 4
2 1 -15 12.3 4.1
-2 1 15 10.7 3.9
2 1 -15 17.1 4.8
1 -1 -15 688.53 28.1
-1 -1 15 699.03 26.3
1 -1 -15 695.13 26.1
1 -1 -15 684.23 26.1
-1 -1 15 713.33 25.9
-1 1 15 719.83 25.6
-1 1 15 681.63 26.2
1 1 -15 709.23 26.7
1 1 -15 697.53 25.5
1 1 -15 652.03 24.6
0 -1 15 534.85 21.8
0 -1 -15 487.35 21.4
0 -1 -15 525.15 23.4
0 -1 -15 493.65 21
0 -1 15 502.85 20.9
0 1 -15 528.15 21
0 1 -15 500.25 21.9
0 1 15 532.65 21.7
0 1 -15 509.85 20.6
0 1 15 469.05 20.2
-1 -1 -15 110.99 12.5
-1 -1 -15 97.89 9.6
-1 -1 -15 77.89 9.3
1 -1 15 106.19 10.2
1 -1 15 103.19 10.7
-1 1 -15 110.09 10.2
-1 1 -15 101.89 10.9
-1 1 -15 90.49 9.1
1 1 15 80.49 8.8
1 1 15 102.79 10.4
2 -1 15 283.37 16.1
-2 -1 -15 295.17 16.2
-2 -1 -15 284.37 17.5
2 -1 15 302.67 16.2
-2 -1 -15 282.97 15.6
-2 1 -15 282.97 16.8
-2 1 -15 274.77 15.1
2 1 15 298.47 15.1
2 1 15 275.97 15.4
-2 1 -15 287.47 15.1
3 -1 15 4.3 5.3
-3 -1 -15 1.2 5.3
-3 -1 -15 3.3 4.2
-3 -1 -15 1.3 4.9
3 -1 15 -1.7 4.7
-3 1 -15 1.1 4
-3 1 -15 2.2 4.5
3 1 15 0.8 4.1
3 1 15 2 3.9
-3 1 -15 -2.3 4.4
-4 -1 -15 24.8 7
4 -1 15 35.9 7.6
-4 -1 -15 34.9 7.2
4 -1 15 25.1 6.5
4 -1 15 14.1 8.6
-4 -1 -15 33.5 7.6
4 1 15 16.6 7.9
4 1 15 18.4 5.8
-4 1 -15 9.5 5.4
4 1 15 15.8 5.5
-4 1 -15 17.3 5.9
-4 1 -15 20.2 6.3
-5 -1 -15 70.99 10.7
5 -1 15 72.99 10.4
5 -1 15 62.29 11
5 -1 15 58.49 9.1
-5 -1 -15 55.59 8.7
-5 -1 -15 79.19 10.3
-5 1 -15 55.89 8.6
5 1 15 57.89 8.6
5 1 15 29.5 21.2
-5 1 -15 63.19 10
5 1 15 65.09 10.9
-5 1 -15 61.89 9.1
-6 -1 -15 20.3 5.8
6 -1 15 7.7 7.7
6 -1 15 29.5 7.6
-6 -1 -15 34.3 7.2
-6 -1 -15 29.4 8.2
-6 1 -15 16.6 6
6 1 15 15.1 7.2
-6 1 -15 24.8 6.5
6 1 15 15.8 18.9
6 1 15 8.7 5.3
-6 1 -15 21.2 6.9
7 -1 15 42.1 8.9
-7 -1 -15 28.5 8.3
7 -1 15 29.6 8.8
-7 -1 -15 40 8.6
-7 -1 -15 38.5 7.6
-7 1 -15 44.9 8
7 1 15 21.5 7.7
-7 1 -15 28.9 7.9
-7 1 -15 22.7 6.5
7 1 15 42.8 19.2
8 -1 15 5.8 6.7
-8 -1 -15 4.7 4.8
-8 -1 -15 11.8 6.9
-8 -1 -15 6.2 6
8 1 15 2.3 6.4
8 1 15 -1.7 13.2
-8 1 -15 11.6 5.9
-8 1 -15 6.1 5.1
-8 1 -15 8.1 5.9
-9 -1 -15 14.4 7
9 -1 15 -4.6 6.1
-9 -1 -15 4.9 6
-9 -1 -15 -4.5 5.6
-9 1 -15 -1.4 5.2
9 1 15 1.1 6.4
-9 1 -15 2.7 5.4
-9 1 -15 2.1 5.2
10 -1 15 54.59 11.5
-10 -1 -15 29.1 8.1
-10 -1 -15 42.8 9.3
-10 -1 -15 25.3 8.4
-10 1 -15 44.3 8.6
10 1 15 37 9.7
-10 1 -15 42.6 9.4
-10 1 -15 33.1 8.5
11 -1 15 18.6 8.5
-11 -1 -15 13.3 6.9
-11 -1 -15 18.8 7.4
-11 -1 -15 17.8 7.9
-11 1 -15 15.5 6.7
-11 1 -15 8.4 6.6
-11 1 -15 4.4 5.8
11 1 15 17.2 8.1
14 -2 -15 85.19 15.5
14 -2 -15 72.79 14.2
14 -2 -15 72.09 11.8
14 2 -15 98.79 18.1
14 2 -15 72.49 14.7
14 2 -15 84.69 12.1
13 -2 -15 30.3 10.3
13 -2 -15 41.1 9.5
13 -2 -15 27.3 10.5
13 2 -15 29.3 8.4
13 2 -15 23.9 10.2
13 2 -15 13.3 11.7
12 -2 -15 89.89 14.1
12 -2 -15 84.19 14
12 -2 -15 65.19 9.9
12 2 -15 54.59 14.2
12 2 -15 57.19 10.3
-12 2 15 57.19 7.5
12 2 -15 71.09 13.9
-11 -2 15 47.7 5.7
11 -2 -15 34.9 7.9
11 -2 -15 55.39 10.9
11 -2 -15 62.09 12.1
11 2 -15 54.39 13.1
11 2 -15 46.5 8.8
11 2 -15 54.79 12
-11 2 15 59.69 7
-11 2 15 65.89 7.6
10 -2 -15 40.3 9.8
10 -2 -15 42.5 10.2
-10 -2 15 36.8 5.2
10 -2 -15 43.3 7.9
-10 2 15 29.4 5.1
10 2 -15 23.6 7
-10 2 15 44.3 6.4
10 2 -15 36.1 10.3
10 2 -15 28.2 10.3
-9 -2 15 13.9 3.6
9 -2 -15 23.1 7.6
9 -2 -15 15.4 5.4
9 -2 -15 20.1 8.4
-9 2 15 15.1 4.3
9 2 -15 25.1 8.2
9 2 -15 15.2 8.1
-9 2 15 17.8 4.3
8 -2 -15 349.27 22.9
8 -2 -15 373.26 19.9
8 -2 -15 374.16 21.7
-8 -2 15 387.86 16
-8 -2 15 350.16 15
8 2 -15 380.96 24.5
-8 2 15 374.16 16.8
-8 2 15 351.06 15.9
8 2 -15 377.66 21.5
7 -2 -15 19.6 5.9
-7 -2 15 1.8 3.1
7 -2 -15 12.5 7
7 -2 -15 2.5 6.8
-7 -2 15 7.8 3.7
7 2 -15 -0.5 6.1
7 2 -15 6.4 7.8
-7 2 15 12.8 4
-7 2 15 10.8 4
6 -2 -15 59.09 11.2
-6 -2 15 82.49 8
-6 -2 15 63.69 7.5
-6 2 15 66.19 7.5
6 2 -15 76.89 10.5
6 2 -15 62.99 12.1
-6 2 15 72.39 8.4
-5 -2 15 32.7 5.8
5 -2 -15 26.6 6.7
-5 -2 15 25.3 5.3
5 2 -15 33.6 9.5
-5 2 15 31.4 6
5 2 -15 19.4 6.6
-5 2 15 30 5.6
-4 -2 15 15.3 4.5
4 -2 -15 10.5 5.2
4 2 -15 10 5.3
4 2 -15 12.2 4.1
4 2 -15 9.4 6.9
-4 2 15 6.4 4
-4 2 15 6.8 3.5
3 -2 -15 408.36 20.2
-3 -2 15 398.26 18
-3 -2 15 358.56 17
3 -2 -15 394.76 18.4
3 2 -15 383.36 16.6
-3 2 15 387.46 17
3 2 -15 375.76 16.9
3 2 -15 411.26 23.2
-3 2 15 380.66 17.7
3 2 -15 390.96 18.5
2 -2 -15 33.4 7.4
-2 -2 15 26.2 5.9
-2 -2 15 24.9 5.5
2 -2 -15 19.2 5.5
2 -2 -15 35.2 7.1
2 2 -15 27.7 5.6
-2 2 15 36 6
2 2 -15 31.4 8.8
-2 2 15 38.2 6.5
2 2 -15 31.6 5.6
1 -2 -15 18.8 5.3
1 -2 -15 12.5 5.9
-1 -2 15 20.6 5.6
1 -2 -15 18.1 5.9
-1 -2 15 15 5
1 2 -15 13.5 4.5
-1 2 15 19.9 5.3
1 2 -15 7.7 4.3
-1 2 15 20.1 5
0 -2 15 250.77 14.8
0 -2 -15 265.97 15.5
0 -2 -15 250.67 16.3
0 -2 15 256.37 14.6
0 -2 -15 244.18 14
0 2 -15 223.98 13.9
0 2 15 250.17 13.5
0 2 -15 231.98 12.9
0 2 15 275.17 14.6
0 2 -15 233.98 13
-1 -2 -15 46.1 8.2
1 -2 15 43 7.8
-1 -2 -15 42.5 8.4
-1 -2 -15 48.8 7.6
1 -2 15 30.1 6.7
-1 2 -15 39.1 6.1
-1 2 -15 38.6 7.2
1 2 15 59.29 8.2
-1 2 -15 41.7 7
1 2 15 34.4 6.3
-2 -2 -15 8.7 4.6
-2 -2 -15 3.9 5.5
-2 -2 -15 19.1 6.6
2 -2 15 -0.6 4.1
2 -2 15 6.4 5.1
2 2 15 9.7 4.7
-2 2 -15 4.3 4.3
-2 2 -15 7.3 5.2
-2 2 -15 3.5 4.5
2 2 15 11.1 4.6
3 -2 15 31.9 7.3
-3 -2 -15 48.9 8.9
-3 -2 -15 39.9 7.8
3 -2 15 40.5 7.9
-3 -2 -15 34.7 8.4
3 2 15 37.3 7.1
3 2 15 53.19 8
-3 2 -15 35.1 6.6
-3 2 -15 44.7 8.3
-3 2 -15 42.5 7.1
-4 -2 -15 -1.6 5.4
-4 -2 -15 -0.3 5.1
-4 -2 -15 12.8 4.8
4 -2 15 1.9 7
4 -2 15 6.9 5.4
4 -2 15 1.5 4.8
4 2 15 18.9 22.7
4 2 15 9.2 6.8
-4 2 -15 0.1 4
-4 2 -15 -0.1 4.3
4 2 15 -0.7 4
-4 2 -15 -0.4 4.1
-5 -2 -15 5 4.2
5 -2 15 6 5.2
5 -2 15 14.2 8.1
5 -2 15 3 5.4
-5 -2 -15 28.7 7.1
-5 2 -15 14.8 5.5
5 2 15 25.1 5.7
5 2 15 8.9 6.4
5 2 15 6.9 19.7
-5 2 -15 9.6 5.5
-5 2 -15 7.7 5.4
6 -2 15 44.4 8.6
6 -2 15 47.2 11
-6 -2 -15 29 7.5
-6 -2 -15 60.69 10.5
-6 -2 -15 27.5 6.6
-6 2 -15 38.8 8.3
-6 2 -15 60.19 9
-6 2 -15 44.2 7.9
6 2 15 30 19.5
6 2 15 33.8 8.3
7 -2 15 59.29 10.3
-7 -2 -15 63.19 10.9
-7 -2 -15 91.59 11.8
7 -2 15 56.89 10.9
-7 -2 -15 82.29 10.4
7 2 15 80.39 11.1
7 2 15 97.09 23.3
-7 2 -15 74.29 10.4
-7 2 -15 86.09 11.7
-7 2 -15 80.09 10.6
8 -2 15 69.19 12.3
-8 -2 -15 69.89 10.6
-8 -2 -15 53.79 10.9
-8 -2 -15 69.19 10.8
8 2 15 36.8 18.4
-8 2 -15 61.49 10.6
8 2 15 80.99 11.8
-8 2 -15 60.39 9.5
-9 -2 -15 135.49 14.5
-9 -2 -15 117.39 13.3
9 -2 15 106.19 14.3
-9 -2 -15 114.79 14.8
-9 2 -15 107.79 14.4
-9 2 -15 118.79 13.7
9 2 15 113.29 22.7
9 2 15 134.89 14.9
-10 -2 -15 -8.3 5.5
-10 -2 -15 -2.4 5.8
10 -2 15 -2.9 6.9
-10 -2 -15 13.5 6.8
-10 2 -15 -2 5.7
-10 2 -15 -2.9 4.9
10 2 15 2.9 6.6
-11 -2 -15 9.1 6
11 -2 15 -1.8 6.6
-11 -2 -15 3.4 6.1
-11 -2 -15 4.9 6.5
-11 2 -15 6.4 6.4
11 2 15 -2.8 6.4
-11 2 -15 -1.4 5.8
14 -3 -15 77.09 12.3
14 -3 -15 77.59 14.1
14 3 -15 85.29 18
14 3 -15 92.09 13.4
14 3 -15 85.39 16.1
13 -3 -15 78.49 13.8
13 -3 -15 66.59 10.8
-13 3 15 64.99 8.5
13 3 -15 56.09 15.1
13 3 -15 79.29 15.3
13 3 -15 62.19 10.9
12 -3 -15 7.1 5.8
12 -3 -15 6.8 7.9
12 -3 -15 -9.4 6.9
12 3 -15 -1.5 5
12 3 -15 -7.1 7.8
-12 3 15 2.8 3.7
12 3 -15 -2 8.7
11 -3 -15 -0.1 4.7
11 -3 -15 5 8.1
11 -3 -15 -3.6 6.8
11 3 -15 3.4 8
11 3 -15 17.8 10.7
-11 3 15 6.2 3.8
11 3 -15 -2.9 4.7
10 -3 -15 9.5 5.5
-10 -3 15 11.5 3.7
10 -3 -15 11.8 8.2
10 -3 -15 20.7 8.6
-10 3 15 23.4 5.7
10 3 -15 19.4 8.6
10 3 -15 8.5 9.1
-9 -3 15 40 5.6
9 -3 -15 25.4 8.9
9 -3 -15 26.1 6.2
9 -3 -15 30.4 8.9
9 3 -15 20.3 10.3
-9 3 15 36.1 6.1
-9 3 15 46 7
9 3 -15 22 9.3
8 -3 -15 57.19 8.4
8 -3 -15 72.79 11.3
-8 -3 15 80.09 8.2
8 -3 -15 80.39 12.2
-8 -3 15 82.79 7.9
-8 3 15 75.49 8.6
8 3 -15 88.79 12
-8 3 15 84.69 8.8
8 3 -15 91.19 13.8
-7 -3 15 13.2 4.6
7 -3 -15 9.8 5.1
-7 -3 15 12.9 4.2
7 -3 -15 5.8 7.1
-7 3 15 10.8 3.9
7 3 -15 14.9 6.7
7 3 -15 2.8 6.5
-7 3 15 16.8 4.8
6 -3 -15 12.5 8
6 -3 -15 24.8 7.4
-6 -3 15 7.4 4
-6 -3 15 21.1 5
-6 3 15 18.5 4.9
6 3 -15 12.6 6.5
-6 3 15 18.7 4.8
6 3 -15 12 7.9
-5 -3 15 17.7 5
5 -3 -15 7.2 6
-5 -3 15 17.3 5
5 3 -15 12.1 7.8
-5 3 15 20 5.3
-5 3 15 10 4.5
5 3 -15 24.1 6.8
-4 -3 15 52.49 7.8
4 -3 -15 81.69 11.1
-4 -3 15 79.79 8.7
4 3 -15 60.69 8.6
-4 3 15 57.99 7.4
-4 3 15 64.09 8.4
4 3 -15 83.39 7.9
4 3 -15 42 9.9
3 -3 -15 61.09 9.5
-3 -3 15 56.79 8
3 -3 -15 77.09 10.8
-3 -3 15 56.29 8.1
3 3 -15 55.89 6.8
3 3 -15 72.79 11.7
3 3 -15 50.39 7.6
-3 3 15 44.2 6.6
-3 3 15 57.09 8.1
-2 -3 15 1.1 4.3
2 -3 -15 6.3 6.1
-2 -3 15 -1.9 4.2
2 -3 -15 -3.9 4.9
-2 3 15 7.9 4.6
-2 3 15 6.5 4.1
2 3 -15 11.1 4
2 3 -15 -3.2 6.3
2 3 -15 10.7 4.6
1 -3 -15 9.4 5.1
-1 -3 15 10.5 5.3
-1 -3 15 20.7 5.9
1 -3 -15 14.8 6.1
1 -3 -15 11.6 6.6
-1 3 15 5.5 4.1
1 3 -15 6 4.2
-1 3 15 9.5 4.8
1 3 -15 24.3 8.4
1 3 -15 18.5 5.3
0 -3 -15 -7.4 4.7
0 -3 15 7.6 5.4
0 -3 -15 0.9 4.3
0 -3 -15 -1.2 5.1
0 -3 15 4.8 5
0 3 -15 12.4 4.8
0 3 15 -0.7 3.6
0 3 -15 0.5 3.3
0 3 15 -5.2 3.1
1 -3 15 48.6 8.4
-1 -3 -15 61.89 8.7
-1 -3 -15 58.79 10.3
-1 -3 -15 57.39 9.5
1 -3 15 47.5 8.4
-1 3 -15 54.99 7.4
-1 3 -15 44 7.6
1 3 15 43.1 7.2
1 3 15 65.09 8.6
-2 -3 -15 114.29 13.6
2 -3 15 98.79 11.8
2 -3 15 96.59 11.5
-2 -3 -15 101.29 11
-2 -3 -15 112.89 12.5
-2 3 -15 93.59 10.7
2 3 15 102.99 10.6
-2 3 -15 116.39 10.8
2 3 15 132.69 10.9
-3 -3 -15 6.6 6.3
3 -3 15 27.4 9.4
-3 -3 -15 3.3 4.4
-3 -3 -15 20.6 6.7
3 -3 15 19.2 6.6
3 -3 15 10.8 6.5
3 3 15 17.7 24.1
3 3 15 20.6 7.7
-3 3 -15 18.4 6.5
-3 3 -15 11.8 4.9
3 3 15 17.6 5
-4 -3 -15 72.59 9.6
4 -3 15 92.39 11.8
-4 -3 -15 54.59 9.3
4 -3 15 70.29 10.7
-4 -3 -15 64.09 11.3
4 -3 15 56.09 10.9
4 3 15 98.19 26.7
4 3 15 71.59 10.6
-4 3 -15 75.99 9.4
4 3 15 79.69 9.8
-4 3 -15 90.59 11.7
5 -3 15 2 5.6
-5 -3 -15 4.3 6.1
5 -3 15 8.4 5.9
5 -3 15 9.7 7.6
-5 -3 -15 9.5 6.2
-5 -3 -15 4.6 4.6
5 3 15 -1.4 5.6
5 3 15 5.7 4.4
-5 3 -15 7.6 5.9
5 3 15 7.2 20
-5 3 -15 2 4.2
6 -3 15 -9.3 6.6
-6 -3 -15 8.8 6.5
6 -3 15 -3.2 5.2
-6 -3 -15 1.8 4.5
-6 -3 -15 3.8 5.8
6 -3 15 -7.2 7.8
6 3 15 -2.9 5.6
6 3 15 -13.7 15.6
-6 3 -15 2.9 4.5
-6 3 -15 0.2 4.8
7 -3 15 49.8 10.7
-7 -3 -15 45.8 9
-7 -3 -15 52.99 8.7
7 -3 15 39.7 9.8
-7 -3 -15 56.19 10.8
7 3 15 44.3 13.4
-7 3 -15 63.99 10.3
7 3 15 42.6 19.9
-7 3 -15 45.3 9.4
8 -3 15 13.2 8.2
8 -3 15 19.2 9.2
-8 -3 -15 14.3 6.6
-8 -3 -15 23.3 8.3
-8 -3 -15 16.8 8.3
8 3 15 0 15.6
-8 3 -15 29.1 8.5
-8 3 -15 26.2 7.7
9 -3 15 20.8 9.3
-9 -3 -15 20.1 7.8
-9 -3 -15 21.9 8.4
-9 -3 -15 24.3 7.4
9 3 15 8.3 15.1
-9 3 -15 18.2 7.5
-9 3 -15 20 7.7
-10 -3 -15 10 7.8
10 -3 15 -1.1 7.8
-10 -3 -15 5.1 6.4
-10 -3 -15 6.5 6.2
-10 3 -15 5.5 6.6
-10 3 -15 7.6 6.7
10 3 15 25.8 16
13 -4 -15 1.8 7.6
13 -4 -15 3.7 6
13 4 -15 -9.1 10.2
13 4 -15 -0.4 5.1
-13 4 15 1.7 3.8
13 4 -15 6.7 10.3
12 -4 -15 56.49 10.1
12 -4 -15 44.1 10.9
12 4 -15 63.59 15.6
-12 4 15 71.69 9.4
12 4 -15 59.49 13.4
11 -4 -15 -8.3 7.1
11 -4 -15 0 5
11 4 -15 -2.5 9.7
-11 4 15 3.5 4.1
11 4 -15 -7.5 7.8
10 -4 -15 56.49 11.2
-10 -4 15 49.5 6.7
10 -4 -15 55.39 9.1
10 4 -15 45.4 12.5
10 4 -15 66.69 14.6
-10 4 15 51.99 7.9
9 -4 -15 7.6 7.1
9 -4 -15 15.6 8
9 -4 -15 9.8 5.3
-9 -4 15 0.1 3.4
9 4 -15 1.5 6.6
-9 4 15 7 4.3
-9 4 15 14.3 4.5
9 4 -15 -5.8 7.3
8 -4 -15 102.59 13.9
-8 -4 15 126.49 9.3
8 -4 -15 123.49 12.3
8 -4 -15 133.69 14.9
8 4 -15 117.59 16.6
-8 4 15 124.09 10.5
-8 4 15 126.69 9.8
8 4 -15 139.59 14.6
7 -4 -15 2 4.4
-7 -4 15 -1.7 3.4
7 -4 -15 -4.3 6.1
-7 -4 15 1 3.8
-7 4 15 1.6 3.1
-7 4 15 1.9 3.4
7 4 -15 6.1 6.8
7 4 -15 -1.9 5.6
-6 -4 15 130.59 10.4
6 -4 -15 116.89 13.4
-6 -4 15 135.59 10.2
-6 4 15 125.69 9.7
6 4 -15 124.59 13.7
6 4 -15 104.99 14.3
-6 4 15 138.59 11
5 -4 -15 1.3 5.2
-5 -4 15 1.2 3.6
-5 -4 15 -3.1 3.4
5 4 -15 0.3 6
-5 4 15 4.4 3.6
-5 4 15 2.7 3.6
-4 -4 15 4.9 4.6
4 -4 -15 1.7 5.6
-4 -4 15 4.6 4.3
4 -4 -15 1.1 5.4
4 4 -15 -1.9 6.2
-4 4 15 1.7 3.4
-4 4 15 6 3.9
3 -4 -15 9.3 6.5
3 -4 -15 7.4 5.9
-3 -4 15 29.2 6.6
-3 -4 15 15.3 5.7
-3 4 15 9.9 4.1
-3 4 15 16.3 5.3
3 4 -15 23.6 8
2 -4 -15 1.2 4.9
2 -4 -15 -3.2 5.2
-2 -4 15 1.8 4.6
-2 -4 15 -2.3 4.3
-2 4 15 6.8 4.5
2 4 -15 3.8 6.2
-2 4 15 -1.5 3.4
-1 -4 15 13.4 6.2
1 -4 -15 11.9 6.4
1 -4 -15 9 6.7
-1 -4 15 5.8 5.3
-1 4 15 8.1 4.3
1 4 -15 3.8 4.2
1 4 -15 6.1 3.8
-1 4 15 8.9 4.4
1 4 -15 6.7 6.5
0 -4 -15 82.89 12.6
0 -4 -15 57.69 9.6
0 -4 15 76.59 10.3
0 -4 15 92.89 11.5
0 -4 -15 74.59 9.3
0 4 -15 69.89 11
0 4 -15 88.79 10.1
0 4 15 74.09 8.7
0 4 15 72.89 9.2
0 4 -15 77.49 8.2
-1 -4 -15 132.99 14.9
1 -4 15 158.98 14.6
-1 -4 -15 166.38 15.6
-1 -4 -15 156.88 11.7
1 -4 15 136.99 13.6
-1 4 -15 147.39 10.5
1 4 15 181.78 34.1
-1 4 -15 145.69 11.7
-1 4 -15 167.18 14.9
1 4 15 155.98 12.1
1 4 15 150.68 11.2
-2 -4 -15 0.4 4.3
2 -4 15 -1.6 5.4
-2 -4 -15 -1.2 4.7
2 -4 15 6.4 5
-2 -4 -15 7.4 6.1
2 4 15 -9.6 20.2
2 4 15 3.1 3.8
-2 4 -15 8.1 4.8
-2 4 -15 1.5 3.7
2 4 15 1 4
3 -4 15 196.98 15.1
-3 -4 -15 158.28 15.8
-3 -4 -15 208.68 13.6
-3 -4 -15 145.49 16
3 -4 15 231.48 16.3
3 -4 15 220.88 19.4
-3 4 -15 201.58 12.6
-3 4 -15 169.08 13.7
3 4 15 171.88 31.6
3 4 15 188.28 13.3
-4 -4 -15 72.79 10.8
-4 -4 -15 76.59 9.8
4 -4 15 64.39 12.1
4 -4 15 49.2 9.8
4 -4 15 59.49 10.7
-4 -4 -15 87.99 13
-4 4 -15 46.5 7.8
4 4 15 72.69 23.4
-4 4 -15 67.09 10.3
4 4 15 58.69 8.5
5 -4 15 -3.9 7.3
-5 -4 -15 -4.8 4
5 -4 15 -2.5 5.7
-5 -4 -15 4.9 6.3
5 -4 15 2.2 6.2
-5 -4 -15 14.3 7
5 4 15 -5.7 16.5
-5 4 -15 2.7 4.2
-5 4 -15 3.1 5.2
-6 -4 -15 14 6.7
6 -4 15 13.5 7.5
-6 -4 -15 11 7.2
6 -4 15 10.8 8.5
-6 -4 -15 1.9 5.2
6 -4 15 20.6 8.2
-6 4 -15 11 7
6 4 15 29.6 18.1
-6 4 -15 12.9 5.6
-7 -4 -15 4.3 5.5
-7 -4 -15 -5.8 5.5
7 -4 15 -3.6 7.6
-7 -4 -15 -1.8 5.9
7 -4 15 -1.1 6.7
-7 4 -15 -1.3 5.3
7 4 15 -10.6 15.1
-7 4 -15 2.4 5.1
-8 -4 -15 -0.1 6.1
8 -4 15 -3.4 7.5
-8 -4 -15 1.1 4.7
8 -4 15 -2.8 6.4
-8 -4 -15 -5.7 5.7
8 4 15 4.9 14
-8 4 -15 -0.9 4.8
-8 4 -15 1.5 6.3
-9 -4 -15 4.2 6.6
-9 -4 -15 5.6 5.4
-9 -4 -15 5.6 6.8
9 -4 15 -2.2 7.6
-9 4 -15 -3.6 4.7
-9 4 -15 2.8 5.1
9 4 15 -8 13.8
12 -5 -15 28.1 8.1
12 -5 -15 30.2 10.4
-12 5 15 23.4 6.4
12 5 -15 29.8 12.9
12 5 -15 25.8 12.7
11 -5 -15 3.3 7.9
11 -5 -15 -5.4 4.8
-11 5 15 12.4 5.3
11 5 -15 11.3 9.7
11 5 -15 18.3 11.6
10 -5 -15 21.6 6.9
10 -5 -15 17.4 8.7
-10 -5 15 25.6 6
-10 5 15 29.3 6.8
10 5 -15 25.9 11.3
10 5 -15 19 10.8
-9 -5 15 0.1 4.6
9 -5 -15 3.6 5.2
9 -5 -15 10.9 8.1
9 5 -15 -0.3 9.4
-9 5 15 14.8 5.4
-8 -5 15 11.7 4.9
8 -5 -15 5 5.2
-8 5 15 3.8 3.8
-8 5 15 0.3 4.1
8 5 -15 -2.6 7.6
-7 -5 15 95.99 10.9
-7 -5 15 114.59 11.4
7 5 -15 102.29 15.8
-7 5 15 112.89 12
-7 5 15 94.99 10.3
6 -5 -15 14.7 7
-6 -5 15 17.1 5.8
-6 -5 15 15.5 5.6
-6 5 15 22.5 5.5
6 5 -15 11.2 8.3
-6 5 15 12.7 5
5 -5 -15 79.89 12.2
-5 -5 15 97.19 10.9
-5 -5 15 74.99 10.1
-5 5 15 95.39 10.7
-5 5 15 80.89 9.2
5 5 -15 91.69 13.9
-4 -5 15 2.5 4.7
4 -5 -15 9.9 6.3
-4 -5 15 6.1 5.2
-4 5 15 3.4 4
-4 5 15 10.1 5
4 5 -15 5 6.4
-3 -5 15 13.7 5.9
3 -5 -15 23.4 7.7
3 -5 -15 29.1 8.8
-3 -5 15 23 6.7
-3 5 15 28.2 6.2
3 5 -15 24.2 8.2
-3 5 15 26.1 6.2
2 -5 -15 388.86 21
-2 -5 15 337.57 18.6
-2 -5 15 304.87 18.4
2 -5 -15 353.76 22.1
-2 5 15 319.47 17.6
2 5 -15 308.17 21
-2 5 15 348.47 17.3
1 -5 -15 9.8 6.5
-1 -5 15 10.9 5.8
-1 -5 15 1.5 5.1
1 -5 -15 13.3 7.1
-1 5 15 6.7 4.3
-1 5 15 6 4.7
-1 5 15 19.2 23.2
1 5 -15 7.4 7.2
0 -5 -15 253.77 19.7
0 -5 -15 247.68 17.7
0 -5 15 240.78 16.8
0 -5 15 240.28 16.7
0 5 15 246.98 15.5
0 5 -15 287.47 15.9
0 5 15 264.37 40.2
0 5 15 233.18 14.4
-1 -5 -15 23.2 6.2
1 -5 15 30.8 8.1
-1 -5 -15 26.7 9.2
1 -5 15 26.2 7.7
-1 -5 -15 49.3 9.9
1 5 15 20.5 23.8
1 5 15 11.7 5.6
1 5 15 28.1 6.9
-1 5 -15 22.9 6.3
2 -5 15 5.9 7.8
2 -5 15 2.5 6
-2 -5 -15 1.4 5.9
-2 -5 -15 5.1 4.9
2 -5 15 6.8 6.4
-2 -5 -15 9.1 6.5
-2 5 -15 12.2 4.6
-2 5 -15 0.5 4.6
2 5 15 22.9 22.7
2 5 15 14.3 5.5
3 -5 15 2.6 6.3
-3 -5 -15 6 6.8
-3 -5 -15 16.4 6.2
3 -5 15 13.5 8.6
-3 -5 -15 2.1 6.4
3 -5 15 16.4 7.6
3 5 15 4.3 4.7
3 5 15 26.1 21.2
-3 5 -15 11.6 4.5
-3 5 -15 8.1 5.3
4 -5 15 42.8 10.9
-4 -5 -15 20.5 8.2
-4 -5 -15 27.9 6.7
4 -5 15 53.89 10.8
-4 -5 -15 27.8 9.1
4 -5 15 30.6 9.1
-4 5 -15 36.3 7.1
-4 5 -15 38.2 8.7
4 5 15 36.5 21.2
-5 -5 -15 36.6 7.4
5 -5 15 43.5 10.9
-5 -5 -15 33.8 9.7
5 -5 15 17.1 8.8
-5 -5 -15 21.3 8
5 -5 15 21.8 8.8
5 5 15 18.5 18.6
-5 5 -15 23.9 6.7
-5 5 -15 38 9.2
6 -5 15 3.2 8.2
6 -5 15 11.4 7.9
-6 -5 -15 0.4 5.1
-6 -5 -15 0.7 6.7
-6 -5 -15 5.8 7.5
6 -5 15 10.6 7.9
-6 5 -15 0.8 4.1
6 5 15 1.4 16.7
-6 5 -15 6.1 6.6
-7 -5 -15 5.1 6.8
7 -5 15 15.5 8.7
-7 -5 -15 18.4 6.6
7 -5 15 10.8 9.4
-7 -5 -15 21.4 8.7
7 5 15 49.5 20.1
-7 5 -15 13.9 6.1
-7 5 -15 21.5 8.3
-8 -5 -15 32.6 9.3
-8 -5 -15 22.4 7.4
8 -5 15 49.6 12
-8 -5 -15 15.2 8.4
8 -5 15 19.9 10.5
8 5 15 20.8 17.2
-8 5 -15 26.6 9.3
-8 5 -15 12.1 6.4
11 -6 -15 36.3 10.9
-11 6 15 17.8 6.2
11 6 -15 3.3 11.3
10 -6 -15 33.2 9.7
-10 -6 15 25.4 7.1
10 6 -15 25.4 12.7
-10 6 15 37.1 7.8
9 -6 -15 39.4 10.1
-9 -6 15 61.49 9.5
9 6 -15 47.6 13.3
-9 6 15 50.09 8.8
-8 -6 15 64.59 9.9
8 6 -15 56.69 13.9
-8 6 15 74.89 10.8
-8 6 15 83.79 10.7
-7 -6 15 -4.3 5.2
-7 -6 15 3 5.4
-7 6 15 7.9 4.9
7 6 -15 5.6 9.1
-7 6 15 -2.4 4.1
-6 -6 15 28.8 8.3
-6 -6 15 17.7 6.7
6 -6 -15 41.5 10
6 6 -15 28.4 10.7
-6 6 15 31.8 6.7
-6 6 15 27.5 7.1
-5 -6 15 43.1 9
-5 -6 15 35.9 8.5
5 -6 -15 38.3 10.3
-5 6 15 50.29 8.8
5 6 -15 42.8 11.4
-5 6 15 49.2 8.3
-4 -6 15 85.39 11.7
4 -6 -15 69.09 11.8
4 -6 -15 95.39 14.2
-4 -6 15 86.59 11.8
-4 6 15 69.29 28.7
4 6 -15 79.89 13.2
-4 6 15 79.99 10.7
-4 6 15 86.19 10.2
-3 -6 15 112.19 13.4
3 -6 -15 105.59 15.4
-3 -6 15 116.89 13.5
3 -6 -15 106.39 14.2
-3 6 15 121.69 13.5
-3 6 15 69.89 28.6
-3 6 15 101.09 10.9
2 -6 -15 75.39 14.1
-2 -6 15 87.19 12.6
-2 -6 15 65.99 10.9
2 -6 -15 70.69 11.4
-2 6 15 85.49 27.7
-2 6 15 52.29 8
-2 6 15 97.49 11.8
1 -6 -15 -1.1 6.6
-1 -6 15 4.8 6.1
1 -6 -15 -6.5 6.1
-1 -6 15 3.8 6.4
-1 6 15 0.6 4.2
-1 6 15 2.3 4.3
-1 6 15 -10.5 22.3
0 -6 15 43.8 9.4
0 -6 15 41.4 9.8
0 -6 -15 23.7 7.9
0 -6 -15 46.8 11.4
0 6 15 67.89 27.5
0 6 15 30 7.4
-1 -6 -15 46.9 10.4
1 -6 15 38.7 10.2
1 -6 15 52.99 11.3
-1 -6 -15 31.2 10.1
1 -6 15 26.2 9
1 6 15 78.89 28.1
-1 6 -15 53.29 11.7
1 6 15 57.19 9.4
-2 -6 -15 4.5 7.4
-2 -6 -15 2.9 6.5
2 -6 15 15.9 8.2
2 -6 15 3.4 8.3
2 -6 15 4.2 7.7
2 6 15 -0.2 20.1
-2 6 -15 2.4 5.1
2 6 15 8.6 5.6
-3 -6 -15 65.59 13
-3 -6 -15 60.49 11.8
-3 -6 -15 60.49 9.3
3 -6 15 88.89 13.7
3 -6 15 65.89 12.1
3 -6 15 96.89 14.5
3 6 15 97.09 26.2
-3 6 -15 74.29 11.6
4 -6 15 6.3 8.2
4 -6 15 0.7 8.6
-4 -6 -15 -5.9 4.8
4 -6 15 -3.6 7
-4 -6 -15 2.2 7.3
-4 -6 -15 3.5 7.2
4 6 15 18.7 19.6
-4 6 -15 4.4 6.4
5 -6 15 33.4 10.4
-5 -6 -15 48 9.6
-5 -6 -15 52.09 11.4
5 -6 15 25.3 10.1
-5 -6 -15 43.3 11.2
5 -6 15 52.99 12
5 6 15 36.8 21.7
-5 6 -15 44.2 10.1
-6 -6 -15 4.7 7.5
6 -6 15 -1.4 8.8
-6 -6 -15 8.6 8
6 -6 15 5.1 8.2
6 -6 15 10.7 8.6
-6 6 -15 15.8 7.8
6 6 15 47.2 21.6
-6 6 -15 15.5 6.2
7 -6 15 31.1 10.7
-7 -6 -15 20.7 9.1
7 -6 15 18.3 10.1
-7 -6 -15 17.4 9
-7 6 -15 23.2 9.3
-7 6 -15 22.9 7.1
7 6 15 45 20.5
-9 -7 15 51.69 10
9 -7 -15 54.99 11.8
9 7 -15 40.2 14.5
-9 7 15 52.89 10.1
-8 -7 15 17.6 7.8
8 7 -15 18.8 11.7
-8 7 15 17.1 6.7
-8 7 15 17 5.8
-7 -7 15 15.6 7.9
-7 -7 15 26.4 8.4
-7 7 15 13.9 6.1
7 7 -15 29.2 12.4
-7 7 15 45 8.6
6 -7 -15 20.2 9.7
-6 -7 15 10.5 7.2
-6 -7 15 15.2 7.7
-6 7 15 19.6 6.9
-6 7 15 11 5.2
-5 -7 15 61.39 11
5 -7 -15 44 11.8
-5 -7 15 71.09 11.6
-5 7 15 51.19 8.7
-5 7 15 61.29 26.6
-5 7 15 50.99 9.8
-4 -7 15 -3.5 6.3
-4 -7 15 -5.2 5.6
4 -7 -15 -0.4 7.5
4 -7 -15 4 8.3
-4 7 15 10.6 22.7
-4 7 15 8.1 4.9
-4 7 15 -4.1 4.7
3 -7 -15 -3.6 8.1
-3 -7 15 3.6 6.9
3 -7 -15 13.3 7.5
-3 -7 15 4.1 6.5
-3 7 15 -1.3 4
-3 7 15 0.9 4.9
-3 7 15 -21.9 20.4
-2 -7 15 13.4 7.8
2 -7 -15 -12.6 6.2
2 -7 -15 -3.3 8.7
-2 -7 15 6.8 7.1
-2 7 15 10.7 5.7
-2 7 15 -19.7 19.7
-2 7 15 3.8 5.1
1 -7 -15 87.99 13.5
-1 -7 15 101.49 14.7
1 -7 -15 98.59 16.6
-1 -7 15 78.59 12.8
-1 7 15 80.79 11.5
-1 7 15 124.59 29.9
0 -7 -15 -5.7 7.5
0 -7 -15 4.4 7.7
0 -7 15 3.2 6.5
0 -7 15 -5.4 6.6
0 7 15 30.8 21.4
0 7 15 6.9 5.8
-1 -7 -15 -3.5 6.1
-1 -7 -15 5.9 8.5
1 -7 15 -4.9 6.5
1 -7 15 5.3 6.9
1 7 15 -4.5 4.4
1 7 15 25.9 18.9
2 -7 15 34.2 11.2
-2 -7 -15 54.49 11.6
-2 -7 -15 51.29 12.8
2 -7 15 45.2 10.9
2 -7 15 25.8 9.9
2 7 15 39.3 22
3 -7 15 -7 8
3 -7 15 -0.1 7.7
-3 -7 -15 -6.9 6.9
3 -7 15 -0.2 7.3
-3 -7 -15 -3.6 6.6
3 7 15 -8.8 16.8
-3 7 -15 1.7 5.5
4 -7 15 4.8 7.9
-4 -7 -15 0.1 7.9
4 -7 15 -16.9 7.5
-4 -7 -15 -11 5.7
4 -7 15 -9.9 6.9
4 7 15 4.1 17.9
-4 7 -15 3 6.6
-5 -7 -15 21.9 9.2
5 -7 15 6.5 9
-5 -7 -15 29.4 9.6
5 -7 15 24.1 10.2
5 -7 15 14.7 9.5
-5 7 -15 18.6 8
5 7 15 23.3 20.3
-6 -8 15 47.9 11.1
-5 -8 15 18.9 9.4
-5 -8 15 24.2 9.4
5 -8 -15 16.8 11.5
-5 8 15 17.7 6.7
-5 8 15 26.6 8.9
4 -8 -15 26.2 12.4
-4 -8 15 29.6 9.8
-4 -8 15 19.8 9.1
-4 8 15 10.4 20.9
-4 8 15 16.5 6.4
-4 8 15 2.1 6.3
-3 -8 15 5.3 7.1
-3 -8 15 8.3 8
3 -8 -15 -6.8 7.1
3 -8 -15 6 9.5
-3 8 15 -2.4 19.7
-3 8 15 -2.3 5.3
2 -8 -15 9 10.4
-2 -8 15 32.1 10.1
2 -8 -15 43.3 12.3
-2 -8 15 28.5 9.7
-2 8 15 13.6 19.7
-2 8 15 27.9 8.2
1 -8 -15 6.6 10.4
-1 -8 15 6.9 7.3
1 -8 -15 4.7 7.7
-1 -8 15 -3.4 6.7
-1 8 15 29.3 18.9
-1 8 15 0.5 5.3
0 -8 -15 9.7 10.1
0 -8 15 10.9 8.8
0 -8 -15 30.4 10.2
0 -8 15 1.5 7.8
0 8 15 11.1 19.6
1 -8 15 5.3 8.8
1 -8 15 2 7.3
-1 -8 -15 7.7 8.4
-1 -8 -15 -9.5 8
1 8 15 8.8 18.5
2 -8 15 16 9.7
2 -8 15 28.7 11
-2 -8 -15 22.5 11.3
-2 -8 -15 26.3 10.8
2 8 15 34 21.8
14 0 -16 -4 9.9
14 0 -16 3.5 5
14 0 -16 3.5 9.1
13 0 -16 -0.2 4.5
13 0 -16 2.7 9.1
13 0 -16 7 8.9
-13 0 16 2.3 3.2
-12 0 16 190.38 10.5
12 0 -16 121.89 16.3
12 0 -16 163.38 19.4
12 0 -16 162.98 16.1
11 0 -16 159.98 17.6
-11 0 16 168.88 9.9
11 0 -16 134.59 17.4
11 0 -16 137.49 14.3
-10 0 16 186.58 11
10 0 -16 169.08 14.5
10 0 -16 169.78 16.9
10 0 -16 167.98 18.5
-10 0 16 201.58 10.7
9 0 -16 146.89 17.3
9 0 -16 233.98 15.9
-9 0 16 195.58 10.7
9 0 -16 173.48 16.9
-9 0 16 187.58 11.2
8 0 -16 116.19 13.4
8 0 -16 118.29 15.7
-8 0 16 105.79 8.1
-8 0 16 105.39 8.7
7 0 -16 129.79 15.4
-7 0 16 134.09 9.7
-7 0 16 138.89 9.5
7 0 -16 161.18 15
-6 0 16 231.18 12.9
6 0 -16 255.77 20.4
-6 0 16 229.68 12.4
6 0 -16 212.28 16.2
-5 0 16 24.6 5.3
-5 0 16 23.4 5.2
5 0 -16 30.7 9.3
-4 0 16 432.86 17.9
4 0 -16 395.76 18.3
-4 0 16 417.06 18.6
-3 0 16 240.08 13.9
-3 0 16 237.38 13
3 0 -16 256.47 13.8
3 0 -16 237.88 13.9
-2 0 16 421.86 18.4
2 0 -16 420.06 19.4
2 0 -16 404.06 17.7
-2 0 16 382.16 18.3
2 0 -16 403.96 18.4
1 0 -16 331.97 15.8
1 0 -16 302.67 16.5
-1 0 16 309.37 15.3
1 0 -16 296.77 15.4
-1 0 16 284.37 15.5
0 0 -16 458.65 20.4
0 0 -16 464.95 21.9
0 0 -16 476.85 20.3
0 0 16 437.06 20.5
0 0 16 479.35 20.1
1 0 16 135.39 12.4
1 0 16 123.79 11.4
-1 0 -16 114.49 11.1
-1 0 -16 100.59 11.4
-1 0 -16 100.59 10.5
-2 0 -16 1367.46 47.4
-2 0 -16 1424.06 45.8
2 0 16 1459.15 45.4
-2 0 -16 1340.37 45.1
2 0 16 1353.66 45.8
-3 0 -16 420.56 20.1
4 0 16 21.8 7.2
-4 0 -16 23.2 7.8
4 0 16 12.3 8
-4 0 -16 35.5 7.8
-4 0 -16 27 6.5
4 0 16 27.8 7.5
-5 0 -16 67.89 10
5 0 16 52.89 9.2
5 0 16 67.29 11.4
-5 0 -16 79.79 10.2
-5 0 -16 71.49 11.2
6 0 16 372.56 23.3
6 0 16 422.86 21.4
-6 0 -16 401.16 20.3
6 0 16 220.08 33.7
-6 0 -16 401.16 20.4
-6 0 -16 384.36 21.7
-7 0 -16 4.5 5.6
-7 0 -16 5.9 5.7
-7 0 -16 8.2 5.7
7 0 16 18.5 8.5
-8 0 -16 98.29 13.5
8 0 16 82.09 12.8
-8 0 -16 81.09 11.2
-8 0 -16 92.69 11.9
9 0 16 17.9 8.9
-9 0 -16 10.1 6.6
-9 0 -16 17.4 7.2
-9 0 -16 29.5 8
10 0 16 10.5 8.2
-10 0 -16 21.9 7.6
-10 0 -16 9.8 6.8
-10 0 -16 16 7.5
14 -1 -16 74.29 15.3
14 -1 -16 91.59 15.7
14 -1 -16 62.89 11.3
14 1 -16 71.29 11.8
14 1 -16 88.19 17.4
-14 1 16 93.39 8.9
14 1 -16 70.39 15.3
13 -1 -16 24.4 11
13 -1 -16 14.3 6.4
13 -1 -16 22 9.7
-13 1 16 27.7 5.1
13 1 -16 21.5 7
13 1 -16 19.4 9.9
13 1 -16 15.5 11.1
12 -1 -16 14.8 8.7
12 -1 -16 9.1 9.7
12 -1 -16 3.6 5.5
-12 -1 16 9.9 3.8
12 1 -16 7.9 9.9
12 1 -16 0.5 4.5
12 1 -16 9.1 8.3
-12 1 16 5.8 3.3
11 -1 -16 53.29 8.9
11 -1 -16 56.79 11.7
-11 -1 16 64.09 7
11 -1 -16 64.79 13.3
11 1 -16 70.39 10.8
-11 1 16 69.79 7.7
11 1 -16 64.59 13.3
-11 1 16 76.79 8.3
11 1 -16 56.69 11.6
10 -1 -16 4.6 5.1
10 -1 -16 5.4 6.3
10 -1 -16 3.1 7.1
-10 -1 16 1.5 3
-10 1 16 -0.9 2.7
10 1 -16 -5.4 7.3
10 1 -16 0.7 4
10 1 -16 3.2 7
-10 1 16 -1.8 2.5
-9 -1 16 100.39 8.6
9 -1 -16 99.69 13.3
9 -1 -16 86.49 10.8
9 -1 -16 79.99 13.3
-9 -1 16 66.89 7.6
9 1 -16 110.79 13.9
9 1 -16 65.29 12.5
-9 1 16 89.49 8.5
-9 1 16 94.49 9
8 -1 -16 32 7.3
-8 -1 16 42.3 6.4
8 -1 -16 36.1 9.6
-8 -1 16 34.8 5.4
8 -1 -16 19.7 7.1
-8 1 16 34.4 5.8
8 1 -16 35.1 9
8 1 -16 48.6 12
-8 1 16 49.1 6.5
7 -1 -16 68.99 11
7 -1 -16 58.69 11.4
-7 -1 16 59.99 6.9
-7 -1 16 82.39 8.4
-7 1 16 63.99 7.6
7 1 -16 49.8 11.5
7 1 -16 69.19 10.9
-7 1 16 64.69 7.4
6 -1 -16 102.69 13.9
-6 -1 16 81.69 8.4
-6 -1 16 70.39 7.8
6 1 -16 95.89 11.5
-6 1 16 84.59 8.5
6 1 -16 83.99 13.1
-6 1 16 87.29 9.1
5 -1 -16 15.8 8.9
-5 -1 16 8.5 4
-5 -1 16 3.9 3.7
-5 1 16 6.6 3.8
5 1 -16 -3.4 6
-5 1 16 5.1 3.8
5 1 -16 -18.7 6.3
-4 -1 16 357.36 16.3
-4 -1 16 335.37 16.3
4 -1 -16 327.57 17.4
4 1 -16 350.06 22.7
-4 1 16 331.77 16.4
-4 1 16 361.26 16.2
4 1 -16 338.77 16.2
-3 -1 16 0 3.3
3 -1 -16 3 4.2
-3 -1 16 0.1 3.3
3 -1 -16 3.2 4.6
3 1 -16 1.9 3.7
-3 1 16 -1.9 2.9
-3 1 16 1.3 3.4
3 1 -16 -5.7 3.2
2 -1 -16 80.19 9.5
-2 -1 16 65.79 8.4
2 -1 -16 64.39 9.2
-2 -1 16 74.59 8.4
2 -1 -16 66.79 8.2
-2 1 16 69.29 8.5
-2 1 16 60.89 7.9
2 1 -16 67.79 8.1
2 1 -16 63.19 8.5
-1 -1 16 108.79 10.3
-1 -1 16 99.09 10.7
1 -1 -16 81.79 11.2
1 -1 -16 89.49 9.6
1 -1 -16 83.99 10.1
-1 1 16 87.79 9.1
1 1 -16 97.09 9.7
1 1 -16 96.39 10.4
-1 1 16 84.29 9.5
1 1 -16 78.59 8.4
0 -1 16 288.37 15.3
0 -1 -16 295.37 16
0 -1 16 287.17 15.8
0 -1 -16 280.67 17.6
0 -1 -16 263.97 14.6
0 1 16 283.87 15.6
0 1 16 270.67 14.9
0 1 -16 259.07 14.3
0 1 -16 244.18 14.3
0 1 -16 250.37 15.6
1 -1 16 330.07 17.4
-1 -1 -16 333.37 17.4
-1 -1 -16 300.77 16.6
-1 -1 -16 321.67 19
1 -1 16 309.47 16.8
1 1 16 320.17 16.8
-1 1 -16 291.17 15.9
-1 1 -16 320.37 16.3
1 1 16 285.27 15.7
-1 1 -16 343.07 18.1
-2 -1 -16 7.1 5.1
2 -1 16 5.6 5.3
-2 -1 -16 1 5.5
-2 -1 -16 4.5 4.8
2 -1 16 6.7 5.1
-2 1 -16 -2.2 3.8
2 1 16 0.5 4.4
-2 1 -16 0.9 4.2
2 1 16 1.1 4.2
-2 1 -16 4.3 5
-3 -1 -16 59.09 8.1
-3 -1 -16 64.89 9.1
-3 -1 -16 61.39 10.4
3 -1 16 60.09 8.8
3 -1 16 36.7 7.9
-3 1 -16 51.29 8.9
3 1 16 65.49 8.6
-3 1 -16 34.2 6.8
-3 1 -16 50.19 8.5
3 1 16 50.69 8
4 -1 16 49.3 8.6
4 -1 16 53.89 11.2
-4 -1 -16 36.2 7.3
-4 -1 -16 51.49 8.8
4 -1 16 43.5 8.3
-4 -1 -16 44.2 9
4 1 16 44.2 8.1
4 1 16 47.1 7.6
-4 1 -16 50.29 9.1
4 1 16 46.5 9.9
-4 1 -16 57.99 9.3
-4 1 -16 45.9 7.6
-5 -1 -16 108.59 11.9
5 -1 16 76.29 11.9
5 -1 16 127.69 13.2
5 -1 16 112.99 12.2
-5 -1 -16 105.09 12.9
-5 -1 -16 87.59 10.8
-5 1 -16 91.89 10.6
5 1 16 84.19 11.9
-5 1 -16 67.19 9.7
5 1 16 107.09 11.7
-5 1 -16 114.59 13.4
5 1 16 74.79 25.9
-6 -1 -16 14.3 5.7
6 -1 16 19.4 6.9
-6 -1 -16 10.3 6.4
6 -1 16 1.5 7.5
-6 -1 -16 3.9 5.3
6 1 16 18 8.1
-6 1 -16 25.9 6.7
-6 1 -16 8.4 5.8
6 1 16 0.4 18.4
-6 1 -16 8.8 6.3
6 1 16 11.9 6.2
-7 -1 -16 56.29 8.8
7 -1 16 92.19 12.1
-7 -1 -16 84.09 11.1
7 -1 16 53.19 10.9
-7 -1 -16 81.89 12.1
-7 1 -16 83.39 11.2
7 1 16 51.39 21.4
-7 1 -16 65.69 11.1
-7 1 -16 92.19 11.5
7 1 16 80.09 12.2
-8 -1 -16 18.5 8.2
-8 -1 -16 13 7.1
-8 -1 -16 14.8 6.7
8 -1 16 8.3 8.3
8 1 16 6.6 7.4
-8 1 -16 18.9 7.2
-8 1 -16 12.4 6.6
-8 1 -16 20.4 7.4
9 -1 16 48.1 11.8
-9 -1 -16 61.79 10.8
-9 -1 -16 47 9.8
-9 -1 -16 73.99 10.8
-9 1 -16 49.7 10.4
-9 1 -16 45.2 9.3
-9 1 -16 32.3 8.3
9 1 16 68.79 12
-10 -1 -16 13.7 7.1
10 -1 16 8.9 8.2
-10 -1 -16 7.8 6.5
-10 -1 -16 10.8 6.7
-10 1 -16 23.5 7.4
-10 1 -16 5.6 6.2
10 1 16 -9.8 5.8
-10 1 -16 11.8 6.9
14 -2 -16 1.4 9.1
14 -2 -16 6 6.1
14 -2 -16 0.6 9.2
14 2 -16 2.1 4.9
14 2 -16 -0.8 10.3
-14 2 16 4.7 3.5
14 2 -16 2.2 9.4
13 -2 -16 36.7 12
13 -2 -16 55.99 12.4
13 -2 -16 30.4 8.7
13 2 -16 47.4 9.9
-13 2 16 42.1 6.5
13 2 -16 31.4 12.7
13 2 -16 33 11.6
12 -2 -16 49.2 9.9
12 -2 -16 41.7 11.2
12 -2 -16 39.3 11.3
12 2 -16 31.3 12.5
-12 2 16 51.59 7.2
12 2 -16 55.99 10.6
-12 2 16 35.9 6.5
12 2 -16 46.2 12.4
11 -2 -16 23.9 9.6
11 -2 -16 16.6 8
-11 -2 16 12.7 4.1
11 -2 -16 17.1 6.4
11 2 -16 19.8 10.8
-11 2 16 9.7 4.2
11 2 -16 6.2 8.5
-11 2 16 13.9 4.6
11 2 -16 13.6 6.6
10 -2 -16 63.89 9.8
-10 -2 16 110.39 7.7
10 -2 -16 80.69 13
10 -2 -16 82.49 13.7
10 2 -16 91.39 14.8
-10 2 16 82.39 9
-10 2 16 77.59 8.2
10 2 -16 89.19 14.1
-9 -2 16 17.3 4.5
-9 -2 16 26.7 6
9 -2 -16 24.8 6.7
9 -2 -16 18.4 8.9
9 -2 -16 37.7 9.3
-9 2 16 23.5 5.4
9 2 -16 20.6 8.2
9 2 -16 19.5 9.8
-9 2 16 26.4 5.5
8 -2 -16 -4.2 7
-8 -2 16 8.7 3.6
8 -2 -16 0.2 4.3
-8 -2 16 3.6 3.4
8 -2 -16 13 7.1
8 2 -16 8.4 6.5
-8 2 16 -1 3.2
8 2 -16 6.3 7.9
-8 2 16 11.4 4.1
-7 -2 16 84.39 8.3
-7 -2 16 70.89 7.9
7 2 -16 65.19 10.2
-7 2 16 78.49 8.9
-7 2 16 65.39 7.7
7 2 -16 93.29 13.6
6 -2 -16 1.1 7.5
-6 -2 16 2.5 3.4
-6 -2 16 0.9 3
6 2 -16 -0.1 5.5
6 2 -16 7 7.2
-6 2 16 1.8 3.1
-6 2 16 3.8 3.4
5 -2 -16 -0.1 4.3
-5 -2 16 -0.3 3.5
-5 -2 16 -1.8 3.5
5 2 -16 10.2 6
-5 2 16 -0.9 3
-5 2 16 2.1 3.6
5 2 -16 3 7.3
-4 -2 16 37.4 6.8
-4 -2 16 41.3 6.8
4 2 -16 35.9 6
-4 2 16 43.6 7.2
4 2 -16 43.7 10.4
4 2 -16 37.5 7.7
-4 2 16 39.3 6.4
3 -2 -16 168.48 12.4
-3 -2 16 175.78 11.7
3 -2 -16 140.09 13.8
-3 -2 16 178.38 12.4
-3 2 16 174.48 11.9
3 2 -16 166.38 11.1
-3 2 16 185.18 11.7
3 2 -16 184.68 13.4
3 2 -16 192.88 17.3
2 -2 -16 9 5.8
-2 -2 16 1 4
2 -2 -16 -3.8 4.7
2 -2 -16 -0.5 4.2
-2 -2 16 0.7 3.9
-2 2 16 7.5 4.4
2 2 -16 -2.1 4
2 2 -16 3.6 3.9
-2 2 16 6.1 3.9
1 -2 -16 1.6 4.4
1 -2 -16 -2.9 5.1
1 -2 -16 1.2 5.1
-1 -2 16 1.5 4.3
-1 -2 16 -2.1 4
-1 2 16 -2.6 3.2
-1 2 16 4.6 3.8
1 2 -16 -0.1 3.9
1 2 -16 -1.6 3.6
0 -2 -16 60.29 10.1
0 -2 -16 86.39 10
0 -2 16 91.79 10.5
0 -2 -16 103.69 11.4
0 -2 16 72.09 9.6
0 2 16 95.19 10.6
0 2 -16 88.59 9.3
0 2 -16 91.79 9.6
0 2 -16 80.79 10.3
0 2 16 79.99 8.8
1 -2 16 2.7 4.6
1 -2 16 7 5.3
-1 -2 -16 5.5 5.8
-1 -2 -16 3.6 5.6
-1 -2 -16 2.7 4.2
1 2 16 8.7 4.2
-1 2 -16 10.6 4.6
1 2 16 -2.7 3.5
-1 2 -16 14.1 5.3
-1 2 -16 1 3.8
2 -2 16 25.6 6.8
-2 -2 -16 27.7 6.9
-2 -2 -16 9.5 5.4
-2 -2 -16 26.1 7.5
2 -2 16 17.7 6.4
2 2 16 19.4 5.5
-2 2 -16 18.6 5.7
-2 2 -16 35 7
2 2 16 16.1 5.3
-2 2 -16 25.1 6.4
-3 -2 -16 336.07 20.5
3 -2 16 352.36 18.6
-3 -2 -16 319.67 17.5
-3 -2 -16 349.27 18.9
3 -2 16 332.87 19
-3 2 -16 335.07 17.3
3 2 16 310.37 17.2
3 2 16 348.77 17.4
-3 2 -16 327.57 18.6
-3 2 -16 372.46 18
-4 -2 -16 12.9 5.4
-4 -2 -16 16.7 6.5
4 -2 16 19.4 7
-4 -2 -16 8.6 6.3
4 -2 16 23.1 8.8
4 -2 16 7.7 5.7
-4 2 -16 18.7 5.8
4 2 16 26.9 8.5
-4 2 -16 21.2 6.2
4 2 16 7 20.3
4 2 16 18 5.6
-4 2 -16 22.8 6.5
-5 -2 -16 207.38 14.1
-5 -2 -16 205.38 16.7
5 -2 16 187.28 14.6
5 -2 16 194.78 15.4
-5 -2 -16 179.18 14.4
5 -2 16 211.28 19
-5 2 -16 187.58 13.5
5 2 16 188.28 13.5
-5 2 -16 207.98 15.7
-5 2 -16 171.88 13.1
5 2 16 119.19 28.9
5 2 16 178.08 16.4
-6 -2 -16 111.79 14.1
6 -2 16 128.69 14.2
-6 -2 -16 133.89 14.4
-6 -2 -16 117.09 12.6
6 -2 16 150.98 17.4
6 2 16 117.89 13.8
6 2 16 118.49 27.5
-6 2 -16 152.78 16.1
-6 2 -16 142.99 14.1
-6 2 -16 147.69 14.1
-7 -2 -16 2.7 5.5
7 -2 16 12.3 7.2
-7 -2 -16 2.9 6.3
7 -2 16 5.9 7.6
-7 -2 -16 0.5 4.9
7 2 16 -2.7 5.7
-7 2 -16 19.6 7.1
7 2 16 17.5 18.3
-7 2 -16 7.3 5.8
-7 2 -16 3.9 6
-8 -2 -16 2.5 6
-8 -2 -16 5.5 6.6
8 -2 16 -9.3 6.4
-8 -2 -16 9.2 6
-8 2 -16 -4.3 5.4
-8 2 -16 1 4.8
8 2 16 2.9 14.9
8 2 16 -10.2 5.8
-9 -2 -16 -3.6 5.3
-9 -2 -16 4 6
9 -2 16 0.6 6.8
-9 -2 -16 -2.1 5.6
9 2 16 -1.3 13.8
-9 2 -16 17.5 6.9
-9 2 -16 2.9 5.9
9 2 16 -7.9 5.2
10 -2 16 19.5 9.7
-10 -2 -16 9.7 7
-10 -2 -16 20.7 8.2
-10 -2 -16 20.9 7.9
-10 2 -16 14.4 7.6
10 2 16 19.7 8.9
-10 2 -16 29.9 8.7
14 -3 -16 11.4 9.6
14 3 -16 34.4 13.4
14 3 -16 17.4 13.2
13 -3 -16 19.4 7.3
13 -3 -16 23 10.1
-13 3 16 21.5 5.8
13 3 -16 14.1 10.6
13 3 -16 23.6 12.5
13 3 -16 14.1 6.9
12 -3 -16 2.8 5.2
12 -3 -16 8.2 8.3
12 -3 -16 12.5 8.7
12 3 -16 10.2 9
-12 3 16 6.5 4.2
-12 3 16 4.5 4
12 3 -16 4.8 6.4
12 3 -16 12.1 10.5
11 -3 -16 110.39 14.9
11 -3 -16 104.09 12.3
11 -3 -16 87.19 14.1
11 3 -16 70.99 15.2
-11 3 16 105.19 10
11 3 -16 129.99 17.2
-11 3 16 94.89 10.3
10 -3 -16 -3.3 4
10 -3 -16 0.6 6.9
10 -3 -16 4.6 7.9
-10 -3 16 1.9 3.4
10 3 -16 5.8 8.9
-10 3 16 8.8 4.2
-10 3 16 2.1 3.4
10 3 -16 6.9 7.7
9 -3 -16 0.6 6
9 -3 -16 19.3 8.2
-9 -3 16 1.6 3.4
9 -3 -16 5.5 5
-9 3 16 5.4 3.8
9 3 -16 7.3 8.3
-9 3 16 3.8 3.6
9 3 -16 -1.5 6.7
8 -3 -16 64.59 11
8 -3 -16 59.79 9.1
8 -3 -16 64.79 11.8
-8 -3 16 62.99 7.4
-8 -3 16 49.2 7
-8 3 16 57.29 7.8
-8 3 16 60.29 8
8 3 -16 51.69 10
8 3 -16 44.4 11
-7 -3 16 33.2 5.9
7 -3 -16 39.8 10
-7 -3 16 29.7 6
7 3 -16 16.5 8.3
-7 3 16 35.2 5.7
-7 3 16 37.1 6.6
7 3 -16 27.2 7.8
-6 -3 16 21.3 5.2
6 -3 -16 8.4 7.7
-6 -3 16 24 5.4
-6 3 16 22.2 5.5
-6 3 16 26.5 5.3
6 3 -16 21.8 8.9
6 3 -16 18.8 6.7
5 -3 -16 181.18 14.1
-5 -3 16 136.39 10.5
-5 -3 16 160.48 11.3
5 3 -16 163.28 13
-5 3 16 162.58 11.4
5 3 -16 136.09 15.9
-5 3 16 150.58 10.6
-4 -3 16 1.7 3.8
-4 -3 16 3.8 4.2
4 -3 -16 1.8 4.8
4 3 -16 -5.5 5
-4 3 16 3.9 4
-4 3 16 -0.8 3
4 3 -16 4.8 6.9
3 -3 -16 128.89 14.1
-3 -3 16 135.19 11.5
-3 -3 16 148.39 12.9
3 -3 -16 136.99 13.6
-3 3 16 140.09 10.4
3 3 -16 140.99 17.3
3 3 -16 144.69 9.7
-3 3 16 114.89 11.3
3 3 -16 128.19 15
-2 -3 16 182.68 12.6
2 -3 -16 178.38 12.8
-2 -3 16 182.38 13.2
2 -3 -16 185.58 14.2
2 -3 -16 209.88 16.2
2 3 -16 222.38 17.7
-2 3 16 186.18 12.2
-2 3 16 175.08 12.7
2 3 -16 179.78 11.3
2 3 -16 170.78 12.1
-1 -3 16 24.3 6.9
1 -3 -16 46 9.5
1 -3 -16 40.4 7.6
-1 -3 16 38 7.5
1 -3 -16 43.3 9.1
1 3 -16 30.2 5.9
-1 3 16 41 7.3
1 3 -16 39.6 7
1 3 -16 33.2 9.3
-1 3 16 34.9 6.7
0 -3 16 346.37 18.5
0 -3 -16 353.66 19.6
0 -3 16 368.26 19.3
0 -3 -16 361.76 21.3
0 -3 -16 333.07 17.6
0 3 -16 364.06 17
0 3 -16 350.06 18
0 3 16 360.86 18.3
0 3 16 349.07 17.2
-1 -3 -16 6.5 5.1
1 -3 16 -2.4 4.2
-1 -3 -16 -0.2 4.4
-1 -3 -16 6.2 6
1 -3 16 -5.2 4.1
1 3 16 3.5 3.7
-1 3 -16 2.3 3.4
1 3 16 0.6 4
-1 3 -16 0.1 4.5
-2 -3 -16 -4.7 4.1
-2 -3 -16 -4 3.1
2 -3 16 5.5 5.3
-2 -3 -16 -3.8 5
2 -3 16 0.5 4.6
2 3 16 4.3 4.1
-2 3 -16 3.2 4.5
-2 3 -16 -0.1 3.8
2 3 16 5.6 4.2
3 -3 16 22.8 7
-3 -3 -16 3.3 6.7
-3 -3 -16 6.2 6.4
3 -3 16 11.6 8.8
3 -3 16 15.8 6.6
-3 -3 -16 14.8 5.4
-3 3 -16 12.7 4.9
3 3 16 16 23.5
-3 3 -16 15.2 6.1
3 3 16 14.4 5.6
-4 -3 -16 30 7.4
4 -3 16 34.4 8.7
4 -3 16 28.8 8
-4 -3 -16 31.4 8.3
4 -3 16 25.4 9.6
-4 -3 -16 24.6 7.6
4 3 16 27.6 21.8
4 3 16 37.4 7.2
4 3 16 24.7 8.1
-4 3 -16 27 6.4
-4 3 -16 30.3 7.7
5 -3 16 38.4 8.6
-5 -3 -16 36.3 9.4
5 -3 16 20.5 9.8
-5 -3 -16 45.5 9.1
5 -3 16 43.9 9.5
-5 -3 -16 32.7 7.3
5 3 16 28.5 8.2
5 3 16 52.99 25
-5 3 -16 46.4 9.3
-5 3 -16 40.6 8
6 -3 16 -2.6 7.6
-6 -3 -16 5.7 5.8
6 -3 16 2.6 6.5
-6 -3 -16 -4.4 5
-6 -3 -16 6.3 5.1
-6 3 -16 4.7 4.9
-6 3 -16 11.6 6.7
6 3 16 -7.5 5.4
6 3 16 -1.6 17.3
-7 -3 -16 45.9 9.5
-7 -3 -16 59.19 9.7
7 -3 16 49.5 11.3
-7 -3 -16 49.3 10.6
7 -3 16 73.19 12.1
7 3 16 48.5 21.1
-7 3 -16 72.59 11.1
-7 3 -16 32.8 9
8 -3 16 -6.9 6.4
-8 -3 -16 0 5.5
-8 -3 -16 8.9 7
-8 -3 -16 -5.9 5.8
8 3 16 -1.4 15.1
-8 3 -16 -2.4 5.3
-8 3 -16 5 5.3
9 -3 16 6.5 7.6
-9 -3 -16 -9 4.9
-9 -3 -16 -1.9 6.1
-9 -3 -16 24.3 8
-9 3 -16 7 6.5
9 3 16 0.2 13.8
-9 3 -16 24 7.5
10 3 16 3.9 14.1
13 -4 -16 42.5 11.5
13 4 -16 29.3 11.9
13 4 -16 25.8 14.7
-13 4 16 37 7.4
12 -4 -16 134.19 17.4
12 -4 -16 148.49 15.2
12 4 -16 171.38 22.8
12 4 -16 167.68 20.3
-12 4 16 172.38 12.8
11 -4 -16 2.1 7.3
11 -4 -16 2.6 4.8
11 4 -16 4.5 8.8
-11 4 16 -0.1 3.9
11 4 -16 -4.2 9.4
-10 -4 16 69.89 8.4
10 -4 -16 55.99 9.9
10 -4 -16 65.19 12
-10 4 16 81.29 10.1
10 4 -16 77.79 13.5
-10 4 16 77.49 9.4
10 4 -16 83.09 15.9
9 -4 -16 63.69 12
9 -4 -16 47.2 11
-9 -4 16 70.39 8.1
9 -4 -16 72.69 10
9 4 -16 64.59 14
-9 4 16 63.89 8.5
9 4 -16 65.19 12.1
-9 4 16 78.59 9.5
8 -4 -16 19.9 8.6
-8 -4 16 15.6 5.1
8 -4 -16 1.8 6.9
8 -4 -16 12.4 5.5
-8 -4 16 7.1 5.5
-8 4 16 13.4 5.1
8 4 -16 9 8.5
-8 4 16 16.6 5.2
8 4 -16 12.7 7.6
-7 -4 16 67.69 8.4
-7 -4 16 62.49 8.6
7 -4 -16 46.1 10.8
7 4 -16 67.99 11.6
7 4 -16 54.49 12.4
-7 4 16 72.89 8.6
-7 4 16 67.79 8.9
-6 -4 16 330.67 17
-6 -4 16 339.77 16.8
6 -4 -16 336.07 21.6
6 4 -16 340.17 23.5
-6 4 16 356.36 18
-6 4 16 300.17 16.1
5 -4 -16 78.89 11.8
-5 -4 16 45.2 7.5
-5 -4 16 48.6 7.8
-5 4 16 51.39 8
5 4 -16 37.8 10.2
-5 4 16 60.39 8.2
-4 -4 16 18.1 5.5
4 -4 -16 7.2 5.7
-4 -4 16 15.6 5.7
-4 4 16 -1 3.5
4 4 -16 4.6 6.9
-4 4 16 9 4.5
-3 -4 16 344.77 17.7
3 -4 -16 313.87 20.6
-3 -4 16 309.47 17.8
3 -4 -16 297.77 18.5
3 4 -16 348.47 22.1
-3 4 16 341.07 17.7
-3 4 16 337.77 16.7
-2 -4 16 41.2 7.9
2 -4 -16 58.29 11
-2 -4 16 41.6 7.8
2 -4 -16 40.7 8.6
-2 4 16 50.69 8.3
-2 4 16 45.8 7.3
2 4 -16 56.79 10.6
1 -4 -16 21 5.8
1 -4 -16 18.4 7.3
-1 -4 16 19.1 6.7
-1 -4 16 22.3 6.8
1 -4 -16 15.2 8.5
-1 4 16 17 6
-1 4 16 21 5.8
1 4 -16 20.6 5.8
1 4 -16 20.1 7.7
1 4 -16 21.6 5.1
0 -4 16 33 7.4
0 -4 16 44.4 8.9
0 -4 -16 46.9 8.1
0 -4 -16 33.5 8.9
0 -4 -16 46.4 9.5
0 4 -16 45 7
0 4 -16 54.99 7.8
0 4 16 47.2 7.8
0 4 16 44.8 7.9
0 4 -16 66.99 11.1
-1 -4 -16 79.09 9.8
-1 -4 -16 50.69 10.9
1 -4 16 87.79 11.5
1 -4 16 80.89 11
-1 -4 -16 52.09 9.7
-1 4 -16 88.59 10.8
-1 4 -16 70.59 11.5
1 4 16 0.6 23
1 4 16 97.39 10.7
1 4 16 84.89 10.1
-1 4 -16 90.89 9.5
-2 -4 -16 58.59 8.8
2 -4 16 52.39 9.4
2 -4 16 55.99 10.1
-2 -4 -16 41.9 9.6
-2 -4 -16 39.6 9.9
-2 4 -16 47.6 8.4
2 4 16 78.59 26.8
2 4 16 55.69 8.7
-2 4 -16 48.9 7.2
3 -4 16 1.4 5.2
-3 -4 -16 1.3 4.4
-3 -4 -16 -6.7 5.2
-3 -4 -16 9.9 6.9
3 -4 16 9.7 6.1
3 -4 16 -0.8 7.5
-3 4 -16 2.9 3.8
3 4 16 10.9 22.7
3 4 16 4.1 4.5
-3 4 -16 3.4 5
4 -4 16 -3.1 5.7
4 -4 16 1.5 7.5
-4 -4 -16 -3.7 5.9
4 -4 16 0.6 5.8
-4 -4 -16 5 6.3
-4 -4 -16 0.6 4.4
-4 4 -16 5.1 4.4
4 4 16 -17.6 19.9
-4 4 -16 1 5
4 4 16 -5.9 3.4
5 -4 16 2.1 8.5
5 -4 16 32.1 9.3
-5 -4 -16 24.6 8.1
-5 -4 -16 24.4 7.1
-5 -4 -16 21.7 8.9
5 -4 16 18.8 8.4
5 4 16 8.1 19
-5 4 -16 25.8 8.6
-5 4 -16 25.2 6.5
6 -4 16 13.1 12.4
6 -4 16 7.2 8.7
-6 -4 -16 27.7 9.5
6 -4 16 15.3 8.3
-6 -4 -16 2.8 5
-6 -4 -16 0.6 6.8
6 4 16 3.4 18.5
-6 4 -16 9.2 6.9
-6 4 -16 13.4 5.9
-7 -4 -16 23.2 8.8
-7 -4 -16 36.6 9.1
-7 -4 -16 27.7 8
7 -4 16 11.3 9.3
7 -4 16 49.7 11.8
-7 4 -16 34.4 9.1
7 4 16 40.3 21.4
-7 4 -16 26.2 7
-8 -4 -16 26 9.2
-8 -4 -16 28 7.5
-8 -4 -16 31 9.8
8 -4 16 43.8 12.3
8 -4 16 43.4 10.6
8 4 16 39.2 19.4
-8 4 -16 48.8 10.3
-8 4 -16 30.6 8.1
-9 -4 -16 20.6 8.8
-9 -4 -16 14.1 7.5
9 -4 16 -3.5 7.9
-9 -4 -16 14.1 6.8
9 4 16 31.8 19
-9 4 -16 8.4 6.3
-9 4 -16 14.1 7.5
12 -5 -16 23.3 8.2
12 -5 -16 32.2 10.9
-12 5 16 42.5 8.1
12 5 -16 29.3 12.7
12 5 -16 21.4 13.4
11 -5 -16 14.2 6.4
11 -5 -16 24.4 9.3
-11 5 16 15.6 5.8
11 5 -16 17.1 11.8
11 5 -16 -4.6 12.9
-10 -5 16 29 6.8
10 -5 -16 8.5 7.8
10 -5 -16 18.1 6.8
10 5 -16 32.5 12.8
-10 5 16 27.3 6.6
-10 5 16 18.1 5.8
-9 -5 16 25.3 6.8
9 -5 -16 20.6 7.1
9 -5 -16 9.2 8.5
-9 5 16 19.3 5.6
9 5 -16 12.8 10.7
-9 5 16 18.5 5.8
8 -5 -16 39.5 8.6
-8 -5 16 36.2 7.5
-8 5 16 41.2 7.5
-8 5 16 52.89 8.2
8 5 -16 40.3 12.2
-7 -5 16 6 5.3
-7 -5 16 6.7 5.3
7 5 -16 -1.9 8.4
-7 5 16 0.7 3.6
-7 5 16 3.1 4.3
6 -5 -16 16.3 7
-6 -5 16 -3.4 4.3
-6 -5 16 -0.8 4.9
-6 5 16 -0.3 3.3
6 5 -16 11.1 8.1
-6 5 16 0.7 3.8
5 -5 -16 3.7 6.3
-5 -5 16 24.2 6.8
-5 -5 16 26.4 6.8
-5 5 16 15.9 5.3
5 5 -16 15.7 8.4
-5 5 16 22.5 6.4
-4 -5 16 8.8 5.7
4 -5 -16 11.4 7.3
-4 -5 16 13.4 5.9
4 5 -16 9.9 7.5
-4 5 16 12.6 5.1
-4 5 16 6.4 4.4
-3 -5 16 23.7 6.9
3 -5 -16 27 8.1
-3 -5 16 12 6.2
-3 5 16 21.6 6.4
-3 5 16 10 4.3
3 5 -16 7.6 7.5
2 -5 -16 1.7 6.4
-2 -5 16 6.5 5.5
2 -5 -16 5.7 6.2
-2 -5 16 3.4 5.3
-2 5 16 3.8 4.4
-2 5 16 5.4 4.2
2 5 -16 6 6.6
1 -5 -16 2.1 6.3
1 -5 -16 11.5 7.5
-1 -5 16 -2.7 4.9
-1 -5 16 3.6 5.4
-1 5 16 9.9 4.7
-1 5 16 -27.1 21.3
-1 5 16 0.8 4.2
0 -5 16 96.69 12.4
0 -5 -16 99.59 14.8
0 -5 -16 99.99 13
0 -5 16 105.29 12.6
0 5 16 127.89 13.3
0 5 16 86.29 10.1
0 5 16 126.99 33.4
-1 -5 -16 23.2 8
1 -5 16 39.2 9.2
-1 -5 -16 31.7 7.5
-1 -5 -16 51.59 11.4
1 -5 16 62.19 10.5
-1 5 -16 49.7 8.8
1 5 16 49.1 8.6
1 5 16 24.7 25.5
-2 -5 -16 16.7 8.3
2 -5 16 4.6 6.5
2 -5 16 -1.2 5.9
-2 -5 -16 13.3 5.9
2 -5 16 8.2 8.4
-2 -5 -16 13.9 7.8
2 5 16 8.4 5.3
-2 5 -16 12.5 6.2
2 5 16 9.7 23.3
-3 -5 -16 17 7.9
3 -5 16 -5.3 8.1
3 -5 16 8.4 6.9
-3 -5 -16 18.6 8.8
3 -5 16 14.7 7.3
-3 -5 -16 3.2 4.9
-3 5 -16 4.4 4.4
-3 5 -16 17.4 7.2
3 5 16 11.6 5.7
3 5 16 19.8 21.7
-4 -5 -16 23.8 6.8
4 -5 16 13.1 9.7
4 -5 16 22.4 8.7
4 -5 16 17.4 8.4
-4 -5 -16 5.4 7.5
-4 -5 -16 27.1 9.2
4 5 16 0.5 20.2
-4 5 -16 10.1 5.3
-4 5 -16 23 8.2
-5 -5 -16 -1.3 7.1
5 -5 16 -8 6.4
-5 -5 -16 6 5.6
-5 -5 -16 9.6 8.1
5 -5 16 -5.9 7.6
5 -5 16 0.6 7.5
-5 5 -16 -1.1 3.6
5 5 16 6.2 18.5
-5 5 -16 11.5 7.6
-6 -5 -16 5.3 5.7
6 -5 16 -4 6.3
-6 -5 -16 14.4 8.1
6 -5 16 -2.2 7.2
6 -5 16 -5.9 7.9
-6 -5 -16 16.6 7.7
-6 5 -16 -2.1 6.3
-6 5 -16 2.9 4.6
6 5 16 77.09 23.5
-7 -5 -16 -0.8 6.8
-7 -5 -16 17.6 7.9
-7 -5 -16 8 6
7 -5 16 -0.7 7.1
7 -5 16 4.4 8.8
7 5 16 18.2 17.7
-7 5 -16 0.3 5
-7 5 -16 16.6 8.5
8 -5 16 22.9 11.3
-8 -5 -16 25.7 9.3
-8 -5 -16 29.6 8.2
-8 -5 -16 27.7 9.5
8 -5 16 39.7 11.7
-8 5 -16 45.3 9.7
-8 5 -16 45.8 11.4
8 5 16 53.39 23
10 -6 -16 -0.3 8.1
-10 -6 16 4 5.5
-10 6 16 -7.6 3.6
10 6 -16 4.6 10.9
-10 6 16 -1.6 4
-9 -6 16 44.4 8.7
-9 6 16 34.7 7.5
9 6 -16 47 13.8
-9 6 16 58.59 9
-8 -6 16 8.8 5.9
-8 6 16 13.2 5.7
8 6 -16 10.4 9.8
-8 6 16 2.5 4.4
-7 -6 16 28.3 7.8
-7 -6 16 42.2 8.3
-7 6 16 29.1 7.1
-7 6 16 39.2 8.5
7 6 -16 34.2 11.9
-6 -6 16 23.1 7.6
-6 -6 16 27.5 7.7
6 -6 -16 28.2 10.1
-6 6 16 54.19 9.1
-6 6 16 30.5 7.6
6 6 -16 22.1 10.8
-5 -6 16 38.3 8.5
5 -6 -16 71.39 13.6
-5 -6 16 43.2 9.2
-5 6 16 56.59 10
5 6 -16 44.9 12.2
-5 6 16 37.9 7.6
4 -6 -16 9.2 8.5
-4 -6 16 22 8.1
-4 -6 16 14 6.6
-4 6 16 -9.5 22.2
4 6 -16 18.9 10.3
-4 6 16 21.5 6.3
-4 6 16 21.8 6.9
3 -6 -16 31.6 9.3
-3 -6 16 24.5 8.3
-3 -6 16 35.6 8.8
3 -6 -16 31.9 10.7
-3 6 16 17.7 5.7
-3 6 16 23.3 26.5
-3 6 16 20.2 6.9
2 -6 -16 -3.9 7.2
-2 -6 16 8.6 6.6
-2 -6 16 9.1 6.3
2 -6 -16 11.5 7.4
-2 6 16 -4.3 3.9
-2 6 16 2.9 24.9
-2 6 16 -0.7 4.2
-1 -6 16 10.5 7.1
1 -6 -16 33.1 10.6
-1 -6 16 9.2 7
1 -6 -16 10.7 7.7
-1 6 16 2.2 22.5
-1 6 16 7 5.1
-1 6 16 3.4 5.3
0 -6 16 -9.5 5.3
0 -6 -16 -5.6 6.9
0 -6 -16 4 6.8
0 -6 16 7.9 6.9
0 6 16 -4.6 21
0 6 16 2.8 5
-1 -6 -16 8 7.9
1 -6 16 14.1 7.6
1 -6 16 7 8.7
-1 -6 -16 2.8 7.3
1 -6 16 31.4 9.1
1 6 16 8.3 21.8
1 6 16 2.4 5.2
-2 -6 -16 14 7.9
2 -6 16 -0.5 7
-2 -6 -16 -3.1 5.3
-2 -6 -16 5.4 7.7
2 -6 16 -15.4 7.6
2 -6 16 -6.6 6.5
2 6 16 5.8 5.5
-2 6 -16 1.4 5.5
2 6 16 -18.7 18.8
-3 -6 -16 9.7 7.9
3 -6 16 -9 8.1
-3 -6 -16 5.1 5.4
-3 -6 -16 5 8.2
3 -6 16 -2 7.5
3 -6 16 -5.3 7.1
3 6 16 11.8 19.9
-3 6 -16 -5.7 5.8
4 -6 16 8 9.6
4 -6 16 25 9.3
4 -6 16 30 10.1
-4 -6 -16 30.8 10.1
-4 -6 -16 21.6 6.9
-4 -6 -16 11.7 7.9
-4 6 -16 9.9 7.5
4 6 16 16.4 19.3
-5 -6 -16 10.8 8.6
5 -6 16 21.2 8.9
-5 -6 -16 14.5 6.6
5 -6 16 1.3 7.6
-5 -6 -16 6.5 7.4
5 -6 16 -8.2 8.5
-5 6 -16 19 8.1
5 6 16 43.2 21.8
6 -6 16 8.9 9.4
6 -6 16 14.5 8.8
6 -6 16 25.1 10.8
-6 -6 -16 25 9.7
-6 -6 -16 12 8.2
-6 6 -16 10.6 7.8
6 6 16 25.5 19.6
-8 -7 16 77.99 12
8 7 -16 51.79 14.7
-8 7 16 84.29 11.6
-8 7 16 83.19 12.2
-7 -7 16 -6.8 5.5
-7 -7 16 -4.6 6.2
7 7 -16 -14.2 8.7
-7 7 16 3.8 4.6
-7 7 16 -4.3 4.3
6 -7 -16 81.19 15.2
-6 -7 16 100.09 13.4
-6 -7 16 90.89 13
-6 7 16 91.09 11.5
-6 7 16 64.29 31.1
-6 7 16 88.59 12.2
-5 -7 16 38.5 9.5
5 -7 -16 25.8 11
-5 -7 16 24.3 8.3
-5 7 16 18.1 6.1
-5 7 16 20.3 7.2
-5 7 16 -15.2 23.3
-4 -7 16 2.9 6.5
4 -7 -16 -9.2 8.2
-4 -7 16 -0.7 6.4
-4 7 16 -0.2 4.2
-4 7 16 -1.5 4.5
-4 7 16 18.6 23.7
-3 -7 16 11.5 8.3
3 -7 -16 16.4 9.8
3 -7 -16 29.1 9.9
-3 -7 16 10 7
-3 7 16 36.5 25.8
-3 7 16 21.4 6.4
-3 7 16 27.8 8.2
2 -7 -16 27.6 11.3
2 -7 -16 12.8 8.2
-2 -7 16 40.3 10.2
-2 -7 16 27.1 9.1
-2 7 16 32.8 8.1
-2 7 16 48.7 24.6
-2 7 16 20.1 6.2
-1 -7 16 3.7 7.3
1 -7 -16 -0.3 8.7
-1 -7 16 14.6 8
1 -7 -16 11.5 8.4
-1 7 16 34.2 21.9
-1 7 16 20.6 7.2
0 -7 -16 20.2 9
0 -7 16 22 9.3
0 -7 -16 24.7 10.9
0 -7 16 18.7 8.5
0 7 16 21.5 21.2
0 7 16 20.4 7.1
1 -7 16 19.6 9
-1 -7 -16 1.2 7.6
1 -7 16 2.8 7
-1 -7 -16 0.2 7.3
1 7 16 -0.8 4.9
1 7 16 15.7 19.9
2 -7 16 35.6 11.2
-2 -7 -16 53.89 11.7
2 -7 16 24.3 9.7
2 -7 16 50.39 12.7
-2 -7 -16 42.8 12
2 7 16 88.99 26
3 -7 16 68.69 13.6
-3 -7 -16 107.99 15.7
-3 -7 -16 76.79 14.6
3 -7 16 87.69 15.1
3 -7 16 54.99 13.3
-3 7 -16 112.09 19.7
3 7 16 47.2 24.2
4 -7 16 -15.3 7.9
-4 -7 -16 -0.4 7.2
4 -7 16 0.9 8.1
-4 -7 -16 14.3 8.4
4 -7 16 0.9 7.9
4 7 16 -7.3 17.4
-4 7 -16 -2 6.3
-4 -8 16 25.1 9.8
-4 8 16 18 6.5
-4 8 16 18 22.5
-3 -8 16 28.9 10.3
3 -8 -16 21.7 12.2
3 -8 -16 28.9 10.1
-3 -8 16 18.1 8.4
-3 8 16 56.29 24.5
-3 8 16 44 10.1
-2 -8 16 0.5 7.1
-2 -8 16 5.3 8.1
2 -8 -16 -4.8 9
2 -8 -16 -1.1 7.8
-2 8 16 5.5 6.2
-2 8 16 -17.9 19
-1 -8 16 5.5 8.7
-1 -8 16 -6.1 6.7
1 -8 -16 -4.2 7.3
1 -8 -16 7.3 9.3
-1 8 16 14.3 7.4
-1 8 16 -1.7 18.4
0 -8 16 48.3 12.8
0 -8 -16 38.7 11.1
0 8 16 49.5 23.6
14 0 -17 5.3 6
14 0 -17 0.3 8.4
14 0 -17 5.5 10.2
13 0 -17 -4.2 8.4
-13 0 17 5.7 3.6
13 0 -17 -0.1 4.8
13 0 -17 2.9 8.4
-12 0 17 -1.8 3.3
12 0 -17 -4.2 7.7
12 0 -17 -2.1 4.5
12 0 -17 10.4 9.4
11 0 -17 5.1 7.7
-11 0 17 2 3.1
11 0 -17 0.9 8.4
11 0 -17 5.2 5.4
-10 0 17 -0.5 3.2
10 0 -17 9.5 7.2
10 0 -17 10.4 8.9
10 0 -17 3.9 4.7
-10 0 17 -2.1 2.8
9 0 -17 -7.9 5.6
-9 0 17 2 3.3
9 0 -17 -15.7 6.9
-9 0 17 1.2 3.1
-8 0 17 -2 2.6
8 0 -17 0.8 7.5
-8 0 17 2 3.1
8 0 -17 6.1 6.5
-7 0 17 2 3.3
-7 0 17 -2 2.9
7 0 -17 6 5.9
7 0 -17 5.9 7.7
-6 0 17 0.4 3.3
6 0 -17 11.7 7
6 0 -17 5.7 7.8
-6 0 17 4.7 3.6
-5 0 17 -2.8 3.2
5 0 -17 0.8 7.2
-5 0 17 2.1 3.5
4 0 -17 6.5 4.8
-4 0 17 2.4 3.6
4 0 -17 4.6 4
-4 0 17 -0.9 3.3
-3 0 17 0.1 3.7
3 0 -17 -2.9 3.8
3 0 -17 1.8 4.2
-3 0 17 4.2 4
-2 0 17 1 4.2
-2 0 17 -3.1 3.8
2 0 -17 3.6 3.9
2 0 -17 32.9 7.5
1 0 -17 -0.9 4.4
-1 0 17 -5.1 3.6
1 0 -17 1.7 3.8
-1 0 17 2.2 4.4
1 0 -17 -2.2 4.2
0 0 -17 -3.9 3.8
0 0 -17 6.7 4.8
0 0 -17 6.4 5.2
0 0 17 4.3 4.5
0 0 17 3.1 4.2
-1 0 -17 -0.5 4.3
-1 0 -17 0.4 3.9
1 0 17 9.9 4.9
-1 0 -17 -0.6 4.5
1 0 17 -0.5 4.5
2 0 17 6.1 4.3
-2 0 -17 6.1 5.2
2 0 17 6.4 4.9
-2 0 -17 2.6 4.5
-2 0 -17 8.6 5.1
-3 0 -17 3.2 4.3
-3 0 -17 1.3 5.1
3 0 17 -3.6 4.5
3 0 17 2 4.7
-3 0 -17 -2.6 4.1
-4 0 -17 7.4 5.1
-4 0 -17 -3.5 3.9
4 0 17 -4.8 4.4
-4 0 -17 -4 4.8
4 0 17 0.9 4.5
4 0 17 -9 6.1
5 0 17 -2.6 5.1
-5 0 -17 3.4 4.8
-5 0 -17 -2 4.3
-5 0 -17 -0.8 5
5 0 17 -2.7 6.9
-6 0 -17 -7.3 4.4
6 0 17 -3.6 7.1
6 0 17 -1.2 5.1
-6 0 -17 1 5.2
6 0 17 5.3 20.5
-6 0 -17 -8 4.2
-7 0 -17 -1.4 4.4
-7 0 -17 4.6 5.8
-7 0 -17 0.5 6.3
7 0 17 -4.1 6.7
8 0 17 0.9 6.7
-8 0 -17 -0.6 5
-8 0 -17 -1.4 5.6
-8 0 -17 4.1 6
-9 0 -17 4.4 5.7
9 0 17 -8 6.5
-9 0 -17 3.4 6.3
-9 0 -17 -4.2 5.6
10 0 17 -7.1 6.1
-10 0 -17 -1.7 6.6
-10 0 -17 3.3 6.1
-10 0 -17 -3.5 5.9
14 -1 -17 63.89 14
14 -1 -17 65.29 15
14 -1 -17 55.39 11
14 1 -17 53.09 15.5
-14 1 17 64.89 8.1
14 1 -17 60.39 11
14 1 -17 65.49 14.3
13 -1 -17 8 10.5
13 -1 -17 17.3 6.7
13 -1 -17 21.1 10.5
13 1 -17 21.9 9.9
13 1 -17 18.2 7
-13 1 17 28.6 5.7
13 1 -17 24.7 11.8
12 -1 -17 144.69 18.7
-12 -1 17 165.08 10.2
12 -1 -17 140.89 14.8
12 -1 -17 124.19 16.5
12 1 -17 129.49 18.8
12 1 -17 129.39 14.7
12 1 -17 137.49 17.9
-12 1 17 169.18 10.8
11 -1 -17 80.29 11.7
-11 -1 17 108.19 8.5
11 -1 -17 88.69 13.8
11 -1 -17 82.49 14.1
11 1 -17 75.59 15.1
11 1 -17 70.89 13.1
11 1 -17 92.79 11.7
-11 1 17 86.39 8.9
-11 1 17 87.59 9.1
10 -1 -17 18.7 9.1
10 -1 -17 15.8 6.4
-10 -1 17 29.6 5.4
10 -1 -17 33.4 10.1
10 1 -17 19.4 8.2
10 1 -17 18.5 9.5
-10 1 17 22.7 5.2
-10 1 17 28.4 5.6
-9 -1 17 11.4 4
9 -1 -17 5.6 8
9 -1 -17 14.6 5.9
-9 -1 17 2.7 3.6
9 -1 -17 3.6 6.1
9 1 -17 14.3 8.8
9 1 -17 25 9
-9 1 17 19.1 4.5
-9 1 17 18.3 4.7
8 -1 -17 74.49 12.7
-8 -1 17 52.89 7.3
-8 -1 17 60.29 7.1
8 -1 -17 69.29 11.2
8 1 -17 74.29 13.3
-8 1 17 61.69 7.7
8 1 -17 55.39 10.4
-8 1 17 80.99 9
-7 -1 17 8 3.8
7 -1 -17 4.1 7.2
7 -1 -17 2.1 7.5
-7 -1 17 4.4 3.5
-7 1 17 3.4 3.5
-7 1 17 3.1 3.2
7 1 -17 0.4 5.7
7 1 -17 4.7 7.7
6 -1 -17 92.29 13.9
-6 -1 17 89.29 9.5
-6 -1 17 98.29 9.4
-6 1 17 71.29 8.3
6 1 -17 84.09 14.1
-6 1 17 98.39 10.1
6 1 -17 90.39 11.4
5 -1 -17 27.5 9.6
-5 -1 17 17.3 5
-5 -1 17 11.7 4.7
-5 1 17 12.3 4.4
5 1 -17 16.8 7.2
-5 1 17 12.9 4.6
5 1 -17 10 8.6
-4 -1 17 53.69 7.5
4 -1 -17 63.49 9.1
-4 -1 17 77.69 9.1
4 1 -17 55.89 7.6
-4 1 17 55.89 8.1
4 1 -17 59.09 11.9
-4 1 17 51.59 7.4
3 -1 -17 33.5 7
-3 -1 17 37.7 6.7
-3 -1 17 38.3 7
3 -1 -17 40.1 8
3 1 -17 33.3 6.4
-3 1 17 53.79 8
-3 1 17 35.8 6.2
3 1 -17 39.7 6.6
2 -1 -17 131.39 12.1
-2 -1 17 146.19 12.6
2 -1 -17 126.29 13.4
2 -1 -17 131.99 12
-2 -1 17 126.49 12
2 1 -17 134.09 12.3
-2 1 17 111.49 10.8
2 1 -17 140.69 10.5
-2 1 17 137.49 11.1
1 -1 -17 131.99 13.5
1 -1 -17 127.19 12.1
-1 -1 17 111.49 11.6
1 -1 -17 152.28 11.8
-1 -1 17 156.38 13.3
1 1 -17 148.49 17.1
1 1 -17 124.69 12.2
1 1 -17 104.59 10.2
-1 1 17 140.89 11.4
-1 1 17 153.08 11.1
0 -1 17 48.3 8.1
0 -1 -17 57.09 9.7
0 -1 -17 48.7 8.1
0 -1 -17 49.8 8.1
0 -1 17 55.79 8.4
0 1 -17 41.9 7.5
0 1 17 64.09 9
0 1 -17 45.9 8.6
0 1 -17 54.99 8
0 1 17 50.69 7.7
-1 -1 -17 220.68 15.9
-1 -1 -17 189.38 13.3
1 -1 17 222.98 14.5
1 -1 17 214.98 14.1
-1 -1 -17 173.98 13.3
-1 1 -17 205.58 13.1
1 1 17 164.88 12.6
1 1 17 186.18 12.7
-1 1 -17 184.48 14.2
-1 1 -17 205.68 13.8
2 -1 17 196.68 14.4
-2 -1 -17 206.18 14.2
2 -1 17 176.48 13.6
-2 -1 -17 196.78 13.6
-2 -1 -17 198.78 15.7
-2 1 -17 201.78 13.7
2 1 17 201.18 13.7
-2 1 -17 185.08 14.4
2 1 17 182.28 13
-2 1 -17 180.88 12.7
3 -1 17 45.8 8.9
-3 -1 -17 40 7.1
3 -1 17 44.5 8.5
-3 -1 -17 41.1 8.3
-3 -1 -17 57.09 10.2
3 1 17 58.29 8.9
-3 1 -17 47.3 7.7
-3 1 -17 43.7 8.8
3 1 17 46.7 8
-3 1 -17 46.8 8.1
4 -1 17 -1.9 7.3
4 -1 17 9.5 5.7
-4 -1 -17 5.8 4.7
4 -1 17 6.3 5.3
-4 -1 -17 5 6.3
-4 -1 -17 4.8 5
4 1 17 1 6.7
4 1 17 -1.5 4.1
-4 1 -17 -0.3 4.3
-4 1 -17 2.2 4.4
4 1 17 -4.7 4.4
-4 1 -17 5.1 5.8
-5 -1 -17 126.09 14.7
-5 -1 -17 104.19 12.3
5 -1 17 113.79 14.7
5 -1 17 115.69 14.7
-5 -1 -17 108.19 11.6
5 -1 17 114.79 13.3
-5 1 -17 140.39 14.9
5 1 17 113.29 29.4
5 1 17 139.99 15.7
-5 1 -17 147.19 14.1
5 1 17 118.99 13.1
-5 1 -17 123.69 12.8
6 -1 17 47.6 9.9
-6 -1 -17 73.39 10.6
6 -1 17 43.2 11.1
-6 -1 -17 50.69 10
-6 -1 -17 45.9 9.1
6 1 17 19.6 21.3
-6 1 -17 54.59 9.1
-6 1 -17 58.49 10.2
6 1 17 53.59 11
6 1 17 62.99 10.1
-6 1 -17 73.29 10.2
7 -1 17 15.7 7.3
-7 -1 -17 9 7
-7 -1 -17 15.3 6.9
7 -1 17 18.9 9.3
-7 -1 -17 0.9 6.3
7 1 17 16 8.6
-7 1 -17 23.6 8.1
7 1 17 16.7 19.3
-7 1 -17 9.5 5.5
-7 1 -17 33.8 8.1
-8 -1 -17 30.1 8.1
-8 -1 -17 28.6 9
8 -1 17 13.2 8.5
-8 -1 -17 30.2 8.2
8 1 17 18 8.3
-8 1 -17 29.7 8.8
-8 1 -17 32.5 8.4
-8 1 -17 28.9 7.9
-9 -1 -17 4.2 6
9 -1 17 -2 7.4
-9 -1 -17 24.5 8
-9 -1 -17 9.6 7.2
-9 1 -17 11.7 6.3
-9 1 -17 12.1 6.7
9 1 17 8.6 7.4
-9 1 -17 11.6 7.2
10 -1 17 -4.9 6.5
-10 -1 -17 5.9 6.8
-10 -1 -17 5.6 6.4
-10 -1 -17 4.7 6.3
10 1 17 7 8.6
-10 1 -17 8.3 7.2
-10 1 -17 -3.7 5.5
-10 1 -17 0.1 5.6
14 -2 -17 16.6 7.3
14 -2 -17 29.1 12.6
14 -2 -17 23.5 10.9
-14 2 17 21.8 5.8
14 2 -17 34.9 9.2
14 2 -17 19.7 11.6
14 2 -17 32.8 12.3
13 -2 -17 10.5 9.1
13 -2 -17 0.1 8.8
13 -2 -17 9.4 5.9
13 2 -17 17.1 11.7
-13 2 17 9.1 4.3
13 2 -17 2.8 5.6
13 2 -17 8.2 9.5
12 -2 -17 -7.9 7.5
12 -2 -17 2.9 5.4
12 -2 -17 -0.6 7.6
12 2 -17 3.8 5.5
-12 2 17 -1.7 3.4
12 2 -17 9.6 8.7
12 2 -17 -5.7 8.9
-12 2 17 -0.7 3.3
11 -2 -17 9 7.9
11 -2 -17 10.3 8.3
11 -2 -17 2 5.8
-11 -2 17 12.2 4.2
-11 2 17 12.6 5
11 2 -17 0 7.8
-11 2 17 14.9 5
11 2 -17 3.6 9.2
10 -2 -17 90.49 13.1
-10 -2 17 107.29 8.5
10 -2 -17 100.69 15.2
10 -2 -17 89.09 11.8
10 2 -17 97.89 16.2
-10 2 17 105.79 10.3
10 2 -17 135.79 16.2
-10 2 17 113.39 10.4
-9 -2 17 17.1 4.8
9 -2 -17 22.6 8.6
9 -2 -17 14.4 5.7
9 -2 -17 12.7 8.2
-9 -2 17 17.4 4.5
9 2 -17 12 7.8
-9 2 17 16.8 5.1
-9 2 17 17.1 5
9 2 -17 -2.8 7.7
-8 -2 17 58.89 7.4
8 -2 -17 63.09 10.7
8 -2 -17 64.09 12.3
-8 -2 17 55.89 7.5
-8 2 17 66.79 8.3
-8 2 17 50.29 7
8 2 -17 32.8 10.1
8 2 -17 56.49 10.6
-7 -2 17 34.4 6
7 -2 -17 21.8 9.7
-7 -2 17 38 6.3
-7 2 17 40.7 6.6
7 2 -17 41.4 9.1
-7 2 17 48.6 7.2
7 2 -17 33.6 10.4
-6 -2 17 86.69 9.3
6 -2 -17 110.69 14.8
-6 -2 17 113.89 10.3
-6 2 17 97.89 9.7
6 2 -17 106.79 15.1
-6 2 17 97.09 10.4
6 2 -17 99.39 12
-5 -2 17 234.18 13.3
5 -2 -17 220.48 15.3
-5 -2 17 269.07 14.6
-5 2 17 214.28 12.8
-5 2 17 204.08 13.6
5 2 -17 263.77 20.9
5 2 -17 284.77 17.2
-4 -2 17 335.97 17.2
-4 -2 17 314.67 16.4
4 -2 -17 345.27 19
4 2 -17 351.36 23.3
4 2 -17 349.77 19
4 2 -17 346.57 16.4
-4 2 17 373.66 18
-4 2 17 327.77 16.5
-3 -2 17 79.99 9.4
-3 -2 17 104.09 10.9
3 -2 -17 108.29 12.5
3 2 -17 75.89 12.9
-3 2 17 87.09 9.6
3 2 -17 114.29 10.5
-3 2 17 95.59 10.3
3 2 -17 110.59 11.2
-2 -2 17 42.5 7.1
-2 -2 17 37.3 7.4
2 -2 -17 43.9 7.8
2 -2 -17 44.9 8.9
2 -2 -17 51.89 8.7
2 2 -17 36.8 6.9
-2 2 17 46.7 7.5
-2 2 17 37.7 6.8
2 2 -17 66.99 8.2
-1 -2 17 305.17 16.8
1 -2 -17 337.37 18.3
-1 -2 17 333.77 17.8
1 -2 -17 331.37 19.6
1 -2 -17 327.27 17.3
-1 2 17 303.47 16.2
1 2 -17 312.27 16
-1 2 17 311.37 17.1
1 2 -17 327.47 17.3
0 -2 -17 172.58 14.7
0 -2 -17 179.38 12.8
0 -2 17 172.58 15
0 -2 17 171.28 13.1
0 -2 -17 166.18 14.8
0 2 -17 165.48 12.5
0 2 -17 171.88 12.8
0 2 17 177.58 12.8
0 2 -17 150.08 11.3
0 2 17 194.68 12.5
1 -2 17 294.97 17.2
-1 -2 -17 248.68 18
-1 -2 -17 263.37 15.7
-1 -2 -17 264.17 16.6
1 -2 17 269.07 16.7
-1 2 -17 292.07 17
1 2 17 284.47 16.2
-1 2 -17 278.57 15.3
1 2 17 268.87 15.3
-1 2 -17 283.67 15.3
2 -2 17 135.99 13.5
2 -2 17 125.59 13.1
-2 -2 -17 130.99 12.4
-2 -2 -17 194.28 18.3
-2 -2 -17 128.19 13.3
2 2 17 137.69 11.4
2 2 17 124.29 11.7
-2 2 -17 125.59 11.9
-2 2 -17 155.08 14.9
-2 2 -17 123.09 12
-3 -2 -17 152.58 13.9
-3 -2 -17 147.09 15.8
-3 -2 -17 161.08 15.1
3 -2 17 150.48 14.5
3 -2 17 159.68 15.1
-3 2 -17 146.99 14.4
3 2 17 123.59 11.8
-3 2 -17 125.29 12.1
-3 2 -17 133.79 13.1
3 2 17 143.19 11.8
-4 -2 -17 29.4 7.5
4 -2 17 27.4 8
-4 -2 -17 32 7.9
4 -2 17 29.2 7.8
4 -2 17 31.3 10.2
-4 -2 -17 25.9 8.2
-4 2 -17 26.7 6.3
-4 2 -17 33.3 7.8
-4 2 -17 29 6.9
4 2 17 18.2 8.1
4 2 17 37.9 7.4
4 2 17 31.3 23.2
5 -2 17 70.19 12.9
-5 -2 -17 74.29 10.3
5 -2 17 84.49 11.8
-5 -2 -17 67.69 11.4
5 -2 17 78.99 11.3
-5 -2 -17 66.89 10.5
-5 2 -17 94.69 12.9
5 2 17 72.09 9.8
-5 2 -17 65.69 9.6
5 2 17 90.69 27.3
-5 2 -17 61.59 9.5
5 2 17 78.39 11.7
6 -2 17 -9.2 6.6
-6 -2 -17 1 5.9
-6 -2 -17 2.3 5.4
6 -2 17 3.9 6
-6 -2 -17 3.1 4.9
-6 2 -17 2.3 5
6 2 17 -4.8 18.8
6 2 17 -5 6.5
-6 2 -17 -2.6 5
-6 2 -17 6.2 5.3
7 -2 17 186.08 18.2
-7 -2 -17 166.08 13.7
-7 -2 -17 183.08 17.1
7 -2 17 173.08 18.6
-7 -2 -17 143.99 16.7
7 2 17 117.49 27.8
-7 2 -17 141.89 14.5
-7 2 -17 194.08 18.7
7 2 17 161.08 16.5
-8 -2 -17 7.8 7.1
-8 -2 -17 17.8 7.8
-8 -2 -17 15.2 7.2
8 -2 17 3.7 7.4
8 2 17 11.5 7.8
-8 2 -17 22.4 8.2
8 2 17 10.7 16.9
-8 2 -17 23.3 7.7
9 -2 17 16.8 9.4
-9 -2 -17 32.6 8.7
-9 -2 -17 26.7 8.7
-9 -2 -17 5.6 7.3
-9 2 -17 25.6 9.2
-9 2 -17 23.3 7.9
9 2 17 14.8 8.4
13 -3 -17 12.1 6.8
13 -3 -17 3 8.5
-13 3 17 1.6 4.2
13 3 -17 13.1 11.6
-13 3 17 12.1 5.2
13 3 -17 -2.4 9.6
12 -3 -17 207.18 17.1
12 -3 -17 184.08 20.3
12 -3 -17 197.78 20.6
-12 3 17 187.98 12.9
-12 3 17 224.88 13.3
12 3 -17 196.58 20.9
12 3 -17 160.78 21.5
11 -3 -17 1.2 8.1
11 -3 -17 -4.2 4.8
-11 -3 17 3.2 3.9
11 -3 -17 4.1 8.1
-11 3 17 1.3 3.6
11 3 -17 -0.5 9.2
-11 3 17 -4.3 3.3
11 3 -17 1 7.7
10 -3 -17 62.79 10
-10 -3 17 66.09 7.7
10 -3 -17 47.9 12
10 -3 -17 70.49 12.7
10 3 -17 64.29 12.9
-10 3 17 50.79 7.9
10 3 -17 60.79 14.2
-10 3 17 65.79 8.6
9 -3 -17 16.2 6.4
9 -3 -17 9.7 7.9
9 -3 -17 9.8 7.6
-9 -3 17 7.3 4.2
-9 3 17 3.3 3.9
9 3 -17 11.7 8
-9 3 17 10 4.5
9 3 -17 7.5 8.8
8 -3 -17 60.49 11.9
-8 -3 17 45.6 7.1
8 -3 -17 48.8 10.8
-8 -3 17 66.19 8.2
8 3 -17 57.79 12.7
-8 3 17 68.49 9
-8 3 17 56.69 7.8
8 3 -17 25.7 8.7
-7 -3 17 232.78 13.3
-7 -3 17 244.88 13.2
7 -3 -17 224.28 19.4
7 3 -17 215.48 17
7 3 -17 196.88 20.3
-7 3 17 219.18 13
-7 3 17 219.08 13.7
-6 -3 17 181.88 11.8
-6 -3 17 207.58 12.8
6 -3 -17 195.28 19
-6 3 17 194.28 13.1
6 3 -17 226.38 19.9
-6 3 17 189.98 12.2
6 3 -17 172.78 14.8
-5 -3 17 39.8 6.9
5 -3 -17 35.5 8.2
-5 -3 17 28.1 6.2
-5 3 17 33.2 6.3
5 3 -17 33.4 9.6
5 3 -17 29.1 7.5
-5 3 17 39 7.4
-4 -3 17 138.99 12.4
-4 -3 17 138.09 11.5
4 -3 -17 161.58 16.4
4 3 -17 141.29 10.2
4 3 -17 176.58 15.7
4 3 -17 152.38 16.8
-4 3 17 161.78 11.3
-4 3 17 162.68 11.9
3 -3 -17 7.3 5.4
3 -3 -17 -2.5 5.1
-3 -3 17 -0.4 4.3
-3 -3 17 0.8 3.9
-3 3 17 10.1 4.5
3 3 -17 3.6 3.6
-3 3 17 0.8 3.5
3 3 -17 -2.5 6.2
2 -3 -17 7.4 5
2 -3 -17 4.4 6.2
2 -3 -17 3.6 4.6
-2 -3 17 3.1 4.6
-2 -3 17 -2.3 4
2 3 -17 -2.7 6.3
2 3 -17 3.4 3.6
-2 3 17 4.3 3.9
-2 3 17 0 3.5
-1 -3 17 1 4.8
1 -3 -17 8.7 6.6
1 -3 -17 10.7 6.3
1 -3 -17 2.4 4.8
-1 -3 17 14.5 6.3
-1 3 17 8.1 4.5
-1 3 17 8.2 4.8
1 3 -17 17.8 7.9
1 3 -17 0.5 3.6
1 3 -17 3.1 4.5
0 -3 -17 -0.9 5.5
0 -3 -17 2.2 4.5
0 -3 -17 0.6 5
0 -3 17 1.4 4.7
0 -3 17 0.4 4.6
0 3 -17 7.2 4.1
0 3 17 0.4 3.8
0 3 17 -0.2 3.5
0 3 -17 4.3 4.5
-1 -3 -17 29.5 8.9
-1 -3 -17 32.7 7.1
-1 -3 -17 36.3 8.6
1 -3 17 26.3 7.1
1 -3 17 32.6 7.7
1 3 17 25.3 6.1
-1 3 -17 30 7
-1 3 -17 30.7 6.6
1 3 17 31.1 7.5
-2 -3 -17 28.1 7
2 -3 17 30.4 7.8
-2 -3 -17 37.4 9.3
-2 -3 -17 12.9 6.9
2 -3 17 39.8 9.4
2 3 17 37 7.3
-2 3 -17 21 6.7
2 3 17 36.9 7.4
-2 3 -17 46.6 7.6
3 -3 17 -4.4 4.7
-3 -3 -17 12 5.2
-3 -3 -17 0.2 5.3
-3 -3 -17 -1.1 5.8
3 -3 17 1.8 5.3
3 -3 17 2.5 8
3 3 17 -31.6 20.5
-3 3 -17 5.9 4.3
3 3 17 2.4 4.3
-3 3 -17 13.4 5.4
-4 -3 -17 -2.8 5.2
-4 -3 -17 -0.6 4
-4 -3 -17 6.3 6.3
4 -3 17 -0.5 5
4 -3 17 8.5 8.7
4 -3 17 1.6 6
4 3 17 -3.9 6.5
4 3 17 6.7 4.8
-4 3 -17 5 4.7
4 3 17 22.5 24.3
-4 3 -17 -0.4 5
5 -3 17 11.4 7.1
-5 -3 -17 6.8 7
5 -3 17 5.1 8.1
-5 -3 -17 1.6 5.3
-5 -3 -17 14.3 7.4
5 -3 17 11.9 7
-5 3 -17 8 6.4
5 3 17 12.1 7.6
5 3 17 0.3 19.7
-5 3 -17 18 6.4
-6 -3 -17 2.4 5.4
6 -3 17 -9.9 8
-6 -3 -17 -1.8 5.9
6 -3 17 11.6 7.4
-6 -3 -17 3.6 6.6
-6 3 -17 -3.9 4
6 3 17 -7.1 17.9
-6 3 -17 1.1 6.1
-7 -3 -17 15.2 6.6
7 -3 17 11.5 8.9
7 -3 17 10.5 7.8
-7 -3 -17 15 7.8
-7 -3 -17 1.9 6
-7 3 -17 5.3 5.6
-7 3 -17 4.2 6.4
7 3 17 -0.6 15.9
8 -3 17 13.5 9.2
-8 -3 -17 40.9 8.9
-8 -3 -17 16.2 8.7
-8 -3 -17 12.9 8
8 3 17 15 16.8
-8 3 -17 42.5 10.3
-8 3 -17 34.8 8.5
-9 -3 -17 14 7.2
-9 -3 -17 8.8 7.4
-9 -3 -17 3.8 7.4
9 -3 17 4.5 8.5
-9 3 -17 13 7.4
9 3 17 23.3 16.9
-9 3 -17 8.1 6.9
12 -4 -17 -1 5.4
12 -4 -17 16.7 9.4
12 4 -17 8.7 10.2
-12 4 17 -0.5 3.9
-12 4 17 7.6 4.6
12 4 -17 2.5 10.3
11 -4 -17 33.9 8.6
11 -4 -17 23.3 9.6
11 4 -17 36.7 13.5
-11 4 17 35.3 7
11 4 -17 45.5 12.2
-11 4 17 26.7 6.6
-10 -4 17 16.4 5.4
10 -4 -17 37.1 10.4
10 -4 -17 30.8 8.3
-10 4 17 24.5 6.2
-10 4 17 18.2 5.3
10 4 -17 9.1 10.2
10 4 -17 12.8 9
9 -4 -17 18.9 9.6
9 -4 -17 26.9 7.6
9 -4 -17 24.4 9
-9 -4 17 5.3 4.7
9 4 -17 3.4 8.2
9 4 -17 3.1 9.3
-9 4 17 16.4 5.8
-9 4 17 20.9 5.5
-8 -4 17 17.8 6
-8 -4 17 19.4 5.7
8 -4 -17 15.8 9
8 4 -17 22.3 8.4
-8 4 17 20.7 5.9
8 4 -17 29 11.1
-8 4 17 15.8 5.3
-7 -4 17 28.8 6.5
-7 -4 17 31.3 7.1
7 -4 -17 16.3 8.9
-7 4 17 27.7 6
-7 4 17 22.4 6.1
7 4 -17 34.6 10.8
-6 -4 17 4.9 4.3
-6 -4 17 1.7 4.2
6 4 -17 4.4 6.9
-6 4 17 2.3 3.7
-6 4 17 3.1 3.8
-5 -4 17 9.8 5.3
-5 -4 17 7.6 5
-5 4 17 12.5 4.9
5 4 -17 10.5 8.4
-5 4 17 12.7 5
-4 -4 17 6.4 4.8
-4 -4 17 14.9 5.9
4 -4 -17 11.8 7.3
-4 4 17 0.3 3.4
-4 4 17 2.6 3.6
4 4 -17 -3.7 6.4
-3 -4 17 20.8 6.4
-3 -4 17 25.8 6.9
3 -4 -17 32.5 7.8
3 4 -17 25.9 8.8
-3 4 17 14.4 5.3
-3 4 17 28.5 6.9
2 -4 -17 10.8 7.5
-2 -4 17 12.9 5.7
-2 -4 17 4.5 4.8
2 -4 -17 4.6 6
2 4 -17 3.2 7.2
-2 4 17 -2.5 3.5
-2 4 17 8.8 4.3
-1 -4 17 12.9 6.6
1 -4 -17 10.9 7.5
1 -4 -17 10.7 6.7
-1 -4 17 15.7 6.6
1 -4 -17 5.2 5.2
1 4 -17 21.9 8.4
-1 4 17 10.7 4.9
1 4 -17 15.2 7
-1 4 17 7.2 5
0 -4 17 30.8 7.8
0 -4 17 12.3 6
0 -4 -17 21.2 5.9
0 4 -17 32.9 7
0 4 -17 9.6 7.7
0 4 17 24.9 6.7
0 4 -17 16.8 5
0 4 17 15.5 5.6
-1 -4 -17 -7.8 5.5
1 -4 17 1.4 5.7
-1 -4 -17 3.2 4.8
1 -4 17 1.3 5.2
-1 -4 -17 -3.1 5.9
-1 4 -17 -5.1 6.4
1 4 17 -25.4 20.7
-1 4 -17 0.3 3.5
1 4 17 -5.4 3.8
-1 4 -17 1.1 4.6
1 4 17 4.1 4.4
-2 -4 -17 5.9 6.6
2 -4 17 3.5 5.6
-2 -4 -17 -0.8 4.4
-2 -4 -17 0.5 5.7
2 -4 17 -2.6 5.1
-2 4 -17 5 5.1
2 4 17 9.1 24.2
2 4 17 2.1 4.3
-2 4 -17 -1.5 3.9
3 -4 17 44.3 9.5
-3 -4 -17 45.6 8.1
-3 -4 -17 43.9 10.3
3 -4 17 76.99 12.1
3 -4 17 49.4 11.3
-3 -4 -17 53.09 11.4
3 4 17 54.09 8.6
3 4 17 57.59 25.8
-3 4 -17 82.99 11.7
-3 4 -17 50.79 8.1
4 -4 17 0.6 8.3
4 -4 17 3.2 6.9
4 -4 17 8.4 7.2
-4 -4 -17 7.9 6.6
-4 -4 -17 2.8 5
-4 -4 -17 1.1 7
-4 4 -17 3.7 6.1
4 4 17 17.5 23.7
4 4 17 7 5.8
-4 4 -17 22.4 6.4
5 -4 17 90.89 13.8
-5 -4 -17 101.19 13.8
-5 -4 -17 51.69 9
-5 -4 -17 80.79 13.9
5 -4 17 69.69 13.5
5 -4 17 102.49 14.4
-5 4 -17 89.39 11.1
-5 4 -17 113.69 14.3
5 4 17 74.69 26.9
6 -4 17 22.8 8.9
-6 -4 -17 6.8 7.2
-6 -4 -17 5.9 5.8
6 -4 17 -12.4 7.4
-6 -4 -17 5.4 7.6
-6 4 -17 8.6 7.3
6 4 17 30.8 20.6
-6 4 -17 0.4 4.7
-7 -4 -17 -5.4 5.8
7 -4 17 -8.6 8
-7 -4 -17 9.4 7.5
7 -4 17 -8.3 6.5
-7 -4 -17 -6.7 4.8
7 4 17 23 18.8
-7 4 -17 -0.3 4.5
-7 4 -17 4.4 6.7
-8 -4 -17 9.2 7.3
-8 -4 -17 32.9 9.7
8 -4 17 5.6 9.6
-8 -4 -17 18 7.5
8 4 17 7.6 16.4
-8 4 -17 28.1 9.6
-8 4 -17 21 7.5
11 -5 -17 6.1 8.2
11 -5 -17 10.1 6.5
11 5 -17 -6 10.7
-11 5 17 14.8 6.2
-11 5 17 12 5.4
10 -5 -17 19 9.4
10 -5 -17 17.3 7.4
-10 -5 17 22.9 6.5
10 5 -17 11.8 11.8
-10 5 17 23.6 6.3
-10 5 17 25.7 6.8
9 -5 -17 40.2 9.6
-9 -5 17 50.69 8.6
9 -5 -17 59.09 12.4
-9 5 17 64.09 9.5
9 5 -17 60.89 14.8
-9 5 17 56.09 8.4
-8 -5 17 -3.6 4.9
-8 5 17 1.4 4.2
8 5 -17 6.3 9.7
-8 5 17 8.8 4.6
-7 -5 17 233.18 15.3
7 -5 -17 163.78 26.9
-7 -5 17 212.28 14.6
7 5 -17 199.18 21.4
-7 5 17 242.08 14.9
-7 5 17 195.88 14.6
-6 -5 17 -0.2 4.9
-6 -5 17 12 6.2
-6 5 17 3.8 4.1
-6 5 17 0 4.2
6 5 -17 0.7 7.8
-5 -5 17 2.3 5.3
-5 -5 17 -3 4.9
5 -5 -17 -3.3 6.2
5 5 -17 6.5 7.5
-5 5 17 -4.4 3
-5 5 17 3.5 4.1
-4 -5 17 20.8 7.1
4 -5 -17 27.2 9.2
-4 -5 17 29 7.6
-4 5 17 20.6 5.9
-4 5 17 27.3 6.7
4 5 -17 23.7 8.8
-3 -5 17 123.69 13.6
3 -5 -17 134.29 16.7
3 -5 -17 105.79 13.6
-3 -5 17 125.79 13.2
3 5 -17 117.19 15.6
-3 5 17 118.39 11.6
-3 5 17 103.69 12.2
-2 -5 17 3.8 5.4
2 -5 -17 9.6 7
-2 -5 17 3.7 5.8
2 -5 -17 7.4 7.1
2 5 -17 18.8 8.6
-2 5 17 4.8 4.5
-2 5 17 4.2 4.8
1 -5 -17 88.29 12.7
-1 -5 17 69.89 10.6
1 -5 -17 84.19 14.5
-1 -5 17 72.89 11.1
-1 5 17 71.09 9.9
-1 5 17 30 27.8
-1 5 17 86.49 11
0 -5 17 28.1 8
0 -5 -17 11.6 8
0 -5 -17 7.7 8
0 -5 17 19.1 7.9
0 5 17 -5.4 23.3
0 5 17 24.8 6.6
0 5 17 29.7 7
-1 -5 -17 11.9 5.6
1 -5 17 21.9 7.7
-1 -5 -17 3.7 7.3
-1 -5 -17 14.8 8
1 -5 17 15.2 7.7
1 5 17 7.1 5.3
-1 5 -17 2.8 5.3
1 5 17 -10.4 22.5
2 -5 17 22.9 8.5
2 -5 17 28 10.3
-2 -5 -17 9.2 7.5
-2 -5 -17 5.4 7.5
2 -5 17 20.5 8.4
-2 -5 -17 15.8 6.2
2 5 17 39.4 26.5
2 5 17 36.6 8
-2 5 -17 28.3 7.8
-3 -5 -17 81.79 14.6
3 -5 17 82.19 12.9
3 -5 17 112.99 15.5
-3 -5 -17 84.29 13.4
3 -5 17 97.49 14.1
-3 -5 -17 89.89 11.4
3 5 17 90.89 28.2
-3 5 -17 89.19 10.5
-3 5 -17 119.89 13.9
3 5 17 98.69 11.9
-4 -5 -17 41.8 8.7
-4 -5 -17 40.5 11.1
4 -5 17 58.29 12.5
4 -5 17 42.2 11.6
-4 -5 -17 54.79 11.5
4 -5 17 39.9 10.9
-4 5 -17 69.89 11.7
-4 5 -17 45.7 8.1
4 5 17 59.39 25.4
-5 -5 -17 16.8 6.5
5 -5 17 23.2 11.6
-5 -5 -17 24.8 10
5 -5 17 15.5 8.3
-5 -5 -17 38.3 10.4
5 -5 17 18.5 8.9
-5 5 -17 41.7 10.3
-5 5 -17 26.9 6.9
5 5 17 78.39 26
-6 -5 -17 1.1 5.3
6 -5 17 -17.8 7.5
-6 -5 -17 5.9 6.8
-6 -5 -17 2.1 7
6 -5 17 7 8.2
6 5 17 4.7 19.5
-6 5 -17 9.6 5.5
-6 5 -17 -0.1 6.2
7 -5 17 22.6 10.8
-7 -5 -17 39.3 10.7
-7 -5 -17 20.3 7
-7 -5 -17 12.5 8.6
7 -5 17 3.5 9.8
-7 5 -17 24.4 7.7
-7 5 -17 45.5 11.1
7 5 17 45.5 23
10 -6 -17 25.7 10.5
-10 -6 17 18.5 6.7
-10 6 17 19.8 6.7
10 6 -17 12.5 12
-10 6 17 30.9 7.5
-9 -6 17 61.39 9.8
9 -6 -17 79.09 13.6
9 6 -17 58.89 15.7
-9 6 17 75.89 10.2
-9 6 17 80.69 11.2
-8 -6 17 9.8 6.3
-8 6 17 -3.5 3.7
8 6 -17 7.3 9.7
-8 6 17 3.7 4.3
-7 -6 17 0.4 5.3
-7 -6 17 7 6.3
-7 6 17 2.3 4.6
7 6 -17 -1.9 8.2
-7 6 17 4.8 5.3
-6 -6 17 8.4 6.2
6 -6 -17 -3 8.3
-6 -6 17 5 6
6 6 -17 10.6 10.1
-6 6 17 10.5 6.3
-6 6 17 9.2 4.7
5 -6 -17 45.1 11.4
-5 -6 17 32.1 8.3
-5 -6 17 36.4 8.7
-5 6 17 37.3 8.5
-5 6 17 33.8 7.4
5 6 -17 44.2 11.6
-4 -6 17 9.9 6.9
-4 -6 17 -3.3 4.8
4 -6 -17 8.3 9.3
-4 6 17 -3.7 3.7
-4 6 17 -0.8 4.7
-4 6 17 2.3 25
-3 -6 17 -9.5 5.7
3 -6 -17 12.9 8.1
-3 -6 17 -5 6.6
3 -6 -17 7.1 8.8
-3 6 17 -25 23.5
-3 6 17 13.1 6.2
-3 6 17 5.1 4.5
-2 -6 17 40.9 9.8
-2 -6 17 46.7 10.4
2 -6 -17 38.7 10.5
2 -6 -17 68.09 14.1
-2 6 17 48.9 9.1
-2 6 17 54.19 10.2
-2 6 17 -5.4 25.3
1 -6 -17 50.99 11.5
1 -6 -17 38.2 11.9
-1 -6 17 32.3 9.6
-1 -6 17 33.4 9.4
-1 6 17 48.4 28.4
-1 6 17 56.19 10
-1 6 17 41.9 8.2
0 -6 17 1.9 6.5
0 -6 -17 9.4 8.9
0 -6 17 3.1 7
0 -6 -17 6.4 7.2
0 6 17 4.2 5.2
0 6 17 -15.3 20.8
-1 -6 -17 7.4 8.8
1 -6 17 2.8 7.3
-1 -6 -17 7.5 7.5
1 -6 17 -3.8 8.8
1 -6 17 9.5 7.9
1 6 17 -0.7 5
1 6 17 17.7 23.2
2 -6 17 35.3 10.3
2 -6 17 34.7 11.2
-2 -6 -17 15.2 7
-2 -6 -17 17.9 9.8
2 -6 17 19.1 9.5
-2 -6 -17 21.7 8.9
2 6 17 -10.5 19.7
2 6 17 32.4 8.8
-2 6 -17 31.9 8.9
3 -6 17 -5.9 8.5
-3 -6 -17 1.3 7.9
3 -6 17 0.2 6.7
-3 -6 -17 5.9 5.5
-3 -6 -17 -3.8 7.2
3 -6 17 6.4 8.4
-3 6 -17 -4.6 5.6
3 6 17 -14.3 18.7
4 -6 17 24.4 9.4
4 -6 17 33.9 10.9
-4 -6 -17 33 11
-4 -6 -17 15.3 8.7
-4 -6 -17 19.1 7.1
4 -6 17 20.4 11.5
4 6 17 20 22
-4 6 -17 44.6 10.4
-5 -6 -17 28.5 9.6
5 -6 17 45.4 12.8
5 -6 17 22.7 10.8
-5 -6 -17 35.4 8.7
-5 -6 -17 42.4 11.9
5 -6 17 22.7 10.3
-5 6 -17 59.49 12.3
5 6 17 67.59 25.4
-7 -7 17 18.3 8.4
-7 -7 17 11.2 7.7
-7 7 17 19.5 7.5
-7 7 17 -1.8 4.5
6 -7 -17 1.4 10.4
-6 -7 17 -3.8 6.4
-6 -7 17 17.7 7.2
-6 7 17 -6 3.4
-6 7 17 -16.1 25.1
-6 7 17 1.4 4.9
-5 -7 17 2 6.6
-5 -7 17 -6.6 5.8
5 -7 -17 8.2 8.9
-5 7 17 11.1 6
-5 7 17 -10.4 24
-5 7 17 -3.2 4.2
-4 -7 17 26.5 9.1
4 -7 -17 13.1 9.6
-4 -7 17 4.9 7
-4 7 17 -1.2 4.1
-4 7 17 5 5.8
-4 7 17 -38.8 22.1
3 -7 -17 51.29 11.2
3 -7 -17 59.99 13.4
-3 -7 17 43.1 10.8
-3 -7 17 63.79 11.8
-3 7 17 53.59 9.3
-3 7 17 52.99 9.9
-3 7 17 41.1 25.8
-2 -7 17 13.2 8.5
2 -7 -17 24.9 11
-2 -7 17 10.6 8.3
2 -7 -17 5.3 7.3
-2 7 17 46.2 26.9
-2 7 17 4.6 5.3
-2 7 17 17.5 7.2
1 -7 -17 -6.4 8.7
-1 -7 17 7.7 7.9
1 -7 -17 7.1 7.8
-1 -7 17 1.3 7
-1 7 17 0.1 21.4
-1 7 17 12 6.6
0 -7 -17 14.8 9.1
0 -7 17 16.2 9.2
0 -7 -17 10.7 9.7
0 -7 17 16.4 8.1
0 7 17 7.2 21.4
0 7 17 28 7.5
1 -7 17 19.8 9.2
1 -7 17 7.1 8.3
-1 -7 -17 19.3 9.9
-1 -7 -17 10.3 9.3
1 -7 17 -4.1 10.6
1 7 17 -0.2 19.3
2 -7 17 32.3 10.2
-2 -7 -17 39.3 10.6
2 -7 17 31.3 10.8
-2 -7 -17 51.19 13.6
2 -7 17 25.8 11.4
2 7 17 26.4 23
3 -7 17 1.9 7.6
-3 -7 -17 -12.7 8.2
3 -7 17 4.5 8.9
3 -7 17 -3.9 9.6
-3 -7 -17 14.1 9.5
3 7 17 13.2 21.6
14 0 -18 12.6 7.1
14 0 -18 17.7 11.6
-14 0 18 13.2 4.8
14 0 -18 14.2 10.7
-13 0 18 4.6 4.1
13 0 -18 4 5.8
13 0 -18 -8.3 8.8
13 0 -18 -7.4 7.9
12 0 -18 21.6 10.4
-12 0 18 25.8 5.5
12 0 -18 29.7 8.5
12 0 -18 19.1 10.1
11 0 -18 4.9 9.8
11 0 -18 22.4 7.4
-11 0 18 22.3 5.3
11 0 -18 12 9.7
10 0 -18 26 9.4
-10 0 18 34.4 6.3
-10 0 18 42.5 6.6
10 0 -18 26.5 10.3
9 0 -18 250.87 22.9
-9 0 18 256.57 13.6
-9 0 18 252.57 14.1
9 0 -18 223.98 19.3
-8 0 18 -1.9 2.8
8 0 -18 -11.1 6.2
-8 0 18 -7.4 2.6
8 0 -18 -4.4 6
-7 0 18 30.1 6.4
-7 0 18 36.1 6.1
7 0 -18 26.4 8.5
7 0 -18 20.1 9.3
6 0 -18 14.7 9.1
6 0 -18 24.5 8.4
-6 0 18 17.2 4.9
-6 0 18 24.1 5.8
-5 0 18 451.35 19.9
5 0 -18 396.66 26.2
-5 0 18 401.06 18.6
4 0 -18 180.38 12.7
-4 0 18 220.58 13.7
-4 0 18 195.08 12.2
-3 0 18 62.39 8.5
3 0 -18 33.3 6.9
-3 0 18 52.39 7.8
3 0 -18 61.89 8.7
-2 0 18 74.09 9.4
-2 0 18 81.79 9.5
2 0 -18 52.69 7.8
2 0 -18 99.39 11.4
-1 0 18 482.75 22
1 0 -18 504.15 23.7
1 0 -18 519.15 22.6
1 0 -18 509.35 22.1
-1 0 18 564.34 23.6
0 0 -18 130.19 12.2
0 0 -18 110.19 11.5
0 0 18 132.89 13
0 0 -18 111.39 12.5
0 0 18 102.79 10.9
1 0 18 764.92 31.5
1 0 18 818.62 31.1
-1 0 -18 789.92 30.7
-1 0 -18 840.52 33.3
-1 0 -18 839.62 31.5
-2 0 -18 59.99 10.1
2 0 18 43.1 8.4
2 0 18 41.2 7.6
-2 0 -18 49.5 8.5
-2 0 -18 38.7 7.6
-3 0 -18 3.9 4.3
3 0 18 6.3 5.8
-3 0 -18 5.7 6
-3 0 -18 4.9 5
3 0 18 -6 4.7
-4 0 -18 4.3 5.2
4 0 18 -1.5 5
-4 0 -18 2.3 5.8
-4 0 -18 -2.2 4.3
4 0 18 -0.1 7.2
4 0 18 1.6 5
-5 0 -18 19.6 6.9
-5 0 -18 25 7.4
5 0 18 37.7 8.6
5 0 18 25.9 9.6
-5 0 -18 28.4 9
-6 0 -18 230.08 16.5
6 0 18 251.17 20.8
6 0 18 187.48 36.4
-6 0 -18 276.17 19.9
-6 0 -18 226.08 16.5
6 0 18 238.28 17.6
-7 0 -18 4.2 6.3
-7 0 -18 0.2 5.2
-7 0 -18 11.6 7.5
7 0 18 0.2 7.1
-8 0 -18 191.78 15.9
-8 0 -18 233.58 17.2
-8 0 -18 242.88 19.6
8 0 18 202.18 20
-9 0 -18 35 9.9
9 0 18 52.59 12.3
-9 0 -18 25.1 8.1
-9 0 -18 53.39 10.5
14 -1 -18 1.5 9.7
14 -1 -18 10.5 10.7
14 1 -18 13 11.3
-14 1 18 -2.9 3.8
14 1 -18 -7.2 8.4
-13 -1 18 19.6 5.9
13 -1 -18 40.7 12.8
13 -1 -18 28 10.7
13 -1 -18 21.5 7.8
13 1 -18 27.4 12.5
13 1 -18 27.5 8.2
-13 1 18 25.7 5.8
13 1 -18 29.5 11.4
12 -1 -18 15.5 6.9
12 -1 -18 9 9.8
-12 -1 18 16.7 4.9
12 -1 -18 15.5 9.3
12 1 -18 13.5 6.9
12 1 -18 14.7 9.1
-12 1 18 10.4 4.4
12 1 -18 15.4 10.6
11 -1 -18 11 6.4
11 -1 -18 0.8 8.2
-11 -1 18 2.7 3.6
11 -1 -18 -2.2 7.5
11 1 -18 12.6 8.8
11 1 -18 10.5 9.5
-11 1 18 -3.7 3.3
-11 1 18 -0.8 3.5
10 -1 -18 6.7 5.9
10 -1 -18 18.2 9.4
10 -1 -18 6.1 8.7
-10 -1 18 7.4 3.9
10 1 -18 14.4 8.7
-10 1 18 12 4.4
10 1 -18 7.6 9
-10 1 18 0.3 3.4
9 -1 -18 126.39 15.2
-9 -1 18 137.49 9.7
9 -1 -18 114.59 16.6
-9 -1 18 114.09 9.7
9 1 -18 139.69 16.1
-9 1 18 120.99 10.2
9 1 -18 118.29 17.9
-9 1 18 129.99 9.9
-8 -1 18 9.2 4.3
8 -1 -18 1.9 8.2
-8 -1 18 16 4.8
8 -1 -18 11.9 7.4
8 1 -18 2.1 7.7
-8 1 18 13.5 4.7
8 1 -18 14.2 8.2
-8 1 18 12.6 4.8
-7 -1 18 275.37 15.3
-7 -1 18 285.97 14.7
7 -1 -18 294.87 22.8
7 -1 -18 305.57 20.5
7 1 -18 319.97 23.7
-7 1 18 290.77 15.1
7 1 -18 336.27 20.7
-7 1 18 330.27 16.5
-6 -1 18 26.8 5.9
-6 -1 18 13.7 4.7
6 -1 -18 14.4 8.7
-6 1 18 18.3 5.1
-6 1 18 13 4.6
6 1 -18 -2.9 7.3
6 1 -18 16 7
-5 -1 18 145.49 11.4
5 -1 -18 140.59 16.6
-5 -1 18 150.48 11.1
-5 1 18 159.28 11.7
5 1 -18 176.18 15.6
5 1 -18 126.29 16.4
-5 1 18 148.49 10.8
-4 -1 18 27.3 6.2
-4 -1 18 31.9 6.2
4 -1 -18 30.7 7.1
-4 1 18 34 6.7
4 1 -18 27.1 6.1
-4 1 18 33.9 6.5
4 1 -18 23.5 9.2
-3 -1 18 6.4 4.3
-3 -1 18 2.4 3.7
3 -1 -18 0.8 4.4
3 -1 -18 -2.8 4.3
3 1 -18 4.9 4
-3 1 18 1.6 3.7
3 1 -18 3.2 4.2
-3 1 18 1.2 3.7
-2 -1 18 208.58 13.5
2 -1 -18 159.58 11.9
2 -1 -18 190.78 14.8
-2 -1 18 175.98 12.3
-2 1 18 186.28 12.4
2 1 -18 188.38 13.2
2 1 -18 166.58 11.8
-2 1 18 171.18 12.6
1 -1 -18 66.29 10.5
1 -1 -18 83.69 10
-1 -1 18 51.99 8.8
1 -1 -18 45.4 7.4
-1 -1 18 52.69 8.4
-1 1 18 77.99 9.9
1 1 -18 60.89 9.2
-1 1 18 65.89 8.4
1 1 -18 56.09 7.9
0 -1 18 9.5 5.1
0 -1 18 -1.2 4
0 -1 -18 11.7 5.7
0 -1 -18 17.5 5.7
0 -1 -18 -1.4 4.7
0 1 18 2.4 4.1
0 1 -18 -1.5 3.6
0 1 -18 3.6 4.2
0 1 -18 0.3 4.4
0 1 18 -0.3 3.8
-1 -1 -18 174.38 13.8
-1 -1 -18 166.98 12.6
-1 -1 -18 174.08 17
1 -1 18 171.38 13.3
1 -1 18 161.78 12.9
-1 1 -18 192.98 13.1
1 1 18 165.98 12.3
1 1 18 151.58 12.6
-1 1 -18 177.98 14.3
-1 1 -18 161.18 12.4
-2 -1 -18 78.79 10.1
-2 -1 -18 96.39 12.8
2 -1 18 93.39 11.3
2 -1 18 75.39 10.6
-2 -1 -18 66.79 9.9
-2 1 -18 76.49 10.2
2 1 18 76.59 9.9
-2 1 -18 78.29 11.1
2 1 18 80.79 10.5
-2 1 -18 63.59 9.1
-3 -1 -18 87.49 11.4
3 -1 18 93.09 12.1
3 -1 18 112.99 12.5
-3 -1 -18 95.19 13.5
-3 -1 -18 79.49 10
-3 1 -18 94.99 11.2
-3 1 -18 84.39 10.1
-3 1 -18 101.49 12.9
3 1 18 84.39 10.1
3 1 18 77.69 10.6
-4 -1 -18 86.79 12.8
-4 -1 -18 68.69 10.7
4 -1 18 94.79 12.4
4 -1 18 81.99 13.6
4 -1 18 81.39 11.1
-4 -1 -18 72.09 9.7
-4 1 -18 64.59 9.8
4 1 18 78.09 12.6
-4 1 -18 94.39 13
-4 1 -18 66.59 9.7
4 1 18 52.69 9.1
5 -1 18 7.4 8.7
5 -1 18 3 6
-5 -1 -18 10.7 6.1
-5 -1 -18 6.2 6.8
-5 -1 -18 7 6.1
-5 1 -18 4.6 5.8
-5 1 -18 9.5 6.1
5 1 18 -24.6 20.3
5 1 18 11.2 6.7
5 1 18 4.6 8.1
-5 1 -18 10.5 6.8
-6 -1 -18 -4.1 5.4
-6 -1 -18 2.9 5.1
6 -1 18 1.6 7.9
-6 -1 -18 6.5 6.3
6 -1 18 1.3 6.1
-6 1 -18 11.8 5.9
6 1 18 6.1 7.6
-6 1 -18 0.9 5
6 1 18 11.7 9.1
6 1 18 -16.9 18.9
-6 1 -18 -6.7 5.6
-7 -1 -18 12.7 6.6
-7 -1 -18 1.7 6.2
7 -1 18 -0.8 7.6
-7 -1 -18 9 6.3
-7 1 -18 1.1 6.1
-7 1 -18 0 5.3
7 1 18 4.2 18.7
-7 1 -18 3.9 5.3
7 1 18 -4.5 6.6
-8 -1 -18 62.99 11.2
8 -1 18 40 10.5
-8 -1 -18 61.49 11.1
-8 -1 -18 38.6 9.7
-8 1 -18 34.4 9.2
-8 1 -18 54.59 10.4
-8 1 -18 52.29 10.5
8 1 18 42.4 11.4
9 -1 18 17.2 9.7
-9 -1 -18 49.9 10
-9 -1 -18 43.1 9.7
-9 -1 -18 31.7 9
-9 1 -18 26 9
-9 1 -18 28.6 9.1
-9 1 -18 38.1 8.9
9 1 18 59.79 12
13 -2 -18 -4.9 8.7
13 -2 -18 -7.1 7.6
13 -2 -18 4.2 5.8
13 2 -18 2 5.3
13 2 -18 3.2 11
13 2 -18 0.9 8.7
-13 2 18 10.7 4.9
12 -2 -18 3.2 5.8
-12 -2 18 3.9 3.6
12 -2 -18 -1.2 7.8
12 -2 -18 -2.7 8.2
-12 2 18 4.9 3.9
-12 2 18 2.2 4
12 2 -18 -9 9
12 2 -18 -8.3 8
-11 -2 18 11.4 4.6
11 -2 -18 14 8.8
11 -2 -18 6.5 5.7
11 -2 -18 15.4 9.3
-11 2 18 15.8 5.1
-11 2 18 13 5.3
11 2 -18 14.1 10.4
11 2 -18 6.1 8.9
10 -2 -18 -4.4 7.1
-10 -2 18 3.5 3.7
10 -2 -18 -2.6 8.4
10 -2 -18 -2.6 5.2
-10 2 18 8.9 4.2
10 2 -18 6 8.2
-10 2 18 9.7 4.4
10 2 -18 -2.6 8.7
-9 -2 18 80.79 9.2
9 -2 -18 80.09 13.2
-9 -2 18 67.59 8.2
9 -2 -18 67.29 13
-9 2 18 69.29 8.5
9 2 -18 66.99 14.5
-9 2 18 76.49 9.6
9 2 -18 74.89 12.8
-8 -2 18 47 6.9
8 -2 -18 45.3 11.3
-8 -2 18 48.2 7.3
8 -2 -18 60.89 11.2
-8 2 18 46.6 7.4
-8 2 18 43.2 7.2
8 2 -18 48.6 12.4
8 2 -18 56.19 11.2
-7 -2 18 -5.1 3
7 -2 -18 2.3 7.7
-7 -2 18 4.2 3.7
-7 2 18 1.9 3.5
-7 2 18 -1 3
7 2 -18 0.7 7.2
7 2 -18 6.6 6.7
-6 -2 18 77.59 9
-6 -2 18 68.49 9.1
6 -2 -18 29.4 9.8
-6 2 18 56.09 8.1
6 2 -18 81.19 11.3
-6 2 18 51.79 7.7
6 2 -18 54.59 11.9
-5 -2 18 130.69 11.6
-5 -2 18 121.39 11.8
5 2 -18 125.09 13.2
-5 2 18 117.49 11
-5 2 18 130.39 10.7
5 2 -18 122.99 16.5
-4 -2 18 81.79 9.6
-4 -2 18 100.99 11
4 -2 -18 81.49 11
-4 2 18 100.49 10.6
4 2 -18 102.89 11.6
4 2 -18 93.09 14.1
4 2 -18 96.19 9.9
-4 2 18 120.09 11.3
-3 -2 18 10 5
-3 -2 18 11.1 5
3 -2 -18 7.5 5.8
3 2 -18 3.5 7.3
-3 2 18 5.5 4.5
3 2 -18 0.4 3.7
3 2 -18 11.8 6.4
-3 2 18 7.9 4.5
2 -2 -18 274.57 16.4
-2 -2 18 251.57 15.6
2 -2 -18 233.88 14.9
-2 -2 18 249.78 14.7
2 -2 -18 234.78 16.9
-2 2 18 252.57 14.5
2 2 -18 235.88 13.8
-2 2 18 233.78 14.9
2 2 -18 226.48 14.5
1 -2 -18 12.5 5.4
1 -2 -18 9.5 6
-1 -2 18 1.1 4.2
-1 -2 18 7.6 4.9
1 -2 -18 15.9 6.3
1 2 -18 13.9 5
1 2 -18 14.1 5.5
-1 2 18 18.7 6
-1 2 18 11.9 4.9
0 -2 -18 8.4 4.5
0 -2 -18 8.2 6.3
0 -2 18 -0.8 4.4
0 -2 -18 8.7 5.8
0 -2 18 5.7 5.2
0 2 18 10.2 5.1
0 2 18 15.4 5.2
0 2 -18 6.4 4.8
0 2 -18 16.7 6
1 -2 18 24.8 7.3
1 -2 18 20.6 6.5
-1 -2 -18 26.7 6.6
-1 2 -18 28.4 6.7
-1 2 -18 31.1 6.6
1 2 18 44.7 7.8
-1 2 -18 25.3 6.8
1 2 18 27.2 6.2
-2 -2 -18 -4.1 5
2 -2 18 -4 4.6
2 -2 18 -1.2 4.9
-2 -2 -18 -1 5.6
-2 -2 -18 -0.6 4.4
2 2 18 -4.2 3.6
-2 2 -18 1.3 4.9
-2 2 -18 -1.3 3.9
2 2 18 -2.6 4.1
-2 2 -18 -1 4
-3 -2 -18 9.3 5
-3 -2 -18 20.2 7.8
3 -2 18 20.5 7.2
3 -2 18 23 7.4
-3 -2 -18 17.7 6.9
3 2 18 9.2 5.3
-3 2 -18 13.2 6.2
3 2 18 2.4 4.6
-3 2 -18 15.3 5.5
-3 2 -18 14.1 6
4 -2 18 30.6 8.8
-4 -2 -18 23.9 8
-4 -2 -18 34.7 9.5
-4 -2 -18 38.9 8.5
4 -2 18 28.9 8
4 -2 18 43 11
4 2 18 37.9 10
-4 2 -18 27.8 7.3
4 2 18 31.8 7.4
-4 2 -18 38.7 8.2
4 2 18 46.2 27.5
-4 2 -18 34.5 8.4
-5 -2 -18 5.1 7.2
5 -2 18 10.2 6.7
5 -2 18 8.7 8.8
-5 -2 -18 18.1 7.2
-5 -2 -18 13.9 6.3
5 -2 18 17.9 7.9
-5 2 -18 16.1 6.5
5 2 18 14.8 6.4
5 2 18 -1.1 7.3
-5 2 -18 14.6 7.2
5 2 18 -10.4 20.4
-5 2 -18 12.1 6.2
6 -2 18 19 8.2
6 -2 18 2.4 9.1
-6 -2 -18 14.1 8.3
-6 -2 -18 8.6 7.2
-6 -2 -18 7.9 5.5
-6 2 -18 23.8 7.9
6 2 18 5.9 20.2
-6 2 -18 51.39 11.5
-6 2 -18 30.9 8.7
6 2 18 20 9
-7 -2 -18 105.69 13.7
7 -2 18 75.79 12.3
-7 -2 -18 79.09 13.3
-7 -2 -18 90.79 12.3
7 -2 18 77.49 14
-7 2 -18 84.79 12.1
7 2 18 32.5 21.2
7 2 18 66.09 12.2
-7 2 -18 99.19 14
-8 -2 -18 4.4 6.4
-8 -2 -18 19.6 7.1
8 -2 18 17.8 9.3
-8 -2 -18 10.8 7.1
8 2 18 13.2 8.5
-8 2 -18 11.3 8.4
-8 2 -18 14.9 7
8 2 18 15.7 17.3
9 -2 18 -2 7.6
-9 -2 -18 -1.2 5.8
-9 -2 -18 -4.2 6.4
9 2 18 -4.8 7.1
-9 2 -18 5 6.4
-9 2 -18 -0.7 5.5
13 -3 -18 24.9 11.4
13 -3 -18 19 8.2
13 -3 -18 12.7 13
13 3 -18 7.6 12.4
-13 3 18 33 6.9
-13 3 18 25.2 6.4
13 3 -18 29.2 12.3
12 -3 -18 11.5 9.7
12 -3 -18 4 6.4
12 -3 -18 9.2 8.9
-12 3 18 15.4 5.5
12 3 -18 10.8 9.5
12 3 -18 -0.2 10.6
-12 3 18 21.4 5.8
11 -3 -18 33.7 10.4
11 -3 -18 13.2 8.6
11 -3 -18 25.3 8.1
-11 -3 18 26.1 5.9
11 3 -18 29.2 11.8
-11 3 18 27.6 6.2
11 3 -18 30.5 10.7
-11 3 18 40 7.4
10 -3 -18 155.48 16.1
-10 -3 18 209.58 12.4
10 -3 -18 190.68 20.8
10 -3 -18 181.78 18.8
-10 3 18 183.18 13.3
10 3 -18 221.68 21.1
-10 3 18 202.48 13.1
10 3 -18 171.58 20.6
-9 -3 18 15.9 5.4
9 -3 -18 16.1 8.9
9 -3 -18 2.8 8
-9 3 18 7.8 4.7
9 3 -18 0.5 8.7
-9 3 18 8 4.5
9 3 -18 11.3 8.2
-8 -3 18 79.79 9.5
-8 -3 18 69.19 8.9
8 -3 -18 79.09 14
8 -3 -18 61.79 11.7
-8 3 18 75.39 9.2
8 3 -18 93.99 12.9
-8 3 18 82.39 9.9
8 3 -18 66.19 13.7
-7 -3 18 119.59 11.3
7 -3 -18 91.59 14.4
-7 -3 18 119.99 11.3
7 3 -18 107.49 13.6
-7 3 18 122.79 11.7
-7 3 18 122.99 12.3
7 3 -18 112.79 16.8
-6 -3 18 8.1 4.6
-6 -3 18 -1.4 3.9
6 -3 -18 13.4 8.5
-6 3 18 9.6 4.8
6 3 -18 9.7 7.5
-6 3 18 3.5 3.7
6 3 -18 4.9 6
-5 -3 18 7.5 4.8
-5 -3 18 5.9 4.6
5 -3 -18 13.6 6.4
-5 3 18 6.6 4.3
5 3 -18 2.5 7.7
-5 3 18 8.3 4.8
5 3 -18 6.5 5.9
-4 -3 18 42.6 7.9
4 -3 -18 58.69 10.6
-4 -3 18 43.8 8.3
4 3 -18 50.29 11.1
4 3 -18 54.89 8.1
-4 3 18 58.79 9
-4 3 18 32.3 6.7
-3 -3 18 37.5 7.7
3 -3 -18 48.3 10.2
-3 -3 18 37 7.4
-3 3 18 45.7 7.9
3 3 -18 21 8.8
3 3 -18 56.19 7.8
-3 3 18 54.79 8.3
2 -3 -18 77.19 11.4
-2 -3 18 48.7 8.4
2 -3 -18 69.69 9.5
-2 -3 18 48.4 8.4
2 -3 -18 69.89 10.7
-2 3 18 54.79 8
2 3 -18 30.1 10.4
2 3 -18 66.69 8.4
-2 3 18 54.59 8.9
-1 -3 18 15.4 6.4
1 -3 -18 9.9 5
1 -3 -18 8.6 6.3
-1 -3 18 9.6 5.3
1 -3 -18 18.8 7.6
1 3 -18 10.4 5.3
-1 3 18 23.2 6.2
1 3 -18 11.9 5.3
-1 3 18 18.8 5.9
1 3 -18 21.2 8.3
0 -3 -18 0.2 4.4
0 -3 18 14.9 6.4
0 -3 18 12.5 5.9
0 -3 -18 1.4 5.8
0 -3 -18 18 7.2
0 3 18 9.6 5
0 3 -18 13.2 5
0 3 18 6.9 4.5
0 3 -18 8.5 5.2
-1 -3 -18 10.2 7.2
-1 -3 -18 9 5.1
-1 -3 -18 2.4 6
1 -3 18 9.1 6
1 -3 18 7.7 6.1
1 3 18 10.2 5.3
1 3 18 10.2 5.3
-1 3 -18 10.7 5.6
-1 3 -18 8 4.3
2 -3 18 80.09 11.8
2 -3 18 95.69 12.4
-2 -3 -18 50.89 11.3
-2 -3 -18 60.59 10.5
-2 -3 -18 86.69 10.7
-2 3 -18 62.39 10
2 3 18 93.39 11.4
-2 3 -18 61.39 8.8
2 3 18 62.49 8.8
-3 -3 -18 10.4 6.8
3 -3 18 -6.2 7.7
-3 -3 -18 -4.6 5.7
3 -3 18 3.4 5.5
-3 -3 -18 4 4.5
3 -3 18 -0.3 5.6
3 3 18 -6.5 6.6
3 3 18 1.5 4.1
3 3 18 31.3 26.4
-3 3 -18 0.6 4.3
-3 3 -18 -4.7 4.7
-4 -3 -18 104.19 13.5
4 -3 18 78.49 13.9
4 -3 18 78.69 12.3
4 -3 18 61.89 10.9
-4 -3 -18 67.79 10.1
-4 -3 -18 74.69 12.2
-4 3 -18 103.79 13.8
4 3 18 48.4 27.4
4 3 18 66.79 11.6
4 3 18 73.59 10.2
-4 3 -18 76.19 10.5
5 -3 18 39.5 11.5
5 -3 18 47.9 10.7
-5 -3 -18 27.7 7.9
-5 -3 -18 28.4 10.2
-5 -3 -18 36.2 9.4
5 -3 18 33.6 9.2
5 3 18 19.9 22.5
-5 3 -18 38.4 9.7
-5 3 -18 39.6 8.1
6 -3 18 0.6 7
-6 -3 -18 -1.9 5.4
-6 -3 -18 2.6 7
-6 -3 -18 -1.2 5.9
6 -3 18 -8.7 8.4
-6 3 -18 4.3 5.2
6 3 18 13.1 20.4
-6 3 -18 -1.3 5.9
-7 -3 -18 45.1 9
7 -3 18 48.9 12.2
7 -3 18 71.89 13.2
-7 -3 -18 48.8 10.6
-7 -3 -18 35.3 10.3
-7 3 -18 51.69 9.5
-7 3 -18 55.39 11.5
7 3 18 36.5 21
-8 -3 -18 19.2 8.7
8 -3 18 8.8 9.1
-8 -3 -18 9.8 7.3
-8 -3 -18 19.7 7.2
-8 3 -18 1.7 5.9
8 3 18 21.2 17.9
-8 3 -18 19.8 8.7
12 -4 -18 40.4 12.2
12 -4 -18 22.2 8.1
-12 4 18 40.6 7.6
12 4 -18 34.8 13.9
-12 4 18 43 8.1
12 4 -18 25.3 11.9
-11 -4 18 5.4 5
11 -4 -18 2.7 6.3
11 -4 -18 4.8 8.7
-11 4 18 5.4 4.4
11 4 -18 12.5 11
-11 4 18 7.6 5.1
11 4 -18 -3.3 9.1
10 -4 -18 6.1 7.9
-10 -4 18 3.9 4.8
10 -4 -18 -4.8 7.1
10 -4 -18 9 6.3
10 4 -18 -0.9 7.4
10 4 -18 9.7 10.3
-10 4 18 -0.1 3.6
-10 4 18 -2.8 3.8
9 -4 -18 5.1 8
9 -4 -18 -3.5 7.7
-9 -4 18 -7.4 3.9
9 4 -18 1.9 8.1
-9 4 18 0.6 3.8
9 4 -18 -1.7 9.2
-9 4 18 3.9 4.4
8 -4 -18 57.19 12.4
-8 -4 18 52.69 8.2
-8 -4 18 48.6 8.3
8 4 -18 21.3 10.3
-8 4 18 58.99 8.7
-8 4 18 57.19 8.9
-7 -4 18 6.4 5.1
7 -4 -18 -3.3 7.4
-7 -4 18 11.3 5
-7 4 18 1.8 4.3
-7 4 18 2.4 4.3
7 4 -18 7.8 9.1
-6 -4 18 10.9 5.4
-6 -4 18 1.6 4.8
-6 4 18 4.5 4.5
6 4 -18 10.3 8.4
-6 4 18 9 4.7
-5 -4 18 11.4 5.4
-5 -4 18 34.2 7.6
5 -4 -18 26.5 7.8
5 4 -18 6.8 7.9
-5 4 18 13.8 5.7
-5 4 18 25.4 6
4 -4 -18 -3.5 5.4
-4 4 18 -2.4 3.4
-4 4 18 -0.1 3.7
-3 -4 18 61.29 10
-3 -4 18 93.39 11.2
3 -4 -18 80.39 13.3
-3 4 18 94.79 11.8
3 4 -18 71.49 12.8
-3 4 18 86.39 10
2 -4 -18 44.9 10.5
-2 -4 18 29.3 7.5
2 -4 -18 54.19 10.3
-2 -4 18 39.6 8.3
-2 4 18 49.7 8.2
-2 4 18 67.59 9.8
2 4 -18 33.3 9.8
1 -4 -18 50.29 8.9
1 -4 -18 64.39 12.1
-1 -4 18 50.49 9.4
1 -4 -18 60.09 10.9
-1 -4 18 59.69 10
-1 4 18 60.19 9.2
-1 4 18 53.39 9.2
1 4 -18 56.09 11.4
0 -4 18 148.09 16.1
0 -4 -18 136.79 15.5
0 -4 -18 145.79 13.7
0 -4 18 167.88 16.1
0 -4 -18 160.48 18.3
0 4 -18 162.58 12.7
0 4 -18 165.68 11.7
0 4 -18 165.88 17.7
0 4 18 136.79 14.2
0 4 18 134.09 12.7
1 -4 18 26.1 7.9
1 -4 18 14.5 6.8
-1 -4 -18 1.8 7.2
-1 -4 -18 19.5 6.6
-1 -4 -18 8.3 8
-1 4 -18 10.4 8.1
-1 4 -18 19.4 5.7
1 4 18 -8.8 25.8
1 4 18 21.9 6.9
-1 4 -18 32.1 7.8
1 4 18 17.6 5.6
2 -4 18 14.3 7
2 -4 18 21.3 8.1
-2 -4 -18 21 7.2
-2 -4 -18 9 8
-2 -4 -18 11.3 6.4
2 4 18 -16 21.6
-2 4 -18 9 5.1
-2 4 -18 6.6 5.7
2 4 18 18.2 6.7
3 -4 18 3.5 6.3
-3 -4 -18 9.8 8.7
3 -4 18 6 6.7
-3 -4 -18 18.5 6.6
3 -4 18 10.5 9.4
-3 -4 -18 -1.7 6.3
-3 4 -18 17.2 6.3
-3 4 -18 10.7 6.8
3 4 18 11 5.7
3 4 18 7.8 24.9
-4 -4 -18 83.69 14.3
-4 -4 -18 98.19 13.9
4 -4 18 56.99 11
4 -4 18 117.89 16.2
-4 -4 -18 87.59 11.1
4 -4 18 52.69 13.1
-4 4 -18 72.09 10
-4 4 -18 98.09 13.6
4 4 18 63.89 27.1
5 -4 18 -1.3 9.3
5 -4 18 4.1 6.9
-5 -4 -18 16.4 6.4
-5 -4 -18 12 8.2
5 -4 18 22.1 8.6
-5 -4 -18 15.6 8
-5 4 -18 21.5 6.8
-5 4 -18 5.3 7.2
5 4 18 9.8 20.9
6 -4 18 25.8 10
6 -4 18 33.1 11.4
-6 -4 -18 44.4 10.1
-6 -4 -18 29.6 8.3
-6 -4 -18 48.9 11.2
-6 4 -18 40.1 10.5
6 4 18 9.4 20
-6 4 -18 42.1 8.6
7 -4 18 19.7 11
-7 -4 -18 21.7 8
-7 -4 -18 22.6 9.1
-7 -4 -18 8.9 7.6
7 -4 18 42.7 12
7 4 18 34 21.6
-7 4 -18 38.5 9.1
-7 4 -18 9.2 7.5
11 -5 -18 -5.8 8.3
11 5 -18 5.9 11.7
-11 5 18 4.3 4.6
-10 -5 18 62.69 9.3
10 -5 -18 84.09 14.7
10 -5 -18 78.79 14.4
-10 5 18 54.59 9.6
-10 5 18 85.49 10.5
10 5 -18 82.09 17
-9 -5 18 21.4 6.8
9 -5 -18 4.2 8.7
-9 5 18 24 6.7
-9 5 18 25.4 6.4
9 5 -18 16.5 10.8
-8 -5 18 54.79 8.7
8 5 -18 40.4 12.6
-8 5 18 38.9 7.9
-8 5 18 36 7.3
-7 -5 18 82.19 10.9
7 -5 -18 54.59 12.1
-7 -5 18 73.19 10.6
-7 5 18 81.49 10.5
-7 5 18 68.09 10.5
7 5 -18 55.39 13
-6 -5 18 1.2 5.4
-6 -5 18 2 5.6
-6 5 18 0 4.1
-6 5 18 5.2 4.6
6 5 -18 -5.6 7.3
5 -5 -18 20.8 8.8
-5 -5 18 29.6 8.1
-5 -5 18 32.6 8.2
-5 5 18 35.9 8.3
5 5 -18 31.8 10.8
-5 5 18 25.7 6.4
-4 -5 18 25 7.6
-4 -5 18 43.1 9.3
4 -5 -18 51.19 11.9
4 5 -18 44.3 11.3
-4 5 18 30 7.3
-4 5 18 35.3 8.1
3 -5 -18 1.5 7.4
-3 -5 18 -2.7 4.8
3 -5 -18 5.9 10.1
-3 -5 18 7.2 5.8
3 5 -18 -6.5 6.6
-3 5 18 2 4.8
-3 5 18 8.1 5.1
-2 -5 18 3.9 5.9
2 -5 -18 3.2 8.3
-2 -5 18 -1.8 5.3
2 -5 -18 7.8 7.1
2 5 -18 -6.8 6.3
-2 5 18 -1.3 4.1
-2 5 18 6.6 5.6
1 -5 -18 4 8.5
-1 -5 18 18 6.9
-1 -5 18 15.7 7.2
1 -5 -18 7.9 7.7
-1 5 18 13.8 6.6
-1 5 18 13.8 5.9
-1 5 18 8.2 26.7
0 -5 18 -5 5.1
0 -5 18 2.7 6.2
0 -5 -18 -0.6 7.6
0 -5 -18 0.6 6.6
0 5 18 -26.7 25
0 5 18 -1.2 4.7
0 5 18 4.4 5.4
-1 -5 -18 1.6 7.6
1 -5 18 5.1 6.2
-1 -5 -18 -1.9 6.1
1 -5 18 8.6 6.3
-1 -5 -18 11.6 6.3
1 5 18 8 24.7
-1 5 -18 -2.5 6.5
1 5 18 -5.3 4.5
2 -5 18 8 7.5
-2 -5 -18 6.7 8.4
2 -5 18 -15 7.8
2 -5 18 -12.6 4.8
-2 -5 -18 -2.2 6.8
-2 -5 -18 0.9 5.6
2 5 18 -20.1 22.4
-2 5 -18 -3.6 5.4
2 5 18 -0.4 4.8
-3 -5 -18 3.8 7.6
3 -5 18 5.8 7.2
-3 -5 -18 7.7 8.2
3 -5 18 -3 9
-3 -5 -18 12.8 6.6
3 -5 18 2.4 7
-3 5 -18 2.4 5.9
3 5 18 -3.6 22.3
4 -5 18 17.2 9.5
-4 -5 -18 30.7 10.5
-4 -5 -18 24.8 9.8
-4 -5 -18 34.5 8.5
4 -5 18 24.1 8.8
4 -5 18 16.3 10.8
-4 5 -18 31.7 9.1
4 5 18 33.5 25.1
-4 5 -18 26 7.2
-5 -5 -18 -10 7.3
5 -5 18 -10.5 9.2
5 -5 18 14.2 9
5 -5 18 5.3 7.4
-5 -5 -18 14.1 8.1
-5 -5 -18 -8.4 4.7
-5 5 -18 7.6 5.6
5 5 18 10.6 20.7
-5 5 -18 14 7.9
6 -5 18 48.1 12.6
6 -5 18 46.2 13.4
-6 -5 -18 35.1 8.5
-6 -5 -18 20.7 9
-6 -5 -18 40.6 11.4
-6 5 -18 51.49 9.4
6 5 18 17.9 20.8
-6 5 -18 50.49 11.4
-9 -6 18 -0.6 5.9
9 -6 -18 -6.3 8.2
-9 6 18 -1.6 4.6
9 6 -18 -1.1 10.4
-9 6 18 -0.4 3.9
-8 -6 18 7.5 6.3
8 6 -18 1.8 9.9
-8 6 18 2 4.9
-8 6 18 1.7 4.9
-7 -6 18 10 6.2
-7 -6 18 0.9 6.2
-7 6 18 10.5 5.3
7 6 -18 7.2 10.2
-7 6 18 19.6 7.3
-6 -6 18 19 7.8
-6 -6 18 23.3 7.9
-6 6 18 24.4 7.3
6 6 -18 27 11.5
-6 6 18 15.3 6.1
5 -6 -18 -2.7 6.9
-5 -6 18 -4.1 5.9
-5 -6 18 -4.8 5.3
-5 6 18 -0.5 4.6
-5 6 18 6.1 5.2
5 6 -18 16.3 9.4
-4 -6 18 13.3 7.7
4 -6 -18 11 8.7
-4 -6 18 16.5 7.6
-4 6 18 2.8 5
-4 6 18 -23.8 21.9
-4 6 18 8.9 5.1
3 -6 -18 1.3 7.8
-3 -6 18 2.5 6.2
-3 -6 18 3.5 6.6
-3 6 18 -0.2 4.9
-3 6 18 12.1 26.3
-3 6 18 6.5 5.2
-2 -6 18 53.19 11.2
2 -6 -18 47.8 13
-2 -6 18 34.9 9.2
2 -6 -18 40.6 10.1
-2 6 18 32.1 7.9
-2 6 18 17.2 26.7
-2 6 18 43.5 8.7
1 -6 -18 -0.3 7.9
-1 -6 18 0 6.4
1 -6 -18 2.4 7.2
-1 -6 18 -7 5.5
-1 6 18 5.3 5.3
-1 6 18 -1.9 5
-1 6 18 22 27
0 -6 -18 5.8 7
0 -6 18 5.6 6.8
0 -6 18 -0.2 6.6
0 -6 -18 -6.5 7.8
0 6 18 -6.8 23.8
0 6 18 0.6 5
-1 -6 -18 -3.1 7.2
-1 -6 -18 20.3 11.1
1 -6 18 2.4 9.1
1 -6 18 -2 6.7
1 -6 18 17.7 8.8
1 6 18 29.3 25.2
1 6 18 21.1 7.1
-2 -6 -18 41.5 9.3
2 -6 18 20.9 10.8
-2 -6 -18 28.4 9.8
-2 -6 -18 8.3 8.7
2 -6 18 17.3 8.4
2 -6 18 11.3 8.5
2 6 18 13.6 24.8
3 -6 18 9.4 8
-3 -6 -18 14.2 8
3 -6 18 13.7 8.6
-3 -6 -18 3.3 5.9
-3 -6 -18 -0.4 7.8
3 -6 18 -12.4 9
-3 6 -18 12.7 7.7
3 6 18 8.2 22.4
4 -6 18 7.7 8.8
-4 -6 -18 15.7 10.1
-4 -6 -18 14.8 7.1
4 -6 18 -6.3 10
4 -6 18 4.1 8
-4 -6 -18 23.9 9.7
-4 6 -18 8 7.6
4 6 18 -7.3 19.3
-6 -7 18 3 6.8
-6 -7 18 -1 6.4
-6 7 18 -2.6 5
-6 7 18 -32.2 25
-6 7 18 -6.9 3.8
-5 -7 18 1.8 6.6
5 -7 -18 7.1 9.1
-5 -7 18 -4.7 6.1
-5 7 18 -39.4 23.5
-5 7 18 -0.7 5.6
-5 7 18 0.7 4.7
4 -7 -18 43.7 13.7
-4 -7 18 25.3 9.2
-4 -7 18 28 9.6
-4 7 18 36.5 8.3
-4 7 18 -4.6 27.1
-4 7 18 10 6.3
3 -7 -18 9.2 10.9
-3 -7 18 4.7 7.9
-3 7 18 8.8 6.3
-3 7 18 12.1 25.3
-3 7 18 6.8 6.6
2 -7 -18 17.3 10.6
-2 -7 18 13.9 8.7
-2 -7 18 7.9 8.3
2 -7 -18 10.6 8
-2 7 18 6.9 6.4
-2 7 18 -18.9 24.3
-1 -7 18 11.8 8.4
-1 -7 18 15.2 8.2
1 -7 -18 6.6 7.9
1 -7 -18 28.9 11.4
-1 7 18 7 6.6
-1 7 18 -29.9 21.5
0 -7 18 4.1 7.6
0 -7 18 9.3 8.3
0 -7 -18 10 9.6
0 -7 -18 9.7 8.2
0 7 18 0.2 5.4
0 7 18 32.7 26.7
-1 -7 -18 24.6 10.2
1 -7 18 -2.1 7.4
1 -7 18 -12.1 9.2
1 -7 18 5.1 8.3
-1 -7 -18 15.7 10.4
1 7 18 23.8 22
13 0 -19 8.3 6.6
13 0 -19 -0.3 9.3
13 0 -19 6.3 9
-13 0 19 -0.9 3.7
12 0 -19 3.9 8.5
12 0 -19 -6.7 4.9
-12 0 19 -1.4 3.3
12 0 -19 1.2 9.4
11 0 -19 2.2 8.2
11 0 -19 2.8 8.8
-11 0 19 4.8 4
-10 0 19 -9.7 3.4
10 0 -19 0.8 8.3
10 0 -19 2.4 7.7
-10 0 19 -7.7 3.5
9 0 -19 -13.9 7.2
9 0 -19 -18.9 6.1
-9 0 19 -0.1 3.5
-9 0 19 6.4 3.9
8 0 -19 4.1 7.2
-8 0 19 5.3 3.8
-8 0 19 -2.3 3.3
8 0 -19 3.1 8.6
7 0 -19 4.3 8.3
-7 0 19 1.9 3.7
-7 0 19 0.5 3.3
7 0 -19 4.9 6.3
-6 0 19 4.2 4.1
-6 0 19 -5.3 2.8
6 0 -19 -2 6.2
6 0 -19 -4.8 6.4
-5 0 19 1.9 3.8
5 0 -19 -0.8 7.1
-5 0 19 4.6 3.7
-4 0 19 2.3 4.2
4 0 -19 1.6 4
-4 0 19 0.5 3.8
-3 0 19 -2 3.8
3 0 -19 6.6 4.8
3 0 -19 2.2 4.5
-3 0 19 0.5 4.2
-2 0 19 -7.4 3.3
2 0 -19 1.3 4.2
-2 0 19 3.2 4.3
2 0 -19 -4.4 3.8
1 0 -19 2.7 4.3
-1 0 19 -2.1 3.5
1 0 -19 1.3 4.4
-1 0 19 7 4.8
0 0 19 0.2 4.4
0 0 -19 10.1 5.4
0 0 -19 -0.9 4.8
0 0 -19 1.5 4.5
0 0 19 3.8 4.4
-1 0 -19 1.2 4.6
-1 0 -19 3.5 4.4
1 0 19 1.7 4.5
-1 0 -19 7.8 6
1 0 19 2 4.6
2 0 19 -0.5 4
2 0 19 0.8 4.6
-2 0 -19 0.7 5.6
-2 0 -19 1.5 5
-2 0 -19 11.8 5.9
-3 0 -19 -0.6 4.3
3 0 19 -5.3 4.2
-3 0 -19 6.7 5.3
3 0 19 -5.4 4.4
-3 0 -19 5.7 6.3
-4 0 -19 3.4 5.7
-4 0 -19 7 6.8
4 0 19 -4 7.1
4 0 19 -0.6 5.3
4 0 19 -5.3 4.8
-4 0 -19 -0.7 4.5
-5 0 -19 1 5.1
-5 0 -19 -2.1 6
5 0 19 3.5 5.8
5 0 19 -5.4 7.6
-5 0 -19 -1.9 5.5
6 0 19 -17.2 6.4
-6 0 -19 2.7 5.3
-6 0 -19 -2.4 6.3
6 0 19 0.7 5.9
-6 0 -19 -1.3 5.6
7 0 19 -6.9 6.9
-7 0 -19 -3.6 6
-7 0 -19 -5.6 5.8
-7 0 -19 -1.2 5.3
-8 0 -19 2.6 6
-8 0 -19 -3.7 6
-8 0 -19 1.8 6.2
8 0 19 -3.1 7.3
-13 -1 19 1.1 3.9
13 -1 -19 4 6.6
13 -1 -19 11.1 10
13 -1 -19 -12.9 8.5
13 1 -19 -2.1 9.5
-13 1 19 8.3 4.6
13 1 -19 3 6
13 1 -19 -5.7 8.7
12 -1 -19 7 9
-12 -1 19 -0.8 3.6
12 -1 -19 -1.9 5.3
12 -1 -19 -0.7 8.1
-12 1 19 2.8 3.8
12 1 -19 8.3 10.4
12 1 -19 -1.8 8.3
11 -1 -19 12.2 9.2
11 -1 -19 5.5 7.6
11 -1 -19 11 6.4
-11 -1 19 4.1 4.2
-11 1 19 -2.4 3.3
11 1 -19 -11.6 6.4
11 1 -19 -5.3 8.2
-11 1 19 -2.7 3.2
10 -1 -19 35.6 10.5
10 -1 -19 28.8 11.2
-10 -1 19 27.8 6
-10 -1 19 24.8 6
10 1 -19 23 9.7
-10 1 19 32.5 6.6
-10 1 19 33 6.3
10 1 -19 23.5 11
-9 -1 19 40.9 7
9 -1 -19 29.8 11.3
9 -1 -19 33.7 10.3
-9 -1 19 37 6.6
-9 1 19 39.5 7.2
9 1 -19 41.7 12.1
9 1 -19 19.7 8.7
-9 1 19 37.7 6.7
-8 -1 19 237.48 14.2
-8 -1 19 251.17 13.8
8 -1 -19 237.58 19.2
8 -1 -19 171.48 19.9
-8 1 19 239.88 14.5
8 1 -19 241.48 19.1
8 1 -19 214.18 22.2
-8 1 19 276.47 14.7
7 -1 -19 19.1 9.2
-7 -1 19 41.7 6.8
-7 -1 19 11.8 4.9
7 -1 -19 37.1 9.8
7 1 -19 41 11.6
-7 1 19 27.7 6.1
-7 1 19 32.9 6.5
7 1 -19 31.3 9
-6 -1 19 15.2 5
-6 -1 19 10.5 4.8
6 -1 -19 10.2 8.7
-6 1 19 18 5.3
6 1 -19 8.7 8.7
6 1 -19 7 6.8
-6 1 19 21.7 5.7
5 -1 -19 444.36 28.1
-5 -1 19 475.05 21.6
-5 -1 19 495.35 21.1
-5 1 19 469.85 21.7
5 1 -19 461.65 28.6
-5 1 19 465.25 20.8
5 1 -19 464.95 24.5
-4 -1 19 135.79 12.4
-4 -1 19 144.09 11.7
4 1 -19 174.58 18.9
-4 1 19 139.49 11.2
4 1 -19 158.48 11.8
-4 1 19 170.98 12.5
3 -1 -19 71.59 9.3
-3 -1 19 96.89 10.9
-3 -1 19 86.49 9.9
3 -1 -19 84.59 11.3
3 1 -19 68.79 9.3
-3 1 19 87.29 10.4
-3 1 19 67.69 9.3
-2 -1 19 144.19 13.2
2 -1 -19 159.48 15.3
-2 -1 19 152.88 12.4
2 -1 -19 127.99 12.5
-2 1 19 110.69 11.7
2 1 -19 146.19 11.6
2 1 -19 150.68 12.1
-2 1 19 131.59 12.6
-1 -1 19 62.39 9.2
1 -1 -19 69.19 9.3
-1 -1 19 80.29 10.5
1 -1 -19 109.29 11.7
1 -1 -19 68.19 11.1
1 1 -19 68.99 8.9
-1 1 19 73.89 9.8
-1 1 19 75.19 9.8
1 1 -19 70.59 10.2
0 -1 -19 1.1 6
0 -1 -19 5.5 5.6
0 -1 19 15.8 5
0 -1 -19 -2.2 3.9
0 1 -19 14.5 5.6
0 1 19 1.5 4.4
0 1 19 4.9 4.4
1 -1 19 174.88 13.8
-1 -1 -19 196.78 14.9
-1 -1 -19 173.98 13.3
-1 -1 -19 173.18 17.7
1 -1 19 171.58 14.3
-1 1 -19 181.48 13.4
1 1 19 166.68 13.3
1 1 19 143.09 13.3
-1 1 -19 169.08 14.3
-1 1 -19 183.28 13.6
-2 -1 -19 33.6 9.1
2 -1 19 42.7 8.4
-2 -1 -19 41 8.7
-2 -1 -19 38.9 7.6
2 -1 19 59.29 10.1
2 1 19 30.8 7.3
2 1 19 33.3 7.9
-2 1 -19 31.1 8.3
-2 1 -19 32.4 7.3
-2 1 -19 40.9 8.2
-3 -1 -19 47.4 10.7
3 -1 19 42.5 8.7
-3 -1 -19 51.89 9.7
-3 -1 -19 37.6 7.8
3 -1 19 62.59 10.6
3 1 19 53.19 9.3
-3 1 -19 45.6 9.7
-3 1 -19 49.5 8.7
3 1 19 51.79 8.6
-3 1 -19 42.2 8.8
4 -1 19 5.3 8.3
-4 -1 -19 18.7 7.5
-4 -1 -19 20.7 8.5
4 -1 19 9.6 6.7
4 -1 19 13.4 6.5
-4 -1 -19 11.2 5.9
4 1 19 26.2 7.6
-4 1 -19 11.7 5.6
-4 1 -19 -3.6 5.8
-4 1 -19 2.3 5.5
4 1 19 -1.7 7.6
5 -1 19 12.7 7
-5 -1 -19 10.3 6.2
-5 -1 -19 31.6 8.3
5 -1 19 17.5 9.2
-5 -1 -19 21.8 8.5
-5 1 -19 15.6 7.2
-5 1 -19 27.7 9
5 1 19 19.6 7.8
-5 1 -19 39.7 8.7
5 1 19 -5 21.6
5 1 19 14.9 9.3
-6 -1 -19 4.5 5.9
6 -1 19 2.3 8.4
-6 -1 -19 6.6 7.1
6 -1 19 10.6 7.3
-6 -1 -19 14.8 7
-6 1 -19 9.7 6.8
6 1 19 -27.7 19.1
-6 1 -19 2.2 5.6
6 1 19 2.1 8
-6 1 -19 -8.4 4.6
-7 -1 -19 98.19 13.5
7 -1 19 52.99 12.9
-7 -1 -19 74.79 11.4
-7 -1 -19 66.79 12.3
7 1 19 56.09 12.5
-7 1 -19 67.49 11.4
-7 1 -19 73.59 11.4
-7 1 -19 65.99 12.2
7 1 19 42.3 35.2
-8 -1 -19 11.3 7.9
-8 -1 -19 9.9 7.1
-8 -1 -19 10.5 6.5
8 -1 19 1.7 8.9
-8 1 -19 1.2 5.6
8 1 19 5.9 8.2
-8 1 -19 7.2 7
-8 1 -19 9.2 7.1
13 -2 -19 26.3 8.8
13 -2 -19 34.9 11.5
13 -2 -19 21.4 10.7
13 2 -19 23.8 11.1
13 2 -19 20.9 13.3
-13 2 19 26.3 6.5
12 -2 -19 54.39 13.3
12 -2 -19 46.6 12
-12 -2 19 49.4 7.3
12 -2 -19 34 9.5
-12 2 19 37.2 7.3
12 2 -19 41.7 11.8
-12 2 19 38.3 7.3
12 2 -19 41.4 13.6
11 -2 -19 11.8 8.9
11 -2 -19 12.3 9.3
11 -2 -19 5.8 6.1
-11 -2 19 12.7 4.6
11 2 -19 8.4 9
-11 2 19 3.7 4
11 2 -19 1.2 9.3
-11 2 19 10.8 4.9
-10 -2 19 52.89 7.8
10 -2 -19 59.19 12.7
10 -2 -19 27.2 10.9
-10 2 19 56.39 8.2
-10 2 19 64.69 8.9
10 2 -19 52.79 13.2
10 2 -19 82.59 14.2
9 -2 -19 0.8 8.5
-9 -2 19 -2.4 3.4
-9 -2 19 -0.6 3.6
9 -2 -19 -0.9 6.9
-9 2 19 1 3.8
-9 2 19 3.3 4.2
9 2 -19 8.1 9.4
9 2 -19 2.7 7.5
8 -2 -19 0.9 7.7
8 -2 -19 7.8 7.9
-8 -2 19 -2.6 3.4
-8 -2 19 6.2 4.4
8 2 -19 7.6 9.2
-8 2 19 10.7 4.8
-8 2 19 0 3.6
8 2 -19 5.4 7.7
-7 -2 19 193.98 12.7
7 -2 -19 198.88 20.6
-7 -2 19 217.48 13.5
7 2 -19 192.08 18
7 2 -19 146.99 19
-7 2 19 189.58 12.6
-7 2 19 202.38 13.7
-6 -2 19 38 7.3
-6 -2 19 49.4 7.7
6 -2 -19 43.7 11.4
6 2 -19 47.6 12.6
-6 2 19 50.09 7.7
-6 2 19 49.1 8.3
6 2 -19 54.99 10.1
-5 -2 19 77.49 9.5
-5 -2 19 71.19 9.3
5 2 -19 72.29 13.9
-5 2 19 73.09 9.7
-5 2 19 62.29 8.7
5 2 -19 75.59 11
-4 -2 19 185.58 13.4
4 -2 -19 212.08 16
-4 -2 19 181.38 13.3
4 2 -19 183.58 15.1
4 2 -19 204.18 12.8
-4 2 19 187.88 13.9
4 2 -19 180.68 19.8
-4 2 19 168.48 12.4
3 -2 -19 19.4 7.8
-3 -2 19 18 5.9
-3 -2 19 17.6 5.9
-3 2 19 9.1 4.8
-3 2 19 10.5 5.5
3 2 -19 24 9.2
3 2 -19 32.3 8.1
3 2 -19 39.7 7.2
2 -2 -19 23.1 6.6
-2 -2 19 16.3 6.1
-2 -2 19 12.2 5.5
2 -2 -19 28.4 8.2
2 2 -19 15.4 5.5
-2 2 19 22.6 6.6
-2 2 19 18.8 5.9
-1 -2 19 15.7 6.2
1 -2 -19 5.5 5.8
1 -2 -19 29.1 8.7
1 -2 -19 24.5 6.3
-1 -2 19 21.2 6.9
1 2 -19 17.5 6.2
-1 2 19 16.8 5.4
1 2 -19 24.5 5.8
-1 2 19 9.8 5.4
0 -2 -19 84.59 10.9
0 -2 -19 88.69 11.9
0 -2 19 99.69 12.2
0 -2 19 114.99 12.2
0 -2 -19 109.59 14.1
0 2 -19 89.29 10.1
0 2 19 111.39 12.3
0 2 -19 113.19 12.5
0 2 19 112.89 12.2
-1 -2 -19 37.4 7.4
1 -2 19 32.8 8
-1 -2 -19 28.4 8.1
1 -2 19 44.2 8.5
-1 -2 -19 49.4 10.9
1 2 19 31.6 7.3
-1 2 -19 31.3 6.8
1 2 19 30.9 7
-1 2 -19 28.5 7.6
-2 -2 -19 43.6 10.2
-2 -2 -19 57.39 9.4
-2 -2 -19 60.99 10.8
2 -2 19 49.3 9.4
2 -2 19 52.59 9.8
2 2 19 29.4 7.4
-2 2 -19 48.7 8.2
-2 2 -19 48.2 8.5
2 2 19 54.19 9.2
-2 2 -19 43.6 8.7
3 -2 19 1.5 5.4
3 -2 19 3.6 5.6
-3 -2 -19 12 7.6
-3 -2 -19 12.3 6.6
-3 -2 -19 10.3 7.2
-3 2 -19 11.1 5.6
-3 2 -19 2.9 5.3
3 2 19 3.6 8.2
3 2 19 6.4 5.4
-3 2 -19 12.7 5.9
-4 -2 -19 0.1 6.3
-4 -2 -19 3.2 5.4
4 -2 19 -1.2 8.3
4 -2 19 6.1 6.3
4 -2 19 6.9 6.6
-4 -2 -19 2.8 6.1
-4 2 -19 -0.5 4.7
4 2 19 -7.8 7.6
-4 2 -19 6.4 5.8
4 2 19 -3.9 23.1
-4 2 -19 -0.2 5.9
4 2 19 -5.9 4.2
5 -2 19 20.4 8.3
-5 -2 -19 24.7 8.4
5 -2 19 14.8 9.7
-5 -2 -19 13.1 7
-5 -2 -19 20.8 9.5
5 -2 19 18.6 10
5 2 19 -5 22.2
5 2 19 18 7.5
-5 2 -19 25.7 8.1
-5 2 -19 40.8 10.3
5 2 19 8.5 8.5
-5 2 -19 18.6 6.7
6 -2 19 -5 5.8
-6 -2 -19 7.1 7.4
-6 -2 -19 12.9 7.2
-6 -2 -19 11.7 6.2
6 -2 19 -14.6 7.2
6 2 19 -23.4 18.4
6 2 19 -7.5 7.3
-6 2 -19 6.1 6.4
-6 2 -19 10.3 6.2
-7 -2 -19 28.1 10.2
-7 -2 -19 45.1 10.6
-7 -2 -19 34.9 8.8
7 -2 19 31.9 11.1
7 -2 19 60.79 11.9
7 2 19 23.8 19.8
-7 2 -19 36.6 8.4
-7 2 -19 44.6 10.7
7 2 19 30.2 9.8
-8 -2 -19 -1.9 6
8 -2 19 -14.7 6.7
-8 -2 -19 5.8 6.5
-8 -2 -19 -9.1 6
-8 2 -19 1.6 6.9
8 2 19 16.4 18.4
8 2 19 -11.1 7
-8 2 -19 13.2 7.5
12 -3 -19 -10.5 7.3
12 -3 -19 1.2 8.7
12 -3 -19 -3.1 5.6
-12 3 19 9.8 5
-12 3 19 1 4.6
12 3 -19 1.1 10.8
12 3 -19 0.9 8.6
11 -3 -19 -4.1 8.2
-11 -3 19 -2 3.8
11 -3 -19 4.2 6.2
11 -3 -19 0.7 7.9
11 3 -19 5.7 8.6
-11 3 19 1.6 4.7
-11 3 19 8.7 4.8
11 3 -19 31.4 13.1
10 -3 -19 39.1 11.6
-10 -3 19 42.2 7.4
10 -3 -19 36.9 10.8
10 3 -19 47.8 12.4
-10 3 19 47.4 8
-10 3 19 49.99 8.1
10 3 -19 52.49 13.6
9 -3 -19 2.6 8.1
9 -3 -19 16 9.9
-9 -3 19 1.9 4.8
-9 3 19 6.7 4.7
9 3 -19 2.8 8.2
9 3 -19 -2 8.9
-9 3 19 1.4 4.1
-8 -3 19 -2.9 4.1
8 -3 -19 11.6 9
-8 -3 19 2.1 4.4
8 -3 -19 -0.4 7.7
-8 3 19 9.8 4.9
8 3 -19 0.5 7.2
8 3 -19 8.3 9.2
-8 3 19 -1 3.7
7 -3 -19 115.09 16
-7 -3 19 139.29 11.4
-7 -3 19 119.99 11.6
7 3 -19 126.89 15.1
7 3 -19 91.49 15.9
-7 3 19 131.29 12.5
-7 3 19 139.39 13.4
6 -3 -19 29 10.4
-6 -3 19 29.8 6.8
-6 -3 19 30.7 6.8
6 3 -19 26.5 8.3
-6 3 19 26.7 6.3
6 3 -19 26.4 10.6
-6 3 19 45.4 8.2
-5 -3 19 -0.4 4
-5 -3 19 -0.3 4.1
-5 3 19 -1.6 3.1
5 3 -19 -1.3 7.4
-5 3 19 -1.1 3.9
-4 -3 19 35.6 7.7
4 -3 -19 9.6 6.9
-4 -3 19 32 7.2
4 3 -19 24.9 9.7
-4 3 19 34.8 7.9
-4 3 19 20.4 5.9
-3 -3 19 138.49 13.4
3 -3 -19 184.68 18.1
-3 -3 19 151.28 14.5
-3 3 19 163.98 14.6
-3 3 19 170.78 13.4
3 3 -19 141.29 17.6
3 3 -19 169.78 12
-2 -3 19 76.49 10.3
2 -3 -19 57.49 10.1
2 -3 -19 68.59 12.2
-2 -3 19 54.29 9.5
2 -3 -19 73.09 10.5
-2 3 19 62.49 9.2
2 3 -19 83.29 9.5
-2 3 19 66.19 9.7
2 3 -19 63.09 13
1 -3 -19 9.4 5.6
1 -3 -19 0.7 7.4
-1 -3 19 13.2 6.1
1 -3 -19 8.7 6.9
-1 -3 19 6.6 5.6
-1 3 19 11 5.5
1 3 -19 15.5 5.5
-1 3 19 7.3 5.3
1 3 -19 13.1 8
0 -3 -19 39.5 9.3
0 -3 19 44.4 8.5
0 -3 19 42 9.4
0 -3 -19 31.8 9.9
0 -3 -19 37.6 7.8
0 3 19 29.1 7.5
0 3 -19 34.9 7.9
0 3 19 51.29 8.1
0 3 -19 32.4 7
1 -3 19 9.1 6.1
-1 -3 -19 14.8 7.2
-1 -3 -19 7.8 5.5
-1 -3 -19 22 8.4
1 -3 19 11.7 6.6
-1 3 -19 2.1 4.8
-1 3 -19 9.4 4.8
1 3 19 10.1 5.8
1 3 19 14.7 5.8
-2 -3 -19 1.7 7.5
-2 -3 -19 5.5 5.2
2 -3 19 8.4 6.4
2 -3 19 9.2 6.5
-2 -3 -19 9.6 7
2 3 19 0 5
-2 3 -19 6.4 4.9
-2 3 -19 13.2 6.6
2 3 19 18.4 6.9
3 -3 19 89.69 14.6
-3 -3 -19 82.69 14.1
-3 -3 -19 83.29 11
3 -3 19 87.89 12.7
-3 -3 -19 94.39 13.2
3 -3 19 103.19 14
3 3 19 60.09 30.3
3 3 19 74.59 12.1
-3 3 -19 144.89 15.4
-3 3 -19 102.09 11.7
3 3 19 68.39 10.5
4 -3 19 35 9.7
4 -3 19 21.7 10.9
-4 -3 -19 13.9 8.7
-4 -3 -19 29.5 8.7
-4 -3 -19 16.2 8
4 -3 19 14.3 7.9
4 3 19 10.5 10
4 3 19 18.2 6.8
4 3 19 -13.9 22.1
-4 3 -19 12 7.5
-4 3 -19 13.1 6.5
-5 -3 -19 62.39 11.6
-5 -3 -19 46.8 9.3
-5 -3 -19 34.7 10.5
5 -3 19 55.69 13
5 -3 19 47.6 11
5 -3 19 50.49 11.3
5 3 19 53.99 26.7
-5 3 -19 70.59 13.1
-5 3 -19 54.49 9.7
6 -3 19 -14.8 8.2
-6 -3 -19 3.7 7.3
6 -3 19 5 7.2
-6 -3 -19 3.2 7.4
-6 -3 -19 1.2 5.7
-6 3 -19 -0.8 6.1
6 3 19 10.4 20.7
-6 3 -19 4.1 5.5
-7 -3 -19 37.7 10
7 -3 19 43.9 12.1
-7 -3 -19 31.1 8.5
-7 -3 -19 15.1 9
7 -3 19 32.2 10.4
-7 3 -19 51.29 11.7
7 3 19 35.3 21.9
-7 3 -19 23.4 7.4
-11 -4 19 6.8 5.2
11 -4 -19 16.5 9.7
11 -4 -19 16.1 7.6
-11 4 19 3.8 4.9
11 4 -19 0.7 10.2
11 4 -19 3.9 9.6
-11 4 19 6.4 5
-10 -4 19 5.8 5.1
10 -4 -19 0.2 7.2
10 -4 -19 3.1 7.9
-10 4 19 4.2 4.7
-10 4 19 1.3 4.2
10 4 -19 -4.8 9.1
10 4 -19 4.5 10.2
9 -4 -19 1.5 8.2
9 -4 -19 -1.5 8.2
-9 -4 19 -5.9 3.7
9 4 -19 3.5 9.3
-9 4 19 -1.2 3.6
-9 4 19 -1.1 3.8
-8 -4 19 13.1 6
-8 -4 19 22.5 6.6
8 -4 -19 30.9 10.2
-8 4 19 11.2 5.4
8 4 -19 12.3 10.4
-8 4 19 17.3 5.8
-7 -4 19 0.4 5.1
7 -4 -19 4.7 9
-7 -4 19 -1.3 4.3
-7 4 19 5.6 4.4
7 4 -19 10.2 8.9
-7 4 19 3.9 4.4
-6 -4 19 13.9 6.3
-6 -4 19 3.1 5.2
6 4 -19 9.4 8.4
-6 4 19 8.4 5
-6 4 19 7.7 4.6
-5 -4 19 -0.4 4.4
5 -4 -19 0.4 6.6
-5 -4 19 0.1 5.2
-5 4 19 0.6 4.1
-5 4 19 9.1 5
5 4 -19 -3.3 7.8
-4 -4 19 30.3 8
-4 -4 19 6.9 5.5
4 -4 -19 19.3 7.8
-4 4 19 17.1 5.7
-4 4 19 4.4 4.6
4 4 -19 16.6 9
-3 -4 19 48.1 9.1
-3 -4 19 53.69 10.1
3 -4 -19 56.29 11.3
-3 4 19 35.9 7.4
3 4 -19 57.39 12.2
-3 4 19 47.6 9
2 -4 -19 7.4 7.3
-2 -4 19 14.7 6.6
-2 -4 19 2.3 5
2 -4 -19 -3.9 5.9
2 4 -19 -7.7 7.3
-2 4 19 8.5 5.2
-2 4 19 3.9 5
1 -4 -19 71.29 12.2
1 -4 -19 50.39 12
-1 -4 19 53.59 9.8
1 -4 -19 74.89 10.6
-1 -4 19 65.49 10.9
1 4 -19 72.49 12.9
-1 4 19 61.99 10.3
-1 4 19 50.99 9.1
0 -4 -19 8.3 8
0 -4 19 8 6.2
0 -4 -19 1.2 5.1
0 -4 19 -0.1 5.5
0 -4 -19 11.9 7.2
0 4 -19 3.9 7.5
0 4 19 20.1 7
0 4 19 4.5 4.6
0 4 -19 0.2 4.3
-1 -4 -19 1.4 5.2
1 -4 19 5.3 6.2
1 -4 19 3 5.9
-1 -4 -19 4.2 6.6
-1 -4 -19 5.4 7.2
-1 4 -19 1.9 4.9
-1 4 -19 -1.1 7.9
-1 4 -19 3.2 4.4
1 4 19 -6 3.9
1 4 19 -10.1 26.2
1 4 19 2.9 4.8
2 -4 19 13.3 7.8
-2 -4 -19 -1.8 7.4
2 -4 19 2.3 6.8
-2 -4 -19 3.3 6.9
-2 -4 -19 -1.9 4.4
2 4 19 4.3 5.7
-2 4 -19 -5.8 5.1
2 4 19 -27 23.6
-2 4 -19 1.3 4.4
-3 -4 -19 -4.8 4.8
-3 -4 -19 -2.7 6.6
3 -4 19 4.1 9.5
-3 -4 -19 12.7 8.7
3 -4 19 12.1 7.7
3 -4 19 4.6 6.4
3 4 19 0.2 24
-3 4 -19 -3.9 4.4
-3 4 -19 -3.9 5.4
3 4 19 6.4 5.3
4 -4 19 30.6 11.8
4 -4 19 60.59 11.9
4 -4 19 50.09 10.8
-4 -4 -19 44.7 12
-4 -4 -19 39.8 8.8
-4 -4 -19 38.9 9.6
4 4 19 76.09 30.9
-4 4 -19 47.2 8.9
-4 4 -19 50.79 10.4
-5 -4 -19 8 8
-5 -4 -19 4.1 6.9
-5 -4 -19 5.6 5.4
5 -4 19 -12 8.5
5 -4 19 -2.9 6.6
5 -4 19 -1.8 6.6
5 4 19 4.8 21.2
-5 4 -19 2.7 6.4
-5 4 -19 6.3 5.2
-6 -4 -19 -4 5.4
6 -4 19 -4.3 8
-6 -4 -19 4.3 8.4
-6 -4 -19 -6.3 6.3
6 -4 19 -6.4 8.4
6 4 19 -8.3 18.6
-6 4 -19 7.8 5.6
-6 4 -19 -10.8 5.9
10 -5 -19 37.9 12
-10 -5 19 65.39 9.8
-10 5 19 56.29 9.4
10 5 -19 34.4 13.9
-10 5 19 44.9 8.6
9 -5 -19 25.8 10.9
-9 -5 19 1.9 5.4
-9 5 19 5.6 4.6
9 5 -19 2.5 10.3
-9 5 19 2.1 4.7
-8 -5 19 20.4 6.8
-8 5 19 15.2 5.9
-8 5 19 13.7 6
8 5 -19 27.6 11.5
-7 -5 19 -2.7 5.2
7 -5 -19 4.7 8.6
-7 -5 19 -2.1 5
-7 5 19 12.5 5.5
7 5 -19 -2.7 8.5
-7 5 19 -1.3 3.6
-6 -5 19 2.1 5.8
-6 -5 19 -2.3 5.5
-6 5 19 2 4.6
-6 5 19 4 4.5
6 5 -19 -3.1 7.6
-5 -5 19 -12.1 4.7
5 -5 -19 -3 6.8
-5 -5 19 0.7 5.7
-5 5 19 -0.2 4.1
5 5 -19 -2.1 7.8
-5 5 19 2 4.8
-4 -5 19 8.7 6.5
4 -5 -19 2.7 8.4
-4 -5 19 10 7.2
4 5 -19 0.5 7.8
-4 5 19 -0.7 4.6
-4 5 19 8.1 6
-3 -5 19 11.6 6.3
3 -5 -19 5.4 8.4
-3 -5 19 15 7.3
-3 5 19 7.4 5.7
-3 5 19 -7.6 4.2
3 5 -19 -4.2 7.6
2 -5 -19 36.7 12
2 -5 -19 26.6 9.4
-2 -5 19 33.2 8.9
-2 -5 19 42 9.7
2 5 -19 57.59 12.4
-2 5 19 43.1 8.8
-2 5 19 32.3 8.2
-1 -5 19 -4.8 6.4
1 -5 -19 3.1 7.3
-1 -5 19 -3.5 5.6
1 -5 -19 -2.9 8.3
-1 5 19 -0.8 4.6
-1 5 19 -0.7 5.6
-1 5 19 -28.6 24.5
0 -5 19 0.5 6.6
0 -5 19 -1.2 5.7
0 -5 -19 2.7 7.4
0 -5 -19 -1.3 8.1
0 5 19 14.3 26.9
0 5 19 -1.1 4.8
0 5 19 0.7 4.8
-1 -5 -19 22.4 7.7
-1 -5 -19 5.7 7.9
-1 -5 -19 30 11
1 -5 19 15.6 8.1
1 -5 19 25.6 8.5
1 5 19 22.6 7.5
1 5 19 12.9 26.5
-2 -5 -19 1.4 7.7
-2 -5 -19 3.2 8.3
2 -5 19 2 6.7
2 -5 19 1.1 9.4
2 -5 19 0.5 6.7
-2 -5 -19 3.1 5.6
2 5 19 9.7 6.2
-2 5 -19 -2 5.4
2 5 19 -18.7 23
-3 -5 -19 -5.2 4.7
-3 -5 -19 1.3 7.3
3 -5 19 0.8 7.3
3 -5 19 -18.9 7.5
-3 -5 -19 -7.1 7
3 -5 19 8.1 7.9
-3 5 -19 -4.4 5.1
3 5 19 -27.1 21.5
-4 -5 -19 20.3 8.8
-4 -5 -19 19.5 10
4 -5 19 7.6 11.1
4 -5 19 34 10.6
-4 -5 -19 20.7 7.8
4 -5 19 32.6 10.3
-4 5 -19 18.1 6.4
4 5 19 18.7 25
-4 5 -19 20.3 8.7
5 -5 19 -12.6 9.3
-5 -5 -19 15.8 9.6
5 -5 19 2.1 7.6
-5 -5 -19 1.1 7.9
-5 -5 -19 9.1 6.4
5 -5 19 0.4 8.5
-5 5 -19 -2 5.2
-5 5 -19 -4.4 5.5
5 5 19 28.6 24
-8 -6 19 4.8 6.1
8 6 -19 -15.2 9
-8 6 19 -4 4
-8 6 19 -2.3 4.9
-7 -6 19 49.3 9.9
-7 -6 19 51.99 10.3
-7 6 19 52.89 9
-7 6 19 38.6 8.7
7 6 -19 56.49 14.4
-6 -6 19 21.2 7.8
-6 -6 19 9.4 6.5
-6 6 19 23.2 7.3
6 6 -19 19.2 10.8
-6 6 19 15.3 6.3
5 -6 -19 -2.5 7.8
-5 -6 19 -2.3 6.5
-5 -6 19 6.8 6.8
-5 6 19 5.4 5.1
5 6 -19 15.3 10
-5 6 19 12.4 6
4 -6 -19 0.8 8.4
-4 -6 19 8.8 6.4
-4 -6 19 6.7 7.2
-4 6 19 1.4 5
-4 6 19 6.2 5.2
-3 -6 19 40.9 10
-3 -6 19 20.4 8.7
3 -6 -19 35.9 12.6
-3 6 19 7.8 6.3
-3 6 19 28.8 28.5
-3 6 19 47.3 8.7
-2 -6 19 12.1 7.2
2 -6 -19 1 7.8
-2 -6 19 9.2 7.3
2 -6 -19 6.5 9.3
-2 6 19 4.3 5.7
-2 6 19 -16.9 26.5
-2 6 19 7.2 5.7
-1 -6 19 25.2 9.1
-1 -6 19 23.3 9.5
1 -6 -19 69.69 15.1
-1 6 19 63.09 11
-1 6 19 23.3 27.8
-1 6 19 47.2 9.2
0 -6 19 14.9 8.5
0 -6 -19 2.6 7.9
0 -6 -19 1.3 8.5
0 -6 19 -6.3 6.5
0 6 19 -0.7 5.2
0 6 19 5.3 25.9
1 -6 19 5.8 7.7
1 -6 19 9.1 10.7
-1 -6 -19 19.7 9.5
1 -6 19 13.8 8.4
-1 -6 -19 21.3 10.7
1 6 19 27.2 28.2
1 6 19 9.1 6.6
2 -6 19 73.29 14.9
2 -6 19 71.19 13
2 -6 19 73.49 13.9
-2 -6 -19 80.69 16
-2 -6 -19 56.29 12.7
2 6 19 88.09 30.7
3 -6 19 23.2 10.7
3 -6 19 18.1 11.8
-3 -6 -19 25 9.9
-3 -6 -19 33.8 8.9
3 -6 19 28.1 10.7
-3 -6 -19 28.5 11.8
3 6 19 34.4 25.7
-3 6 -19 20.5 10.8
-3 -7 19 0 7.6
-3 7 19 -20.8 23.9
-2 -7 19 3.6 8.3
2 -7 -19 10.3 8.8
-2 7 19 3.4 24.2
-1 7 19 42 28.3
13 0 -20 103.19 18.4
13 0 -20 118.59 18.4
-12 0 20 0.7 4.2
12 0 -20 -5.6 8.4
12 0 -20 -5.6 9.2
-11 0 20 8.5 6.5
11 0 -20 11.4 9
11 0 -20 4.7 9.1
-11 0 20 6.2 4.6
10 0 -20 34.1 12.5
-10 0 20 76.39 9.7
10 0 -20 65.09 13.6
-10 0 20 66.79 8.6
9 0 -20 9.1 8.4
-9 0 20 13 5.6
9 0 -20 2.2 9
-9 0 20 14.4 5.2
8 0 -20 -1 8.3
-8 0 20 5.9 4.1
8 0 -20 -2.1 6.8
-8 0 20 10.8 5.1
-7 0 20 31 6.4
7 0 -20 30.2 11.4
-7 0 20 30.1 6.6
7 0 -20 34 9.8
-6 0 20 129.09 12
-6 0 20 102.79 11.5
6 0 -20 111.19 14.3
6 0 -20 132.69 18.3
-5 0 20 286.67 16.5
-5 0 20 241.28 14.6
5 0 -20 215.08 21.8
-4 0 20 1.1 4.1
4 0 -20 11.8 5.3
-4 0 20 0.4 4.3
-3 0 20 257.87 15.8
3 0 -20 220.88 14.9
-3 0 20 249.38 15.3
-2 0 20 216.18 15.1
2 0 -20 206.98 15.3
-2 0 20 209.98 14.4
2 0 -20 215.98 14.6
1 0 -20 55.19 8.5
1 0 -20 66.59 10.4
-1 0 20 71.49 10.3
-1 0 20 63.09 9.2
0 0 -20 113.99 13.9
0 0 20 98.19 11.9
0 0 -20 108.99 11.9
0 0 -20 93.19 10.9
0 0 20 126.59 13.3
-1 0 -20 545.75 24.6
1 0 20 549.15 25.6
1 0 20 491.35 23.8
-1 0 -20 499.75 25.8
-1 0 -20 513.25 24.4
-2 0 -20 7.7 5.5
2 0 20 17.1 6.4
2 0 20 1.6 5
-2 0 -20 3.8 5.4
-2 0 -20 15.7 6.2
-3 0 -20 75.49 11
3 0 20 64.29 10.5
3 0 20 63.49 10.9
-3 0 -20 58.39 9.9
-3 0 -20 59.79 11.4
-4 0 -20 52.69 11
4 0 20 38.8 9.5
-4 0 -20 57.59 10.3
-4 0 -20 56.09 9.8
4 0 20 33.6 10.9
-5 0 -20 11.5 8.1
5 0 20 10.9 8.8
-5 0 -20 20.7 7.1
5 0 20 13.4 6.9
-5 0 -20 10.5 7.2
-6 0 -20 6.3 6.6
-6 0 -20 -0.5 6.4
6 0 20 -0.3 6.3
-6 0 -20 5.3 6.2
6 0 20 -1.9 8.2
-7 0 -20 6.2 6.2
-7 0 -20 6.3 6.7
7 0 20 -12.3 7.7
-7 0 -20 20.5 9
-12 -1 20 49.2 7.2
12 -1 -20 32.3 11.2
12 -1 -20 30.9 12.1
-12 1 20 39.6 7.6
12 1 -20 33.5 12.6
12 1 -20 47.6 12.4
11 -1 -20 -6 7.5
11 -1 -20 8.1 10.1
-11 -1 20 -0.4 3.8
-11 1 20 0.8 3.9
-11 1 20 0.9 3.8
11 1 -20 -14.5 8.1
11 1 -20 0.4 8.1
10 -1 -20 1.1 8.6
10 -1 -20 4.3 8.8
-10 -1 20 0.7 4
-10 -1 20 -2.4 3.5
-10 1 20 1.1 4.2
10 1 -20 -6.8 7.8
-10 1 20 -1 3.9
10 1 -20 -5.6 8.1
-9 -1 20 -2 3.9
9 -1 -20 -11.7 7
-9 -1 20 1.5 3.9
9 -1 -20 4.8 8.8
9 1 -20 -3.3 8.4
-9 1 20 -7 3.1
9 1 -20 13.3 9
-9 1 20 -1 3.9
-8 -1 20 2.1 3.8
8 -1 -20 0.5 7.5
-8 -1 20 2.8 4.4
8 -1 -20 4.4 9.2
8 1 -20 -7.5 7
-8 1 20 1.9 3.9
-8 1 20 -4.6 3.4
8 1 -20 -1.6 8.8
7 -1 -20 14.1 9.5
-7 -1 20 4.8 4.8
7 -1 -20 1.4 7.5
-7 -1 20 -2.5 3.6
7 1 -20 4.1 7.1
-7 1 20 -2.4 3.8
7 1 -20 -1.3 8.3
-7 1 20 2.1 4
6 -1 -20 48.2 12.4
-6 -1 20 61.59 8.8
-6 -1 20 72.49 9.3
-6 1 20 60.09 8.9
6 1 -20 63.29 11.5
6 1 -20 56.99 13.5
-6 1 20 46.7 8.2
-5 -1 20 104.09 11.2
-5 -1 20 97.59 10.9
5 -1 -20 81.19 14.4
-5 1 20 103.09 11.2
5 1 -20 104.29 13.7
5 1 -20 83.59 15.6
-5 1 20 118.29 12.5
-4 -1 20 161.28 12.7
-4 -1 20 156.68 12.4
4 1 -20 174.78 12.7
4 1 -20 115.19 16.9
-4 1 20 170.78 12.9
-4 1 20 178.58 12.9
-3 -1 20 35.2 7.5
3 -1 -20 13.2 5.8
-3 -1 20 21.5 6.6
3 -1 -20 22.6 7.4
-3 1 20 26.8 6.7
-3 1 20 24.7 6.5
3 1 -20 28.6 7.1
-2 -1 20 1.8 4.9
-2 -1 20 -2.4 4.2
2 -1 -20 -2.5 3.8
2 -1 -20 2.8 5.4
2 1 -20 0 4.5
-2 1 20 2.5 4.1
2 1 -20 2.8 4.1
-2 1 20 0.9 4.2
-1 -1 20 64.99 9.9
1 -1 -20 52.39 10
-1 -1 20 55.99 9.1
1 -1 -20 67.59 10
1 1 -20 60.19 9.6
-1 1 20 54.29 8.7
-1 1 20 71.29 10
1 1 -20 49.1 8.3
0 -1 -20 41.5 9.4
0 -1 20 41.3 8.5
0 -1 -20 38.3 7.6
0 -1 -20 43.5 9.2
0 -1 20 31.6 7.8
0 1 -20 45.1 9.2
0 1 20 41.5 8.1
0 1 20 43.7 8.3
0 1 -20 43.8 7.7
-1 -1 -20 134.89 16.3
1 -1 20 127.19 14.3
1 -1 20 91.49 11.7
-1 -1 -20 105.09 11.8
-1 -1 -20 124.79 13.3
-1 1 -20 109.79 12.4
-1 1 -20 92.89 11.3
1 1 20 107.79 13.1
1 1 20 116.09 13
-1 1 -20 130.99 14.7
-2 -1 -20 91.99 13.6
2 -1 20 121.09 13.4
-2 -1 -20 71.89 11.2
-2 -1 -20 81.69 11.4
2 -1 20 114.49 13.6
2 1 20 80.59 11.5
-2 1 -20 101.09 13
-2 1 -20 96.09 11.4
-2 1 -20 89.09 11.1
2 1 20 77.39 10.6
3 -1 20 42.7 9.4
-3 -1 -20 19.5 7.7
3 -1 20 24.9 7.7
-3 -1 -20 34.6 10.5
-3 -1 -20 19.5 7
3 1 20 24.1 6.9
3 1 20 22.9 7.2
-3 1 -20 36 8.2
-3 1 -20 25.2 6.7
-3 1 -20 16 7.9
4 -1 20 7.5 7.2
-4 -1 -20 3 6.1
4 -1 20 -4.9 8.2
-4 -1 -20 8.9 7.9
-4 -1 -20 -5.9 5.2
4 -1 20 -8.3 5.7
-4 1 -20 -1 5.7
4 1 20 -0.3 5.9
-4 1 -20 -2.1 5.4
-4 1 -20 -1.6 6.6
4 1 20 -1.2 8.2
-5 -1 -20 26.3 8.2
5 -1 20 40.4 10.1
-5 -1 -20 22.3 9.1
5 -1 20 34 10.5
-5 -1 -20 13.7 6.2
-5 1 -20 25.5 7.4
-5 1 -20 41.3 9.9
5 1 20 15.6 7.5
5 1 20 -6.7 22.9
5 1 20 11.1 8.9
-5 1 -20 25.6 7.8
-6 -1 -20 58.49 10.8
-6 -1 -20 58.89 9.9
6 -1 20 59.49 11.6
-6 -1 -20 67.49 12.6
6 -1 20 53.39 13.3
-6 1 -20 67.09 11.2
-6 1 -20 56.29 10.3
6 1 20 69.69 26.6
-6 1 -20 71.99 12.5
6 1 20 55.49 12.7
-7 -1 -20 4.2 6.9
-7 -1 -20 -0.9 5.7
-7 -1 -20 9.9 7.1
7 -1 20 -16.8 7.7
-7 1 -20 1.6 6.4
-7 1 -20 7.3 7.6
7 1 20 4.6 8.6
-7 1 -20 7.3 6.6
12 -2 -20 -3.3 6
12 -2 -20 3.6 8.7
12 -2 -20 -2.5 8.5
-12 -2 20 9.2 5.3
-12 2 20 0.3 4.1
-12 2 20 2.9 4.5
12 2 -20 0.5 9.4
12 2 -20 -5.7 8.4
11 -2 -20 9.1 8.9
11 -2 -20 12 9.6
-11 -2 20 8 5
11 2 -20 -2.6 8.4
11 2 -20 23 11.3
-11 2 20 5.6 4.4
-11 2 20 16.6 5.5
10 -2 -20 15.2 10.4
-10 -2 20 22.8 5.8
10 -2 -20 2.8 8.1
-10 2 20 17.9 5.6
10 2 -20 11.8 9.7
-10 2 20 22.5 6.1
10 2 -20 13.1 9.2
9 -2 -20 4.2 8.2
-9 -2 20 7.9 5.1
9 -2 -20 -4.7 8.4
-9 -2 20 9.6 5.2
9 2 -20 7.4 9.7
-9 2 20 0.3 4.1
9 2 -20 -2 8.3
-9 2 20 3.8 4.8
8 -2 -20 6 8.9
-8 -2 20 8 5.2
-8 -2 20 -5.5 4.2
8 -2 -20 -5.9 7
-8 2 20 14.5 5.6
-8 2 20 -1.8 3.8
8 2 -20 6.8 7.4
8 2 -20 -2.7 9
-7 -2 20 -1.1 4
7 -2 -20 28.3 10.3
-7 -2 20 -0.1 4.4
7 2 -20 -5.6 7.8
7 2 -20 3.7 6.7
-7 2 20 3.4 4.4
-7 2 20 4.3 4.3
-6 -2 20 5.1 4.6
-6 -2 20 -2.8 4.2
6 -2 -20 5.8 9.1
-6 2 20 -2.5 3.8
6 2 -20 -2.3 8.9
-6 2 20 4.2 4.6
6 2 -20 2.5 6.7
-5 -2 20 34.1 7.3
-5 -2 20 20.4 6.3
-5 2 20 27.7 6.3
5 2 -20 13.4 9.5
-5 2 20 18 6.1
5 2 -20 15.3 7.5
4 -2 -20 13.2 9.2
-4 -2 20 33.3 7.5
-4 -2 20 25.8 6.6
4 2 -20 24 6.1
-4 2 20 26.7 6.5
4 2 -20 15.4 9.4
-4 2 20 28.8 7.4
4 2 -20 32.4 8.6
3 -2 -20 9.6 6.8
-3 -2 20 8.8 5.1
-3 -2 20 1.4 4.3
3 2 -20 5.4 6.6
-3 2 20 1.9 4.3
3 2 -20 12.8 5.2
3 2 -20 11.3 8.3
-3 2 20 3.6 4.3
2 -2 -20 45.2 9.8
2 -2 -20 31.5 7.2
-2 -2 20 43.6 8.6
-2 -2 20 33.3 7.7
2 2 -20 45.2 8.1
-2 2 20 49.7 7.9
-2 2 20 54.99 9.5
2 2 -20 30.1 10.9
1 -2 -20 7 4.9
-1 -2 20 0 4.8
1 -2 -20 -2.6 5.4
-1 -2 20 -1.3 4.6
1 -2 -20 -9.3 4.9
-1 2 20 4.3 4.4
-1 2 20 2.5 4.3
1 2 -20 0.7 5
1 2 -20 -0.2 4
0 -2 -20 4.6 7.2
0 -2 -20 11.2 7
0 -2 20 11.7 6.2
0 -2 -20 -6.9 3.7
0 -2 20 10.6 6.3
0 2 -20 6.7 5.7
0 2 -20 15.7 5.6
0 2 20 9.6 5.2
0 2 20 3.6 4.9
-1 -2 -20 15.1 5.7
-1 -2 -20 15.3 7.4
-1 -2 -20 9.6 7.8
1 -2 20 6.1 5.9
1 -2 20 6.4 6.2
-1 2 -20 7.2 5.5
1 2 20 11 6
-1 2 -20 13.2 6.3
1 2 20 5.2 5.1
-2 -2 -20 7.8 5.9
2 -2 20 -0.9 5.2
2 -2 20 -3.3 5.2
-2 -2 -20 -16.6 5.8
-2 -2 -20 2.1 6.3
-2 2 -20 3.3 5.4
-2 2 -20 3.8 4.9
-2 2 -20 6 6.1
2 2 20 4 5.3
2 2 20 -1.4 5.2
-3 -2 -20 -5.1 4.2
3 -2 20 -1.9 5.7
-3 -2 -20 13.1 6.8
-3 -2 -20 4.9 7.2
3 -2 20 -3.2 5.3
-3 2 -20 4.6 6.4
-3 2 -20 -7.8 4.7
-3 2 -20 7.7 5.8
3 2 20 -1.9 4.9
-4 -2 -20 -5.4 6.3
4 -2 20 8.7 7.1
4 -2 20 -3.8 8.4
4 -2 20 10.2 7.2
-4 -2 -20 7.7 8.4
-4 -2 -20 8 6.6
4 2 20 12.3 25.5
4 2 20 8.8 6.3
-4 2 -20 11.9 6.4
4 2 20 5.9 8.6
-4 2 -20 8.2 6.5
-4 2 -20 9.7 7.2
-5 -2 -20 -5.2 5
-5 -2 -20 0.7 6.7
5 -2 20 -0.4 6.3
5 -2 20 -5.3 8.6
-5 -2 -20 1.6 6.8
-5 2 -20 2.1 6.7
-5 2 -20 0.1 5.6
-5 2 -20 -5.1 4.4
5 2 20 0.2 23.9
5 2 20 0.7 7
5 2 20 -9.8 7.7
6 -2 20 -11.3 7.4
-6 -2 -20 -2.1 5.4
-6 -2 -20 -0.5 6.3
6 -2 20 -1.1 6.3
-6 -2 -20 -8.1 6.4
6 2 20 -9.8 7.7
-6 2 -20 2.1 5.9
6 2 20 -11.7 21
-6 2 -20 -3.7 6.8
7 -2 20 21 11.5
-7 -2 -20 22.9 8.3
-7 -2 -20 21.8 9.7
-7 -2 -20 22.7 9.1
7 -2 20 6.9 10.2
7 2 20 2.1 8.3
-7 2 -20 16.3 7.2
7 2 20 9 20.7
-7 2 -20 -8.1 7.2
11 -3 -20 55.39 14.1
-11 -3 20 56.49 8.3
11 -3 -20 26.2 10.3
11 3 -20 64.59 13.6
-11 3 20 55.69 8.8
-11 3 20 35.9 7.8
11 3 -20 22.9 12.6
-10 -3 20 6.5 5.1
10 -3 -20 19.6 10.4
10 -3 -20 0.8 7.9
-10 3 20 3.6 4.7
10 3 -20 27.7 10.8
10 3 -20 22.9 11.3
-10 3 20 10 5.2
9 -3 -20 111.29 15.8
-9 -3 20 119.59 11.7
9 -3 -20 76.59 14.7
9 3 -20 105.89 17.9
-9 3 20 94.79 11
-9 3 20 84.79 10.9
9 3 -20 110.29 15.8
8 -3 -20 35.1 11.3
-8 -3 20 58.39 8.7
-8 -3 20 50.99 8.4
8 -3 -20 42.7 12.1
8 3 -20 41.7 10.7
-8 3 20 38.2 7.8
-8 3 20 29.7 7.1
8 3 -20 48.7 13.3
-7 -3 20 27 6.6
-7 -3 20 33.7 7.8
7 -3 -20 17.5 9.9
-7 3 20 26.1 6.6
7 3 -20 30.4 9.7
7 3 -20 12.9 10.7
-7 3 20 23.1 6.6
-6 -3 20 30.6 7.5
-6 -3 20 40.3 7.9
6 -3 -20 55.39 13.2
-6 3 20 52.19 8.3
-6 3 20 27.6 7.1
6 3 -20 30.7 11.4
-5 -3 20 73.09 10.6
-5 -3 20 67.99 9.7
-5 3 20 73.49 10.6
5 3 -20 74.39 14.1
-5 3 20 59.19 8.9
4 -3 -20 -3.8 5.7
-4 -3 20 8.1 5.8
-4 -3 20 -3.6 4.4
-4 3 20 10.4 5
-4 3 20 4.3 4.4
4 3 -20 6.2 8.3
3 -3 -20 172.78 17.7
-3 -3 20 176.78 14
-3 -3 20 157.08 15.7
3 3 -20 152.38 18.2
3 3 -20 171.98 12.7
-3 3 20 141.99 13.4
-3 3 20 197.28 14.5
-2 -3 20 92.99 11.9
2 -3 -20 100.79 13.9
-2 -3 20 89.99 11.9
2 -3 -20 100.59 12.2
-2 3 20 95.49 11.7
2 3 -20 105.29 11.4
-2 3 20 118.39 12.7
2 3 -20 85.69 14.4
1 -3 -20 13.7 6.7
1 -3 -20 16.8 8.1
1 -3 -20 11.8 6.7
-1 -3 20 15.9 7.1
-1 -3 20 6.7 6.1
1 3 -20 14.8 5.7
-1 3 20 12.2 5.7
-1 3 20 13.1 5.6
1 3 -20 1.1 8.2
0 -3 20 27.4 8.1
0 -3 20 33 8.3
0 -3 -20 30.1 8.7
0 -3 -20 30.8 10.2
0 -3 -20 28.1 7.7
0 3 -20 32.1 8
0 3 20 31.3 7.8
0 3 -20 27.9 6.6
0 3 20 38.2 7.4
-1 -3 -20 10.2 7.4
1 -3 20 15.7 7.3
-1 -3 -20 20.7 9.2
1 -3 20 18.3 7.7
-1 -3 -20 8 6.3
1 3 20 5.2 4.9
-1 3 -20 6.7 5.6
-1 3 -20 5.3 5.1
1 3 20 7.5 5.7
-2 -3 -20 15.5 8.8
2 -3 20 3.8 6.7
2 -3 20 10.9 7.3
-2 -3 -20 2.2 6.1
-2 -3 -20 8.6 5.9
2 3 20 5.8 8.5
-2 3 -20 9.4 5.5
2 3 20 3.6 4.9
-2 3 -20 11 6.8
3 -3 20 -1.4 8.6
-3 -3 -20 0.3 7.4
3 -3 20 6.2 7.3
3 -3 20 -2.7 6.2
-3 -3 -20 -0.9 6.2
-3 -3 -20 -0.9 4.6
-3 3 -20 0.1 4.6
-3 3 -20 -4.6 5.4
3 3 20 -3.9 4.5
3 3 20 -10 7.5
3 3 20 -23 24
-4 -3 -20 13.6 9.5
4 -3 20 11.8 7.7
-4 -3 -20 5.3 5.7
4 -3 20 -11.9 7.5
4 -3 20 6.7 6.8
-4 -3 -20 1.3 6.7
-4 3 -20 -2.8 4.4
-4 3 -20 2.6 6.5
4 3 20 17.5 26.9
4 3 20 7.5 5.8
5 -3 20 7.8 7.3
5 -3 20 6.5 7.2
-5 -3 -20 5.4 6.2
-5 -3 -20 3.7 6.1
5 -3 20 -12.8 7.7
-5 -3 -20 8.7 8.6
-5 3 -20 2.3 6.8
5 3 20 -16.5 21.4
-5 3 -20 6 5.9
-6 -3 -20 -3.6 7.2
-6 -3 -20 -0.5 5.8
-6 -3 -20 -0.8 7.4
6 -3 20 -15.1 8.4
6 -3 20 -4.4 7
-6 3 -20 -0.4 4.9
-6 3 -20 14 8.6
6 3 20 4.3 21.1
10 -4 -20 26.9 10.9
10 -4 -20 30.6 11.1
-10 -4 20 51.79 8.5
10 4 -20 31.1 13.2
-10 4 20 35 7.8
-10 4 20 56.89 9.5
9 -4 -20 -5.6 7.4
-9 -4 20 6.5 5.2
9 -4 -20 -10.3 7.3
9 4 -20 -1.3 8.7
-9 4 20 3.6 4.4
-9 4 20 0.5 4.7
8 -4 -20 65.09 13.3
-8 -4 20 64.19 9.5
-8 -4 20 52.59 9
8 4 -20 48 13.4
-8 4 20 49.8 8.4
-8 4 20 64.79 10.2
7 -4 -20 15.1 9.5
-7 -4 20 39.9 8.5
-7 -4 20 58.39 9
7 4 -20 27.7 11.3
-7 4 20 54.39 9.1
-7 4 20 44.6 8.5
-6 -4 20 66.89 9.9
-6 -4 20 71.79 10.5
6 4 -20 57.69 13.3
-6 4 20 62.19 9.6
-6 4 20 50.59 9.2
-5 -4 20 37.3 8.7
-5 -4 20 48.6 9.2
5 4 -20 35.8 11.5
-5 4 20 73.99 10.5
-5 4 20 47.8 9.6
4 -4 -20 7 7.7
-4 -4 20 2.1 5.3
-4 -4 20 7.5 6.4
-4 4 20 -6.1 4.1
4 4 -20 12.9 9.1
-4 4 20 3.8 5.2
-3 -4 20 33.7 8.8
-3 -4 20 33.4 8.5
3 -4 -20 34.8 11.6
-3 4 20 44.1 8.7
-3 4 20 36.4 8.3
3 4 -20 23.5 10.5
-2 -4 20 25.6 8.1
-2 -4 20 37.3 8.8
2 -4 -20 23.2 11
2 4 -20 10.7 9.3
-2 4 20 21.5 7.7
-2 4 20 21.6 7.1
-1 -4 20 46.5 9.9
-1 -4 20 26.2 8.7
1 -4 -20 25.9 9.3
1 -4 -20 27.8 10.6
1 4 -20 34.5 10.9
-1 4 20 36.1 9
-1 4 20 44.8 8.6
0 -4 -20 -1.3 5.5
0 -4 20 -3.6 6.1
0 -4 -20 4.6 8.1
0 -4 20 -6.3 5.8
0 -4 -20 10.1 8.1
0 4 20 -1 4.5
0 4 20 -2.6 5.2
0 4 -20 -5.1 7.8
-1 -4 -20 8.1 6.1
1 -4 20 6.5 6.5
1 -4 20 -0.2 6
-1 -4 -20 -6 6.4
-1 -4 -20 -3.4 7.1
-1 4 -20 16.2 15
1 4 20 -4.7 27
-1 4 -20 -0.4 5
-1 4 -20 6.2 4.8
1 4 20 -3.7 4.6
1 4 20 -1.9 4.9
2 -4 20 15.7 8.2
-2 -4 -20 23.9 10.2
2 -4 20 19.1 8.5
-2 -4 -20 20.2 7.1
-2 -4 -20 6.7 6.9
-2 4 -20 17.2 7.5
-2 4 -20 15.5 6.1
2 4 20 -24.5 25.2
2 4 20 18.6 6.8
-3 -4 -20 8.3 6.3
-3 -4 -20 6 8.9
3 -4 20 7.3 7.2
-3 -4 -20 -0.9 6.3
3 -4 20 20.1 8.3
3 -4 20 8.6 10.2
3 4 20 -5.9 23.1
-3 4 -20 15.3 6
3 4 20 15.1 6.5
-3 4 -20 9.4 7.7
-4 -4 -20 15.1 9.8
-4 -4 -20 14.8 8.3
-4 -4 -20 10.9 6.8
4 -4 20 10.9 10.3
4 -4 20 21.9 9.2
4 -4 20 7.5 7.4
-4 4 -20 19.7 8.8
4 4 20 1.2 25.5
-4 4 -20 20.2 6.8
-5 -4 -20 4.1 7.8
5 -4 20 -3.9 7.7
-5 -4 -20 -2.4 7.6
5 -4 20 -9.7 6.3
-5 -4 -20 9.6 6.2
5 -4 20 -12.5 8.7
-5 4 -20 -4.4 6.9
-5 4 -20 1.3 5
5 4 20 -11.8 21.4
-9 -5 20 5.5 6
9 -5 -20 -1 9
9 5 -20 -3.4 10.2
-9 5 20 -2.2 4.2
-9 5 20 0.1 4.3
-8 -5 20 55.29 15.3
-8 -5 20 65.19 10.3
8 5 -20 52.79 14.4
-8 5 20 47.3 8.6
-8 5 20 42.9 8.8
-7 -5 20 28.8 8.1
-7 -5 20 26.7 8.3
7 -5 -20 23.9 10.7
-7 5 20 31.2 7.5
7 5 -20 17.5 9.7
-7 5 20 17.3 6.6
-6 -5 20 5.2 6.6
-6 -5 20 -1.7 5.6
6 5 -20 1.8 8.5
-6 5 20 5.9 5.1
-6 5 20 7.6 5.3
-5 -5 20 -1 6.2
-5 -5 20 7.2 6.4
-5 5 20 2.3 5.2
-5 5 20 1.6 4.4
5 5 -20 7.2 8.9
4 -5 -20 15.1 8.9
-4 -5 20 27.7 8.3
-4 -5 20 1.6 6
4 5 -20 13.8 10.1
-4 5 20 16.5 7
-4 5 20 23.6 6.8
-3 -5 20 9.9 7
-3 -5 20 0.7 6.4
3 -5 -20 10 9
-3 5 20 5.6 5.3
-3 5 20 19 7.2
3 5 -20 25 10.4
2 -5 -20 50.79 13.6
-2 -5 20 45.3 10
-2 -5 20 56.39 10.8
2 -5 -20 61.29 14.2
-2 5 20 35.1 7.8
-2 5 20 49 10
2 5 -20 31 12.6
1 -5 -20 43.4 10.8
-1 -5 20 41.2 9.7
-1 -5 20 41.4 10
1 -5 -20 34.7 11.6
-1 5 20 14.8 27.8
-1 5 20 40.2 9.1
-1 5 20 35 8.7
0 -5 20 11.7 6.8
0 -5 20 -1.2 6.3
0 -5 -20 -7.2 7
0 -5 -20 -3.4 6.7
0 5 20 -30 24.1
0 5 20 -6.9 5.3
0 5 20 3.4 5.7
-1 -5 -20 -0.4 8.7
-1 -5 -20 10.7 6.5
1 -5 20 6.5 6.8
1 -5 20 8.3 7.3
-1 -5 -20 2.8 7.3
1 5 20 5.7 6.3
1 5 20 -6.7 25.4
-2 -5 -20 1.9 8.7
-2 -5 -20 12.6 7.9
2 -5 20 0.1 10.1
2 -5 20 13.9 8.7
2 -5 20 -9.3 5.7
-2 -5 -20 10.1 6.4
-2 5 -20 1.7 9.4
2 5 20 -0.7 24.9
2 5 20 16.4 7.3
-3 -5 -20 67.39 14.9
3 -5 20 78.09 15.3
3 -5 20 108.99 17
-3 -5 -20 83.49 12
3 -5 20 113.59 15.3
-3 -5 -20 78.79 13.6
3 5 20 54.79 28.9
-3 5 -20 87.99 13.1
4 -5 20 -7.4 10
-4 -5 -20 -10 6.9
-4 -5 -20 2.7 7.8
4 -5 20 10 8.6
-4 -5 -20 -5 5.6
4 -5 20 5.9 8.3
4 5 20 22.8 25.8
-4 5 -20 -2.2 6.3
-6 -6 20 -2 6.4
-6 -6 20 2.1 6.2
6 6 -20 -1 8.8
-6 6 20 -3.6 3.8
-6 6 20 8.5 6
-5 -6 20 1.9 6.3
-5 -6 20 1.3 6.5
5 6 -20 -0.8 12.7
-5 6 20 -3.6 4.2
-5 6 20 -2 4.3
-4 -6 20 1.8 6.8
-4 -6 20 6.9 6.6
4 -6 -20 11.2 10.2
-4 6 20 -0.8 5
-4 6 20 -0.5 5.7
-3 -6 20 2.9 6.5
-3 -6 20 3.2 7.5
3 -6 -20 13.8 11.1
-3 6 20 2.4 5.4
-3 6 20 5.2 5.9
-3 6 20 -26 26
-2 -6 20 -0.4 7
2 -6 -20 12.2 10.5
2 -6 -20 -7.4 8.6
-2 -6 20 0.5 6.5
-2 6 20 -45.1 25.1
-2 6 20 3.2 5.5
-2 6 20 1.4 5.2
-1 -6 20 -5 6.6
-1 -6 20 2.6 7.1
1 -6 -20 12.2 9.9
1 -6 -20 15.8 8.6
-1 6 20 -26 25.5
-1 6 20 -2.6 5.3
0 -6 20 2.4 7.5
0 -6 -20 3.1 7.6
0 -6 20 -2.6 7.3
0 -6 -20 -6.3 9.5
0 6 20 0.3 5.4
0 6 20 7.9 27.5
1 -6 20 30.4 10
1 -6 20 46.8 12.1
-1 -6 -20 26.1 10
1 -6 20 29.7 12.6
-1 -6 -20 46.2 14.1
1 6 20 20.1 26.7
1 6 20 43.9 9.8
-12 0 21 -3.1 4.2
12 0 -21 0.3 8.7
12 0 -21 -5.7 9.5
-11 0 21 -3.8 3.8
11 0 -21 -0.2 8.2
-11 0 21 0.5 4.1
11 0 -21 -5.9 8.7
10 0 -21 1.3 9.1
-10 0 21 -2.1 3.9
-10 0 21 0.7 4.1
10 0 -21 -4.9 7.7
-9 0 21 4.2 4.6
9 0 -21 -0.1 7.9
9 0 -21 -9.7 8.2
-9 0 21 0.2 4
8 0 -21 -11.6 6.6
-8 0 21 3.9 4.8
-8 0 21 5.4 4.5
8 0 -21 3.8 8.9
-7 0 21 6.7 4.6
-7 0 21 2.9 4.4
7 0 -21 0.3 8.9
7 0 -21 8.1 8.2
6 0 -21 -7.7 7.7
6 0 -21 -8.3 6.7
-6 0 21 -4.2 3.7
-6 0 21 -0.3 4.2
-5 0 21 -4.7 4
5 0 -21 1.8 8.6
-5 0 21 1.4 4
-4 0 21 -1.5 4.1
-4 0 21 -0.3 3.9
-3 0 21 1.3 4.8
-3 0 21 2.9 4.9
3 0 -21 -4.9 4.3
-2 0 21 2.3 4.5
2 0 -21 -1.6 4.4
-2 0 21 1 4.8
2 0 -21 -0.6 4.8
-1 0 21 -5.3 4.1
1 0 -21 -3.4 4.6
1 0 -21 -5.2 4.6
-1 0 21 0.9 4.7
0 0 -21 -5.8 4.4
0 0 21 0.4 4.9
0 0 -21 6 4.9
0 0 21 4.9 5.2
-1 0 -21 0.8 6.1
-1 0 -21 10.1 6.4
1 0 21 -2.2 4.9
1 0 21 0.6 5.1
-1 0 -21 -0.2 4.8
2 0 21 9.2 6.4
-2 0 -21 4.3 6.1
2 0 21 -4.5 5.3
-2 0 -21 -4.5 6.1
-2 0 -21 -4.4 4.5
3 0 21 2.3 5.9
-3 0 -21 -10.2 5
-3 0 -21 -4.5 5.1
-3 0 -21 0 6.7
3 0 21 -1.6 5.4
-4 0 -21 -0.8 5.4
-4 0 -21 5 7.3
4 0 21 1.8 8.6
4 0 21 0.4 5.7
-4 0 -21 8.6 5.7
-5 0 -21 -13.2 5.9
5 0 21 -7.2 7.6
-5 0 -21 -1.1 5.5
5 0 21 -0.7 5.8
-5 0 -21 -1.9 5.8
-6 0 -21 5.3 6.9
6 0 21 3.9 11.7
6 0 21 -6.9 8.6
-6 0 -21 3.4 6.2
-6 0 -21 0.7 6.4
12 -1 -21 36.3 12.8
-12 -1 21 25.5 6.5
12 -1 -21 45.8 13.3
-12 1 21 57.29 8.8
12 1 -21 28.6 11.9
12 1 -21 43.7 14.3
11 -1 -21 9.6 10.2
-11 -1 21 9.1 5.1
11 -1 -21 -1.1 8.6
11 1 -21 21.6 11.7
-11 1 21 -1.8 4
-11 1 21 5.9 4.9
11 1 -21 10.8 9.1
10 -1 -21 99.19 16.9
-10 -1 21 125.39 12.6
10 -1 -21 138.39 18.3
-10 -1 21 157.58 11.8
-10 1 21 126.59 13
10 1 -21 119.79 19.2
10 1 -21 141.19 17.7
-10 1 21 140.09 13.1
9 -1 -21 23 9.7
-9 -1 21 23.9 6.4
-9 -1 21 26.5 6.4
9 -1 -21 29 12
9 1 -21 11.3 9.2
-9 1 21 32 7.4
-9 1 21 27.9 6.9
9 1 -21 29.5 11.8
-8 -1 21 20.8 6.1
8 -1 -21 18.2 10.6
-8 -1 21 28.9 6.8
8 -1 -21 22.5 9.7
8 1 -21 15 10.8
-8 1 21 22.6 6.3
-8 1 21 18.4 6.1
8 1 -21 29.8 10.4
7 -1 -21 64.59 12.9
7 -1 -21 35 11.8
-7 -1 21 41.6 7.9
-7 -1 21 53.39 8.9
7 1 -21 32.7 12
-7 1 21 49.9 8.2
-7 1 21 33.8 7.6
7 1 -21 46.1 10.7
6 -1 -21 -10 7.5
-6 -1 21 14.7 5.5
-6 -1 21 5.5 5.1
-6 1 21 5.7 4.9
-6 1 21 4.8 4.8
6 1 -21 -7.7 7.5
6 1 -21 6.1 6.9
-5 -1 21 62.39 9.5
5 -1 -21 67.89 14.7
-5 -1 21 66.99 9.5
5 1 -21 91.09 13.1
-5 1 21 64.89 9.9
-5 1 21 80.19 10.4
5 1 -21 53.89 13.4
-4 -1 21 38.6 7.4
-4 -1 21 34.7 7.7
-4 1 21 27.8 6.7
-4 1 21 29.5 7.6
4 1 -21 29.9 10.5
4 1 -21 29.3 6.7
-3 -1 21 4.6 5.2
3 -1 -21 3.2 5.7
3 -1 -21 9.4 5
-3 -1 21 6 4.9
-3 1 21 6.3 4.8
-3 1 21 8 5.2
3 1 -21 8.5 5.7
-2 -1 21 -0.3 5.2
-2 -1 21 -6.8 4.6
2 -1 -21 3.5 6.4
2 -1 -21 1.6 4.6
-2 1 21 6.9 5.3
-2 1 21 3.9 4.9
2 1 -21 7.8 5.4
-1 -1 21 50.19 8.7
1 -1 -21 53.49 8.9
-1 -1 21 64.39 9.9
1 -1 -21 45.9 10.1
1 1 -21 45.4 8.3
-1 1 21 74.29 10.5
-1 1 21 54.89 9.6
1 1 -21 55.19 9.8
0 -1 21 75.49 11.4
0 -1 -21 63.89 10.1
0 -1 -21 58.09 9.3
0 -1 -21 70.79 12.1
0 -1 21 56.89 9.5
0 1 -21 70.09 11.1
0 1 21 49.8 9.1
0 1 -21 49.8 8.7
0 1 21 59.49 9.7
-1 -1 -21 28.5 8.3
1 -1 21 21.1 7.7
1 -1 21 34.5 8.8
-1 -1 -21 39.4 10.5
-1 -1 -21 32.4 7.5
1 1 21 31.1 7.6
1 1 21 21.4 7.2
-1 1 -21 47.1 10.1
-1 1 -21 26 7.5
-2 -1 -21 44.3 8.8
-2 -1 -21 35.4 8.8
2 -1 21 43 9.2
2 -1 21 30.1 8.9
-2 -1 -21 44.8 11.5
-2 1 -21 44.7 9.2
-2 1 -21 46.6 10.6
2 1 21 40.5 9
2 1 21 36.4 8.5
-2 1 -21 33.9 8.2
-3 -1 -21 39.9 9
3 -1 21 26.3 8.2
3 -1 21 52.59 10.9
-3 -1 -21 42.7 11
-3 -1 -21 43.2 9.4
3 1 21 27 7.8
-3 1 -21 55.79 9.8
-3 1 -21 34.7 9.9
-3 1 -21 44.3 9.3
3 1 21 37.6 8.5
4 -1 21 5.2 6.9
-4 -1 -21 14 8.1
-4 -1 -21 1 5.8
4 -1 21 -5.6 5.6
-4 -1 -21 0.5 5.9
4 -1 21 1.1 8.7
-4 1 -21 -2.8 4.6
-4 1 -21 7.9 7.2
4 1 21 2.3 5.8
-4 1 -21 1.6 5.7
4 1 21 -15.7 7.2
5 -1 21 -8.1 5.3
-5 -1 -21 -2.6 6.9
-5 -1 -21 10.4 7.2
-5 -1 -21 -2.8 5.1
5 -1 21 -5.3 8.6
-5 1 -21 3 6.8
-5 1 -21 -1.6 5
5 1 21 2.7 5.8
5 1 21 4.3 23.4
-5 1 -21 -3.5 5
5 1 21 -24.4 6.4
-6 -1 -21 52.19 10.8
-6 -1 -21 55.59 10.5
6 -1 21 57.09 12
-6 -1 -21 46.1 11.4
6 -1 21 31 11.8
-6 1 -21 47 10
-6 1 -21 46.4 10
-6 1 -21 41.5 10.8
6 1 21 24.6 11.2
6 1 21 30.6 26.2
-11 -2 21 26.1 6.4
11 -2 -21 32.2 11.8
11 -2 -21 9.1 10.7
11 2 -21 25.8 12.7
-11 2 21 30.1 7.2
-11 2 21 48.9 8.5
11 2 -21 34 12.1
-10 -2 21 29.7 6.8
10 -2 -21 39.9 11
10 -2 -21 16.6 10.5
10 2 -21 7.4 9.8
-10 2 21 18.7 6.5
-10 2 21 19.8 6.3
9 -2 -21 63.49 13.3
-9 -2 21 52.89 8.4
9 -2 -21 41.4 13
-9 -2 21 75.19 10.3
-9 2 21 50.09 8.2
9 2 -21 39.1 11.6
9 2 -21 35.4 13
-9 2 21 47.9 8.8
-8 -2 21 39.8 7.9
-8 -2 21 42.1 8.1
8 -2 -21 44.9 11.8
8 -2 -21 36.6 12.3
8 2 -21 38.8 13.1
-8 2 21 32.3 7.3
8 2 -21 49.6 11.6
-8 2 21 49.5 8.8
-7 -2 21 42.6 8.3
7 -2 -21 49.6 13.5
-7 -2 21 42.1 7.9
-7 2 21 42.9 8.2
-7 2 21 46.2 8.6
7 2 -21 36.1 12.4
7 2 -21 43.6 10.9
-6 -2 21 -2.9 4.5
-6 -2 21 19.4 6.6
6 -2 -21 7.4 9.2
-6 2 21 4.4 4.7
6 2 -21 -4.8 8.9
-6 2 21 10.1 5.3
6 2 -21 15.1 8.2
-5 -2 21 38.3 8.2
-5 -2 21 62.79 9.8
-5 2 21 48.4 8.7
-5 2 21 52.39 9.3
5 2 -21 62.09 10.8
5 2 -21 66.49 14.7
-4 -2 21 1.6 4.6
-4 -2 21 3.9 5.1
4 2 -21 0.1 6.8
4 2 -21 -1.3 8.5
-4 2 21 1 4.4
-4 2 21 6.1 5.2
4 2 -21 -0.9 4.6
-3 -2 21 48.4 9.1
-3 -2 21 57.69 9.4
3 -2 -21 39.2 9.3
3 2 -21 46.3 8.3
-3 2 21 50.09 8.9
-3 2 21 60.79 9.4
3 2 -21 49.99 12.4
2 -2 -21 45.7 8.7
-2 -2 21 58.49 9.8
2 -2 -21 61.29 11.6
-2 -2 21 57.99 10.1
2 2 -21 49.9 8.8
2 2 -21 52.69 12.9
-2 2 21 56.09 9.2
-2 2 21 65.69 10.4
-1 -2 21 10.4 6.6
-1 -2 21 5.8 6
1 -2 -21 17.2 6.7
1 -2 -21 17 7.9
-1 2 21 13.9 6.4
-1 2 21 7.1 5.5
1 2 -21 12 5.4
0 -2 -21 76.59 11.7
0 -2 -21 56.99 12.3
0 -2 21 60.59 10.5
0 -2 21 60.29 10.5
0 -2 -21 51.89 9.4
0 2 21 60.99 9.4
0 2 -21 62.59 10.7
0 2 21 75.79 11.2
0 2 -21 56.99 9.5
-1 -2 -21 48.5 12.2
-1 -2 -21 28.2 7.8
-1 -2 -21 53.89 10.4
1 -2 21 50.19 10.3
1 -2 21 34.2 9
1 2 21 53.79 10
1 2 21 23.2 7
-1 2 -21 43 9.9
-1 2 -21 28.8 7.7
2 -2 21 6.4 6.8
2 -2 21 3.9 6.4
-2 -2 -21 8.9 6.3
-2 -2 -21 4.9 6.7
-2 -2 -21 9.1 8.3
2 2 21 13.5 6.9
2 2 21 4 5.8
-2 2 -21 3.8 5
-2 2 -21 -3 6.1
3 -2 21 27.4 8.4
-3 -2 -21 32.9 8.6
-3 -2 -21 42.6 11.6
3 -2 21 22.8 10.9
3 -2 21 47.7 11.2
-3 -2 -21 38.2 9.7
3 2 21 34 8.6
-3 2 -21 24.7 8.9
-3 2 -21 30 8.6
-3 2 -21 24.1 7.4
-4 -2 -21 34.3 9.3
4 -2 21 42.7 10.7
-4 -2 -21 23.5 10.1
4 -2 21 1.9 9.3
-4 -2 -21 29.4 8.6
4 -2 21 27 9.2
4 2 21 20.9 9.9
-4 2 -21 23.8 7.4
4 2 21 6.6 24.5
4 2 21 46 10.1
-4 2 -21 47.5 11
-5 -2 -21 8.6 6.9
-5 -2 -21 7.6 6.5
5 -2 21 13.9 8.7
5 -2 21 -8.5 8.1
-5 -2 -21 0.6 8.3
-5 2 -21 16.7 6.7
-5 2 -21 3.5 7.2
5 2 21 -4.3 22.6
5 2 21 -1.4 8.3
6 -2 21 0.4 7.4
-6 -2 -21 14.5 9.1
-6 -2 -21 -2.6 6.1
6 -2 21 -11.8 9.1
-6 -2 -21 13.8 7.5
-6 2 -21 1.1 7.8
6 2 21 0.6 9
6 2 21 32 24.8
-6 2 -21 -2.7 5.3
11 -3 -21 59.99 14.6
-11 -3 21 74.99 10
11 -3 -21 80.59 14.7
11 3 -21 70.59 15.1
-11 3 21 77.29 10.8
11 3 -21 50.79 15.3
-11 3 21 82.89 10.9
10 -3 -21 10.6 8.9
-10 -3 21 -6.3 4.2
10 -3 -21 7.9 9.3
10 3 -21 10.3 8.8
10 3 -21 10.2 11.2
-10 3 21 -2.7 4.2
-10 3 21 -2.5 4.2
-9 -3 21 7.2 5.6
9 -3 -21 4.3 8.8
9 -3 -21 8.7 9.6
-9 -3 21 1.9 5.2
9 3 -21 0.6 7.6
9 3 -21 -1.4 9.1
-9 3 21 8.5 5.1
-9 3 21 4.4 4.8
8 -3 -21 5.2 8.9
-8 -3 21 1 4.8
8 -3 -21 8.4 9.7
-8 -3 21 19.7 6.6
-8 3 21 9.4 5.5
8 3 -21 3 9.1
8 3 -21 6 8.7
-8 3 21 6.6 5.1
7 -3 -21 119.29 18.3
-7 -3 21 169.28 13.3
-7 -3 21 127.39 13.2
7 3 -21 135.99 19.8
-7 3 21 162.08 13.5
-7 3 21 174.38 12.9
-6 -3 21 -0.8 4.7
-6 -3 21 -1.1 5.2
6 -3 -21 2.8 9.6
-6 3 21 0.3 4.2
-6 3 21 7.4 5
6 3 -21 3.8 9.9
-5 -3 21 3.4 5.5
-5 -3 21 -3.6 5.7
5 3 -21 12.7 10.4
-5 3 21 7 5.5
-5 3 21 -0.4 4.8
4 -3 -21 20.9 11.5
-4 -3 21 23.6 7.6
-4 -3 21 16.3 6.3
-4 3 21 23.6 7.2
-4 3 21 23.4 7.2
4 3 -21 13.5 10.1
3 -3 -21 4.9 6.7
-3 -3 21 6.9 5.9
-3 -3 21 -3.3 4.9
3 3 -21 1.1 5.7
3 3 -21 -3.9 8.1
-3 3 21 2.1 4.7
-3 3 21 1.6 4.4
2 -3 -21 5.1 7.8
-2 -3 21 0.9 5.8
-2 -3 21 4.7 6
-2 3 21 -1.7 4.4
2 3 -21 4.8 9.4
2 3 -21 4.3 5.3
-2 3 21 7.4 5.4
1 -3 -21 24.2 9.2
-1 -3 21 19.3 7.7
1 -3 -21 9.4 6.3
1 -3 -21 14 9.7
-1 -3 21 13.8 7.3
1 3 -21 10.3 9.5
1 3 -21 26.2 6.9
-1 3 21 10.9 6.8
-1 3 21 9 6.1
0 -3 -21 20.7 8.4
0 -3 -21 29.4 10.9
0 -3 21 27.8 8.9
0 -3 21 20.4 7.4
0 -3 -21 28.9 8
0 3 21 26.4 7.8
0 3 21 28.3 8
0 3 -21 20.5 6.4
1 -3 21 3.6 6.6
-1 -3 -21 0.2 6.9
1 -3 21 39.8 10.7
-1 -3 -21 -2.9 8.1
-1 -3 -21 10.5 6.6
-1 3 -21 3.5 6.4
-1 3 -21 -5.9 4.3
1 3 21 0.4 5.2
1 3 21 12.4 6.4
2 -3 21 34.3 9.8
-2 -3 -21 25.3 8.1
2 -3 21 21.1 7.9
-2 -3 -21 35.3 11.3
-2 -3 -21 9.4 7
2 3 21 16.2 7.1
-2 3 -21 28 7.2
-2 3 -21 27.6 8.5
3 -3 21 0.1 8.9
3 -3 21 7.6 7.1
-3 -3 -21 1.8 6.4
-3 -3 -21 4.2 8.9
3 -3 21 5.4 6.6
-3 -3 -21 1.6 5
3 3 21 1.1 5.2
3 3 21 -3.8 25.8
-3 3 -21 2.2 4.9
-3 3 -21 9.4 6.7
-4 -3 -21 2.6 5.7
-4 -3 -21 -4 6.8
-4 -3 -21 16.8 9.5
4 -3 21 1.4 10
4 -3 21 8.2 7.4
4 -3 21 10.2 7.9
-4 3 -21 11.1 7.9
4 3 21 26.9 26.3
-4 3 -21 10.1 5.9
4 3 21 12.4 6.2
-5 -3 -21 14.6 7.9
5 -3 21 22.2 9.1
5 -3 21 7.4 10.9
-5 -3 -21 15.8 8.8
-5 -3 -21 8 9.3
-5 3 -21 20 8.2
5 3 21 12.8 24.9
-5 3 -21 4.5 5.7
-9 -4 21 40.1 8.3
9 -4 -21 33.7 12.4
9 -4 -21 24.9 11.1
-9 4 21 27.7 7
-9 4 21 42.9 8.6
9 4 -21 26.2 11.6
8 -4 -21 18.6 10.7
-8 -4 21 2.4 5.7
-8 -4 21 16.7 6.9
8 4 -21 20.7 11.6
-8 4 21 10.5 5.7
-8 4 21 7.7 4.8
7 -4 -21 21.1 10.2
-7 -4 21 30.9 8.4
-7 -4 21 57.69 9.6
7 4 -21 52.29 13.7
-7 4 21 52.49 9.6
-7 4 21 54.49 9.1
-6 -4 21 12.3 6.7
-6 -4 21 3.9 5.4
6 4 -21 -0.2 8
-6 4 21 14.2 6.4
-6 4 21 12.5 5.4
-5 -4 21 1.2 5.4
-5 -4 21 1.2 5.8
-5 4 21 1.6 4.6
-5 4 21 1.5 4.6
5 4 -21 -2.3 8.2
-4 -4 21 7.2 6.6
4 -4 -21 8.6 7.8
-4 -4 21 17.9 6.8
-4 4 21 16.3 6.5
4 4 -21 23.3 10.6
-4 4 21 9.2 5.5
3 -4 -21 -0.4 6.8
-3 -4 21 0.9 6
-3 -4 21 5.1 6.2
-3 4 21 4.4 5.1
-3 4 21 9.7 6.5
3 4 -21 8 9.3
-2 -4 21 -0.4 5.7
-2 -4 21 2.1 5.9
2 -4 -21 0.9 7.9
-2 4 21 2.1 5.3
2 4 -21 9 8.5
-2 4 21 2.4 4.9
1 -4 -21 -1.1 7.5
-1 -4 21 -5.7 5.7
1 -4 -21 4.2 7.6
-1 -4 21 -2.1 5.9
-1 4 21 7.9 6.5
-1 4 21 2 5.4
1 4 -21 -2.9 7.7
0 -4 -21 6.5 9.6
0 -4 21 2.5 6.4
0 -4 -21 11.5 7.9
0 -4 21 17 8
0 -4 -21 4.1 5.7
0 4 21 15.3 5.9
0 4 21 13.8 7
0 4 -21 19 10
-1 -4 -21 23.5 10.8
1 -4 21 18.3 8.8
-1 -4 -21 16.8 8.7
1 -4 21 17.7 7.8
-1 -4 -21 12.6 6.9
1 4 21 14.6 7
1 4 21 -22.7 25.3
-1 4 -21 20.6 6.9
2 -4 21 7 7
-2 -4 -21 4.3 5.8
-2 -4 -21 3.3 8.1
-2 -4 -21 -0.8 7.1
2 -4 21 -0.4 6.8
-2 4 -21 -0.6 6.1
-2 4 -21 6.2 5.1
2 4 21 5.1 5.6
2 4 21 -30.9 23.7
-3 -4 -21 8.8 9.1
3 -4 21 -11.8 5.1
3 -4 21 4 6.7
-3 -4 -21 3.5 6
3 -4 21 0.5 9.8
-3 -4 -21 -7.9 5.6
-3 4 -21 10.5 7.4
3 4 21 -6.8 5
3 4 21 -13.2 23.5
-3 4 -21 1.8 5
4 -4 21 0 6.9
4 -4 21 -9.1 9.1
-4 -4 -21 -2.9 8.5
4 -4 21 3.9 7.1
-4 -4 -21 1.5 5.9
-4 -4 -21 2.8 7.7
4 4 21 -30.3 22.3
-4 4 -21 -8.2 6
-4 4 -21 -2.8 4.7
-8 -5 21 0.4 6.4
-8 5 21 4.7 4.9
-8 5 21 5.7 5.3
8 5 -21 4.1 10.7
7 -5 -21 22.8 11.5
-7 -5 21 36.3 9.1
-7 -5 21 28.5 7.9
-7 5 21 38.8 8.8
-7 5 21 24.4 7.4
7 5 -21 30.5 12.9
-6 -5 21 9 6.9
-6 -5 21 16.8 8.3
-6 5 21 6.7 5
6 5 -21 6.7 9.1
-6 5 21 10.5 6.3
-5 -5 21 -4.1 5.6
-5 -5 21 2.8 6.5
-5 5 21 0.7 4.2
5 5 -21 6.8 9.2
-5 5 21 -1.6 4.7
-4 -5 21 52.49 10.6
4 -5 -21 64.39 13.5
-4 -5 21 60.69 11
-4 5 21 50.99 10.1
4 5 -21 55.09 13.6
-4 5 21 76.89 11.5
3 -5 -21 3.3 8.2
-3 -5 21 7.7 7.2
-3 -5 21 -2.4 5.9
-3 5 21 5.8 5.3
3 5 -21 1.8 8.4
-3 5 21 10 5.8
2 -5 -21 77.59 15.4
-2 -5 21 42.8 10.6
-2 -5 21 55.59 10.9
-2 5 21 61.59 10.8
-2 5 21 74.59 11.5
-1 -5 21 48.4 10.8
1 -5 -21 65.99 14.9
1 -5 -21 78.49 13.1
-1 -5 21 39.6 10.3
-1 5 21 45.7 8.9
-1 5 21 34.7 31
-1 5 21 46.4 10.3
0 -5 -21 4.5 9.7
0 -5 21 9.3 7.4
0 -5 21 19 8.7
0 -5 -21 17.1 9
0 5 21 -33.7 26.3
0 5 21 4.6 5.9
-1 -5 -21 68.19 13.2
-1 -5 -21 37.7 13.3
1 -5 21 42.5 10.4
1 -5 21 49.1 11.6
-1 -5 -21 33.5 8.7
1 5 21 17.5 7.8
1 5 21 23.9 30.6
2 -5 21 41.8 11.9
2 -5 21 28.8 9.9
-2 -5 -21 62.29 15.9
-2 -5 -21 20.6 8
2 -5 21 19.2 11.6
-2 -5 -21 22.1 9.4
2 5 21 20.9 28.3
2 5 21 22.8 8.4
-3 -6 21 15.3 8.4
-3 6 21 -2.4 5.3
-3 6 21 -23.1 27.7
-3 6 21 0.2 5.6
-2 -6 21 14.1 8.4
-2 6 21 -13 28.8
-2 6 21 8.2 6.1
-1 6 21 -33 27.4
11 0 -22 1.7 9.3
-11 0 22 1.6 4.6
-11 0 22 7.6 5.4
11 0 -22 5.7 10.2
10 0 -22 18.7 10.4
10 0 -22 16.4 10.5
-10 0 22 10.1 5.5
-10 0 22 11.4 5.2
9 0 -22 92.59 14.9
9 0 -22 43.1 13.5
-9 0 22 58.69 9.6
-9 0 22 48.4 8.7
8 0 -22 13 10.5
-8 0 22 16.8 6.1
8 0 -22 11.8 9.3
-8 0 22 20.4 6
-7 0 22 7.4 5.3
7 0 -22 14.1 9.1
-7 0 22 6.5 4.9
7 0 -22 10.7 10.6
-6 0 22 239.38 16.2
6 0 -22 270.47 21
6 0 -22 225.98 24.4
-6 0 22 288.37 17.7
-5 0 22 52.89 9.2
5 0 -22 77.19 15.1
-5 0 22 56.59 9.7
-4 0 22 160.98 15.7
4 0 -22 156.88 20.5
-4 0 22 180.28 14.1
-3 0 22 16.9 6.6
-3 0 22 16 6.7
3 0 -22 21.4 7
-2 0 22 6.2 5.7
2 0 -22 4.5 7
-2 0 22 -0.6 4.9
2 0 -22 0.6 5.1
-1 0 22 29.1 8.3
1 0 -22 20.6 7.9
1 0 -22 28 7.6
-1 0 22 19.5 7.2
0 0 -22 24.1 8.7
0 0 -22 20.9 7.5
0 0 22 20.8 7.6
0 0 22 31.6 7.8
-1 0 -22 14.4 6.9
1 0 22 16.4 7.2
-1 0 -22 15.1 8.3
1 0 22 19.2 7.4
-2 0 -22 126.09 14.6
2 0 22 131.89 16
-2 0 -22 91.19 12.2
2 0 22 96.59 12.9
-2 0 -22 140.89 17.1
3 0 22 40.3 9.9
-3 0 -22 49.5 11.9
3 0 22 40.3 9.6
-3 0 -22 41.2 9.3
-3 0 -22 57.09 11.1
4 0 22 -3.4 8.4
-4 0 -22 13.1 8.8
-4 0 -22 9.6 7.2
-4 0 -22 -1.4 5.7
4 0 22 -0.7 6.1
-5 0 -22 2.5 7
-5 0 -22 5.1 8
5 0 22 3.1 7
5 0 22 -6.2 8.9
-5 0 -22 5 6.2
11 -1 -22 48.9 14.3
-11 -1 22 47.1 8.1
11 -1 -22 62.69 13.5
-11 1 22 51.29 8.8
11 1 -22 27 11.8
-11 1 22 56.89 9.3
11 1 -22 19.9 12.6
10 -1 -22 1.9 9.3
10 -1 -22 12.2 9
-10 -1 22 9.1 5.5
-10 -1 22 12 5.5
10 1 -22 0.4 9.2
-10 1 22 7.9 5.6
10 1 -22 -6.4 8.4
-10 1 22 2.3 4.5
-9 -1 22 42 8.3
-9 -1 22 72.19 9.7
9 -1 -22 23.5 11.4
9 -1 -22 61.69 12.8
-9 1 22 54.59 9.6
-9 1 22 62.79 9.6
9 1 -22 57.19 12.9
9 1 -22 32.4 13.2
-8 -1 22 7.1 5.6
8 -1 -22 21.1 10
8 -1 -22 27.2 11.6
-8 -1 22 8 5.5
8 1 -22 34.6 12.1
-8 1 22 15.8 6.1
-8 1 22 8.4 5.8
8 1 -22 3.4 8.2
-7 -1 22 15.5 6.1
7 -1 -22 4.7 10.1
7 -1 -22 6.8 9.3
-7 -1 22 10.4 5.3
-7 1 22 14.3 5.7
-7 1 22 14.8 6.2
7 1 -22 1.2 8.1
7 1 -22 9.8 10.7
6 -1 -22 58.59 14.4
-6 -1 22 53.79 9.1
-6 -1 22 56.09 9.4
6 1 -22 40.9 12.8
-6 1 22 52.39 9
6 1 -22 74.89 12.6
-6 1 22 51.69 9.6
5 -1 -22 32 12.4
-5 -1 22 35.3 8.3
-5 -1 22 45.8 8.5
5 1 -22 43.6 13.3
-5 1 22 41.4 9
5 1 -22 48.5 11.5
-5 1 22 49.5 8.6
-4 -1 22 1.6 4.8
-4 -1 22 -7.9 4.2
-4 1 22 -7.2 4.2
4 1 -22 -10.1 8.4
-4 1 22 4.5 5.3
4 1 -22 3.7 4.7
3 -1 -22 28.2 7.4
-3 -1 22 39.7 8.9
-3 -1 22 23.5 7.2
3 1 -22 40.9 8
3 1 -22 34.4 11.8
-3 1 22 32.3 8.2
-3 1 22 26.2 7.8
2 -1 -22 9.5 5.4
2 -1 -22 15.8 7.6
-2 -1 22 17.8 6.8
-2 -1 22 17.3 7.2
-2 1 22 10.4 6
2 1 -22 10.7 6.4
-2 1 22 13.7 6.1
-1 -1 22 6 5.9
-1 -1 22 -0.6 4.8
1 -1 -22 7.5 6
1 -1 -22 -2.3 6.3
-1 1 22 -1.7 5
1 1 -22 0.9 5
-1 1 22 -0.3 4.9
1 1 -22 -4.5 4.7
0 -1 22 101.99 13.7
0 -1 22 96.29 12.3
0 -1 -22 76.19 11.2
0 -1 -22 111.49 14.6
0 1 -22 69.99 10.3
0 1 22 116.19 14.1
0 1 -22 111.09 14
0 1 22 70.09 10.7
-1 -1 -22 38.3 11
1 -1 22 42.6 9.5
-1 -1 -22 60.59 11.2
-1 -1 -22 59.39 10.3
1 -1 22 78.79 12.5
-1 1 -22 61.59 10.1
-1 1 -22 48.1 10.5
1 1 22 51.69 10.6
1 1 22 46.4 9.6
2 -1 22 10.1 7.1
-2 -1 -22 2.1 6.6
2 -1 22 0.8 5.7
-2 -1 -22 -2.3 7.4
-2 -1 -22 5.2 5.7
-2 1 -22 4.5 5.6
-2 1 -22 14.3 7.4
2 1 22 -4 5.4
2 1 22 7.2 6
-2 1 -22 -1.3 8.8
3 -1 22 51.69 11
-3 -1 -22 44.4 10.4
-3 -1 -22 46.7 9.6
3 -1 22 20.8 8.1
-3 -1 -22 29.7 10.2
-3 1 -22 53.69 9.7
-3 1 -22 38.5 9
-3 1 -22 44.6 10.6
3 1 22 43.2 9.7
4 -1 22 2.7 7
4 -1 22 -4.1 8.1
-4 -1 -22 15.3 7
-4 -1 -22 18.1 8.4
-4 -1 -22 2.2 7.4
-4 1 -22 10.6 7.3
-4 1 -22 6.5 5.2
4 1 22 -6.8 8.3
4 1 22 4.4 6.7
-4 1 -22 11 6.9
5 -1 22 -10.4 8.5
5 -1 22 -6.3 6.6
-5 -1 -22 -6.8 5.4
-5 -1 -22 -0.7 7.7
-5 -1 -22 8.9 7.4
-5 1 -22 -1.9 5.3
5 1 22 -30.8 22.3
5 1 22 1 8.9
-5 1 -22 -2.5 5.9
5 1 22 -4.2 5.9
-5 1 -22 2.9 7.4
-10 -2 22 6.9 5.8
10 -2 -22 12.4 9.8
10 -2 -22 5.2 10.8
10 2 -22 12 9.1
10 2 -22 17.9 11.5
-10 2 22 8.3 5.8
-10 2 22 10.5 5.3
9 -2 -22 56.39 14.3
-9 -2 22 95.69 11.3
-9 -2 22 84.89 11
9 -2 -22 68.99 13.4
9 2 -22 89.99 17.5
-9 2 22 69.59 10.2
9 2 -22 87.99 14.7
-9 2 22 60.99 9.5
8 -2 -22 3.6 9.4
-8 -2 22 6.3 5.6
-8 -2 22 7.9 5.5
8 -2 -22 5.3 9.3
8 2 -22 19.5 8.8
-8 2 22 5.2 4.9
-8 2 22 0.6 4.7
8 2 -22 1.7 9.4
-7 -2 22 86.29 11.4
-7 -2 22 84.79 11
7 -2 -22 71.19 15.2
-7 2 22 74.59 10.7
7 2 -22 76.99 13.6
7 2 -22 43.9 13.3
-7 2 22 92.39 11.6
6 -2 -22 -16.8 7.7
-6 -2 22 3.2 5.2
-6 -2 22 -6.6 4.5
-6 2 22 2.4 4.9
6 2 -22 9.6 8.1
6 2 -22 0.9 10.4
-6 2 22 3.1 5.2
-5 -2 22 5.4 5.5
-5 -2 22 -0.3 5.7
5 2 -22 -4.8 9
-5 2 22 7.2 5.5
-5 2 22 1.3 4.4
5 2 -22 -9.4 5.9
-4 -2 22 0.8 5
-4 -2 22 -2 5.4
4 2 -22 3.2 5
-4 2 22 1.9 4.9
-4 2 22 -8 4
4 2 -22 5.7 9.7
-3 -2 22 13.6 6.8
-3 -2 22 42.2 9.2
3 -2 -22 69.79 11.7
3 2 -22 23.9 7.2
3 2 -22 17 10.7
-3 2 22 61.99 9.6
-3 2 22 64.99 9.8
-2 -2 22 20.7 7.5
2 -2 -22 32.1 9.6
2 -2 -22 28.8 7.7
-2 -2 22 28.8 8.2
2 2 -22 28.6 7.6
-2 2 22 30.8 7.8
2 2 -22 24.2 11
-2 2 22 31.8 8.5
1 -2 -22 1.7 7.6
-1 -2 22 -1.4 5.3
-1 -2 22 0.3 5.6
1 -2 -22 -2.8 5.4
1 2 -22 1.2 4.5
-1 2 22 -4.3 4.4
-1 2 22 6.2 5.1
0 -2 -22 14.1 8.6
0 -2 -22 18.7 8.5
0 -2 -22 3.3 5.4
0 -2 22 12 6.9
0 -2 22 15.4 7
0 2 -22 11.3 7.3
0 2 22 13 6.7
0 2 -22 6.9 5.3
0 2 22 9.6 5.8
-1 -2 -22 23.8 10.4
1 -2 22 30 8.7
1 -2 22 12.1 7.5
-1 -2 -22 36.8 8.8
-1 -2 -22 19.7 8.1
1 2 22 30.9 7.9
-1 2 -22 22.4 8.5
-1 2 -22 17.1 7
1 2 22 24.3 8
-2 -2 -22 33.7 11.4
-2 -2 -22 25.3 7.4
2 -2 22 33 8.9
2 -2 22 15 7.7
-2 -2 -22 34.2 9.1
-2 2 -22 27.6 9.1
-2 2 -22 14.1 6.9
2 2 22 17.4 7.5
2 2 22 32.4 9
3 -2 22 -3.1 8.3
3 -2 22 -14.3 5
3 -2 22 -3.9 5.6
-3 -2 -22 8.4 6.5
-3 -2 -22 -1.5 6.1
-3 -2 -22 -0.9 7.5
-3 2 -22 -2 4.4
3 2 22 -5 5.3
-3 2 -22 -7 6.1
3 2 22 -13.7 8.2
-4 -2 -22 17 7.6
4 -2 22 6.1 7.1
-4 -2 -22 2.9 8.1
4 -2 22 -4.7 8.5
-4 -2 -22 5.1 6.3
4 -2 22 -4.3 6.7
4 2 22 -60.29 19.9
-4 2 -22 -5.9 6.7
4 2 22 5.8 6.2
-4 2 -22 -1.9 4.7
4 2 22 -5.4 8.7
5 -2 22 9 8
-5 -2 -22 9.4 6.3
-5 -2 -22 8.8 9.4
-5 -2 -22 10.2 7.4
5 -2 22 -0.7 9.7
-5 2 -22 10.1 8.7
-5 2 -22 15.5 7
5 2 22 -23.9 22
5 2 22 -10.9 8.4
-10 -3 22 33.5 8
10 -3 -22 18.2 9.7
10 -3 -22 12.7 9.9
10 3 -22 49.8 12.9
-10 3 22 19 6.8
-10 3 22 23.8 7.2
10 3 -22 24.1 13.3
9 -3 -22 13.1 10.9
-9 -3 22 9.1 5.9
9 -3 -22 9.1 9.9
-9 -3 22 18.5 6.6
-9 3 22 11.7 6
-9 3 22 15.2 6.3
9 3 -22 14.8 11.4
9 3 -22 21.7 14.8
8 -3 -22 68.19 14.2
-8 -3 22 98.69 11.7
8 -3 -22 60.39 13.9
-8 -3 22 79.39 11.2
-8 3 22 92.19 11.5
-8 3 22 99.69 12.5
8 3 -22 70.99 16.5
-7 -3 22 25 7.4
-7 -3 22 26.7 7.5
7 -3 -22 20.4 11.3
-7 3 22 30 7.5
7 3 -22 26.2 12.2
-7 3 22 24.1 7.2
-6 -3 22 29.1 7.8
6 -3 -22 24.2 11.7
-6 -3 22 38.3 8.3
-6 3 22 37.6 8.2
-6 3 22 24.3 7.3
6 3 -22 32.4 12.4
-5 -3 22 42.1 9.1
-5 -3 22 30.6 8.3
-5 3 22 28.6 7.6
5 3 -22 39.8 12.9
-5 3 22 33.9 7.9
-4 -3 22 -0.6 4.9
-4 -3 22 0.8 5.8
-4 3 22 12.7 6.4
-4 3 22 4.1 5.1
4 3 -22 -3.4 8.4
3 -3 -22 21.9 9.8
-3 -3 22 18.5 7.5
-3 -3 22 22.1 7.8
3 3 -22 13 10
-3 3 22 21.3 7.2
-3 3 22 20.4 7.3
2 -3 -22 37.3 11.1
-2 -3 22 41.3 9.2
-2 -3 22 25.9 8.5
2 3 -22 23.3 7.2
2 3 -22 7 9.9
-2 3 22 30.6 7.5
-2 3 22 24.9 8.1
1 -3 -22 9.1 6.3
1 -3 -22 27 10.3
-1 -3 22 9.7 7.1
-1 -3 22 5.1 6.7
1 3 -22 13.7 6.1
-1 3 22 13.1 6.5
1 3 -22 -3.1 8
-1 3 22 13.7 6.2
0 -3 -22 104.49 16.9
0 -3 22 108.09 14.2
0 -3 22 92.59 13.2
0 -3 -22 77.19 11.6
0 -3 -22 86.89 13.8
0 3 22 117.89 14
0 3 -22 81.29 10.8
0 3 22 85.79 12.4
-1 -3 -22 6.6 7.6
1 -3 22 8 6.8
1 -3 22 5.8 6.6
-1 -3 -22 14.6 7.2
-1 -3 -22 22.9 10.7
1 3 22 14.3 6.7
-1 3 -22 20.6 8
-1 3 -22 8.9 5.8
1 3 22 9.9 6.1
-2 -3 -22 -5.5 6
2 -3 22 -4.6 5.9
2 -3 22 0.6 6.6
-2 -3 -22 4.1 8.6
-2 -3 -22 -7 4.6
2 3 22 1 5.7
-2 3 -22 3.5 6.1
-2 3 -22 2.2 5.1
-3 -3 -22 25 11.9
3 -3 22 45.6 11
3 -3 22 58.79 12.4
-3 -3 -22 51.59 11.8
3 -3 22 39.2 13.5
-3 -3 -22 47.9 9.4
-3 3 -22 61.49 11.8
3 3 22 -23 25.2
3 3 22 43.3 9.9
-3 3 -22 47.1 8.8
-4 -3 -22 7.5 8.5
4 -3 22 -7.6 9.7
-4 -3 -22 -0.6 8.4
4 -3 22 6.7 7.9
4 -3 22 -2.5 6.6
-4 -3 -22 12.1 7.2
-4 3 -22 6.1 5.6
-4 3 -22 2.8 7.5
4 3 22 -11.3 25
8 -4 -22 2.1 9.5
-8 -4 22 26.5 7.6
-8 -4 22 10.8 6.8
8 4 -22 13 11.2
-8 4 22 11.1 6.2
-8 4 22 6 5.5
-7 -4 22 21.3 7.5
7 -4 -22 28.9 11.4
-7 -4 22 20.8 7.9
7 4 -22 18.9 10.6
-7 4 22 16.2 6.4
-7 4 22 26.2 8.1
-6 -4 22 -0.7 5.9
-6 -4 22 6 6.6
6 4 -22 11.2 10.6
-6 4 22 1.3 4.6
-6 4 22 6.3 5.1
-5 -4 22 6.1 5.9
-5 -4 22 -0.2 6
-5 4 22 -4.7 4.4
-5 4 22 3.2 4.7
5 4 -22 2.8 9.5
-4 -4 22 62.19 11.1
-4 -4 22 54.29 10.4
-4 4 22 38.8 9.7
-4 4 22 66.09 10.1
4 4 -22 49.4 13
3 -4 -22 17.3 9.9
-3 -4 22 17 7.4
-3 -4 22 21.9 8
-3 4 22 15.8 7.3
-3 4 22 20.2 7.3
3 4 -22 7.5 9.6
-2 -4 22 14 7.5
2 -4 -22 31.3 11
-2 -4 22 7.7 7
-2 4 22 29.7 7.9
-2 4 22 13.8 6.7
2 4 -22 21.6 10.6
-1 -4 22 3.5 6.7
-1 -4 22 10.5 7.6
1 -4 -22 27.3 12.1
-1 4 22 21.6 7
1 4 -22 14.9 9.9
-1 4 22 -0.7 5.6
0 -4 -22 42.8 10.8
0 -4 -22 45.3 13.2
0 -4 22 29.4 9.4
0 -4 -22 38.9 9.5
0 -4 22 54.49 11.1
0 4 22 47.6 9.6
0 4 22 31.8 8.8
0 4 -22 31.1 11.6
-1 -4 -22 0.9 8.8
-1 -4 -22 8.3 6.5
1 -4 22 8 7.6
1 -4 22 0.1 7
-1 -4 -22 6.5 7.4
1 4 22 3 5.7
1 4 22 -19.5 27.3
2 -4 22 36.3 10.3
2 -4 22 71.89 15.1
2 -4 22 61.19 12.8
-2 -4 -22 58.69 12.5
-2 -4 -22 95.99 16.9
-2 -4 -22 61.69 10.7
-2 4 -22 44.1 8.8
2 4 22 58.99 11
-2 4 -22 59.49 11.8
2 4 22 46.9 33.8
-3 -4 -22 66.59 13
3 -4 22 62.79 12.8
-3 -4 -22 27.8 8.8
3 -4 22 48.3 11.2
-3 4 -22 48.6 11.2
3 4 22 45.8 10.5
3 4 22 44.1 31.3
-3 4 -22 50.49 9.9
-6 -5 22 32.8 9.1
-6 -5 22 23.9 8.9
6 5 -22 26.8 11.5
-6 5 22 19.1 6.6
-5 -5 22 64.69 12
-5 -5 22 50.49 10.7
-5 5 22 31.4 8
5 5 -22 21.3 10.9
-5 5 22 49.3 10.6
-4 -5 22 71.19 12.6
-4 -5 22 71.19 12.4
4 -5 -22 87.19 20.3
-4 5 22 70.79 11.7
-4 5 22 82.49 11.7
4 5 -22 59.99 14.7
-3 -5 22 5.5 6.9
-3 -5 22 -8.5 6.2
3 -5 -22 13.2 10.1
-3 5 22 3.1 5.8
3 5 -22 12.2 10.5
-3 5 22 2.6 5
-2 -5 22 72.09 12.5
-2 -5 22 92.09 13.3
2 -5 -22 70.89 15.5
-2 5 22 80.79 12.9
-2 5 22 57.19 10.4
-1 -5 22 -2 6.4
1 -5 -22 -3 8.2
-1 -5 22 -5.3 6.4
-1 5 22 2.1 5.8
-1 5 22 7.2 7
-1 5 22 -43 28.7
0 -5 22 2.2 7.4
0 -5 -22 5.5 9.9
0 -5 22 -0.4 6.8
0 -5 -22 -6.4 7.6
0 5 22 -9.4 5.1
0 5 22 -42 26.3
-10 0 23 0.8 4.8
10 0 -23 8.5 8.7
-10 0 23 6.9 5.4
10 0 -23 5.1 10.7
-9 0 23 2.1 4.8
9 0 -23 -1.9 9.4
-9 0 23 -1.2 4.2
9 0 -23 9.7 9.1
8 0 -23 7.7 9
-8 0 23 1.1 4.7
-8 0 23 0.5 5
8 0 -23 -0.7 9.6
7 0 -23 -2.7 7.7
-7 0 23 -4.4 4.5
7 0 -23 4.4 9.7
-7 0 23 11.4 5.7
-6 0 23 4.8 5.3
-6 0 23 -5 4.3
6 0 -23 -7 7.9
6 0 -23 11.9 10.9
-5 0 23 5.5 5.2
-5 0 23 2.1 4.9
5 0 -23 0.1 8.8
-4 0 23 6.7 5.6
-4 0 23 -2.4 4.5
4 0 -23 5.1 10.2
3 0 -23 -1.2 4.8
-3 0 23 0.9 5.5
-3 0 23 -1.8 5.1
-2 0 23 19.6 6.7
-2 0 23 8.3 5.8
-1 0 23 -2.3 5.6
1 0 -23 -4.6 5.6
-1 0 23 -3 5.3
1 0 -23 3.2 5.6
0 0 -23 1.1 5.4
0 0 23 -3.8 5.8
0 0 -23 -0.9 6.1
0 0 23 -3.4 5.5
-1 0 -23 -0.8 5.3
-1 0 -23 1.8 7.2
1 0 23 -5.6 5.1
1 0 23 -2 4.7
-2 0 -23 -10.4 5.5
-2 0 -23 8 6.4
-2 0 -23 -6.7 5.7
2 0 23 -4.1 5.1
2 0 23 8.9 6.6
-3 0 -23 4.1 6.5
3 0 23 0.4 6.8
-3 0 -23 -5 6.1
3 0 23 -1.9 8.8
-3 0 -23 -8.8 6.3
3 0 23 5.6 5.9
4 0 23 11.9 8
-4 0 -23 1.4 6.6
-4 0 -23 -3.1 4.8
4 0 23 -6.2 8.7
-4 0 -23 12 8.5
-10 -1 23 29.8 7.6
-10 -1 23 27.5 7.5
10 -1 -23 -0.6 9.6
10 -1 -23 20.3 11.3
-10 1 23 31.1 7.5
10 1 -23 13.1 11.7
-10 1 23 21.1 6.9
10 1 -23 11.4 9.9
9 -1 -23 48.2 14.2
-9 -1 23 41 8.8
9 -1 -23 68.49 14.4
-9 -1 23 45.3 8.9
9 1 -23 55.99 12.9
-9 1 23 49.8 9.2
-9 1 23 53.29 9.7
9 1 -23 26.2 12.5
8 -1 -23 31.2 12.5
8 -1 -23 7.7 9.3
-8 -1 23 21 7
-8 -1 23 15.3 6.2
8 1 -23 6.5 9
8 1 -23 39.7 12.8
-8 1 23 6.7 5.6
-8 1 23 31.3 7.4
-7 -1 23 10.2 5.9
7 -1 -23 5.4 9.1
7 -1 -23 7.7 9.9
-7 -1 23 24.1 6.8
-7 1 23 4.2 4.8
7 1 -23 4.6 10.4
-7 1 23 4.5 4.9
7 1 -23 4.6 8.2
-6 -1 23 72.79 10.6
6 -1 -23 54.29 14.1
-6 -1 23 56.49 10.1
-6 1 23 69.49 10.6
6 1 -23 45.8 14
-6 1 23 68.09 9.9
6 1 -23 68.09 12.8
-5 -1 23 36.5 8.5
5 -1 -23 18.6 11.9
-5 -1 23 16.9 7.2
5 1 -23 32.4 10.9
5 1 -23 22.6 11.1
-5 1 23 35.3 8
-5 1 23 36.9 8.2
-4 -1 23 2.7 5.4
-4 -1 23 1.6 5.3
-4 1 23 2 5.1
4 1 -23 5.4 5.3
-4 1 23 10.6 5.7
4 1 -23 -3.2 9.5
-3 -1 23 80.29 11.8
-3 -1 23 78.59 11.9
3 -1 -23 81.29 11.6
-3 1 23 72.39 11.5
3 1 -23 54.99 14.5
3 1 -23 72.69 10.6
-3 1 23 72.19 10.4
-2 -1 23 9.5 6.4
2 -1 -23 -2 6.6
2 -1 -23 -3.6 5
-2 -1 23 3.7 5.8
-2 1 23 2.6 5.4
2 1 -23 -8.6 4.5
-2 1 23 10.6 6.5
1 -1 -23 2.6 7.1
-1 -1 23 1.9 5.3
1 -1 -23 5.3 6.4
-1 -1 23 -3.9 5.2
-1 1 23 1.4 5.1
-1 1 23 -1.3 5.7
1 1 -23 -1.6 4.7
0 -1 23 4.6 6.5
0 -1 23 4.2 6.3
0 -1 -23 10 6.6
0 -1 -23 5.2 7.2
0 1 -23 11.1 6
0 1 23 3 5.5
0 1 -23 2.1 6.4
0 1 23 0.7 5.3
-1 -1 -23 26.8 10.1
1 -1 23 23.8 8.5
1 -1 23 19.6 7.3
-1 -1 -23 25.6 8.2
-1 1 -23 28 8.7
1 1 23 17.2 6.8
1 1 23 31.8 8.9
-1 1 -23 18.6 6.9
2 -1 23 26.1 8.6
-2 -1 -23 16.9 8.9
2 -1 23 24.9 8.7
-2 -1 -23 27 8.9
-2 -1 -23 12.9 6.8
-2 1 -23 26.6 9.5
2 1 23 12.4 7.3
-2 1 -23 20.7 7.4
2 1 23 16.8 7.4
-3 -1 -23 8.3 9.2
3 -1 23 10.1 9.9
-3 -1 -23 25.4 8.9
-3 -1 -23 19.1 7.3
3 -1 23 14 7.7
3 -1 23 15 7.5
-3 1 -23 8.1 6.2
3 1 23 19.7 8.2
-3 1 -23 18.2 8.3
-3 1 -23 22.8 7.9
3 1 23 -0.8 9.4
-4 -1 -23 22.9 8.5
4 -1 23 5.2 9.8
-4 -1 -23 14.8 7.4
-4 -1 -23 22.2 10.1
4 -1 23 21.5 8.5
4 1 23 16.5 8.4
4 1 23 9.2 9.9
-4 1 -23 19 7.8
-4 1 -23 20.5 9.1
-4 1 -23 15.4 8
9 -2 -23 -10.9 7.6
9 -2 -23 -4.1 9.3
-9 -2 23 2.4 5.2
-9 -2 23 0.7 5.3
9 2 -23 3.7 8.8
-9 2 23 -3.6 4.1
-9 2 23 2 5.2
9 2 -23 0.7 10.6
8 -2 -23 2.3 9.6
8 -2 -23 17.1 10.2
-8 -2 23 7.3 5.8
-8 -2 23 3.8 5.3
8 2 -23 6.1 10.9
-8 2 23 18.6 7
8 2 -23 16.7 10.3
-8 2 23 16.8 6.3
-7 -2 23 32.3 8.2
7 -2 -23 36.1 12.7
-7 -2 23 45.7 8.7
7 2 -23 25.5 11.9
7 2 -23 32 10.4
-7 2 23 57.59 9.9
-7 2 23 49.1 9.2
6 -2 -23 15 10.5
-6 -2 23 4.3 5.8
-6 -2 23 4.2 5.3
-6 2 23 1.4 4.4
6 2 -23 -0.5 7.7
-6 2 23 -3.5 4.2
6 2 -23 5.8 10.3
-5 -2 23 18.1 6.6
-5 -2 23 6 6.2
-5 2 23 16 7
5 2 -23 17 11.8
-5 2 23 11.8 6.3
-4 -2 23 55.19 9.6
-4 -2 23 29 8.2
-4 2 23 38.6 9.2
-4 2 23 23.3 7.3
4 2 -23 24.3 7.2
4 2 -23 38.3 13.2
-3 -2 23 7.4 6.3
-3 -2 23 11.6 6.4
3 2 -23 10 6.5
-3 2 23 21.9 7.6
3 2 -23 11.6 10.2
-3 2 23 29.6 8
2 -2 -23 -9.5 6.5
-2 -2 23 -1.3 5.6
2 -2 -23 0.5 5.6
-2 -2 23 -3.8 5.5
2 2 -23 3 9.1
-2 2 23 -2.6 5.1
2 2 -23 -0.6 4.8
-2 2 23 -7.2 4.5
-1 -2 23 19 8
1 -2 -23 14.2 9.1
-1 -2 23 13.2 7
1 -2 -23 13.9 6.2
-1 2 23 17.1 6.7
1 2 -23 15.5 6.5
-1 2 23 24.8 8
0 -2 -23 6.1 8.7
0 -2 23 6.2 6.3
0 -2 23 -3.4 6.1
0 -2 -23 0.4 5.7
0 2 23 -4.4 4.4
0 2 -23 0.7 5.1
0 2 23 6 6.1
1 -2 23 15.7 7.5
-1 -2 -23 26.4 8.9
1 -2 23 24.8 9.1
-1 -2 -23 12.3 10.1
-1 -2 -23 39 9.4
-1 2 -23 26.8 7.8
-1 2 -23 11.5 8.5
1 2 23 18.3 7.5
1 2 23 29 8.8
2 -2 23 2 6.5
-2 -2 -23 17.1 9.4
-2 -2 -23 -3.8 5.1
2 -2 23 -4.5 5.9
-2 -2 -23 15.7 7.7
-2 2 -23 -5.2 7
2 2 23 -5.2 8.7
2 2 23 14.6 7.3
-2 2 -23 9.7 6.9
-3 -2 -23 61.89 14.6
-3 -2 -23 58.79 10.9
3 -2 23 38.3 10.8
-3 -2 -23 47.3 10.8
3 -2 23 46.2 13.4
3 -2 23 45.8 10.7
3 2 23 68.79 12.4
3 2 23 34.1 11.4
-3 2 -23 66.39 11.4
-3 2 -23 60.09 12.7
4 2 23 -45.4 24.2
-8 -3 23 -1.4 5
-8 -3 23 1.7 5.6
8 -3 -23 3.4 9.6
8 -3 -23 -10.5 8.1
-8 3 23 5.5 5.4
8 3 -23 -13.7 9.1
-8 3 23 -0.1 4.9
-7 -3 23 18.1 6.8
-7 -3 23 18.2 6.8
7 -3 -23 -3.6 9.7
-7 3 23 6.1 5.7
7 3 -23 -6.1 9.2
-7 3 23 9.8 6
-6 -3 23 67.29 10.9
6 -3 -23 48.9 13.7
-6 -3 23 57.09 10.7
6 3 -23 72.19 15.8
-6 3 23 53.99 10.2
-6 3 23 63.29 10.2
-5 -3 23 -10.9 4.9
-5 -3 23 3.8 5.8
5 3 -23 -15.5 8.2
-5 3 23 -1.9 4.5
-5 3 23 10.2 6
-4 -3 23 88.49 13
-4 -3 23 80.99 11.9
-4 3 23 71.89 11.7
4 3 -23 96.59 18
-4 3 23 99.99 12.8
-3 -3 23 54.89 10.2
-3 -3 23 44.5 9.9
3 -3 -23 53.79 13.4
-3 3 23 68.19 10.4
-3 3 23 63.69 11.2
3 3 -23 38.2 12.6
-2 -3 23 15.7 7.4
2 -3 -23 14.7 10.1
-2 -3 23 19.6 8
-2 3 23 27.7 7.7
-2 3 23 10.1 6.5
2 3 -23 23.7 8.8
2 3 -23 5.5 9.8
1 -3 -23 -13.4 7.8
-1 -3 23 -2.4 5.5
1 -3 -23 -1 5.4
-1 -3 23 -1.6 5.7
-1 3 23 -3.5 4.7
1 3 -23 6.9 5.3
1 3 -23 -0.1 8.7
-1 3 23 -4 4.6
0 -3 23 21.6 8.3
0 -3 -23 20.8 11.8
0 -3 -23 15.1 7.2
0 -3 23 24.7 8.3
0 3 -23 9.5 10.1
0 3 23 27.3 7.5
0 3 23 26.3 8.4
0 3 -23 26.2 7.3
-1 -3 -23 34.2 9.2
-1 -3 -23 34.9 12.7
-1 -3 -23 45 11.1
1 -3 23 31.9 9.1
1 -3 23 32.3 10.5
1 3 23 40.7 9.8
-1 3 -23 32.2 7.9
1 3 23 26.2 8.3
-2 -3 -23 -2 7.3
-2 -3 -23 -7.1 4.6
2 -3 23 13.3 7.7
2 -3 23 21 9.4
-2 -3 -23 1.4 8.3
-2 3 -23 8.8 7
2 3 23 -49 26.4
2 3 23 4.1 6.1
-2 3 -23 9.2 6.2
3 3 23 29.9 31.3
7 -4 -23 18.5 11.5
-7 -4 23 2.8 6.4
7 4 -23 -2.6 9.5
6 -4 -23 -2.8 9.2
-6 -4 23 5.1 6.1
-6 -4 23 -0.7 6
-6 4 23 15 6.3
-6 4 23 3 5.8
6 4 -23 -7.2 9.3
-5 -4 23 7 5.8
-5 -4 23 -2.7 6
-5 4 23 -3.6 4.3
5 4 -23 -4.3 8.5
-5 4 23 -9.7 3.8
-4 -4 23 23.2 8.6
-4 -4 23 13 7.3
-4 4 23 25 7.9
-4 4 23 13.6 6.8
4 4 -23 16.8 10.9
-3 -4 23 15.6 7.9
3 -4 -23 14.4 9.6
-3 -4 23 18.6 8
-3 4 23 5.3 6.2
3 4 -23 14.8 11.3
-3 4 23 22.6 7.2
-2 -4 23 -3.5 5.8
-2 -4 23 -9.3 5.4
2 -4 -23 9.5 9.3
-2 4 23 1.5 5.5
2 4 -23 1.3 9.3
-2 4 23 -7.1 4.8
-1 -4 23 -1.9 6.9
-1 -4 23 2.5 6.6
1 -4 -23 19 10.4
-1 4 23 9.3 6.3
1 4 -23 14.2 10.5
-1 4 23 10.2 7
0 -4 23 9.2 8.1
0 -4 -23 -2.1 6.9
0 -4 -23 3.4 6.3
0 -4 23 8.5 8.3
0 -4 -23 -4.4 7.8
0 4 -23 -0.6 10
0 4 23 -0.8 5.6
0 4 23 1.3 5.8
1 -4 23 9.1 7.8
-1 -4 -23 -7.5 7.2
-1 -4 -23 -1.3 5.8
1 -4 23 6.6 7.3
1 4 23 -1.1 29.3
9 0 -24 121.29 17.9
-9 0 24 120.89 13.3
-9 0 24 101.89 12.9
9 0 -24 78.69 17.7
8 0 -24 -6 9.4
-8 0 24 5.3 5.5
-8 0 24 6.2 5.4
8 0 -24 2.3 8.9
7 0 -24 -5.2 9.9
-7 0 24 2.8 5.4
-7 0 24 -2.3 5
7 0 -24 -4.9 8.3
6 0 -24 97.39 15.1
6 0 -24 85.29 16.8
-6 0 24 83.69 12
-6 0 24 94.59 12.2
5 0 -24 6.7 9.9
-5 0 24 9.4 5.7
-5 0 24 3.4 5.6
-4 0 24 47 9.5
4 0 -24 47 13.7
-4 0 24 51.19 10
3 0 -24 14 6.3
-3 0 24 9.2 6.1
-3 0 24 1.8 5.8
2 0 -24 20.6 7.4
-2 0 24 21.3 7.4
-2 0 24 16.2 7.3
1 0 -24 0.5 5.7
1 0 -24 16.1 12.4
-1 0 24 0.2 5.5
-1 0 24 -1.6 5.7
0 0 24 32 8.1
0 0 24 39.9 9.8
0 0 -24 66.39 12.4
0 0 -24 19.8 6.8
-1 0 -24 8.6 6
-1 0 -24 9.7 8
1 0 24 7.8 6.7
1 0 24 12 7
-2 0 -24 10.4 8.9
2 0 24 2.3 6.8
-2 0 -24 13 7.1
2 0 24 -3.5 5.9
-3 0 -24 69.39 12
-3 0 -24 37.3 11.4
-3 0 -24 28.5 9
3 0 24 43.5 13.4
3 0 24 44.7 11.5
9 -1 -24 11.6 10.4
-9 -1 24 19.9 7.2
9 -1 -24 14.9 11.9
-9 1 24 23.2 7.2
9 1 -24 20.9 10.6
9 1 -24 24.3 12.7
8 -1 -24 6.7 11
8 -1 -24 -3.9 8.1
-8 -1 24 3 5.4
-8 -1 24 -1.9 4.6
-8 1 24 -9.8 4.3
8 1 -24 15.9 9.4
8 1 -24 15 11.9
-8 1 24 2.2 5.4
7 -1 -24 -1.6 8.9
-7 -1 24 -7.5 4.4
-7 -1 24 -3.1 4.3
7 -1 -24 7.9 10.9
7 1 -24 -2.2 8.4
-7 1 24 -4.1 4.2
7 1 -24 -5.2 9.4
-7 1 24 6.9 5.6
6 -1 -24 -2.8 9.3
-6 -1 24 7.9 6.7
-6 -1 24 18 7.2
6 1 -24 17.4 9.6
-6 1 24 14.7 6.3
6 1 -24 7.8 10.9
-6 1 24 8.3 5.8
5 -1 -24 -5.5 9.7
-5 -1 24 2.6 5.6
-5 -1 24 1.8 5.9
5 1 -24 3.2 8.6
5 1 -24 13.3 10.2
-5 1 24 0.2 4.8
-5 1 24 4.4 5.1
-4 -1 24 88.19 12.9
-4 -1 24 92.69 12.1
-4 1 24 94.09 13.2
4 1 -24 69.19 15.8
-4 1 24 89.99 12.5
4 1 -24 74.59 10.8
3 -1 -24 6.8 5.9
-3 -1 24 6.6 6
-3 -1 24 2 5.5
3 1 -24 -4.2 9.3
-3 1 24 6.2 6.1
3 1 -24 3.6 5.8
-3 1 24 -4.7 4.7
-2 -1 24 36.6 9.2
2 -1 -24 22.6 7.5
-2 -1 24 59.59 10.5
2 1 -24 37.9 8.3
-2 1 24 33 8.2
-2 1 24 57.09 10.9
-1 -1 24 0.4 5.2
1 -1 -24 7 7.9
1 -1 -24 9.6 5.8
-1 -1 24 2.9 5.8
-1 1 24 -1.2 5.1
1 1 -24 7.6 6.6
-1 1 24 4.1 5.5
0 -1 24 55.49 11
0 -1 24 40.4 10.2
0 -1 -24 43.9 11.3
0 -1 -24 26.5 8.2
0 1 -24 35.6 9.3
0 1 24 34.7 9.5
0 1 24 30.3 8.8
0 1 -24 37.8 8.3
1 -1 24 9.4 7.5
-1 -1 -24 18.5 10.6
1 -1 24 9.7 6.7
-1 -1 -24 2.4 5.2
-1 1 -24 15 8.1
1 1 24 3.5 5.9
1 1 24 11.4 6.7
-1 1 -24 13.4 6.6
-2 -1 -24 16 10.4
2 -1 24 15.1 7.7
-2 -1 -24 29.4 9.2
-2 -1 -24 10.8 7.3
2 -1 24 12.8 7.8
2 1 24 30.4 9
-2 1 -24 16 9.1
2 1 24 20.4 7.9
-2 1 -24 17.5 7.7
-8 -2 24 1 5.9
-8 -2 24 2.2 5.5
8 -2 -24 -12.7 8.8
8 -2 -24 2.5 9.2
-8 2 24 -1.4 5.3
8 2 -24 13 9.5
-8 2 24 -0.4 4.7
8 2 -24 1 9.9
-7 -2 24 13.5 7.1
7 -2 -24 5.6 10.3
-7 -2 24 14.2 6.7
-7 2 24 18.5 6.3
7 2 -24 -2.1 10.2
-7 2 24 13.3 6.5
7 2 -24 -4.9 11.6
6 -2 -24 0.5 9.5
-6 -2 24 -0.9 5.2
-6 -2 24 2.2 5.2
6 2 -24 -5.2 10.4
-6 2 24 -0.6 4.8
-6 2 24 -3.7 4.4
-5 -2 24 7.8 6.2
-5 -2 24 0.6 5.8
5 2 -24 5.5 10.3
-5 2 24 7.4 5.5
-5 2 24 8.5 6.2
-4 -2 24 0.5 5.4
-4 -2 24 0.7 5.6
-4 2 24 2.7 5.6
-4 2 24 -5.4 4.4
4 2 -24 1.5 5.3
4 2 -24 -2.7 9.4
-3 -2 24 11.8 7
-3 -2 24 14 7.3
3 2 -24 11.7 10.8
-3 2 24 3.9 5.5
3 2 -24 9.2 6.2
-3 2 24 6.7 5.8
-2 -2 24 -7.9 5
2 -2 -24 0.2 7.7
2 -2 -24 10.3 6.3
-2 -2 24 0.5 6
2 2 -24 -0.3 5.4
-2 2 24 5.3 6
2 2 -24 -22.1 7.5
-2 2 24 7.7 5.9
1 -2 -24 10.5 7
-1 -2 24 3.1 5.7
1 -2 -24 -2.6 7.8
-1 -2 24 0.7 5.9
1 2 -24 3.8 5.7
-1 2 24 -1.4 5.2
-1 2 24 4.2 5.7
0 -2 24 9.1 7.9
0 -2 24 2.3 6.3
0 -2 -24 4.9 9.2
0 -2 -24 18.1 7.2
0 2 24 11.9 7.2
0 2 -24 18 6.9
0 2 24 5.4 6.9
1 -2 24 6.2 6.9
1 -2 24 14.7 7.6
-1 -2 -24 10.6 7.2
-1 -2 -24 15 10.2
1 2 24 7.7 6.9
1 2 24 3.6 6.3
-1 2 -24 4.6 7.7
-1 2 -24 12.4 7
-2 -2 -24 -6 8.1
-2 -2 -24 12.9 8.3
2 -2 24 19.5 9.3
-2 -2 -24 13.9 7.7
2 -2 24 7.4 7.6
-2 2 -24 10.2 6.6
-2 2 -24 14.6 9.6
2 2 24 15.9 7.9
-7 -3 24 67.29 11.1
7 -3 -24 31.3 12.9
7 3 -24 71.79 16.7
-6 -3 24 -1.2 5.4
6 -3 -24 7 10.5
-6 -3 24 2.9 6.6
-6 3 24 -3.3 4.7
-6 3 24 -2.9 4.7
6 3 -24 -5.1 10
-5 -3 24 -3.3 6.4
-5 -3 24 6.5 6.2
-5 3 24 0.3 5
5 3 -24 12 10.2
-5 3 24 0.4 5.1
-4 -3 24 -4 5.6
-4 -3 24 1.9 6.3
-4 3 24 5.2 5.5
-4 3 24 17.4 6.9
4 3 -24 4.4 9.6
-3 -3 24 94.59 13.4
-3 -3 24 103.89 14
-3 3 24 81.59 13
-3 3 24 73.49 11.5
3 3 -24 64.09 15.3
2 -3 -24 12.8 9.3
-2 -3 24 53.09 11.5
-2 -3 24 7.3 6.7
-2 3 24 27 7.8
-2 3 24 18.7 8.2
2 3 -24 23.1 11.9
1 -3 -24 23.2 10.5
-1 -3 24 9 6.9
-1 -3 24 10.5 8.1
1 -3 -24 0.9 6.1
1 3 -24 8.8 5.9
-1 3 24 6.9 6.5
-1 3 24 14.1 6.9
1 3 -24 2.6 9.9
0 -3 24 53.59 11.3
0 -3 -24 47.1 13.2
0 -3 -24 43.5 10.2
0 -3 24 44.3 10.7
0 3 -24 44.8 13.6
0 3 -24 62.59 10.6
0 3 24 34.2 9.5
0 3 24 45.1 10.4
7 0 -25 -11.5 9.2
-7 0 25 3.9 5.6
7 0 -25 9.4 10.5
-7 0 25 -2.3 4.8
-6 0 25 2.5 5.6
6 0 -25 -5.3 10.4
6 0 -25 1 9.7
-6 0 25 4.6 5.6
-5 0 25 -4.6 5.4
-5 0 25 2.2 5.9
5 0 -25 -4.9 9.6
4 0 -25 -0.1 9.5
-4 0 25 -4 5.6
-4 0 25 -7.7 4.3
-3 0 25 0.6 5.6
3 0 -25 -3.5 5
-3 0 25 -3.1 5.2
-2 0 25 -8.2 5.1
-2 0 25 -3.2 5.7
2 0 -25 0.2 5.4
-1 0 25 -3.5 5.3
-1 0 25 -0.7 5.2
1 0 -25 -8.9 5.3
0 0 25 11 6.5
0 0 -25 8.4 8
0 0 -25 2.5 5.3
0 0 25 2.4 6.2
1 0 25 -1.3 6.2
1 0 25 4.2 6.5
-1 0 -25 1.6 6.3
-7 -1 25 3.3 5.9
7 -1 -25 -6.2 9.2
7 -1 -25 -14.4 9.3
-7 -1 25 4.4 6.1
7 1 -25 -7.8 9.4
-7 1 25 -4.8 4.9
7 1 -25 -11.4 7.4
-7 1 25 8.8 6.4
-6 -1 25 9.9 6.2
6 -1 -25 7.4 11.2
-6 -1 25 13.9 6.8
6 1 -25 4.4 8.3
-6 1 25 5.9 6
6 1 -25 7.1 11.2
-6 1 25 5.3 5.8
5 -1 -25 27.6 13.2
-5 -1 25 59.59 11.1
-5 -1 25 46 9.5
-5 1 25 65.69 11.2
-5 1 25 46.9 10
5 1 -25 38.2 14
5 1 -25 64.59 13.2
-4 -1 25 3.1 6
-4 -1 25 9.1 7
4 1 -25 12 11
-4 1 25 2 6.1
-4 1 25 9 5.9
-3 -1 25 16.2 7.4
3 -1 -25 7.3 5.9
-3 -1 25 15.3 7.6
-3 1 25 16.2 7.1
-3 1 25 22.5 7.9
3 1 -25 12.3 11.4
3 1 -25 32 8.4
2 -1 -25 12.8 7
-2 -1 25 13.4 7.2
-2 -1 25 23.9 8.4
2 1 -25 11.2 6.7
-2 1 25 4.5 5.9
-2 1 25 10.5 7.3
1 -1 -25 -3.4 5.2
-1 -1 25 6.9 6.4
-1 -1 25 5.8 6.7
1 -1 -25 9.5 9.6
1 1 -25 0.4 5.5
-1 1 25 6 6.6
-1 1 25 7.9 6.4
0 -1 -25 13.8 7.5
0 -1 -25 -10.7 6.9
0 -1 25 -6.7 5.8
0 -1 25 9.4 7.2
0 1 25 -2.3 5.6
0 1 -25 12.7 7.1
0 1 25 0.5 5.6
-6 -2 25 59.99 11
6 -2 -25 61.69 15.9
-6 2 25 93.29 12.6
6 2 -25 65.39 15.8
5 -2 -25 -7.1 9.8
-5 -2 25 22 7.7
-5 -2 25 24.5 8
5 2 -25 1.8 10.4
-5 2 25 17 7.6
-5 2 25 14.5 6.8
-4 -2 25 17.7 7.7
-4 -2 25 22.3 8
4 2 -25 37.9 9
-4 2 25 36.4 8.9
4 2 -25 27.5 12.6
-4 2 25 12.9 6.5
-3 -2 25 11.2 6.7
-3 -2 25 7.3 6.5
-3 2 25 -1.1 5.4
-3 2 25 4.3 5.6
3 2 -25 -3.8 4.8
3 2 -25 -5.6 9.3
-2 -2 25 11.6 7.2
-2 -2 25 -0.2 5.6
2 -2 -25 6.3 6
-2 2 25 9.9 6.1
2 2 -25 8.5 11.3
2 2 -25 -0.3 5.4
-2 2 25 -1.3 5.3
1 -2 -25 16.4 7.2
-1 -2 25 23.8 8.4
-1 -2 25 6.9 7
1 -2 -25 13.2 9.6
1 2 -25 15.4 6.8
-1 2 25 21.9 8.1
-1 2 25 32.5 8.9
