#------------------------------------------------------------------------------
#$Date: 2017-11-07 02:10:55 +0200 (Tue, 07 Nov 2017) $
#$Revision: 202637 $
#$URL: file:///home/coder/svn-repositories/cod/cif/1/54/78/1547874.cif $
#------------------------------------------------------------------------------
#
# This file is available in the Crystallography Open Database (COD),
# http://www.crystallography.net/
#
# All data on this site have been placed in the public domain by the
# contributors.
#
data_1547874
loop_
_publ_author_name
'Ramesh, Balu'
'Jeganmohan, Masilamani'
_publ_section_title
;
 Ruthenium-Catalyzed Remote C-H Sulfonylation of N-Aryl-2-aminopyridines
 with Aromatic Sulfonyl Chlorides.
;
_journal_issue                   21
_journal_name_full               'Organic letters'
_journal_page_first              6000
_journal_page_last               6003
_journal_paper_doi               10.1021/acs.orglett.7b03051
_journal_volume                  19
_journal_year                    2017
_chemical_formula_sum            'C19 H18 N2 O2 S'
_chemical_formula_weight         338.41
_space_group_crystal_system      monoclinic
_space_group_IT_number           15
_space_group_name_Hall           '-C 2yc'
_space_group_name_H-M_alt        'C 1 2/c 1'
_symmetry_space_group_name_Hall  '-C 2yc'
_symmetry_space_group_name_H-M   'C 1 2/c 1'
_atom_sites_solution_hydrogens   mixed
_audit_creation_method           SHELXL-2014/7
_cell_angle_alpha                90
_cell_angle_beta                 99.0075(15)
_cell_angle_gamma                90
_cell_formula_units_Z            8
_cell_length_a                   14.3000(5)
_cell_length_b                   8.3251(3)
_cell_length_c                   29.9248(10)
_cell_measurement_reflns_used    2828
_cell_measurement_temperature    296(2)
_cell_measurement_theta_max      23.96
_cell_measurement_theta_min      2.84
_cell_volume                     3518.6(2)
_computing_cell_refinement       'Bruker SAINT'
_computing_data_collection       'Bruker APEX2'
_computing_data_reduction        'Bruker SAINT'
_computing_molecular_graphics    'Bruker SHELXTL'
_computing_publication_material  'Bruker SHELXTL'
_computing_structure_refinement  'SHELXL-2014/7 (Sheldrick, 2014)'
_computing_structure_solution    'SHELXS-97 (Sheldrick 2008)'
_diffrn_ambient_temperature      296(2)
_diffrn_measured_fraction_theta_full 0.999
_diffrn_measured_fraction_theta_max 0.999
_diffrn_measurement_device_type  'Bruker APEX-II CCD'
_diffrn_measurement_method       '\f and \w scans'
_diffrn_radiation_type           MoK\a
_diffrn_radiation_wavelength     0.71073
_diffrn_reflns_av_R_equivalents  0.0313
_diffrn_reflns_av_unetI/netI     0.0339
_diffrn_reflns_Laue_measured_fraction_full 0.999
_diffrn_reflns_Laue_measured_fraction_max 0.999
_diffrn_reflns_limit_h_max       16
_diffrn_reflns_limit_h_min       -14
_diffrn_reflns_limit_k_max       9
_diffrn_reflns_limit_k_min       -8
_diffrn_reflns_limit_l_max       35
_diffrn_reflns_limit_l_min       -32
_diffrn_reflns_number            10770
_diffrn_reflns_point_group_measured_fraction_full 0.999
_diffrn_reflns_point_group_measured_fraction_max 0.999
_diffrn_reflns_theta_full        25.000
_diffrn_reflns_theta_max         25.000
_diffrn_reflns_theta_min         1.378
_exptl_absorpt_coefficient_mu    0.197
_exptl_absorpt_correction_type   none
_exptl_crystal_colour            colourless
_exptl_crystal_density_diffrn    1.278
_exptl_crystal_description       Block
_exptl_crystal_F_000             1424
_exptl_crystal_size_max          0.250
_exptl_crystal_size_mid          0.220
_exptl_crystal_size_min          0.100
_refine_diff_density_max         0.213
_refine_diff_density_min         -0.266
_refine_diff_density_rms         0.039
_refine_ls_extinction_method     none
_refine_ls_goodness_of_fit_ref   1.031
_refine_ls_hydrogen_treatment    mixed
_refine_ls_matrix_type           full
_refine_ls_number_parameters     223
_refine_ls_number_reflns         3082
_refine_ls_number_restraints     0
_refine_ls_restrained_S_all      1.031
_refine_ls_R_factor_all          0.0728
_refine_ls_R_factor_gt           0.0464
_refine_ls_shift/su_max          0.008
_refine_ls_shift/su_mean         0.000
_refine_ls_structure_factor_coef Fsqd
_refine_ls_weighting_details
'w=1/[\s^2^(Fo^2^)+(0.0457P)^2^+2.5887P] where P=(Fo^2^+2Fc^2^)/3'
_refine_ls_weighting_scheme      calc
_refine_ls_wR_factor_gt          0.1029
_refine_ls_wR_factor_ref         0.1175
_reflns_Friedel_coverage         0.000
_reflns_number_gt                2141
_reflns_number_total             3082
_reflns_threshold_expression     'I > 2\s(I)'
_cod_data_source_file            ol7b03051_si_002.cif
_cod_data_source_block           129
_cod_database_code               1547874
_shelx_shelxl_version_number     2014/7
_shelx_space_group_comment
; 
The symmetry employed for this shelxl refinement is uniquely defined 
by the following loop, which should always be used as a source of 
symmetry information in preference to the above space-group names. 
They are only intended as comments. 
;
_shelx_estimated_absorpt_t_min   0.952
_shelx_estimated_absorpt_t_max   0.981
_shelx_res_file
; 
  
    129.res created by SHELXL-2014/7 
  
TITL 129 in C2/c 
CELL 0.71073  14.30000   8.32510  29.92480  90.0000  99.0075  90.0000 
ZERR 8 0.00050 0.00030 0.00100 0.0000 0.0015 0.0000 
LATT 7 
SYMM -X, Y, 0.5-Z 
SFAC C  H  N  O  S 
UNIT 152  144  16  16  8 
OMIT -3 50 
L.S. 8 
ACTA 
BOND $H 
FMAP 2 
PLAN 5 
SIZE 0.100 0.220 0.250 
CONF 
TEMP 23.000 
WGHT    0.045700    2.588700 
FVAR       0.07921 
MOLE 1 
C1    1    0.264423    0.164574    0.333174    11.00000    0.06169    0.05760 = 
         0.05079   -0.00696    0.01075    0.00494 
AFIX  43 
H1    2    0.233990    0.236290    0.349909    11.00000   -1.20000 
AFIX   0 
C2    1    0.361681    0.157698    0.339523    11.00000    0.06366    0.05949 = 
         0.05820   -0.00431    0.00475   -0.01133 
AFIX  43 
H2    2    0.396061    0.223657    0.361221    11.00000   -1.20000 
AFIX   0 
C3    1    0.409474    0.056721    0.314880    11.00000    0.04974    0.07777 = 
         0.06400    0.00451    0.00879    0.00138 
C4    1    0.356106   -0.039431    0.282834    11.00000    0.06609    0.07705 = 
         0.06373   -0.00740    0.02057    0.01374 
AFIX  43 
H4    2    0.386786   -0.107004    0.265060    11.00000   -1.20000 
AFIX   0 
C5    1    0.258790   -0.037485    0.276630    11.00000    0.05947    0.06708 = 
         0.04885   -0.01015    0.00936    0.00267 
AFIX  43 
H5    2    0.224430   -0.105138    0.255388    11.00000   -1.20000 
AFIX   0 
C6    1    0.212109    0.065011    0.301969    11.00000    0.04822    0.05935 = 
         0.03793    0.00247    0.00683    0.00642 
C7    1    0.050981    0.066724    0.323353    11.00000    0.04903    0.06152 = 
         0.03736   -0.00167    0.00578    0.00670 
C8    1   -0.104702    0.087407    0.333090    11.00000    0.04726    0.06799 = 
         0.04154    0.00108    0.00375    0.00361 
AFIX  43 
H8    2   -0.167830    0.103294    0.320714    11.00000   -1.20000 
AFIX   0 
C9    1   -0.082783    0.064986    0.379004    11.00000    0.05020    0.04700 = 
         0.03743   -0.00193    0.00718   -0.00043 
C10   1    0.011188    0.038845    0.397296    11.00000    0.06394    0.06486 = 
         0.03215    0.00339    0.00458    0.00194 
AFIX  43 
H10   2    0.028046    0.020964    0.428184    11.00000   -1.20000 
AFIX   0 
C11   1    0.078765    0.039452    0.369837    11.00000    0.04771    0.07795 = 
         0.03894    0.00324    0.00220    0.00963 
AFIX  43 
H11   2    0.142058    0.022136    0.381662    11.00000   -1.20000 
AFIX   0 
C12   1   -0.154383    0.224309    0.448272    11.00000    0.04304    0.04227 = 
         0.04140    0.00303    0.01190   -0.00184 
C13   1   -0.128243    0.205569    0.494260    11.00000    0.07295    0.05206 = 
         0.04157    0.00880    0.00759    0.00016 
AFIX  43 
H13   2   -0.119627    0.103393    0.506791    11.00000   -1.20000 
AFIX   0 
C14   1   -0.114988    0.339456    0.521502    11.00000    0.07622    0.07432 = 
         0.03959   -0.00492    0.00932   -0.00775 
AFIX  43 
H14   2   -0.097176    0.326343    0.552530    11.00000   -1.20000 
AFIX   0 
C15   1   -0.127424    0.492378    0.503993    11.00000    0.04977    0.05939 = 
         0.06361   -0.01397    0.02557   -0.01187 
C16   1   -0.154362    0.508060    0.457727    11.00000    0.07483    0.04537 = 
         0.06400    0.00437    0.02137    0.00083 
AFIX  43 
H16   2   -0.163743    0.610096    0.445175    11.00000   -1.20000 
AFIX   0 
C17   1   -0.167522    0.375827    0.429971    11.00000    0.06287    0.05585 = 
         0.04318    0.00337    0.00919    0.00067 
AFIX  43 
H17   2   -0.185246    0.388674    0.398928    11.00000   -1.20000 
AFIX   0 
C18   1    0.516668    0.052867    0.322380    11.00000    0.05691    0.15573 = 
         0.11812   -0.01802    0.01361    0.00356 
AFIX 137 
H18A  2    0.537991   -0.056534    0.325224    11.00000   -1.50000 
H18B  2    0.540604    0.110551    0.349548    11.00000   -1.50000 
H18C  2    0.539360    0.102140    0.297124    11.00000   -1.50000 
AFIX   0 
C19   1   -0.112041    0.637651    0.534222    11.00000    0.08397    0.07503 = 
         0.08996   -0.03506    0.03729   -0.02294 
AFIX 137 
H19A  2   -0.157990    0.718446    0.523462    11.00000   -1.50000 
H19B  2   -0.049535    0.679291    0.533935    11.00000   -1.50000 
H19C  2   -0.118791    0.607839    0.564542    11.00000   -1.50000 
AFIX   0 
N1    3    0.112097    0.070798    0.292959    11.00000    0.04738    0.10311 = 
         0.03429   -0.00272    0.00542    0.00862 
N2    3   -0.040452    0.087627    0.305339    11.00000    0.04742    0.08165 = 
         0.03540    0.00019    0.00573    0.00684 
O1    4   -0.261210    0.072125    0.383280    11.00000    0.04926    0.10637 = 
         0.06182   -0.01977    0.00771   -0.01870 
O2    4   -0.156026   -0.083968    0.440845    11.00000    0.11734    0.04436 = 
         0.07330    0.00588    0.04310   -0.00924 
S1    5   -0.172515    0.055788    0.412731    11.00000    0.05870    0.05292 = 
         0.04850   -0.00464    0.01729   -0.01027 
H1N   2    0.085035    0.075733    0.262829    11.00000    0.06888 
HKLF 4 
  
REM  129 in C2/c 
REM R1 =  0.0464 for    2141 Fo > 4sig(Fo)  and  0.0728 for all    3082 data 
REM    223 parameters refined using      0 restraints 
  
END 
  
WGHT      0.0458      2.5893 
  
REM Highest difference peak  0.213,  deepest hole -0.266,  1-sigma level  0.039 
Q1    1  -0.1667  0.6586  0.5512  11.00000  0.05    0.21 
Q2    1  -0.0553  0.5942  0.5617  11.00000  0.05    0.19 
Q3    1  -0.0841  0.7221  0.5166  11.00000  0.05    0.16 
Q4    1   0.5425 -0.0256  0.2988  11.00000  0.05    0.15 
Q5    1   0.5223 -0.0790  0.3606  11.00000  0.05    0.15 
;
_shelx_res_checksum              74706
_shelx_hkl_file
; 
   2   0   0   32.01    0.67 
   2   0   0   30.17    0.61 
  -2   0   0   31.93    0.61 
   2   0   0   31.60    0.62 
  -2   0   0   32.03    0.61 
  -4   0   0  324.50    5.39 
   4   0   0  328.20    5.42 
   4   0   0  314.04    5.54 
   4   0   0  319.17    5.42 
   6   0   0    2.23    0.26 
  -6   0   0    3.02    0.19 
   6   0   0    2.89    0.22 
   8   0   0   32.28    1.05 
   8   0   0   32.20    0.90 
   8   0   0   32.17    0.90 
  10   0   0   10.24    0.53 
  10   0   0    9.79    0.51 
  10   0   0    9.92    0.61 
  12   0   0    7.16    0.50 
  12   0   0    6.50    0.46 
  14   0   0    2.81    0.42 
  16   0   0    0.26    0.19 
   1  -1   0   81.81    1.47 
  -1  -1   0   82.95    1.47 
   1   1   0   82.52    1.47 
  -1   1   0   77.67    1.46 
  -3  -1   0    3.19    0.17 
   3  -1   0    2.77    0.18 
  -3   1   0    3.00    0.21 
   3   1   0    2.66    0.16 
   5  -1   0    5.33    0.33 
   5  -1   0    5.69    0.28 
  -5  -1   0    5.86    0.25 
  -5   1   0    5.72    0.26 
   5   1   0    5.37    0.28 
   5   1   0    5.35    0.27 
  -5   1   0    5.84    0.35 
   7  -1   0   15.82    0.57 
   7  -1   0   15.45    0.55 
   7  -1   0   16.10    0.67 
  -7  -1   0   16.24    0.49 
   7   1   0   16.57    0.59 
   7   1   0   16.82    0.57 
  -7   1   0   16.45    0.67 
  -7   1   0   16.17    0.51 
   9  -1   0   19.00    0.82 
   9  -1   0   19.88    0.72 
   9  -1   0   20.32    0.72 
  -9   1   0   19.52    0.60 
   9   1   0   20.16    0.72 
   9   1   0   20.54    0.85 
   9   1   0   19.40    0.72 
  11  -1   0   12.51    0.63 
  11  -1   0   12.78    0.76 
  11  -1   0   12.31    0.62 
 -11   1   0   12.42    0.46 
  11   1   0   11.94    0.61 
  11   1   0   12.65    0.73 
  11   1   0   11.55    0.61 
  13  -1   0    1.72    0.31 
  13  -1   0    1.47    0.29 
  13   1   0    1.46    0.30 
  13   1   0    1.16    0.27 
  15  -1   0    0.28    0.20 
  15   1   0    0.45    0.22 
  17  -1   0    0.56    0.26 
  17   1   0    0.04    0.20 
   0  -2   0  981.62   16.50 
   0   2   0 1000.00   17.27 
  -2  -2   0    3.11    0.21 
   2  -2   0    3.15    0.21 
   2   2   0    3.28    0.22 
  -2   2   0    3.29    0.22 
   4  -2   0    0.00    0.07 
  -4  -2   0    0.06    0.07 
  -4   2   0    0.00    0.09 
   4   2   0   -0.08    0.05 
  -6  -2   0    0.61    0.12 
   6  -2   0    0.35    0.13 
  -6   2   0    0.67    0.13 
   6   2   0    0.67    0.15 
  -6   2   0    0.57    0.17 
   6   2   0    0.66    0.15 
   8  -2   0    0.87    0.19 
  -8  -2   0    0.67    0.14 
   8   2   0    1.04    0.20 
  -8   2   0    0.54    0.19 
   8   2   0    0.64    0.15 
  -8   2   0    0.84    0.16 
  10  -2   0    0.12    0.13 
  10  -2   0    0.07    0.12 
 -10   2   0    0.08    0.10 
  10   2   0    0.25    0.15 
  10   2   0    0.19    0.13 
 -10   2   0    0.12    0.15 
  12  -2   0    5.68    0.46 
  12  -2   0    5.57    0.52 
  12   2   0    5.41    0.52 
  12   2   0    5.77    0.47 
 -12   2   0    5.16    0.33 
  14  -2   0    0.44    0.21 
  14   2   0    0.98    0.26 
  16  -2   0   -0.03    0.17 
  16   2   0    0.22    0.21 
   1  -3   0   27.03    0.79 
  -1  -3   0   27.52    0.78 
  -1   3   0   26.10    0.79 
   1   3   0   28.08    0.81 
   3  -3   0    2.59    0.28 
  -3  -3   0    1.90    0.22 
   3   3   0    1.78    0.22 
  -3   3   0    1.73    0.22 
  -5  -3   0    1.10    0.18 
   5  -3   0    1.26    0.21 
   5   3   0    0.91    0.18 
  -5   3   0    0.99    0.18 
  -7  -3   0    4.68    0.31 
   7  -3   0    4.19    0.34 
  -7   3   0    4.02    0.44 
   7   3   0    4.38    0.34 
   7   3   0    4.53    0.34 
   9  -3   0    0.26    0.16 
  -9   3   0    0.26    0.14 
  -9   3   0    0.11    0.15 
   9   3   0    0.04    0.13 
   9   3   0    0.15    0.13 
  11  -3   0    2.48    0.35 
  11  -3   0    2.77    0.38 
  11   3   0    2.48    0.37 
  11   3   0    2.59    0.36 
 -11   3   0    2.64    0.29 
 -11   3   0    2.68    0.43 
  13  -3   0    0.05    0.17 
  13   3   0    0.21    0.18 
  15  -3   0    0.33    0.22 
  15   3   0    0.11    0.19 
   0  -4   0    1.52    0.24 
   0   4   0    1.41    0.25 
   2  -4   0    0.04    0.11 
  -2  -4   0    0.20    0.13 
   2   4   0    0.16    0.14 
  -2   4   0    0.27    0.13 
   4  -4   0   -0.02    0.09 
  -4  -4   0    0.00    0.08 
  -4   4   0    0.06    0.10 
   4   4   0    0.01    0.10 
   6  -4   0    3.50    0.37 
   6   4   0    3.74    0.39 
  -6   4   0    3.48    0.36 
   8  -4   0    0.26    0.16 
   8   4   0    0.29    0.15 
  -8   4   0   -0.07    0.06 
  -8   4   0    0.37    0.22 
   8   4   0    0.26    0.17 
  10  -4   0    1.41    0.31 
 -10   4   0    1.18    0.25 
  10   4   0    1.24    0.29 
  10   4   0    1.06    0.27 
 -10   4   0    1.75    0.37 
  12  -4   0    0.51    0.21 
  12   4   0    1.26    0.29 
 -12   4   0    0.63    0.27 
  14  -4   0    1.45    0.33 
 -14   4   0    0.88    0.34 
  14   4   0    1.03    0.28 
  16  -4   0    0.33    0.22 
  16   4   0   -0.07    0.18 
  -1  -5   0   12.90    0.64 
   1  -5   0   13.31    0.65 
   1   5   0   12.68    0.66 
  -1   5   0   13.38    0.68 
   3  -5   0    5.51    0.42 
  -3  -5   0    6.15    0.44 
  -3   5   0    5.49    0.45 
   3   5   0    5.58    0.45 
   5  -5   0    0.67    0.21 
  -5   5   0    0.68    0.21 
   5   5   0    0.40    0.18 
   7  -5   0   -0.01    0.14 
  -7   5   0   -0.08    0.11 
   7   5   0    0.09    0.13 
   9  -5   0   -0.19    0.16 
  -9   5   0   -0.01    0.10 
   9   5   0    0.07    0.15 
   9   5   0   -0.12    0.17 
  -9   5   0    0.14    0.21 
  11   5   0    0.30    0.19 
 -11   5   0   -0.18    0.18 
  13  -5   0    0.55    0.24 
 -13   5   0    0.74    0.35 
  13   5   0    0.42    0.22 
  15  -5   0   -0.16    0.14 
 -15   5   0   -0.05    0.24 
  15   5   0    0.10    0.19 
   0  -6   0   18.79    0.84 
   0   6   0   16.92    0.84 
   2  -6   0   -0.12    0.13 
  -2   6   0    0.19    0.18 
   2   6   0   -0.09    0.16 
   4  -6   0    0.02    0.17 
   4   6   0    0.10    0.16 
  -4   6   0    0.30    0.20 
   6  -6   0    0.10    0.15 
   6   6   0   -0.03    0.16 
  -6   6   0    0.22    0.19 
   8  -6   0    7.36    0.59 
   8   6   0    7.29    0.60 
  -8   6   0    6.62    0.73 
  -8   6   0    6.97    0.54 
  10   6   0    0.44    0.22 
 -10   6   0    0.25    0.28 
 -12   6   0    0.03    0.24 
  12   6   0    0.46    0.27 
  14  -6   0    0.62    0.31 
 -14   6   0    0.99    0.41 
  14   6   0    0.82    0.32 
   1   7   0   27.64    1.18 
  -1   7   0   25.95    1.15 
   3   7   0   25.82    1.17 
  -3   7   0   27.01    1.18 
   5  -7   0   -0.21    0.19 
   5   7   0    0.31    0.21 
  -5   7   0   -0.27    0.14 
   7  -7   0    2.10    0.44 
   7   7   0    2.39    0.44 
  -7   7   0    1.67    0.36 
   9   7   0    0.92    0.32 
  -9   7   0    1.21    0.42 
 -11   7   0   -0.20    0.23 
  11   7   0    0.01    0.22 
   0   8   0   12.46    0.85 
  -2   8   0    0.16    0.23 
   2   8   0   -0.15    0.18 
  -4   8   0   -0.21    0.16 
   4   8   0    0.23    0.22 
   6   8   0   -0.19    0.17 
  -6   8   0   -0.16    0.17 
   8   8   0    0.92    0.34 
 -10   8   0    0.46    0.34 
  10   8   0    0.22    0.24 
   1   9   0    0.20    0.27 
  -1   9   0    0.53    0.30 
   3   9   0    0.84    0.35 
  -3   9   0    1.81    0.44 
   5   9   0   -0.06    0.26 
   7   9   0    0.28    0.26 
   0  10   0    0.72    0.40 
   2  10   0    0.19    0.31 
  16   0  -1    0.00    0.18 
  14   0  -1    0.03    0.16 
  12   0  -1    0.12    0.14 
  12   0  -1    0.18    0.16 
  12   0  -1    0.13    0.18 
  10   0  -1    0.20    0.16 
  10   0  -1   -0.01    0.11 
  10   0  -1    0.06    0.13 
   8   0  -1   -0.15    0.09 
   8   0  -1    0.02    0.10 
  -8   0   1    0.11    0.08 
   8   0  -1    0.16    0.11 
   6   0  -1   -0.04    0.08 
   6   0  -1    0.13    0.09 
   6   0  -1    0.07    0.07 
  -6   0   1    0.02    0.06 
  -4   0   1   -0.02    0.06 
   4   0  -1    0.16    0.09 
  -4   0   1    0.07    0.06 
   4   0  -1    0.02    0.07 
   2   0  -1    0.00    0.09 
   2   0  -1   -0.48    0.08 
   2   0   1   -0.05    0.04 
   2   0   1    0.03    0.03 
   4   0   1    0.14    0.09 
  -4   0  -1    0.05    0.05 
   4   0   1    0.01    0.06 
   4   0   1    0.02    0.05 
   6   0   1    0.26    0.13 
   6   0   1   -0.05    0.08 
   6   0   1    0.06    0.07 
   8   0   1    0.04    0.08 
   8   0   1    0.08    0.12 
   8   0   1    0.10    0.09 
  10   0   1    0.05    0.13 
  10   0   1    0.01    0.10 
  10   0   1   -0.05    0.15 
  12   0   1    0.01    0.12 
  12   0   1    0.11    0.13 
  14   0   1   -0.11    0.11 
  16   0   1    0.18    0.18 
  17  -1  -1    0.14    0.22 
  17   1  -1    0.02    0.22 
  15  -1  -1    0.02    0.16 
  15   1  -1   -0.11    0.15 
  13  -1  -1    3.59    0.44 
  13  -1  -1    2.84    0.39 
  13   1  -1    3.01    0.42 
  13   1  -1    2.40    0.36 
  11  -1  -1    2.05    0.30 
  11  -1  -1    2.28    0.32 
  11  -1  -1    2.46    0.37 
 -11   1   1    3.03    0.29 
  11   1  -1    1.74    0.33 
  11   1  -1    1.66    0.28 
  11   1  -1    2.43    0.34 
   9  -1  -1    3.83    0.36 
  -9  -1   1    3.67    0.25 
   9  -1  -1    4.04    0.43 
   9  -1  -1    3.86    0.37 
   9   1  -1    3.67    0.40 
  -9   1   1    3.74    0.27 
   9   1  -1    3.71    0.35 
   9   1  -1    2.96    0.31 
   7  -1  -1    3.14    0.33 
   7  -1  -1    3.64    0.27 
   7  -1  -1    3.57    0.28 
  -7  -1   1    3.55    0.23 
  -7   1   1    3.67    0.25 
   7   1  -1    3.04    0.29 
   7   1  -1    3.24    0.30 
  -7   1   1    3.01    0.32 
   5  -1  -1    8.80    0.35 
   5  -1  -1    8.60    0.41 
   5  -1  -1    8.63    0.36 
  -5  -1   1    8.23    0.32 
   5   1  -1    8.51    0.36 
   5   1  -1    8.78    0.37 
  -5   1   1    8.69    0.41 
  -3  -1   1   10.84    0.34 
   3  -1  -1   10.38    0.35 
   3   1  -1    9.86    0.35 
  -3   1   1   10.28    0.37 
   3   1  -1   10.29    0.34 
   1  -1  -1    0.08    0.05 
  -1  -1   1    0.08    0.05 
  -1   1   1    0.01    0.04 
   1   1  -1    0.03    0.03 
   1  -1   1  134.76    2.34 
  -1  -1  -1  134.07    2.33 
   1   1   1  137.72    2.34 
   3  -1   1    0.17    0.10 
   3  -1   1   -0.17    0.05 
  -3  -1  -1   -0.01    0.04 
  -3   1  -1   -0.02    0.05 
  -3   1  -1   -0.07    0.08 
   3   1   1   -0.03    0.05 
   5  -1   1   18.32    0.65 
   5  -1   1   18.43    0.53 
  -5  -1  -1   17.72    0.46 
   5   1   1   17.45    0.53 
  -5   1  -1   17.99    0.48 
  -5   1  -1   17.60    0.63 
   5   1   1   17.45    0.51 
  -7  -1  -1    0.42    0.09 
   7  -1   1    0.52    0.16 
   7  -1   1    0.64    0.13 
   7  -1   1    0.54    0.13 
  -7   1  -1    0.58    0.11 
   7   1   1    0.67    0.14 
   7   1   1    0.61    0.13 
  -7   1  -1    0.56    0.17 
   9  -1   1    0.86    0.19 
   9  -1   1    1.38    0.21 
   9  -1   1    1.18    0.27 
  -9   1  -1    1.21    0.15 
   9   1   1    0.82    0.16 
   9   1   1    1.24    0.22 
   9   1   1    0.96    0.25 
  11  -1   1   -0.08    0.10 
  11  -1   1   -0.14    0.16 
  11  -1   1    0.14    0.14 
  11   1   1   -0.10    0.12 
  11   1   1    0.03    0.12 
  11   1   1    0.16    0.18 
  13  -1   1   -0.04    0.13 
  13  -1   1    0.12    0.16 
  13   1   1   -0.12    0.12 
  13   1   1   -0.12    0.11 
  15  -1   1   -0.14    0.17 
  15   1   1    0.32    0.20 
  17  -1   1   -0.07    0.21 
  17   1   1    0.01    0.20 
  16  -2  -1   -0.07    0.18 
  16   2  -1    0.05    0.19 
  14  -2  -1    0.70    0.24 
  14   2  -1    0.43    0.23 
  12  -2  -1    0.98    0.26 
  12  -2  -1    1.28    0.28 
  12   2  -1    0.72    0.23 
  12   2  -1    0.69    0.22 
 -12   2   1    0.81    0.19 
  10  -2  -1    3.16    0.35 
  10  -2  -1    4.12    0.43 
 -10   2   1    3.79    0.30 
  10   2  -1    4.35    0.42 
  10   2  -1    3.81    0.40 
 -10   2   1    4.05    0.47 
   8  -2  -1   -0.02    0.08 
  -8  -2   1   -0.01    0.07 
   8  -2  -1   -0.06    0.10 
   8   2  -1   -0.10    0.07 
  -8   2   1    0.02    0.08 
  -8   2   1    0.06    0.12 
   8   2  -1    0.11    0.12 
  -6  -2   1    4.69    0.29 
   6  -2  -1    5.01    0.33 
  -6   2   1    5.09    0.36 
   6   2  -1    4.75    0.31 
   6   2  -1    5.21    0.32 
  -4  -2   1    0.05    0.06 
   4  -2  -1   -0.02    0.07 
   4   2  -1    0.06    0.07 
  -4   2   1   -0.05    0.06 
  -2  -2   1    0.39    0.11 
   2  -2  -1    0.54    0.12 
  -2   2   1    0.49    0.12 
   2   2  -1    0.29    0.10 
   0  -2  -1  474.06    7.90 
   0  -2   1  460.52    7.90 
   0   2   1  475.51    7.91 
   2  -2   1   54.03    1.14 
  -2  -2  -1   52.12    1.12 
  -2   2  -1   53.57    1.13 
   2   2   1   50.71    1.12 
  -4  -2  -1    1.33    0.15 
   4  -2   1    1.15    0.17 
  -4   2  -1    1.08    0.20 
   4   2   1    1.35    0.16 
  -6  -2  -1   29.12    0.75 
   6  -2   1   30.00    0.83 
   6   2   1   28.53    0.80 
  -6   2  -1   28.11    0.75 
  -6   2  -1   28.07    0.95 
  -8  -2  -1    0.12    0.08 
   8  -2   1   -0.02    0.10 
   8   2   1    0.10    0.09 
  -8   2  -1    0.01    0.12 
  -8   2  -1    0.19    0.09 
   8   2   1    0.01    0.09 
  10  -2   1    0.57    0.18 
  10  -2   1    0.13    0.12 
 -10   2  -1    0.56    0.23 
  10   2   1    0.16    0.14 
  10   2   1    0.41    0.17 
 -10   2  -1    0.21    0.11 
  12  -2   1    0.61    0.21 
  12  -2   1    0.47    0.19 
 -12   2  -1    0.55    0.13 
  12   2   1    0.21    0.18 
  12   2   1    0.59    0.21 
  14  -2   1    0.83    0.25 
  14   2   1    0.71    0.24 
  16  -2   1    0.40    0.25 
  16   2   1    0.25    0.20 
  15  -3  -1    0.37    0.22 
  15   3  -1    0.47    0.25 
  13  -3  -1    8.34    0.60 
  13   3  -1    9.07    0.65 
  11  -3  -1    0.87    0.24 
  11  -3  -1    1.78    0.34 
 -11   3   1    1.67    0.35 
 -11   3   1    1.13    0.22 
  11   3  -1    1.26    0.29 
  11   3  -1    1.31    0.28 
   9  -3  -1    0.02    0.12 
  -9   3   1    0.25    0.16 
   9   3  -1   -0.07    0.10 
   9   3  -1    0.08    0.13 
  -9   3   1    0.00    0.10 
  -7  -3   1    9.15    0.45 
   7  -3  -1    9.48    0.50 
  -7   3   1    9.58    0.56 
  -7   3   1    7.48    0.42 
   7   3  -1    9.63    0.51 
   7   3  -1    8.86    0.48 
   5  -3  -1    7.86    0.43 
  -5  -3   1    7.64    0.40 
  -5   3   1    7.36    0.41 
   5   3  -1    7.16    0.42 
   3  -3  -1    1.76    0.22 
  -3  -3   1    1.55    0.20 
  -3   3   1    2.06    0.24 
   3   3  -1    1.62    0.22 
  -1  -3   1   57.29    1.32 
   1  -3  -1   57.09    1.31 
   1   3  -1   57.29    1.33 
  -1   3   1   57.54    1.33 
  -1  -3  -1  133.03    2.59 
   1  -3   1  138.18    2.61 
  -1   3  -1  134.78    2.62 
   1   3   1  133.76    2.63 
  -3  -3  -1   50.09    1.20 
   3  -3   1   50.74    1.21 
  -3   3  -1   48.86    1.20 
   3   3   1   50.05    1.22 
   5  -3   1    0.71    0.17 
  -5  -3  -1    0.54    0.13 
   5   3   1    0.48    0.15 
  -5   3  -1    0.52    0.19 
  -5   3  -1    0.46    0.13 
  -7  -3  -1   -0.07    0.06 
   7  -3   1   -0.01    0.10 
   7   3   1   -0.03    0.07 
  -7   3  -1    0.11    0.09 
  -7   3  -1    0.03    0.13 
   9  -3   1    4.46    0.44 
   9   3   1    4.82    0.38 
  -9   3  -1    4.64    0.53 
  -9   3  -1    4.02    0.31 
   9   3   1    4.76    0.45 
  11  -3   1    0.26    0.17 
  11  -3   1    0.36    0.18 
 -11   3  -1    0.24    0.12 
 -11   3  -1    0.22    0.23 
  11   3   1    0.28    0.18 
  11   3   1    0.11    0.15 
  13  -3   1    0.17    0.19 
  13   3   1    0.45    0.23 
  15  -3   1    2.73    0.42 
  15   3   1    2.36    0.44 
  16  -4  -1    0.14    0.19 
  16   4  -1    0.26    0.19 
  14  -4  -1    1.43    0.33 
  14   4  -1    1.53    0.37 
 -14   4   1    1.10    0.37 
  12  -4  -1    1.66    0.32 
 -12   4   1    1.25    0.35 
  12   4  -1    1.33    0.32 
  10  -4  -1   26.86    1.06 
 -10   4   1   27.03    0.95 
 -10   4   1   27.30    1.17 
  10   4  -1   27.84    1.06 
  10   4  -1   27.92    1.09 
   8  -4  -1    5.11    0.49 
  -8   4   1    4.82    0.51 
  -8   4   1    6.24    0.42 
   8   4  -1    4.25    0.43 
   8   4  -1    4.96    0.47 
  -6  -4   1    4.33    0.46 
   6  -4  -1    4.21    0.41 
  -6   4   1    4.41    0.41 
  -4  -4   1   -0.02    0.09 
   4  -4  -1    0.11    0.13 
   4   4  -1    0.08    0.10 
  -4   4   1    0.20    0.12 
  -2  -4   1   25.16    0.85 
   2  -4  -1   26.65    0.87 
   2   4  -1   26.53    0.88 
  -2   4   1   26.44    0.89 
   0  -4   1   90.37    1.98 
   0  -4  -1   87.26    1.97 
   0   4  -1   89.16    1.99 
   0   4   1   88.16    1.98 
  -2  -4  -1   16.37    0.65 
   2  -4   1   15.87    0.64 
   2   4   1   15.51    0.65 
  -2   4  -1   14.67    0.63 
  -4  -4  -1    0.19    0.11 
   4  -4   1    0.09    0.11 
   4   4   1    0.13    0.11 
  -4   4  -1    0.47    0.15 
   6  -4   1    0.79    0.21 
  -6   4  -1    0.31    0.15 
   6   4   1    0.84    0.19 
  -6   4  -1    0.69    0.22 
   8  -4   1    6.03    0.47 
   8   4   1    7.02    0.48 
  -8   4  -1    6.90    0.65 
  -8   4  -1    5.50    0.38 
  10  -4   1    1.79    0.33 
 -10   4  -1    0.90    0.21 
 -10   4  -1    1.30    0.33 
  10   4   1    1.38    0.28 
  10   4   1    1.18    0.27 
  12  -4   1    5.30    0.56 
  12   4   1    4.83    0.56 
 -12   4  -1    4.70    0.63 
  14  -4   1    0.83    0.29 
 -14   4  -1    0.50    0.32 
  14   4   1    1.17    0.33 
  15  -5  -1    0.20    0.21 
  15   5  -1    0.06    0.23 
 -15   5   1    0.03    0.25 
  13  -5  -1    0.48    0.22 
  13   5  -1    0.27    0.22 
 -13   5   1    0.30    0.29 
  11   5  -1    0.76    0.27 
 -11   5   1    0.57    0.31 
   9  -5  -1    1.00    0.27 
  -9   5   1    0.83    0.30 
  -9   5   1    1.61    0.30 
   9   5  -1    1.30    0.29 
   9   5  -1    1.09    0.29 
   7  -5  -1    0.88    0.24 
  -7   5   1    1.01    0.25 
   7   5  -1    0.95    0.27 
   5  -5  -1    6.27    0.48 
  -5   5   1    5.57    0.52 
   5   5  -1    6.13    0.46 
  -3  -5   1    3.40    0.38 
   3  -5  -1    4.47    0.45 
  -3   5   1    4.25    0.45 
   3   5  -1    3.99    0.44 
  -1  -5   1    1.38    0.26 
   1  -5  -1    2.01    0.31 
   1   5  -1    1.40    0.26 
  -1   5   1    1.48    0.28 
   1  -5   1   64.36    1.66 
  -1  -5  -1   63.36    1.66 
   1   5   1   64.36    1.71 
  -1   5  -1   64.36    1.70 
   3  -5   1   19.63    0.81 
  -3  -5  -1   19.94    0.80 
   3   5   1   19.00    0.82 
  -3   5  -1   17.76    0.79 
   5  -5   1    0.91    0.23 
   5   5   1    0.99    0.24 
  -5   5  -1    0.98    0.24 
   7  -5   1    0.00    0.17 
  -7   5  -1    0.06    0.20 
  -7   5  -1    0.01    0.11 
   7   5   1    0.17    0.16 
   9  -5   1    0.02    0.17 
   9   5   1   -0.01    0.14 
  -9   5  -1   -0.02    0.19 
  -9   5  -1   -0.22    0.11 
 -11   5  -1    2.71    0.49 
  11   5   1    3.08    0.44 
  13  -5   1    1.69    0.38 
 -13   5  -1    0.90    0.36 
  13   5   1    1.62    0.35 
  15  -5   1    0.75    0.30 
  15   5   1    0.63    0.25 
 -15   5  -1    0.41    0.33 
  14  -6  -1    0.85    0.34 
  14   6  -1    0.77    0.29 
 -14   6   1    0.63    0.37 
  12   6  -1    1.47    0.39 
 -12   6   1    0.86    0.36 
 -10   6   1    5.84    0.72 
  10   6  -1    5.63    0.62 
   8  -6  -1   11.19    0.73 
  -8   6   1   11.30    0.70 
  -8   6   1   10.37    0.78 
   8   6  -1   11.65    0.76 
   6  -6  -1    1.54    0.33 
   6   6  -1    1.58    0.33 
  -6   6   1    2.08    0.37 
   4  -6  -1    6.38    0.61 
  -4   6   1    6.35    0.52 
   4   6  -1    5.97    0.58 
   2  -6  -1    5.21    0.53 
  -2   6   1    4.72    0.51 
   2   6  -1    4.13    0.50 
   0  -6   1   13.82    0.74 
   0  -6  -1   14.90    0.76 
   0   6  -1   14.26    0.77 
   0   6   1   15.61    0.80 
   2  -6   1   12.67    0.70 
  -2   6  -1   11.73    0.70 
   2   6   1   12.12    0.71 
   4  -6   1   16.58    0.82 
   4   6   1   16.98    0.86 
  -4   6  -1   15.24    0.79 
   6  -6   1    0.21    0.18 
   6   6   1   -0.18    0.15 
  -6   6  -1   -0.37    0.11 
   8  -6   1    0.27    0.22 
  -8   6  -1    0.40    0.20 
  -8   6  -1   -0.21    0.20 
   8   6   1    0.09    0.17 
 -10   6  -1    1.25    0.39 
  10   6   1    1.50    0.35 
  12   6   1    0.28    0.23 
 -12   6  -1    0.67    0.35 
  14  -6   1    0.25    0.21 
 -14   6  -1    0.35    0.31 
  14   6   1    0.38    0.27 
 -11   7   1   -0.03    0.31 
  11   7  -1    0.07    0.22 
   9   7  -1    0.57    0.27 
  -9   7   1   -0.03    0.27 
   7  -7  -1    0.12    0.23 
   7   7  -1    0.07    0.22 
  -7   7   1    0.25    0.22 
   5  -7  -1    3.36    0.59 
  -5   7   1    2.64    0.44 
   5   7  -1    2.51    0.44 
   3   7  -1    0.58    0.27 
  -3   7   1    0.47    0.25 
   1   7  -1    0.52    0.28 
  -1   7   1    0.63    0.28 
  -1   7  -1    1.12    0.35 
   1   7   1    1.37    0.34 
   3  -7   1    0.16    0.24 
   3   7   1    0.22    0.23 
  -3   7  -1    0.53    0.26 
   5  -7   1   -0.10    0.16 
   5   7   1    0.30    0.22 
  -5   7  -1    0.13    0.19 
   7   7   1    0.12    0.19 
  -7   7  -1    0.10    0.19 
  -9   7  -1    0.11    0.26 
   9   7   1    0.27    0.23 
  11   7   1   -0.08    0.21 
 -11   7  -1    0.09    0.27 
 -10   8   1    0.72    0.35 
  10   8  -1    0.00    0.22 
   8   8  -1    0.54    0.31 
   6   8  -1    0.35    0.24 
  -6   8   1    0.14    0.21 
  -4   8   1    0.60    0.28 
   4   8  -1    0.97    0.31 
   2   8  -1   -0.06    0.20 
  -2   8   1   -0.12    0.17 
   0   8   1    0.11    0.22 
   0   8  -1    0.06    0.20 
  -2   8  -1   -0.24    0.17 
   2   8   1    0.15    0.21 
   4   8   1    1.49    0.39 
  -4   8  -1    1.87    0.41 
  -6   8  -1    0.28    0.28 
   6   8   1    0.52    0.29 
   8   8   1    0.35    0.24 
  10   8   1    0.29    0.26 
 -10   8  -1    0.33    0.29 
   7   9  -1    0.09    0.28 
   5   9  -1    0.31    0.30 
  -3   9   1   -0.05    0.21 
   3   9  -1    0.17    0.27 
  -1   9   1   -0.09    0.21 
   1   9  -1   -0.09    0.24 
   1   9   1   -0.22    0.21 
  -1   9  -1   -0.05    0.22 
   3   9   1    0.34    0.26 
  -3   9  -1    0.84    0.33 
   5   9   1    0.03    0.21 
   7   9   1    0.40    0.28 
   2  10  -1    0.14    0.30 
   0  10  -1    1.40    0.45 
   0  10   1    0.88    0.42 
   2  10   1    0.10    0.29 
  16   0  -2    0.57    0.25 
  14   0  -2    1.69    0.34 
  12   0  -2    2.63    0.36 
  12   0  -2    3.00    0.38 
  12   0  -2    3.21    0.46 
 -10   0   2   41.69    1.06 
  10   0  -2   40.30    1.19 
  10   0  -2   41.29    1.30 
  10   0  -2   40.06    1.19 
  -8   0   2   31.23    0.83 
   8   0  -2   29.41    0.89 
   8   0  -2   28.15    0.86 
   8   0  -2   28.86    0.95 
   6   0  -2   30.82    0.87 
  -6   0   2   30.87    0.77 
   6   0  -2   30.60    0.83 
  -4   0   2  833.03   13.88 
   4   0  -2  845.40   13.93 
   4   0  -2  862.45   13.92 
   4   0  -2  831.37   14.10 
   2   0  -2  135.43    2.34 
  -2   0   2  138.71    2.38 
   2   0  -2  137.16    2.39 
  -2   0   2  135.15    2.39 
   2   0  -2  137.33    2.39 
   0   0  -2   10.01    0.21 
   0   0   2   10.81    0.23 
   2   0   2  471.86    7.87 
   4   0   2   12.05    0.47 
   4   0   2   12.62    0.33 
   4   0   2   11.85    0.33 
   6   0   2  247.02    4.31 
   6   0   2  249.07    4.33 
   6   0   2  252.42    4.63 
   8   0   2   22.92    0.70 
   8   0   2   24.00    0.92 
   8   0   2   23.21    0.70 
  10   0   2   15.57    0.80 
  10   0   2   15.09    0.61 
  10   0   2   14.12    0.61 
  12   0   2    1.64    0.27 
  12   0   2    1.79    0.28 
  14   0   2    1.72    0.33 
  16   0   2    1.88    0.36 
  17  -1  -2   -0.02    0.21 
  17   1  -2    0.16    0.23 
  15  -1  -2    1.97    0.37 
  15   1  -2    1.83    0.39 
  13  -1  -2   21.49    0.96 
  13  -1  -2   21.10    0.94 
  13   1  -2   18.74    0.89 
  13   1  -2   20.14    0.90 
 -13   1   2   20.76    0.71 
  11  -1  -2    0.77    0.24 
  11  -1  -2    0.55    0.20 
  11  -1  -2    0.38    0.22 
 -11   1   2    0.65    0.16 
  11   1  -2    0.74    0.21 
  11   1  -2    0.18    0.17 
  11   1  -2    0.63    0.22 
   9  -1  -2    4.58    0.36 
   9  -1  -2    5.14    0.41 
  -9  -1   2    5.08    0.31 
  -9   1   2    4.39    0.30 
   9   1  -2    3.35    0.35 
   9   1  -2    4.36    0.42 
   9   1  -2    4.05    0.37 
   7  -1  -2   26.78    0.80 
   7  -1  -2   27.39    0.82 
   7  -1  -2   28.19    0.89 
  -7  -1   2   27.54    0.74 
  -7   1   2   26.71    0.86 
   7   1  -2   27.33    0.81 
   7   1  -2   27.55    0.85 
   5  -1  -2   14.39    0.52 
   5  -1  -2   14.86    0.49 
  -5  -1   2   14.66    0.47 
   5  -1  -2   15.05    0.51 
  -5   1   2   15.50    0.54 
   5   1  -2   13.81    0.50 
   5   1  -2   14.46    0.50 
   3  -1  -2    1.10    0.15 
  -3  -1   2    1.04    0.12 
  -3   1   2    1.17    0.15 
  -3   1   2    1.14    0.14 
   3   1  -2    1.07    0.14 
   3   1  -2    1.18    0.14 
   1  -1  -2    0.39    0.07 
  -1  -1   2    0.33    0.07 
   1   1  -2    0.43    0.07 
  -1   1   2    0.40    0.07 
  -1  -1  -2   52.51    0.98 
   1  -1   2   53.44    0.99 
   1   1   2   52.17    0.98 
   3  -1   2    9.80    0.41 
  -3  -1  -2    8.87    0.26 
   3  -1   2    9.30    0.29 
   3   1   2    9.27    0.29 
  -3   1  -2    8.96    0.39 
  -3   1  -2    9.23    0.26 
  -5  -1  -2   42.11    0.84 
   5  -1   2   42.63    1.12 
   5  -1   2   42.14    0.93 
   5   1   2   42.69    0.95 
  -5   1  -2   42.89    0.86 
  -5   1  -2   42.34    1.13 
   7  -1   2    0.19    0.14 
   7  -1   2   -0.02    0.07 
   7  -1   2   -0.03    0.07 
  -7   1  -2    0.01    0.05 
   7   1   2    0.01    0.08 
  -7   1  -2   -0.03    0.10 
   7   1   2    0.09    0.07 
   9  -1   2    4.07    0.46 
   9  -1   2    4.11    0.30 
   9  -1   2    4.42    0.32 
   9   1   2    4.92    0.33 
   9   1   2    4.41    0.31 
   9   1   2    4.48    0.46 
  11  -1   2    5.54    0.41 
  11  -1   2    5.72    0.72 
  11  -1   2    5.32    0.39 
  11   1   2    8.41    0.83 
  11   1   2    6.15    0.44 
  11   1   2    5.64    0.41 
  13  -1   2   -0.01    0.15 
  13  -1   2    0.20    0.14 
  13   1   2    0.19    0.17 
  13   1   2    0.00    0.13 
  15  -1   2    0.59    0.24 
  15   1   2    0.31    0.20 
  17  -1   2    0.24    0.23 
  17   1   2   -0.19    0.16 
  16  -2  -2    0.05    0.19 
  16   2  -2    0.51    0.25 
  14  -2  -2    0.02    0.16 
  14   2  -2   -0.01    0.18 
  12  -2  -2    4.27    0.45 
  12  -2  -2    4.55    0.50 
  12   2  -2    4.46    0.47 
  12   2  -2    5.13    0.53 
 -12   2   2    4.92    0.37 
  10  -2  -2   14.54    0.70 
  10  -2  -2   15.70    0.71 
  10   2  -2   14.56    0.68 
 -10   2   2   14.59    0.76 
  10   2  -2   15.36    0.71 
 -10   2   2   15.02    0.61 
   8  -2  -2    0.05    0.09 
  -8  -2   2    0.15    0.09 
   8  -2  -2   -0.08    0.09 
   8   2  -2    0.27    0.13 
   8   2  -2    0.16    0.11 
  -8   2   2    0.18    0.13 
  -8   2   2   -0.06    0.05 
  -6  -2   2    5.68    0.32 
   6  -2  -2    5.61    0.35 
   6   2  -2    5.40    0.34 
   6   2  -2    6.14    0.37 
  -6   2   2    5.16    0.32 
  -6   2   2    5.47    0.37 
   4  -2  -2   18.97    0.61 
  -4  -2   2   18.90    0.59 
  -4   2   2   19.74    0.62 
   4   2  -2   19.31    0.63 
   2  -2  -2    1.13    0.16 
  -2  -2   2    0.98    0.14 
  -2   2   2    1.44    0.18 
   2   2  -2    0.87    0.14 
   0  -2   2   71.67    1.45 
   0  -2  -2   74.25    1.45 
   0   2  -2   71.88    1.46 
   0   2   2   73.10    1.46 
  -2  -2  -2   41.90    0.92 
   2  -2   2   41.77    0.94 
  -2   2  -2   39.68    0.92 
   2   2   2   41.73    0.93 
  -4  -2  -2   20.38    0.57 
   4  -2   2   21.32    0.61 
  -4   2  -2   20.35    0.57 
   4   2   2   21.65    0.60 
  -4   2  -2   20.52    0.72 
  -6  -2  -2   43.91    0.98 
   6  -2   2   44.07    1.08 
  -6   2  -2   43.81    1.26 
   6   2   2   44.20    1.10 
  -6   2  -2   44.81    1.00 
  -8  -2  -2    7.57    0.31 
   8  -2   2    7.62    0.42 
   8   2   2    7.34    0.41 
  -8   2  -2    7.73    0.52 
   8   2   2    7.85    0.41 
  -8   2  -2    7.64    0.33 
  10  -2   2    8.03    0.59 
  10  -2   2    6.94    0.44 
  10  -2   2    7.39    0.46 
  10   2   2    7.59    0.48 
  10   2   2    7.50    0.46 
 -10   2  -2    8.96    0.61 
 -10   2  -2    7.25    0.32 
  12  -2   2    0.05    0.12 
  12  -2   2    0.12    0.15 
  12   2   2   -0.03    0.15 
  12   2   2   -0.02    0.14 
  14  -2   2    0.04    0.16 
  14   2   2    0.25    0.19 
  16  -2   2    1.72    0.37 
  16   2   2    2.01    0.39 
  15  -3  -2    1.86    0.37 
  15   3  -2    1.24    0.32 
  13  -3  -2    0.71    0.23 
  13   3  -2    0.62    0.23 
  11  -3  -2    0.38    0.19 
  11  -3  -2    0.14    0.17 
  11   3  -2    0.07    0.16 
  11   3  -2    0.25    0.18 
 -11   3   2    0.33    0.21 
 -11   3   2   -0.03    0.13 
   9  -3  -2    0.09    0.13 
   9  -3  -2    0.32    0.17 
   9   3  -2    0.35    0.17 
  -9   3   2    0.24    0.16 
   9   3  -2    0.01    0.12 
  -7  -3   2    0.10    0.10 
   7  -3  -2    0.06    0.12 
   7   3  -2    0.16    0.12 
   7   3  -2   -0.04    0.11 
  -7   3   2    0.02    0.11 
  -7   3   2   -0.02    0.10 
  -5  -3   2    0.67    0.15 
   5  -3  -2    0.88    0.18 
   5   3  -2    0.25    0.12 
  -5   3   2    0.70    0.16 
  -3  -3   2   11.01    0.47 
   3  -3  -2   11.16    0.49 
   3   3  -2   10.93    0.49 
  -3   3   2   11.24    0.49 
   1  -3  -2   13.96    0.53 
  -1  -3   2   12.97    0.51 
  -1   3   2   14.77    0.55 
   1   3  -2   13.26    0.53 
   1  -3   2    0.82    0.16 
  -1  -3  -2    0.78    0.16 
  -1   3  -2    0.94    0.17 
   1   3   2    0.76    0.16 
  -3  -3  -2   34.06    0.91 
   3  -3   2   34.05    0.92 
  -3   3  -2   33.70    0.90 
   3   3   2   33.77    0.91 
  -5  -3  -2    4.51    0.28 
   5  -3   2    4.41    0.31 
   5   3   2    4.39    0.30 
  -5   3  -2    3.54    0.38 
   7  -3   2    2.93    0.32 
  -7  -3  -2    3.07    0.28 
  -7   3  -2    2.26    0.34 
  -7   3  -2    3.18    0.25 
   7   3   2    3.27    0.33 
   9  -3   2    0.45    0.17 
  -9   3  -2    0.22    0.20 
   9   3   2    0.07    0.12 
  -9   3  -2    0.42    0.13 
   9   3   2    0.62    0.17 
  11  -3   2    7.77    0.53 
  11  -3   2    7.11    0.50 
 -11   3  -2    7.52    0.38 
  11   3   2    7.39    0.53 
 -11   3  -2    8.36    0.66 
  11   3   2    8.83    0.56 
  13  -3   2    0.49    0.21 
  13   3   2    0.49    0.21 
  15  -3   2    0.13    0.18 
  15   3   2   -0.08    0.16 
  16  -4  -2    0.02    0.16 
  16   4  -2   -0.19    0.16 
  14  -4  -2    0.31    0.20 
  14   4  -2   -0.01    0.17 
 -14   4   2    0.33    0.23 
  12  -4  -2    1.86    0.34 
 -12   4   2    1.69    0.40 
 -12   4   2    1.78    0.42 
  12   4  -2    0.85    0.25 
  10  -4  -2    0.94    0.28 
  10   4  -2    1.32    0.30 
 -10   4   2    0.68    0.28 
  10   4  -2    0.75    0.25 
   8  -4  -2    0.01    0.16 
  -8   4   2    0.16    0.13 
   8   4  -2   -0.03    0.11 
  -8   4   2   -0.10    0.13 
   8   4  -2    0.17    0.15 
   6  -4  -2   -0.02    0.12 
  -6  -4   2    0.09    0.12 
  -6   4   2    0.06    0.12 
   6   4  -2    0.19    0.12 
   4  -4  -2    3.13    0.34 
  -4  -4   2    3.26    0.34 
  -4   4   2    3.57    0.36 
   4   4  -2    2.97    0.35 
   2  -4  -2    0.48    0.16 
  -2  -4   2    0.15    0.13 
   2   4  -2    0.15    0.13 
  -2   4   2    0.27    0.14 
   0  -4   2    3.99    0.38 
   0  -4  -2    4.42    0.35 
   0   4  -2    3.72    0.36 
   0   4   2    4.30    0.35 
  -2  -4  -2    3.85    0.32 
   2  -4   2    3.06    0.32 
  -2   4  -2    3.28    0.33 
   2   4   2    3.20    0.34 
  -4  -4  -2    0.09    0.10 
   4  -4   2   -0.04    0.09 
  -4   4  -2    0.02    0.10 
   4   4   2   -0.03    0.09 
   6  -4   2    5.01    0.38 
   6   4   2    3.77    0.39 
  -6   4  -2    4.39    0.48 
  -6   4  -2    3.34    0.34 
   8  -4   2    0.19    0.16 
   8   4   2    0.57    0.19 
  -8   4  -2    0.53    0.24 
  -8   4  -2    0.35    0.15 
  10  -4   2    0.93    0.26 
  10   4   2    0.82    0.25 
 -10   4  -2    0.89    0.19 
  10   4   2    0.83    0.23 
 -10   4  -2    1.33    0.34 
  12  -4   2    0.38    0.20 
  12   4   2    0.07    0.17 
 -12   4  -2    0.39    0.27 
  14  -4   2   -0.11    0.18 
  14   4   2    0.44    0.23 
 -14   4  -2    0.30    0.24 
  15  -5  -2   -0.05    0.18 
 -15   5   2   -0.06    0.22 
  15   5  -2    0.01    0.21 
  13  -5  -2    0.43    0.22 
 -13   5   2    1.01    0.37 
  13   5  -2    0.58    0.26 
 -11   5   2   -0.08    0.11 
 -11   5   2    0.28    0.25 
  11   5  -2    0.30    0.21 
   9  -5  -2    0.02    0.18 
  -9   5   2    0.12    0.17 
   9   5  -2    0.32    0.19 
  -9   5   2    0.18    0.22 
   9   5  -2    0.43    0.23 
   7  -5  -2    0.31    0.19 
   7   5  -2    0.20    0.17 
  -7   5   2    0.18    0.16 
   5  -5  -2    0.61    0.21 
  -5   5   2    0.40    0.18 
   5   5  -2    0.16    0.16 
   3  -5  -2    0.21    0.14 
  -3  -5   2   -0.04    0.10 
   3   5  -2    0.05    0.13 
  -3   5   2    0.08    0.14 
   1  -5  -2    1.94    0.29 
  -1  -5   2    2.38    0.34 
  -1   5   2    1.59    0.27 
   1   5  -2    2.19    0.33 
  -1  -5  -2   16.79    0.73 
   1  -5   2   17.79    0.76 
   1   5   2   16.90    0.76 
  -1   5  -2   16.61    0.76 
  -3  -5  -2    1.44    0.26 
   3  -5   2    1.23    0.25 
   3   5   2    0.99    0.23 
  -3   5  -2    0.83    0.22 
   5  -5   2    0.48    0.20 
   5   5   2    0.50    0.18 
  -5   5  -2    0.28    0.15 
   7  -5   2    0.44    0.20 
  -7   5  -2    0.99    0.34 
   7   5   2    0.59    0.21 
  -7   5  -2    1.22    0.26 
   9  -5   2    0.80    0.26 
  -9   5  -2    0.67    0.28 
  -9   5  -2    0.43    0.18 
   9   5   2    1.05    0.28 
 -11   5  -2    0.45    0.28 
  11   5   2    0.65    0.23 
  13  -5   2    0.30    0.19 
  13   5   2    0.32    0.20 
 -13   5  -2    0.54    0.29 
  15  -5   2    0.25    0.22 
 -15   5  -2    0.20    0.27 
  15   5   2   -0.03    0.18 
  14  -6  -2    0.15    0.22 
 -14   6   2    0.19    0.28 
  14   6  -2    0.62    0.28 
  12   6  -2    6.25    0.71 
 -12   6   2    5.52    0.73 
  10   6  -2    5.24    0.64 
 -10   6   2    5.57    0.70 
   8  -6  -2    0.49    0.25 
   8   6  -2    0.10    0.17 
  -8   6   2   -0.09    0.14 
   6  -6  -2    1.43    0.33 
   6   6  -2    0.44    0.21 
  -6   6   2    1.00    0.29 
   4  -6  -2    1.16    0.28 
  -4   6   2    0.71    0.24 
   4   6  -2    1.19    0.30 
   2  -6  -2    0.12    0.17 
  -2   6   2    0.05    0.17 
   2   6  -2    0.21    0.18 
   0  -6   2    3.61    0.45 
   0   6  -2    4.35    0.51 
   0   6   2    3.21    0.43 
   2  -6   2   16.95    0.82 
   2   6   2   16.48    0.83 
  -2   6  -2   16.11    0.82 
   4  -6   2    1.42    0.31 
  -4   6  -2    1.71    0.33 
   4   6   2    1.76    0.36 
   6  -6   2    3.49    0.47 
   6   6   2    2.14    0.38 
  -6   6  -2    2.76    0.41 
   8  -6   2    2.16    0.39 
   8   6   2    2.66    0.44 
  -8   6  -2    2.33    0.36 
  -8   6  -2    2.06    0.45 
  10   6   2    1.32    0.33 
 -10   6  -2    1.21    0.38 
 -12   6  -2    0.58    0.31 
  12   6   2    0.10    0.20 
  11   7  -2    0.88    0.34 
 -11   7   2    0.48    0.32 
  -9   7   2   -0.14    0.22 
   9   7  -2    0.29    0.22 
  -7   7   2   11.62    0.79 
   7   7  -2   12.72    0.85 
  -5   7   2    4.44    0.54 
   5   7  -2    3.83    0.53 
  -3   7   2   10.86    0.75 
   3   7  -2   11.09    0.77 
   1   7  -2   22.23    1.09 
  -1   7   2   22.99    1.08 
  -1   7  -2    1.77    0.38 
   1   7   2    2.54    0.42 
   3  -7   2    8.03    0.63 
  -3   7  -2    7.86    0.64 
   3   7   2    6.53    0.66 
   5  -7   2    2.40    0.41 
  -5   7  -2    2.04    0.41 
   5   7   2    2.23    0.41 
  -7   7  -2    0.96    0.30 
   7   7   2    1.17    0.33 
  -9   7  -2    1.11    0.40 
   9   7   2    0.81    0.32 
  11   7   2    3.06    0.52 
 -11   7  -2    2.24    0.54 
 -10   8   2    0.60    0.37 
  10   8  -2    0.48    0.28 
   8   8  -2   -0.04    0.19 
  -6   8   2    0.26    0.23 
   6   8  -2    0.08    0.23 
  -4   8   2    0.21    0.23 
   4   8  -2    0.50    0.25 
  -2   8   2    0.75    0.31 
   2   8  -2    1.24    0.36 
   0   8   2    0.44    0.28 
   0   8  -2    2.04    0.45 
   2   8   2    1.54    0.38 
  -2   8  -2    1.52    0.37 
  -4   8  -2    1.00    0.35 
   4   8   2    0.64    0.31 
   6   8   2    0.20    0.24 
   8   8   2    0.12    0.21 
  -8   8  -2   -0.18    0.29 
 -10   8  -2    1.47    0.47 
  10   8   2    1.87    0.46 
   7   9  -2    0.57    0.34 
   5   9  -2    0.50    0.27 
   3   9  -2    0.88    0.36 
  -3   9   2    0.56    0.33 
  -1   9   2    0.96    0.39 
   1   9  -2    1.63    0.42 
  -1   9  -2    0.38    0.26 
   1   9   2   -0.32    0.19 
  -3   9  -2    0.06    0.25 
   3   9   2    0.37    0.26 
   5   9   2    1.68    0.47 
   7   9   2    0.54    0.29 
   2  10  -2    0.35    0.31 
  -2  10   2    0.34    0.30 
   0  10   2    0.13    0.29 
   0  10  -2    0.01    0.28 
   2  10   2    0.34    0.35 
  16   0  -3   -0.06    0.17 
  14   0  -3   -0.09    0.13 
  12   0  -3    0.31    0.19 
  12   0  -3    0.24    0.18 
  12   0  -3    0.02    0.14 
  10   0  -3    0.28    0.16 
 -10   0   3    0.06    0.11 
  10   0  -3   -0.15    0.11 
  10   0  -3    0.12    0.12 
   8   0  -3    0.13    0.11 
  -8   0   3    0.01    0.07 
   8   0  -3    0.18    0.12 
   8   0  -3    0.02    0.11 
   6   0  -3    0.03    0.08 
  -6   0   3   -0.05    0.07 
   6   0  -3   -0.15    0.07 
   6   0  -3   -0.16    0.07 
  -6   0   3   -0.07    0.07 
  -4   0   3   -0.06    0.09 
   4   0  -3    0.02    0.09 
   4   0  -3   -0.05    0.10 
  -4   0   3   -0.18    0.07 
  -2   0   3    0.03    0.06 
   2   0  -3   -0.08    0.03 
   2   0  -3   -0.04    0.05 
   2   0  -3   -0.01    0.05 
  -2   0   3   -0.10    0.04 
   0   0   3   -0.07    0.02 
   0   0  -3   -0.04    0.02 
   0   0   3   -0.09    0.01 
   0   0   3   -0.02    0.02 
   0   0  -3   -0.04    0.02 
   2   0   3    0.15    0.06 
   4   0   3    0.04    0.04 
   4   0   3   -0.10    0.07 
   6   0   3   -0.03    0.06 
   6   0   3    0.09    0.12 
   6   0   3    0.09    0.07 
   8   0   3    0.04    0.07 
   8   0   3   -0.08    0.07 
   8   0   3    0.02    0.13 
  10   0   3   -0.06    0.10 
  10   0   3    0.02    0.09 
  10   0   3   -0.08    0.12 
  12   0   3    0.04    0.13 
  12   0   3    0.04    0.14 
  14   0   3    0.00    0.13 
  16   0   3   -0.11    0.16 
  17  -1  -3   -0.01    0.19 
  17   1  -3   -0.17    0.16 
  15  -1  -3    0.08    0.16 
  15   1  -3    0.13    0.17 
  13  -1  -3    2.42    0.37 
  13  -1  -3    2.93    0.43 
  13   1  -3    2.82    0.42 
 -13   1   3    3.18    0.34 
  13   1  -3    2.17    0.36 
  11  -1  -3    5.33    0.54 
  11  -1  -3    4.65    0.46 
  11  -1  -3    4.75    0.47 
  11   1  -3    5.15    0.52 
  11   1  -3    4.49    0.45 
  11   1  -3    4.83    0.47 
 -11   1   3    4.91    0.37 
   9  -1  -3   13.03    0.58 
  -9  -1   3   12.47    0.59 
   9  -1  -3   12.09    0.62 
   9  -1  -3   11.87    0.58 
   9   1  -3   11.47    0.59 
   9   1  -3   11.45    0.57 
  -9   1   3   11.69    0.52 
   9   1  -3   11.56    0.57 
   7  -1  -3   15.71    0.60 
   7  -1  -3   16.52    0.63 
  -7  -1   3   15.58    0.54 
   7  -1  -3   15.55    0.59 
   7   1  -3   16.21    0.60 
  -7   1   3   15.28    0.61 
   7   1  -3   15.24    0.60 
  -5  -1   3   25.09    0.69 
   5  -1  -3   25.33    0.70 
  -5  -1   3   24.76    0.68 
   5  -1  -3   24.24    0.72 
   5  -1  -3   24.86    0.70 
  -5   1   3   24.67    0.69 
  -5   1   3   23.72    0.70 
   5   1  -3   25.72    0.72 
   5   1  -3   24.75    0.70 
  -3  -1   3   21.27    0.57 
   3  -1  -3   21.30    0.58 
   3  -1  -3   20.59    0.56 
  -3  -1   3   20.07    0.55 
   3   1  -3   20.55    0.57 
  -3   1   3   21.17    0.59 
   1  -1  -3   23.29    0.55 
  -1  -1   3   22.83    0.54 
   1   1  -3   23.06    0.55 
  -1   1   3   22.55    0.55 
   1   1  -3   23.76    0.55 
   1  -1   3   93.76    1.66 
  -1  -1  -3   95.07    1.65 
   1   1   3   94.90    1.66 
  -1   1  -3   92.51    1.65 
  -3  -1  -3    2.42    0.11 
   3  -1   3    2.43    0.14 
   3  -1   3    2.59    0.23 
  -3   1  -3    2.49    0.11 
  -3   1  -3    3.00    0.23 
   3   1   3    2.54    0.13 
   5  -1   3    1.62    0.23 
   5  -1   3    1.62    0.15 
  -5  -1  -3    1.24    0.08 
  -5   1  -3    1.41    0.09 
   5   1   3    1.48    0.15 
  -5   1  -3    1.07    0.20 
   7  -1   3    1.83    0.20 
   7  -1   3    2.31    0.32 
  -7   1  -3    1.68    0.28 
   7   1   3    1.81    0.20 
  -7   1  -3    1.67    0.10 
   7   1   3    1.70    0.18 
   9  -1   3    1.82    0.24 
   9  -1   3    1.96    0.33 
   9  -1   3    1.48    0.21 
   9   1   3    1.68    0.31 
   9   1   3    2.33    0.26 
   9   1   3    1.66    0.22 
  11  -1   3    3.47    0.36 
  11  -1   3    3.34    0.36 
  11   1   3    2.84    0.33 
  11   1   3    2.50    0.31 
  13  -1   3    0.16    0.14 
  13  -1   3    0.10    0.15 
  13   1   3    0.02    0.13 
  13   1   3   -0.06    0.12 
  15  -1   3   -0.05    0.15 
  15   1   3   -0.04    0.14 
  17  -1   3    0.32    0.26 
  17   1   3    0.20    0.22 
  16  -2  -3   -0.05    0.15 
  16   2  -3    0.34    0.19 
  14  -2  -3   -0.14    0.12 
  14   2  -3    0.04    0.16 
  12  -2  -3    7.50    0.57 
  12  -2  -3    7.74    0.55 
 -12   2   3    7.24    0.46 
  12   2  -3    8.04    0.70 
  12   2  -3    7.61    0.56 
  12   2  -3    7.72    0.56 
  10  -2  -3    2.66    0.36 
  10  -2  -3    1.91    0.29 
 -10   2   3    2.18    0.34 
  10   2  -3    3.05    0.36 
  10   2  -3    2.65    0.35 
 -10   2   3    2.50    0.30 
   8  -2  -3    0.14    0.13 
  -8  -2   3    0.11    0.10 
   8  -2  -3    0.15    0.11 
   8   2  -3    0.19    0.11 
   8   2  -3    0.12    0.12 
  -8   2   3    0.19    0.11 
  -8   2   3    0.04    0.12 
   6  -2  -3    6.12    0.37 
  -6  -2   3    5.54    0.33 
   6   2  -3    6.33    0.37 
   6   2  -3    5.55    0.34 
  -6   2   3    5.85    0.37 
  -6   2   3    5.31    0.33 
  -4  -2   3   12.64    0.48 
   4  -2  -3   12.38    0.49 
   4   2  -3   12.65    0.48 
  -4   2   3   12.03    0.47 
   4   2  -3   12.76    0.48 
  -2  -2   3    1.16    0.15 
   2  -2  -3    1.66    0.19 
  -2   2   3    1.39    0.17 
   2   2  -3    1.15    0.15 
   0  -2  -3    6.33    0.29 
   0  -2   3    6.90    0.31 
   0   2   3    6.77    0.31 
   0   2  -3    6.51    0.30 
  -2  -2  -3   39.02    0.88 
   2  -2   3   41.57    0.91 
   2   2   3   39.74    0.90 
  -4  -2  -3    3.61    0.20 
   4  -2   3    3.33    0.22 
  -4   2  -3    3.56    0.21 
   4   2   3    3.80    0.23 
  -6  -2  -3    1.48    0.15 
   6  -2   3    1.37    0.19 
   6   2   3    1.16    0.17 
  -6   2  -3    1.24    0.14 
  -6   2  -3    1.95    0.29 
  -8  -2  -3    0.03    0.05 
   8  -2   3    0.01    0.09 
   8  -2   3    0.07    0.14 
   8   2   3    0.08    0.09 
  -8   2  -3   -0.03    0.12 
   8   2   3    0.05    0.08 
  -8   2  -3    0.08    0.06 
  10  -2   3   -0.03    0.12 
  10  -2   3    0.07    0.11 
  10  -2   3    0.19    0.21 
  10   2   3    0.00    0.12 
  10   2   3    0.05    0.11 
 -10   2  -3    0.06    0.07 
 -10   2  -3    0.17    0.18 
  12  -2   3    2.57    0.35 
  12  -2   3    2.06    0.32 
  12   2   3    2.04    0.31 
  12   2   3    1.78    0.30 
  14  -2   3    0.20    0.17 
  14   2   3    0.15    0.16 
  16  -2   3    0.18    0.22 
  16   2   3    0.45    0.25 
  15  -3  -3    0.01    0.16 
  15   3  -3    0.30    0.22 
  13  -3  -3    0.22    0.19 
  13   3  -3    0.87    0.27 
  11  -3  -3   13.58    0.74 
  11  -3  -3   13.29    0.70 
  11   3  -3   13.31    0.73 
 -11   3   3   12.23    0.77 
  11   3  -3   12.47    0.70 
 -11   3   3   13.11    0.63 
   9  -3  -3    0.15    0.13 
   9  -3  -3   -0.10    0.13 
  -9   3   3    0.29    0.15 
   9   3  -3    0.27    0.15 
   9   3  -3    0.34    0.18 
  -9   3   3    0.31    0.17 
  -7  -3   3    0.23    0.11 
   7  -3  -3    0.26    0.13 
   7   3  -3    0.23    0.13 
   7   3  -3    0.27    0.13 
  -7   3   3   -0.04    0.10 
  -7   3   3    0.31    0.16 
   5  -3  -3   -0.06    0.09 
  -5  -3   3   -0.07    0.08 
   5   3  -3   -0.08    0.07 
  -5   3   3   -0.07    0.08 
   5   3  -3    0.30    0.13 
   3  -3  -3    0.90    0.17 
  -3  -3   3    0.68    0.15 
  -3   3   3    0.89    0.18 
   3   3  -3    0.77    0.17 
  -1  -3   3   32.71    0.89 
   1  -3  -3   32.00    0.88 
  -1   3   3   29.88    0.87 
   1   3  -3   30.39    0.88 
  -1  -3  -3   11.96    0.47 
   1  -3   3   10.30    0.45 
  -1   3  -3   11.19    0.47 
   1   3   3   10.82    0.46 
  -3  -3  -3    1.07    0.17 
   3  -3   3    0.89    0.17 
   3   3   3    0.99    0.17 
  -3   3  -3    0.97    0.16 
  -5  -3  -3    5.44    0.31 
   5  -3   3    5.78    0.35 
   5   3   3    5.61    0.35 
  -5   3  -3    5.39    0.31 
  -5   3  -3    5.61    0.43 
   7  -3   3    0.58    0.17 
  -7  -3  -3    0.48    0.11 
  -7   3  -3    0.85    0.25 
   7   3   3    0.42    0.15 
  -7   3  -3    0.52    0.13 
   9  -3   3   18.87    0.76 
  -9   3  -3   18.89    0.94 
   9   3   3   20.43    0.78 
   9   3   3   20.67    0.77 
  -9   3  -3   20.36    0.63 
  11  -3   3   19.64    0.84 
  11   3   3   21.02    0.88 
 -11   3  -3   23.14    1.11 
  11   3   3   20.54    0.85 
 -11   3  -3   21.54    0.61 
  13  -3   3    1.53    0.31 
  13   3   3    1.10    0.26 
  15  -3   3    0.08    0.19 
  15   3   3    0.19    0.20 
  16  -4  -3   -0.09    0.18 
  16   4  -3    0.41    0.27 
  14  -4  -3    0.42    0.23 
 -14   4   3    1.05    0.34 
  14   4  -3    0.49    0.26 
  12  -4  -3   14.67    0.81 
 -12   4   3   16.78    0.95 
  12   4  -3   14.44    0.85 
 -12   4   3   15.90    0.84 
  10  -4  -3    5.46    0.55 
  10  -4  -3    5.39    0.55 
  10   4  -3    5.62    0.55 
 -10   4   3    5.13    0.58 
  10   4  -3    5.96    0.58 
 -10   4   3    5.44    0.43 
   8  -4  -3    0.30    0.17 
  -8   4   3    0.39    0.19 
   8   4  -3    0.13    0.13 
  -8   4   3    0.31    0.17 
   8   4  -3    0.36    0.18 
   6  -4  -3    0.87    0.21 
  -6  -4   3    0.82    0.20 
   6   4  -3    0.57    0.19 
  -6   4   3    0.50    0.17 
  -4  -4   3   10.09    0.52 
   4  -4  -3    9.88    0.52 
  -4   4   3    9.25    0.53 
   4   4  -3   10.47    0.55 
  -2  -4   3    6.07    0.40 
   2  -4  -3    5.97    0.40 
   2   4  -3    6.74    0.43 
  -2   4   3    6.59    0.44 
   0  -4  -3   21.97    0.77 
   0  -4   3   22.41    0.78 
   0   4   3   21.64    0.79 
   0   4  -3   22.66    0.79 
   2  -4   3   11.90    0.55 
  -2  -4  -3   12.12    0.55 
   2   4   3   12.71    0.57 
  -2   4  -3   11.62    0.55 
   4  -4   3    0.74    0.18 
  -4  -4  -3    0.89    0.18 
  -4   4  -3    0.76    0.17 
   4   4   3    0.49    0.16 
   6  -4   3   11.49    0.56 
  -6   4  -3   10.85    0.66 
   6   4   3   11.06    0.57 
   8  -4   3    2.57    0.34 
   8   4   3    1.61    0.27 
  -8   4  -3    2.30    0.41 
  -8   4  -3    2.11    0.27 
  10  -4   3    0.71    0.23 
  10   4   3    0.68    0.22 
  10   4   3    0.56    0.21 
 -10   4  -3    0.98    0.31 
 -10   4  -3    0.63    0.16 
 -12   4  -3    2.17    0.44 
  12   4   3    2.51    0.39 
  14  -4   3    0.25    0.22 
 -14   4  -3    0.60    0.31 
  14   4   3    0.79    0.28 
  15  -5  -3    0.39    0.24 
  15   5  -3    0.44    0.23 
 -15   5   3   -0.04    0.24 
  13  -5  -3    0.90    0.31 
 -13   5   3    1.04    0.38 
  13   5  -3    1.03    0.32 
 -11   5   3    2.11    0.36 
 -11   5   3    1.62    0.39 
  11   5  -3    2.56    0.45 
   9  -5  -3    0.01    0.19 
  -9   5   3    0.09    0.20 
   9   5  -3   -0.22    0.15 
   9   5  -3    0.16    0.17 
  -9   5   3    0.09    0.15 
   7  -5  -3    0.06    0.17 
  -7   5   3   -0.33    0.11 
   7   5  -3   -0.13    0.11 
   7   5  -3   -0.01    0.15 
   5  -5  -3    0.21    0.17 
  -5   5   3    0.14    0.16 
   5   5  -3    0.09    0.15 
  -3  -5   3    7.85    0.50 
   3  -5  -3    7.10    0.50 
   3   5  -3    6.82    0.50 
  -3   5   3    6.85    0.49 
   1  -5  -3   16.31    0.72 
  -1  -5   3   15.18    0.71 
  -1   5   3   15.25    0.72 
   1   5  -3   15.33    0.73 
   1  -5   3    0.08    0.14 
  -1  -5  -3    0.14    0.14 
   1   5   3    0.43    0.17 
  -1   5  -3    0.40    0.18 
   3  -5   3    1.44    0.26 
   3   5   3    1.68    0.29 
  -3   5  -3    1.81    0.29 
   5  -5   3    2.35    0.33 
   5   5   3    2.10    0.31 
  -5   5  -3    2.01    0.29 
   7  -5   3    1.15    0.28 
  -7   5  -3    0.87    0.32 
   7   5   3    0.88    0.24 
   9  -5   3   11.94    0.69 
  -9   5  -3   11.45    0.81 
   9   5   3   12.85    0.71 
  -9   5  -3   11.91    0.58 
  11   5   3    9.51    0.66 
 -11   5  -3    8.97    0.77 
  13   5   3   -0.04    0.17 
 -13   5  -3    0.34    0.29 
  14  -6  -3    0.13    0.21 
  14   6  -3    0.11    0.20 
 -14   6   3    0.11    0.29 
  12  -6  -3    7.05    0.73 
 -12   6   3    7.13    0.82 
  12   6  -3    8.49    0.86 
 -10   6   3    4.58    0.61 
  10   6  -3    4.06    0.55 
 -10   6   3    5.33    0.66 
   8  -6  -3    2.34    0.42 
   8   6  -3    1.87    0.38 
  -8   6   3    1.81    0.35 
   8   6  -3    2.15    0.40 
   6  -6  -3    7.51    0.67 
   6   6  -3    6.03    0.63 
  -6   6   3    6.23    0.63 
   4  -6  -3    1.06    0.27 
   4   6  -3    0.50    0.21 
  -4   6   3    0.76    0.25 
   2  -6  -3   12.23    0.70 
  -2   6   3   11.60    0.70 
   2   6  -3   11.34    0.71 
   0  -6   3   42.91    1.39 
   0   6  -3   42.17    1.41 
   0   6   3   42.32    1.41 
   2  -6   3    0.07    0.16 
  -2   6  -3    0.23    0.18 
   2   6   3   -0.04    0.16 
   4  -6   3    4.38    0.50 
   4   6   3    3.56    0.45 
  -4   6  -3    4.80    0.49 
   6  -6   3    6.59    0.61 
   6   6   3    7.11    0.57 
  -6   6  -3    5.82    0.55 
   8  -6   3    0.39    0.24 
  -8   6  -3    0.47    0.30 
   8   6   3    0.12    0.17 
  -8   6  -3    0.12    0.11 
 -10   6  -3    0.41    0.28 
  10   6   3   -0.11    0.16 
 -12   6  -3    2.70    0.54 
  11   7  -3    0.07    0.23 
 -11   7   3    0.10    0.30 
   9   7  -3    0.37    0.25 
  -9   7   3    0.29    0.33 
   7   7  -3    1.81    0.39 
  -7   7   3    1.49    0.37 
   5   7  -3    0.16    0.19 
  -5   7   3    0.09    0.20 
  -3   7   3    2.71    0.46 
   3   7  -3    1.46    0.36 
   1   7  -3   -0.07    0.21 
  -1   7   3    0.46    0.25 
  -1   7  -3    5.07    0.58 
   1   7   3    4.21    0.52 
   3  -7   3    1.15    0.31 
  -3   7  -3    0.76    0.25 
   3   7   3    0.73    0.27 
   5  -7   3    1.32    0.33 
  -5   7  -3    1.29    0.31 
   5   7   3    1.07    0.32 
  -7   7  -3    0.27    0.20 
   7   7   3    0.37    0.23 
   9   7   3    0.47    0.26 
  -9   7  -3    0.48    0.33 
  11   7   3    1.19    0.35 
 -11   7  -3    1.89    0.48 
  10   8  -3    0.05    0.28 
 -10   8   3   -0.25    0.24 
   8   8  -3   -0.03    0.21 
  -6   8   3   -0.19    0.16 
   6   8  -3   -0.16    0.21 
  -4   8   3    0.11    0.23 
   4   8  -3    0.29    0.22 
   2   8  -3    0.23    0.23 
  -2   8   3    0.23    0.23 
   0   8  -3    4.97    0.66 
   0   8   3    5.55    0.67 
   2   8   3    0.59    0.27 
  -2   8  -3    0.50    0.24 
  -4   8  -3   -0.11    0.16 
   4   8   3    0.07    0.21 
   6   8   3    1.18    0.34 
  -8   8  -3   -0.42    0.27 
   8   8   3    0.17    0.23 
  10   8   3    1.47    0.43 
 -10   8  -3    0.55    0.37 
   7   9  -3    0.00    0.24 
   5   9  -3   -0.04    0.23 
  -5   9   3    0.41    0.30 
  -3   9   3    0.02    0.23 
   3   9  -3    0.09    0.22 
   1   9  -3    0.28    0.28 
  -1   9   3    0.86    0.36 
  -1   9  -3    1.29    0.40 
   1   9   3    0.33    0.27 
   3   9   3   -0.18    0.20 
  -3   9  -3   -0.09    0.22 
   5   9   3    0.25    0.26 
   7   9   3    0.60    0.34 
  -2  10   3    0.15    0.30 
   2  10  -3    0.40    0.34 
   0  10  -3    0.32    0.36 
   0  10   3    0.04    0.27 
   2  10   3    0.45    0.33 
  16   0  -4    0.49    0.19 
  14   0  -4    1.63    0.32 
  12   0  -4   19.59    0.92 
  12   0  -4   18.32    0.88 
  12   0  -4   20.59    0.89 
 -12   0   4   20.02    0.75 
  10   0  -4   27.24    1.00 
 -10   0   4   26.49    0.87 
  10   0  -4   28.18    0.96 
  10   0  -4   28.17    0.99 
   8   0  -4  151.37    3.04 
   8   0  -4  158.79    3.07 
   8   0  -4  151.80    3.05 
  -8   0   4  156.18    2.95 
   6   0  -4   22.13    0.69 
   6   0  -4   22.11    0.66 
  -6   0   4   22.30    0.68 
  -6   0   4   21.39    0.65 
   6   0  -4   22.39    0.70 
   4   0  -4  703.72   11.96 
   4   0  -4  723.39   11.82 
   4   0  -4  706.43   11.82 
  -4   0   4  709.90   11.81 
  -4   0   4  707.39   11.79 
   2   0  -4   39.92    0.86 
  -2   0   4   42.66    0.88 
   2   0  -4   42.00    0.72 
  -2   0   4   42.48    0.87 
   2   0  -4   41.11    0.87 
   0   0   4   14.39    0.33 
   0   0   4   14.99    0.33 
   0   0  -4   14.72    0.32 
   0   0  -4   14.45    0.32 
   0   0   4   14.84    0.35 
   2   0   4   79.10    1.56 
   4   0   4    7.01    0.36 
   6   0   4    3.72    0.19 
   6   0   4    3.93    0.20 
   6   0   4    4.87    0.37 
   8   0   4    2.40    0.34 
   8   0   4    2.93    0.21 
   8   0   4    3.08    0.23 
  10   0   4   16.76    0.65 
  10   0   4   17.24    0.64 
  10   0   4   16.68    0.86 
  12   0   4   14.74    0.65 
  12   0   4   15.27    0.69 
  14   0   4    0.07    0.15 
  16   0   4    0.28    0.18 
  17  -1  -4   -0.14    0.17 
  17   1  -4   -0.05    0.20 
  15  -1  -4    0.76    0.28 
  15   1  -4    0.60    0.23 
  13  -1  -4    0.10    0.22 
  13  -1  -4    0.24    0.21 
  13  -1  -4    0.06    0.15 
  13   1  -4    0.35    0.20 
  13   1  -4    0.00    0.18 
 -13   1   4    0.39    0.16 
  11  -1  -4   17.51    0.81 
  11  -1  -4   15.68    0.81 
  11  -1  -4   16.33    0.76 
  11   1  -4   17.08    0.80 
  11   1  -4   18.21    0.79 
  11   1  -4   18.28    0.83 
 -11   1   4   17.92    0.71 
   9  -1  -4    0.40    0.14 
   9  -1  -4    0.68    0.19 
   9  -1  -4    0.16    0.13 
  -9   1   4   -0.03    0.05 
   9   1  -4    0.30    0.14 
   9   1  -4    0.10    0.11 
   9   1  -4    0.11    0.13 
  -7  -1   4   36.80    0.99 
   7  -1  -4   38.37    1.02 
  -7  -1   4   36.66    0.97 
   7  -1  -4   37.77    1.03 
   7  -1  -4   35.27    1.03 
   7   1  -4   36.24    1.01 
   7   1  -4   37.43    1.02 
  -7   1   4   36.78    0.99 
  -7   1   4   36.88    1.01 
  -5  -1   4    1.19    0.17 
  -5  -1   4    1.09    0.15 
   5  -1  -4    1.23    0.18 
   5  -1  -4    1.16    0.17 
  -5   1   4    1.27    0.18 
  -5   1   4    0.94    0.15 
   5   1  -4    1.39    0.18 
   5   1  -4    1.08    0.16 
   3  -1  -4   30.86    0.76 
   3  -1  -4   31.43    0.78 
  -3  -1   4   32.63    0.78 
  -3  -1   4   32.41    0.79 
  -3   1   4   31.89    0.80 
   3   1  -4   31.95    0.80 
   3   1  -4   30.93    0.77 
  -1  -1   4   28.11    0.65 
   1  -1  -4   28.92    0.65 
  -1  -1   4   28.85    0.65 
   1  -1  -4   27.91    0.64 
   1   1  -4   27.69    0.65 
   1   1  -4   29.57    0.66 
  -1  -1  -4  899.78   14.92 
   1  -1   4  879.05   14.68 
  -1   1  -4  848.89   14.90 
  -1   1  -4  889.56   14.76 
   1   1   4  902.41   14.94 
  -1   1  -4  855.38   14.79 
   3  -1   4   19.69    0.65 
   3  -1   4   20.54    0.47 
  -3   1  -4   20.21    0.37 
  -3   1  -4   21.12    0.37 
  -3   1  -4   20.33    0.64 
   3   1   4   20.17    0.45 
   5  -1   4   53.31    1.07 
   5  -1   4   52.97    1.35 
  -5   1  -4   51.25    1.35 
   5   1   4   53.48    1.07 
   7  -1   4    3.18    0.23 
   7  -1   4    3.40    0.38 
   7   1   4    3.56    0.23 
  -7   1  -4    3.32    0.38 
   7   1   4    3.48    0.22 
   9  -1   4    9.80    0.43 
   9  -1   4   10.36    0.47 
   9  -1   4    9.55    0.61 
   9   1   4   10.82    0.65 
   9   1   4    9.46    0.44 
   9   1   4    9.89    0.45 
  11  -1   4    0.22    0.13 
  11  -1   4    0.22    0.15 
  11   1   4    0.10    0.13 
  11   1   4    0.24    0.14 
  13  -1   4    0.29    0.15 
  13  -1   4    0.75    0.22 
  13   1   4    0.09    0.15 
  13   1   4    0.08    0.14 
  15  -1   4    0.27    0.17 
  15   1   4    0.22    0.17 
  16  -2  -4    0.18    0.21 
  16   2  -4    0.50    0.26 
  14  -2  -4    0.02    0.17 
  14   2  -4   -0.01    0.14 
  12  -2  -4    2.39    0.37 
  12  -2  -4    2.98    0.41 
  12   2  -4    3.21    0.44 
 -12   2   4    2.76    0.34 
  12   2  -4    2.61    0.39 
  12   2  -4    3.42    0.44 
  10  -2  -4    5.44    0.45 
  10  -2  -4    4.14    0.42 
  10   2  -4    5.21    0.49 
 -10   2   4    5.54    0.45 
  10   2  -4    5.46    0.43 
   8  -2  -4   13.55    0.60 
  -8  -2   4   13.47    0.56 
   8  -2  -4   14.37    0.65 
  -8   2   4   14.10    0.64 
   8   2  -4   14.23    0.62 
  -8   2   4   14.43    0.61 
   8   2  -4   14.03    0.65 
   6  -2  -4    2.34    0.26 
  -6  -2   4    2.01    0.24 
   6  -2  -4    2.17    0.27 
   6   2  -4    2.53    0.28 
  -6   2   4    2.48    0.28 
  -6   2   4    2.13    0.25 
   6   2  -4    3.04    0.31 
   4  -2  -4   30.74    0.86 
  -4  -2   4   31.54    0.84 
   4   2  -4   30.66    0.84 
  -4   2   4   30.78    0.85 
   4   2  -4   29.79    0.87 
   2  -2  -4    2.11    0.21 
  -2  -2   4    2.48    0.24 
   2   2  -4    1.64    0.19 
  -2   2   4    2.64    0.25 
   2   2  -4    2.25    0.22 
   0  -2   4   46.36    1.04 
   0  -2  -4   48.66    1.05 
   0   2   4   47.87    1.06 
   0   2  -4   48.48    1.06 
   2  -2   4   97.58    1.83 
  -2  -2  -4   97.59    1.81 
   2   2   4   92.89    1.83 
  -4  -2  -4   16.96    0.46 
   4  -2   4   16.65    0.51 
  -4   2  -4   16.69    0.47 
   4   2   4   16.73    0.50 
  -4   2  -4   16.60    0.66 
  -6  -2  -4    2.88    0.16 
   6  -2   4    2.45    0.24 
  -6   2  -4    2.45    0.34 
   6   2   4    3.06    0.22 
  -6   2  -4    2.98    0.17 
  -8  -2  -4    0.30    0.06 
   8  -2   4    0.72    0.23 
   8  -2   4    0.46    0.14 
  -8   2  -4    0.26    0.07 
  -8   2  -4    0.21    0.16 
   8   2   4    0.19    0.10 
   8   2   4    0.27    0.11 
  10  -2   4    0.24    0.14 
  10  -2   4    0.00    0.09 
  10   2   4    0.30    0.14 
 -10   2  -4   -0.13    0.16 
  10   2   4    0.10    0.10 
  12  -2   4    5.74    0.44 
  12  -2   4    5.88    0.45 
  12   2   4    5.37    0.43 
  12   2   4    5.68    0.44 
  14  -2   4    0.39    0.19 
  14   2   4    0.30    0.19 
  16  -2   4    0.21    0.20 
  16   2   4    0.64    0.27 
  15  -3  -4    0.65    0.25 
  15   3  -4    0.64    0.27 
  13  -3  -4   -0.05    0.12 
  13   3  -4    0.13    0.18 
  11  -3  -4   -0.06    0.17 
  11  -3  -4    0.08    0.15 
 -11   3   4    0.13    0.10 
  11   3  -4    0.01    0.16 
 -11   3   4    0.12    0.19 
  11   3  -4   -0.03    0.14 
   9  -3  -4    1.39    0.28 
   9  -3  -4    1.43    0.26 
  -9   3   4    1.77    0.27 
   9   3  -4    1.94    0.32 
   9   3  -4    2.10    0.33 
  -9   3   4    1.77    0.30 
   7  -3  -4    0.07    0.12 
  -7  -3   4   -0.01    0.09 
  -7   3   4    0.11    0.13 
   7   3  -4   -0.09    0.10 
   7   3  -4    0.10    0.10 
  -7   3   4    0.00    0.10 
  -5  -3   4    0.26    0.11 
   5  -3  -4    0.35    0.15 
   5   3  -4    0.31    0.14 
  -5   3   4    0.27    0.14 
   5   3  -4    0.11    0.10 
   3  -3  -4   11.21    0.50 
  -3  -3   4   10.98    0.49 
   3   3  -4   10.79    0.50 
  -3   3   4   11.37    0.51 
  -1  -3   4   38.21    1.01 
   1  -3  -4   38.34    1.00 
   1   3  -4   38.92    1.01 
  -1   3   4   38.45    1.02 
   1  -3   4   38.34    0.99 
  -1  -3  -4   38.26    0.97 
   1   3   4   37.91    0.99 
  -1   3  -4   39.11    1.00 
   3  -3   4   33.58    0.90 
  -3  -3  -4   33.97    0.89 
   3   3   4   33.04    0.90 
   5  -3   4    1.47    0.21 
  -5  -3  -4    1.41    0.17 
  -5   3  -4    1.76    0.20 
   5   3   4    1.30    0.20 
  -5   3  -4    1.29    0.26 
   7  -3   4   12.10    0.54 
  -7  -3  -4   13.21    0.46 
   7   3   4   12.91    0.55 
  -7   3  -4   12.62    0.46 
  -7   3  -4   12.92    0.69 
   9  -3   4    7.85    0.48 
   9   3   4    8.62    0.50 
  -9   3  -4    9.39    0.65 
   9   3   4    8.88    0.50 
  -9   3  -4    8.79    0.36 
  11  -3   4    2.76    0.36 
  11   3   4    2.36    0.33 
  11   3   4    2.12    0.33 
 -11   3  -4    2.19    0.15 
 -11   3  -4    2.15    0.43 
  13  -3   4    3.82    0.45 
  13   3   4    3.39    0.44 
  15  -3   4    0.09    0.20 
  15   3   4    0.06    0.18 
  16  -4  -4    0.12    0.21 
  16   4  -4   -0.14    0.20 
  14  -4  -4    0.62    0.26 
 -14   4   4    0.15    0.22 
  14   4  -4    0.13    0.19 
  12  -4  -4    0.57    0.22 
 -12   4   4    0.37    0.18 
 -12   4   4    0.39    0.25 
  12   4  -4    0.39    0.21 
  10  -4  -4    0.62    0.22 
  10  -4  -4    0.47    0.23 
  10   4  -4    0.38    0.19 
 -10   4   4    0.71    0.21 
 -10   4   4    0.24    0.20 
  10   4  -4    0.53    0.23 
   8  -4  -4    2.93    0.40 
   8   4  -4    2.84    0.39 
  -8   4   4    2.46    0.37 
  -8   4   4    2.84    0.35 
   8   4  -4    2.53    0.35 
   6  -4  -4    0.26    0.17 
  -6  -4   4    0.27    0.14 
   6   4  -4    0.02    0.12 
   6   4  -4    0.34    0.15 
  -6   4   4   -0.02    0.13 
   4  -4  -4    0.66    0.18 
  -4  -4   4    0.12    0.12 
  -4   4   4    0.15    0.14 
   4   4  -4    0.17    0.13 
  -2  -4   4    0.30    0.14 
   2  -4  -4    0.09    0.11 
  -2   4   4    0.05    0.12 
   2   4  -4    0.23    0.14 
   0  -4  -4    4.69    0.34 
   0  -4   4    4.42    0.34 
   0   4   4    3.77    0.36 
   0   4  -4    4.32    0.35 
  -2  -4  -4   32.57    0.98 
   2  -4   4   33.83    1.00 
   2   4   4   32.89    1.01 
  -2   4  -4   33.62    1.01 
   4  -4   4    3.43    0.34 
  -4  -4  -4    3.79    0.30 
   4   4   4    3.82    0.38 
  -4   4  -4    3.60    0.34 
   6  -4   4    1.63    0.26 
  -6   4  -4    1.51    0.23 
  -6   4  -4    1.63    0.33 
   6   4   4    1.52    0.24 
   8  -4   4    0.30    0.18 
  -8   4  -4    0.21    0.12 
  -8   4  -4    0.86    0.30 
   8   4   4    0.33    0.17 
  10  -4   4    3.01    0.40 
  10   4   4    2.80    0.39 
  10   4   4    2.36    0.35 
 -10   4  -4    2.53    0.27 
 -10   4  -4    2.15    0.42 
  12   4   4    0.29    0.17 
 -12   4  -4   -0.12    0.19 
  14  -4   4    0.05    0.17 
  14   4   4    0.06    0.17 
 -14   4  -4    0.07    0.27 
  15  -5  -4   -0.18    0.19 
  15   5  -4    0.16    0.21 
 -15   5   4   -0.28    0.21 
  13  -5  -4    0.15    0.20 
  13   5  -4    0.12    0.19 
 -13   5   4    0.02    0.23 
  11  -5  -4    1.05    0.29 
  11   5  -4    0.99    0.30 
 -11   5   4    0.24    0.25 
 -11   5   4    0.50    0.22 
   9  -5  -4    0.10    0.20 
   9   5  -4    0.59    0.24 
  -9   5   4    0.23    0.22 
  -9   5   4    0.30    0.18 
   9   5  -4    0.27    0.20 
   7  -5  -4    0.51    0.21 
   7   5  -4    0.39    0.20 
  -7   5   4    1.05    0.27 
   7   5  -4    0.74    0.25 
   5  -5  -4   -0.15    0.12 
  -5   5   4    0.12    0.15 
   5   5  -4    0.09    0.15 
  -3  -5   4    0.06    0.12 
   3  -5  -4    0.37    0.18 
   3   5  -4    0.18    0.16 
  -3   5   4    0.22    0.15 
  -1  -5   4    0.73    0.21 
   1  -5  -4    0.80    0.21 
   1   5  -4    0.60    0.20 
  -1   5   4    1.13    0.25 
   1  -5   4    0.22    0.14 
  -1  -5  -4    0.02    0.11 
   1   5   4   -0.02    0.13 
  -1   5  -4    0.08    0.14 
   3  -5   4    0.30    0.15 
   3   5   4   -0.11    0.12 
  -3   5  -4    0.03    0.13 
   5  -5   4    1.71    0.30 
  -5   5  -4    2.13    0.30 
   5   5   4    1.64    0.28 
   7  -5   4    0.03    0.15 
  -7   5  -4    0.09    0.22 
  -7   5  -4   -0.06    0.11 
   7   5   4   -0.05    0.11 
   9  -5   4    1.71    0.34 
  -9   5  -4    1.52    0.39 
   9   5   4    1.76    0.34 
  -9   5  -4    1.57    0.25 
 -11   5  -4    1.04    0.35 
  11   5   4    0.78    0.26 
  13   5   4    0.19    0.20 
 -13   5  -4    0.39    0.29 
  14  -6  -4    0.03    0.20 
 -14   6   4    0.68    0.32 
  14   6  -4    0.05    0.24 
  12  -6  -4    0.98    0.29 
 -12   6   4   -0.12    0.22 
  12   6  -4    0.22    0.26 
 -10   6   4   -0.01    0.18 
 -10   6   4   -0.07    0.20 
  10   6  -4    0.21    0.22 
   8  -6  -4    0.06    0.22 
   8   6  -4    0.20    0.20 
   8   6  -4    0.01    0.20 
  -8   6   4    0.69    0.26 
   6  -6  -4    0.13    0.21 
  -6   6   4    0.40    0.20 
   6   6  -4    0.53    0.22 
   4  -6  -4    1.86    0.36 
  -4   6   4    1.83    0.35 
   4   6  -4    1.54    0.32 
  -2  -6   4   13.29    0.74 
   2  -6  -4   13.19    0.73 
   2   6  -4   11.48    0.72 
  -2   6   4   13.50    0.76 
   0  -6   4    8.63    0.59 
   0   6   4    9.20    0.63 
   0   6  -4    8.38    0.61 
   2  -6   4    5.19    0.53 
   2   6   4    6.50    0.53 
  -2   6  -4    4.73    0.50 
   4  -6   4   14.01    0.74 
  -4   6  -4   14.63    0.76 
   4   6   4   14.49    0.78 
   6  -6   4    0.25    0.20 
   6   6   4    0.15    0.16 
  -6   6  -4   -0.27    0.10 
   8  -6   4    0.02    0.21 
  -8   6  -4    0.27    0.26 
   8   6   4    0.41    0.21 
  -8   6  -4    0.49    0.18 
  10   6   4   -0.05    0.15 
 -10   6  -4    0.28    0.27 
 -12   6  -4    0.33    0.28 
  12   6   4   -0.11    0.18 
  11   7  -4    6.04    0.76 
 -11   7   4    6.18    0.79 
  -9   7   4    0.10    0.29 
   9   7  -4    0.52    0.28 
  -7   7   4   10.16    0.75 
   7   7  -4    9.40    0.74 
   5   7  -4    8.51    0.68 
  -5   7   4    9.24    0.70 
   3   7  -4   -0.10    0.18 
  -3   7   4    0.91    0.28 
   1   7  -4   11.64    0.77 
  -1   7   4   11.04    0.77 
   1   7   4    9.05    0.68 
  -1   7  -4    9.57    0.69 
   3  -7   4    0.02    0.17 
  -3   7  -4   -0.06    0.16 
   3   7   4   -0.14    0.15 
   5  -7   4    0.66    0.25 
  -5   7  -4    1.24    0.32 
   5   7   4    0.83    0.28 
  -7   7  -4    0.77    0.31 
   7   7   4    1.31    0.33 
  -9   7  -4    3.39    0.64 
   9   7   4    4.15    0.58 
 -11   7  -4    0.51    0.30 
  11   7   4    0.35    0.24 
 -10   8   4    0.21    0.35 
  10   8  -4    0.26    0.29 
   8   8  -4    0.48    0.26 
   6   8  -4   -0.03    0.19 
  -6   8   4   -0.05    0.18 
  -4   8   4   -0.04    0.19 
   4   8  -4    0.16    0.21 
   2   8  -4    0.95    0.36 
  -2   8   4    0.76    0.29 
   0   8   4    3.10    0.51 
   0   8  -4    3.80    0.56 
  -2   8  -4    0.18    0.21 
   2   8   4    0.79    0.31 
  -4   8  -4    1.20    0.37 
   4   8   4    1.06    0.36 
   6   8   4    0.36    0.25 
   8   8   4   -0.23    0.19 
  -8   8  -4    0.09    0.35 
 -10   8  -4   -0.11    0.29 
  10   8   4   -0.07    0.22 
   7   9  -4   -0.08    0.29 
  -5   9   4    0.61    0.29 
   5   9  -4    0.68    0.33 
  -3   9   4    0.03    0.26 
   3   9  -4   -0.06    0.24 
   1   9  -4    1.18    0.40 
  -1   9   4    2.23    0.49 
  -1   9  -4   10.25    0.84 
   1   9   4    7.22    0.83 
   3   9   4   -0.18    0.23 
   5   9   4    0.26    0.26 
   7   9   4    0.20    0.25 
   2  10  -4    0.49    0.33 
  -2  10   4    0.45    0.32 
   0  10   4    1.35    0.46 
   2  10   4    0.40    0.31 
  16   0  -5    0.27    0.21 
  14   0  -5   -0.21    0.13 
 -12   0   5    0.18    0.15 
  12   0  -5    0.24    0.17 
  12   0  -5   -0.12    0.17 
  12   0  -5    0.08    0.17 
 -10   0   5    0.09    0.08 
  10   0  -5    0.14    0.13 
  10   0  -5   -0.02    0.13 
  10   0  -5    0.14    0.15 
  -8   0   5    0.04    0.11 
   8   0  -5    0.13    0.14 
  -8   0   5    0.02    0.10 
   8   0  -5    0.09    0.12 
   8   0  -5    0.28    0.15 
   6   0  -5    0.00    0.09 
  -6   0   5    0.05    0.10 
  -6   0   5    0.13    0.09 
   6   0  -5   -0.05    0.07 
   6   0  -5    0.05    0.09 
   4   0  -5    0.02    0.06 
   4   0  -5    0.13    0.10 
  -4   0   5   -0.03    0.07 
   4   0  -5    0.13    0.10 
  -4   0   5    0.14    0.10 
   2   0  -5   -0.05    0.06 
  -2   0   5    0.02    0.08 
  -2   0   5   -0.15    0.05 
   2   0  -5    0.08    0.07 
   0   0  -5   -0.06    0.04 
   0   0   5   -0.07    0.04 
   0   0  -5    0.00    0.04 
   0   0   5   -0.04    0.04 
   0   0   5   -0.12    0.03 
   2   0   5   -0.02    0.07 
   4   0   5   -0.08    0.07 
   6   0   5    0.05    0.11 
   6   0   5   -0.08    0.05 
   6   0   5    0.03    0.05 
   8   0   5   -0.23    0.10 
   8   0   5    0.03    0.07 
   8   0   5    0.10    0.07 
  10   0   5    0.03    0.09 
  10   0   5    0.02    0.09 
  10   0   5   -0.04    0.16 
  12   0   5    0.04    0.11 
  12   0   5    0.05    0.11 
  14   0   5    0.21    0.15 
  16   0   5    0.09    0.16 
  17  -1  -5   -0.03    0.19 
  17   1  -5    0.05    0.18 
  15  -1  -5    0.22    0.19 
  15   1  -5    0.32    0.20 
  13  -1  -5    2.73    0.40 
  13  -1  -5    3.06    0.44 
  13  -1  -5    3.09    0.43 
  13   1  -5    3.33    0.45 
 -13   1   5    2.99    0.35 
  13   1  -5    4.22    0.50 
  13   1  -5    3.02    0.42 
  11  -1  -5    5.22    0.51 
  11  -1  -5    4.41    0.47 
  11  -1  -5    5.37    0.53 
  11   1  -5    5.18    0.51 
  11   1  -5    5.28    0.51 
  11   1  -5    5.56    0.46 
  -9  -1   5    4.82    0.36 
   9  -1  -5    5.45    0.40 
   9  -1  -5    5.87    0.41 
   9  -1  -5    5.18    0.40 
   9   1  -5    4.90    0.44 
  -9   1   5    5.19    0.37 
   9   1  -5    5.33    0.38 
   9   1  -5    5.54    0.41 
   7  -1  -5    7.46    0.39 
  -7  -1   5    6.66    0.38 
   7  -1  -5    6.07    0.39 
  -7  -1   5    6.97    0.37 
   7   1  -5    7.49    0.42 
  -7   1   5    6.58    0.37 
  -7   1   5    8.00    0.41 
   7   1  -5    7.16    0.41 
   5  -1  -5    5.06    0.30 
  -5  -1   5    6.01    0.33 
   5  -1  -5    5.38    0.32 
  -5  -1   5    5.55    0.31 
  -5   1   5    5.63    0.32 
  -5   1   5    5.19    0.27 
   5   1  -5    5.77    0.33 
   5   1  -5    5.14    0.31 
   3  -1  -5  117.41    2.19 
  -3  -1   5  113.40    2.19 
   3  -1  -5  115.11    2.22 
  -3  -1   5  117.34    2.19 
  -3   1   5  116.18    2.23 
   3   1  -5  117.78    2.20 
   3   1  -5  113.54    2.22 
  -1  -1   5   62.17    1.23 
  -1  -1   5   61.82    1.23 
   1  -1  -5   63.84    1.22 
  -1   1   5   62.67    1.24 
   1   1  -5   62.66    1.23 
   1   1  -5   62.28    1.23 
   1  -1   5    2.60    0.14 
  -1  -1  -5    2.95    0.13 
   1  -1   5    2.81    0.14 
  -1  -1  -5    2.69    0.13 
  -1   1  -5    2.77    0.14 
   1   1   5    3.03    0.15 
  -1   1  -5    2.75    0.21 
  -1   1  -5    2.92    0.14 
   3  -1   5    0.73    0.08 
   3  -1   5    0.85    0.16 
  -3   1  -5    0.79    0.16 
   3   1   5    0.82    0.08 
   5  -1   5    1.86    0.25 
   5  -1   5    1.60    0.13 
   5   1   5    1.69    0.13 
  -5   1  -5    1.27    0.21 
   7  -1   5    4.77    0.40 
   7  -1   5    4.85    0.26 
   7   1   5    5.11    0.27 
   7   1   5    4.67    0.25 
   9  -1   5    2.03    0.23 
   9  -1   5    1.64    0.20 
   9  -1   5    2.02    0.37 
   9   1   5    2.32    0.38 
   9   1   5    1.62    0.21 
   9   1   5    2.13    0.24 
  11  -1   5    0.25    0.13 
  11  -1   5    0.39    0.15 
  11   1   5    0.35    0.15 
  11   1   5   -0.04    0.10 
  13  -1   5   -0.01    0.14 
  13  -1   5    0.00    0.14 
  13   1   5   -0.01    0.15 
  13   1   5    0.04    0.13 
  15  -1   5   -0.11    0.13 
  15   1   5    0.24    0.19 
  16  -2  -5    0.05    0.16 
  16   2  -5    0.22    0.19 
  14  -2  -5    0.43    0.21 
  14   2  -5    0.21    0.19 
  12  -2  -5    0.23    0.18 
  12  -2  -5    0.14    0.18 
 -12   2   5    0.07    0.14 
  12   2  -5   -0.02    0.16 
  12   2  -5    0.38    0.20 
  12   2  -5    0.30    0.19 
  10  -2  -5    0.25    0.18 
  10  -2  -5    0.26    0.16 
 -10   2   5    0.25    0.15 
 -10   2   5   -0.07    0.11 
  10   2  -5    0.23    0.17 
  10   2  -5    0.34    0.16 
   8  -2  -5    4.30    0.42 
   8  -2  -5    3.34    0.35 
  -8  -2   5    3.76    0.30 
  -8   2   5    4.61    0.35 
   8   2  -5    4.01    0.39 
  -8   2   5    4.27    0.40 
   8   2  -5    4.60    0.38 
   6  -2  -5    7.67    0.43 
   6  -2  -5    7.38    0.40 
  -6  -2   5    8.47    0.43 
  -6   2   5    7.72    0.42 
  -6   2   5    7.96    0.41 
   6   2  -5    7.80    0.43 
   6   2  -5    8.46    0.44 
   4  -2  -5    1.81    0.22 
  -4  -2   5    1.49    0.19 
  -4   2   5    1.51    0.21 
   4   2  -5    1.79    0.22 
   4   2  -5    1.63    0.21 
  -2  -2   5    6.68    0.32 
   2  -2  -5    6.82    0.34 
   2   2  -5    6.99    0.33 
  -2   2   5    7.06    0.35 
   2   2  -5    6.83    0.34 
   0  -2  -5  309.88    5.31 
   0  -2   5  312.86    5.31 
   0   2   5  303.28    5.31 
   0   2  -5  308.23    5.31 
   2  -2   5   -0.02    0.06 
  -2   2  -5    0.07    0.07 
   2   2   5    0.19    0.07 
   4  -2   5   11.41    0.40 
  -4  -2  -5   10.74    0.33 
   4   2   5   11.04    0.40 
  -4   2  -5   11.58    0.34 
  -4   2  -5   11.13    0.54 
   6  -2   5    9.27    0.39 
  -6  -2  -5    9.10    0.25 
  -6   2  -5    9.53    0.55 
   6   2   5    8.94    0.37 
  -6   2  -5    9.34    0.27 
   8  -2   5    2.26    0.38 
   8  -2   5    2.17    0.25 
  -8   2  -5    2.18    0.34 
   8   2   5    1.96    0.24 
  10  -2   5    5.23    0.37 
 -10   2  -5    5.89    0.62 
  10   2   5    5.86    0.39 
  10   2   5    5.67    0.38 
  12  -2   5    1.87    0.30 
  12  -2   5    2.08    0.32 
  12   2   5    1.47    0.28 
  12   2   5    1.59    0.28 
  14  -2   5    0.13    0.16 
  14   2   5    0.49    0.20 
  16  -2   5    0.27    0.19 
  16   2   5    0.08    0.18 
  15  -3  -5    1.20    0.33 
  15   3  -5    1.46    0.35 
  13  -3  -5    0.43    0.22 
  13   3  -5    0.33    0.20 
  11  -3  -5    0.14    0.19 
  11  -3  -5    0.10    0.19 
  11   3  -5    0.40    0.20 
  11   3  -5   -0.01    0.15 
 -11   3   5    0.33    0.20 
 -11   3   5    0.23    0.16 
   9  -3  -5    4.11    0.46 
   9  -3  -5    2.96    0.36 
   9   3  -5    3.27    0.40 
  -9   3   5    2.63    0.37 
   9   3  -5    3.63    0.42 
  -9   3   5    2.77    0.34 
   7  -3  -5    0.57    0.18 
  -7  -3   5    0.67    0.16 
  -7   3   5    0.50    0.18 
   7   3  -5    0.92    0.22 
   7   3  -5    0.82    0.21 
  -7   3   5    0.85    0.20 
  -5  -3   5   -0.03    0.08 
   5  -3  -5    0.16    0.13 
  -5   3   5   -0.02    0.10 
   5   3  -5   -0.05    0.07 
   5   3  -5   -0.05    0.09 
   3  -3  -5    0.15    0.11 
  -3  -3   5   -0.02    0.08 
   3   3  -5   -0.05    0.08 
  -3   3   5    0.10    0.11 
   1  -3  -5   27.59    0.81 
  -1  -3   5   27.59    0.81 
   1   3  -5   26.93    0.81 
  -1   3   5   26.84    0.82 
   1  -3   5  131.66    2.52 
  -1  -3  -5  129.28    2.50 
   1   3   5  128.47    2.53 
  -1   3  -5  127.41    2.51 
  -3  -3  -5    3.62    0.24 
   3  -3   5    3.16    0.25 
   3   3   5    3.04    0.25 
  -5  -3  -5   19.49    0.59 
   5  -3   5   19.00    0.65 
   5   3   5   18.48    0.64 
  -5   3  -5   20.14    0.84 
  -5   3  -5   19.49    0.59 
  -7  -3  -5    0.38    0.09 
   7  -3   5    0.73    0.17 
  -7   3  -5    0.37    0.10 
  -7   3  -5    0.64    0.23 
   7   3   5    0.44    0.14 
   9  -3   5   11.06    0.56 
  -9   3  -5   10.79    0.75 
   9   3   5   11.66    0.57 
  -9   3  -5   11.37    0.36 
  11  -3   5    1.97    0.31 
  11   3   5    1.76    0.29 
 -11   3  -5    2.00    0.41 
  11   3   5    2.42    0.34 
  13  -3   5    0.82    0.24 
  13   3   5    1.05    0.27 
  15  -3   5   -0.02    0.15 
  15   3   5   -0.06    0.15 
  16  -4  -5   -0.14    0.16 
  16   4  -5    0.12    0.23 
  14  -4  -5    0.14    0.21 
  14   4  -5    0.21    0.23 
 -14   4   5    0.01    0.20 
  12  -4  -5    0.19    0.18 
  12   4  -5   -0.16    0.15 
 -12   4   5    0.31    0.17 
 -12   4   5    0.45    0.24 
  10  -4  -5    0.75    0.25 
  10  -4  -5    1.13    0.30 
 -10   4   5    0.58    0.24 
  10   4  -5    0.64    0.24 
  10   4  -5    0.67    0.26 
 -10   4   5    0.53    0.21 
   8  -4  -5    0.18    0.19 
  -8   4   5    0.61    0.21 
  -8   4   5    0.38    0.20 
   8   4  -5    0.47    0.21 
   8   4  -5    0.27    0.17 
  -6  -4   5    5.27    0.41 
   6  -4  -5    5.68    0.45 
   6   4  -5    4.49    0.43 
   6   4  -5    4.81    0.47 
  -6   4   5    4.96    0.46 
  -4  -4   5   14.61    0.66 
   4  -4  -5   15.93    0.70 
   4   4  -5   15.43    0.69 
  -4   4   5   14.78    0.68 
  -2  -4   5   12.90    0.59 
   2  -4  -5   13.20    0.60 
  -2   4   5   14.16    0.64 
   2   4  -5   14.62    0.65 
   0  -4   5   37.05    1.09 
   0  -4  -5   37.60    1.08 
   0   4  -5   37.61    1.10 
   0   4   5   38.53    1.12 
   2  -4   5   57.82    1.45 
  -2  -4  -5   60.92    1.47 
   2   4   5   57.46    1.45 
  -2   4  -5   55.88    1.43 
  -4  -4  -5   33.45    0.95 
   4  -4   5   34.31    1.01 
   4   4   5   31.14    0.99 
   6  -4   5    6.16    0.42 
  -6   4  -5    6.42    0.38 
  -6   4  -5    6.40    0.55 
   6   4   5    5.75    0.40 
   8  -4   5    2.51    0.34 
  -8   4  -5    2.34    0.41 
   8   4   5    2.23    0.31 
  -8   4  -5    2.08    0.24 
  10  -4   5    1.08    0.27 
  10   4   5    0.49    0.20 
 -10   4  -5    0.67    0.15 
 -10   4  -5    0.68    0.29 
  12   4   5    0.23    0.19 
 -12   4  -5    0.12    0.20 
  14  -4   5    0.01    0.16 
  14   4   5    0.09    0.18 
  15  -5  -5    0.41    0.25 
  15   5  -5    1.11    0.34 
 -15   5   5    0.85    0.34 
  13  -5  -5    1.06    0.31 
 -13   5   5    0.70    0.30 
  13   5  -5    0.67    0.32 
  11  -5  -5    0.19    0.18 
 -11   5   5   -0.03    0.19 
  11   5  -5    0.24    0.20 
 -11   5   5    0.28    0.20 
   9  -5  -5    7.67    0.61 
   9   5  -5    7.66    0.60 
  -9   5   5    7.24    0.56 
  -9   5   5    6.84    0.60 
   9   5  -5    6.89    0.67 
   7  -5  -5    4.55    0.51 
   7   5  -5    5.87    0.59 
   7   5  -5    4.42    0.50 
  -7   5   5    4.77    0.50 
   5  -5  -5   -0.09    0.14 
   5   5  -5   -0.07    0.12 
  -5   5   5    0.03    0.15 
  -3  -5   5    0.16    0.12 
   3  -5  -5   -0.01    0.12 
  -3   5   5    0.06    0.13 
   3   5  -5   -0.08    0.11 
  -1  -5   5    3.01    0.37 
   1  -5  -5    2.89    0.36 
   1   5  -5    3.60    0.42 
  -1   5   5    3.13    0.39 
  -1  -5  -5   20.52    0.79 
   1  -5   5   19.22    0.80 
   1   5   5   18.81    0.81 
  -1   5  -5   18.06    0.78 
   3  -5   5    0.10    0.13 
  -3   5  -5    0.02    0.13 
   3   5   5    0.04    0.12 
   5  -5   5    5.36    0.43 
   5   5   5    5.75    0.44 
  -5   5  -5    4.63    0.38 
   7  -5   5    0.07    0.15 
  -7   5  -5    0.21    0.13 
  -7   5  -5   -0.12    0.20 
   7   5   5    0.19    0.15 
   9  -5   5    3.39    0.43 
   9   5   5    2.73    0.39 
  -9   5  -5    3.13    0.33 
  -9   5  -5    3.66    0.57 
 -11   5  -5    1.55    0.41 
  11   5   5    1.11    0.30 
 -13   5  -5    0.26    0.26 
  13   5   5    0.79    0.28 
  14  -6  -5   -0.20    0.20 
 -14   6   5    0.25    0.28 
  14   6  -5    0.44    0.26 
  12  -6  -5    0.23    0.21 
 -12   6   5   -0.09    0.20 
  12   6  -5   -0.02    0.20 
  10   6  -5    2.26    0.47 
 -10   6   5    2.71    0.51 
 -10   6   5    2.27    0.42 
   8  -6  -5    1.29    0.35 
   8   6  -5    1.31    0.33 
  -8   6   5    1.00    0.29 
   8   6  -5    1.08    0.32 
   6  -6  -5   10.46    0.68 
  -6   6   5   11.39    0.71 
   6   6  -5    9.98    0.71 
   4  -6  -5   24.90    1.06 
  -4   6   5   23.89    1.05 
   4   6  -5   21.73    1.00 
  -2  -6   5    3.05    0.43 
   2   6  -5    2.33    0.40 
  -2   6   5    2.85    0.42 
   0  -6   5    1.71    0.32 
   0   6  -5    1.58    0.33 
   0   6   5    1.35    0.31 
   2  -6   5   15.50    0.77 
  -2   6  -5   14.31    0.77 
   2   6   5   14.29    0.77 
   4  -6   5    0.24    0.19 
  -4   6  -5    0.45    0.20 
   4   6   5    0.51    0.23 
   6  -6   5    2.80    0.40 
   6   6   5    2.92    0.42 
  -6   6  -5    2.57    0.37 
   8   6   5    1.40    0.31 
  -8   6  -5    2.10    0.47 
  -8   6  -5    1.38    0.28 
 -10   6  -5    0.39    0.26 
  10   6   5    0.83    0.26 
 -12   6  -5   -0.13    0.24 
  12   6   5    0.15    0.19 
 -11   7   5    0.97    0.40 
  11   7  -5    1.03    0.40 
  -9   7   5    0.31    0.27 
   9   7  -5    0.58    0.28 
  -7   7   5    2.79    0.48 
   7   7  -5    2.14    0.42 
   5   7  -5    0.09    0.19 
  -5   7   5    0.34    0.23 
   3   7  -5    0.40    0.27 
  -3   7   5    0.96    0.32 
   1   7  -5    1.56    0.38 
  -1   7   5    1.27    0.34 
   1  -7   5    0.34    0.24 
   1   7   5    0.63    0.27 
  -1   7  -5    0.34    0.23 
   3  -7   5    0.21    0.18 
   3   7   5   -0.05    0.18 
  -3   7  -5    0.29    0.22 
   5  -7   5    1.04    0.29 
   5   7   5    1.70    0.38 
  -5   7  -5    0.78    0.27 
   7   7   5   -0.06    0.18 
  -7   7  -5    0.17    0.30 
  -9   7  -5    0.29    0.33 
   9   7   5    0.15    0.21 
  11   7   5   -0.11    0.20 
 -11   7  -5   -0.34    0.22 
  10   8  -5    0.59    0.32 
 -10   8   5   -0.26    0.28 
   8   8  -5    0.15    0.23 
  -6   8   5    0.51    0.29 
   6   8  -5    0.05    0.18 
  -4   8   5    1.06    0.37 
   4   8  -5    1.96    0.45 
  -2   8   5    1.53    0.39 
   2   8  -5    2.10    0.44 
   0   8  -5   -0.17    0.18 
   0   8   5    0.57    0.27 
   2   8   5    0.69    0.30 
  -2   8  -5    0.47    0.26 
   4   8   5   -0.03    0.23 
  -4   8  -5    0.22    0.22 
   6   8   5    0.25    0.25 
   8   8   5    1.05    0.37 
  -8   8  -5    0.21    0.33 
  10   8   5    0.06    0.21 
 -10   8  -5    0.00    0.31 
   7   9  -5    0.11    0.29 
  -5   9   5    0.96    0.35 
   5   9  -5    0.55    0.32 
   3   9  -5    0.18    0.26 
  -3   9   5    0.22    0.24 
   1   9  -5   -0.27    0.23 
  -1   9   5    0.27    0.28 
   1   9   5    0.61    0.31 
  -1   9  -5    0.45    0.29 
   3   9   5    0.23    0.28 
   5   9   5    0.06    0.23 
   7   9   5   -0.11    0.22 
   2  10  -5    0.11    0.30 
  -2  10   5    0.86    0.40 
   0  10   5   -0.14    0.27 
   2  10   5    0.18    0.29 
  16   0  -6    0.25    0.21 
  14   0  -6   10.38    0.71 
  12   0  -6   73.14    1.95 
  12   0  -6   72.84    1.91 
  12   0  -6   69.85    1.94 
 -10   0   6    0.25    0.14 
  10   0  -6    0.37    0.16 
  10   0  -6    0.20    0.16 
  10   0  -6    0.33    0.15 
   8   0  -6  160.51    3.10 
  -8   0   6  158.86    3.11 
  -8   0   6  163.04    3.17 
   8   0  -6  157.90    3.18 
   8   0  -6  162.26    3.24 
  -6   0   6   89.73    1.87 
  -6   0   6   89.29    1.90 
   6   0  -6   90.20    1.93 
   6   0  -6   90.47    1.92 
   6   0  -6   89.27    1.77 
  -4   0   6   94.63    1.87 
   4   0  -6   94.97    1.90 
   4   0  -6   95.04    1.90 
   4   0  -6   93.80    1.69 
  -4   0   6   96.98    1.90 
   2   0  -6  236.14    4.15 
  -2   0   6  239.78    4.15 
   2   0  -6  242.70    4.16 
  -2   0   6  243.24    4.16 
   0   0   6   59.67    1.14 
   0   0  -6   58.90    1.08 
   0   0   6   59.39    1.10 
   0   0   6   57.74    1.10 
   0   0  -6   59.72    1.08 
   2   0   6   68.18    1.43 
   4   0   6    2.74    0.28 
   6   0   6  136.06    2.86 
   6   0   6  135.10    2.36 
   8   0   6    0.22    0.08 
   8   0   6   -0.15    0.11 
   8   0   6    0.21    0.09 
  10   0   6    4.41    0.31 
  10   0   6    4.09    0.30 
  12   0   6    2.94    0.33 
  12   0   6    2.99    0.33 
  14   0   6    0.61    0.21 
  16   0   6   -0.09    0.15 
  17  -1  -6    0.13    0.21 
  17   1  -6    0.27    0.23 
  15  -1  -6    0.21    0.21 
  15   1  -6    0.19    0.22 
  13  -1  -6    1.20    0.29 
  13  -1  -6    1.91    0.37 
  13  -1  -6    1.37    0.33 
  13   1  -6    1.54    0.35 
  13   1  -6    1.37    0.33 
 -13   1   6    1.23    0.25 
  13   1  -6    1.84    0.34 
  11  -1  -6    1.57    0.31 
  11  -1  -6    1.00    0.26 
  11  -1  -6    1.52    0.31 
 -11  -1   6    1.29    0.25 
 -11   1   6    1.27    0.25 
  11   1  -6    1.49    0.30 
  11   1  -6    0.98    0.26 
  11   1  -6    1.63    0.32 
   9  -1  -6    1.28    0.23 
   9  -1  -6    1.11    0.23 
   9  -1  -6    1.39    0.23 
  -9  -1   6    1.59    0.25 
  -9   1   6    1.31    0.24 
   9   1  -6    1.69    0.27 
   9   1  -6    1.07    0.22 
   9   1  -6    1.34    0.23 
   7  -1  -6    0.74    0.18 
  -7  -1   6    0.55    0.15 
   7  -1  -6    0.46    0.16 
  -7  -1   6    0.93    0.18 
  -7   1   6    0.71    0.14 
  -7   1   6    0.73    0.18 
   7   1  -6    0.57    0.16 
   7   1  -6    0.59    0.17 
   5  -1  -6   19.26    0.67 
  -5  -1   6   20.73    0.66 
  -5  -1   6   21.62    0.68 
   5  -1  -6   21.06    0.66 
  -5   1   6   20.69    0.57 
   5   1  -6   20.82    0.67 
   5   1  -6   20.46    0.69 
  -5   1   6   20.72    0.66 
  -5   1   6   20.57    0.67 
   3  -1  -6  144.06    2.69 
  -3  -1   6  145.39    2.66 
  -3  -1   6  144.20    2.68 
   3  -1  -6  141.25    2.64 
   3   1  -6  139.92    2.66 
  -3   1   6  140.09    2.66 
   3   1  -6  145.52    2.66 
  -3   1   6  142.87    2.63 
  -1  -1   6  328.56    5.53 
   1  -1  -6  325.94    5.52 
  -1  -1   6  331.88    5.54 
   1  -1  -6  331.49    5.51 
  -1   1   6  327.54    5.52 
  -1   1   6  312.66    5.52 
   1   1  -6  319.06    5.52 
   1   1  -6  331.66    5.53 
   1  -1   6   14.07    0.37 
  -1  -1  -6   14.28    0.34 
   1  -1   6   13.63    0.36 
  -1  -1  -6   13.69    0.33 
  -1   1  -6   14.40    0.34 
   1   1   6   14.01    0.37 
  -1   1  -6   14.20    0.35 
   3  -1   6    2.13    0.24 
   3  -1   6    1.80    0.11 
   3   1   6    1.61    0.10 
  -3   1  -6    1.68    0.23 
   5  -1   6    6.96    0.43 
   5  -1   6    6.77    0.24 
   5   1   6    6.70    0.24 
  -5   1  -6    6.23    0.41 
   7  -1   6   71.81    1.47 
   7  -1   6   73.69    1.90 
   7   1   6   74.47    1.48 
   9  -1   6    0.10    0.10 
   9  -1   6    0.60    0.24 
   9  -1   6    0.15    0.09 
   9   1   6    0.01    0.09 
   9   1   6    0.28    0.19 
   9   1   6    0.27    0.10 
  11  -1   6   11.59    0.54 
  11  -1   6   12.76    0.56 
  11   1   6   12.56    0.55 
  11   1   6   12.47    0.56 
  13  -1   6   -0.11    0.14 
  13  -1   6   -0.08    0.10 
  13   1   6    0.14    0.17 
  13   1   6   -0.04    0.10 
  15  -1   6   -0.22    0.12 
  15   1   6   -0.22    0.12 
  16  -2  -6    0.05    0.22 
  16   2  -6    0.43    0.24 
  14  -2  -6    1.39    0.32 
  14   2  -6    1.64    0.36 
  12  -2  -6   10.93    0.70 
  12  -2  -6   10.84    0.68 
  12   2  -6   10.24    0.65 
  12   2  -6    9.41    0.64 
  12   2  -6   10.38    0.70 
  10  -2  -6    3.37    0.42 
  10  -2  -6    2.92    0.38 
  10   2  -6    1.63    0.30 
 -10   2   6    2.57    0.36 
 -10   2   6    3.00    0.37 
  10   2  -6    2.46    0.36 
  -8  -2   6    0.74    0.18 
   8  -2  -6    0.91    0.22 
   8  -2  -6    0.94    0.20 
  -8   2   6    0.49    0.17 
   8   2  -6    0.55    0.18 
   8   2  -6    1.17    0.23 
  -8   2   6    0.93    0.19 
   6  -2  -6   22.13    0.75 
  -6  -2   6   21.07    0.73 
   6  -2  -6   21.59    0.77 
   6   2  -6   21.27    0.76 
  -6   2   6   21.81    0.75 
  -6   2   6   21.13    0.71 
   6   2  -6   20.69    0.74 
  -4  -2   6    0.30    0.11 
   4  -2  -6    0.43    0.14 
   4  -2  -6    0.43    0.12 
  -4   2   6    0.51    0.15 
   4   2  -6    0.54    0.14 
   4   2  -6    0.62    0.15 
   2  -2  -6  139.60    2.63 
  -2  -2   6  138.35    2.62 
  -2   2   6  139.30    2.64 
   2   2  -6  136.98    2.63 
   2   2  -6  137.11    2.60 
   0  -2   6   41.71    0.98 
   0  -2  -6   42.44    0.97 
   0   2   6   42.92    0.99 
   0   2  -6   42.08    0.96 
   0   2  -6   43.06    0.98 
   2  -2   6   19.46    0.55 
  -2  -2  -6   19.18    0.52 
  -2   2  -6   19.82    0.51 
  -2   2  -6   18.73    0.67 
   2   2   6   19.56    0.55 
  -2   2  -6   19.65    0.52 
   4  -2   6    0.30    0.09 
  -4  -2  -6    0.34    0.06 
  -4   2  -6    0.29    0.07 
   4   2   6    0.22    0.08 
  -4   2  -6    0.35    0.15 
   6  -2   6    9.44    0.39 
   6  -2   6    8.69    0.55 
  -6   2  -6    8.98    0.56 
   6   2   6    9.68    0.38 
   8  -2   6    1.44    0.20 
   8  -2   6    1.81    0.35 
   8   2   6    1.51    0.20 
  -8   2  -6    1.44    0.30 
  10  -2   6    0.52    0.17 
  10   2   6    1.17    0.21 
  10   2   6    0.62    0.16 
  12  -2   6    0.81    0.21 
  12  -2   6    0.69    0.19 
  12   2   6    1.18    0.25 
  12   2   6    1.44    0.26 
  14  -2   6    0.03    0.15 
  14   2   6   -0.02    0.14 
  16  -2   6    0.20    0.20 
  16   2   6   -0.02    0.19 
  15  -3  -6    0.07    0.20 
  15   3  -6    0.48    0.27 
  13  -3  -6    0.09    0.16 
  13   3  -6    0.21    0.19 
 -13   3   6   -0.09    0.17 
  11  -3  -6    3.13    0.44 
  11  -3  -6    2.83    0.42 
  11   3  -6    3.30    0.45 
 -11   3   6    3.33    0.41 
 -11   3   6    3.59    0.45 
  11   3  -6    2.93    0.42 
   9  -3  -6    0.09    0.13 
   9  -3  -6   -0.04    0.14 
  -9   3   6    0.06    0.13 
  -9   3   6    0.05    0.13 
   9   3  -6   -0.02    0.13 
   9   3  -6    0.11    0.15 
  -7  -3   6    0.35    0.13 
   7  -3  -6    0.11    0.11 
   7  -3  -6    0.28    0.16 
   7   3  -6    0.11    0.13 
   7   3  -6    0.08    0.10 
  -7   3   6    0.02    0.11 
  -7   3   6    0.05    0.13 
   5  -3  -6    1.48    0.25 
  -5  -3   6    0.94    0.20 
  -5   3   6    1.12    0.22 
   5   3  -6    1.04    0.20 
   5   3  -6    1.33    0.23 
   3  -3  -6    0.98    0.20 
  -3  -3   6    0.75    0.18 
  -3   3   6    1.18    0.20 
   3   3  -6    1.16    0.20 
   3   3  -6    0.99    0.18 
  -1  -3   6  128.39    2.53 
   1  -3  -6  125.19    2.49 
  -1   3   6  127.67    2.53 
   1   3  -6  123.26    2.51 
   1  -3   6   19.92    0.65 
  -1  -3  -6   19.22    0.63 
   1   3   6   19.01    0.64 
  -1   3  -6   18.81    0.63 
  -3  -3  -6    9.07    0.38 
   3  -3   6    8.81    0.41 
  -3   3  -6    8.70    0.38 
   3   3   6    9.31    0.42 
  -5  -3  -6   14.00    0.46 
   5  -3   6   14.09    0.54 
  -5   3  -6   14.26    0.48 
  -5   3  -6   14.54    0.71 
   5   3   6   14.01    0.54 
   7  -3   6   16.44    0.63 
  -7  -3  -6   15.92    0.45 
  -7   3  -6   15.06    0.82 
   7   3   6   16.18    0.61 
  -7   3  -6   16.68    0.47 
   9  -3   6    6.59    0.43 
   9   3   6    7.49    0.44 
  -9   3  -6    7.10    0.59 
  11  -3   6    3.91    0.41 
  11   3   6    4.38    0.43 
  11   3   6    3.67    0.39 
 -11   3  -6    4.40    0.59 
  13  -3   6    0.04    0.14 
  13   3   6   -0.31    0.10 
  15  -3   6    0.12    0.17 
  15   3   6   -0.03    0.16 
  16  -4  -6    0.87    0.30 
  16   4  -6    0.21    0.23 
  14  -4  -6   -0.14    0.18 
 -14   4   6    0.20    0.21 
  14   4  -6    0.32    0.24 
  12  -4  -6    0.65    0.25 
  12   4  -6    0.77    0.30 
 -12   4   6    0.55    0.22 
 -12   4   6    0.22    0.23 
  10  -4  -6    0.15    0.22 
  10  -4  -6    0.24    0.17 
  10   4  -6    0.29    0.19 
 -10   4   6    0.11    0.16 
  10   4  -6    0.08    0.18 
 -10   4   6    0.18    0.19 
   8  -4  -6    1.10    0.29 
  -8   4   6    0.73    0.25 
   8   4  -6    0.68    0.23 
   8   4  -6    0.73    0.23 
  -8   4   6    0.82    0.25 
  -6  -4   6    2.43    0.35 
   6  -4  -6    1.95    0.33 
  -6   4   6    1.66    0.29 
   6   4  -6    2.19    0.32 
   6   4  -6    1.83    0.30 
   4  -4  -6    2.52    0.32 
  -4  -4   6    1.96    0.28 
  -4   4   6    1.83    0.29 
   4   4  -6    1.62    0.27 
   4   4  -6    1.64    0.27 
   2  -4  -6   11.90    0.57 
  -2  -4   6   11.96    0.58 
   2   4  -6   12.56    0.60 
  -2   4   6   11.68    0.59 
   0  -4   6    1.69    0.25 
   0  -4  -6    1.67    0.24 
   0   4   6    1.54    0.24 
   0   4  -6    2.32    0.30 
  -2  -4  -6   17.45    0.67 
   2  -4   6   17.25    0.67 
   2   4   6   17.01    0.68 
  -2   4  -6   17.94    0.68 
   4  -4   6    1.44    0.23 
  -4  -4  -6    1.68    0.23 
   4   4   6    1.29    0.23 
   6  -4   6    7.39    0.45 
  -6   4  -6    7.85    0.41 
   6   4   6    8.27    0.47 
  -6   4  -6    8.04    0.62 
   8  -4   6    0.27    0.16 
  -8   4  -6    0.46    0.13 
  -8   4  -6   -0.06    0.17 
   8   4   6    0.30    0.15 
  10  -4   6   -0.05    0.13 
 -10   4  -6    0.07    0.08 
 -10   4  -6    0.21    0.23 
  10   4   6    0.11    0.13 
  12   4   6   -0.02    0.15 
 -12   4  -6    0.15    0.26 
  14  -4   6    0.02    0.15 
  14   4   6   -0.08    0.16 
  15  -5  -6    0.20    0.24 
  15   5  -6    0.27    0.22 
 -15   5   6    0.10    0.23 
  13  -5  -6    0.15    0.20 
 -13   5   6   -0.07    0.20 
  13   5  -6    0.00    0.19 
  11  -5  -6    0.40    0.22 
 -11   5   6    0.51    0.23 
 -11   5   6    0.40    0.25 
  11   5  -6    1.05    0.32 
   9  -5  -6    2.06    0.39 
  -9   5   6    2.48    0.38 
   9   5  -6    2.80    0.43 
   9   5  -6    2.46    0.42 
  -9   5   6    2.07    0.39 
   7  -5  -6    2.23    0.38 
   7   5  -6    1.51    0.31 
   7   5  -6    1.95    0.35 
  -7   5   6    2.22    0.38 
   5  -5  -6    1.40    0.31 
  -5   5   6    0.90    0.23 
   5   5  -6    1.34    0.30 
   5   5  -6    1.15    0.26 
  -3  -5   6    0.16    0.14 
   3  -5  -6    0.10    0.12 
   3   5  -6   -0.01    0.12 
  -3   5   6    0.01    0.14 
  -1  -5   6    1.11    0.24 
   1  -5  -6    0.60    0.19 
   1   5  -6    0.61    0.20 
  -1   5   6    0.54    0.20 
  -1  -5  -6    7.94    0.49 
   1  -5   6    7.49    0.49 
  -1   5  -6    7.55    0.50 
   1   5   6    8.38    0.53 
   3  -5   6    0.31    0.14 
  -3   5  -6    0.29    0.16 
   3   5   6   -0.08    0.10 
   5  -5   6   -0.11    0.11 
   5   5   6    0.03    0.14 
  -5   5  -6   -0.05    0.06 
   7  -5   6    0.92    0.25 
   7   5   6    0.71    0.22 
  -7   5  -6    0.68    0.29 
  -7   5  -6    1.27    0.23 
   9  -5   6    0.15    0.19 
   9   5   6    0.00    0.15 
  -9   5  -6   -0.24    0.17 
  -9   5  -6    0.04    0.11 
  11   5   6    0.27    0.22 
 -11   5  -6    0.63    0.32 
 -13   5  -6    0.14    0.22 
  13   5   6    0.05    0.17 
  14  -6  -6    0.37    0.26 
 -14   6   6    0.25    0.27 
  14   6  -6    0.36    0.25 
  12  -6  -6    0.47    0.27 
  12   6  -6    1.34    0.38 
 -12   6   6    0.85    0.34 
 -10   6   6    1.65    0.40 
  10   6  -6    1.72    0.40 
 -10   6   6    1.56    0.36 
   8  -6  -6   -0.23    0.19 
   8   6  -6    0.41    0.23 
   8   6  -6    0.25    0.23 
  -8   6   6    0.04    0.19 
   6  -6  -6    5.59    0.60 
   6   6  -6    6.08    0.62 
   6   6  -6    5.94    0.64 
  -6   6   6    5.51    0.60 
   4   6  -6    2.17    0.39 
  -4   6   6    2.63    0.41 
  -2  -6   6   10.10    0.65 
  -2   6   6   10.93    0.70 
   2   6  -6    9.70    0.66 
   0  -6   6    8.97    0.61 
   0   6  -6    8.33    0.60 
   0   6   6    9.03    0.62 
   2  -6   6    6.19    0.59 
   2   6   6    5.98    0.59 
  -2   6  -6    5.19    0.53 
   4  -6   6    2.65    0.40 
  -4   6  -6    2.83    0.39 
   4   6   6    3.34    0.42 
   6  -6   6    1.84    0.35 
   6   6   6    2.30    0.38 
  -6   6  -6    0.83    0.22 
  -8   6  -6    1.37    0.27 
   8   6   6    0.95    0.27 
  -8   6  -6    1.34    0.40 
  10   6   6   -0.09    0.16 
 -10   6  -6   -0.24    0.20 
 -12   6  -6    0.03    0.25 
  12   6   6    0.12    0.20 
 -11   7   6    8.10    0.88 
  11   7  -6    7.45    0.87 
  -9   7   6    9.15    0.85 
   9   7  -6    7.88    0.80 
  -7   7   6    1.97    0.42 
   7   7  -6    1.96    0.41 
   5   7  -6   13.37    0.86 
  -5   7   6   12.72    0.83 
   3   7  -6    1.41    0.36 
  -3   7   6    1.92    0.39 
   1   7  -6   -0.10    0.18 
  -1   7   6   -0.02    0.18 
   1  -7   6    0.83    0.29 
  -1   7  -6    1.28    0.32 
   1   7   6    1.36    0.36 
   3  -7   6    1.69    0.33 
  -3   7  -6    2.01    0.39 
   3   7   6    2.18    0.41 
   5  -7   6    0.54    0.25 
  -5   7  -6   -0.04    0.15 
   5   7   6    0.85    0.29 
  -7   7  -6    3.18    0.60 
   7   7   6    1.77    0.39 
  -9   7  -6    0.57    0.33 
   9   7   6    0.75    0.26 
 -11   7  -6    1.49    0.47 
  11   7   6    0.88    0.32 
  10   8  -6    0.24    0.25 
 -10   8   6   -0.40    0.26 
   8   8  -6    0.27    0.28 
  -6   8   6    3.12    0.54 
   6   8  -6    3.76    0.59 
   4   8  -6    0.83    0.32 
  -4   8   6    0.73    0.32 
  -2   8   6    0.17    0.23 
   2   8  -6    0.25    0.22 
   0   8  -6    0.41    0.28 
   0   8   6    0.70    0.29 
  -2   8  -6    2.75    0.49 
   2   8   6    1.85    0.44 
  -4   8  -6    0.43    0.26 
   4   8   6   -0.15    0.20 
   6   8   6    0.96    0.36 
  -8   8  -6   -0.01    0.32 
   8   8   6    0.15    0.28 
 -10   8  -6   -0.39    0.25 
  10   8   6    0.33    0.26 
   7   9  -6   -0.40    0.22 
  -5   9   6    0.95    0.37 
   5   9  -6    0.19    0.27 
   3   9  -6    1.36    0.41 
  -3   9   6    2.72    0.54 
  -1   9   6    2.14    0.47 
   1   9  -6    1.24    0.42 
   1   9   6    0.37    0.28 
  -1   9  -6    0.40    0.28 
   3   9   6    2.71    0.56 
   5   9   6    0.57    0.29 
   7   9   6   -0.51    0.19 
  -7   9  -6    0.01    0.35 
  -2  10   6   -0.32    0.27 
   2  10  -6   -0.10    0.36 
   0  10   6    0.63    0.37 
   2  10   6    0.96    0.39 
  16   0  -7    0.21    0.21 
  14   0  -7    0.12    0.18 
  14   0  -7    0.82    0.27 
  12   0  -7    0.17    0.20 
 -12   0   7    0.17    0.17 
  12   0  -7    0.12    0.17 
  12   0  -7   -0.21    0.17 
 -10   0   7    0.04    0.14 
  10   0  -7   -0.03    0.12 
  10   0  -7   -0.01    0.13 
  10   0  -7    0.31    0.15 
   8   0  -7    0.30    0.15 
  -8   0   7   -0.02    0.10 
  -8   0   7    0.10    0.13 
   8   0  -7    0.06    0.13 
   8   0  -7    0.05    0.11 
   6   0  -7    0.07    0.09 
   6   0  -7    0.01    0.06 
  -6   0   7    0.08    0.08 
   6   0  -7   -0.02    0.09 
  -6   0   7    0.22    0.12 
  -4   0   7   -0.04    0.07 
   4   0  -7   -0.02    0.09 
   4   0  -7    0.00    0.04 
   4   0  -7    0.00    0.08 
  -4   0   7    0.03    0.09 
   2   0  -7   -0.12    0.07 
   2   0  -7   -0.01    0.10 
  -2   0   7   -0.19    0.07 
  -2   0   7    0.04    0.10 
   0   0   7   -0.09    0.05 
   0   0  -7    0.04    0.05 
   0   0   7    0.06    0.05 
   0   0  -7    0.04    0.04 
   0   0   7    0.10    0.04 
   2   0   7    0.16    0.10 
   4   0   7    0.02    0.10 
   6   0   7    0.01    0.04 
   6   0   7    0.20    0.14 
   8   0   7    0.06    0.07 
   8   0   7    0.03    0.12 
   8   0   7    0.02    0.07 
  10   0   7    0.02    0.08 
  10   0   7    0.07    0.09 
  12   0   7   -0.04    0.10 
  12   0   7    0.04    0.10 
  14   0   7   -0.02    0.13 
  16   0   7   -0.15    0.12 
  17  -1  -7   -0.10    0.21 
  17   1  -7    0.03    0.22 
  15  -1  -7    0.24    0.21 
  15   1  -7   -0.17    0.15 
  13  -1  -7   -0.06    0.12 
  13  -1  -7    0.03    0.19 
  13   1  -7   -0.11    0.12 
 -13   1   7   -0.21    0.08 
  13   1  -7    0.09    0.19 
  13   1  -7   -0.10    0.13 
  11  -1  -7   13.91    0.76 
  11  -1  -7   12.12    0.71 
 -11  -1   7   13.81    0.67 
  11  -1  -7   11.81    0.65 
  11   1  -7   11.93    0.70 
 -11   1   7   13.24    0.66 
  11   1  -7   13.07    0.71 
  11   1  -7   12.26    0.64 
  -9  -1   7    0.15    0.13 
   9  -1  -7    0.17    0.13 
   9  -1  -7    0.43    0.18 
   9   1  -7    0.12    0.10 
   9   1  -7    0.38    0.17 
   9   1  -7    0.45    0.17 
  -9   1   7    0.41    0.15 
   7  -1  -7   12.30    0.57 
   7  -1  -7   12.72    0.57 
  -7  -1   7   13.30    0.57 
  -7  -1   7   12.14    0.54 
   7   1  -7   12.91    0.58 
  -7   1   7   12.19    0.47 
   7   1  -7   11.64    0.55 
  -7   1   7   12.64    0.57 
   5  -1  -7    0.74    0.17 
  -5  -1   7    0.58    0.13 
   5  -1  -7    0.63    0.15 
  -5  -1   7    0.47    0.15 
  -5   1   7    0.68    0.11 
   5   1  -7    0.40    0.13 
  -5   1   7    0.47    0.14 
  -5   1   7    0.53    0.13 
   5   1  -7    0.83    0.17 
   3  -1  -7    6.15    0.31 
  -3  -1   7    5.72    0.31 
   3  -1  -7    5.60    0.31 
  -3  -1   7    6.00    0.31 
  -3   1   7    6.14    0.32 
   3   1  -7    6.04    0.32 
   3   1  -7    5.47    0.30 
  -3   1   7    5.93    0.30 
  -1  -1   7    3.35    0.21 
   1  -1  -7    3.08    0.18 
   1  -1  -7    3.11    0.20 
  -1  -1   7    3.01    0.19 
  -1   1   7    3.20    0.21 
  -1   1   7    3.07    0.19 
   1   1  -7    2.78    0.19 
   1  -1   7    6.71    0.33 
  -1  -1  -7    5.92    0.19 
  -1  -1  -7    5.92    0.20 
   1  -1   7    6.18    0.23 
   1  -1   7    5.75    0.22 
   1   1   7    5.87    0.23 
  -1   1  -7    6.10    0.21 
  -1   1  -7    6.23    0.31 
  -1   1  -7    6.49    0.21 
   1   1   7    6.48    0.22 
   3  -1   7   12.46    0.31 
   3  -1   7   11.81    0.52 
   3   1   7   12.51    0.30 
  -3   1  -7   12.17    0.52 
   5  -1   7   -0.06    0.11 
   5  -1   7    0.01    0.05 
  -5   1  -7    0.16    0.11 
   5   1   7    0.03    0.04 
   7  -1   7   17.94    0.52 
   7  -1   7   18.17    0.83 
   7   1   7   17.65    0.51 
   9  -1   7    0.58    0.24 
   9  -1   7    0.84    0.16 
   9  -1   7    0.39    0.12 
   9   1   7    0.41    0.12 
   9   1   7    0.17    0.17 
   9   1   7    0.36    0.11 
  11  -1   7    0.62    0.16 
  11  -1   7    0.41    0.15 
  11   1   7    0.38    0.14 
  11   1   7    0.27    0.14 
  13  -1   7    0.97    0.22 
  13   1   7    0.84    0.21 
  15  -1   7    0.00    0.14 
  15   1   7   -0.02    0.14 
  16  -2  -7    0.49    0.24 
  16   2  -7    1.05    0.35 
  14  -2  -7    0.23    0.20 
  14   2  -7    0.11    0.18 
  12  -2  -7    3.08    0.43 
  12  -2  -7    3.24    0.47 
  12   2  -7    3.61    0.44 
 -12   2   7    2.53    0.35 
  12   2  -7    3.22    0.45 
  12   2  -7    3.10    0.46 
  10  -2  -7    3.68    0.43 
  10  -2  -7    5.43    0.52 
 -10   2   7    4.87    0.46 
 -10   2   7    4.63    0.39 
  10   2  -7    4.48    0.47 
  10   2  -7    4.94    0.49 
  -8  -2   7    5.83    0.39 
   8  -2  -7    6.40    0.43 
   8  -2  -7    6.15    0.45 
   8   2  -7    5.54    0.42 
  -8   2   7    5.84    0.41 
  -8   2   7    5.20    0.36 
  -6  -2   7    3.42    0.34 
   6  -2  -7    4.61    0.41 
  -6  -2   7    4.34    0.33 
   6  -2  -7    4.58    0.33 
   6   2  -7    4.40    0.34 
   6   2  -7    4.80    0.35 
  -6   2   7    4.47    0.34 
  -6   2   7    3.91    0.29 
  -4  -2   7    5.48    0.33 
   4  -2  -7    5.36    0.32 
  -4  -2   7    5.40    0.34 
   4  -2  -7    5.41    0.35 
   4   2  -7    5.32    0.35 
  -4   2   7    5.42    0.34 
   4   2  -7    4.82    0.33 
   2  -2  -7    9.48    0.42 
  -2  -2   7    9.19    0.41 
   2  -2  -7    9.05    0.39 
   2   2  -7    9.62    0.41 
   2   2  -7   10.25    0.43 
   0  -2   7   25.24    0.69 
   0  -2  -7   25.07    0.68 
   0   2  -7   24.79    0.68 
   0   2   7   25.58    0.70 
   0   2  -7   26.52    0.68 
   2  -2   7   75.18    1.48 
  -2  -2  -7   75.92    1.44 
  -2   2  -7   74.28    1.42 
  -2   2  -7   73.30    1.69 
   2   2   7   73.27    1.48 
  -2   2  -7   73.66    1.44 
  -4  -2  -7    4.57    0.15 
   4  -2   7    4.96    0.25 
  -4  -2  -7    4.67    0.15 
  -4   2  -7    4.73    0.17 
   4   2   7    4.85    0.24 
  -4   2  -7    4.64    0.16 
   6  -2   7   27.37    1.02 
   6  -2   7   27.73    0.73 
   6   2   7   26.63    0.72 
  -6   2  -7   28.52    1.04 
   8  -2   7    0.33    0.22 
   8  -2   7   -0.06    0.08 
  -8   2  -7    0.10    0.17 
   8   2   7   -0.03    0.08 
  10  -2   7    1.79    0.24 
  10   2   7    1.81    0.24 
  10   2   7    1.72    0.25 
  12  -2   7    6.11    0.43 
  12  -2   7    7.16    0.46 
  12   2   7    5.67    0.42 
  12   2   7    6.14    0.44 
  14  -2   7   -0.01    0.14 
  14   2   7    0.04    0.14 
  16  -2   7    0.12    0.18 
  16   2   7    0.13    0.19 
  15  -3  -7    0.77    0.29 
  15   3  -7    0.81    0.29 
  13  -3  -7    0.68    0.24 
 -13   3   7    1.08    0.31 
  13   3  -7    1.15    0.34 
  11  -3  -7   23.25    1.01 
  11  -3  -7   24.77    1.07 
 -11   3   7   24.23    1.00 
 -11   3   7   24.66    0.96 
  11   3  -7   23.15    1.01 
  11   3  -7   22.56    1.02 
   9  -3  -7    7.30    0.54 
   9  -3  -7    7.49    0.51 
  -9   3   7    7.86    0.52 
  -9   3   7    7.26    0.50 
   9   3  -7    6.64    0.51 
   9   3  -7    6.16    0.48 
   7  -3  -7    0.83    0.22 
   7  -3  -7    0.83    0.19 
  -7  -3   7    1.07    0.21 
   7   3  -7    1.03    0.22 
  -7   3   7    0.98    0.22 
   7   3  -7    0.91    0.22 
  -7   3   7    1.13    0.24 
   5  -3  -7    3.23    0.35 
  -5  -3   7    2.82    0.32 
   5   3  -7    2.88    0.34 
   5   3  -7    2.78    0.31 
  -5   3   7    3.38    0.37 
   3  -3  -7    8.10    0.44 
  -3  -3   7    7.93    0.44 
   3   3  -7    7.86    0.43 
  -3   3   7    8.17    0.45 
   3   3  -7    8.07    0.44 
  -1  -3   7   15.94    0.60 
   1  -3  -7   16.05    0.59 
   1   3  -7   16.24    0.60 
   1   3  -7   15.49    0.57 
  -1   3   7   15.67    0.61 
   1  -3   7    8.32    0.40 
  -1  -3  -7    8.71    0.40 
  -1   3  -7    9.08    0.42 
   1   3   7    8.03    0.40 
   3  -3   7   28.14    0.81 
  -3  -3  -7   29.51    0.77 
  -3   3  -7   30.54    1.00 
   3   3   7   27.86    0.82 
  -3   3  -7   28.91    0.78 
  -5  -3  -7    0.10    0.06 
   5  -3   7    0.03    0.09 
  -5   3  -7   -0.01    0.14 
   5   3   7   -0.06    0.07 
  -5   3  -7    0.10    0.07 
  -7  -3  -7   49.57    0.95 
   7  -3   7   50.61    1.26 
   7   3   7   49.83    1.26 
  -7   3  -7   49.09    1.57 
  -7   3  -7   50.34    0.99 
   9  -3   7    2.06    0.27 
   9   3   7    1.86    0.27 
  -9   3  -7    2.30    0.42 
  11  -3   7    0.91    0.22 
  11   3   7    1.43    0.26 
 -11   3  -7    1.54    0.38 
  11   3   7    1.29    0.25 
  13  -3   7    3.74    0.42 
  13   3   7    3.91    0.45 
  15  -3   7    0.35    0.19 
  15   3   7    0.04    0.17 
  16  -4  -7    0.81    0.32 
  16   4  -7    0.89    0.35 
  14  -4  -7   -0.10    0.16 
 -14   4   7    0.07    0.19 
  14   4  -7   -0.20    0.16 
  12  -4  -7    4.67    0.55 
  12   4  -7    4.29    0.55 
 -12   4   7    4.74    0.56 
 -12   4   7    4.54    0.51 
  10  -4  -7    0.18    0.23 
  10  -4  -7    0.27    0.19 
 -10   4   7    0.51    0.21 
  10   4  -7    0.29    0.20 
  10   4  -7    0.48    0.21 
 -10   4   7    0.35    0.20 
   8  -4  -7    1.68    0.29 
   8  -4  -7    1.82    0.33 
   8   4  -7    1.94    0.34 
  -8   4   7    1.59    0.32 
   8   4  -7    1.53    0.30 
  -8   4   7    1.89    0.33 
  -6  -4   7    0.85    0.22 
   6  -4  -7    1.02    0.25 
   6   4  -7    0.42    0.18 
  -6   4   7    0.66    0.21 
   6   4  -7    1.18    0.25 
  -4  -4   7    0.33    0.15 
   4  -4  -7    0.30    0.15 
   4   4  -7    0.19    0.14 
   4   4  -7    0.43    0.17 
  -4   4   7    0.42    0.18 
  -2  -4   7   22.06    0.83 
   2  -4  -7   22.34    0.82 
   2   4  -7   23.26    0.85 
  -2   4   7   24.12    0.86 
   0  -4   7   15.82    0.66 
   0  -4  -7   16.95    0.67 
   0   4   7   16.42    0.68 
   0   4  -7   16.81    0.68 
   2  -4   7   15.92    0.64 
  -2  -4  -7   15.86    0.62 
   2   4   7   15.75    0.65 
  -2   4  -7   15.38    0.63 
  -4  -4  -7    2.05    0.24 
   4  -4   7    2.17    0.29 
  -4   4  -7    2.20    0.25 
   4   4   7    1.38    0.23 
   6  -4   7   11.23    0.54 
  -6   4  -7   10.62    0.70 
  -6   4  -7   10.72    0.46 
   6   4   7   10.83    0.55 
   8  -4   7    3.36    0.36 
   8   4   7    2.59    0.32 
  -8   4  -7    3.52    0.50 
  -8   4  -7    3.70    0.25 
  10  -4   7    4.84    0.47 
  10   4   7    4.22    0.44 
 -10   4  -7    4.19    0.59 
  12   4   7    4.86    0.51 
 -12   4  -7    5.26    0.72 
  14  -4   7    0.16    0.18 
  14   4   7   -0.12    0.14 
  15  -5  -7   -0.03    0.21 
  15   5  -7   -0.07    0.22 
 -15   5   7    0.14    0.23 
  13  -5  -7    0.01    0.17 
 -13   5   7    0.37    0.25 
  13   5  -7    0.43    0.24 
  11  -5  -7   19.30    0.96 
 -11   5   7   19.56    1.00 
 -11   5   7   18.99    0.93 
  11   5  -7   20.58    1.09 
   9  -5  -7    1.17    0.33 
   9  -5  -7    0.73    0.26 
   9   5  -7    1.42    0.34 
   9   5  -7    0.71    0.26 
  -9   5   7    1.19    0.30 
  -9   5   7    0.91    0.30 
   7  -5  -7    1.74    0.34 
  -7   5   7    2.30    0.38 
   7   5  -7    1.57    0.33 
   7   5  -7    1.78    0.35 
   5  -5  -7    2.59    0.38 
   5   5  -7    2.45    0.38 
   5   5  -7    2.13    0.35 
  -5   5   7    2.78    0.41 
  -3  -5   7   -0.18    0.10 
   3  -5  -7   -0.10    0.12 
   3   5  -7    0.04    0.15 
  -3   5   7    0.02    0.15 
   1  -5  -7    1.94    0.30 
  -1  -5   7    1.96    0.31 
  -1   5   7    1.83    0.30 
   1   5  -7    2.21    0.34 
   1  -5   7    8.36    0.52 
  -1   5  -7    8.40    0.53 
   1   5   7    8.24    0.53 
   3  -5   7    1.10    0.23 
   3   5   7    1.04    0.22 
  -3   5  -7    1.06    0.24 
   5  -5   7    0.49    0.19 
  -5   5  -7    0.25    0.13 
   5   5   7    0.51    0.18 
   7  -5   7    7.14    0.51 
  -7   5  -7    6.86    0.73 
   7   5   7    7.51    0.52 
  -7   5  -7    7.86    0.45 
   9  -5   7    0.82    0.26 
  -9   5  -7    0.34    0.13 
   9   5   7    0.60    0.23 
  -9   5  -7    0.29    0.27 
 -11   5  -7    1.55    0.41 
  11   5   7    1.49    0.34 
  13   5   7    1.46    0.36 
 -13   5  -7    1.31    0.44 
  14  -6  -7    1.56    0.39 
 -14   6   7    1.29    0.40 
  14   6  -7    1.59    0.39 
  12  -6  -7    0.83    0.30 
  12   6  -7    1.04    0.34 
 -12   6   7    0.29    0.26 
  10  -6  -7    4.96    0.62 
 -10   6   7    4.75    0.62 
  10   6  -7    5.37    0.67 
 -10   6   7    5.89    0.63 
   8   6  -7    6.35    0.68 
  -8   6   7    4.77    0.60 
  -6   6   7    0.89    0.28 
   6   6  -7    0.94    0.29 
   4   6  -7    5.68    0.61 
  -4   6   7    5.40    0.60 
  -2  -6   7    3.34    0.46 
   2   6  -7    3.30    0.44 
  -2   6   7    3.09    0.45 
   0  -6   7    0.25    0.19 
   0   6  -7    0.61    0.24 
   0   6   7    0.89    0.26 
   2  -6   7    1.50    0.31 
  -2   6  -7    1.52    0.33 
   2   6   7    0.86    0.26 
   4  -6   7    1.48    0.31 
   4   6   7    1.20    0.29 
  -4   6  -7    0.73    0.24 
   6  -6   7    0.69    0.24 
   6   6   7    1.38    0.31 
  -6   6  -7    0.47    0.17 
  -6   6  -7    0.56    0.31 
   8   6   7    0.33    0.19 
  -8   6  -7    0.92    0.33 
  10   6   7    2.41    0.40 
 -10   6  -7    1.95    0.48 
 -12   6  -7    0.86    0.42 
  12   6   7    1.41    0.37 
  11  -7  -7    2.49    0.48 
  11   7  -7    1.88    0.46 
 -11   7   7    2.83    0.56 
  -9   7   7    0.52    0.26 
   9   7  -7    0.46    0.27 
  -7   7   7    0.23    0.22 
   7   7  -7    0.46    0.24 
  -5   7   7    0.50    0.25 
   5   7  -7    1.25    0.34 
   3   7  -7   -0.08    0.19 
  -3   7   7    0.43    0.24 
  -1   7   7    0.01    0.21 
   1   7  -7    0.54    0.25 
   1  -7   7   13.23    0.81 
   1   7   7   15.71    0.90 
  -1   7  -7   14.19    0.82 
   3  -7   7    1.73    0.38 
   3   7   7    1.52    0.37 
  -3   7  -7    2.17    0.39 
   5  -7   7    0.28    0.23 
  -5   7  -7    0.26    0.20 
   5   7   7    0.15    0.18 
  -7   7  -7   -0.10    0.24 
   7   7   7    0.15    0.22 
   9   7   7    0.30    0.22 
  -9   7  -7   -0.02    0.27 
  11   7   7    0.26    0.23 
 -11   7  -7   -0.04    0.32 
  10   8  -7    0.66    0.33 
 -10   8   7   -0.25    0.30 
   8   8  -7   -0.01    0.25 
   6   8  -7    0.88    0.33 
  -6   8   7    0.76    0.34 
   4   8  -7   -0.12    0.21 
  -4   8   7   -0.10    0.20 
  -2   8   7   -0.04    0.20 
   2   8  -7    0.07    0.22 
   0   8   7    0.13    0.24 
   0   8  -7   -0.09    0.20 
  -2   8  -7    2.48    0.45 
   2   8   7    3.30    0.55 
   4   8   7   -0.05    0.17 
   6   8   7    0.04    0.21 
  -8   8  -7    0.12    0.28 
   8   8   7   -0.07    0.22 
   7   9  -7    0.06    0.27 
  -5   9   7    0.90    0.37 
   5   9  -7    0.47    0.30 
   3   9  -7   -0.17    0.21 
  -3   9   7   -0.27    0.23 
  -1   9   7    0.87    0.38 
   1   9  -7    0.49    0.30 
   1   9   7    4.09    0.65 
   3   9   7   -0.05    0.25 
   5   9   7    0.17    0.25 
   7   9   7    0.09    0.25 
  -7   9  -7   -0.29    0.31 
  -2  10   7    0.11    0.28 
   0  10   7    0.03    0.27 
  16   0  -8    8.17    0.84 
  14   0  -8    2.99    0.45 
  14   0  -8    2.69    0.45 
  12   0  -8    2.08    0.33 
 -12   0   8    1.28    0.26 
  12   0  -8    1.91    0.37 
  12   0  -8    2.36    0.39 
 -10   0   8   28.43    1.00 
  10   0  -8   29.92    1.07 
  10   0  -8   27.85    0.91 
  10   0  -8   29.39    1.05 
   8   0  -8    1.63    0.20 
   8   0  -8    1.71    0.28 
   8   0  -8    1.06    0.21 
  -8   0   8    1.04    0.20 
  -8   0   8    1.74    0.28 
   6   0  -8  173.98    3.32 
   6   0  -8  168.12    3.01 
  -6   0   8  171.33    3.31 
   6   0  -8  168.11    3.28 
   4   0  -8    8.00    0.38 
  -4   0   8    8.64    0.38 
  -4   0   8    8.25    0.41 
   4   0  -8    8.21    0.39 
  -2   0   8   23.96    0.65 
  -2   0   8   24.10    0.66 
   2   0  -8   23.93    0.65 
   2   0  -8   24.33    0.65 
   0   0  -8  181.41    3.13 
   0   0   8  182.77    3.22 
   0   0   8  184.97    3.17 
   0   0   8  183.86    3.17 
   0   0  -8  183.05    3.12 
   2   0   8    7.71    0.38 
   4   0   8    0.61    0.16 
   6   0   8   28.16    1.00 
   8   0   8   41.95    0.93 
   8   0   8   44.33    0.94 
   8   0   8   45.45    1.44 
  10   0   8    4.53    0.30 
  10   0   8    4.48    0.29 
  12   0   8    0.65    0.18 
  12   0   8    0.74    0.18 
  14   0   8    0.54    0.19 
  16   0   8    0.04    0.15 
  17  -1  -8    0.39    0.28 
  17   1  -8    0.54    0.29 
  15  -1  -8    1.31    0.35 
  15   1  -8    1.55    0.39 
  13  -1  -8    1.07    0.31 
  13  -1  -8    1.30    0.33 
  13   1  -8    1.88    0.37 
 -13   1   8    1.10    0.26 
  13   1  -8    1.57    0.32 
  13   1  -8    1.10    0.30 
 -11  -1   8   56.67    1.57 
  11  -1  -8   55.76    1.64 
  11  -1  -8   56.48    1.68 
  11   1  -8   57.94    1.68 
  11   1  -8   55.21    1.68 
  11   1  -8   55.77    1.54 
 -11   1   8   55.02    1.56 
   9  -1  -8    4.55    0.44 
   9  -1  -8    5.49    0.51 
  -9  -1   8    4.45    0.42 
   9   1  -8    4.46    0.44 
   9   1  -8    3.91    0.31 
  -9   1   8    3.88    0.40 
   9   1  -8    3.94    0.41 
  -7  -1   8   66.73    1.59 
   7  -1  -8   63.57    1.59 
  -7  -1   8   64.50    1.59 
   7  -1  -8   67.98    1.61 
   7   1  -8   65.21    1.60 
  -7   1   8   64.66    1.55 
  -7   1   8   64.90    1.59 
   7   1  -8   66.09    1.63 
   5  -1  -8    7.31    0.41 
  -5  -1   8    7.99    0.41 
  -5  -1   8    7.57    0.39 
   5  -1  -8    7.79    0.40 
  -5   1   8    6.91    0.39 
  -5   1   8    7.12    0.28 
  -5   1   8    7.45    0.38 
   5   1  -8    7.89    0.41 
   5   1  -8    7.26    0.40 
   3  -1  -8  102.78    2.01 
   3  -1  -8  104.14    2.05 
  -3  -1   8  100.65    2.02 
  -3  -1   8  101.42    2.03 
  -3   1   8  102.18    2.04 
   3   1  -8   99.89    2.03 
  -3   1   8  101.12    2.00 
   3   1  -8  100.79    2.01 
   1  -1  -8    0.34    0.08 
  -1  -1   8    0.29    0.10 
   1  -1  -8    0.23    0.08 
  -1  -1   8    0.42    0.10 
   1   1  -8    0.32    0.10 
  -1   1   8    0.35    0.10 
   1   1  -8    0.27    0.08 
  -1   1   8    0.31    0.09 
  -1  -1  -8   -0.02    0.03 
   1  -1   8    0.02    0.05 
  -1  -1  -8    0.01    0.03 
   1  -1   8    0.05    0.05 
   1  -1   8    0.14    0.10 
  -1   1  -8   -0.05    0.07 
  -1   1  -8    0.06    0.04 
  -1   1  -8    0.08    0.05 
   1   1   8   -0.04    0.04 
   1   1   8    0.10    0.06 
   3  -1   8    1.07    0.09 
   3  -1   8    1.17    0.09 
   3  -1   8    0.94    0.19 
  -3   1  -8    0.97    0.18 
   3   1   8    1.15    0.08 
   5  -1   8   13.12    0.34 
   5  -1   8   13.40    0.64 
   5   1   8   13.15    0.33 
  -5   1  -8   13.62    0.64 
   7  -1   8   26.10    1.03 
   7  -1   8   26.50    0.66 
   7   1   8   28.15    1.03 
   7   1   8   26.83    0.65 
   9  -1   8    1.37    0.36 
   9  -1   8    1.20    0.18 
   9   1   8    1.10    0.16 
   9   1   8    1.43    0.18 
  11  -1   8    0.27    0.13 
  11  -1   8    0.52    0.14 
  11   1   8    0.33    0.13 
  11   1   8    0.14    0.11 
  13  -1   8    4.65    0.43 
  13   1   8    5.05    0.45 
  15  -1   8   -0.05    0.14 
  15   1   8    0.14    0.15 
  16  -2  -8    1.04    0.33 
  16   2  -8    1.03    0.34 
  14  -2  -8   -0.12    0.16 
  14   2  -8   -0.05    0.17 
  12  -2  -8    3.14    0.44 
  12  -2  -8    4.97    0.56 
  12   2  -8    4.95    0.50 
  12   2  -8    5.49    0.57 
 -12   2   8    3.93    0.45 
  12   2  -8    3.86    0.48 
  10  -2  -8    2.07    0.36 
  10  -2  -8    1.44    0.29 
 -10   2   8    1.61    0.27 
  10   2  -8    1.82    0.32 
  10   2  -8    2.10    0.34 
 -10   2   8    1.84    0.32 
  -8  -2   8    3.05    0.36 
   8  -2  -8    3.04    0.38 
   8  -2  -8    2.79    0.33 
  -8  -2   8    2.91    0.32 
   8   2  -8    2.97    0.36 
  -8   2   8    3.44    0.38 
  -8   2   8    3.30    0.29 
   8   2  -8    2.30    0.32 
  -6  -2   8   22.18    0.78 
  -6  -2   8   22.12    0.79 
   6  -2  -8   21.88    0.78 
   6  -2  -8   22.82    0.83 
   6   2  -8   22.38    0.82 
  -6   2   8   23.76    0.82 
  -6   2   8   22.81    0.69 
   6   2  -8   22.74    0.80 
   4  -2  -8   29.72    0.87 
  -4  -2   8   31.35    0.90 
   4  -2  -8   29.87    0.90 
  -4  -2   8   29.89    0.88 
   4   2  -8   30.07    0.88 
   4   2  -8   29.83    0.91 
  -4   2   8   27.79    0.88 
   2  -2  -8   32.32    0.87 
  -2  -2   8   31.15    0.86 
   2  -2  -8   32.54    0.85 
  -2  -2   8   30.78    0.86 
  -2   2   8   32.46    0.88 
   2   2  -8   31.81    0.86 
   2   2  -8   32.95    0.86 
   0  -2  -8   14.24    0.47 
   0  -2   8   13.68    0.48 
   0   2  -8   15.56    0.49 
   0   2   8   13.79    0.49 
  -2  -2  -8    1.64    0.15 
   2  -2   8    2.01    0.19 
  -2  -2  -8    1.70    0.13 
  -2   2  -8    1.85    0.15 
   2   2   8    1.58    0.17 
  -2   2  -8    1.73    0.14 
  -2   2  -8    1.73    0.25 
   4  -2   8    2.69    0.19 
  -4   2  -8    2.25    0.31 
   4   2   8    2.64    0.18 
   6  -2   8    2.46    0.20 
   6  -2   8    2.51    0.36 
  -6   2  -8    2.49    0.35 
   6   2   8    2.68    0.19 
   8  -2   8   15.71    0.83 
   8  -2   8   15.36    0.55 
   8   2   8   16.21    0.56 
  -8   2  -8   14.90    0.81 
  10  -2   8    5.38    0.35 
  10   2   8    5.38    0.35 
  10   2   8    5.54    0.36 
  12  -2   8    0.14    0.12 
  12  -2   8   -0.11    0.11 
  12   2   8   -0.06    0.12 
  12   2   8    0.09    0.13 
  14  -2   8    1.63    0.29 
  14   2   8    1.28    0.27 
  16  -2   8   -0.03    0.18 
  16   2   8   -0.22    0.15 
  15  -3  -8    0.42    0.26 
  15   3  -8    0.41    0.24 
  13  -3  -8   -0.02    0.14 
 -13   3   8   -0.18    0.13 
  13   3  -8    0.24    0.20 
  11  -3  -8    5.08    0.56 
  11  -3  -8    5.66    0.60 
 -11   3   8    5.30    0.54 
 -11   3   8    4.82    0.50 
  11   3  -8    6.00    0.61 
  11   3  -8    5.10    0.57 
   9  -3  -8    3.27    0.41 
   9  -3  -8    2.95    0.42 
   9   3  -8    2.87    0.39 
   9   3  -8    3.04    0.42 
  -9   3   8    3.24    0.38 
  -9   3   8    3.14    0.41 
   7  -3  -8    7.98    0.52 
  -7  -3   8    7.34    0.47 
   7  -3  -8    7.53    0.48 
   7   3  -8    7.34    0.51 
  -7   3   8    7.02    0.48 
  -7   3   8    7.71    0.45 
   7   3  -8    7.61    0.50 
  -5  -3   8    8.10    0.47 
   5  -3  -8    7.89    0.48 
   5  -3  -8    7.46    0.45 
   5   3  -8    7.15    0.46 
   5   3  -8    7.74    0.47 
  -5   3   8    7.76    0.48 
   3  -3  -8    0.12    0.11 
  -3  -3   8    0.10    0.10 
   3   3  -8    0.22    0.12 
  -3   3   8    0.06    0.10 
   3   3  -8    0.12    0.12 
  -1  -3   8    1.55    0.22 
   1  -3  -8    1.28    0.19 
  -1   3   8    1.58    0.23 
   1   3  -8    1.16    0.19 
   1   3  -8    1.35    0.21 
   1  -3   8    4.57    0.30 
  -1  -3  -8    4.66    0.30 
   1   3   8    5.04    0.32 
  -1   3  -8    4.56    0.29 
  -1   3  -8    4.28    0.29 
   3  -3   8   41.62    1.04 
  -3  -3  -8   40.08    0.97 
  -3   3  -8   41.08    1.25 
   3   3   8   42.28    1.06 
  -3   3  -8   41.24    1.00 
  -3   3  -8   43.56    0.98 
  -5  -3  -8   19.51    0.51 
   5  -3   8   19.28    0.64 
   5   3   8   19.65    0.64 
  -5   3  -8   18.90    0.51 
  -5   3  -8   18.59    0.52 
  -5   3  -8   18.35    0.84 
   7  -3   8    0.57    0.16 
  -7   3  -8    0.97    0.28 
   7   3   8    1.02    0.18 
   9  -3   8    2.41    0.30 
  -9   3  -8    3.04    0.49 
   9   3   8    2.21    0.28 
  11  -3   8   -0.06    0.14 
  11   3   8    0.28    0.15 
 -11   3  -8    0.95    0.34 
  11   3   8    0.09    0.15 
  13  -3   8    2.17    0.33 
  13   3   8    2.00    0.32 
  15  -3   8    0.36    0.21 
  15   3   8    0.27    0.19 
  16  -4  -8    0.31    0.24 
  16   4  -8    0.15    0.25 
  14  -4  -8    0.40    0.24 
 -14   4   8    0.43    0.24 
  14   4  -8   -0.23    0.16 
  12  -4  -8    0.13    0.19 
  12   4  -8    0.23    0.21 
 -12   4   8    0.25    0.18 
 -12   4   8   -0.01    0.16 
  10  -4  -8    0.49    0.24 
  10  -4  -8   -0.03    0.19 
  10   4  -8    0.61    0.24 
 -10   4   8    0.61    0.23 
 -10   4   8    0.30    0.19 
  10   4  -8    0.37    0.22 
   8  -4  -8    1.94    0.36 
   8  -4  -8    1.86    0.31 
  -8   4   8    1.77    0.31 
   8   4  -8    1.73    0.32 
  -8   4   8    1.44    0.29 
   8   4  -8    1.87    0.34 
  -6  -4   8   -0.05    0.12 
   6  -4  -8    0.09    0.17 
  -6   4   8    0.11    0.14 
   6   4  -8    0.06    0.13 
   6   4  -8    0.06    0.15 
   4  -4  -8    0.80    0.21 
  -4  -4   8    0.69    0.19 
  -4   4   8    1.46    0.28 
   4   4  -8    1.25    0.25 
   4   4  -8    1.55    0.26 
  -2  -4   8    2.04    0.31 
   2  -4  -8    2.23    0.30 
   2   4  -8    1.86    0.27 
  -2   4   8    1.86    0.28 
   2   4  -8    1.90    0.28 
   0  -4  -8   20.29    0.75 
   0  -4   8   20.81    0.77 
   0   4  -8   21.21    0.79 
   0   4   8   21.45    0.80 
  -2  -4  -8    0.01    0.09 
   2  -4   8    0.01    0.10 
   2   4   8   -0.01    0.10 
  -2   4  -8   -0.02    0.10 
   4  -4   8    2.05    0.27 
  -4  -4  -8    2.58    0.26 
   4   4   8    2.31    0.29 
  -4   4  -8    2.11    0.36 
  -4   4  -8    2.47    0.27 
   6  -4   8    0.04    0.12 
   6   4   8    0.10    0.11 
  -6   4  -8    0.09    0.09 
  -6   4  -8   -0.03    0.18 
   8  -4   8    0.36    0.17 
  -8   4  -8   -0.01    0.08 
  -8   4  -8   -0.04    0.20 
   8   4   8    0.05    0.13 
  10  -4   8    0.09    0.15 
 -10   4  -8    0.00    0.20 
  10   4   8    0.06    0.13 
  12   4   8    0.94    0.25 
 -12   4  -8    1.15    0.38 
  14  -4   8   -0.12    0.14 
  14   4   8    0.08    0.17 
  15  -5  -8   -0.01    0.19 
  15   5  -8    0.62    0.33 
 -15   5   8    0.30    0.28 
  13  -5  -8    0.41    0.24 
 -13   5   8    0.15    0.21 
  13   5  -8    0.67    0.27 
  11  -5  -8    1.18    0.32 
 -11   5   8    1.56    0.33 
  11   5  -8    1.06    0.32 
 -11   5   8    0.85    0.28 
   9  -5  -8   -0.07    0.20 
   9  -5  -8    0.39    0.19 
  -9   5   8    0.35    0.21 
   9   5  -8   -0.22    0.16 
   9   5  -8    0.11    0.15 
  -9   5   8    0.13    0.21 
   7  -5  -8    0.55    0.23 
   7   5  -8    0.75    0.26 
   7   5  -8    0.56    0.24 
  -7   5   8    0.64    0.23 
   5  -5  -8    2.22    0.37 
  -5   5   8    2.70    0.38 
   5   5  -8    2.90    0.40 
   5   5  -8    2.32    0.36 
  -3  -5   8    0.66    0.21 
   3  -5  -8    0.15    0.16 
   3   5  -8    0.74    0.22 
   3   5  -8    0.63    0.22 
  -3   5   8    0.36    0.19 
  -1  -5   8    1.81    0.30 
   1  -5  -8    1.52    0.27 
  -1   5   8    1.61    0.30 
   1   5  -8    1.72    0.31 
   1  -5   8    4.28    0.44 
   1   5   8    4.08    0.44 
  -1   5  -8    4.42    0.43 
   3  -5   8    0.10    0.13 
   3   5   8    0.08    0.15 
  -3   5  -8    0.03    0.12 
   5  -5   8   -0.10    0.12 
  -5   5  -8   -0.12    0.10 
   5   5   8   -0.09    0.12 
  -5   5  -8    0.05    0.21 
   7  -5   8    1.88    0.31 
  -7   5  -8    2.10    0.27 
   7   5   8    2.26    0.34 
  -7   5  -8    2.04    0.43 
  -9   5  -8   -0.30    0.17 
  -9   5  -8    0.05    0.09 
   9   5   8    0.01    0.15 
  11   5   8    0.79    0.23 
 -11   5  -8    0.29    0.28 
 -13   5  -8    0.09    0.28 
  13   5   8   -0.04    0.18 
  14  -6  -8   -0.16    0.18 
  14   6  -8    0.38    0.29 
 -14   6   8    0.94    0.35 
  12  -6  -8    1.58    0.37 
 -12   6   8    0.97    0.33 
  12   6  -8    0.70    0.32 
  10  -6  -8    2.22    0.42 
 -10   6   8    2.41    0.44 
 -10   6   8    1.75    0.41 
  10   6  -8    2.71    0.49 
  -8   6   8    2.07    0.41 
   8   6  -8    2.18    0.42 
   6   6  -8    8.49    0.66 
  -6   6   8    9.67    0.69 
   4   6  -8   11.20    0.73 
  -4   6   8   11.93    0.73 
  -2  -6   8    1.45    0.31 
   2   6  -8    0.99    0.28 
  -2   6   8    0.91    0.28 
   0  -6   8   10.38    0.65 
   0   6  -8   10.19    0.66 
   0   6   8   11.14    0.70 
   2  -6   8    0.11    0.16 
   2   6   8    0.41    0.21 
  -2   6  -8    0.32    0.20 
   4  -6   8    0.00    0.15 
  -4   6  -8    0.04    0.15 
   4   6   8    0.02    0.16 
   6  -6   8   -0.03    0.16 
  -6   6  -8   -0.22    0.11 
  -6   6  -8   -0.30    0.17 
   6   6   8   -0.09    0.14 
   8   6   8    2.84    0.41 
  -8   6  -8    2.72    0.51 
 -10   6  -8   -0.06    0.25 
  10   6   8    1.20    0.31 
 -12   6  -8    0.32    0.30 
  12   6   8    0.39    0.24 
  11  -7  -8    0.49    0.23 
 -11   7   8    0.31    0.27 
  11   7  -8    0.09    0.24 
  -9   7   8    5.27    0.65 
   9   7  -8    4.42    0.63 
  -7   7   8    3.07    0.51 
   7   7  -8    2.49    0.45 
  -5   7   8    3.82    0.55 
   5   7  -8    4.96    0.62 
  -3   7   8    2.74    0.49 
   3   7  -8    2.40    0.44 
  -1   7   8    1.27    0.34 
   1   7  -8    1.29    0.33 
   1  -7   8    0.15    0.18 
  -1   7  -8    0.44    0.23 
   1   7   8    0.23    0.21 
   3  -7   8    1.05    0.29 
  -3   7  -8    1.58    0.33 
   3   7   8    2.00    0.36 
  -5   7  -8    3.40    0.44 
   5   7   8    4.19    0.57 
  -7   7  -8    0.46    0.32 
   7   7   8    1.44    0.34 
   9   7   8   -0.05    0.15 
  -9   7  -8   -0.34    0.24 
 -11   7  -8   -0.32    0.24 
  11   7   8    0.03    0.18 
 -10   8   8    0.95    0.42 
  10   8  -8    0.61    0.31 
   8   8  -8    1.05    0.39 
   6   8  -8    0.25    0.23 
  -6   8   8    0.59    0.30 
  -4   8   8    0.69    0.31 
   4   8  -8    0.40    0.27 
   2   8  -8    0.62    0.28 
  -2   8   8    0.68    0.34 
   0   8   8    0.15    0.23 
   0   8  -8    0.40    0.26 
  -2   8  -8    1.50    0.36 
   2   8   8    1.87    0.43 
   4   8   8    1.26    0.36 
   6   8   8   -0.05    0.19 
  -8   8  -8    2.26    0.58 
   8   8   8    2.07    0.42 
   7   9  -8    0.86    0.36 
   5   9  -8   -0.04    0.23 
  -5   9   8   -0.02    0.23 
  -3   9   8   -0.34    0.21 
   3   9  -8   -0.09    0.21 
   1   9  -8    1.07    0.39 
  -1   9   8    1.16    0.41 
   1   9   8    2.40    0.52 
   3   9   8    0.01    0.25 
   5   9   8    1.74    0.41 
   0  10   8   -0.05    0.23 
  16   0  -9    0.29    0.25 
  14   0  -9   -0.24    0.16 
  14   0  -9    0.33    0.21 
 -12   0   9    0.08    0.16 
  12   0  -9   -0.06    0.13 
  12   0  -9   -0.13    0.16 
  12   0  -9   -0.05    0.13 
  10   0  -9   -0.11    0.10 
 -10   0   9   -0.02    0.13 
  10   0  -9   -0.09    0.15 
  10   0  -9    0.10    0.12 
   8   0  -9   -0.01    0.10 
   8   0  -9    0.04    0.12 
  -8   0   9    0.05    0.09 
   8   0  -9   -0.02    0.07 
  -8   0   9   -0.02    0.11 
   6   0  -9    0.26    0.14 
   6   0  -9    0.03    0.11 
  -6   0   9    0.06    0.11 
   6   0  -9    0.02    0.06 
  -6   0   9    0.24    0.15 
  -4   0   9    0.05    0.10 
   4   0  -9    0.19    0.11 
   4   0  -9   -0.01    0.07 
  -4   0   9    0.07    0.08 
  -2   0   9    0.03    0.06 
   2   0  -9    0.03    0.06 
   2   0  -9    0.03    0.08 
  -2   0   9    0.09    0.04 
  -2   0   9    0.06    0.08 
   0   0   9    0.18    0.08 
   0   0   9    0.17    0.08 
   2   0   9   -0.02    0.08 
   2   0   9   -0.01    0.03 
   2   0   9   -0.05    0.03 
   4   0   9    0.26    0.12 
   6   0   9    0.04    0.13 
   8   0   9   -0.01    0.15 
   8   0   9    0.03    0.06 
   8   0   9   -0.02    0.05 
  10   0   9    0.05    0.07 
  10   0   9   -0.03    0.07 
  12   0   9    0.16    0.11 
  12   0   9    0.12    0.10 
  14   0   9    0.03    0.12 
  16   0   9   -0.15    0.14 
  17  -1  -9    0.81    0.30 
  17   1  -9    0.98    0.34 
  15  -1  -9    1.36    0.40 
  15   1  -9    0.92    0.33 
  13  -1  -9    1.39    0.31 
  13  -1  -9    1.68    0.38 
 -13  -1   9    2.52    0.39 
  13   1  -9    1.68    0.33 
 -13   1   9    2.54    0.39 
  13   1  -9    1.66    0.34 
  13   1  -9    2.67    0.45 
  11  -1  -9    0.92    0.27 
  11  -1  -9    1.25    0.30 
 -11  -1   9    1.03    0.27 
  11   1  -9    1.44    0.32 
 -11   1   9    1.21    0.28 
  11   1  -9    0.88    0.22 
  11   1  -9    0.77    0.25 
   9  -1  -9    0.73    0.21 
  -9  -1   9    1.05    0.23 
   9  -1  -9    0.91    0.22 
   9   1  -9    0.78    0.22 
   9   1  -9    0.89    0.22 
  -9   1   9    0.62    0.19 
   9   1  -9    0.70    0.16 
   7  -1  -9    5.25    0.40 
  -7  -1   9    5.08    0.37 
   7  -1  -9    5.27    0.38 
  -7  -1   9    6.39    0.43 
  -7   1   9    5.78    0.42 
   7   1  -9    5.34    0.39 
  -7   1   9    5.51    0.37 
   7   1  -9    5.89    0.41 
  -5  -1   9   19.77    0.70 
   5  -1  -9   19.83    0.70 
  -5  -1   9   19.53    0.69 
   5  -1  -9   20.95    0.72 
  -5   1   9   20.55    0.71 
  -5   1   9   19.90    0.50 
   5   1  -9   18.86    0.69 
  -5   1   9   20.53    0.69 
   5   1  -9   19.12    0.69 
  -3  -1   9   15.75    0.58 
  -3  -1   9   15.91    0.57 
   3  -1  -9   16.62    0.56 
   3  -1  -9   16.68    0.57 
  -3   1   9   15.94    0.59 
  -3   1   9   16.31    0.56 
   3   1  -9   15.66    0.55 
   3   1  -9   16.09    0.56 
  -1  -1   9  104.58    1.97 
   1  -1  -9  100.08    1.96 
  -1   1   9  105.87    1.98 
   1   1  -9  104.03    1.96 
  -1   1   9  104.03    2.00 
   1   1  -9  102.62    1.95 
   1  -1   9   14.26    0.41 
  -1  -1  -9   14.74    0.36 
   1  -1   9   14.13    0.41 
   1  -1   9   14.67    0.54 
  -1  -1  -9   14.40    0.36 
   1   1   9   14.50    0.40 
  -1   1  -9   14.35    0.36 
  -1   1  -9   14.91    0.53 
  -1   1  -9   14.72    0.36 
   1   1   9   14.37    0.41 
   3  -1   9    2.52    0.28 
   3  -1   9    2.44    0.12 
   3  -1   9    2.61    0.13 
  -3   1  -9    3.01    0.31 
   3   1   9    2.68    0.12 
   3   1   9    2.57    0.12 
   5  -1   9    1.28    0.10 
   5  -1   9    1.61    0.29 
  -5   1  -9    1.23    0.23 
   5   1   9    1.46    0.09 
   7  -1   9    5.94    0.25 
   7  -1   9    6.62    0.52 
   7   1   9    6.40    0.48 
   7   1   9    5.63    0.24 
   9  -1   9    4.95    0.28 
   9   1   9    4.75    0.28 
   9   1   9    5.39    0.29 
  11  -1   9   -0.08    0.08 
  11  -1   9    0.02    0.10 
  11   1   9    0.09    0.10 
  11   1   9   -0.07    0.08 
  13  -1   9    0.04    0.12 
  13   1   9    0.05    0.12 
  15  -1   9   -0.07    0.13 
  15   1   9    0.15    0.16 
  16  -2  -9   -0.24    0.18 
  16   2  -9    0.09    0.20 
  14  -2  -9    4.35    0.57 
  14   2  -9    4.69    0.53 
  14   2  -9    4.03    0.57 
  12  -2  -9    0.04    0.18 
  12  -2  -9    0.06    0.16 
 -12   2   9   -0.09    0.13 
  12   2  -9   -0.17    0.15 
  12   2  -9   -0.08    0.17 
  12   2  -9   -0.05    0.12 
  10  -2  -9    3.97    0.46 
  10  -2  -9    4.68    0.48 
 -10   2   9    4.62    0.37 
  10   2  -9    4.83    0.52 
  10   2  -9    4.90    0.50 
 -10   2   9    5.37    0.50 
  -8  -2   9    3.78    0.39 
   8  -2  -9    3.60    0.41 
  -8  -2   9    3.89    0.41 
  -8   2   9    3.94    0.30 
   8   2  -9    4.32    0.44 
   8   2  -9    4.48    0.46 
  -8   2   9    3.52    0.40 
  -6  -2   9   16.94    0.69 
  -6  -2   9   16.94    0.69 
   6  -2  -9   17.53    0.68 
   6  -2  -9   16.17    0.70 
  -6   2   9   16.15    0.69 
  -6   2   9   16.76    0.57 
   6   2  -9   15.69    0.69 
   6   2  -9   17.41    0.69 
   4  -2  -9    2.73    0.28 
   4  -2  -9    3.58    0.33 
  -4  -2   9    3.16    0.31 
  -4  -2   9    3.22    0.31 
  -4   2   9    3.05    0.33 
   4   2  -9    3.79    0.34 
   4   2  -9    3.69    0.30 
   2  -2  -9    0.79    0.15 
  -2  -2   9    1.00    0.18 
   2  -2  -9    0.84    0.16 
  -2  -2   9    1.23    0.19 
   2   2  -9    0.94    0.16 
  -2   2   9    0.72    0.16 
   2   2  -9    0.98    0.17 
   0  -2   9   35.61    0.90 
   0  -2  -9   36.81    0.88 
   0  -2   9   36.56    0.90 
   0   2   9   37.68    0.93 
   0   2  -9   36.89    0.88 
  -2  -2  -9   19.69    0.48 
   2  -2   9   18.58    0.55 
  -2  -2  -9   18.85    0.49 
  -2   2  -9   19.84    0.50 
  -2   2  -9   18.85    0.71 
   2   2   9   19.03    0.55 
  -2   2  -9   19.85    0.51 
   4  -2   9    3.51    0.21 
   4   2   9    3.50    0.21 
   6  -2   9    0.08    0.08 
   6  -2   9   -0.02    0.16 
   6   2   9    0.13    0.07 
  -6   2  -9   -0.14    0.12 
   8  -2   9   18.46    0.60 
   8  -2   9   19.37    0.96 
   8   2   9   19.66    0.61 
  -8   2  -9   17.80    0.91 
  10  -2   9    7.97    0.42 
  10   2   9    8.00    0.42 
  10   2   9    7.59    0.42 
  12  -2   9    0.76    0.18 
  12  -2   9    0.60    0.18 
  12   2   9    0.27    0.15 
  12   2   9    0.36    0.15 
  14  -2   9    0.22    0.15 
  14   2   9    0.27    0.17 
  15  -3  -9    0.56    0.30 
  15   3  -9    1.18    0.37 
  13  -3  -9    0.69    0.27 
 -13   3   9    0.64    0.25 
  13   3  -9    0.42    0.25 
  11  -3  -9   18.44    0.89 
  11  -3  -9   18.40    0.93 
 -11   3   9   17.59    0.83 
  11   3  -9   19.11    0.98 
  11   3  -9   17.51    0.89 
 -11   3   9   17.73    0.85 
   9  -3  -9    1.43    0.31 
   9  -3  -9    1.58    0.29 
   9   3  -9    1.36    0.30 
   9   3  -9    1.55    0.30 
  -9   3   9    1.29    0.28 
  -9   3   9    1.56    0.27 
   7  -3  -9    4.36    0.43 
  -7  -3   9    5.22    0.40 
   7  -3  -9    5.86    0.46 
  -7   3   9    5.51    0.39 
   7   3  -9    5.43    0.42 
   7   3  -9    5.92    0.46 
  -7   3   9    5.49    0.44 
  -5  -3   9   34.33    1.08 
   5  -3  -9   35.10    1.09 
   5  -3  -9   35.33    1.05 
  -5   3   9   33.76    1.07 
   5   3  -9   32.67    1.09 
   5   3  -9   32.35    1.04 
  -3  -3   9   52.86    1.37 
   3  -3  -9   51.88    1.35 
   3  -3  -9   50.77    1.31 
   3   3  -9   52.61    1.33 
   3   3  -9   50.04    1.36 
  -3   3   9   52.62    1.36 
   1  -3  -9  131.23    2.61 
  -1  -3   9  132.79    2.63 
   1   3  -9  129.21    2.58 
  -1   3   9  130.71    2.64 
   1   3  -9  130.93    2.64 
   1  -3   9    4.74    0.31 
  -1  -3  -9    4.79    0.30 
  -1   3  -9    5.06    0.31 
   3  -3   9   14.75    0.54 
  -3  -3  -9   14.45    0.48 
  -3   3  -9   14.07    0.48 
  -3   3  -9   14.66    0.48 
  -3   3  -9   14.11    0.68 
   3   3   9   14.25    0.54 
  -5  -3  -9   23.27    0.54 
   5  -3   9   22.24    0.71 
  -5  -3  -9   23.22    0.53 
  -5   3  -9   22.83    0.55 
   5   3   9   22.15    0.70 
  -5   3  -9   23.11    0.56 
  -5   3  -9   22.67    0.97 
   7  -3   9    0.22    0.12 
   7   3   9    0.24    0.11 
  -7   3  -9    0.42    0.24 
   9  -3   9    7.61    0.45 
  -9   3  -9    8.07    0.68 
   9   3   9    8.71    0.47 
  11  -3   9    4.10    0.41 
  11   3   9    2.72    0.34 
 -11   3  -9    3.40    0.55 
  11   3   9    3.92    0.41 
  13  -3   9    0.84    0.23 
  13   3   9    0.71    0.22 
  15  -3   9    0.01    0.16 
  15   3   9    0.65    0.24 
  16  -4  -9   -0.10    0.21 
  16   4  -9    0.12    0.24 
  14  -4  -9    1.71    0.40 
  14   4  -9    1.98    0.43 
 -14   4   9    1.48    0.35 
  12  -4  -9    0.47    0.23 
  12   4  -9    0.01    0.18 
 -12   4   9    0.12    0.17 
 -12   4   9    0.35    0.22 
  10  -4  -9    2.12    0.39 
  10  -4  -9    2.05    0.37 
 -10   4   9    2.52    0.37 
  10   4  -9    2.03    0.38 
 -10   4   9    1.44    0.31 
  10   4  -9    1.99    0.37 
   8  -4  -9    1.58    0.28 
   8  -4  -9    1.37    0.30 
  -8   4   9    1.98    0.33 
   8   4  -9    2.01    0.37 
   8   4  -9    2.05    0.35 
  -8   4   9    1.76    0.32 
   6  -4  -9   27.49    1.04 
   6  -4  -9   26.33    0.97 
  -6  -4   9   24.25    0.97 
   6   4  -9   25.42    1.02 
   6   4  -9   28.05    1.01 
  -6   4   9   25.21    1.00 
  -4  -4   9    6.00    0.44 
   4  -4  -9    5.70    0.44 
  -4   4   9    5.39    0.44 
   4   4  -9    6.49    0.46 
   4   4  -9    5.70    0.44 
  -2  -4   9    0.18    0.14 
   2  -4  -9    0.33    0.15 
   2   4  -9    0.17    0.13 
   2   4  -9    0.05    0.12 
  -2   4   9    0.11    0.14 
   0  -4  -9   66.07    1.61 
   0  -4   9   66.86    1.64 
   0   4  -9   69.40    1.68 
   0   4  -9   68.05    1.60 
   0   4   9   66.67    1.67 
  -2  -4  -9    0.94    0.19 
   2  -4   9    1.02    0.20 
   2   4   9    0.72    0.19 
  -2   4  -9    1.08    0.19 
  -2   4  -9    0.49    0.15 
   4  -4   9    0.27    0.14 
  -4  -4  -9    0.09    0.08 
   4   4   9    0.09    0.12 
  -4   4  -9    0.17    0.19 
  -4   4  -9    0.28    0.11 
   6  -4   9    2.15    0.28 
   6   4   9    1.58    0.26 
  -6   4  -9    1.95    0.21 
  -6   4  -9    1.87    0.37 
   8  -4   9   10.59    0.57 
  -8   4  -9   12.00    0.82 
  -8   4  -9   10.87    0.31 
   8   4   9   10.30    0.56 
  10  -4   9    2.54    0.35 
 -10   4  -9    3.81    0.58 
  10   4   9    2.75    0.35 
  12   4   9    0.27    0.17 
 -12   4  -9    0.03    0.21 
  14  -4   9    1.74    0.34 
  14   4   9    1.26    0.29 
  15  -5  -9    1.28    0.36 
 -15   5   9    1.21    0.36 
  15   5  -9    0.80    0.35 
  13  -5  -9    0.08    0.20 
 -13   5   9    0.23    0.20 
  13   5  -9    0.18    0.22 
  11  -5  -9    2.08    0.41 
  11   5  -9    2.06    0.64 
  11   5  -9    2.74    0.48 
 -11   5   9    1.91    0.39 
 -11   5   9    1.80    0.38 
   9  -5  -9    2.90    0.45 
   9  -5  -9    3.75    0.49 
  -9   5   9    2.62    0.42 
  -9   5   9    2.90    0.44 
   9   5  -9    3.72    0.53 
   9   5  -9    3.99    0.54 
   7  -5  -9    2.75    0.43 
   7   5  -9    2.88    0.43 
  -7   5   9    2.58    0.39 
   7   5  -9    3.77    0.48 
   5  -5  -9   13.00    0.73 
   5   5  -9   12.16    0.68 
  -5   5   9   12.75    0.72 
   5   5  -9   13.38    0.74 
  -3  -5   9    9.78    0.61 
   3  -5  -9   10.69    0.62 
  -3   5   9   11.11    0.65 
   3   5  -9    9.38    0.60 
   3   5  -9    9.27    0.58 
  -1  -5   9    8.81    0.55 
  -1   5   9    7.95    0.55 
   1   5  -9    7.65    0.52 
   1  -5   9   -0.06    0.10 
  -1   5  -9    0.29    0.16 
   1   5   9    0.09    0.12 
   3  -5   9    4.00    0.44 
   3   5   9    3.72    0.42 
  -3   5  -9    3.80    0.38 
   5  -5   9    5.24    0.42 
  -5   5  -9    5.10    0.37 
   5   5   9    4.87    0.47 
  -5   5  -9    4.84    0.61 
   7  -5   9   -0.11    0.13 
   7   5   9   -0.18    0.11 
  -7   5  -9    0.11    0.12 
  -7   5  -9   -0.24    0.19 
   9   5   9    0.28    0.18 
  -9   5  -9    0.52    0.12 
  -9   5  -9    0.72    0.34 
 -11   5  -9    2.19    0.49 
  11   5   9    1.30    0.30 
  13   5   9    0.66    0.27 
 -13   5  -9    0.91    0.37 
  14  -6  -9    1.60    0.40 
  14   6  -9    2.68    0.53 
 -14   6   9    1.95    0.45 
  12  -6  -9    2.14    0.42 
  12   6  -9    1.99    0.44 
 -12   6   9    0.86    0.30 
  10  -6  -9    0.21    0.18 
  10   6  -9   -0.12    0.16 
 -10   6   9    0.02    0.23 
 -10   6   9    0.17    0.21 
   8   6  -9    3.21    0.48 
  -8   6   9    2.59    0.45 
   6   6  -9    7.22    0.69 
  -6   6   9    6.40    0.65 
  -4   6   9    1.20    0.31 
   4   6  -9    0.75    0.27 
  -2  -6   9    3.25    0.43 
  -2   6   9    2.61    0.40 
   2   6  -9    3.37    0.44 
   0  -6   9    6.11    0.59 
   0   6   9    7.01    0.55 
   0   6  -9    7.43    0.57 
   2  -6   9    1.50    0.31 
  -2   6  -9    2.06    0.35 
   2   6   9    1.95    0.36 
   4  -6   9    0.38    0.19 
   4   6   9    0.34    0.20 
  -4   6  -9    0.20    0.16 
   6  -6   9    5.47    0.56 
   6   6   9    4.95    0.54 
  -6   6  -9    5.30    0.48 
  -6   6  -9    5.40    0.71 
  -8   6  -9    0.99    0.38 
   8   6   9    0.75    0.25 
  10   6   9   -0.18    0.16 
 -10   6  -9   -0.35    0.20 
 -12   6  -9    0.13    0.30 
  12   6   9   -0.04    0.18 
  11  -7  -9   -0.16    0.18 
  11   7  -9    0.13    0.23 
 -11   7   9    0.70    0.30 
   9   7  -9    0.05    0.22 
  -9   7   9    0.16    0.19 
  -7   7   9    0.25    0.23 
   7   7  -9    0.58    0.28 
   5   7  -9    0.32    0.21 
  -5   7   9    0.22    0.25 
  -3   7   9    2.86    0.49 
   3   7  -9    2.85    0.46 
  -1   7   9    7.31    0.72 
   1   7  -9    7.12    0.68 
   1  -7   9    2.14    0.38 
   1   7   9    3.04    0.48 
  -1   7  -9    1.39    0.34 
   3  -7   9    1.76    0.35 
  -3   7  -9    1.96    0.37 
   3   7   9    1.77    0.38 
   5   7   9    1.46    0.35 
  -5   7  -9    1.55    0.32 
   7   7   9    2.77    0.46 
  -7   7  -9    1.20    0.43 
   9   7   9    0.86    0.28 
  -9   7  -9    0.76    0.42 
  11   7   9    0.45    0.26 
 -11   7  -9    0.52    0.35 
  10  -8  -9    0.33    0.27 
  10   8  -9    0.53    0.32 
 -10   8   9    0.07    0.31 
   8   8  -9   -0.28    0.18 
  -8   8   9    0.21    0.26 
  -6   8   9    1.16    0.35 
   6   8  -9    0.84    0.31 
   4   8  -9    0.30    0.25 
  -4   8   9    0.14    0.23 
   2   8  -9    3.02    0.49 
  -2   8   9    2.39    0.48 
   0   8   9   -0.14    0.18 
   0   8  -9   -0.11    0.17 
  -2   8  -9    0.22    0.22 
   2   8   9    0.08    0.22 
   4   8   9    0.20    0.22 
  -6   8  -9    0.28    0.32 
   6   8   9    0.23    0.25 
  -8   8  -9    0.14    0.30 
   8   8   9    0.07    0.20 
   7   9  -9    0.39    0.32 
  -5   9   9   -0.19    0.24 
   5   9  -9    0.34    0.28 
   3   9  -9    1.16    0.37 
  -3   9   9    0.44    0.33 
   1   9  -9    0.05    0.25 
  -1   9   9   -0.06    0.24 
   1   9   9   -0.07    0.25 
   3   9   9    0.13    0.23 
   5   9   9   -0.06    0.24 
  16   0 -10    9.15    0.91 
  14   0 -10    7.10    0.71 
  14   0 -10    6.22    0.52 
  12   0 -10    7.19    0.48 
 -12   0  10    7.73    0.56 
  12   0 -10    8.11    0.60 
  12   0 -10    6.24    0.62 
  10   0 -10   14.25    0.75 
  10   0 -10   13.37    0.71 
 -10   0  10   14.34    0.71 
  10   0 -10   14.81    0.59 
   8   0 -10    3.34    0.23 
   8   0 -10    3.61    0.40 
   8   0 -10    3.65    0.41 
  -8   0  10    3.23    0.38 
  -8   0  10    3.35    0.36 
  -6   0  10   13.37    0.59 
  -6   0  10   13.33    0.58 
   6   0 -10   13.24    0.59 
   6   0 -10   13.04    0.35 
   6   0 -10   12.70    0.57 
  -4   0  10   94.21    2.02 
   4   0 -10   95.89    1.99 
   4   0 -10   95.57    2.00 
  -4   0  10   97.50    2.01 
   2   0 -10  122.11    2.31 
  -2   0  10  120.94    2.34 
  -2   0  10  123.01    2.31 
   2   0 -10  121.92    2.32 
  -2   0  10  120.55    2.12 
   0   0 -10   98.19    1.78 
   0   0  10   99.51    1.89 
   0   0  10   95.30    1.85 
   0   0  10   97.61    1.82 
   0   0 -10   97.14    1.77 
   2   0  10  235.59    3.88 
   2   0  10  230.26    3.88 
   2   0  10  232.82    4.27 
   4   0  10    3.61    0.36 
   6   0  10    9.87    0.59 
   8   0  10    0.86    0.25 
   8   0  10    0.59    0.10 
   8   0  10    0.74    0.10 
  10   0  10    0.06    0.08 
  10   0  10    0.12    0.09 
  12   0  10    0.12    0.10 
  12   0  10    0.03    0.10 
  14   0  10    0.04    0.12 
  16   0  10    0.28    0.21 
  17  -1 -10    0.47    0.29 
  17   1 -10    0.59    0.31 
  15  -1 -10    0.68    0.28 
  15   1 -10    1.06    0.34 
  13  -1 -10    4.12    0.53 
 -13  -1  10    4.13    0.49 
  13  -1 -10    6.36    0.66 
  13   1 -10    6.19    0.63 
  13   1 -10    6.14    0.64 
  13   1 -10    5.35    0.44 
 -13   1  10    5.97    0.59 
 -11  -1  10    3.58    0.43 
  11  -1 -10    4.28    0.52 
  11  -1 -10    3.46    0.44 
  11   1 -10    3.85    0.38 
  11   1 -10    3.30    0.43 
 -11   1  10    3.35    0.41 
  11   1 -10    2.91    0.41 
   9  -1 -10    4.03    0.43 
  -9  -1  10    3.62    0.42 
   9  -1 -10    4.43    0.47 
   9   1 -10    3.72    0.28 
   9   1 -10    3.80    0.44 
  -9   1  10    3.74    0.42 
   9   1 -10    3.37    0.40 
   7  -1 -10   14.54    0.66 
  -7  -1  10   15.56    0.67 
   7  -1 -10   14.35    0.64 
  -7  -1  10   14.67    0.64 
   7   1 -10   14.46    0.65 
  -7   1  10   14.13    0.66 
  -7   1  10   13.81    0.61 
   7   1 -10   15.44    0.67 
   5  -1 -10  123.19    2.52 
  -5  -1  10  121.12    2.51 
   5  -1 -10  123.84    2.50 
  -5  -1  10  124.59    2.51 
  -5   1  10  122.74    2.50 
   5   1 -10  124.06    2.51 
  -5   1  10  122.46    2.52 
   5   1 -10  121.61    2.52 
  -5   1  10  119.12    2.15 
   3  -1 -10    3.74    0.26 
  -3  -1  10    4.62    0.31 
   3  -1 -10    4.30    0.30 
  -3  -1  10    4.23    0.28 
   3   1 -10    4.40    0.28 
   3   1 -10    4.25    0.28 
  -3   1  10    4.42    0.30 
  -3   1  10    3.85    0.27 
   1  -1 -10    8.06    0.34 
  -1  -1  10    8.13    0.36 
  -1  -1  10    7.47    0.35 
   1   1 -10    7.34    0.32 
   1   1 -10    8.08    0.33 
  -1   1  10    7.68    0.34 
  -1   1  10    8.22    0.36 
  -1  -1 -10   89.09    1.58 
   1  -1  10   91.36    1.87 
   1  -1  10   84.10    1.66 
   1  -1  10   89.21    1.67 
  -1  -1 -10   89.51    1.58 
  -1   1 -10   89.49    1.59 
  -1   1 -10   89.72    1.59 
   1   1  10   85.25    1.66 
   1   1  10   88.69    1.66 
  -1   1 -10   87.50    1.85 
   3  -1  10    1.26    0.10 
   3  -1  10    1.30    0.10 
   3  -1  10    1.03    0.21 
   3   1  10    1.35    0.10 
  -3   1 -10    1.34    0.23 
   3   1  10    1.21    0.09 
   5  -1  10    0.09    0.04 
   5  -1  10   -0.21    0.10 
   5   1  10   -0.01    0.03 
  -5   1 -10    0.20    0.13 
   7  -1  10   15.33    0.78 
   7  -1  10   15.39    0.42 
   7   1  10   14.95    0.41 
   7   1  10   15.08    0.78 
   9  -1  10    0.83    0.14 
   9   1  10    0.62    0.12 
   9   1  10    0.79    0.13 
  11  -1  10    0.09    0.10 
  11  -1  10    0.09    0.09 
  11   1  10    0.08    0.10 
  11   1  10    0.01    0.09 
  13  -1  10    0.48    0.16 
  13   1  10    0.28    0.15 
  15  -1  10    0.21    0.16 
  15   1  10   -0.09    0.14 
  16  -2 -10    0.73    0.30 
  16   2 -10    0.33    0.24 
  14  -2 -10    0.76    0.29 
  14   2 -10    0.65    0.26 
  14   2 -10    0.49    0.28 
  12  -2 -10    0.54    0.25 
  12  -2 -10    0.41    0.21 
  12   2 -10    0.48    0.24 
 -12   2  10    0.75    0.24 
  12   2 -10    0.17    0.18 
  12   2 -10    0.70    0.21 
  10  -2 -10    5.41    0.55 
 -10  -2  10    5.98    0.56 
  10  -2 -10    4.72    0.49 
 -10   2  10    5.18    0.50 
  10   2 -10    4.56    0.51 
  10   2 -10    4.77    0.51 
   8  -2 -10    1.56    0.26 
  -8  -2  10    2.39    0.32 
   8  -2 -10    1.75    0.31 
  -8  -2  10    2.25    0.32 
   8   2 -10    1.40    0.26 
   8   2 -10    2.18    0.32 
  -8   2  10    1.70    0.22 
  -8   2  10    1.69    0.29 
   6  -2 -10    6.66    0.42 
  -6  -2  10    7.13    0.43 
   6  -2 -10    6.23    0.43 
  -6  -2  10    6.33    0.43 
   6   2 -10    6.56    0.43 
  -6   2  10    6.87    0.34 
  -6   2  10    6.66    0.45 
   6   2 -10    6.09    0.42 
   4  -2 -10    5.33    0.37 
  -4  -2  10    5.15    0.36 
  -4  -2  10    5.32    0.35 
   4  -2 -10    5.28    0.35 
   4   2 -10    4.71    0.34 
   4   2 -10    5.12    0.35 
  -4   2  10    4.70    0.36 
  -2  -2  10   11.79    0.50 
   2  -2 -10   12.06    0.48 
   2  -2 -10   11.94    0.50 
  -2  -2  10   13.35    0.52 
   2   2 -10   12.25    0.49 
   2   2 -10   11.92    0.50 
  -2   2  10   11.62    0.50 
   0  -2  10  126.79    2.44 
   0  -2 -10  128.04    2.41 
   0  -2  10  128.80    2.45 
   0   2  10  126.37    2.44 
   0   2 -10  127.81    2.40 
  -2  -2 -10    0.53    0.09 
   2  -2  10    0.42    0.10 
  -2  -2 -10    0.56    0.08 
  -2   2 -10    0.76    0.10 
   2   2  10    0.48    0.11 
  -2   2 -10    0.65    0.17 
  -2   2 -10    0.56    0.09 
   4  -2  10    0.38    0.09 
  -4   2 -10    0.50    0.18 
   4   2  10    0.34    0.09 
   6  -2  10    0.18    0.18 
   6  -2  10    0.39    0.10 
   6   2  10    0.41    0.09 
  -6   2 -10    0.55    0.21 
   8  -2  10   -0.09    0.08 
  -8   2 -10    0.13    0.17 
   8   2  10    0.10    0.08 
  10  -2  10    4.07    0.31 
  10   2  10    3.86    0.31 
  10   2  10    4.00    0.30 
  12  -2  10    2.18    0.29 
  12  -2  10    2.35    0.29 
  12   2  10    2.18    0.29 
  12   2  10    2.14    0.29 
  14  -2  10    0.26    0.15 
  14   2  10    0.03    0.13 
  15  -3 -10    0.86    0.32 
  15   3 -10    0.34    0.24 
  13  -3 -10    0.02    0.17 
 -13   3  10   -0.15    0.16 
  13   3 -10    0.13    0.19 
  11  -3 -10    6.70    0.55 
  11  -3 -10    8.27    0.64 
 -11   3  10    6.70    0.54 
  11   3 -10    7.73    0.62 
  11   3 -10    7.11    0.68 
 -11   3  10    7.10    0.52 
   9  -3 -10   12.06    0.71 
   9  -3 -10   11.46    0.66 
   9   3 -10   12.61    0.73 
   9   3 -10   13.82    0.73 
  -9   3  10   11.24    0.67 
  -9   3  10   12.66    0.63 
   7  -3 -10    0.23    0.16 
  -7  -3  10    0.19    0.14 
   7  -3 -10    0.20    0.13 
  -7   3  10    0.01    0.13 
   7   3 -10    0.36    0.16 
  -7   3  10    0.15    0.13 
   7   3 -10    0.31    0.17 
  -5  -3  10   52.81    1.42 
   5  -3 -10   49.44    1.39 
   5  -3 -10   49.49    1.35 
  -5   3  10   50.07    1.42 
   5   3 -10   49.67    1.36 
   5   3 -10   49.20    1.41 
   3  -3 -10    0.18    0.13 
  -3  -3  10   -0.09    0.09 
   3  -3 -10    0.05    0.10 
  -3   3  10    0.11    0.12 
   3   3 -10    0.00    0.10 
   3   3 -10    0.07    0.11 
   1  -3 -10   75.61    1.65 
   1  -3 -10   75.76    1.68 
  -1  -3  10   76.44    1.71 
   1   3 -10   72.66    1.65 
  -1   3  10   73.54    1.69 
   1   3 -10   71.91    1.69 
  -1  -3 -10   48.72    1.16 
   1  -3  10   49.31    1.21 
  -1   3 -10   49.50    1.16 
   1   3  10   47.72    1.21 
   3  -3  10    1.01    0.17 
  -3  -3 -10    1.09    0.15 
  -3  -3 -10    1.08    0.14 
  -3   3 -10    1.03    0.23 
   3   3  10    1.26    0.19 
  -3   3 -10    0.90    0.15 
  -3   3 -10    1.14    0.16 
  -5  -3 -10    0.34    0.05 
   5  -3  10    0.31    0.12 
  -5  -3 -10    0.31    0.05 
  -5   3 -10    0.32    0.18 
  -5   3 -10    0.31    0.07 
   5   3  10    0.25    0.11 
  -5   3 -10    0.24    0.06 
   7  -3  10    0.02    0.10 
  -7   3 -10    0.13    0.18 
   7   3  10    0.05    0.10 
   9  -3  10    0.20    0.13 
  -9   3 -10    0.13    0.19 
   9   3  10    0.03    0.10 
  11  -3  10    0.35    0.17 
  11   3  10    0.27    0.14 
 -11   3 -10    0.57    0.29 
  11   3  10    0.28    0.16 
  13  -3  10    1.02    0.24 
  13   3  10    0.94    0.24 
  15  -3  10    0.18    0.18 
  15   3  10    0.34    0.20 
  16  -4 -10   -0.13    0.20 
  16   4 -10    0.08    0.24 
  14  -4 -10   -0.14    0.18 
  14   4 -10    0.06    0.22 
 -14   4  10   -0.19    0.16 
  12  -4 -10   -0.04    0.17 
 -12   4  10    0.29    0.21 
 -12   4  10    0.27    0.19 
  12   4 -10    0.00    0.17 
  10  -4 -10    4.45    0.51 
  10  -4 -10    4.60    0.57 
 -10   4  10    3.37    0.42 
 -10   4  10    3.81    0.49 
  10   4 -10    3.70    0.49 
  10   4 -10    3.62    0.48 
   8  -4 -10    5.00    0.54 
   8  -4 -10    3.70    0.43 
  -8   4  10    4.73    0.46 
  -8   4  10    4.76    0.52 
   8   4 -10    4.57    0.52 
   8   4 -10    5.11    0.53 
   6  -4 -10    1.29    0.29 
  -6  -4  10    1.44    0.28 
   6  -4 -10    2.32    0.34 
   6   4 -10    1.58    0.29 
  -6   4  10    1.78    0.33 
   6   4 -10    1.28    0.28 
   4  -4 -10   13.30    0.68 
  -4  -4  10   13.27    0.66 
  -4   4  10   13.19    0.68 
   4   4 -10   13.03    0.64 
   4   4 -10   12.87    0.67 
  -2  -4  10   13.82    0.64 
   2  -4 -10   13.71    0.64 
   2   4 -10   13.54    0.62 
  -2   4  10   13.48    0.66 
   2   4 -10   12.49    0.63 
   0  -4  10    6.58    0.43 
   0  -4 -10    6.23    0.40 
   0   4  10    5.23    0.41 
   0   4 -10    5.97    0.39 
   0   4 -10    6.59    0.43 
  -2  -4 -10   15.07    0.59 
   2  -4  10   14.15    0.61 
  -2   4 -10   13.24    0.55 
   2   4  10   14.12    0.62 
   4  -4  10   -0.06    0.08 
  -4   4 -10   -0.08    0.16 
  -4   4 -10   -0.04    0.08 
   4   4  10   -0.12    0.09 
   6  -4  10    1.00    0.21 
  -6   4 -10    1.17    0.16 
   6   4  10    1.03    0.23 
  -6   4 -10    0.75    0.28 
   8  -4  10    1.67    0.27 
   8   4  10    2.14    0.30 
  -8   4 -10    2.01    0.42 
  10  -4  10    0.52    0.24 
  10   4  10    0.33    0.17 
 -10   4 -10    0.68    0.30 
 -12   4 -10    0.22    0.25 
  12   4  10   -0.16    0.12 
  14  -4  10    0.32    0.21 
  14   4  10    0.02    0.16 
  15  -5 -10    0.16    0.23 
  15   5 -10   -0.08    0.22 
  13  -5 -10    1.28    0.35 
 -13   5  10    1.31    0.34 
  13   5 -10    0.67    0.31 
  11  -5 -10    2.05    0.41 
 -11   5  10    1.23    0.31 
  11   5 -10    1.03    0.31 
 -11   5  10    1.54    0.35 
   9  -5 -10    0.11    0.16 
  -9   5  10   -0.11    0.15 
   9   5 -10    0.07    0.15 
  -9   5  10   -0.02    0.19 
   7  -5 -10    0.59    0.23 
   7  -5 -10    0.73    0.30 
   7   5 -10    0.65    0.23 
   7   5 -10    0.47    0.23 
  -7   5  10    0.74    0.26 
   5  -5 -10    1.85    0.41 
   5   5 -10    2.04    0.37 
  -5   5  10    1.70    0.34 
   5   5 -10    1.95    0.37 
  -3  -5  10    0.06    0.14 
   3   5 -10    0.09    0.14 
  -3   5  10    0.24    0.19 
  -1  -5  10    0.43    0.17 
  -1   5  10    0.31    0.18 
   1   5 -10    0.41    0.19 
   1  -5  10    0.21    0.15 
   1   5  10    0.36    0.20 
  -1   5 -10    0.14    0.14 
   3  -5  10    0.92    0.21 
   3   5  10    0.56    0.21 
   5  -5  10    0.98    0.24 
   5   5  10    0.97    0.24 
  -5   5 -10    1.75    0.25 
  -5   5 -10    1.28    0.34 
   7  -5  10    1.04    0.24 
   7   5  10    1.16    0.27 
  -7   5 -10    0.88    0.17 
  -7   5 -10    1.14    0.36 
   9   5  10    0.09    0.15 
  -9   5 -10    0.27    0.24 
  11   5  10    1.31    0.30 
 -11   5 -10    1.18    0.39 
 -13   5 -10    0.99    0.42 
  13   5  10    0.19    0.19 
  14  -6 -10    0.33    0.25 
 -14   6  10    0.79    0.31 
  14   6 -10    0.32    0.27 
  12  -6 -10    0.57    0.26 
 -12   6  10    0.57    0.27 
  12   6 -10    0.28    0.26 
  10  -6 -10    0.21    0.19 
  10   6 -10    0.27    0.24 
 -10   6  10    0.65    0.28 
 -10   6  10   -0.02    0.24 
   8  -6 -10    3.88    0.52 
   8   6 -10    2.39    0.46 
  -8   6  10    2.71    0.46 
  -6   6  10   -0.13    0.18 
   6   6 -10    0.09    0.16 
  -4   6  10    9.47    0.69 
   4   6 -10    7.27    0.60 
  -2  -6  10    1.70    0.34 
   2   6 -10    2.17    0.38 
  -2   6  10    1.72    0.35 
   0  -6  10    3.87    0.47 
   0   6 -10    4.21    0.47 
   0   6  10    4.85    0.53 
   2  -6  10   -0.07    0.15 
  -2   6 -10    0.11    0.15 
   2   6  10   -0.07    0.16 
   4  -6  10    0.41    0.20 
   4   6  10    0.30    0.19 
  -4   6 -10    0.00    0.10 
   6  -6  10   -0.13    0.15 
  -6   6 -10    0.33    0.25 
  -6   6 -10   -0.06    0.13 
   6   6  10    0.10    0.16 
  -8   6 -10   -0.22    0.21 
   8   6  10    0.16    0.20 
 -10   6 -10    0.15    0.28 
  10   6  10    0.11    0.19 
  12   6  10    0.21    0.24 
 -12   6 -10    0.18    0.33 
  11  -7 -10    0.42    0.25 
 -11   7  10    0.10    0.25 
  11   7 -10    0.30    0.27 
   9  -7 -10    0.14    0.20 
  -9   7  10    0.35    0.25 
   9   7 -10    0.06    0.24 
   7   7 -10    2.60    0.49 
  -7   7  10    2.06    0.44 
  -5   7  10    6.41    0.70 
   5   7 -10    7.03    0.72 
   3   7 -10    0.12    0.20 
  -3   7  10    0.08    0.20 
   1   7 -10    0.65    0.26 
  -1   7  10    1.53    0.37 
   1  -7  10    4.21    0.53 
   1   7  10    4.50    0.57 
  -1   7 -10    4.05    0.52 
   3  -7  10    0.04    0.19 
  -3   7 -10    0.15    0.18 
   3   7  10    0.21    0.23 
   5   7  10    1.73    0.39 
   7   7  10    0.29    0.21 
  -7   7 -10   -0.15    0.23 
   9   7  10    0.09    0.19 
  -9   7 -10    0.30    0.31 
 -11   7 -10    0.89    0.40 
  11   7  10    0.39    0.22 
  10  -8 -10    0.61    0.28 
  10   8 -10    0.45    0.30 
   8   8 -10    0.61    0.34 
  -8   8  10    0.30    0.27 
   6   8 -10    0.86    0.30 
  -6   8  10    0.30    0.25 
   4   8 -10    0.31    0.27 
  -4   8  10    0.43    0.26 
   2   8 -10    1.94    0.40 
  -2   8  10    1.15    0.36 
   0   8 -10    6.03    0.72 
   0   8  10    6.94    0.77 
  -2   8 -10    0.41    0.28 
   2   8  10   -0.13    0.19 
   4   8  10    3.25    0.53 
   6   8  10    0.27    0.25 
  -6   8 -10    0.19    0.38 
   8   8  10   -0.03    0.22 
  -8   8 -10    0.09    0.32 
   7   9 -10    0.72    0.36 
   5   9 -10    3.10    0.61 
  -5   9  10    1.87    0.50 
  -3   9  10    0.18    0.25 
   3   9 -10    0.40    0.28 
  -1   9  10    0.16    0.24 
   1   9  10    0.57    0.36 
   3   9  10    1.79    0.43 
   5   9  10    0.15    0.29 
  16   0 -11    0.20    0.25 
  14   0 -11    0.04    0.17 
 -14   0  11    0.46    0.31 
  14   0 -11    0.01    0.17 
  12   0 -11   -0.12    0.12 
 -12   0  11   -0.04    0.14 
  12   0 -11   -0.11    0.17 
  12   0 -11    0.17    0.18 
 -10   0  11    0.25    0.17 
  10   0 -11   -0.03    0.17 
  10   0 -11    0.56    0.21 
  10   0 -11   -0.03    0.11 
   8   0 -11   -0.05    0.09 
   8   0 -11   -0.05    0.06 
   8   0 -11    0.01    0.12 
  -8   0  11    0.00    0.10 
  -8   0  11    0.22    0.14 
   6   0 -11   -0.03    0.11 
   6   0 -11    0.09    0.11 
  -6   0  11    0.11    0.10 
  -6   0  11    0.16    0.13 
   4   0 -11   -0.13    0.08 
  -4   0  11    0.09    0.11 
   4   0 -11   -0.10    0.06 
  -4   0  11    0.02    0.08 
   2   0 -11   -0.01    0.07 
  -2   0  11    0.09    0.07 
  -2   0  11    0.10    0.09 
  -2   0  11    0.10    0.05 
   2   0 -11    0.03    0.07 
   0   0 -11    0.24    0.06 
   0   0 -11    0.18    0.06 
   0   0  11    0.19    0.08 
   0   0  11    0.23    0.09 
   2   0  11    0.02    0.05 
   2   0  11    0.27    0.11 
   2   0  11    0.03    0.04 
   4   0  11    0.02    0.11 
   6   0  11    0.07    0.14 
   8   0  11    0.04    0.04 
   8   0  11    0.04    0.05 
   8   0  11   -0.19    0.13 
  10   0  11   -0.04    0.08 
  10   0  11    0.00    0.07 
  12   0  11   -0.06    0.09 
  12   0  11    0.02    0.09 
  14   0  11    0.11    0.12 
  17  -1 -11    0.49    0.31 
  17   1 -11    0.34    0.27 
  15  -1 -11    2.70    0.51 
  15   1 -11    1.98    0.45 
  13  -1 -11    0.83    0.27 
  13  -1 -11    0.38    0.26 
 -13  -1  11    0.53    0.23 
  13   1 -11    0.46    0.22 
  13   1 -11    0.59    0.20 
 -13   1  11    0.52    0.21 
  13   1 -11    0.29    0.23 
  11  -1 -11    5.97    0.60 
  11  -1 -11    6.09    0.58 
 -11  -1  11    5.76    0.56 
  11   1 -11    6.26    0.61 
  11   1 -11    5.45    0.57 
  11   1 -11    5.51    0.39 
 -11   1  11    4.63    0.50 
  -9  -1  11    0.84    0.25 
   9  -1 -11    1.99    0.32 
   9  -1 -11    1.82    0.31 
   9   1 -11    2.47    0.37 
   9   1 -11    2.12    0.23 
  -9   1  11    1.58    0.28 
   9   1 -11    1.95    0.34 
   7  -1 -11    0.46    0.15 
   7  -1 -11    0.53    0.18 
  -7  -1  11    0.54    0.18 
  -7  -1  11    0.82    0.19 
   7   1 -11    0.42    0.15 
  -7   1  11    0.86    0.20 
   7   1 -11    0.53    0.18 
  -7   1  11    0.93    0.22 
  -5  -1  11    8.32    0.46 
  -5  -1  11    8.30    0.46 
   5  -1 -11    8.94    0.48 
   5  -1 -11    8.78    0.45 
  -5   1  11    7.92    0.24 
  -5   1  11    8.11    0.45 
  -5   1  11    8.57    0.47 
   5   1 -11    8.11    0.45 
   5   1 -11    8.67    0.48 
   3  -1 -11   13.95    0.52 
   3  -1 -11   13.06    0.53 
  -3  -1  11   13.61    0.54 
  -3  -1  11   13.98    0.54 
  -3   1  11   13.29    0.52 
  -3   1  11   13.89    0.55 
   3   1 -11   13.17    0.52 
   3   1 -11   11.40    0.50 
  -1  -1  11    1.47    0.18 
   1  -1 -11    1.50    0.17 
  -1  -1  11    1.26    0.18 
  -1   1  11    1.23    0.16 
   1   1 -11    1.06    0.15 
   1   1 -11    1.34    0.16 
  -1   1  11    1.14    0.16 
  -1  -1 -11   18.50    0.44 
   1  -1  11   18.76    0.52 
  -1  -1 -11   18.79    0.44 
   1  -1  11   18.60    0.53 
   1  -1  11   18.25    0.65 
   1   1  11   18.62    0.51 
  -1   1 -11   19.09    0.65 
  -1   1 -11   18.57    0.44 
   1   1  11   19.06    0.52 
  -1   1 -11   18.42    0.44 
   3  -1  11    7.26    0.24 
   3  -1  11    7.74    0.46 
   3  -1  11    7.53    0.26 
   3   1  11    6.87    0.24 
   3   1  11    7.18    0.24 
  -3   1 -11    7.79    0.45 
   5  -1  11    6.68    0.48 
   5  -1  11    6.82    0.20 
  -5   1 -11    6.56    0.47 
   5   1  11    6.53    0.19 
   7  -1  11    0.97    0.29 
   7  -1  11    0.85    0.11 
   7   1  11    0.88    0.10 
   7   1  11    0.94    0.27 
   9  -1  11    0.22    0.09 
   9   1  11    0.23    0.09 
   9   1  11    0.22    0.09 
  11  -1  11   -0.11    0.07 
  11  -1  11   -0.01    0.08 
  11   1  11   -0.03    0.08 
  11   1  11   -0.06    0.09 
  13  -1  11    0.12    0.12 
  13   1  11    0.13    0.12 
  15  -1  11    0.07    0.14 
  15   1  11    0.02    0.12 
  16  -2 -11    0.21    0.24 
  16   2 -11    0.41    0.24 
  14  -2 -11    0.85    0.28 
  14   2 -11    0.68    0.30 
  14   2 -11    0.45    0.21 
  12  -2 -11    0.09    0.18 
  12  -2 -11    0.26    0.21 
  12   2 -11    0.02    0.12 
  12   2 -11   -0.12    0.17 
 -12   2  11   -0.08    0.15 
  12   2 -11   -0.02    0.17 
  10  -2 -11    2.59    0.37 
 -10  -2  11    3.80    0.45 
  10  -2 -11    4.28    0.52 
  10   2 -11    3.22    0.43 
  10   2 -11    3.16    0.43 
 -10   2  11    3.66    0.45 
   8  -2 -11    1.11    0.24 
  -8  -2  11    0.96    0.22 
  -8  -2  11    1.20    0.26 
   8  -2 -11    0.97    0.26 
  -8   2  11    0.58    0.20 
   8   2 -11    0.95    0.23 
  -8   2  11    1.00    0.18 
   8   2 -11    1.33    0.28 
   6  -2 -11    0.15    0.13 
  -6  -2  11    0.34    0.15 
   6  -2 -11    0.30    0.13 
  -6  -2  11    0.07    0.11 
   6   2 -11   -0.01    0.12 
  -6   2  11    0.28    0.15 
   6   2 -11    0.25    0.13 
  -6   2  11    0.16    0.10 
  -4  -2  11   10.42    0.51 
  -4  -2  11   11.25    0.53 
   4  -2 -11   10.44    0.49 
   4  -2 -11    9.85    0.51 
   4   2 -11   11.02    0.53 
  -4   2  11   10.32    0.52 
   4   2 -11   10.04    0.50 
   2  -2 -11   27.54    0.83 
   2  -2 -11   29.00    0.81 
  -2  -2  11   28.31    0.85 
  -2  -2  11   28.78    0.85 
  -2   2  11   27.86    0.86 
   2   2 -11   29.26    0.83 
   2   2 -11   29.08    0.86 
   0  -2 -11   42.58    0.99 
   0  -2  11   42.91    1.05 
   0  -2  11   43.77    1.06 
   0  -2 -11   42.85    1.01 
   0   2  11   42.14    1.05 
   0   2 -11   43.77    1.03 
   0   2 -11   43.22    1.01 
   0   2 -11   43.99    1.13 
  -2  -2 -11   26.17    0.60 
  -2  -2 -11   25.93    0.58 
   2  -2  11   25.40    0.69 
  -2   2 -11   26.08    0.61 
  -2   2 -11   26.06    0.60 
   2   2  11   26.18    0.70 
   4  -2  11    4.19    0.23 
  -4   2 -11    4.06    0.43 
   4   2  11    4.43    0.24 
   6  -2  11    1.74    0.36 
   6  -2  11    1.58    0.18 
  -6   2 -11    1.71    0.33 
   6   2  11    1.73    0.17 
   8  -2  11   -0.17    0.07 
  -8   2 -11    0.03    0.15 
   8   2  11   -0.07    0.07 
  10  -2  11    0.38    0.14 
  10   2  11    0.32    0.13 
  10   2  11    0.24    0.11 
  12  -2  11    0.01    0.09 
  12  -2  11    0.10    0.12 
  12   2  11   -0.05    0.12 
  12   2  11    0.14    0.12 
  14  -2  11    0.02    0.14 
  14   2  11    0.02    0.13 
  15  -3 -11    0.85    0.31 
  15   3 -11    0.46    0.29 
  13  -3 -11    3.29    0.50 
 -13   3  11    3.22    0.47 
  13   3 -11    3.63    0.54 
  11  -3 -11    0.09    0.20 
  11  -3 -11    0.20    0.18 
  11   3 -11   -0.12    0.20 
 -11   3  11    0.01    0.14 
  11   3 -11   -0.07    0.17 
 -11   3  11    0.27    0.20 
   9  -3 -11    1.16    0.30 
   9  -3 -11    1.29    0.28 
   9   3 -11    1.19    0.29 
  -9   3  11    0.79    0.20 
  -9   3  11    0.61    0.23 
   9   3 -11    0.87    0.26 
   7  -3 -11   16.91    0.75 
  -7  -3  11   17.00    0.77 
   7  -3 -11   16.65    0.78 
   7   3 -11   17.45    0.78 
   7   3 -11   15.99    0.78 
  -7   3  11   15.69    0.76 
  -5  -3  11   36.12    1.14 
   5  -3 -11   36.40    1.14 
   5  -3 -11   36.90    1.12 
   5   3 -11   36.86    1.12 
  -5   3  11   35.27    1.13 
   5   3 -11   34.86    1.15 
  -3  -3  11    2.61    0.31 
   3  -3 -11    2.50    0.29 
   3  -3 -11    2.66    0.31 
   3   3 -11    2.32    0.30 
   3   3 -11    2.69    0.32 
  -3   3  11    2.33    0.30 
  -1  -3  11    0.16    0.11 
   1  -3 -11    0.16    0.10 
   1  -3 -11    0.02    0.08 
   1   3 -11    0.06    0.10 
   1   3 -11    0.16    0.11 
  -1   3  11    0.09    0.12 
  -1  -3 -11   48.37    1.13 
  -1  -3 -11   49.80    1.17 
   1  -3  11   48.37    1.21 
   1   3  11   47.57    1.22 
  -1   3 -11   47.96    1.15 
  -1   3 -11   48.30    1.17 
  -3  -3 -11    2.09    0.17 
  -3  -3 -11    2.15    0.17 
   3  -3  11    2.26    0.25 
   3   3  11    2.14    0.25 
  -3   3 -11    2.22    0.20 
  -3   3 -11    2.45    0.34 
  -3   3 -11    2.40    0.21 
   5  -3  11   19.56    0.65 
   5   3  11   20.63    0.67 
  -5   3 -11   20.91    0.94 
   7  -3  11   11.31    0.50 
  -7   3 -11   11.72    0.75 
   7   3  11   12.03    0.51 
   9  -3  11    0.09    0.13 
  -9   3 -11    0.03    0.18 
   9   3  11   -0.09    0.09 
  11  -3  11    0.65    0.19 
 -11   3 -11    0.35    0.27 
  11   3  11    0.76    0.21 
  11   3  11    0.76    0.19 
  13  -3  11    1.89    0.31 
  13   3  11    1.02    0.23 
  14  -4 -11    0.37    0.22 
  14   4 -11    0.92    0.32 
 -14   4  11    0.42    0.22 
  12  -4 -11    0.17    0.17 
 -12   4  11    0.45    0.21 
  12   4 -11    0.25    0.20 
 -12   4  11    0.21    0.23 
  10  -4 -11    9.48    0.82 
  10  -4 -11    7.97    0.60 
 -10   4  11    8.37    0.63 
  10   4 -11    8.23    0.66 
 -10   4  11    7.83    0.56 
  10   4 -11    7.48    0.61 
   8  -4 -11    0.50    0.19 
   8  -4 -11    0.16    0.22 
   8   4 -11    0.48    0.20 
   8   4 -11    0.48    0.20 
  -8   4  11    0.66    0.24 
   6  -4 -11    0.75    0.25 
  -6  -4  11    0.53    0.19 
   6  -4 -11    0.46    0.17 
  -6   4  11    0.25    0.20 
   6   4 -11    0.75    0.22 
   6   4 -11    0.57    0.22 
  -4  -4  11   25.74    0.96 
   4  -4 -11   25.97    0.98 
   4  -4 -11   24.55    0.91 
   4   4 -11   26.83    0.99 
   4   4 -11   24.63    0.93 
  -4   4  11   23.65    0.95 
   2  -4 -11   39.18    1.17 
  -2  -4  11   38.49    1.18 
   2   4 -11   39.42    1.21 
  -2   4  11   36.97    1.18 
   2   4 -11   39.15    1.15 
   0  -4  11   35.43    1.08 
   0  -4 -11   35.53    1.04 
   0   4 -11   34.93    1.07 
   0   4  11   34.26    1.09 
   0   4 -11   35.19    1.03 
  -2  -4 -11   13.65    0.56 
   2  -4  11   13.86    0.60 
  -2   4 -11   11.43    0.52 
   2   4  11   12.12    0.58 
  -2   4 -11   12.13    0.53 
   4  -4  11    2.94    0.32 
  -4   4 -11    2.62    0.26 
  -4   4 -11    3.21    0.45 
   4   4  11    2.32    0.29 
   6  -4  11    4.80    0.37 
  -6  -4 -11    4.95    0.22 
   6   4  11    4.45    0.36 
  -6   4 -11    5.08    0.59 
  -6   4 -11    4.66    0.24 
   8  -4  11    2.47    0.32 
   8   4  11    2.96    0.34 
  -8   4 -11    2.85    0.48 
  10   4  11    6.29    0.46 
 -10   4 -11    6.72    0.77 
  12   4  11    0.30    0.19 
 -12   4 -11    0.19    0.23 
  14  -4  11    1.47    0.33 
  14   4  11    2.56    0.39 
  15  -5 -11    0.69    0.28 
  15   5 -11    0.53    0.34 
  13  -5 -11    1.18    0.35 
  13   5 -11    1.31    0.39 
 -13   5  11    1.44    0.35 
  11  -5 -11    2.17    0.41 
  11   5 -11    1.67    0.40 
 -11   5  11    2.23    0.39 
 -11   5  11    2.04    0.40 
   9  -5 -11    1.52    0.34 
   9   5 -11    0.86    0.27 
  -9   5  11    1.26    0.32 
  -9   5  11    1.27    0.34 
   7  -5 -11    6.30    0.51 
  -7   5  11    6.74    0.67 
   7   5 -11    6.15    0.62 
  -5  -5  11    6.64    0.70 
   5   5 -11    6.90    0.54 
  -5   5  11    5.54    0.56 
  -3  -5  11    1.87    0.33 
   3   5 -11    0.73    0.22 
  -3   5  11    1.06    0.27 
  -1  -5  11   -0.06    0.11 
  -1   5  11   -0.03    0.13 
   1   5 -11   -0.01    0.13 
   1  -5  11    8.20    0.53 
   1   5  11    8.40    0.55 
  -1   5 -11    8.79    0.55 
   3  -5  11   -0.06    0.10 
  -3   5 -11    0.05    0.10 
   3   5  11   -0.03    0.14 
   5  -5  11    5.55    0.51 
   5   5  11    5.65    0.45 
  -5   5 -11    4.77    0.60 
  -5   5 -11    5.08    0.35 
   7  -5  11    1.06    0.26 
  -7   5 -11    1.78    0.41 
   7   5  11    1.96    0.33 
  -7   5 -11    1.78    0.21 
   9   5  11    0.04    0.15 
  -9   5 -11   -0.01    0.20 
  11   5  11    0.44    0.23 
 -11   5 -11    0.43    0.29 
 -13   5 -11    0.27    0.32 
  13   5  11    0.42    0.23 
  12  -6 -11    0.53    0.26 
  12   6 -11    1.05    0.36 
 -12   6  11    0.84    0.29 
  10  -6 -11    6.91    0.72 
  10   6 -11    6.40    0.72 
 -10   6  11    6.12    0.68 
 -10   6  11    5.71    0.66 
   8  -6 -11    0.17    0.19 
  -8   6  11    0.13    0.23 
   8   6 -11    0.04    0.18 
   6   6 -11    1.84    0.37 
  -6   6  11    1.55    0.38 
  -4   6  11    4.64    0.56 
   4   6 -11    3.97    0.52 
  -2  -6  11    3.73    0.48 
  -2   6  11    4.02    0.52 
   2   6 -11    4.47    0.50 
   0  -6  11    0.53    0.21 
   0   6 -11    0.42    0.20 
   0   6  11    0.37    0.22 
   2  -6  11   10.04    0.63 
  -2   6 -11    9.93    0.62 
   2   6  11   10.44    0.67 
   4  -6  11    1.38    0.30 
  -4   6 -11    0.90    0.22 
   4   6  11    1.75    0.35 
  -6   6 -11    5.28    0.40 
   6   6  11    5.62    0.58 
  -6   6 -11    5.05    0.67 
  -8   6 -11    0.75    0.32 
   8   6  11    0.55    0.23 
  10   6  11    0.21    0.19 
 -10   6 -11    0.03    0.23 
 -12   6 -11    0.31    0.28 
  12   6  11   -0.03    0.20 
  11  -7 -11    0.53    0.29 
 -11   7  11    0.69    0.34 
  11   7 -11   -0.09    0.22 
   9  -7 -11    1.00    0.31 
  -9   7  11    0.96    0.34 
   9   7 -11    0.80    0.33 
  -7   7  11    1.98    0.46 
   7   7 -11    1.48    0.38 
   5   7 -11    3.48    0.55 
  -5   7  11    2.89    0.50 
   3   7 -11    0.41    0.24 
  -3   7  11    0.13    0.24 
   1   7 -11   -0.16    0.14 
  -1   7  11    0.00    0.18 
   1  -7  11    0.32    0.21 
   1   7  11    0.44    0.24 
  -1   7 -11    0.82    0.28 
   3  -7  11    0.05    0.20 
   3   7  11   -0.25    0.16 
  -3   7 -11    0.16    0.19 
   5   7  11    2.20    0.42 
  -5   7 -11    1.96    0.50 
   7   7  11    1.10    0.32 
  -7   7 -11    0.90    0.38 
  -9   7 -11    0.14    0.28 
   9   7  11    0.11    0.21 
  10  -8 -11    0.73    0.34 
  10   8 -11    1.74    0.48 
  -8   8  11    0.14    0.23 
   8   8 -11    0.07    0.28 
  -6   8  11    0.29    0.25 
   6   8 -11    0.45    0.27 
  -4   8  11    0.29    0.26 
   4   8 -11    0.51    0.27 
  -2   8  11    0.08    0.23 
   2   8 -11    0.16    0.24 
   0   8  11    1.53    0.38 
   0   8 -11    1.07    0.34 
   2   8  11    1.36    0.35 
   4   8  11    0.46    0.25 
   6   8  11    0.34    0.26 
  -6   8 -11    0.28    0.30 
   8   8  11   -0.06    0.21 
  -8   8 -11   -0.19    0.27 
   7   9 -11    0.23    0.26 
   5   9 -11   -0.04    0.25 
  -5   9  11    0.25    0.29 
  -3   9  11    0.34    0.27 
   3   9 -11    0.88    0.35 
  -1   9  11   -0.02    0.22 
   1   9  11    0.36    0.31 
   3   9  11    0.59    0.29 
   5   9  11   -0.21    0.20 
  16   0 -12    0.46    0.30 
  14   0 -12    5.01    0.51 
 -14   0  12    5.57    0.68 
  14   0 -12    4.73    0.60 
  12   0 -12    3.84    0.34 
 -12   0  12    3.76    0.47 
  12   0 -12    3.92    0.53 
  12   0 -12    3.58    0.47 
  10   0 -12    9.29    0.43 
  10   0 -12    9.21    0.63 
 -10   0  12    9.70    0.61 
  10   0 -12    9.18    0.61 
   8   0 -12   13.99    0.68 
   8   0 -12   14.30    0.70 
  -8   0  12   14.28    0.70 
   6   0 -12   89.38    2.02 
  -6   0  12   88.84    2.00 
   6   0 -12   87.61    2.00 
  -6   0  12   88.77    2.06 
   4   0 -12   30.50    0.89 
   4   0 -12   28.39    0.86 
  -4   0  12   30.00    0.89 
  -4   0  12   27.93    0.91 
   2   0 -12   66.18    1.44 
  -2   0  12   65.04    1.27 
  -2   0  12   65.23    1.47 
  -2   0  12   65.26    1.50 
   2   0 -12   67.89    1.44 
   0   0  12    0.16    0.08 
   0   0  12    0.17    0.08 
   0   0  12    0.13    0.09 
   0   0 -12    0.20    0.07 
   0   0 -12    0.15    0.06 
   2   0  12   27.35    0.62 
   2   0  12   28.16    0.62 
   2   0  12   27.19    0.86 
   4   0  12   28.62    0.98 
   6   0  12   15.22    0.76 
   8   0  12    0.13    0.05 
  10   0  12    5.17    0.27 
  10   0  12    4.98    0.27 
  12   0  12    0.55    0.15 
  12   0  12    0.30    0.12 
  14   0  12    1.17    0.22 
  17  -1 -12    2.79    0.55 
  17   1 -12    2.57    0.53 
  15  -1 -12    5.19    0.67 
  15   1 -12    8.03    0.84 
  13  -1 -12    1.64    0.37 
  13  -1 -12    0.89    0.28 
 -13  -1  12    1.11    0.29 
  13   1 -12    1.20    0.32 
  13   1 -12    1.32    0.35 
  13   1 -12    1.13    0.24 
 -13   1  12    0.75    0.27 
 -11  -1  12    0.27    0.19 
  11  -1 -12    0.25    0.20 
  11  -1 -12   -0.13    0.12 
  11   1 -12    0.15    0.19 
  11   1 -12   -0.08    0.09 
  11   1 -12   -0.07    0.14 
 -11   1  12    0.00    0.14 
   9  -1 -12    3.53    0.42 
   9  -1 -12    2.46    0.38 
  -9  -1  12    2.43    0.36 
   9   1 -12    2.28    0.24 
   9   1 -12    2.41    0.36 
  -9   1  12    2.16    0.33 
   9   1 -12    2.19    0.35 
   7  -1 -12    1.49    0.25 
  -7  -1  12    1.65    0.26 
   7  -1 -12    1.15    0.24 
  -7  -1  12    1.03    0.24 
   7   1 -12    1.45    0.26 
   7   1 -12    1.42    0.24 
  -7   1  12    1.33    0.23 
  -7   1  12    1.46    0.25 
   5  -1 -12   26.89    0.90 
   5  -1 -12   25.58    0.85 
  -5  -1  12   24.21    0.85 
  -5  -1  12   25.73    0.85 
  -5   1  12   25.08    0.86 
  -5   1  12   24.65    0.83 
  -5   1  12   24.60    0.49 
   5   1 -12   25.02    0.84 
   5   1 -12   26.53    0.89 
  -3  -1  12   31.84    0.93 
  -3  -1  12   31.32    0.92 
   3  -1 -12   31.12    0.88 
   3  -1 -12   32.85    0.92 
   3   1 -12   32.06    0.72 
   3   1 -12   31.42    0.90 
   3   1 -12   32.17    0.92 
  -3   1  12   32.18    0.93 
  -3   1  12   34.52    0.95 
   1  -1 -12   13.14    0.46 
  -1  -1  12   13.42    0.49 
  -1  -1  12   13.13    0.49 
  -1   1  12   14.41    0.50 
   1   1 -12   13.15    0.47 
   1   1 -12   13.34    0.46 
  -1   1  12   13.13    0.50 
  -1  -1 -12   34.25    0.70 
   1  -1  12   34.95    0.82 
   1  -1  12   33.70    0.80 
   1  -1  12   33.67    0.97 
  -1  -1 -12   34.73    0.70 
  -1   1 -12   34.02    0.71 
   1   1  12   33.34    0.80 
  -1   1 -12   32.75    0.94 
   1   1  12   33.86    0.81 
  -1   1 -12   34.47    0.71 
   3  -1  12   13.59    0.39 
   3  -1  12   13.71    0.37 
   3  -1  12   14.25    0.64 
   3   1  12   13.01    0.37 
  -3   1 -12   12.82    0.61 
   3   1  12   13.65    0.37 
   5  -1  12   10.19    0.61 
   5  -1  12    9.60    0.26 
   5  -1  12    9.66    0.26 
   5   1  12    9.26    0.56 
   5   1  12    9.36    0.25 
   7  -1  12    4.96    0.54 
   7  -1  12    5.15    0.21 
   7   1  12    5.29    0.20 
   7   1  12    5.81    0.50 
   9  -1  12   16.85    0.50 
   9   1  12   17.09    0.50 
  11  -1  12    2.52    0.25 
  11  -1  12    2.12    0.23 
  11   1  12    1.82    0.22 
  11   1  12    1.80    0.21 
  13  -1  12    0.30    0.14 
  13   1  12    0.21    0.13 
  15  -1  12    0.14    0.15 
  15   1  12    0.09    0.13 
  16  -2 -12   -0.23    0.17 
  16   2 -12    0.42    0.26 
  14  -2 -12    0.99    0.33 
  14   2 -12    1.46    0.38 
  12  -2 -12    0.95    0.28 
 -12  -2  12    1.15    0.29 
  12  -2 -12    1.15    0.32 
  12   2 -12    1.37    0.26 
  12   2 -12    1.63    0.36 
 -12   2  12    0.99    0.27 
  12   2 -12    2.08    0.40 
  10  -2 -12    5.34    0.58 
 -10  -2  12    5.01    0.53 
  10  -2 -12    4.13    0.47 
  10   2 -12    4.86    0.52 
 -10   2  12    4.31    0.49 
  10   2 -12    4.01    0.47 
   8  -2 -12    7.40    0.54 
   8  -2 -12    7.69    0.51 
  -8  -2  12    8.00    0.52 
  -8  -2  12    7.99    0.52 
  -8   2  12    7.46    0.54 
   8   2 -12    7.47    0.53 
  -8   2  12    7.70    0.39 
   8   2 -12    7.02    0.52 
  -6  -2  12   18.85    0.76 
   6  -2 -12   19.69    0.79 
  -6  -2  12   18.33    0.76 
   6  -2 -12   18.13    0.74 
   6   2 -12   18.14    0.75 
   6   2 -12   18.38    0.77 
  -6   2  12   18.28    0.56 
  -6   2  12   18.28    0.78 
   4  -2 -12    1.87    0.26 
   4  -2 -12    1.81    0.25 
  -4  -2  12    1.49    0.24 
  -4  -2  12    1.38    0.23 
   4   2 -12    1.81    0.26 
   4   2 -12    1.41    0.23 
  -4   2  12    2.03    0.29 
   2  -2 -12    7.08    0.39 
   2  -2 -12    7.02    0.37 
  -2  -2  12    7.56    0.41 
  -2  -2  12    7.24    0.40 
  -2   2  12    6.96    0.41 
   2   2 -12    7.40    0.39 
   2   2 -12    6.69    0.37 
   0  -2  12    6.38    0.35 
   0  -2 -12    7.70    0.35 
   0  -2  12    7.46    0.36 
   0  -2 -12    7.40    0.33 
   0   2 -12    7.40    0.41 
   0   2  12    7.14    0.37 
   0   2 -12    7.06    0.34 
   0   2 -12    7.32    0.34 
   2  -2  12    0.12    0.08 
   2  -2  12    0.05    0.07 
  -2  -2 -12    0.01    0.04 
  -2  -2 -12    0.14    0.05 
  -2   2 -12    0.09    0.05 
   2   2  12   -0.03    0.07 
  -2   2 -12    0.13    0.13 
  -2   2 -12    0.09    0.06 
   4  -2  12    3.76    0.23 
  -4   2 -12    3.72    0.41 
   4   2  12    3.94    0.23 
   6  -2  12   29.96    1.18 
   6  -2  12   29.52    0.74 
  -6   2 -12   28.35    1.14 
   6   2  12   30.24    0.74 
   8  -2  12    2.56    0.24 
   8   2  12    2.24    0.21 
  -8   2 -12    1.65    0.35 
  10  -2  12    4.03    0.29 
  10   2  12    3.52    0.27 
  12  -2  12   -0.02    0.10 
  12  -2  12   -0.13    0.12 
  12   2  12   -0.02    0.12 
  12   2  12    0.02    0.10 
  14  -2  12    0.78    0.21 
  14   2  12    1.56    0.27 
  15  -3 -12    1.09    0.37 
  15   3 -12    1.32    0.40 
  13  -3 -12    1.61    0.37 
 -13   3  12    1.86    0.38 
  13   3 -12    2.37    0.45 
  11  -3 -12    3.54    0.47 
  11  -3 -12    3.89    0.52 
 -11   3  12    3.41    0.48 
  11   3 -12    3.43    0.48 
 -11   3  12    3.80    0.41 
  11   3 -12    3.23    0.48 
   9  -3 -12    7.39    0.59 
   9  -3 -12    6.86    0.52 
  -9   3  12    7.47    0.46 
  -9   3  12    7.31    0.56 
   9   3 -12    8.06    0.58 
   9   3 -12    8.01    0.61 
   7  -3 -12    4.59    0.50 
   7  -3 -12    3.99    0.43 
  -7  -3  12    4.53    0.48 
   7   3 -12    4.88    0.49 
   7   3 -12    5.18    0.52 
  -7   3  12    5.12    0.51 
   5  -3 -12   28.81    0.98 
   5  -3 -12   30.07    1.03 
  -5  -3  12   29.77    1.03 
   5   3 -12   29.16    0.99 
   5   3 -12   29.39    1.02 
  -5   3  12   28.54    1.03 
  -3  -3  12   37.15    1.13 
   3  -3 -12   38.65    1.10 
   3  -3 -12   38.06    1.13 
  -3   3  12   37.57    1.13 
   3   3 -12   37.39    1.14 
   3   3 -12   37.87    1.10 
   1  -3 -12    0.78    0.16 
  -1  -3  12    0.85    0.19 
   1  -3 -12    0.75    0.17 
  -1   3  12    1.07    0.21 
   1   3 -12    0.90    0.19 
   1   3 -12    0.87    0.18 
   1  -3  12    0.09    0.10 
  -1  -3 -12    0.07    0.07 
  -1  -3 -12    0.10    0.08 
  -1   3 -12    0.14    0.14 
   1   3  12    0.16    0.11 
  -1   3 -12    0.18    0.10 
  -1   3 -12    0.01    0.08 
  -3  -3 -12    0.57    0.10 
  -3  -3 -12    0.41    0.09 
   3  -3  12    0.36    0.12 
  -3   3 -12    0.36    0.17 
  -3   3 -12    0.27    0.08 
   3   3  12    0.34    0.13 
  -3   3 -12    0.55    0.11 
   5  -3  12    5.55    0.34 
  -5   3 -12    5.81    0.51 
   5   3  12    6.46    0.36 
   7  -3  12    2.30    0.26 
   7   3  12    1.81    0.23 
  -7   3 -12    2.18    0.42 
   9  -3  12    6.17    0.39 
   9   3  12    5.28    0.37 
  -9   3 -12    6.73    0.74 
  11  -3  12    0.36    0.19 
  11   3  12    0.82    0.19 
  13   3  12    0.31    0.16 
  14  -4 -12    0.14    0.22 
  14   4 -12    0.11    0.21 
  12  -4 -12    0.69    0.27 
 -12   4  12    0.57    0.24 
  12   4 -12    1.14    0.33 
 -12   4  12    1.01    0.27 
  10  -4 -12    0.10    0.17 
  10   4 -12   -0.15    0.22 
 -10   4  12   -0.12    0.14 
  10   4 -12    0.08    0.16 
 -10   4  12    0.30    0.18 
   8  -4 -12    0.01    0.12 
   8  -4 -12    0.01    0.19 
   8   4 -12    0.06    0.19 
   8   4 -12    0.00    0.14 
  -8   4  12   -0.01    0.16 
  -6  -4  12    2.44    0.36 
   6  -4 -12    2.57    0.40 
   6  -4 -12    2.43    0.35 
   6   4 -12    2.93    0.41 
  -6   4  12    2.00    0.34 
   6   4 -12    2.22    0.34 
   4  -4 -12    0.07    0.14 
   4  -4 -12    0.34    0.15 
  -4  -4  12    0.31    0.16 
  -4   4  12    0.51    0.19 
   4   4 -12    0.22    0.15 
   4   4 -12    0.17    0.14 
   2  -4 -12    8.66    0.51 
   2  -4 -12    8.69    0.49 
  -2  -4  12    9.77    0.55 
   2   4 -12    9.08    0.54 
  -2   4  12    8.50    0.54 
   2   4 -12    8.95    0.52 
   0  -4 -12    1.49    0.23 
   0  -4  12    1.44    0.25 
   0  -4 -12    1.42    0.23 
   0   4 -12    1.20    0.22 
   0   4 -12    1.25    0.23 
   0   4  12    1.83    0.30 
  -2  -4 -12   -0.04    0.08 
   2  -4  12    0.12    0.13 
  -2   4 -12    0.08    0.11 
   2   4  12    0.22    0.12 
  -4  -4 -12    1.05    0.16 
   4  -4  12    0.94    0.21 
  -4   4 -12    1.07    0.31 
   4   4  12    0.75    0.20 
  -4   4 -12    1.06    0.17 
  -6  -4 -12    0.89    0.08 
  -6  -4 -12    0.73    0.08 
   6  -4  12    0.68    0.19 
   6   4  12    1.12    0.23 
  -6   4 -12    1.25    0.34 
  -6   4 -12    1.05    0.11 
   8  -4  12    0.90    0.21 
   8   4  12    1.15    0.24 
  -8   4 -12    0.93    0.34 
 -10   4 -12    0.83    0.34 
  10   4  12    0.79    0.22 
 -12   4 -12    0.19    0.26 
  12   4  12    0.34    0.18 
  14   4  12    0.04    0.18 
  15   5 -12   -0.13    0.22 
  13  -5 -12    0.46    0.25 
 -13   5  12    0.46    0.23 
  13   5 -12    0.11    0.23 
  11  -5 -12   -0.04    0.19 
  11   5 -12    0.32    0.23 
 -11   5  12    0.29    0.21 
 -11   5  12    0.21    0.19 
   9  -5 -12    0.12    0.17 
  -9   5  12    0.23    0.20 
   9   5 -12    0.13    0.17 
  -9   5  12    0.02    0.18 
   7  -5 -12    0.09    0.16 
   7   5 -12    0.08    0.17 
  -7   5  12    0.27    0.22 
   5  -5 -12    1.11    0.26 
  -5  -5  12    0.75    0.26 
   5   5 -12    0.61    0.21 
  -5   5  12    0.65    0.25 
  -3  -5  12    0.50    0.21 
  -3   5  12    0.75    0.26 
   3   5 -12    0.44    0.19 
  -1  -5  12    0.53    0.19 
  -1   5  12    0.84    0.24 
   1   5 -12    1.11    0.24 
   1  -5  12    0.48    0.17 
  -1   5 -12    0.24    0.16 
   1   5  12    0.34    0.18 
   3  -5  12    0.03    0.13 
  -3   5 -12    0.07    0.13 
   3   5  12    0.01    0.15 
   5  -5  12   -0.04    0.12 
  -5   5 -12   -0.02    0.16 
   5   5  12    0.13    0.16 
  -5   5 -12   -0.07    0.10 
  -7  -5 -12    3.04    0.20 
   7  -5  12    3.34    0.40 
   7   5  12    2.94    0.39 
  -7   5 -12    2.76    0.22 
  -7   5 -12    4.03    0.61 
  -9   5 -12    0.00    0.21 
   9   5  12   -0.03    0.14 
  11   5  12    0.02    0.14 
 -11   5 -12    0.05    0.24 
  13   5  12    0.02    0.18 
 -13   5 -12    0.06    0.27 
  12  -6 -12    1.47    0.37 
 -12   6  12    1.78    0.39 
  12   6 -12    1.52    0.41 
  10  -6 -12    0.57    0.27 
  10   6 -12    0.52    0.27 
 -10   6  12    0.30    0.24 
 -10   6  12    0.57    0.28 
   8  -6 -12    3.51    0.49 
   8   6 -12    6.08    0.68 
  -8   6  12    4.94    0.62 
   6  -6 -12    1.71    0.34 
  -6   6  12    1.19    0.33 
   6   6 -12    1.34    0.34 
   4   6 -12    0.24    0.18 
  -4   6  12    0.06    0.21 
  -2  -6  12    1.07    0.28 
   2   6 -12    1.15    0.29 
  -2   6  12    0.80    0.28 
   0  -6  12    0.83    0.24 
   0   6  12    1.32    0.34 
   0   6 -12    0.90    0.26 
   2  -6  12    0.16    0.16 
   2   6  12    0.12    0.17 
  -2   6 -12    0.34    0.19 
   4  -6  12    2.32    0.37 
  -4   6 -12    1.53    0.42 
   4   6  12    1.41    0.30 
  -4   6 -12    1.61    0.28 
  -6   6 -12    3.30    0.37 
  -6   6 -12    2.27    0.49 
   6   6  12    2.77    0.42 
   8   6  12    1.11    0.32 
  -8   6 -12    2.45    0.50 
 -10   6 -12    0.22    0.30 
  10   6  12    0.31    0.22 
  12   6  12    0.08    0.21 
 -12   6 -12    0.31    0.34 
  11  -7 -12   -0.08    0.21 
 -11   7  12    0.19    0.27 
  11   7 -12   -0.14    0.23 
   9  -7 -12    0.60    0.27 
  -9   7  12    0.76    0.31 
   9   7 -12    0.78    0.33 
   7  -7 -12    0.71    0.29 
  -7   7  12    0.06    0.24 
   7   7 -12    0.28    0.23 
   5   7 -12    3.49    0.52 
  -5   7  12    3.56    0.57 
   3   7 -12    3.88    0.54 
  -3   7  12    3.21    0.50 
  -1   7  12    0.35    0.24 
   1   7 -12    0.44    0.21 
   1  -7  12    1.15    0.32 
   1   7  12    1.30    0.36 
  -1   7 -12    1.75    0.38 
  -3   7 -12    0.20    0.21 
   3   7  12    0.71    0.29 
  -5   7 -12   -0.47    0.19 
   5   7  12    0.15    0.19 
   7   7  12    0.26    0.21 
  -7   7 -12    0.04    0.24 
   9   7  12    0.44    0.24 
  -9   7 -12    0.24    0.29 
  10  -8 -12    1.29    0.38 
  10   8 -12    1.10    0.40 
   8  -8 -12    0.34    0.26 
  -8   8  12    0.42    0.29 
   8   8 -12    0.10    0.25 
   6   8 -12    0.97    0.34 
  -6   8  12    1.63    0.46 
   4   8 -12    0.54    0.30 
  -4   8  12    0.73    0.33 
  -2   8  12   -0.03    0.22 
   2   8 -12    0.03    0.19 
   0   8 -12    1.08    0.33 
   0   8  12    0.78    0.31 
   2   8  12    1.15    0.35 
   4   8  12    0.32    0.26 
  -6   8 -12    2.46    0.60 
   6   8  12    2.28    0.45 
   8   8  12    0.58    0.31 
  -8   8 -12    0.36    0.36 
   7   9 -12    0.13    0.28 
   5   9 -12   -0.03    0.26 
  -5   9  12    0.37    0.29 
  -3   9  12    0.15    0.25 
  -1   9  12    0.27    0.30 
   1   9  12    0.13    0.29 
   3   9  12    1.35    0.41 
   5   9  12    1.46    0.46 
  -5   9 -12    2.29    0.62 
  16   0 -13   -0.23    0.21 
 -14   0  13   -0.12    0.21 
  14   0 -13   -0.13    0.17 
  12   0 -13    0.02    0.18 
  12   0 -13    0.13    0.16 
 -12   0  13    0.13    0.19 
  10   0 -13   -0.08    0.16 
 -10   0  13    0.15    0.15 
  10   0 -13    0.23    0.17 
  -8   0  13    0.12    0.13 
   8   0 -13   -0.01    0.13 
   8   0 -13   -0.04    0.09 
  -8   0  13   -0.10    0.10 
  -6   0  13    0.16    0.13 
   6   0 -13    0.04    0.13 
  -6   0  13   -0.02    0.10 
   6   0 -13    0.00    0.10 
   4   0 -13    0.01    0.11 
   4   0 -13    0.11    0.12 
  -4   0  13    0.19    0.13 
  -4   0  13    0.08    0.10 
   2   0 -13   -0.06    0.07 
   2   0 -13   -0.04    0.05 
  -2   0  13    0.24    0.10 
  -2   0  13    0.25    0.10 
  -2   0  13    0.04    0.06 
   0   0 -13   -0.05    0.04 
   0   0  13   -0.01    0.07 
   0   0  13   -0.06    0.04 
   0   0  13    0.05    0.07 
   0   0 -13    0.01    0.04 
   2   0  13   -0.04    0.05 
   2   0  13   -0.03    0.08 
   2   0  13   -0.03    0.04 
   4   0  13   -0.05    0.11 
   6   0  13   -0.12    0.11 
   8   0  13    0.04    0.04 
  10   0  13    0.09    0.07 
  10   0  13   -0.09    0.06 
  12   0  13   -0.10    0.08 
  12   0  13    0.07    0.09 
  14   0  13   -0.06    0.10 
  17  -1 -13    0.73    0.30 
  17   1 -13    1.33    0.40 
  15  -1 -13   -0.12    0.20 
  15   1 -13    0.55    0.28 
  13  -1 -13    1.91    0.40 
 -13  -1  13    1.18    0.32 
  13  -1 -13    1.73    0.39 
 -13   1  13    2.42    0.42 
  13   1 -13    1.64    0.37 
  13   1 -13    1.87    0.41 
  13   1 -13    1.08    0.22 
 -11  -1  13   -0.22    0.14 
  11  -1 -13   -0.02    0.14 
  11  -1 -13    0.04    0.20 
  11   1 -13    0.14    0.17 
  11   1 -13    0.08    0.11 
 -11   1  13    0.16    0.16 
  11   1 -13    0.19    0.17 
  -9  -1  13   -0.12    0.11 
   9  -1 -13    0.08    0.15 
   9  -1 -13    0.02    0.13 
  -9   1  13    0.05    0.14 
   9   1 -13   -0.01    0.07 
   9   1 -13    0.05    0.13 
   9   1 -13   -0.06    0.13 
   7  -1 -13    0.03    0.10 
  -7  -1  13    0.02    0.11 
   7  -1 -13   -0.02    0.12 
  -7  -1  13   -0.15    0.10 
  -7   1  13   -0.15    0.11 
   7   1 -13   -0.04    0.10 
   7   1 -13   -0.02    0.12 
  -7   1  13    0.06    0.10 
   5  -1 -13   17.08    0.67 
  -5  -1  13   17.94    0.71 
   5  -1 -13   17.17    0.71 
  -5  -1  13   17.98    0.72 
   5   1 -13   17.43    0.72 
   5   1 -13   16.57    0.69 
  -5   1  13   17.21    0.71 
  -5   1  13   17.20    0.69 
   3  -1 -13    1.04    0.18 
  -3  -1  13    1.02    0.18 
  -3  -1  13    1.00    0.19 
   3  -1 -13    1.47    0.23 
  -3   1  13    0.96    0.17 
   3   1 -13    1.37    0.22 
   3   1 -13    1.08    0.18 
   3   1 -13    0.97    0.12 
  -3   1  13    1.17    0.20 
   1  -1 -13    5.03    0.28 
  -1  -1  13    4.62    0.30 
  -1  -1  13    4.78    0.30 
  -1   1  13    4.96    0.31 
  -1   1  13    4.69    0.29 
   1   1 -13    5.27    0.29 
   1   1 -13    4.40    0.27 
   1  -1  13    0.12    0.07 
  -1  -1 -13    0.07    0.04 
  -1  -1 -13    0.17    0.06 
   1  -1  13    0.12    0.11 
   1  -1  13    0.16    0.08 
   1   1  13    0.05    0.07 
   1   1  13    0.08    0.06 
  -1   1 -13    0.08    0.10 
  -1   1 -13    0.16    0.06 
  -1   1 -13    0.07    0.05 
   3  -1  13    6.60    0.27 
   3  -1  13    6.87    0.26 
   3  -1  13    7.07    0.47 
  -3   1 -13    6.11    0.43 
   3   1  13    6.42    0.25 
   3   1  13    6.69    0.26 
   5  -1  13    2.39    0.36 
   5  -1  13    2.38    0.13 
   5  -1  13    2.69    0.13 
   5   1  13    2.52    0.12 
   5   1  13    2.55    0.13 
   5   1  13    3.00    0.38 
   7  -1  13   -0.16    0.17 
   7  -1  13    0.02    0.05 
   7   1  13    0.04    0.04 
   7   1  13   -0.04    0.14 
   9  -1  13    3.97    0.23 
   9   1  13    3.76    0.22 
  11  -1  13    1.17    0.17 
  11  -1  13    1.03    0.16 
  11   1  13    0.94    0.16 
  11   1  13    1.46    0.19 
  13  -1  13    0.10    0.11 
  13   1  13    0.02    0.09 
  15  -1  13    0.22    0.15 
  15   1  13    0.15    0.14 
  16  -2 -13    0.30    0.25 
  16   2 -13    0.67    0.31 
  14  -2 -13    0.80    0.30 
  14   2 -13    0.77    0.32 
  12  -2 -13    2.30    0.40 
 -12  -2  13    2.52    0.41 
  12  -2 -13    2.62    0.45 
  12   2 -13    2.36    0.32 
  12   2 -13    1.97    0.41 
 -12   2  13    2.41    0.41 
  12   2 -13    2.59    0.44 
 -10  -2  13    5.11    0.53 
  10  -2 -13    6.85    0.66 
  10  -2 -13    5.20    0.53 
  10   2 -13    4.81    0.53 
  10   2 -13    5.07    0.54 
 -10   2  13    6.72    0.54 
   8  -2 -13    1.47    0.27 
  -8  -2  13    1.14    0.26 
   8  -2 -13    0.93    0.26 
  -8  -2  13    1.29    0.31 
  -8   2  13    1.07    0.26 
   8   2 -13    1.06    0.26 
   8   2 -13    1.42    0.29 
  -8   2  13    1.08    0.17 
  -6  -2  13   13.30    0.65 
   6  -2 -13   13.71    0.64 
  -6  -2  13   13.25    0.65 
   6  -2 -13   13.44    0.66 
  -6   2  13   14.13    0.69 
   6   2 -13   12.64    0.63 
   6   2 -13   14.11    0.68 
  -4  -2  13    4.45    0.36 
  -4  -2  13    3.30    0.34 
   4  -2 -13    4.18    0.39 
   4  -2 -13    3.56    0.35 
   4   2 -13    4.41    0.35 
  -4   2  13    4.05    0.39 
   4   2 -13    3.65    0.36 
   2  -2 -13    5.56    0.33 
  -2  -2  13    5.66    0.36 
  -2  -2  13    4.63    0.33 
   2   2 -13    5.33    0.34 
   2   2 -13    4.78    0.32 
  -2   2  13    4.46    0.34 
   0  -2 -13   73.17    1.54 
   0  -2  13   73.32    1.63 
   0  -2  13   73.74    1.60 
   0  -2 -13   71.10    1.51 
   0   2 -13   72.61    1.69 
   0   2  13   73.78    1.61 
   0   2 -13   74.23    1.54 
   0   2 -13   75.55    1.57 
   2  -2  13    0.53    0.12 
  -2  -2 -13    0.59    0.08 
  -2  -2 -13    0.63    0.08 
   2  -2  13    0.79    0.14 
   2   2  13    0.41    0.12 
  -2   2 -13    0.72    0.19 
  -2   2 -13    0.57    0.09 
  -2   2 -13    0.79    0.10 
   4  -2  13   22.03    0.60 
   4   2  13   20.56    0.59 
  -4   2 -13   20.63    0.88 
   6  -2  13    6.25    0.30 
   6  -2  13    6.38    0.54 
   6   2  13    6.59    0.30 
  -6   2 -13    6.55    0.53 
   8  -2  13    0.22    0.10 
   8   2  13    0.30    0.10 
  -8   2 -13    0.10    0.21 
  10  -2  13    0.12    0.10 
  10   2  13    0.17    0.10 
  12  -2  13    0.27    0.13 
  12   2  13    0.20    0.12 
  14  -2  13    0.56    0.18 
  14   2  13    0.68    0.19 
  15  -3 -13    0.61    0.32 
  15   3 -13    0.43    0.28 
  13  -3 -13    1.13    0.35 
 -13   3  13    0.85    0.30 
  13   3 -13    0.66    0.31 
  11  -3 -13    0.62    0.27 
  11  -3 -13    0.58    0.24 
 -11   3  13    0.78    0.21 
  11   3 -13    0.45    0.26 
 -11   3  13    1.01    0.29 
  11   3 -13    1.09    0.33 
   9  -3 -13    3.14    0.45 
   9  -3 -13    3.58    0.45 
   9   3 -13    3.40    0.46 
  -9   3  13    3.56    0.47 
   9   3 -13    3.41    0.46 
  -9   3  13    2.79    0.32 
   7  -3 -13    0.93    0.24 
   7  -3 -13    1.65    0.31 
  -7  -3  13    0.76    0.22 
   7   3 -13    1.05    0.25 
   7   3 -13    0.77    0.22 
  -7   3  13    0.79    0.24 
   5  -3 -13   62.51    1.66 
   5  -3 -13   61.44    1.61 
  -5  -3  13   62.03    1.66 
  -5  -3  13   63.01    1.67 
   5   3 -13   62.71    1.69 
  -5   3  13   61.19    1.68 
   5   3 -13   62.00    1.63 
   3  -3 -13   11.17    0.54 
   3  -3 -13   11.46    0.57 
  -3  -3  13   10.48    0.55 
  -3  -3  13   10.32    0.55 
   3   3 -13   10.25    0.53 
   3   3 -13   11.31    0.57 
  -3   3  13   10.63    0.57 
   1  -3 -13    9.51    0.47 
   1  -3 -13    9.82    0.46 
  -1  -3  13    8.98    0.47 
   1   3 -13    8.52    0.44 
  -1   3  13    9.72    0.50 
   1   3 -13    8.75    0.46 
  -1  -3 -13   19.46    0.61 
   1  -3  13   18.82    0.68 
  -1  -3 -13   19.16    0.63 
   1   3  13   19.47    0.70 
  -1   3 -13   19.08    0.80 
  -1   3 -13   19.61    0.64 
  -1   3 -13   19.24    0.62 
  -3  -3 -13    3.03    0.18 
  -3  -3 -13    3.69    0.20 
   3  -3  13    3.52    0.27 
  -3   3 -13    3.52    0.21 
  -3   3 -13    3.12    0.40 
  -3   3 -13    2.93    0.19 
   3   3  13    3.14    0.30 
   5  -3  13    0.13    0.11 
  -5   3 -13    0.45    0.21 
   5   3  13    0.10    0.10 
   7  -3  13    5.16    0.33 
  -7   3 -13    5.42    0.61 
   7   3  13    4.81    0.33 
   9  -3  13   13.61    0.57 
   9   3  13   12.16    0.54 
  -9   3 -13   14.67    0.93 
  11   3  13    0.25    0.14 
  13   3  13    0.49    0.17 
  14  -4 -13    0.96    0.32 
  14   4 -13    1.72    0.43 
  12  -4 -13    1.13    0.33 
 -12   4  13    0.52    0.23 
  12   4 -13    0.72    0.30 
 -12   4  13    0.76    0.24 
  10  -4 -13    0.56    0.23 
  10   4 -13   -0.10    0.15 
 -10   4  13    0.20    0.18 
 -10   4  13    0.20    0.16 
   8  -4 -13    4.86    0.52 
   8   4 -13    4.91    0.58 
  -8   4  13    4.31    0.53 
   6  -4 -13   11.88    0.66 
  -6  -4  13   11.16    0.67 
   6  -4 -13   12.72    0.85 
  -6   4  13   13.08    0.73 
   6   4 -13   11.77    0.70 
   6   4 -13   11.59    0.74 
  -4  -4  13    8.00    0.54 
   4  -4 -13    9.14    0.66 
   4  -4 -13    7.87    0.51 
   4   4 -13    8.23    0.55 
  -4   4  13    8.88    0.58 
   4   4 -13    8.42    0.54 
   2  -4 -13    0.22    0.14 
  -2  -4  13    0.06    0.13 
   2   4 -13    0.11    0.12 
   2   4 -13    0.20    0.17 
  -2   4  13    0.20    0.17 
   0  -4 -13   17.96    0.68 
   0  -4  13   19.19    0.76 
   0   4  13   19.03    0.78 
   0   4 -13   18.34    0.72 
  -2  -4 -13    0.11    0.09 
   2  -4  13    0.00    0.11 
   2   4  13    0.02    0.12 
  -2   4 -13    0.16    0.18 
  -2   4 -13   -0.07    0.09 
   4  -4  13   11.40    0.55 
  -4  -4 -13   11.13    0.41 
  -4   4 -13   11.07    0.44 
  -4   4 -13   11.12    0.72 
   4   4  13   10.99    0.56 
   6  -4  13   24.55    0.86 
   6   4  13   26.22    0.90 
  -6   4 -13   26.64    1.23 
   8  -4  13    0.53    0.17 
  -8   4 -13    0.61    0.27 
   8   4  13    0.55    0.18 
  10   4  13    2.19    0.31 
 -10   4 -13    2.38    0.50 
 -12   4 -13    2.21    0.51 
  12   4  13    2.17    0.34 
  13  -5 -13    0.58    0.29 
 -13   5  13    0.41    0.25 
  13   5 -13    0.45    0.28 
  11  -5 -13    0.58    0.26 
 -11   5  13    0.29    0.21 
  11   5 -13    0.28    0.25 
 -11   5  13    0.55    0.25 
   9  -5 -13    2.47    0.43 
  -9   5  13    2.40    0.42 
   9   5 -13    3.37    0.52 
   7  -5 -13    0.05    0.15 
  -7   5  13    0.14    0.19 
   7   5 -13    0.51    0.22 
   5  -5 -13   15.60    0.78 
  -5  -5  13   16.95    0.98 
   5   5 -13   15.05    0.82 
  -5   5  13   15.24    0.85 
   3  -5 -13    1.55    0.29 
  -3  -5  13    1.39    0.29 
   3   5 -13    1.70    0.32 
  -3   5  13    1.89    0.34 
  -1  -5  13    3.01    0.39 
  -1   5  13    3.46    0.43 
   1   5 -13    3.90    0.44 
   1  -5  13   12.85    0.66 
  -1   5 -13   10.61    0.60 
   1   5  13   10.72    0.64 
   3  -5  13    1.89    0.31 
   3   5  13    1.89    0.31 
  -3   5 -13    1.36    0.35 
  -3   5 -13    2.61    0.31 
   5  -5  13    0.46    0.18 
  -5  -5 -13    0.62    0.15 
  -5   5 -13    0.50    0.15 
   5   5  13    0.14    0.15 
  -5   5 -13    0.67    0.27 
  -7  -5 -13    1.80    0.12 
   7  -5  13    2.48    0.36 
  -7   5 -13    2.43    0.16 
   7   5  13    1.69    0.32 
  -7   5 -13    1.65    0.40 
   9   5  13    0.98    0.26 
  -9   5 -13    1.10    0.38 
  11   5  13    0.12    0.19 
 -11   5 -13    0.32    0.29 
  12  -6 -13   -0.05    0.20 
  12   6 -13    0.29    0.24 
 -12   6  13    0.39    0.23 
  10  -6 -13   -0.13    0.16 
 -10   6  13   -0.23    0.19 
 -10   6  13   -0.07    0.17 
  10   6 -13    0.06    0.21 
   8  -6 -13    0.30    0.20 
   8   6 -13    0.69    0.31 
  -8   6  13    0.91    0.31 
   6  -6 -13    2.07    0.37 
  -6   6  13    2.05    0.44 
   6   6 -13    1.45    0.34 
   4   6 -13    4.26    0.52 
  -4   6  13    4.20    0.55 
  -2  -6  13    3.81    0.49 
  -2   6  13    3.61    0.51 
   2   6 -13    4.10    0.51 
   0  -6  13    3.92    0.48 
   0   6  13    3.78    0.51 
   0   6 -13    3.85    0.46 
   2  -6  13    1.66    0.34 
  -2   6 -13    1.01    0.26 
   2   6  13    2.08    0.37 
   4  -6  13    0.62    0.22 
  -4   6 -13    0.45    0.31 
   4   6  13    0.47    0.20 
  -4   6 -13    0.51    0.19 
   6   6  13    2.04    0.37 
  -6   6 -13    2.52    0.51 
   8   6  13    0.73    0.28 
  -8   6 -13    0.53    0.34 
 -10   6 -13    0.03    0.24 
  10   6  13    0.24    0.23 
  11  -7 -13    0.84    0.31 
  11   7 -13    0.72    0.37 
 -11   7  13    0.91    0.37 
   9  -7 -13    2.67    0.48 
   9   7 -13    1.37    0.41 
  -9   7  13    2.87    0.56 
   7  -7 -13   -0.10    0.16 
   7   7 -13    0.01    0.20 
  -7   7  13   -0.17    0.19 
   5   7 -13    2.53    0.47 
  -5   7  13    2.16    0.43 
   3   7 -13    0.11    0.18 
  -3   7  13    0.37    0.25 
   1   7 -13    2.48    0.41 
  -1   7  13    1.28    0.33 
   1  -7  13    1.21    0.31 
   1   7  13    1.02    0.31 
  -1   7 -13    0.88    0.29 
  -3   7 -13    0.16    0.21 
   3   7  13   -0.08    0.19 
  -5   7 -13    0.51    0.32 
   5   7  13    0.81    0.26 
  -7   7 -13    1.41    0.46 
   7   7  13    2.21    0.41 
   9   7  13    0.36    0.26 
  -9   7 -13    0.04    0.26 
   8  -8 -13   -0.01    0.20 
   8   8 -13   -0.09    0.22 
  -8   8  13   -0.34    0.17 
  -6   8  13   -0.29    0.22 
   6   8 -13    0.00    0.21 
  -4   8  13    0.36    0.27 
   4   8 -13    0.28    0.25 
   2   8 -13    0.66    0.27 
  -2   8  13    0.18    0.24 
   0   8  13    2.00    0.46 
   0   8 -13    1.02    0.36 
   2   8  13    0.09    0.21 
   4   8  13   -0.29    0.19 
  -6   8 -13    1.02    0.42 
   6   8  13    0.61    0.29 
  -8   8 -13    0.65    0.41 
   8   8  13    1.29    0.38 
  -5   9  13    0.14    0.31 
   5   9 -13    0.04    0.27 
  -3   9  13    0.79    0.33 
  -1   9  13    0.73    0.37 
   1   9  13    0.08    0.22 
   3   9  13    1.07    0.37 
  16   0 -14    0.29    0.28 
 -14   0  14    0.64    0.29 
  14   0 -14    0.56    0.27 
  12   0 -14    0.23    0.20 
  12   0 -14   -0.11    0.15 
 -12   0  14    0.02    0.18 
 -10   0  14    3.00    0.42 
  10   0 -14    3.19    0.45 
  10   0 -14    3.42    0.45 
  -8   0  14    8.92    0.54 
  -8   0  14    7.79    0.54 
   8   0 -14    8.07    0.56 
   8   0 -14    8.68    0.54 
   6   0 -14   21.16    0.82 
  -6   0  14   19.57    0.79 
  -6   0  14   20.18    0.79 
   6   0 -14   19.85    0.79 
   4   0 -14  178.61    3.42 
   4   0 -14  175.41    3.41 
  -4   0  14  175.49    3.45 
  -4   0  14  172.96    3.49 
  -2   0  14    9.13    0.42 
   2   0 -14    8.31    0.39 
  -2   0  14    8.76    0.33 
   2   0 -14    8.32    0.41 
  -2   0  14    8.65    0.43 
   0   0 -14    1.97    0.15 
   0   0  14    1.89    0.19 
   0   0  14    2.03    0.23 
   0   0 -14    2.09    0.16 
   0   0  14    2.17    0.22 
   2   0  14   42.39    0.92 
   2   0  14   41.57    1.18 
   2   0  14   42.79    0.92 
   4   0  14    0.01    0.03 
   4   0  14   -0.07    0.11 
   4   0  14    0.00    0.03 
   6   0  14    1.78    0.34 
   8   0  14    4.58    0.70 
  10   0  14    0.17    0.07 
  10   0  14    0.09    0.07 
  12   0  14    0.09    0.10 
  12   0  14    0.19    0.11 
  14   0  14    0.00    0.11 
  17  -1 -14    0.83    0.34 
  17   1 -14    0.69    0.32 
  15  -1 -14    1.87    0.44 
  15   1 -14    2.40    0.50 
  13  -1 -14    1.82    0.40 
 -13  -1  14    2.67    0.43 
  13  -1 -14    1.93    0.48 
  13   1 -14    2.77    0.32 
  13   1 -14    1.31    0.40 
  13   1 -14    2.66    0.47 
 -13   1  14    1.65    0.35 
 -11  -1  14    6.03    0.60 
  11  -1 -14    5.45    0.59 
  11  -1 -14    5.48    0.60 
  11   1 -14    6.31    0.37 
 -11   1  14    6.99    0.55 
  11   1 -14    5.95    0.64 
  11   1 -14    5.91    0.62 
   9  -1 -14    9.71    0.63 
   9  -1 -14    9.70    0.59 
  -9  -1  14    8.08    0.56 
   9   1 -14    9.05    0.35 
   9   1 -14    7.88    0.57 
  -9   1  14    9.41    0.62 
   9   1 -14    8.75    0.58 
   7  -1 -14    0.82    0.21 
  -7  -1  14    0.54    0.19 
  -7  -1  14    0.39    0.18 
   7  -1 -14    0.50    0.18 
   7   1 -14    0.51    0.18 
  -7   1  14    0.86    0.22 
  -7   1  14    0.44    0.17 
   7   1 -14    0.71    0.21 
   5  -1 -14   60.45    1.54 
   5  -1 -14   59.21    1.54 
  -5  -1  14   59.92    1.52 
  -5  -1  14   57.70    1.53 
   5   1 -14   59.12    1.10 
  -5   1  14   60.49    1.55 
   5   1 -14   59.46    1.51 
  -5   1  14   60.95    1.54 
   5   1 -14   61.21    1.56 
   3  -1 -14   -0.01    0.11 
  -3  -1  14    0.18    0.12 
   3  -1 -14    0.09    0.09 
  -3  -1  14    0.14    0.10 
   3   1 -14   -0.02    0.09 
  -3   1  14    0.20    0.11 
   3   1 -14    0.20    0.10 
   3   1 -14    0.08    0.06 
  -3   1  14    0.18    0.13 
  -1  -1  14    8.20    0.42 
  -1  -1  14    8.72    0.41 
   1  -1 -14    8.28    0.37 
   1  -1 -14    8.00    0.35 
  -1   1  14    7.99    0.39 
   1   1 -14    8.09    0.37 
  -1   1  14    7.20    0.39 
   1   1 -14    7.62    0.35 
   1   1 -14    8.56    0.39 
  -1  -1 -14    7.38    0.24 
   1  -1  14    7.09    0.34 
   1  -1  14    7.46    0.43 
  -1  -1 -14    7.01    0.24 
   1  -1  14    7.11    0.33 
   1   1  14    6.81    0.32 
  -1   1 -14    7.16    0.24 
  -1   1 -14    7.07    0.41 
  -1   1 -14    7.19    0.25 
   1   1  14    7.47    0.33 
   3  -1  14   20.09    0.52 
   3  -1  14   20.56    0.54 
   3  -1  14   20.36    0.82 
  -3   1 -14   20.42    0.80 
   3   1  14   20.31    0.54 
   3   1  14   20.27    0.53 
   5  -1  14   18.32    0.85 
   5  -1  14   17.59    0.42 
   5  -1  14   17.43    0.44 
   5   1  14   17.51    0.42 
   5   1  14   17.69    0.82 
   5   1  14   17.38    0.41 
   7  -1  14    2.85    0.15 
   7   1  14    2.79    0.13 
   9  -1  14   14.49    0.43 
   9   1  14   14.30    0.43 
  11  -1  14   -0.11    0.08 
  11  -1  14    0.10    0.08 
  11   1  14    0.15    0.09 
  11   1  14    0.12    0.08 
  13  -1  14    0.16    0.12 
  13   1  14    0.35    0.13 
  16  -2 -14    0.19    0.25 
  16   2 -14    0.57    0.30 
  14  -2 -14    0.52    0.25 
  14   2 -14    0.57    0.26 
 -12  -2  14   -0.04    0.16 
  12  -2 -14   -0.32    0.19 
  12  -2 -14   -0.04    0.17 
  12   2 -14    0.17    0.26 
  12   2 -14    0.00    0.10 
 -12   2  14    0.00    0.18 
  12   2 -14    0.01    0.17 
  10  -2 -14    5.04    0.53 
 -10  -2  14    4.46    0.52 
  10  -2 -14    4.34    0.55 
  10   2 -14    3.95    0.48 
  10   2 -14    4.72    0.53 
 -10   2  14    4.54    0.51 
  -8  -2  14   -0.12    0.12 
   8  -2 -14    0.22    0.16 
   8  -2 -14    0.06    0.17 
  -8   2  14   -0.05    0.07 
   8   2 -14    0.19    0.15 
  -8   2  14    0.07    0.16 
   8   2 -14    0.10    0.15 
  -6  -2  14    0.42    0.18 
   6  -2 -14    0.14    0.11 
   6  -2 -14    0.38    0.18 
  -6  -2  14    0.15    0.13 
   6   2 -14    0.09    0.13 
  -6   2  14    0.11    0.16 
   6   2 -14    0.11    0.16 
   4  -2 -14   53.47    1.42 
  -4  -2  14   51.42    1.41 
  -4  -2  14   54.64    1.44 
   4  -2 -14   54.33    1.39 
   4   2 -14   55.14    1.43 
  -4   2  14   50.25    1.40 
  -4   2  14   52.60    1.41 
   4   2 -14   54.06    1.39 
   2  -2 -14   -0.03    0.08 
  -2  -2  14    0.03    0.10 
   2  -2 -14    0.18    0.11 
  -2  -2  14    0.18    0.12 
  -2   2  14    0.16    0.11 
   2   2 -14    0.13    0.09 
   2   2 -14   -0.01    0.09 
  -2   2  14   -0.04    0.09 
   2   2 -14    0.03    0.08 
   0  -2  14    0.67    0.15 
   0  -2 -14    0.92    0.15 
   0  -2  14    0.95    0.17 
   0  -2 -14    0.79    0.13 
   0   2 -14    0.93    0.15 
   0   2  14    0.86    0.17 
   0   2 -14    0.79    0.14 
   0   2 -14    0.60    0.17 
  -2  -2 -14   36.42    0.72 
  -2  -2 -14   36.54    0.73 
   2  -2  14   34.98    0.93 
   2  -2  14   35.88    0.91 
  -2   2 -14   36.71    1.16 
   2   2  14   36.53    0.93 
  -2   2 -14   35.53    0.74 
  -2   2 -14   36.87    0.75 
   4  -2  14    1.53    0.18 
  -4   2 -14    1.77    0.30 
   4   2  14    1.94    0.20 
   6  -2  14   -0.12    0.19 
   6  -2  14    0.14    0.09 
   6   2  14    0.08    0.08 
  -6   2 -14    0.35    0.20 
   8  -2  14    0.13    0.09 
   8   2  14   -0.08    0.07 
  10  -2  14    0.60    0.15 
  10   2  14    0.56    0.14 
  12   2  14    0.29    0.13 
  14  -2  14    0.32    0.16 
  14   2  14    0.40    0.16 
  15  -3 -14    0.28    0.27 
  15   3 -14    0.14    0.27 
  13  -3 -14    1.25    0.33 
 -13   3  14    1.28    0.34 
  13   3 -14    0.85    0.32 
  11  -3 -14    0.20    0.19 
 -11   3  14    0.29    0.14 
  11   3 -14    0.17    0.19 
 -11   3  14   -0.11    0.15 
   9  -3 -14    4.61    0.51 
   9  -3 -14    4.45    0.53 
  -9   3  14    4.17    0.49 
   9   3 -14    5.68    0.59 
  -9   3  14    4.27    0.34 
   9   3 -14    6.25    0.62 
   7  -3 -14    1.26    0.28 
  -7  -3  14    1.34    0.29 
   7  -3 -14    1.00    0.25 
  -7  -3  14    1.27    0.26 
   7   3 -14    1.32    0.29 
  -7   3  14    0.87    0.24 
   7   3 -14    1.12    0.26 
   5  -3 -14    0.83    0.21 
   5  -3 -14    0.69    0.22 
  -5  -3  14    0.62    0.20 
  -5  -3  14    0.52    0.19 
   5   3 -14    0.74    0.20 
   5   3 -14    0.45    0.18 
  -5   3  14    0.43    0.19 
   3  -3 -14    0.15    0.13 
  -3  -3  14    0.13    0.13 
  -3  -3  14    0.01    0.11 
   3  -3 -14   -0.02    0.11 
   3   3 -14    0.02    0.12 
   3   3 -14    0.13    0.12 
  -3   3  14    0.57    0.18 
   1  -3 -14    4.20    0.32 
  -1  -3  14    4.70    0.36 
   1  -3 -14    4.35    0.31 
   1   3 -14    4.79    0.34 
  -1   3  14    5.33    0.39 
   1   3 -14    4.64    0.34 
  -1  -3 -14   22.78    0.69 
   1  -3  14   21.14    0.73 
  -1  -3 -14   21.95    0.65 
  -1   3 -14   22.07    0.67 
   1   3  14   22.20    0.77 
  -1   3 -14   20.34    0.67 
  -1   3 -14   20.95    0.85 
  -3  -3 -14    0.04    0.05 
   3  -3  14   -0.05    0.07 
  -3  -3 -14    0.04    0.04 
   3   3  14   -0.02    0.09 
  -3   3 -14    0.16    0.14 
  -3   3 -14    0.10    0.06 
  -3   3 -14    0.06    0.06 
   5  -3  14    6.83    0.38 
  -5   3 -14    6.59    0.55 
   5   3  14    7.41    0.39 
   7  -3  14    5.08    0.33 
   7   3  14    4.63    0.33 
  -7   3 -14    3.77    0.53 
   9  -3  14    2.16    0.26 
   9   3  14    2.11    0.26 
  -9   3 -14    2.83    0.52 
  11   3  14    4.30    0.35 
  13   3  14    0.24    0.15 
  14  -4 -14   -0.26    0.18 
  14   4 -14    0.18    0.21 
  12  -4 -14    1.08    0.33 
 -12   4  14    0.56    0.27 
 -12   4  14    1.17    0.26 
  12   4 -14    1.06    0.34 
  10  -4 -14    0.09    0.17 
  10   4 -14    0.23    0.19 
 -10   4  14    0.11    0.17 
 -10   4  14    0.35    0.18 
   8  -4 -14    3.36    0.46 
  -8   4  14    3.33    0.48 
   8   4 -14    2.75    0.43 
  -6  -4  14    3.26    0.42 
   6  -4 -14    3.41    0.42 
  -6   4  14    3.57    0.46 
   6   4 -14    3.72    0.46 
   4  -4 -14    0.12    0.15 
  -4  -4  14    0.18    0.15 
  -4   4  14   -0.16    0.14 
   4   4 -14    0.00    0.12 
   2  -4 -14    0.21    0.15 
  -2  -4  14   -0.09    0.12 
   2   4 -14    0.18    0.14 
  -2   4  14    0.12    0.14 
   0  -4  14    1.99    0.29 
   0  -4 -14    1.25    0.22 
   0   4 -14    1.44    0.24 
   0   4  14    1.79    0.29 
   2  -4  14    0.23    0.13 
  -2  -4 -14    0.14    0.09 
  -2   4 -14   -0.14    0.14 
   2   4  14    0.15    0.14 
  -2   4 -14    0.03    0.11 
  -4  -4 -14    2.27    0.20 
   4  -4  14    2.47    0.31 
  -4   4 -14    2.24    0.22 
  -4   4 -14    2.74    0.43 
   4   4  14    2.38    0.31 
   6  -4  14    7.54    0.46 
  -6   4 -14    6.33    0.69 
   6   4  14    6.87    0.46 
   8  -4  14   -0.17    0.10 
   8   4  14    0.24    0.15 
  -8   4 -14    0.32    0.23 
 -10   4 -14    0.53    0.32 
  10   4  14    0.20    0.16 
  12   4  14    0.63    0.21 
 -12   4 -14    0.34    0.31 
  13  -5 -14   -0.10    0.20 
  13   5 -14    0.15    0.23 
 -13   5  14    0.01    0.20 
  11  -5 -14   -0.09    0.17 
 -11   5  14    0.30    0.21 
 -11   5  14    0.20    0.18 
  11   5 -14   -0.09    0.17 
   9  -5 -14   -0.05    0.16 
   9   5 -14    0.26    0.20 
  -9   5  14    0.33    0.23 
   7  -5 -14    0.29    0.18 
   7   5 -14   -0.05    0.15 
  -7   5  14    0.29    0.20 
   5  -5 -14    0.35    0.18 
  -5  -5  14    0.46    0.25 
  -5   5  14    0.41    0.24 
   5   5 -14    0.43    0.21 
  -3  -5  14    1.99    0.35 
   3  -5 -14    2.54    0.38 
  -3   5  14    2.87    0.43 
   3   5 -14    2.28    0.37 
   1  -5 -14    0.10    0.14 
  -1  -5  14    0.17    0.15 
   1   5 -14    0.32    0.19 
  -1   5  14    0.57    0.22 
  -1  -5 -14    0.03    0.11 
   1  -5  14    0.06    0.15 
   1   5  14    0.33    0.21 
  -1   5 -14    0.12    0.14 
  -3  -5 -14    2.27    0.27 
   3  -5  14    2.69    0.36 
  -3   5 -14    2.95    0.33 
  -3   5 -14    2.06    0.42 
   3   5  14    2.55    0.37 
  -5  -5 -14    0.20    0.11 
   5  -5  14    0.33    0.17 
  -5   5 -14   -0.09    0.20 
   5   5  14    0.16    0.15 
  -5   5 -14    0.08    0.11 
   7  -5  14    0.20    0.18 
  -7   5 -14    0.13    0.24 
   7   5  14    0.22    0.16 
   9   5  14    1.80    0.33 
  -9   5 -14    1.15    0.39 
 -11   5 -14    0.14    0.26 
  11   5  14    0.02    0.16 
  12  -6 -14    2.37    0.48 
  12   6 -14    4.18    0.67 
 -12   6  14    2.79    0.46 
  10  -6 -14    0.09    0.17 
  10   6 -14    0.05    0.19 
 -10   6  14    0.11    0.21 
 -10   6  14   -0.29    0.18 
   8  -6 -14    0.90    0.30 
  -8   6  14    1.03    0.34 
   8   6 -14    0.64    0.30 
   6  -6 -14    1.00    0.27 
  -6   6  14    1.59    0.39 
   6   6 -14    0.77    0.29 
   4  -6 -14    2.18    0.38 
   4   6 -14    1.80    0.36 
  -4   6  14    2.97    0.47 
  -2  -6  14    0.46    0.23 
   2   6 -14    0.72    0.26 
  -2   6  14    0.67    0.26 
   0  -6  14    0.11    0.16 
   0   6 -14   -0.30    0.13 
   0   6  14   -0.06    0.16 
   2  -6  14    0.90    0.25 
   2   6  14    1.00    0.28 
  -2   6 -14    1.52    0.31 
  -4  -6 -14    0.81    0.21 
   4  -6  14    0.51    0.23 
  -4   6 -14    0.90    0.22 
  -4   6 -14    0.98    0.36 
   4   6  14    0.51    0.22 
   6   6  14    0.64    0.25 
  -6   6 -14    0.50    0.29 
   8   6  14    1.27    0.31 
  -8   6 -14    0.85    0.35 
  10   6  14   -0.07    0.19 
 -10   6 -14    0.12    0.27 
  11  -7 -14    0.39    0.28 
 -11   7  14    0.56    0.32 
  11   7 -14   -0.14    0.23 
   9  -7 -14    0.12    0.22 
   9   7 -14    0.29    0.27 
  -9   7  14    0.60    0.30 
   7  -7 -14    0.92    0.28 
  -7   7  14    0.46    0.28 
   7   7 -14    1.37    0.38 
   5  -7 -14    0.28    0.21 
   5   7 -14    0.22    0.22 
  -5   7  14    0.07    0.22 
   3   7 -14    2.77    0.44 
  -3   7  14    3.69    0.56 
  -1  -7  14    0.60    0.32 
  -1   7  14    0.05    0.21 
   1   7 -14    0.85    0.30 
  -1   7 -14    0.99    0.29 
   1   7  14    0.84    0.29 
   3   7  14    0.10    0.20 
   5   7  14    0.64    0.30 
  -5   7 -14   -0.21    0.20 
  -7   7 -14    0.00    0.22 
   7   7  14    0.25    0.22 
  -9   7 -14   -0.04    0.31 
   9   7  14    0.74    0.30 
   8  -8 -14    0.30    0.26 
   8   8 -14    0.64    0.36 
  -8   8  14    0.41    0.29 
   6  -8 -14    1.01    0.32 
  -6   8  14    0.16    0.31 
   6   8 -14    0.64    0.29 
  -4   8  14    4.68    0.68 
   4   8 -14    6.18    0.73 
   2   8 -14    0.71    0.33 
  -2   8  14    0.39    0.30 
   0   8  14    0.21    0.23 
   2   8  14    1.99    0.45 
  -4   8 -14    1.44    0.49 
   4   8  14    1.04    0.31 
  -6   8 -14    0.28    0.33 
   6   8  14   -0.04    0.22 
  -5   9  14    0.86    0.37 
  -3   9  14   -0.17    0.21 
  -1   9  14    0.23    0.31 
   1   9  14    0.58    0.31 
   3   9  14   -0.38    0.23 
  16   0 -15    0.21    0.23 
 -14   0  15    0.02    0.21 
  14   0 -15    0.09    0.22 
  12   0 -15    0.69    0.30 
 -12   0  15    0.09    0.16 
  12   0 -15    0.20    0.18 
 -10   0  15    0.00    0.15 
  10   0 -15    0.06    0.17 
  10   0 -15   -0.11    0.13 
  -8   0  15    0.04    0.13 
  -8   0  15   -0.04    0.14 
   8   0 -15    0.15    0.15 
   8   0 -15    0.35    0.18 
  -6   0  15    0.03    0.12 
  -6   0  15   -0.05    0.09 
   6   0 -15   -0.10    0.09 
   6   0 -15    0.11    0.14 
   4   0 -15    0.06    0.12 
  -4   0  15    0.19    0.13 
  -4   0  15    0.01    0.10 
   4   0 -15   -0.06    0.09 
   2   0 -15   -0.05    0.07 
   2   0 -15   -0.02    0.06 
  -2   0  15   -0.01    0.07 
  -2   0  15    0.00    0.07 
  -2   0  15   -0.04    0.09 
   0   0 -15   -0.02    0.04 
   0   0 -15    0.10    0.06 
   0   0  15    0.12    0.07 
   0   0  15   -0.10    0.07 
   0   0  15    0.06    0.09 
   2   0  15    0.06    0.06 
   2   0  15    0.13    0.07 
   2   0  15    0.08    0.11 
   4   0  15   -0.04    0.04 
   4   0  15   -0.01    0.10 
   4   0  15    0.01    0.03 
   6   0  15    0.10    0.15 
   8   0  15    0.05    0.20 
  10   0  15   -0.04    0.05 
  10   0  15   -0.02    0.06 
  12   0  15   -0.02    0.09 
  12   0  15   -0.09    0.06 
  14   0  15   -0.13    0.09 
  15  -1 -15    0.03    0.20 
  15   1 -15   -0.05    0.22 
 -13  -1  15   -0.06    0.16 
  13  -1 -15    0.09    0.19 
 -13   1  15    0.43    0.23 
  13   1 -15    0.20    0.21 
  13   1 -15    0.30    0.15 
  11  -1 -15    2.21    0.43 
  11  -1 -15    1.73    0.37 
 -11  -1  15    1.94    0.37 
  11   1 -15    1.65    0.21 
  11   1 -15    1.60    0.36 
  11   1 -15    2.27    0.41 
 -11   1  15    1.92    0.38 
   9  -1 -15    3.84    0.46 
  -9  -1  15    3.54    0.45 
   9  -1 -15    4.10    0.51 
   9   1 -15    3.28    0.43 
  -9   1  15    3.02    0.41 
   9   1 -15    3.56    0.45 
   9   1 -15    3.09    0.19 
  -7  -1  15    0.34    0.16 
   7  -1 -15   -0.13    0.09 
  -7  -1  15    0.05    0.14 
   7  -1 -15   -0.07    0.14 
  -7   1  15    0.01    0.12 
  -7   1  15    0.08    0.15 
   7   1 -15   -0.01    0.12 
   7   1 -15    0.12    0.13 
  -5  -1  15    1.09    0.23 
   5  -1 -15    1.51    0.27 
   5  -1 -15    1.16    0.22 
  -5  -1  15    0.98    0.22 
   5   1 -15    1.14    0.23 
   5   1 -15    1.12    0.09 
   5   1 -15    1.09    0.22 
  -5   1  15    1.32    0.24 
  -5   1  15    1.46    0.25 
  -3  -1  15    5.06    0.38 
  -3  -1  15    5.93    0.38 
   3  -1 -15    5.15    0.35 
   3  -1 -15    5.78    0.36 
   3   1 -15    5.33    0.35 
   3   1 -15    5.55    0.36 
  -3   1  15    5.92    0.37 
   3   1 -15    5.37    0.26 
  -3   1  15    5.61    0.39 
   1  -1 -15    4.40    0.28 
  -1  -1  15    4.82    0.33 
   1  -1 -15    4.65    0.27 
  -1  -1  15    4.26    0.30 
   1   1 -15    5.00    0.29 
  -1   1  15    4.78    0.32 
  -1   1  15    4.50    0.30 
   1   1 -15    4.31    0.27 
   1   1 -15    4.06    0.28 
  -1  -1 -15    0.55    0.07 
   1  -1  15    0.47    0.16 
   1  -1  15    0.23    0.10 
  -1  -1 -15    0.43    0.07 
   1  -1  15    0.18    0.09 
   1   1  15    0.43    0.11 
  -1   1 -15    0.38    0.07 
   1   1  15    0.31    0.10 
  -1   1 -15    0.20    0.12 
  -1   1 -15    0.27    0.07 
   3  -1  15    1.09    0.13 
   3  -1  15    1.33    0.15 
   3  -1  15    1.29    0.26 
   3   1  15    1.39    0.15 
  -3   1 -15    1.04    0.22 
   3   1  15    1.14    0.13 
   3   1  15    1.49    0.26 
   5  -1  15    2.44    0.15 
   5  -1  15    2.34    0.39 
   5  -1  15    2.34    0.14 
   5   1  15    2.31    0.14 
   5   1  15    2.82    0.39 
   5   1  15    2.33    0.14 
   7  -1  15    0.08    0.06 
   7   1  15    0.11    0.05 
   9  -1  15    3.53    0.20 
   9   1  15    3.30    0.18 
  11  -1  15    0.02    0.08 
  11  -1  15    0.00    0.07 
  11   1  15   -0.09    0.06 
  11   1  15    0.08    0.08 
  13  -1  15    0.37    0.14 
  13   1  15    0.40    0.14 
  16  -2 -15    0.09    0.27 
  16   2 -15    0.19    0.26 
  14  -2 -15    0.31    0.21 
  14   2 -15    0.08    0.18 
  12  -2 -15    0.31    0.19 
 -12  -2  15   -0.21    0.13 
  12   2 -15   -0.03    0.16 
  12   2 -15    0.15    0.11 
 -12   2  15    0.03    0.17 
  10  -2 -15    0.09    0.16 
  10  -2 -15    0.44    0.30 
 -10  -2  15    0.58    0.24 
  10   2 -15    0.11    0.15 
  10   2 -15    0.04    0.21 
 -10   2  15    0.39    0.21 
   8  -2 -15    2.12    0.34 
  -8  -2  15    0.97    0.26 
   8  -2 -15    2.00    0.35 
   8   2 -15    1.84    0.31 
   8   2 -15    1.67    0.31 
  -8   2  15    2.09    0.19 
  -8   2  15    2.37    0.37 
  -6  -2  15    2.72    0.36 
  -6  -2  15    2.07    0.33 
   6  -2 -15    2.99    0.38 
   6  -2 -15    3.02    0.36 
  -6   2  15    3.53    0.41 
   6   2 -15    2.86    0.38 
   6   2 -15    3.45    0.41 
  -6   2  15    3.19    0.39 
   4  -2 -15   91.24    2.10 
  -4  -2  15   91.50    2.13 
  -4  -2  15   91.58    2.16 
   4  -2 -15   94.52    2.07 
  -4   2  15   92.52    2.11 
   4   2 -15   90.83    2.11 
   4   2 -15   91.02    2.07 
  -4   2  15   89.31    2.12 
  -2  -2  15   12.54    0.57 
   2  -2 -15   11.86    0.53 
   2  -2 -15   11.89    0.51 
  -2  -2  15   11.98    0.56 
   2   2 -15   12.08    0.50 
  -2   2  15   11.56    0.56 
  -2   2  15   11.10    0.53 
   2   2 -15   11.67    0.53 
   2   2 -15   11.54    0.51 
   0  -2  15    0.93    0.18 
   0  -2  15    0.80    0.16 
   0  -2 -15    1.05    0.15 
   0  -2 -15    1.21    0.17 
   0   2 -15    0.96    0.16 
   0   2  15    1.05    0.18 
   0   2 -15    0.73    0.18 
   0   2  15    0.78    0.16 
   0   2 -15    0.77    0.14 
   2  -2  15   37.89    1.01 
   2  -2  15   37.85    0.97 
  -2  -2 -15   39.00    0.74 
  -2  -2 -15   39.40    0.74 
  -2   2 -15   39.74    1.23 
  -2   2 -15   38.73    0.76 
  -2   2 -15   39.66    0.77 
   2   2  15   38.06    0.98 
   4  -2  15    0.03    0.07 
  -4   2 -15   -0.12    0.10 
   4   2  15   -0.02    0.07 
   6  -2  15   19.62    0.57 
  -6   2 -15   19.27    0.96 
   6   2  15   19.52    0.57 
   8  -2  15    1.67    0.19 
   8   2  15    1.80    0.20 
  10  -2  15    0.91    0.16 
  10   2  15    1.32    0.18 
  12   2  15    0.27    0.12 
  14  -2  15    0.72    0.19 
  14   2  15    0.65    0.18 
  15  -3 -15    2.09    0.45 
  15   3 -15    1.61    0.42 
  13  -3 -15    4.32    0.61 
 -13   3  15    2.93    0.46 
  13   3 -15    2.67    0.50 
  11  -3 -15    1.79    0.35 
 -11   3  15    1.98    0.28 
  11   3 -15    1.91    0.40 
 -11   3  15    2.10    0.40 
   9  -3 -15    6.47    0.53 
  -9  -3  15    6.13    0.60 
  -9   3  15    5.51    0.37 
   9   3 -15    6.17    0.62 
  -9   3  15    6.73    0.67 
   7  -3 -15    1.87    0.32 
  -7  -3  15    1.49    0.28 
  -7  -3  15    1.43    0.31 
   7   3 -15    1.40    0.39 
  -7   3  15    1.83    0.34 
   7   3 -15    1.13    0.27 
  -5  -3  15   -0.05    0.13 
  -5  -3  15    0.04    0.13 
   5  -3 -15   -0.09    0.14 
   5  -3 -15    0.04    0.13 
  -5   3  15    0.11    0.14 
   5   3 -15    0.31    0.17 
   5   3 -15   -0.02    0.12 
  -3  -3  15   49.77    1.41 
   3  -3 -15   51.47    1.41 
   3  -3 -15   51.73    1.37 
  -3  -3  15   52.60    1.46 
  -3   3  15   48.61    1.43 
   3   3 -15   51.24    1.38 
   3   3 -15   51.71    1.43 
   1  -3 -15   27.23    0.86 
  -1  -3  15   26.68    0.92 
  -1  -3  15   27.11    0.92 
   1  -3 -15   26.95    0.83 
   1   3 -15   27.43    0.89 
  -1   3  15   28.00    0.94 
   1   3 -15   27.82    0.86 
  -1  -3 -15    6.69    0.35 
  -1  -3 -15    6.49    0.33 
   1  -3  15    7.09    0.41 
   1   3  15    6.58    0.41 
  -1   3 -15    6.62    0.48 
  -1   3 -15    6.97    0.36 
  -1   3 -15    6.76    0.35 
   3  -3  15   26.61    0.82 
  -3  -3 -15   25.88    0.58 
  -3  -3 -15   26.52    0.59 
   3   3  15   26.96    0.83 
  -3   3 -15   25.96    0.60 
  -3   3 -15   26.17    0.60 
  -3   3 -15   24.83    1.03 
   5  -3  15   18.42    0.65 
   5   3  15   18.72    0.65 
  -5   3 -15   18.36    0.93 
   7  -3  15   11.48    0.50 
  -7   3 -15   10.94    0.80 
   7   3  15   11.00    0.50 
   9  -3  15    0.03    0.11 
   9   3  15    0.07    0.11 
  -9   3 -15    0.36    0.25 
  11   3  15    0.55    0.16 
  13   3  15    0.08    0.14 
  14  -4 -15    1.73    0.45 
  14   4 -15    1.40    0.40 
  12  -4 -15    3.02    0.50 
 -12   4  15    3.16    0.53 
 -12   4  15    3.51    0.42 
  12   4 -15    2.97    0.51 
  10  -4 -15    0.79    0.26 
 -10   4  15    0.74    0.25 
  10   4 -15    0.05    0.15 
 -10   4  15    0.44    0.18 
   8  -4 -15    7.81    0.58 
  -8   4  15    8.24    0.64 
   8   4 -15    7.75    0.63 
  -6  -4  15    8.41    0.60 
   6  -4 -15    8.92    0.58 
  -6   4  15    9.29    0.64 
   6   4 -15    8.94    0.62 
   4  -4 -15   26.16    0.96 
  -4  -4  15   25.82    1.01 
  -4   4  15   23.50    0.99 
   4   4 -15   23.09    0.96 
   2  -4 -15    0.78    0.20 
  -2  -4  15    0.67    0.20 
  -2   4  15    0.28    0.18 
   2   4 -15    0.56    0.20 
   0  -4  15    3.62    0.40 
   0   4  15    2.98    0.37 
   0   4 -15    2.85    0.34 
   2  -4  15   25.14    0.88 
  -2  -4 -15   24.28    0.75 
  -2   4 -15   26.55    0.81 
  -2   4 -15   25.59    1.06 
   2   4  15   25.12    0.90 
   4  -4  15    0.14    0.13 
  -4  -4 -15    0.01    0.07 
  -4   4 -15   -0.01    0.19 
  -4   4 -15    0.06    0.08 
   4   4  15    0.01    0.13 
   6  -4  15   30.64    0.99 
   6   4  15   31.43    1.01 
  -6   4 -15   32.59    1.37 
   8  -4  15    0.06    0.14 
   8   4  15    0.04    0.14 
  -8   4 -15    0.46    0.26 
  10   4  15    0.79    0.22 
 -10   4 -15    1.81    0.46 
  12   4  15    0.13    0.16 
  13  -5 -15    0.62    0.28 
  13   5 -15    0.22    0.24 
  11  -5 -15    0.10    0.18 
  11   5 -15    0.06    0.20 
 -11   5  15    0.24    0.19 
 -11   5  15    0.40    0.25 
   9  -5 -15    0.21    0.20 
   9   5 -15    1.22    0.34 
  -9   5  15    1.40    0.36 
   7  -5 -15    0.97    0.29 
   7   5 -15    0.52    0.23 
  -7   5  15    1.15    0.33 
   5  -5 -15   -0.08    0.15 
  -5  -5  15    0.02    0.16 
   5   5 -15   -0.13    0.13 
  -5   5  15    0.28    0.24 
   3  -5 -15   21.58    0.91 
  -3  -5  15   23.74    1.00 
   3   5 -15   22.41    0.97 
  -3   5  15   21.68    0.99 
  -1  -5  15   24.49    0.99 
   1  -5 -15   24.63    0.91 
  -1   5  15   23.74    1.00 
   1   5 -15   23.94    0.96 
   1  -5  15    5.30    0.44 
   1   5  15    4.58    0.50 
  -3  -5 -15    6.53    0.39 
   3  -5  15    5.72    0.45 
  -3   5 -15    6.05    0.42 
   3   5  15    6.53    0.50 
  -3   5 -15    6.06    0.67 
   5  -5  15    2.72    0.36 
  -5  -5 -15    3.21    0.23 
  -5   5 -15    3.37    0.52 
  -5   5 -15    3.38    0.26 
   5   5  15    2.18    0.34 
   7   5  15    2.66    0.38 
  -7   5 -15    2.60    0.49 
  -9   5 -15    0.24    0.22 
   9   5  15    0.20    0.18 
  11   5  15    0.30    0.19 
 -11   5 -15    1.03    0.42 
  12  -6 -15    0.52    0.26 
 -12   6  15    0.36    0.29 
  12   6 -15    0.18    0.22 
  10  -6 -15    0.25    0.20 
 -10   6  15    0.39    0.28 
  10   6 -15    0.09    0.21 
 -10   6  15   -0.28    0.19 
   8  -6 -15    2.14    0.39 
  -8   6  15    2.44    0.46 
   8   6 -15    1.92    0.43 
   6  -6 -15    7.06    0.58 
  -6   6  15    6.86    0.71 
   6   6 -15    6.33    0.67 
   4  -6 -15    1.59    0.34 
   4   6 -15    1.71    0.37 
  -4   6  15    1.68    0.38 
   2  -6 -15    1.44    0.31 
  -2  -6  15    1.01    0.29 
  -2   6  15    1.82    0.38 
   2   6 -15    1.96    0.36 
   0  -6 -15    0.38    0.20 
   0  -6  15    0.63    0.21 
   0   6  15    0.52    0.24 
   0   6 -15    0.35    0.21 
   2  -6  15    0.38    0.20 
  -2  -6 -15   -0.12    0.08 
  -2   6 -15   -0.04    0.10 
   2   6  15    0.11    0.17 
  -4  -6 -15    0.17    0.13 
  -4   6 -15   -0.05    0.16 
  -4   6 -15    0.12    0.14 
   4   6  15   -0.25    0.13 
  -6   6 -15    1.67    0.43 
   6   6  15    1.65    0.35 
   8   6  15    0.06    0.18 
  -8   6 -15    0.09    0.27 
 -10   6 -15    0.50    0.32 
  10   6  15    1.13    0.32 
  11  -7 -15    0.30    0.25 
  11   7 -15    0.31    0.30 
 -11   7  15   -0.14    0.25 
   9  -7 -15    2.11    0.45 
   9   7 -15    1.86    0.47 
  -9   7  15    3.47    0.60 
   7  -7 -15    1.39    0.37 
   7   7 -15    1.07    0.33 
  -7   7  15    1.34    0.39 
   5  -7 -15    1.02    0.29 
   5   7 -15    1.32    0.36 
  -5   7  15    0.68    0.32 
   3  -7 -15    2.33    0.39 
   3   7 -15    1.65    0.37 
  -3   7  15    2.41    0.47 
  -1  -7  15    0.71    0.28 
  -1   7  15    0.52    0.25 
   1   7 -15    1.15    0.31 
   1   7  15    0.38    0.24 
  -1   7 -15    0.41    0.24 
   3   7  15    1.39    0.33 
  -3   7 -15    0.82    0.37 
  -5   7 -15   -0.14    0.21 
   5   7  15   -0.17    0.16 
   7   7  15    0.04    0.18 
  -7   7 -15   -0.12    0.21 
   9   7  15   -0.05    0.22 
  -9   7 -15   -0.06    0.28 
   8  -8 -15   -0.04    0.18 
  -8   8  15   -0.06    0.26 
   8   8 -15    0.06    0.26 
   6  -8 -15    0.41    0.25 
   6   8 -15    0.35    0.24 
  -6   8  15   -0.15    0.24 
   4  -8 -15   -0.03    0.18 
   4   8 -15    0.16    0.24 
  -4   8  15   -0.15    0.19 
  -2   8  15    0.64    0.32 
   2   8 -15   -0.19    0.18 
   0   8  15    0.30    0.25 
   2   8  15    0.22    0.24 
   4   8  15    0.61    0.30 
  -4   8 -15   -0.14    0.27 
  -6   8 -15    0.58    0.35 
   6   8  15    0.10    0.26 
  -5   9  15    0.46    0.35 
  -3   9  15    0.20    0.31 
  -1   9  15    0.22    0.30 
   1   9  15   -0.08    0.27 
   3   9  15    0.28    0.30 
  16   0 -16    2.14    0.49 
  14   0 -16    2.32    0.47 
 -14   0  16    2.94    0.47 
 -12   0  16   -0.11    0.15 
  12   0 -16   -0.11    0.14 
  10   0 -16    6.89    0.74 
  10   0 -16    5.49    0.56 
 -10   0  16    6.11    0.60 
  -8   0  16    7.68    0.55 
   8   0 -16    9.65    0.59 
   8   0 -16    8.94    0.60 
  -8   0  16    8.21    0.55 
  -6   0  16    3.27    0.38 
   6   0 -16    3.95    0.41 
   6   0 -16    4.95    0.47 
  -6   0  16    4.28    0.42 
   4   0 -16    0.18    0.12 
   4   0 -16    0.42    0.16 
  -4   0  16    0.19    0.14 
  -4   0  16    0.48    0.16 
   2   0 -16    0.29    0.11 
  -2   0  16    0.07    0.10 
  -2   0  16   -0.02    0.08 
   2   0 -16   -0.06    0.04 
  -2   0  16    0.05    0.07 
   0   0  16    6.82    0.38 
   0   0 -16    6.57    0.28 
   0   0  16    6.22    0.34 
   0   0 -16    6.62    0.29 
   0   0  16    6.49    0.35 
   2   0  16   50.78    1.39 
   2   0  16   51.60    1.10 
   2   0  16   48.44    1.11 
   4   0  16    0.24    0.07 
   4   0  16    0.21    0.06 
   4   0  16    0.29    0.17 
   6   0  16   47.35    1.60 
   8   0  16   25.50    1.47 
  10   0  16    0.77    0.10 
  10   0  16    0.38    0.08 
  12   0  16    0.75    0.14 
  12   0  16    0.44    0.12 
  14   0  16    0.91    0.18 
  15  -1 -16    0.21    0.24 
  15   1 -16   -0.08    0.21 
  13  -1 -16    0.45    0.26 
 -13  -1  16    0.46    0.26 
 -13   1  16    0.84    0.30 
  13   1 -16    0.65    0.28 
 -11  -1  16   18.99    0.96 
  11  -1 -16   20.20    0.98 
  11   1 -16   19.74    1.00 
 -11   1  16   18.97    0.96 
  11   1 -16   18.66    0.58 
  -9  -1  16    1.56    0.33 
   9  -1 -16    1.88    0.34 
   9  -1 -16    1.98    0.36 
   9   1 -16    1.35    0.11 
   9   1 -16    1.73    0.33 
   9   1 -16    1.56    0.33 
  -9   1  16    1.74    0.33 
  -7  -1  16    8.92    0.58 
  -7  -1  16    9.15    0.56 
   7  -1 -16    7.52    0.51 
   7  -1 -16    8.31    0.56 
  -7   1  16   10.20    0.62 
  -7   1  16    8.80    0.55 
   7   1 -16    8.37    0.55 
   7   1 -16    8.41    0.55 
   5  -1 -16   10.39    0.56 
  -5  -1  16   11.76    0.61 
  -5  -1  16   11.67    0.59 
   5  -1 -16   11.01    0.59 
   5   1 -16   11.03    0.57 
  -5   1  16   11.35    0.60 
  -5   1  16   11.42    0.58 
   5   1 -16   10.69    0.28 
   5   1 -16   10.43    0.55 
   3  -1 -16    0.41    0.13 
  -3  -1  16    0.35    0.16 
   3  -1 -16    0.58    0.16 
  -3  -1  16    0.56    0.16 
   3   1 -16    0.57    0.12 
   3   1 -16    0.73    0.18 
  -3   1  16    0.47    0.15 
   3   1 -16    0.17    0.13 
  -3   1  16    0.18    0.14 
  -3   1  16    0.55    0.10 
   1  -1 -16    4.84    0.29 
  -1  -1  16    4.40    0.31 
  -1  -1  16    4.75    0.34 
   1  -1 -16    4.77    0.29 
   1   1 -16    4.34    0.29 
   1   1 -16    4.85    0.29 
  -1   1  16    4.11    0.32 
   1   1 -16    4.84    0.29 
  -1   1  16    4.76    0.32 
   1  -1  16    1.80    0.27 
   1  -1  16    1.39    0.18 
  -1  -1 -16    1.44    0.10 
   1  -1  16    1.57    0.20 
  -1  -1 -16    1.51    0.11 
   1   1  16    1.72    0.25 
  -1   1 -16    1.52    0.23 
  -1   1 -16    1.33    0.11 
   1   1  16    1.72    0.20 
   1   1  16    1.51    0.20 
  -1   1 -16    1.37    0.11 
   3  -1  16    0.50    0.10 
   3  -1  16    0.49    0.11 
   3  -1  16    0.35    0.17 
   3   1  16    0.62    0.20 
   3   1  16    0.30    0.08 
   3   1  16    0.41    0.10 
   5  -1  16    1.00    0.30 
   5  -1  16    1.35    0.13 
   5  -1  16    1.36    0.13 
   5   1  16    1.41    0.13 
   5   1  16    0.92    0.24 
   5   1  16    1.04    0.11 
   7  -1  16   20.48    0.47 
   7   1  16   20.57    0.46 
   9  -1  16    1.79    0.15 
   9   1  16    1.70    0.13 
  11  -1  16    0.85    0.14 
  11  -1  16    0.83    0.14 
  11   1  16    0.98    0.14 
  11   1  16    1.01    0.15 
  13  -1  16    0.02    0.10 
  13   1  16    0.16    0.11 
  16  -2 -16    0.40    0.28 
  16   2 -16    0.69    0.35 
  14  -2 -16    1.99    0.43 
  14   2 -16    2.84    0.52 
 -12  -2  16    1.61    0.34 
  12  -2 -16    1.99    0.41 
 -12   2  16    1.67    0.37 
  12   2 -16    1.82    0.25 
  12   2 -16    1.42    0.37 
  10  -2 -16    0.20    0.18 
 -10  -2  16   -0.07    0.15 
  10   2 -16   -0.10    0.12 
 -10   2  16    0.45    0.20 
  -8  -2  16    8.02    0.58 
   8  -2 -16    8.91    0.58 
  -8   2  16    8.49    0.30 
   8   2 -16    9.44    0.63 
   8   2 -16   10.08    0.76 
  -8   2  16    9.80    0.64 
  -6  -2  16    4.26    0.44 
   6  -2 -16    4.51    0.45 
  -6  -2  16    5.27    0.51 
   6  -2 -16    4.28    0.44 
   6   2 -16    4.53    0.46 
  -6   2  16    4.38    0.44 
   6   2 -16    4.27    0.44 
  -6   2  16    4.71    0.47 
   4  -2 -16    0.91    0.21 
  -4  -2  16    0.56    0.19 
  -4  -2  16    0.72    0.19 
   4  -2 -16    1.00    0.21 
  -4   2  16    0.43    0.16 
   4   2 -16    0.46    0.17 
  -4   2  16    0.60    0.20 
   4   2 -16    0.75    0.20 
   2  -2 -16    5.37    0.36 
  -2  -2  16    5.70    0.39 
  -2  -2  16    5.64    0.41 
   2  -2 -16    5.92    0.36 
  -2   2  16    6.25    0.40 
  -2   2  16    5.91    0.41 
   2   2 -16    5.96    0.37 
   2   2 -16    5.59    0.36 
   2   2 -16    5.47    0.35 
   0  -2  16    0.29    0.13 
   0  -2  16    0.09    0.10 
   0  -2 -16    0.28    0.09 
   0  -2 -16    0.23    0.09 
   0   2 -16    0.22    0.09 
   0   2 -16    0.31    0.13 
   0   2 -16    0.33    0.11 
   0   2  16    0.30    0.13 
   0   2  16    0.36    0.12 
   2  -2  16    8.83    0.41 
   2  -2  16    7.73    0.40 
   2   2  16    8.01    0.40 
  -2   2 -16    7.14    0.50 
  -2   2 -16    8.27    0.22 
  -2   2 -16    8.25    0.22 
   4  -2  16    2.75    0.22 
  -4   2 -16    2.78    0.38 
   4   2  16    2.74    0.22 
   6  -2  16   27.87    0.72 
  -6   2 -16   25.55    1.13 
   6   2  16   26.87    0.71 
   8  -2  16    7.35    0.34 
   8   2  16    8.14    0.35 
  10  -2  16    0.98    0.17 
  10   2  16    0.81    0.16 
  12   2  16    0.13    0.11 
  14  -2  16    0.02    0.13 
  14   2  16    0.09    0.11 
  15  -3 -16    0.07    0.24 
  15   3 -16   -0.05    0.25 
  13  -3 -16    1.99    0.40 
  13   3 -16    1.25    0.39 
 -13   3  16    1.70    0.40 
  11  -3 -16    0.91    0.29 
 -11   3  16    1.27    0.21 
 -11   3  16    1.16    0.32 
  11   3 -16    1.40    0.37 
   9  -3 -16    0.59    0.24 
  -9  -3  16    0.95    0.29 
  -9   3  16    0.78    0.17 
  -9   3  16    0.55    0.22 
   9   3 -16    1.07    0.30 
  -7  -3  16    0.29    0.17 
   7  -3 -16    0.64    0.21 
  -7  -3  16    0.09    0.17 
   7   3 -16    0.39    0.19 
  -7   3  16    0.33    0.20 
  -5  -3  16    2.91    0.42 
  -5  -3  16    3.68    0.44 
   5  -3 -16    2.59    0.35 
  -5   3  16    2.92    0.40 
   5   3 -16    2.54    0.37 
   3  -3 -16    5.29    0.39 
  -3  -3  16    6.18    0.46 
  -3  -3  16    5.63    0.43 
   3   3 -16    5.47    0.41 
  -3   3  16    5.53    0.45 
  -1  -3  16    3.89    0.40 
  -1  -3  16    4.16    0.39 
   1   3 -16    4.54    0.38 
  -1   3  16    4.20    0.41 
   1   3 -16    2.74    0.30 
  -1  -3 -16    6.06    0.35 
   1  -3  16    6.10    0.39 
  -1  -3 -16    5.93    0.31 
  -1   3 -16    6.07    0.47 
   1   3  16    5.69    0.40 
  -1   3 -16    5.66    0.33 
  -1   3 -16    5.71    0.38 
  -3  -3 -16    2.95    0.12 
  -3  -3 -16    3.10    0.13 
   3  -3  16    2.94    0.31 
  -3   3 -16    2.81    0.15 
   3   3  16    2.44    0.28 
  -3   3 -16    3.26    0.45 
  -3   3 -16    2.86    0.15 
   5  -3  16    4.21    0.32 
   5   3  16    3.95    0.32 
  -5   3 -16    3.96    0.51 
   7  -3  16   16.59    0.62 
   7   3  16   16.40    0.62 
  -7   3 -16   17.84    1.01 
   9  -3  16    0.29    0.13 
   9   3  16    0.29    0.14 
  -9   3 -16    0.53    0.27 
  11   3  16    0.68    0.16 
  13   3  16    0.12    0.13 
  14  -4 -16    0.35    0.23 
  14   4 -16    0.23    0.26 
  12  -4 -16    0.12    0.20 
 -12   4  16    0.22    0.22 
 -12   4  16    0.18    0.15 
  12   4 -16    0.06    0.18 
  10  -4 -16    3.72    0.52 
 -10   4  16    2.69    0.44 
  10   4 -16    3.50    0.50 
 -10   4  16    3.39    0.38 
   8  -4 -16    0.27    0.15 
   8   4 -16    0.09    0.17 
  -8   4  16    0.49    0.23 
   6  -4 -16    5.43    0.54 
  -6  -4  16    5.81    0.58 
   6   4 -16    6.68    0.54 
  -6   4  16    5.35    0.58 
  -4  -4  16    2.07    0.33 
   4  -4 -16    2.59    0.37 
  -4   4  16    2.37    0.39 
   4   4 -16    3.16    0.41 
   2  -4 -16    0.24    0.14 
  -2  -4  16    0.21    0.15 
  -2   4  16    0.03    0.15 
   2   4 -16    0.02    0.12 
   0  -4 -16    0.01    0.06 
   0  -4  16    0.14    0.15 
   0   4 -16    0.10    0.07 
   0   4 -16    0.24    0.18 
   0   4  16   -0.10    0.15 
  -2  -4 -16    1.38    0.19 
   2  -4  16    1.26    0.25 
  -2   4 -16    1.22    0.30 
   2   4  16    1.63    0.29 
  -2   4 -16    1.84    0.26 
  -4  -4 -16    4.71    0.21 
   4  -4  16    3.67    0.37 
  -4   4 -16    5.04    0.57 
  -4   4 -16    4.81    0.24 
   4   4  16    4.33    0.42 
   6  -4  16    0.66    0.19 
  -6   4 -16    0.90    0.31 
   6   4  16    0.35    0.16 
   8  -4  16    2.12    0.30 
   8   4  16    1.85    0.29 
  -8   4 -16    2.52    0.47 
  10   4  16   -0.02    0.14 
 -10   4 -16    0.07    0.23 
  12   4  16    1.23    0.27 
  13  -5 -16    0.13    0.24 
  13   5 -16    0.28    0.25 
  11  -5 -16    0.55    0.25 
 -11   5  16    0.38    0.20 
  11   5 -16    0.59    0.25 
 -11   5  16    0.64    0.27 
   9  -5 -16    0.12    0.20 
   9   5 -16    0.32    0.24 
  -9   5  16    0.82    0.29 
   7  -5 -16    2.36    0.41 
  -7   5  16    2.18    0.41 
   7   5 -16    2.69    0.45 
   5  -5 -16    1.49    0.30 
  -5  -5  16    1.55    0.38 
   5   5 -16    2.09    0.37 
  -5   5  16    1.53    0.37 
  -3  -5  16    1.71    0.33 
   3  -5 -16    1.35    0.28 
  -3   5  16    1.36    0.32 
   3   5 -16    1.75    0.34 
  -1  -5  16    5.86    0.57 
   1  -5 -16    4.57    0.45 
   1   5 -16    4.58    0.47 
  -1   5  16    5.12    0.55 
   1  -5  16    3.58    0.42 
  -1  -5 -16    3.91    0.38 
   1   5  16    3.87    0.47 
  -3  -5 -16    2.23    0.27 
   3  -5  16    2.86    0.37 
  -3   5 -16    2.42    0.30 
  -3   5 -16    3.09    0.49 
   3   5  16    2.66    0.38 
  -5  -5 -16    0.91    0.14 
   5  -5  16    0.80    0.22 
  -5   5 -16    0.61    0.28 
   5   5  16    1.10    0.25 
  -5   5 -16    1.04    0.16 
  -7   5 -16    3.26    0.58 
   7   5  16    2.87    0.40 
  -9   5 -16   -0.02    0.23 
   9   5  16   -0.15    0.16 
 -11   5 -16    0.29    0.33 
  11   5  16    0.11    0.16 
  12  -6 -16    0.48    0.28 
  12   6 -16   -0.05    0.22 
  10  -6 -16    0.80    0.30 
 -10   6  16    0.77    0.28 
 -10   6  16    0.55    0.30 
  10   6 -16    0.98    0.32 
   8  -6 -16    2.21    0.41 
  -8   6  16    1.62    0.39 
   8   6 -16    1.28    0.38 
   6  -6 -16   -0.16    0.13 
  -6   6  16    0.32    0.25 
   6   6 -16    0.05    0.19 
   4  -6 -16    0.09    0.15 
   4   6 -16    0.05    0.16 
  -4   6  16   -0.02    0.17 
   2  -6 -16    0.23    0.18 
  -2  -6  16    0.46    0.22 
  -2   6  16    0.93    0.29 
   2   6 -16    0.53    0.24 
   0  -6 -16    5.27    0.51 
   0  -6  16    4.01    0.50 
   0   6  16    4.53    0.54 
   0   6 -16    4.74    0.53 
   2  -6  16    0.17    0.17 
  -2  -6 -16    0.06    0.13 
  -2   6 -16   -0.20    0.20 
  -2   6 -16    0.06    0.15 
   2   6  16    0.05    0.16 
   4   6  16    0.09    0.16 
  -4   6 -16    0.05    0.19 
   6   6  16    2.50    0.40 
  -6   6 -16    1.95    0.47 
   8   6  16   -0.01    0.17 
  -8   6 -16    0.04    0.23 
  10   6  16    0.23    0.21 
 -10   6 -16    0.55    0.41 
  11  -7 -16    0.89    0.37 
  11   7 -16    0.40    0.32 
   9  -7 -16    0.17    0.24 
  -9   7  16    0.11    0.24 
   9   7 -16    0.78    0.38 
   7  -7 -16    1.12    0.33 
  -7   7  16    1.49    0.38 
   7   7 -16    1.59    0.40 
   5  -7 -16    0.10    0.18 
   5   7 -16    0.04    0.19 
  -5   7  16   -0.16    0.20 
   3  -7 -16    0.73    0.26 
   3   7 -16    0.67    0.24 
  -3   7  16    0.50    0.27 
   1  -7 -16    0.35    0.23 
  -1   7  16    0.34    0.24 
   1   7 -16    0.40    0.25 
   1   7  16    0.89    0.31 
  -3   7 -16   -0.26    0.22 
   3   7  16    0.18    0.21 
   5   7  16    0.31    0.24 
  -5   7 -16    1.30    0.43 
  -7   7 -16    1.96    0.51 
   7   7  16    1.87    0.39 
  -9   7 -16   -0.04    0.27 
   9   7  16    0.05    0.23 
   8  -8 -16    1.93    0.43 
  -8   8  16    1.69    0.51 
   8   8 -16    1.50    0.45 
   6  -8 -16    1.65    0.38 
  -6   8  16    0.66    0.34 
   6   8 -16    1.51    0.38 
   4  -8 -16    0.21    0.22 
   4   8 -16   -0.10    0.20 
  -4   8  16    0.49    0.27 
  -2   8  16    2.05    0.49 
   0   8  16    0.04    0.23 
   2   8  16    0.05    0.23 
  -4   8 -16   -0.04    0.31 
   4   8  16    0.79    0.32 
  -6   8 -16    2.58    0.61 
   6   8  16    2.19    0.47 
  -3   9  16    0.08    0.29 
  -1   9  16    0.24    0.30 
   1   9  16    0.60    0.33 
  16   0 -17    0.05    0.25 
 -14   0  17   -0.18    0.14 
  14   0 -17    0.18    0.20 
  12   0 -17   -0.15    0.15 
 -12   0  17    0.01    0.14 
 -10   0  17   -0.07    0.14 
  10   0 -17    0.18    0.16 
  -8   0  17   -0.12    0.14 
   8   0 -17   -0.03    0.18 
  -8   0  17    0.15    0.13 
   8   0 -17    0.01    0.13 
  -6   0  17    0.15    0.15 
  -6   0  17    0.07    0.13 
   6   0 -17    0.15    0.14 
   6   0 -17   -0.02    0.13 
  -4   0  17   -0.06    0.09 
   4   0 -17    0.11    0.10 
  -4   0  17    0.02    0.13 
   4   0 -17   -0.04    0.11 
   2   0 -17   -0.02    0.03 
  -2   0  17   -0.04    0.08 
  -2   0  17   -0.05    0.06 
  -2   0  17   -0.06    0.07 
   2   0 -17   -0.01    0.08 
   0   0  17   -0.04    0.08 
   0   0  17   -0.05    0.08 
   0   0  17    0.06    0.07 
   0   0 -17    0.15    0.07 
   0   0 -17    0.13    0.07 
   2   0  17    0.16    0.07 
   2   0  17    0.16    0.08 
   2   0  17    0.17    0.13 
   4   0  17   -0.02    0.04 
   4   0  17    0.07    0.14 
   4   0  17    0.01    0.06 
   6   0  17   -0.03    0.19 
   8   0  17    0.36    0.27 
  10   0  17   -0.01    0.04 
  10   0  17   -0.07    0.05 
  12   0  17   -0.05    0.07 
  12   0  17   -0.05    0.08 
  14   0  17   -0.06    0.09 
  15  -1 -17    0.46    0.28 
  15   1 -17    0.12    0.25 
 -13  -1  17    0.21    0.18 
  13  -1 -17    0.13    0.24 
 -13   1  17    0.26    0.19 
  13   1 -17    0.58    0.27 
 -11  -1  17    3.18    0.47 
  11  -1 -17    3.17    0.48 
  11   1 -17    3.44    0.51 
 -11   1  17    3.45    0.50 
   9  -1 -17    2.30    0.40 
  -9  -1  17    2.69    0.40 
   9   1 -17    2.59    0.40 
  -9   1  17    2.80    0.43 
  -7  -1  17    4.52    0.48 
   7  -1 -17    5.51    0.57 
  -7  -1  17    4.39    0.47 
   7  -1 -17    4.81    0.48 
   7   1 -17    5.82    0.55 
   7   1 -17    4.25    0.46 
  -7   1  17    5.31    0.51 
  -7   1  17    5.37    0.53 
  -5  -1  17    4.13    0.41 
   5  -1 -17    2.68    0.35 
   5  -1 -17    3.05    0.34 
  -5  -1  17    3.02    0.37 
   5   1 -17    3.66    0.41 
  -5   1  17    3.18    0.39 
   5   1 -17    3.26    0.37 
  -5   1  17    3.37    0.38 
  -3  -1  17    1.76    0.26 
  -3  -1  17    1.27    0.24 
   3  -1 -17    1.30    0.21 
   3  -1 -17    1.09    0.21 
   3   1 -17    1.61    0.23 
   3   1 -17    1.28    0.15 
  -3   1  17    1.24    0.15 
  -3   1  17    1.06    0.20 
  -3   1  17    1.61    0.27 
   3   1 -17    1.24    0.22 
  -1  -1  17    1.44    0.22 
   1  -1 -17    1.02    0.16 
  -1  -1  17    1.02    0.20 
   1  -1 -17    1.12    0.17 
  -1   1  17    0.74    0.16 
   1   1 -17    1.16    0.17 
  -1   1  17    1.75    0.25 
   1   1 -17    0.94    0.17 
   1   1 -17    1.05    0.17 
  -1   1  17    0.86    0.16 
   1  -1  17    2.14    0.23 
  -1  -1 -17    2.26    0.12 
  -1  -1 -17    2.20    0.13 
   1  -1  17    1.67    0.27 
   1  -1  17    2.13    0.24 
   1   1  17    2.25    0.29 
   1   1  17    2.25    0.23 
  -1   1 -17    2.25    0.29 
  -1   1 -17    2.28    0.13 
  -1   1 -17    2.13    0.13 
   1   1  17    1.99    0.22 
   3  -1  17    0.24    0.10 
   3  -1  17    0.25    0.09 
   3  -1  17    0.25    0.17 
   3   1  17    0.05    0.06 
   3   1  17    0.08    0.08 
   3   1  17    0.09    0.13 
   5  -1  17    0.38    0.09 
   5  -1  17    0.38    0.09 
   5  -1  17   -0.01    0.19 
   5   1  17    0.04    0.16 
   5   1  17    0.32    0.08 
   5   1  17    0.26    0.08 
   7  -1  17    4.96    0.21 
   7   1  17    5.13    0.20 
   9  -1  17   -0.02    0.06 
   9   1  17   -0.01    0.05 
  11  -1  17    0.10    0.09 
  11  -1  17   -0.02    0.07 
  11   1  17    0.07    0.07 
  11   1  17    0.03    0.07 
  13  -1  17    0.04    0.09 
  13   1  17    0.03    0.09 
  16  -2 -17    1.12    0.42 
  16   2 -17    1.95    0.49 
  14  -2 -17    0.07    0.21 
  14   2 -17    0.10    0.19 
 -12  -2  17    0.58    0.25 
  12  -2 -17    0.81    0.29 
  12   2 -17    0.17    0.19 
 -12   2  17    0.55    0.26 
  12   2 -17    0.68    0.16 
  10  -2 -17    2.03    0.36 
 -10  -2  17    2.21    0.39 
  10   2 -17    1.92    0.37 
 -10   2  17    2.51    0.41 
  -8  -2  17    8.97    0.61 
   8  -2 -17    7.95    0.56 
  -8   2  17    8.10    0.62 
   8   2 -17    8.48    0.61 
   6  -2 -17    0.31    0.18 
  -6  -2  17    0.56    0.20 
  -6  -2  17    0.45    0.19 
  -6   2  17    0.00    0.15 
  -6   2  17    0.30    0.17 
   6   2 -17    0.22    0.15 
  -4  -2  17    8.15    0.52 
   4  -2 -17    9.04    0.59 
  -4  -2  17    7.39    0.52 
   4  -2 -17    6.84    0.44 
   4   2 -17    8.31    0.50 
  -4   2  17    7.82    0.49 
   4   2 -17    7.61    0.37 
  -4   2  17    8.20    0.53 
   4   2 -17    7.88    0.49 
   2  -2 -17    8.46    0.46 
   2  -2 -17    8.91    0.44 
  -2  -2  17    7.84    0.49 
  -2  -2  17    8.25    0.47 
   2   2 -17    7.85    0.44 
   2   2 -17    7.92    0.43 
   2   2 -17    8.05    0.42 
  -2   2  17    9.32    0.51 
  -2   2  17    7.77    0.46 
   0  -2  17    1.11    0.21 
   0  -2 -17    1.26    0.17 
   0  -2 -17    1.57    0.19 
   0  -2  17    1.61    0.23 
   0   2 -17    1.71    0.20 
   0   2 -17    1.42    0.19 
   0   2  17    1.70    0.25 
   0   2  17    1.59    0.22 
   0   2 -17    1.54    0.25 
   2  -2  17    0.31    0.12 
   2  -2  17    0.37    0.13 
   2   2  17    0.38    0.14 
  -2   2 -17    0.39    0.17 
   4  -2  17    4.97    0.31 
   4  -2  17    5.64    0.31 
   4   2  17    4.95    0.30 
  -4   2 -17    4.34    0.48 
   6  -2  17   12.74    0.45 
   6   2  17   13.01    0.46 
  -6   2 -17   11.91    0.76 
   8  -2  17    9.84    0.40 
   8   2  17    9.88    0.39 
  10  -2  17    1.85    0.21 
  10   2  17    1.57    0.19 
  12   2  17    0.06    0.11 
  15  -3 -17    0.29    0.28 
  15   3 -17   -0.03    0.23 
  13  -3 -17    0.57    0.27 
  13   3 -17    0.44    0.27 
 -13   3  17    0.60    0.28 
  11  -3 -17    8.84    0.67 
 -11   3  17    7.83    0.75 
  11   3 -17    7.99    0.80 
   9  -3 -17    4.45    0.53 
  -9  -3  17    3.47    0.48 
   9   3 -17    4.47    0.55 
  -9   3  17    4.68    0.31 
  -9   3  17    4.70    0.55 
  -7  -3  17   22.49    1.01 
   7  -3 -17   23.06    0.96 
  -7  -3  17   20.11    0.95 
  -7   3  17   22.49    1.00 
   7   3 -17   21.49    0.98 
  -5  -3  17    5.28    0.55 
   5  -3 -17    3.97    0.43 
  -5  -3  17    5.92    0.48 
   5   3 -17    5.90    0.47 
  -5   3  17    4.85    0.52 
  -3  -3  17    0.68    0.20 
  -3  -3  17    0.97    0.23 
   3  -3 -17    0.64    0.18 
  -3   3  17    1.42    0.28 
   3   3 -17    0.63    0.18 
  -1  -3  17    3.54    0.37 
  -1  -3  17    3.77    0.39 
   1   3 -17    3.75    0.40 
  -1   3  17    4.59    0.44 
  -1  -3 -17    2.39    0.23 
   1  -3  17    1.87    0.26 
  -1   3 -17    2.49    0.25 
  -1   3 -17    2.14    0.33 
   1   3  17    2.32    0.31 
   3  -3  17    1.63    0.24 
   3   3  17    1.83    0.25 
  -3   3 -17    1.55    0.32 
   5  -3  17   14.97    0.58 
  -5   3 -17   13.85    0.85 
   5   3  17   14.58    0.59 
   7  -3  17   21.97    0.73 
   7   3  17   22.79    0.74 
  -7   3 -17   22.61    1.14 
   9  -3  17    2.82    0.31 
   9   3  17    2.48    0.29 
  -9   3 -17    1.99    0.45 
  11   3  17    1.14    0.21 
  13   3  17   -0.03    0.12 
  14  -4 -17    0.64    0.32 
  14   4 -17    0.86    0.34 
  12  -4 -17    0.15    0.20 
 -12   4  17    0.09    0.21 
  12   4 -17    0.03    0.18 
  10  -4 -17    7.10    0.71 
  10   4 -17    7.94    0.78 
 -10   4  17    6.59    0.45 
 -10   4  17    6.99    0.71 
   8  -4 -17    8.75    0.62 
  -8   4  17   10.50    0.73 
   8   4 -17    7.75    0.64 
   6  -4 -17    0.11    0.13 
  -6  -4  17    0.25    0.19 
   6   4 -17    0.28    0.17 
  -6   4  17    0.36    0.22 
  -4  -4  17   10.64    0.67 
   4  -4 -17   11.00    0.62 
   4   4 -17   11.45    0.67 
  -4   4  17   11.12    0.70 
  -2  -4  17    1.69    0.29 
   2  -4 -17    2.05    0.30 
   2   4 -17    2.03    0.31 
  -2   4  17    1.66    0.30 
   0  -4 -17    8.62    0.46 
   0  -4  17    9.10    0.54 
   0   4  17    9.05    0.56 
   0   4 -17    8.96    0.61 
   0   4 -17    6.46    0.43 
   2  -4  17   12.70    0.61 
  -2  -4 -17   13.22    0.50 
   2   4  17   12.71    0.65 
  -2   4 -17   12.50    0.76 
  -2   4 -17   12.20    0.52 
  -4  -4 -17    8.34    0.23 
   4  -4  17    8.48    0.50 
   4   4  17    9.25    0.53 
  -4   4 -17    8.98    0.28 
  -4   4 -17    7.25    0.73 
   6  -4  17    5.43    0.40 
  -6   4 -17    5.24    0.67 
   6   4  17    5.09    0.40 
  -8   4 -17   10.66    0.87 
   8   4  17   12.17    0.60 
  10   4  17    0.11    0.14 
 -10   4 -17    0.17    0.25 
  12   4  17    0.67    0.20 
  13  -5 -17   -0.20    0.18 
  13   5 -17   -0.10    0.21 
  11  -5 -17    0.95    0.32 
 -11   5  17    0.51    0.22 
  11   5 -17    0.55    0.28 
 -11   5  17    1.23    0.37 
   9  -5 -17    0.98    0.29 
   9   5 -17    0.56    0.26 
  -9   5  17    1.10    0.34 
   7  -5 -17    4.13    0.52 
  -7   5  17    3.45    0.50 
   7   5 -17    5.07    0.61 
   5  -5 -17    8.06    0.59 
  -5  -5  17   10.07    0.95 
   5   5 -17    8.98    0.65 
  -5   5  17    9.11    0.69 
  -3  -5  17    1.81    0.34 
   3  -5 -17    1.77    0.32 
   3   5 -17    1.47    0.30 
  -3   5  17    1.65    0.36 
  -1  -5  17    0.55    0.20 
   1  -5 -17    0.17    0.16 
   1   5 -17    0.33    0.19 
  -1   5  17    0.30    0.20 
  -1  -5 -17    2.12    0.30 
   1  -5  17    2.09    0.33 
  -1   5 -17    2.18    0.41 
  -1   5 -17    2.37    0.32 
   1   5  17    1.64    0.33 
  -3  -5 -17   -0.09    0.08 
   3  -5  17    0.22    0.16 
   3   5  17   -0.19    0.14 
  -3   5 -17    0.17    0.21 
  -3   5 -17   -0.12    0.09 
  -5  -5 -17    1.70    0.14 
   5  -5  17    1.61    0.30 
  -5   5 -17    1.69    0.40 
  -5   5 -17    1.39    0.16 
   5   5  17    1.24    0.27 
   7   5  17   13.76    0.72 
  -7   5 -17   15.04    0.99 
   9   5  17   -0.02    0.16 
  -9   5 -17    0.14    0.24 
 -11   5 -17    0.67    0.38 
  11   5  17    0.60    0.26 
  12  -6 -17    0.08    0.25 
  12   6 -17    0.85    0.34 
  10  -6 -17    1.78    0.41 
 -10   6  17    2.74    0.51 
  10   6 -17    2.06    0.44 
 -10   6  17    1.37    0.36 
   8  -6 -17    1.04    0.32 
   8   6 -17    0.96    0.33 
  -8   6  17    0.29    0.24 
   6  -6 -17    0.16    0.18 
  -6   6  17    0.30    0.22 
   6   6 -17    0.15    0.21 
   4  -6 -17    4.42    0.54 
   4   6 -17    4.85    0.57 
  -4   6  17    4.06    0.57 
   2  -6 -17    0.77    0.25 
  -2  -6  17    1.26    0.30 
   2   6 -17    0.76    0.26 
  -2   6  17    0.85    0.29 
   0  -6  17    2.57    0.41 
   0  -6 -17    2.71    0.39 
   0   6 -17    2.76    0.40 
   0   6  17    2.60    0.42 
  -2  -6 -17    1.24    0.26 
  -2   6 -17    0.97    0.24 
   2   6  17    1.64    0.37 
  -4   6 -17   -0.05    0.19 
   4   6  17    0.36    0.19 
   6   6  17    2.08    0.38 
  -6   6 -17    2.80    0.53 
   8   6  17    1.56    0.35 
  -8   6 -17    1.34    0.42 
  10   6  17    0.13    0.21 
 -10   6 -17    0.92    0.38 
  11  -7 -17    0.06    0.24 
  11   7 -17    0.38    0.31 
   9  -7 -17    0.25    0.25 
  -9   7  17    0.11    0.25 
   9   7 -17    0.07    0.24 
   7  -7 -17   -0.04    0.17 
  -7   7  17    0.11    0.25 
   7   7 -17    0.14    0.22 
   5  -7 -17    2.23    0.43 
   5   7 -17    1.96    0.42 
  -5   7  17    1.64    0.44 
   3  -7 -17    0.59    0.23 
   3   7 -17    0.57    0.26 
  -3   7  17    0.26    0.26 
   1  -7 -17    0.23    0.19 
   1   7 -17    0.84    0.32 
  -1   7  17    1.39    0.37 
   1   7  17    0.64    0.30 
   3   7  17    0.54    0.28 
  -3   7 -17    0.47    0.30 
   5   7  17   -0.04    0.18 
  -5   7 -17    0.06    0.23 
   7   7  17    0.39    0.27 
  -7   7 -17    0.48    0.29 
   8  -8 -17    0.13    0.25 
  -8   8  17    0.63    0.36 
   8   8 -17    0.37    0.32 
   6  -8 -17    0.61    0.34 
  -6   8  17    0.75    0.35 
   6   8 -17    0.40    0.28 
  -4   8  17    1.31    0.44 
  -2   8  17    0.28    0.23 
   0   8  17    0.38    0.26 
   2   8  17    1.17    0.39 
   4   8  17    0.10    0.23 
  -4   8 -17    0.34    0.32 
  -6   8 -17    0.10    0.28 
   6   8  17    0.83    0.30 
  -3   9  17   -0.11    0.30 
  -1   9  17    0.12    0.25 
  16   0 -18    0.18    0.27 
  14   0 -18    2.68    0.54 
 -14   0  18    1.99    0.43 
 -12   0  18    1.99    0.40 
  12   0 -18    2.26    0.42 
  10   0 -18    6.44    0.65 
 -10   0  18    5.79    0.62 
   8   0 -18   10.67    0.66 
  -8   0  18   11.48    0.67 
  -8   0  18   11.10    0.68 
  -6   0  18    8.75    0.59 
  -6   0  18    8.90    0.56 
   6   0 -18    9.31    0.57 
   4   0 -18    1.53    0.26 
  -4   0  18    1.94    0.29 
   4   0 -18    1.51    0.24 
  -4   0  18    1.39    0.25 
  -2   0  18    7.84    0.46 
  -2   0  18    8.04    0.45 
  -2   0  18    8.66    0.39 
   2   0 -18    8.29    0.43 
   0   0 -18   14.46    0.46 
   0   0 -18   13.87    0.45 
   0   0  18   13.49    0.54 
   0   0  18   14.08    0.59 
   0   0  18   13.66    0.57 
   2   0  18    1.41    0.26 
   2   0  18    1.27    0.18 
   2   0  18    0.99    0.15 
   4   0  18    1.18    0.14 
   4   0  18    1.71    0.32 
   4   0  18    1.35    0.14 
   6   0  18    0.50    0.08 
   6   0  18    0.56    0.07 
   8   0  18   40.47    1.96 
  10   0  18    3.52    0.72 
  12   0  18    1.03    0.14 
  12   0  18    1.04    0.14 
  15  -1 -18    2.70    0.52 
  15   1 -18    2.36    0.50 
 -13  -1  18    0.97    0.32 
  13  -1 -18    1.65    0.39 
  13   1 -18    1.06    0.33 
 -13   1  18    1.11    0.31 
 -11  -1  18    4.94    0.61 
  11  -1 -18    6.89    0.70 
  11   1 -18    4.80    0.58 
 -11   1  18    6.32    0.65 
  -9  -1  18   16.06    0.84 
   9  -1 -18   16.41    0.86 
   9   1 -18   15.52    0.82 
  -9   1  18   15.77    0.87 
   7  -1 -18    3.32    0.40 
  -7  -1  18    3.61    0.46 
  -7  -1  18    3.31    0.41 
  -7   1  18    3.77    0.46 
  -7   1  18    3.28    0.40 
   7   1 -18    3.34    0.41 
  -5  -1  18   33.94    1.14 
   5  -1 -18   33.05    1.10 
  -5  -1  18   36.00    1.21 
   5   1 -18   34.90    1.13 
  -5   1  18   33.97    1.15 
  -5   1  18   35.50    1.16 
  -3  -1  18   15.38    0.70 
  -3  -1  18   16.72    0.70 
   3  -1 -18   15.08    0.62 
   3  -1 -18   15.27    0.64 
   3   1 -18   16.09    0.66 
  -3   1  18   15.62    0.49 
  -3   1  18   15.52    0.69 
   3   1 -18   14.70    0.63 
  -3   1  18   15.42    0.67 
   1  -1 -18    0.13    0.07 
   1  -1 -18    0.09    0.09 
  -1  -1  18    0.03    0.11 
  -1  -1  18    0.05    0.08 
  -1   1  18    0.06    0.11 
  -1   1  18    0.08    0.09 
   1   1 -18    0.05    0.07 
   1   1 -18    0.04    0.08 
  -1   1  18    0.06    0.09 
   1  -1  18    6.98    0.47 
   1  -1  18    6.89    0.38 
   1  -1  18    6.91    0.36 
  -1  -1 -18    7.34    0.22 
  -1  -1 -18    6.68    0.22 
  -1   1 -18    7.47    0.23 
   1   1  18    7.34    0.45 
   1   1  18    6.14    0.36 
  -1   1 -18    7.31    0.24 
   1   1  18    7.38    0.38 
   3  -1  18   12.18    0.68 
   3  -1  18   11.18    0.43 
   3  -1  18   12.35    0.46 
   3   1  18   11.48    0.44 
   3   1  18   10.87    0.62 
   3   1  18   11.98    0.44 
   5  -1  18    6.48    0.27 
   5  -1  18    7.27    0.68 
   5  -1  18    6.47    0.29 
   5   1  18    6.10    0.27 
   5   1  18    6.54    0.28 
   5   1  18    7.07    0.58 
   7  -1  18    4.82    0.21 
   7   1  18    5.08    0.21 
   9  -1  18    0.10    0.07 
   9   1  18    0.07    0.06 
  11  -1  18    0.43    0.10 
  11  -1  18    0.13    0.07 
  11   1  18    0.09    0.06 
  11   1  18    0.30    0.09 
  13  -1  18    0.05    0.10 
  13   1  18    0.05    0.09 
  16  -2 -18    0.81    0.39 
  16   2 -18    0.59    0.33 
  14  -2 -18    0.24    0.24 
  14   2 -18    0.49    0.26 
  12  -2 -18   -0.09    0.17 
 -12  -2  18   -0.27    0.14 
 -12   2  18   -0.05    0.19 
  12   2 -18    0.17    0.20 
 -10  -2  18    0.44    0.24 
  10  -2 -18    0.02    0.18 
  10   2 -18    0.25    0.20 
 -10   2  18    0.06    0.17 
  10   2 -18    0.26    0.10 
   8  -2 -18    2.16    0.36 
  -8  -2  18    2.33    0.38 
  -8   2  18    2.20    0.39 
   8   2 -18    2.33    0.38 
  -6  -2  18    9.04    0.61 
  -6  -2  18    9.19    0.60 
   6  -2 -18    9.16    0.56 
   6   2 -18    9.54    0.60 
  -6   2  18    8.70    0.61 
  -4  -2  18    5.97    0.45 
  -4  -2  18    5.82    0.54 
   4  -2 -18    5.39    0.40 
   4   2 -18    5.97    0.43 
   4   2 -18    5.65    0.32 
  -4   2  18    6.11    0.45 
  -4   2  18    5.99    0.47 
   2  -2 -18    0.02    0.06 
  -2  -2  18   -0.04    0.09 
  -2  -2  18   -0.06    0.11 
   2   2 -18    0.09    0.10 
   2   2 -18   -0.06    0.06 
  -2   2  18    0.25    0.15 
  -2   2  18    0.05    0.10 
   0  -2 -18    0.93    0.15 
   0  -2  18    1.13    0.22 
   0  -2 -18    0.82    0.15 
   0  -2  18    0.50    0.15 
   0   2  18    0.73    0.18 
   0   2 -18    0.86    0.16 
   0   2 -18    0.68    0.19 
   0   2 -18    0.87    0.15 
   0   2  18    0.66    0.16 
   2  -2  18    4.15    0.29 
   2  -2  18    3.64    0.30 
   2   2  18    4.04    0.30 
  -2   2 -18    4.01    0.43 
   4  -2  18    0.11    0.09 
   4  -2  18    0.02    0.08 
   4   2  18    0.22    0.11 
  -4   2 -18    0.07    0.15 
   6  -2  18    1.95    0.21 
   6   2  18    2.36    0.23 
   8  -2  18   11.90    0.45 
   8   2  18   13.11    0.46 
  10  -2  18    0.12    0.10 
  10   2  18    0.01    0.09 
  12   2  18    0.79    0.16 
  15  -3 -18    0.34    0.24 
  15   3 -18    0.03    0.25 
  13  -3 -18    0.69    0.27 
  13   3 -18    0.26    0.24 
 -13   3  18    0.09    0.20 
  11  -3 -18    0.02    0.18 
 -11  -3  18    0.31    0.25 
 -11   3  18    0.06    0.20 
  11   3 -18   -0.07    0.17 
   9  -3 -18    1.05    0.30 
  -9  -3  18    1.33    0.32 
  -9   3  18    0.85    0.16 
   9   3 -18    0.79    0.28 
  -9   3  18    1.27    0.31 
  -7  -3  18    1.30    0.32 
   7  -3 -18    1.73    0.32 
  -7  -3  18    1.99    0.37 
  -7   3  18    1.19    0.31 
   7   3 -18    0.88    0.25 
   5  -3 -18   -0.03    0.14 
  -5  -3  18    0.17    0.16 
  -5  -3  18    0.17    0.15 
  -5   3  18   -0.03    0.16 
   5   3 -18    0.02    0.12 
   3  -3 -18   12.20    0.59 
  -3  -3  18   11.71    0.67 
  -3  -3  18   12.11    0.65 
  -3   3  18   11.40    0.65 
   3   3 -18   12.32    0.58 
   3   3 -18   11.02    0.60 
   1  -3 -18    2.78    0.29 
  -1  -3  18    4.03    0.42 
  -1  -3  18    4.40    0.43 
   1   3 -18    4.46    0.39 
  -1   3  18    3.66    0.39 
  -1  -3 -18    4.35    0.27 
   1  -3  18    3.79    0.37 
  -1   3 -18    3.83    0.28 
  -1   3 -18    5.10    0.52 
   1   3  18    3.83    0.38 
   3  -3  18   12.61    0.56 
  -3   3 -18   14.83    0.81 
   3   3  18   14.04    0.61 
   5  -3  18    0.76    0.18 
   5   3  18    0.73    0.18 
  -5   3 -18    0.81    0.31 
   7  -3  18    2.16    0.27 
   7   3  18    2.37    0.27 
  -7   3 -18    2.59    0.49 
   9  -3  18    0.06    0.10 
   9   3  18   -0.09    0.10 
  11   3  18    0.24    0.13 
  14  -4 -18   -0.07    0.21 
  14   4 -18    0.13    0.25 
  12  -4 -18    0.30    0.24 
 -12   4  18    0.12    0.22 
  12   4 -18    0.76    0.29 
  10  -4 -18    0.02    0.18 
  10   4 -18    0.55    0.25 
 -10   4  18    0.38    0.24 
 -10   4  18    0.30    0.15 
   8  -4 -18    0.06    0.15 
   8   4 -18   -0.14    0.15 
  -8   4  18   -0.17    0.17 
  -6  -4  18    2.43    0.41 
   6  -4 -18    2.30    0.36 
   6   4 -18    2.33    0.39 
  -6   4  18    2.03    0.38 
   4  -4 -18    0.57    0.21 
  -4  -4  18    0.59    0.24 
  -4   4  18    0.89    0.27 
   4   4 -18    0.90    0.24 
   2  -4 -18    1.96    0.29 
  -2  -4  18    2.06    0.33 
  -2   4  18    1.78    0.34 
   2   4 -18    2.31    0.32 
   0  -4 -18    1.21    0.22 
   0  -4  18    1.40    0.26 
   0   4  18    1.23    0.26 
   0   4 -18    0.92    0.21 
   0   4 -18    0.98    0.28 
   2  -4  18    6.06    0.44 
  -2  -4 -18    5.50    0.32 
   2   4  18    5.87    0.46 
  -2   4 -18    5.43    0.34 
  -2   4 -18    5.85    0.62 
   4  -4  18    0.52    0.17 
  -4   4 -18    0.15    0.20 
   4   4  18    0.56    0.21 
   6  -4  18    0.02    0.13 
  -6   4 -18    0.04    0.18 
   6   4  18    0.14    0.15 
   8   4  18    1.93    0.29 
  -8   4 -18    1.83    0.45 
  10   4  18    0.69    0.22 
 -10   4 -18    0.87    0.35 
  12   4  18    0.13    0.16 
  13  -5 -18   -0.02    0.23 
  13   5 -18    0.20    0.23 
  11  -5 -18    0.20    0.20 
  11   5 -18   -0.21    0.16 
 -11   5  18    0.13    0.20 
   9  -5 -18    0.04    0.16 
  -9   5  18    0.07    0.21 
   9   5 -18    0.00    0.16 
   7  -5 -18   -0.07    0.16 
   7   5 -18    0.12    0.17 
  -7   5  18    0.32    0.23 
   5  -5 -18   -0.09    0.13 
   5   5 -18    0.01    0.15 
  -5   5  18    0.16    0.22 
  -3  -5  18    1.24    0.30 
   3  -5 -18    1.94    0.35 
  -3   5  18    1.30    0.33 
   3   5 -18    2.35    0.38 
   1  -5 -18    0.21    0.15 
  -1  -5  18    0.52    0.20 
   1   5 -18   -0.04    0.14 
  -1   5  18    0.47    0.22 
   1  -5  18    0.30    0.18 
  -1  -5 -18    0.26    0.15 
  -1   5 -18    0.09    0.20 
   1   5  18   -0.13    0.15 
  -1   5 -18    0.20    0.15 
  -3  -5 -18    0.09    0.10 
   3  -5  18    0.04    0.14 
  -3   5 -18    0.11    0.12 
   3   5  18    0.05    0.16 
  -3   5 -18    0.12    0.20 
   5   5  18    3.65    0.43 
  -5   5 -18    4.12    0.60 
  -7   5 -18    0.49    0.32 
   7   5  18    0.73    0.25 
  -9   5 -18    0.20    0.27 
   9   5  18    0.11    0.16 
 -11   5 -18    0.50    0.30 
  11   5  18   -0.06    0.16 
  12  -6 -18    0.44    0.27 
  12   6 -18    0.51    0.27 
  10  -6 -18    0.24    0.21 
 -10   6  18   -0.30    0.19 
  10   6 -18    0.65    0.30 
 -10   6  18   -0.06    0.19 
   8  -6 -18    0.10    0.18 
  -8   6  18    0.02    0.22 
   8   6 -18   -0.07    0.17 
   6  -6 -18    2.75    0.46 
   6   6 -18    4.27    0.60 
  -6   6  18    3.34    0.53 
   4  -6 -18    0.66    0.23 
   4   6 -18    0.60    0.25 
  -4   6  18    0.62    0.31 
  -2  -6  18    2.83    0.46 
   2  -6 -18    2.99    0.43 
   2   6 -18    2.67    0.41 
  -2   6  18    3.04    0.47 
   0  -6 -18    0.30    0.17 
   0  -6  18    0.27    0.20 
   0   6  18    0.08    0.19 
   0   6 -18    0.28    0.18 
  -2  -6 -18   -0.12    0.18 
  -2   6 -18   -0.24    0.16 
  -2   6 -18   -0.05    0.17 
   2   6  18   -0.01    0.17 
  -4   6 -18    1.36    0.41 
   4   6  18    1.87    0.36 
  -6   6 -18    0.23    0.23 
   6   6  18   -0.02    0.20 
  -8   6 -18    0.82    0.36 
   8   6  18    0.28    0.22 
   9  -7 -18   -0.01    0.21 
   9   7 -18    0.02    0.26 
  -9   7  18    0.01    0.25 
   7  -7 -18    0.17    0.19 
   7   7 -18    0.05    0.21 
  -7   7  18   -0.04    0.23 
   5  -7 -18    0.77    0.28 
   5   7 -18    0.58    0.27 
  -5   7  18    0.55    0.31 
   3  -7 -18   -0.04    0.14 
   3   7 -18   -0.04    0.19 
  -3   7  18    0.03    0.22 
  -1   7  18    0.03    0.20 
   1   7  18    0.16    0.22 
   3   7  18   -0.03    0.18 
  -3   7 -18   -0.47    0.17 
   5   7  18    2.64    0.46 
  -5   7 -18    2.31    0.52 
  -7   7 -18    1.17    0.44 
   7   7  18    1.18    0.36 
  -8   8  18    0.02    0.26 
  -6   8  18    2.62    0.58 
  -4   8  18    0.60    0.34 
  -2   8  18   -0.06    0.21 
   0   8  18    0.31    0.25 
   2   8  18    0.40    0.27 
  -2   8 -18   -0.02    0.31 
  -4   8 -18    0.23    0.33 
   4   8  18    0.18    0.25 
  16   0 -19    0.05    0.29 
  14   0 -19    0.21    0.22 
 -14   0  19   -0.04    0.22 
  12   0 -19    0.22    0.20 
 -12   0  19    0.09    0.20 
  10   0 -19   -0.17    0.13 
 -10   0  19    0.37    0.22 
   8   0 -19   -0.09    0.13 
  -8   0  19    0.10    0.18 
  -8   0  19   -0.06    0.14 
  -6   0  19   -0.05    0.13 
   6   0 -19    0.06    0.14 
  -6   0  19    0.28    0.17 
  -4   0  19   -0.03    0.09 
  -4   0  19   -0.04    0.12 
   4   0 -19    0.04    0.10 
   2   0 -19    0.16    0.09 
  -2   0  19   -0.06    0.08 
  -2   0  19    0.10    0.10 
   2   0 -19    0.20    0.10 
  -2   0  19    0.08    0.12 
   0   0  19   -0.04    0.09 
   0   0 -19    0.14    0.06 
   0   0  19   -0.04    0.09 
   0   0 -19    0.08    0.07 
   0   0  19    0.04    0.09 
   2   0  19    0.02    0.07 
   2   0  19    0.04    0.13 
   2   0  19    0.00    0.08 
   4   0  19   -0.06    0.06 
   4   0  19    0.10    0.06 
   4   0  19    0.22    0.18 
   6   0  19   -0.03    0.06 
   6   0  19   -0.03    0.05 
   8   0  19    0.02    0.24 
  10   0  19   -0.17    0.20 
  12   0  19   -0.07    0.07 
  12   0  19   -0.02    0.06 
  15  -1 -19    0.14    0.25 
  15   1 -19   -0.21    0.21 
  13  -1 -19    0.16    0.20 
 -13  -1  19    0.56    0.25 
  13   1 -19    0.18    0.19 
 -13   1  19    0.26    0.23 
  11  -1 -19    0.25    0.21 
 -11  -1  19    0.49    0.28 
 -11   1  19    0.38    0.26 
  11   1 -19    0.00    0.17 
   9  -1 -19    0.10    0.16 
  -9  -1  19    0.16    0.19 
  -9   1  19    0.12    0.19 
   9   1 -19    0.16    0.16 
  -7  -1  19    0.41    0.20 
   7  -1 -19    0.55    0.20 
  -7  -1  19    0.35    0.19 
  -7   1  19    0.20    0.15 
  -7   1  19    0.46    0.22 
   7   1 -19    0.53    0.21 
   5  -1 -19    4.33    0.43 
  -5  -1  19    4.64    0.47 
  -5  -1  19    4.64    0.47 
  -5   1  19    4.46    0.47 
  -5   1  19    6.01    0.53 
   5   1 -19    4.70    0.45 
  -3  -1  19   -0.06    0.09 
   3  -1 -19    0.18    0.11 
  -3  -1  19    0.10    0.13 
  -3   1  19    0.12    0.08 
  -3   1  19    0.06    0.10 
   3   1 -19    0.16    0.11 
  -3   1  19    0.29    0.15 
  -1  -1  19   -0.02    0.08 
   1  -1 -19    0.05    0.09 
  -1  -1  19    0.19    0.12 
   1  -1 -19    0.10    0.07 
  -1   1  19   -0.01    0.09 
   1   1 -19   -0.03    0.06 
   1   1 -19   -0.04    0.07 
  -1   1  19    0.21    0.11 
  -1   1  19   -0.18    0.06 
   1  -1  19    2.85    0.30 
  -1  -1 -19    2.30    0.11 
   1  -1  19    2.25    0.33 
   1  -1  19    2.43    0.26 
  -1  -1 -19    2.23    0.12 
   1   1  19    2.54    0.31 
   1   1  19    1.96    0.25 
  -1   1 -19    2.31    0.12 
   1   1  19    1.94    0.23 
  -1   1 -19    2.08    0.12 
   3  -1  19    2.30    0.24 
   3  -1  19    2.47    0.20 
   3  -1  19    3.19    0.43 
   3   1  19    2.23    0.23 
   3   1  19    3.17    0.41 
   3   1  19    2.50    0.23 
   5  -1  19    1.70    0.18 
   5  -1  19    2.08    0.19 
   5   1  19    1.80    0.17 
   5   1  19    2.00    0.19 
   7  -1  19   -0.06    0.05 
   7   1  19   -0.03    0.07 
   9  -1  19    0.31    0.08 
   9   1  19    0.29    0.07 
  11  -1  19    0.07    0.06 
  11  -1  19    0.09    0.07 
  11   1  19    0.09    0.07 
  11   1  19   -0.02    0.05 
  13  -1  19    0.12    0.09 
  13   1  19    0.16    0.09 
  14  -2 -19    0.74    0.30 
  14   2 -19    1.03    0.33 
  12  -2 -19   -0.26    0.13 
 -12  -2  19   -0.03    0.19 
  12   2 -19   -0.20    0.14 
 -12   2  19    0.04    0.22 
 -10  -2  19   -0.01    0.17 
  10  -2 -19    0.07    0.18 
 -10   2  19    0.10    0.17 
  10   2 -19    0.09    0.18 
  10   2 -19   -0.01    0.06 
  -8  -2  19    9.25    0.67 
   8  -2 -19    9.53    0.62 
   8   2 -19    9.97    0.67 
  -8   2  19    9.69    0.68 
   6  -2 -19   23.16    0.96 
  -6  -2  19   25.05    1.08 
  -6  -2  19   23.51    1.00 
   6   2 -19   24.24    0.99 
  -6   2  19   23.63    1.02 
   6   2 -19   22.69    0.63 
   4  -2 -19    0.67    0.19 
  -4  -2  19    0.54    0.19 
  -4  -2  19    0.66    0.20 
  -4   2  19    0.55    0.18 
   4   2 -19    0.72    0.15 
  -4   2  19    0.40    0.18 
   4   2 -19    0.52    0.18 
  -2  -2  19    4.38    0.42 
  -2  -2  19    3.90    0.41 
   2   2 -19    4.29    0.33 
  -2   2  19    3.91    0.41 
  -2   2  19    4.29    0.41 
   0  -2  19    0.99    0.19 
   0  -2 -19    1.04    0.16 
   0  -2  19    0.86    0.20 
   0   2  19    0.98    0.19 
   0   2  19    0.55    0.17 
   0   2 -19    0.51    0.13 
   0   2 -19    0.24    0.15 
   2  -2  19    0.75    0.17 
   2  -2  19    0.81    0.17 
  -2   2 -19    0.69    0.23 
   2   2  19    0.66    0.17 
   4  -2  19    0.33    0.12 
   4  -2  19    0.23    0.12 
  -4   2 -19    0.20    0.19 
   4   2  19    0.37    0.13 
   6  -2  19   17.05    0.56 
   6   2  19   16.59    0.56 
   8  -2  19    2.90    0.25 
   8   2  19    2.78    0.23 
  10  -2  19    0.59    0.13 
  10   2  19    0.42    0.12 
  12   2  19    0.45    0.13 
  15  -3 -19   -0.13    0.21 
  15   3 -19    0.09    0.28 
  13  -3 -19    2.18    0.45 
 -13   3  19    2.28    0.47 
  13   3 -19    2.48    0.50 
 -11  -3  19    0.33    0.24 
  11  -3 -19    0.21    0.21 
  11   3 -19    0.12    0.22 
 -11   3  19   -0.11    0.20 
   9  -3 -19    2.55    0.40 
  -9  -3  19    2.45    0.43 
   9   3 -19    2.16    0.41 
  -9   3  19    2.51    0.45 
  -9   3  19    2.21    0.21 
   7  -3 -19    1.92    0.35 
  -7  -3  19    1.65    0.33 
  -7  -3  19    2.35    0.46 
  -7   3  19    1.18    0.32 
   7   3 -19    1.52    0.33 
  -5  -3  19   41.11    1.38 
  -5  -3  19   42.74    1.45 
   5  -3 -19   42.85    1.32 
  -5   3  19   40.74    1.38 
   5   3 -19   42.62    1.38 
  -3  -3  19    6.57    0.49 
  -3  -3  19    7.65    0.55 
   3  -3 -19    6.84    0.46 
   3   3 -19    7.11    0.48 
   3   3 -19    7.18    0.46 
  -3   3  19    6.59    0.52 
  -1  -3  19    2.46    0.33 
   1  -3 -19    1.72    0.24 
  -1  -3  19    1.75    0.31 
   1   3 -19    1.80    0.29 
  -1   3  19    1.52    0.27 
   1   3 -19    1.66    0.25 
  -1  -3 -19   13.40    0.49 
   1  -3  19   12.63    0.61 
   1  -3  19   14.54    0.65 
  -1   3 -19   13.96    0.52 
   1   3  19   13.54    0.64 
  -1   3 -19   13.62    0.73 
   3  -3  19    4.05    0.33 
   3   3  19    4.24    0.35 
  -3   3 -19    3.51    0.47 
   5  -3  19    0.12    0.11 
  -5   3 -19   -0.09    0.18 
   5   3  19   -0.04    0.10 
   7  -3  19    3.75    0.30 
  -7   3 -19    3.16    0.50 
   7   3  19    3.85    0.31 
   9  -3  19    0.91    0.27 
   9   3  19    0.52    0.16 
  11   3  19    0.03    0.11 
  14  -4 -19    1.33    0.40 
  14   4 -19    2.18    0.51 
  12  -4 -19   -0.10    0.16 
  12   4 -19    0.18    0.23 
 -12   4  19   -0.22    0.21 
  10  -4 -19    0.57    0.23 
 -10   4  19    0.31    0.15 
 -10   4  19    0.66    0.28 
  10   4 -19    0.53    0.26 
   8  -4 -19    4.22    0.52 
   8   4 -19    4.09    0.54 
  -8   4  19    4.12    0.54 
   6  -4 -19   25.31    1.04 
  -6  -4  19   26.68    1.15 
   6   4 -19   23.38    1.06 
  -6   4  19   24.40    1.12 
   4  -4 -19    2.62    0.38 
  -4  -4  19    2.34    0.37 
   4   4 -19    2.83    0.40 
  -4   4  19    2.83    0.44 
  -2  -4  19   46.33    1.45 
   2  -4 -19   48.30    1.36 
   2   4 -19   48.09    1.43 
  -2   4  19   47.49    1.50 
   2   4 -19   47.49    1.44 
   0  -4 -19   14.57    0.62 
   0  -4  19   14.93    0.72 
   0   4  19   14.75    0.75 
   0   4 -19   14.29    0.65 
   0   4 -19   15.08    0.79 
  -2  -4 -19    0.99    0.17 
   2  -4  19    0.71    0.20 
   2   4  19    1.04    0.27 
  -2   4 -19    1.11    0.19 
  -2   4 -19    0.70    0.27 
   4  -4  19    5.60    0.42 
   4   4  19    6.31    0.46 
  -4   4 -19    5.98    0.65 
   6  -4  19    1.63    0.28 
  -6   4 -19    1.77    0.41 
   6   4  19    2.56    0.33 
   8   4  19    0.43    0.19 
  -8   4 -19    0.12    0.23 
  10   4  19    0.20    0.15 
 -10   4 -19    0.16    0.23 
  13  -5 -19    0.67    0.32 
  13   5 -19    0.88    0.38 
  11  -5 -19    0.28    0.22 
  11   5 -19    0.38    0.26 
 -11   5  19    0.38    0.28 
   9  -5 -19    0.91    0.32 
   9   5 -19    0.81    0.32 
  -9   5  19    1.08    0.34 
   7  -5 -19    0.20    0.20 
  -7   5  19    0.11    0.20 
   7   5 -19    0.22    0.21 
   5  -5 -19   11.97    0.71 
  -5   5  19   12.37    0.81 
   5   5 -19   11.64    0.75 
  -3  -5  19    1.24    0.33 
   3  -5 -19    1.05    0.28 
   3   5 -19    0.99    0.26 
  -3   5  19    0.75    0.29 
   1  -5 -19    0.59    0.20 
  -1  -5  19    0.91    0.26 
  -1   5  19    0.54    0.27 
   1   5 -19    0.88    0.24 
  -1  -5 -19    0.08    0.12 
   1  -5  19    0.19    0.17 
  -1   5 -19    0.20    0.15 
  -1   5 -19    0.40    0.22 
   1   5  19    0.05    0.17 
   3  -5  19    5.33    0.53 
  -3  -5 -19    4.79    0.31 
  -3   5 -19    5.37    0.66 
   3   5  19    5.35    0.54 
  -3   5 -19    5.34    0.35 
   5   5  19    3.47    0.43 
  -5   5 -19    3.07    0.53 
  -7   5 -19    3.18    0.57 
   7   5  19    2.60    0.39 
  -9   5 -19    1.32    0.40 
   9   5  19    0.51    0.22 
  12  -6 -19    0.08    0.20 
  12   6 -19    0.08    0.24 
  10  -6 -19   -0.05    0.21 
 -10   6  19    0.17    0.25 
  10   6 -19    0.21    0.25 
   8  -6 -19   -0.03    0.18 
   8   6 -19    0.29    0.27 
  -8   6  19    0.50    0.26 
   6  -6 -19    1.19    0.32 
   6   6 -19    0.49    0.25 
  -6   6  19    0.55    0.28 
   4  -6 -19    0.37    0.18 
  -4   6  19    0.36    0.26 
   4   6 -19    0.23    0.21 
  -2  -6  19    3.67    0.51 
   2  -6 -19    4.84    0.52 
   2   6 -19    6.26    0.62 
  -2   6  19    5.96    0.67 
   0  -6 -19    1.64    0.31 
   0   6  19    2.07    0.40 
   0   6 -19    1.80    0.33 
  -2   6 -19    0.02    0.23 
   2   6  19   -0.03    0.17 
  -4   6 -19    1.03    0.37 
   4   6  19    1.00    0.30 
   6   6  19    0.92    0.29 
  -6   6 -19    0.45    0.31 
   8   6  19   -0.04    0.20 
  -8   6 -19    0.19    0.26 
   9  -7 -19    0.28    0.24 
  -9   7  19   -0.23    0.21 
   9   7 -19    0.09    0.25 
   7  -7 -19    0.16    0.21 
   7   7 -19    0.15    0.23 
  -7   7  19   -0.17    0.24 
   5  -7 -19    1.02    0.31 
  -5   7  19    0.55    0.30 
   5   7 -19    1.27    0.36 
  -3   7  19    0.22    0.25 
   3   7 -19    0.19    0.24 
  -1   7  19    0.04    0.19 
  -1   7 -19   -0.48    0.21 
   1   7  19    0.41    0.26 
   3   7  19    1.28    0.35 
  -3   7 -19    0.83    0.34 
  -5   7 -19    0.32    0.30 
   5   7  19   -0.17    0.19 
   7   7  19    0.68    0.30 
  -7   7 -19    0.25    0.33 
  -6   8  19    0.21    0.31 
  -4   8  19    0.17    0.29 
  -2   8  19    0.15    0.25 
   0   8  19    0.07    0.26 
  -2   8 -19    0.05    0.31 
   2   8  19    0.00    0.20 
   4   8  19   -0.19    0.21 
  -4   8 -19    0.00    0.28 
  16   0 -20    1.07    0.39 
  14   0 -20   -0.01    0.18 
 -14   0  20    0.30    0.22 
  12   0 -20   13.21    0.88 
 -12   0  20   13.88    0.91 
  10   0 -20    2.82    0.43 
 -10   0  20    4.21    0.54 
   8   0 -20    0.37    0.18 
  -8   0  20    0.24    0.21 
  -8   0  20    0.48    0.24 
   6   0 -20    8.67    0.55 
  -6   0  20    8.15    0.61 
  -6   0  20    9.04    0.58 
  -4   0  20    0.06    0.11 
   4   0 -20    0.32    0.14 
  -4   0  20   -0.08    0.13 
   2   0 -20    0.07    0.09 
  -2   0  20    0.00    0.10 
  -2   0  20    0.12    0.11 
  -2   0  20    0.29    0.16 
   0   0  20    0.54    0.14 
   0   0 -20    0.65    0.12 
   0   0  20    0.55    0.17 
   0   0 -20    0.56    0.11 
   0   0  20    0.70    0.18 
   2   0  20    0.47    0.14 
   2   0  20    0.42    0.20 
   2   0  20    0.19    0.09 
   4   0  20    3.68    0.24 
   4   0  20    3.68    0.23 
   4   0  20    4.06    0.51 
   6   0  20   20.76    0.52 
   6   0  20   18.92    0.49 
   8   0  20    2.81    0.65 
  10   0  20    0.37    0.35 
  15  -1 -20    0.23    0.25 
  15   1 -20   -0.16    0.20 
 -13  -1  20    1.16    0.34 
  13  -1 -20    0.84    0.29 
 -13   1  20    1.44    0.38 
  13   1 -20    1.11    0.36 
 -11  -1  20    0.23    0.20 
  11  -1 -20    0.26    0.19 
  11   1 -20    0.33    0.22 
 -11   1  20    0.27    0.23 
   9  -1 -20    2.32    0.37 
  -9  -1  20    3.27    0.47 
  -9   1  20    3.03    0.47 
   9   1 -20    2.31    0.40 
   7  -1 -20    8.19    0.56 
  -7  -1  20    7.61    0.56 
  -7  -1  20    7.23    0.59 
  -7   1  20    7.61    0.61 
   7   1 -20    8.10    0.58 
  -7   1  20    7.87    0.57 
  -5  -1  20   33.99    1.17 
  -5  -1  20   31.42    1.20 
   5  -1 -20   33.10    1.10 
  -5   1  20   33.88    1.23 
  -5   1  20   31.28    1.13 
   5   1 -20   33.53    1.13 
  -3  -1  20    0.37    0.15 
  -3  -1  20    0.23    0.16 
   3  -1 -20    0.28    0.13 
   3   1 -20    0.22    0.12 
  -3   1  20    0.16    0.12 
  -3   1  20    0.56    0.12 
  -3   1  20    0.42    0.17 
   1  -1 -20    0.08    0.07 
  -1  -1  20    0.03    0.10 
  -1  -1  20    0.22    0.12 
  -1   1  20    0.16    0.12 
   1   1 -20    0.12    0.09 
  -1   1  20    0.00    0.08 
  -1   1  20    0.18    0.13 
   1  -1  20    4.83    0.33 
   1  -1  20    4.74    0.47 
   1  -1  20    4.66    0.34 
   1   1  20    3.97    0.30 
   1   1  20    5.32    0.41 
  -1   1 -20    4.72    0.16 
  -1   1 -20    4.94    0.15 
   1   1  20    4.85    0.34 
   3  -1  20    1.61    0.21 
   3  -1  20    2.08    0.36 
   3  -1  20    1.90    0.21 
   3   1  20    1.40    0.19 
   3   1  20    1.85    0.21 
   3   1  20    1.76    0.34 
   5  -1  20    0.02    0.08 
   5  -1  20    0.09    0.08 
   5   1  20    0.13    0.08 
   5   1  20    0.20    0.09 
   7  -1  20   13.67    0.42 
   7  -1  20   13.26    0.40 
   7   1  20   14.08    0.40 
   9  -1  20    4.82    0.20 
   9   1  20    4.53    0.20 
  11  -1  20    0.37    0.09 
  11  -1  20    0.08    0.07 
  11   1  20    0.39    0.09 
  11   1  20    0.45    0.09 
  13  -1  20    0.10    0.09 
  13   1  20    0.13    0.09 
  14  -2 -20    0.44    0.27 
  14   2 -20    0.19    0.22 
 -12  -2  20    1.92    0.41 
  12  -2 -20    3.42    0.54 
  12   2 -20    4.18    0.60 
 -12   2  20    3.59    0.56 
  10  -2 -20    4.49    0.58 
 -10  -2  20    3.09    0.49 
 -10   2  20    3.78    0.53 
  10   2 -20    3.57    0.52 
   8  -2 -20    1.38    0.30 
  -8  -2  20    1.09    0.30 
   8   2 -20    1.26    0.30 
  -8   2  20    0.64    0.24 
   8   2 -20    0.79    0.10 
  -6  -2  20    2.68    0.41 
  -6  -2  20    2.41    0.39 
   6  -2 -20    2.62    0.37 
  -6   2  20    2.15    0.34 
   6   2 -20    2.34    0.19 
  -6   2  20    2.03    0.35 
   6   2 -20    2.82    0.40 
   4  -2 -20    9.22    0.54 
  -4  -2  20    8.56    0.56 
  -4  -2  20    8.36    0.58 
  -4   2  20    9.47    0.62 
   4   2 -20    8.51    0.41 
   4   2 -20    8.42    0.53 
  -4   2  20    9.14    0.57 
  -2  -2  20    9.10    0.56 
  -2  -2  20    8.47    0.52 
  -2   2  20    7.82    0.50 
   2   2 -20    7.91    0.45 
  -2   2  20    8.36    0.51 
   0  -2  20    2.27    0.32 
   0  -2 -20    1.61    0.19 
   0  -2  20    1.16    0.22 
   0   2 -20    1.60    0.20 
   0   2 -20    1.46    0.26 
   0   2  20    1.60    0.27 
   0   2  20    1.14    0.21 
   2  -2  20    8.40    0.44 
   2  -2  20    8.42    0.47 
   2   2  20    9.30    0.47 
   2   2  20    8.43    0.45 
  -2   2 -20    8.40    0.57 
   4  -2  20    3.15    0.29 
   4  -2  20    2.63    0.28 
   4   2  20    2.91    0.28 
  -4   2 -20    3.36    0.48 
   6  -2  20    0.97    0.16 
   6   2  20    1.13    0.18 
   8  -2  20    2.99    0.23 
   8   2  20    2.84    0.23 
  10  -2  20    0.70    0.13 
  10   2  20    0.72    0.14 
  12   2  20    0.29    0.11 
  15  -3 -20    0.21    0.24 
  15   3 -20   -0.08    0.28 
  13  -3 -20    0.03    0.21 
  13   3 -20    0.14    0.22 
 -13   3  20    0.06    0.21 
 -11  -3  20    0.13    0.21 
  11  -3 -20    0.03    0.18 
  11   3 -20    0.16    0.21 
 -11   3  20    0.18    0.23 
  -9  -3  20    0.85    0.29 
   9  -3 -20    1.03    0.29 
  -9   3  20    0.54    0.12 
   9   3 -20    0.63    0.26 
  -9   3  20    0.45    0.24 
  -7  -3  20    3.99    0.51 
   7  -3 -20    5.15    0.55 
  -7   3  20    4.67    0.55 
   7   3 -20    3.93    0.49 
  -5  -3  20   12.76    0.75 
  -5  -3  20   11.06    0.68 
   5  -3 -20   12.21    0.67 
   5   3 -20   11.61    0.67 
   5   3 -20   10.73    0.52 
  -5   3  20   11.11    0.72 
   3  -3 -20    5.86    0.43 
  -3  -3  20    5.04    0.49 
  -3  -3  20    4.51    0.49 
  -3   3  20    5.97    0.59 
   3   3 -20    6.17    0.43 
   3   3 -20    5.72    0.44 
  -1  -3  20    1.19    0.25 
  -1  -3  20    1.74    0.28 
   1  -3 -20    1.57    0.23 
  -1   3  20    1.49    0.28 
   1   3 -20    1.52    0.28 
   1   3 -20    1.22    0.23 
  -1  -3 -20    4.10    0.26 
   1  -3  20    3.80    0.38 
   1  -3  20    3.55    0.38 
  -1   3 -20    4.51    0.51 
   1   3  20    4.41    0.44 
  -1   3 -20    3.50    0.26 
   3  -3  20    3.60    0.36 
   3   3  20    3.06    0.35 
  -3   3 -20    4.27    0.54 
   5  -3  20    0.06    0.11 
  -5   3 -20   -0.13    0.15 
   5   3  20    0.15    0.13 
   7  -3  20    0.51    0.16 
   7   3  20    1.17    0.21 
  -7   3 -20    0.82    0.32 
   9   3  20    0.03    0.12 
  11   3  20    0.06    0.12 
  14  -4 -20    0.17    0.24 
  14   4 -20    0.23    0.25 
  12  -4 -20    0.04    0.20 
 -12   4  20   -0.04    0.23 
  12   4 -20    0.10    0.21 
  10  -4 -20   -0.01    0.21 
  10   4 -20    0.31    0.22 
 -10   4  20   -0.27    0.10 
 -10   4  20   -0.25    0.17 
   8  -4 -20   -0.26    0.13 
   8   4 -20    0.41    0.20 
  -8   4  20   -0.20    0.18 
  -6  -4  20    3.59    0.55 
   6  -4 -20    3.54    0.46 
  -6   4  20    4.29    0.55 
   6   4 -20    4.08    0.51 
  -4  -4  20    0.23    0.19 
   4  -4 -20    0.09    0.18 
  -4   4  20    0.14    0.21 
   4   4 -20    0.18    0.19 
  -2  -4  20    5.59    0.54 
   2  -4 -20    5.68    0.44 
  -2   4  20    6.42    0.61 
   2   4 -20    5.65    0.56 
   2   4 -20    5.97    0.46 
   0  -4  20    2.50    0.36 
   0  -4 -20    2.61    0.30 
   0   4 -20    2.36    0.31 
   0   4 -20    2.98    0.43 
   0   4  20    2.95    0.40 
   2  -4  20    0.79    0.22 
  -2  -4 -20    2.04    0.22 
   2   4  20    1.68    0.31 
  -2   4 -20    1.51    0.36 
  -2   4 -20    1.64    0.21 
   4  -4  20    4.89    0.46 
   4   4  20    4.80    0.46 
  -4   4 -20    5.56    0.66 
  -6   4 -20    0.09    0.22 
   6   4  20    0.12    0.13 
   8   4  20    0.79    0.22 
  -8   4 -20    0.98    0.38 
  10   4  20   -0.18    0.12 
 -10   4 -20   -0.22    0.20 
  13  -5 -20    0.10    0.24 
  13   5 -20    0.22    0.26 
  11  -5 -20    0.07    0.22 
  11   5 -20    0.36    0.25 
 -11   5  20    0.17    0.26 
   9  -5 -20    0.38    0.20 
   9   5 -20    0.14    0.22 
  -9   5  20    0.07    0.20 
   7  -5 -20    0.69    0.23 
   7   5 -20    0.68    0.25 
  -7   5  20    0.44    0.26 
   5  -5 -20    1.68    0.33 
  -5   5  20    2.34    0.44 
   5   5 -20    2.25    0.39 
  -3  -5  20    1.08    0.28 
   3  -5 -20    0.96    0.25 
  -3   5  20    0.94    0.31 
   3   5 -20    1.01    0.26 
  -1  -5  20    0.10    0.15 
   1  -5 -20    0.23    0.14 
   1   5 -20    0.55    0.19 
   1   5 -20    0.54    0.24 
  -1   5  20    0.13    0.20 
  -1  -5 -20    0.07    0.13 
   1  -5  20    0.14    0.16 
   1   5  20    0.19    0.17 
  -1   5 -20    0.14    0.21 
  -1   5 -20    0.01    0.13 
  -3  -5 -20    0.05    0.10 
   3   5  20    0.13    0.17 
  -3   5 -20    0.04    0.17 
  -3   5 -20    0.16    0.11 
  -5   5 -20    0.17    0.22 
   5   5  20   -0.06    0.16 
  -7   5 -20    0.32    0.25 
   7   5  20    0.38    0.22 
   9   5  20    0.17    0.18 
  -9   5 -20   -0.19    0.18 
  10  -6 -20    0.22    0.22 
  10   6 -20    0.08    0.21 
 -10   6  20   -0.06    0.23 
   8  -6 -20   -0.05    0.15 
  -8   6  20   -0.28    0.19 
   8   6 -20    0.31    0.24 
   6  -6 -20    0.41    0.23 
  -6   6  20   -0.19    0.21 
   6   6 -20    0.27    0.21 
   4  -6 -20    0.58    0.25 
  -4   6  20    0.19    0.25 
   4   6 -20    0.03    0.18 
   2  -6 -20    1.30    0.30 
  -2   6  20    0.75    0.31 
   2   6 -20    0.99    0.31 
   0   6 -20    0.05    0.23 
   0   6  20    0.35    0.23 
  -2   6 -20    0.44    0.25 
   2   6  20   -0.06    0.16 
   4   6  20    0.57    0.26 
  -4   6 -20    0.23    0.28 
   6   6  20    0.40    0.24 
  -6   6 -20    0.70    0.34 
   8   6  20   -0.14    0.18 
  -8   6 -20    0.52    0.33 
   9  -7 -20   -0.16    0.20 
   9   7 -20    0.25    0.27 
  -9   7  20    0.88    0.36 
   7  -7 -20    0.44    0.24 
  -7   7  20   -0.07    0.23 
   7   7 -20    0.33    0.24 
  -5   7  20    1.60    0.42 
   5   7 -20    1.37    0.46 
  -3   7  20    0.26    0.26 
  -1   7  20   -0.13    0.18 
  -1   7 -20    0.12    0.24 
   1   7  20   -0.17    0.20 
  -3   7 -20    1.10    0.38 
   3   7  20    1.37    0.36 
  -5   7 -20    0.01    0.24 
   5   7  20   -0.24    0.19 
   7   7  20    1.98    0.40 
  -7   7 -20    2.71    0.61 
  -6   8  20    0.28    0.29 
  -4   8  20    1.26    0.41 
  -2   8  20    0.79    0.33 
   0   8  20    0.05    0.23 
  -2   8 -20    0.23    0.32 
   2   8  20   -0.25    0.21 
  -4   8 -20   -0.05    0.27 
 -14   0  21    0.38    0.27 
  14   0 -21    0.13    0.24 
  12   0 -21    0.25    0.23 
 -12   0  21    0.15    0.20 
  10   0 -21   -0.32    0.11 
 -10   0  21    0.01    0.18 
  -8   0  21   -0.16    0.14 
   8   0 -21   -0.10    0.11 
   6   0 -21   -0.03    0.13 
  -6   0  21    0.22    0.17 
  -6   0  21    0.26    0.18 
  -4   0  21    0.00    0.12 
  -4   0  21   -0.12    0.14 
   4   0 -21    0.22    0.14 
  -2   0  21    0.03    0.09 
   2   0 -21    0.06    0.09 
  -2   0  21    0.08    0.13 
  -2   0  21   -0.03    0.10 
   0   0 -21   -0.03    0.07 
   0   0  21   -0.11    0.11 
   0   0  21   -0.04    0.08 
   0   0 -21   -0.02    0.05 
   0   0  21    0.06    0.11 
   2   0  21    0.13    0.09 
   2   0  21    0.04    0.10 
   2   0  21    0.02    0.14 
   4   0  21   -0.03    0.06 
   4   0  21   -0.03    0.18 
   4   0  21   -0.06    0.08 
   6   0  21   -0.11    0.06 
   6   0  21    0.06    0.07 
   8   0  21   -0.03    0.26 
  10   0  21    0.19    0.30 
  15  -1 -21    0.39    0.33 
  15   1 -21    0.42    0.31 
  13  -1 -21   -0.08    0.16 
 -13  -1  21    0.12    0.20 
  13   1 -21   -0.08    0.19 
 -13   1  21    0.01    0.20 
 -11  -1  21   -0.17    0.17 
  11  -1 -21    0.14    0.17 
 -11   1  21   -0.31    0.15 
  11   1 -21   -0.08    0.16 
  -9  -1  21    0.27    0.20 
   9  -1 -21    0.02    0.13 
   9   1 -21   -0.08    0.14 
  -9   1  21    0.08    0.17 
  -7  -1  21    1.23    0.29 
   7  -1 -21    1.55    0.30 
  -7  -1  21    1.58    0.33 
   7   1 -21    1.16    0.28 
  -7   1  21    1.34    0.31 
  -7   1  21    1.17    0.30 
  -5  -1  21    1.42    0.29 
   5  -1 -21    1.00    0.24 
  -5  -1  21    0.95    0.26 
  -5   1  21    0.93    0.26 
   5   1 -21    0.95    0.23 
  -5   1  21    1.00    0.25 
  -3  -1  21    1.42    0.27 
   3  -1 -21    1.84    0.26 
  -3  -1  21    1.63    0.28 
   3   1 -21    1.66    0.25 
  -3   1  21    1.72    0.20 
  -3   1  21    2.08    0.30 
  -3   1  21    1.59    0.27 
  -1  -1  21    1.19    0.23 
   1  -1 -21    1.46    0.19 
  -1  -1  21    1.35    0.25 
  -1   1  21    1.29    0.23 
  -1   1  21    1.13    0.22 
  -1   1  21    1.21    0.24 
   1   1 -21    1.42    0.20 
   1  -1  21    0.08    0.11 
   1  -1  21   -0.10    0.08 
   1  -1  21    0.16    0.17 
   1   1  21    0.11    0.14 
   1   1  21    0.11    0.10 
   1   1  21    0.13    0.11 
   3  -1  21    1.05    0.28 
   3  -1  21    0.78    0.17 
   3  -1  21    0.96    0.17 
   3   1  21    0.73    0.16 
   3   1  21    1.00    0.17 
   3   1  21    0.76    0.24 
   5  -1  21    0.44    0.11 
   5  -1  21    0.25    0.10 
   5   1  21    0.03    0.09 
   5   1  21    0.15    0.09 
   7  -1  21    0.92    0.13 
   7  -1  21    1.06    0.14 
   7   1  21    0.99    0.13 
   9  -1  21    2.72    0.16 
   9   1  21    2.18    0.15 
  11  -1  21    0.26    0.07 
  11  -1  21    0.11    0.07 
  14  -2 -21   -0.10    0.23 
  14   2 -21    0.17    0.25 
 -12  -2  21    2.91    0.49 
  12  -2 -21    4.08    0.58 
 -12   2  21    5.31    0.67 
  12   2 -21    3.83    0.57 
  10  -2 -21    1.29    0.35 
 -10  -2  21    1.50    0.36 
  10   2 -21    1.16    0.32 
 -10   2  21    1.49    0.36 
  -8  -2  21    1.04    0.30 
   8  -2 -21    1.67    0.34 
   8   2 -21    1.01    0.30 
  -8   2  21    1.12    0.32 
  -6  -2  21    5.45    0.60 
  -6  -2  21    5.72    0.57 
   6  -2 -21    5.07    0.51 
  -6   2  21    6.04    0.62 
   6   2 -21    4.98    0.26 
  -6   2  21    6.19    0.58 
   6   2 -21    5.92    0.60 
  -4  -2  21    3.11    0.40 
  -4  -2  21    2.62    0.38 
   4  -2 -21    2.83    0.35 
   4   2 -21    2.73    0.35 
  -4   2  21    2.58    0.38 
   4   2 -21    3.32    0.27 
  -4   2  21    3.82    0.44 
  -2  -2  21    4.37    0.44 
  -2  -2  21    4.38    0.47 
   2  -2 -21    4.15    0.38 
   2   2 -21    4.59    0.35 
  -2   2  21    4.87    0.49 
   2   2 -21    4.03    0.33 
  -2   2  21    4.35    0.43 
   0  -2 -21    0.15    0.08 
   0  -2  21    0.12    0.13 
   0  -2  21   -0.05    0.11 
   0   2 -21    0.10    0.13 
   0   2 -21    0.05    0.09 
   0   2  21    0.06    0.12 
   0   2  21   -0.01    0.13 
   2  -2  21    4.44    0.36 
   2  -2  21    4.70    0.35 
   2   2  21    4.95    0.36 
  -2   2 -21    5.45    0.48 
   2   2  21    5.09    0.37 
   4  -2  21    0.49    0.14 
   4  -2  21    0.38    0.14 
   4   2  21    0.50    0.16 
   6  -2  21    0.55    0.13 
   6   2  21    0.53    0.14 
   8  -2  21   11.92    0.46 
   8   2  21   12.62    0.46 
  10  -2  21   -0.04    0.10 
  10   2  21   -0.11    0.09 
  12   2  21    1.06    0.17 
  13  -3 -21    0.17    0.25 
 -13   3  21    0.34    0.27 
  13   3 -21    0.28    0.28 
  11  -3 -21    0.73    0.28 
 -11  -3  21    1.51    0.37 
  11   3 -21    0.78    0.31 
 -11   3  21    0.86    0.33 
  -9  -3  21    9.54    0.74 
   9  -3 -21    9.87    0.68 
  -9   3  21    9.26    0.30 
  -9   3  21   10.10    0.74 
   9   3 -21    7.00    0.70 
   7  -3 -21   10.57    0.66 
  -7  -3  21    9.44    0.68 
  -7   3  21    9.39    0.71 
   7   3 -21   10.61    0.70 
  -5  -3  21    0.08    0.16 
  -5  -3  21   -0.06    0.17 
   5  -3 -21    0.25    0.16 
   5   3 -21    0.17    0.18 
   5   3 -21    0.20    0.14 
  -5   3  21    0.16    0.20 
   3  -3 -21   16.55    0.72 
  -3  -3  21   16.55    0.84 
  -3  -3  21   16.05    0.79 
  -3   3  21   16.27    0.82 
   3   3 -21   16.82    0.76 
   3   3 -21   16.20    0.70 
   1  -3 -21    0.37    0.15 
  -1  -3  21    0.04    0.14 
  -1  -3  21    0.14    0.14 
   1   3 -21    0.04    0.11 
  -1   3  21    0.29    0.18 
   1   3 -21    0.36    0.18 
   1  -3  21   10.58    0.56 
  -1  -3 -21   10.91    0.42 
   1  -3  21   10.50    0.60 
   1   3  21   11.11    0.60 
  -1   3 -21   11.41    0.45 
  -1   3 -21   11.35    0.68 
   3  -3  21    7.22    0.44 
   3   3  21    5.78    0.43 
  -3   3 -21    5.54    0.59 
   5  -3  21   -0.07    0.09 
  -5   3 -21    0.18    0.19 
   5   3  21   -0.24    0.09 
   7  -3  21    2.38    0.28 
  -7   3 -21    3.25    0.56 
   7   3  21    2.35    0.29 
   9   3  21    2.32    0.28 
  11   3  21    0.08    0.12 
  14  -4 -21   -0.03    0.20 
  14   4 -21    0.13    0.22 
  12  -4 -21    0.27    0.25 
  12   4 -21    1.15    0.35 
 -12   4  21    1.02    0.36 
  10  -4 -21    1.10    0.34 
  10   4 -21    2.11    0.44 
 -10   4  21    0.85    0.31 
   8  -4 -21    1.18    0.31 
   8   4 -21    0.75    0.27 
  -8   4  21    1.06    0.33 
   6  -4 -21   10.57    0.68 
   6   4 -21   12.25    0.76 
  -6   4  21   11.98    0.78 
  -4  -4  21   19.91    0.96 
   4  -4 -21   19.71    0.88 
   4   4 -21   20.77    0.94 
  -4   4  21   20.81    1.01 
   2  -4 -21    0.32    0.17 
  -2  -4  21    0.71    0.22 
   2   4 -21    0.22    0.18 
  -2   4  21    0.49    0.23 
   2   4 -21    0.48    0.17 
   0  -4 -21    8.98    0.48 
   0  -4  21    8.62    0.56 
   0   4 -21    9.97    0.67 
   0   4 -21    9.09    0.51 
   0   4  21    9.48    0.62 
  -2  -4 -21    0.38    0.12 
   2  -4  21    0.38    0.16 
  -2   4 -21    0.49    0.13 
  -2   4 -21    0.11    0.18 
   2   4  21    0.70    0.23 
   4  -4  21    1.74    0.28 
   4   4  21    1.53    0.29 
  -4   4 -21    2.42    0.46 
   6   4  21    0.15    0.15 
  -6   4 -21    0.20    0.22 
  -8   4 -21    5.99    0.78 
   8   4  21    5.30    0.48 
  10   4  21   -0.04    0.13 
  13  -5 -21    0.10    0.26 
  13   5 -21    0.44    0.31 
  11  -5 -21    0.12    0.26 
  11   5 -21    0.49    0.29 
 -11   5  21   -0.23    0.22 
   9  -5 -21    7.30    0.76 
  -9   5  21    7.12    0.78 
   9   5 -21    6.64    0.74 
   7  -5 -21    2.78    0.43 
  -7   5  21    2.93    0.52 
   7   5 -21    2.45    0.43 
   5  -5 -21    0.93    0.27 
  -5   5  21    1.26    0.34 
   5   5 -21    0.95    0.29 
  -3  -5  21    1.37    0.31 
   3  -5 -21    0.75    0.23 
  -3   5  21    1.06    0.32 
   3   5 -21    1.51    0.32 
   1  -5 -21    0.05    0.10 
  -1  -5  21   -0.24    0.13 
   1   5 -21    0.11    0.12 
  -1   5  21    0.06    0.17 
   1   5 -21    0.05    0.20 
  -1  -5 -21    0.26    0.14 
   1  -5  21   -0.01    0.23 
  -1   5 -21    0.28    0.15 
  -1   5 -21    0.06    0.20 
   1   5  21   -0.11    0.14 
  -3  -5 -21    2.61    0.28 
  -3   5 -21    2.92    0.51 
  -3   5 -21    2.29    0.30 
   3   5  21    2.55    0.39 
   5   5  21    3.55    0.46 
  -5   5 -21    3.98    0.62 
  -7   5 -21    3.69    0.66 
   7   5  21    3.05    0.43 
  -9   5 -21    1.55    0.46 
   9   5  21    0.74    0.25 
  10  -6 -21    0.20    0.22 
  10   6 -21    0.38    0.26 
 -10   6  21   -0.57    0.20 
   8  -6 -21    0.71    0.28 
   8   6 -21    0.08    0.21 
  -8   6  21    0.67    0.33 
   6  -6 -21    0.05    0.18 
   6   6 -21   -0.05    0.18 
  -6   6  21    0.22    0.23 
   4  -6 -21    2.22    0.40 
   4   6 -21    2.49    0.43 
  -4   6  21    3.30    0.56 
   2  -6 -21    0.83    0.32 
  -2   6  21    1.44    0.38 
   2   6 -21    2.55    0.49 
   0   6  21    0.64    0.27 
   0   6 -21    0.60    0.30 
   2   6  21    0.62    0.29 
  -2   6 -21   -0.38    0.14 
   4   6  21    0.09    0.20 
  -4   6 -21    0.23    0.23 
   6   6  21    1.03    0.31 
  -6   6 -21    1.25    0.43 
   8   6  21    2.21    0.41 
  -8   6 -21    2.42    0.60 
  -9   7  21    0.37    0.32 
  -7   7  21   -0.25    0.20 
  -5   7  21    0.07    0.24 
  -3   7  21    0.87    0.34 
  -1   7  21    0.03    0.24 
   1   7  21   -0.17    0.19 
  -1   7 -21   -0.05    0.22 
  -3   7 -21    0.76    0.33 
   3   7  21    0.59    0.28 
   5   7  21    0.09    0.23 
  -5   7 -21    0.78    0.33 
  -6   8  21    0.15    0.28 
  -4   8  21    0.04    0.26 
  -2   8  21   -0.10    0.24 
   0   8 -21   -0.70    0.23 
   0   8  21    0.27    0.25 
   2   8  21    0.04    0.24 
  -2   8 -21    0.09    0.26 
 -14   0  22    1.12    0.44 
  14   0 -22    0.88    0.34 
 -12   0  22    1.83    0.41 
  12   0 -22    1.87    0.42 
 -10   0  22    0.94    0.32 
  10   0 -22    0.44    0.24 
  -8   0  22    1.93    0.38 
   8   0 -22    2.59    0.41 
  -6   0  22    8.41    0.59 
   6   0 -22    9.21    0.60 
  -6   0  22    8.51    0.64 
  -4   0  22    3.59    0.43 
   4   0 -22    3.39    0.38 
  -4   0  22    3.67    0.43 
   2   0 -22    0.14    0.10 
  -2   0  22   -0.08    0.12 
  -2   0  22   -0.06    0.09 
  -2   0  22   -0.06    0.11 
   0   0  22    1.65    0.28 
   0   0 -22    1.45    0.16 
   0   0  22    1.30    0.23 
   0   0  22    2.04    0.27 
   2   0  22    0.26    0.12 
   2   0  22    0.45    0.13 
   2   0  22    0.75    0.22 
   4   0  22    8.46    0.39 
   4   0  22    8.92    0.40 
   6   0  22    4.12    0.24 
   6   0  22    4.09    0.23 
   8   0  22    5.85    0.21 
  10   0  22    0.95    0.45 
  15  -1 -22    1.26    0.43 
  15   1 -22    0.79    0.37 
  13  -1 -22    1.65    0.42 
 -13  -1  22    1.33    0.37 
 -13   1  22    1.19    0.34 
  13   1 -22    1.82    0.44 
  11  -1 -22    0.15    0.22 
 -11  -1  22    0.15    0.21 
  11   1 -22   -0.15    0.15 
 -11   1  22   -0.27    0.17 
   9  -1 -22    0.29    0.17 
  -9  -1  22    0.41    0.24 
   9   1 -22    0.20    0.18 
  -9   1  22    0.69    0.26 
  -7  -1  22    0.24    0.20 
  -7  -1  22    0.33    0.21 
   7  -1 -22    0.17    0.13 
  -7   1  22    0.08    0.18 
   7   1 -22   -0.08    0.11 
  -7   1  22    0.16    0.17 
  -5  -1  22    6.08    0.49 
  -5  -1  22    3.54    0.47 
   5  -1 -22    4.78    0.47 
   5   1 -22    5.38    0.52 
  -5   1  22    6.61    0.64 
  -5   1  22    6.03    0.57 
   3  -1 -22    0.21    0.12 
  -3  -1  22    0.12    0.14 
  -3  -1  22    0.40    0.20 
  -3   1  22    0.34    0.16 
   3   1 -22    0.28    0.13 
  -3   1  22    0.08    0.15 
  -3   1  22    0.34    0.12 
   1  -1 -22   -0.03    0.06 
  -1  -1  22   -0.12    0.08 
  -1  -1  22    0.08    0.14 
  -1   1  22    0.00    0.11 
   1   1 -22   -0.01    0.07 
  -1   1  22   -0.10    0.11 
  -1   1  22    0.12    0.11 
   1  -1  22    0.05    0.12 
   1  -1  22   -0.07    0.16 
   1  -1  22    0.15    0.11 
   1   1  22    0.00    0.10 
   1   1  22    0.13    0.15 
   1   1  22    0.24    0.12 
   3  -1  22    5.81    0.35 
   3  -1  22    6.94    0.68 
   3  -1  22    5.85    0.37 
   3   1  22    4.88    0.53 
   3   1  22    5.70    0.35 
   3   1  22    6.01    0.36 
   5  -1  22    1.89    0.21 
   5  -1  22    1.95    0.22 
   5   1  22    1.65    0.20 
   5   1  22    1.93    0.21 
   7  -1  22   -0.10    0.06 
   7  -1  22    0.03    0.07 
   7   1  22    0.01    0.08 
   9  -1  22   10.46    0.32 
   9   1  22    9.64    0.31 
  11  -1  22    0.85    0.51 
  14  -2 -22    0.59    0.28 
  14   2 -22    0.57    0.29 
  12  -2 -22    1.22    0.35 
 -12  -2  22    1.51    0.40 
  12   2 -22    0.87    0.33 
 -12   2  22    1.56    0.40 
  10  -2 -22    1.16    0.33 
 -10  -2  22    1.10    0.34 
  10   2 -22    0.48    0.27 
 -10   2  22    0.78    0.29 
   8  -2 -22    3.87    0.49 
  -8  -2  22    3.77    0.51 
   8   2 -22    3.58    0.47 
  -8   2  22    4.42    0.55 
  -6  -2  22    8.04    0.64 
  -6  -2  22    8.30    0.62 
   6  -2 -22    8.34    0.59 
  -6   2  22    8.21    0.60 
   6   2 -22    8.72    0.60 
  -6   2  22    8.50    0.63 
   6   2 -22    8.30    0.33 
  -4  -2  22    1.52    0.32 
   4  -2 -22    2.65    0.37 
  -4  -2  22    1.89    0.33 
  -4   2  22    1.80    0.21 
   4   2 -22    1.82    0.23 
  -4   2  22    1.76    0.31 
   4   2 -22    1.52    0.28 
  -4   2  22    1.64    0.32 
   2  -2 -22    8.25    0.46 
  -2  -2  22    7.58    0.51 
  -2  -2  22    7.88    0.54 
  -2   2  22    8.35    0.54 
   2   2 -22    7.09    0.44 
   2   2 -22    7.48    0.46 
  -2   2  22    8.64    0.54 
   0  -2 -22    6.92    0.34 
   0  -2  22    6.98    0.46 
   0  -2  22    6.14    0.46 
   0   2 -22    6.96    0.49 
   0   2 -22    5.93    0.33 
   0   2  22    6.97    0.45 
   0   2  22    6.87    0.47 
   2  -2  22    2.35    0.29 
   2  -2  22    2.88    0.34 
   2   2  22    3.02    0.41 
   2   2  22    2.49    0.30 
  -2   2 -22    2.14    0.35 
   2   2  22    2.17    0.30 
   4  -2  22    6.21    0.37 
   4  -2  22    6.39    0.40 
   4   2  22    6.33    0.38 
   6  -2  22    0.07    0.09 
   6   2  22   -0.13    0.08 
   8  -2  22    0.03    0.09 
   8   2  22   -0.02    0.09 
  10   2  22    0.02    0.10 
 -13  -3  22    1.14    0.38 
  13  -3 -22    0.93    0.32 
 -13   3  22    0.66    0.33 
  13   3 -22    0.44    0.28 
 -11  -3  22    2.47    0.48 
  11  -3 -22    2.89    0.49 
 -11   3  22    2.11    0.45 
  11   3 -22    2.16    0.44 
  -9  -3  22    1.94    0.42 
   9  -3 -22    1.45    0.33 
  -9   3  22    3.66    0.56 
   9   3 -22    3.44    0.51 
   7  -3 -22    4.64    0.52 
  -7  -3  22    3.72    0.51 
   7   3 -22    5.19    0.33 
   7   3 -22    5.62    0.61 
  -7   3  22    5.22    0.60 
   5  -3 -22    1.75    0.34 
  -5  -3  22    2.04    0.36 
  -5  -3  22    2.13    0.40 
   5   3 -22    1.65    0.31 
   5   3 -22    1.25    0.23 
  -5   3  22    1.95    0.39 
  -3  -3  22    6.51    0.52 
  -3  -3  22    6.08    0.57 
   3  -3 -22    5.38    0.43 
   3   3 -22    7.08    0.47 
   3   3 -22    6.05    0.46 
  -3   3  22    5.67    0.56 
   1  -3 -22    6.36    0.40 
  -1  -3  22    6.59    0.52 
  -1  -3  22    5.98    0.48 
  -1   3  22    6.24    0.50 
   1   3 -22    6.77    0.50 
   1   3 -22    5.89    0.41 
   1  -3  22    0.67    0.20 
   1  -3  22    0.73    0.21 
  -1  -3 -22    0.99    0.14 
  -1   3 -22    0.56    0.22 
  -1   3 -22    0.90    0.16 
   1   3  22    0.52    0.21 
   3  -3  22    1.25    0.24 
  -3   3 -22    0.76    0.28 
   3   3  22    1.45    0.26 
   5  -3  22    0.41    0.15 
  -5   3 -22    0.46    0.25 
   5   3  22    0.31    0.15 
   7  -3  22    0.08    0.13 
   7   3  22   -0.01    0.11 
   9   3  22    0.97    0.21 
  11   3  22    0.42    0.16 
  12  -4 -22   -0.32    0.18 
  12   4 -22    0.05    0.21 
 -12   4  22    0.02    0.26 
  10  -4 -22    3.36    0.53 
 -10   4  22    3.47    0.56 
  10   4 -22    2.98    0.51 
   8  -4 -22   -0.07    0.16 
   8   4 -22    0.07    0.16 
  -8   4  22   -0.18    0.19 
   6  -4 -22    0.80    0.24 
  -6   4  22    1.35    0.34 
   6   4 -22    0.90    0.27 
  -4  -4  22    4.32    0.53 
   4  -4 -22    3.67    0.46 
   4   4 -22    3.98    0.47 
   4   4 -22    4.19    0.46 
  -4   4  22    3.23    0.48 
  -2  -4  22    3.77    0.47 
   2  -4 -22    2.00    0.31 
  -2   4  22    3.03    0.44 
   2   4 -22    2.76    0.40 
   2   4 -22    2.58    0.36 
   0  -4  22   13.85    0.74 
   0  -4 -22   13.59    0.60 
   0   4 -22   14.35    0.79 
   0   4  22   14.51    0.76 
   0   4 -22   14.97    0.66 
   2  -4  22    0.49    0.20 
  -2  -4 -22    0.47    0.11 
  -2   4 -22    0.45    0.13 
  -2   4 -22    0.21    0.18 
   2   4  22    0.54    0.20 
  -4   4 -22    3.05    0.51 
   4   4  22    3.56    0.42 
   6   4  22    0.36    0.19 
  -6   4 -22    0.45    0.26 
   8   4  22    1.57    0.28 
  -8   4 -22    1.14    0.37 
  10   4  22    0.20    0.18 
  11  -5 -22   -0.12    0.20 
  11   5 -22    0.35    0.24 
 -11   5  22    0.02    0.25 
   9  -5 -22    0.06    0.20 
  -9   5  22    0.45    0.29 
   9   5 -22    0.77    0.26 
   7  -5 -22    1.99    0.39 
   7   5 -22    1.76    0.36 
  -7   5  22    2.56    0.48 
   5  -5 -22    2.87    0.43 
  -5   5  22    3.69    0.54 
   5   5 -22    2.68    0.44 
  -3  -5  22    0.58    0.25 
   3  -5 -22   -0.08    0.16 
  -3   5  22   -0.41    0.15 
   3   5 -22   -0.26    0.16 
   3   5 -22    0.04    0.17 
   1  -5 -22    2.82    0.38 
  -1   5  22    3.05    0.46 
   1   5 -22    2.32    0.42 
  -1   5 -22    0.76    0.29 
   1   5  22    0.74    0.25 
  -3   5 -22   -0.09    0.16 
   3   5  22    0.25    0.19 
  -5   5 -22    0.11    0.23 
   5   5  22    0.18    0.18 
  -7   5 -22    1.17    0.37 
   7   5  22    0.97    0.29 
   9   5  22    0.59    0.24 
  -9   5 -22    1.05    0.42 
  10  -6 -22   -0.14    0.19 
 -10   6  22   -0.15    0.22 
  10   6 -22    0.33    0.25 
   8  -6 -22    0.15    0.20 
  -8   6  22   -0.11    0.22 
   8   6 -22    0.16    0.23 
   6  -6 -22    0.84    0.29 
   6   6 -22    0.17    0.22 
  -6   6  22    0.57    0.31 
   4  -6 -22    0.07    0.35 
  -4   6  22    0.11    0.23 
   4   6 -22    0.09    0.23 
   2   6 -22    0.08    0.23 
  -2   6  22    0.01    0.19 
   0   6  22   -0.06    0.20 
   0   6 -22    0.08    0.22 
   2   6  22   -0.20    0.17 
  -2   6 -22    0.26    0.22 
   4   6  22    0.04    0.20 
  -4   6 -22    0.31    0.23 
   6   6  22    0.08    0.21 
  -6   6 -22    0.17    0.24 
  -7   7  22    0.50    0.33 
  -5   7  22    0.82    0.36 
  -3   7  22    0.74    0.33 
   1   7 -22   -0.62    0.19 
  -1   7  22    0.03    0.22 
  -1   7 -22    0.29    0.27 
   1   7  22    0.21    0.25 
  -3   7 -22    1.90    0.51 
   3   7  22    1.13    0.36 
  -5   7 -22   -0.07    0.25 
   5   7  22    0.98    0.35 
  -4   8  22    0.22    0.28 
  -2   8  22    0.13    0.27 
   0   8  22    0.84    0.34 
   0   8 -22   -0.40    0.22 
  14   0 -23   -0.31    0.17 
 -14   0  23   -0.01    0.26 
 -12   0  23   -0.32    0.16 
  12   0 -23   -0.01    0.18 
 -10   0  23    0.15    0.19 
  10   0 -23   -0.06    0.14 
   8   0 -23    0.29    0.18 
  -8   0  23   -0.35    0.11 
   6   0 -23    0.16    0.15 
  -6   0  23   -0.03    0.13 
  -6   0  23    0.20    0.18 
  -4   0  23    0.34    0.19 
  -4   0  23   -0.07    0.15 
   4   0 -23   -0.06    0.10 
  -2   0  23   -0.05    0.10 
   2   0 -23    0.00    0.09 
  -2   0  23   -0.10    0.11 
  -2   0  23   -0.08    0.13 
   0   0 -23    0.03    0.06 
   0   0  23    0.26    0.16 
   0   0  23   -0.05    0.09 
   0   0  23   -0.03    0.13 
   2   0  23   -0.10    0.07 
   2   0  23    0.04    0.11 
   2   0  23   -0.20    0.14 
   4   0  23    0.01    0.10 
   4   0  23   -0.04    0.08 
   6   0  23   -0.03    0.07 
   6   0  23    0.06    0.08 
   8   0  23   -0.02    0.06 
   8   0  23   -0.07    0.05 
  15  -1 -23   -0.41    0.17 
  15   1 -23   -0.06    0.23 
 -13  -1  23    0.12    0.21 
  13  -1 -23    0.43    0.28 
 -13   1  23    0.17    0.22 
  13   1 -23    0.37    0.28 
  11  -1 -23    0.71    0.28 
 -11  -1  23    0.25    0.25 
 -11   1  23    0.87    0.33 
  11   1 -23    0.84    0.29 
  -9  -1  23    0.00    0.19 
   9  -1 -23    0.03    0.17 
   9   1 -23    0.16    0.17 
  -9   1  23    0.29    0.22 
  -7  -1  23   -0.25    0.13 
   7  -1 -23    0.01    0.13 
  -7  -1  23    0.00    0.15 
  -7   1  23    0.27    0.18 
  -7   1  23    0.06    0.17 
   7   1 -23    0.04    0.14 
   5  -1 -23   12.03    0.67 
  -5  -1  23   11.48    0.69 
  -5  -1  23   13.96    0.80 
   5   1 -23   13.06    0.70 
  -5   1  23   13.03    0.75 
  -5   1  23   12.87    0.76 
   3  -1 -23    0.04    0.07 
  -3  -1  23    0.13    0.14 
  -3  -1  23   -0.07    0.13 
  -3   1  23    0.05    0.10 
   3   1 -23   -0.03    0.06 
  -3   1  23   -0.02    0.13 
  -3   1  23    0.10    0.13 
  -1  -1  23    1.80    0.30 
  -1  -1  23    1.27    0.24 
   1  -1 -23    2.06    0.24 
  -1   1  23    1.65    0.26 
  -1   1  23    2.00    0.30 
   1   1 -23    1.84    0.23 
  -1   1  23    2.22    0.32 
   1  -1  23    0.95    0.27 
   1  -1  23    0.54    0.16 
   1  -1  23    0.46    0.17 
   1   1  23    0.73    0.23 
   1   1  23    0.47    0.17 
   1   1  23    0.91    0.20 
   3  -1  23    0.07    0.20 
   3  -1  23    0.38    0.15 
   3  -1  23    0.41    0.13 
   3   1  23    0.65    0.23 
   3   1  23    0.56    0.15 
   3   1  23    0.89    0.19 
   5  -1  23    0.15    0.11 
   5  -1  23    0.25    0.10 
   5   1  23    0.09    0.09 
   5   1  23    0.10    0.10 
   7  -1  23    0.71    0.13 
   7  -1  23    0.64    0.12 
   7   1  23    0.46    0.11 
   9  -1  23    0.01    0.07 
   9   1  23    0.01    0.07 
  14  -2 -23    0.48    0.27 
  14   2 -23    0.77    0.34 
 -12  -2  23    0.24    0.23 
  12  -2 -23    1.28    0.36 
 -12   2  23    0.93    0.32 
  12   2 -23    0.98    0.34 
  10  -2 -23    2.19    0.42 
 -10  -2  23    2.13    0.42 
  10   2 -23    2.05    0.42 
 -10   2  23    2.21    0.43 
  -8  -2  23    1.57    0.38 
   8  -2 -23    0.66    0.25 
  -8   2  23    1.65    0.37 
   8   2 -23    1.43    0.33 
  -6  -2  23    8.53    0.66 
   6  -2 -23    7.43    0.56 
  -6  -2  23    7.56    0.59 
   6   2 -23    6.87    0.64 
  -6   2  23    7.66    0.62 
  -6   2  23    7.30    0.57 
  -4  -2  23   13.55    0.79 
   4  -2 -23   13.33    0.69 
  -4  -2  23   13.79    0.75 
   4   2 -23   14.16    0.71 
  -4   2  23   12.65    0.73 
  -4   2  23   13.87    0.79 
  -4   2  23   13.14    0.50 
   4   2 -23   13.73    0.55 
  -2  -2  23    1.12    0.25 
   2  -2 -23    1.35    0.23 
  -2  -2  23    1.34    0.29 
   2   2 -23    1.20    0.22 
  -2   2  23    1.09    0.24 
   2   2 -23    1.24    0.24 
  -2   2  23    1.60    0.25 
  -2   2  23    0.85    0.24 
   0  -2  23    2.02    0.30 
   0  -2  23    2.58    0.36 
   0  -2 -23    2.39    0.23 
   0   2  23    1.77    0.27 
   0   2 -23    2.50    0.25 
   0   2 -23    2.28    0.34 
   0   2  23    2.09    0.32 
   0   2  23    2.51    0.35 
   2  -2  23   13.94    0.66 
   2  -2  23   13.84    0.63 
   2   2  23   14.49    0.77 
   2   2  23   14.71    0.65 
   2   2  23   15.01    0.67 
   4  -2  23    7.67    0.42 
   4  -2  23    7.62    0.44 
   4   2  23    7.63    0.43 
   6  -2  23    0.80    0.16 
   6   2  23    0.83    0.18 
   8  -2  23    1.38    0.19 
   8   2  23    1.30    0.19 
  10   2  23    0.28    0.11 
  13  -3 -23    1.16    0.42 
 -13  -3  23    1.86    0.43 
 -13   3  23    1.34    0.42 
  13   3 -23    1.01    0.38 
  11  -3 -23    0.30    0.23 
 -11  -3  23    0.62    0.28 
 -11   3  23   -0.11    0.22 
  11   3 -23    0.40    0.25 
   9  -3 -23    0.40    0.22 
  -9  -3  23    0.04    0.21 
   9   3 -23    0.19    0.20 
   9   3 -23    0.31    0.12 
  -9   3  23    0.12    0.23 
   7  -3 -23    3.69    0.48 
  -7  -3  23    3.83    0.54 
   7   3 -23    3.46    0.27 
  -7   3  23    3.95    0.55 
   7   3 -23    3.53    0.48 
  -5  -3  23   26.51    1.16 
   5  -3 -23   24.15    0.99 
  -5  -3  23   25.23    1.10 
  -5   3  23   24.92    1.12 
   5   3 -23   24.45    0.82 
   5   3 -23   23.55    1.01 
  -3  -3  23   17.38    0.87 
   3  -3 -23   18.13    0.79 
  -3  -3  23   17.61    0.90 
   3   3 -23   18.81    0.77 
  -3   3  23   17.94    0.89 
   3   3 -23   18.50    0.82 
   1  -3 -23   17.15    0.68 
  -1  -3  23   17.88    0.81 
  -1  -3  23   18.13    0.87 
   1   3 -23   18.64    0.84 
  -1   3  23   17.10    0.83 
   1   3 -23   18.69    0.73 
   1  -3  23    0.02    0.13 
   1  -3  23    0.19    0.13 
  -1  -3 -23    0.26    0.08 
  -1   3 -23    0.06    0.09 
   1   3  23   -0.30    0.11 
  -1   3 -23    0.01    0.15 
   3  -3  23    0.18    0.13 
   3   3  23    0.34    0.17 
  -3   3 -23    0.30    0.20 
   5  -3  23    0.09    0.11 
  -5   3 -23    0.23    0.22 
   5   3  23    0.19    0.14 
   7   3  23   -0.12    0.11 
   9   3  23    1.40    0.24 
  12  -4 -23    1.31    0.40 
 -12   4  23    1.74    0.45 
  12   4 -23    1.48    0.40 
  10  -4 -23    3.93    0.55 
  10   4 -23    3.21    0.54 
 -10   4  23    3.43    0.55 
   8  -4 -23    1.33    0.33 
   8   4 -23    1.80    0.39 
  -8   4  23    2.40    0.50 
   6  -4 -23    0.12    0.16 
   6   4 -23   -0.19    0.13 
   6   4 -23    0.15    0.16 
  -6   4  23    0.10    0.21 
   4  -4 -23   24.40    1.01 
  -4  -4  23   24.40    1.10 
   4   4 -23   25.30    0.98 
  -4   4  23   26.94    1.15 
   4   4 -23   26.50    1.08 
   2  -4 -23    0.01    0.09 
  -2  -4  23   -0.05    0.15 
  -2   4  23    0.14    0.18 
   2   4 -23   -0.22    0.12 
   2   4 -23    0.12    0.11 
   0  -4 -23    2.66    0.31 
   0  -4  23    2.32    0.37 
   0   4 -23    2.49    0.31 
   0   4  23    2.52    0.39 
   0   4 -23    2.92    0.43 
   2  -4  23    2.60    0.43 
  -2  -4 -23    2.35    0.17 
  -2   4 -23    3.14    0.49 
   2   4  23    2.90    0.39 
  -2   4 -23    2.84    0.21 
   4   4  23    2.20    0.35 
  -4   4 -23    2.75    0.48 
   6   4  23    1.61    0.28 
  -6   4 -23    1.98    0.45 
  -8   4 -23    0.23    0.27 
   8   4  23    0.13    0.16 
  10   4  23    0.80    0.22 
  11  -5 -23   -0.27    0.19 
  11   5 -23    0.22    0.24 
 -11   5  23    0.00    0.25 
   9  -5 -23    0.24    0.23 
  -9   5  23    0.16    0.27 
   9   5 -23   -0.11    0.18 
   7  -5 -23    0.03    0.18 
  -7   5  23    0.21    0.22 
   7   5 -23    0.21    0.19 
   5  -5 -23   12.22    0.77 
   5   5 -23   13.28    0.82 
  -5   5  23   13.57    0.89 
   3  -5 -23    1.39    0.30 
  -3   5  23    1.23    0.36 
   3   5 -23    1.66    0.36 
   3   5 -23    1.75    0.34 
  -1   5  23   10.85    0.72 
   1   5 -23    9.05    0.68 
  -1   5 -23    5.86    0.69 
   1   5  23    4.04    0.51 
  -3   5 -23   -0.10    0.20 
   3   5  23   -0.10    0.16 
  -5   5 -23    0.27    0.23 
   5   5  23   -0.08    0.17 
   7   5  23    1.31    0.30 
  -7   5 -23    2.13    0.55 
  10   6 -23    0.40    0.32 
 -10   6  23    0.03    0.28 
   8   6 -23    0.31    0.26 
  -8   6  23   -0.21    0.20 
  -6   6  23   -0.22    0.22 
  -4   6  23    2.18    0.46 
   2   6 -23   -0.34    0.15 
  -2   6  23    0.22    0.25 
   0   6  23   -0.07    0.20 
   0   6 -23   -0.15    0.15 
  -2   6 -23    1.14    0.35 
   2   6  23    1.50    0.37 
   4   6  23    1.83    0.40 
  -4   6 -23    1.47    0.40 
  -6   6 -23    0.63    0.32 
   6   6  23    0.36    0.26 
  -7   7  23   -0.05    0.28 
  -5   7  23    0.67    0.35 
  -3   7  23   -0.15    0.24 
   1   7 -23   -0.22    0.18 
  -1   7  23    0.28    0.26 
  -1   7 -23    0.79    0.32 
   1   7  23    0.55    0.29 
  -3   7 -23   -0.05    0.25 
   3   7  23    0.32    0.29 
  -2   8  23    0.50    0.29 
  14   0 -24    0.46    0.27 
 -14   0  24    0.30    0.40 
  12   0 -24    0.19    0.21 
 -12   0  24    0.03    0.18 
 -10   0  24    0.13    0.20 
  10   0 -24    0.00    0.17 
   8   0 -24    0.38    0.20 
  -8   0  24    0.83    0.29 
   6   0 -24    2.14    0.35 
  -6   0  24    2.11    0.41 
  -6   0  24    1.95    0.35 
   4   0 -24   72.72    1.84 
  -4   0  24   70.65    1.97 
  -4   0  24   68.95    1.91 
   2   0 -24   -0.01    0.07 
  -2   0  24   -0.05    0.12 
  -2   0  24    0.29    0.17 
   0   0  24   16.18    0.76 
   0   0  24   15.46    0.69 
   0   0 -24   16.22    0.48 
   0   0  24   15.70    0.72 
   2   0  24   12.43    0.72 
   2   0  24   12.57    0.59 
   2   0  24   12.84    0.57 
   4   0  24    0.63    0.16 
   4   0  24    0.46    0.13 
   6   0  24    0.57    0.13 
   6   0  24    0.25    0.11 
   8   0  24    0.03    0.07 
   8   0  24    0.08    0.07 
 -13  -1  24    0.08    0.22 
  13  -1 -24   -0.08    0.20 
  13   1 -24    0.00    0.20 
 -13   1  24   -0.12    0.21 
  11  -1 -24    9.50    0.77 
 -11  -1  24    9.86    0.79 
  11   1 -24   10.22    0.79 
 -11   1  24    7.63    0.79 
   9  -1 -24    2.04    0.40 
  -9  -1  24    1.62    0.38 
  -9   1  24    0.92    0.30 
   9   1 -24    1.70    0.35 
   7  -1 -24   -0.01    0.12 
  -7  -1  24   -0.11    0.14 
  -7  -1  24   -0.05    0.15 
  -7   1  24    0.17    0.20 
   7   1 -24   -0.11    0.12 
  -7   1  24   -0.05    0.15 
   5  -1 -24   37.54    1.24 
  -5  -1  24   37.57    1.38 
  -5  -1  24   36.76    1.31 
  -5   1  24   35.50    1.29 
  -5   1  24   35.16    1.33 
   5   1 -24   36.12    1.24 
  -3  -1  24   14.43    0.76 
  -3  -1  24   14.17    0.73 
  -3   1  24   14.03    0.74 
  -3   1  24   13.92    0.55 
  -3   1  24   15.86    0.80 
  -1  -1  24    5.61    0.52 
   1  -1 -24    5.31    0.32 
  -1  -1  24    5.96    0.44 
  -1   1  24    5.95    0.44 
  -1   1  24    5.77    0.41 
   1   1 -24    5.39    0.33 
  -1   1  24    5.80    0.47 
   1  -1  24    1.16    0.22 
   1  -1  24    0.88    0.22 
   1   1  24    0.83    0.25 
   1   1  24    1.11    0.21 
   1   1  24    0.96    0.22 
   3  -1  24    1.82    0.25 
   3  -1  24    1.67    0.25 
   3   1  24    1.25    0.22 
   3   1  24    1.47    0.22 
   5  -1  24    2.30    0.26 
   5  -1  24    2.11    0.24 
   5   1  24    1.98    0.24 
   5   1  24    2.41    0.25 
   7  -1  24    4.37    0.27 
   7  -1  24    4.07    0.25 
   7   1  24    4.43    0.27 
   9  -1  24    0.09    0.07 
   9   1  24    0.17    0.08 
  14  -2 -24    0.19    0.22 
  14   2 -24   -0.11    0.22 
  12  -2 -24    0.41    0.25 
 -12  -2  24    0.28    0.25 
 -12   2  24    0.11    0.25 
  12   2 -24    0.65    0.31 
  10  -2 -24    0.39    0.23 
 -10  -2  24    0.17    0.22 
 -10   2  24    0.39    0.26 
  10   2 -24   -0.05    0.18 
  -8  -2  24    2.08    0.42 
   8  -2 -24    1.61    0.35 
  -8   2  24    2.58    0.47 
   8   2 -24    1.53    0.34 
   6  -2 -24    1.78    0.35 
  -6  -2  24    0.84    0.28 
  -6  -2  24    0.87    0.30 
  -6   2  24    1.12    0.30 
  -6   2  24    1.21    0.31 
   6   2 -24    1.69    0.33 
  -4  -2  24   33.12    1.30 
  -4  -2  24   35.62    1.28 
   4  -2 -24   34.15    1.17 
  -4   2  24   34.65    1.30 
   4   2 -24   33.99    0.95 
   4   2 -24   34.85    1.18 
  -4   2  24   34.63    1.26 
  -4   2  24   35.24    0.94 
   2  -2 -24    0.83    0.20 
  -2  -2  24    0.74    0.24 
  -2  -2  24    0.69    0.22 
   2   2 -24    0.81    0.21 
  -2   2  24    1.08    0.22 
  -2   2  24    0.80    0.23 
   2   2 -24    0.82    0.20 
  -2   2  24    1.01    0.26 
   0  -2 -24    4.61    0.27 
   0  -2  24    4.04    0.44 
   0  -2  24    4.65    0.46 
   0   2  24    3.98    0.43 
   0   2 -24    3.58    0.26 
   0   2  24    3.66    0.39 
   0   2 -24    4.07    0.46 
   0   2  24    4.24    0.45 
   2  -2  24    0.11    0.12 
   2  -2  24    0.31    0.14 
   2   2  24    0.04    0.14 
   2   2  24    0.41    0.22 
   2   2  24    0.23    0.13 
   4  -2  24    0.31    0.12 
   4  -2  24   -0.10    0.09 
   4   2  24    0.10    0.13 
   6  -2  24   -0.12    0.08 
   6   2  24    0.09    0.11 
   8   2  24    0.25    0.11 
  10   2  24    0.16    0.10 
 -13  -3  24    1.59    0.41 
  13  -3 -24    0.55    0.30 
  13   3 -24    0.63    0.33 
 -13   3  24    0.78    0.34 
 -11  -3  24    2.22    0.51 
  11  -3 -24    3.02    0.51 
 -11   3  24    2.66    0.52 
  11   3 -24    2.37    0.45 
   9  -3 -24    2.45    0.44 
  -9  -3  24    2.22    0.44 
  -9   3  24    1.65    0.41 
   9   3 -24    1.69    0.38 
   7  -3 -24    1.58    0.33 
  -7  -3  24    1.92    0.40 
  -7   3  24    1.66    0.37 
   7   3 -24    1.58    0.36 
   7   3 -24    1.91    0.22 
   5  -3 -24    0.26    0.18 
  -5  -3  24    0.36    0.20 
  -5  -3  24    0.13    0.16 
  -5   3  24    0.50    0.26 
   5   3 -24    0.06    0.11 
   5   3 -24    0.11    0.15 
  -3  -3  24    0.71    0.27 
   3  -3 -24    1.03    0.25 
  -3  -3  24    0.79    0.25 
  -3   3  24    1.02    0.29 
   3   3 -24    1.14    0.25 
   3   3 -24    0.93    0.23 
   1  -3 -24    1.12    0.21 
  -1  -3  24    1.02    0.25 
  -1  -3  24    1.24    0.30 
  -1   3  24    1.37    0.29 
   1   3 -24    1.36    0.24 
   1   3 -24    1.57    0.31 
   1  -3  24    0.86    0.22 
   1  -3  24    0.67    0.22 
  -1  -3 -24    0.46    0.10 
  -1   3 -24    0.44    0.21 
  -1   3 -24    0.35    0.11 
   1   3  24    0.19    0.18 
   3  -3  24    0.06    0.12 
   3   3  24    0.00    0.12 
  -3   3 -24    0.06    0.16 
  -5   3 -24   -0.04    0.19 
   5   3  24   -0.04    0.12 
   7   3  24    1.68    0.26 
   9   3  24    0.06    0.12 
  12  -4 -24    0.39    0.28 
 -12   4  24   -0.22    0.22 
  12   4 -24    0.73    0.32 
  10  -4 -24    1.80    0.42 
 -10   4  24    2.15    0.46 
  10   4 -24    1.10    0.36 
   8  -4 -24    1.26    0.32 
   8   4 -24    0.73    0.27 
  -8   4  24    0.62    0.29 
   6  -4 -24    3.55    0.49 
  -6  -4  24    3.03    0.51 
  -6   4  24    3.21    0.51 
   6   4 -24    2.68    0.42 
   6   4 -24    1.99    0.31 
   4  -4 -24    7.20    0.55 
  -4  -4  24    6.20    0.63 
   4   4 -24    7.05    0.55 
  -4   4  24    7.01    0.70 
   4   4 -24    6.86    0.50 
   2  -4 -24    0.84    0.22 
  -2  -4  24    0.93    0.28 
  -2   4  24    0.80    0.26 
   2   4 -24    0.82    0.25 
   2   4 -24    0.97    0.25 
   0  -4 -24    1.00    0.20 
   0   4  24    0.27    0.20 
   0   4 -24    0.66    0.18 
   0   4 -24    0.45    0.24 
   2   4  24    0.64    0.23 
  -2   4 -24    1.06    0.13 
  -2   4 -24    0.50    0.24 
  -4   4 -24    0.07    0.20 
   4   4  24    0.25    0.18 
   6   4  24    0.84    0.23 
  -6   4 -24    0.74    0.33 
  -8   4 -24    1.96    0.49 
   8   4  24    2.15    0.33 
  11  -5 -24    0.44    0.30 
 -11   5  24    0.10    0.26 
  11   5 -24    0.44    0.27 
   9  -5 -24    0.18    0.23 
  -9   5  24    0.06    0.24 
   9   5 -24    0.57    0.27 
   7  -5 -24    0.46    0.22 
   7   5 -24    0.05    0.19 
  -7   5  24    0.19    0.26 
   5  -5 -24    0.40    0.24 
  -5   5  24    0.52    0.29 
   5   5 -24    0.58    0.25 
   5   5 -24    0.09    0.20 
   3   5 -24    1.56    0.35 
  -3   5  24    1.94    0.41 
  -1   5  24   -0.03    0.18 
   1   5 -24    0.79    0.28 
  -1   5 -24    0.07    0.20 
   1   5  24    0.33    0.20 
  -3   5 -24    0.15    0.19 
   3   5  24    0.13    0.19 
   5   5  24   -0.10    0.16 
  -5   5 -24   -0.21    0.17 
   7   5  24   -0.01    0.17 
  -7   5 -24    0.29    0.25 
 -10   6  24    0.70    0.39 
  -8   6  24    0.02    0.24 
  -6   6  24    0.51    0.34 
  -4   6  24    4.21    0.60 
  -2   6  24    0.54    0.29 
   2   6 -24    0.60    0.28 
   0   6 -24   -0.08    0.20 
   0   6  24    0.15    0.18 
  -2   6 -24    0.57    0.29 
   2   6  24    0.39    0.22 
  -4   6 -24    1.02    0.34 
   4   6  24    0.73    0.32 
  -6   6 -24    0.25    0.27 
   6   6  24   -0.13    0.20 
  -7   7  24    0.51    0.33 
  -5   7  24    2.55    0.56 
  -3   7  24    1.48    0.43 
   3   7 -24    1.63    0.44 
   1   7 -24    1.90    0.47 
  -1   7  24    1.06    0.33 
   1   7  24    0.10    0.26 
  -1   7 -24    0.17    0.27 
  -3   7 -24    0.88    0.34 
   3   7  24    0.83    0.35 
  14   0 -25    0.10    0.20 
 -12   0  25    0.31    0.23 
  12   0 -25    0.00    0.17 
 -10   0  25   -0.13    0.18 
  10   0 -25    0.21    0.18 
  -8   0  25   -0.09    0.15 
   8   0 -25    0.08    0.18 
  -6   0  25   -0.13    0.16 
   6   0 -25   -0.01    0.13 
  -6   0  25    0.08    0.17 
   4   0 -25    0.07    0.13 
  -4   0  25    0.25    0.21 
  -4   0  25    0.35    0.19 
   2   0 -25    0.01    0.09 
  -2   0  25    0.16    0.15 
  -2   0  25   -0.12    0.12 
   0   0  25    0.13    0.13 
   0   0  25    0.16    0.16 
   0   0 -25    0.27    0.08 
   0   0  25    0.29    0.17 
   2   0  25   -0.07    0.16 
   2   0  25    0.11    0.12 
   2   0  25    0.25    0.14 
   4   0  25   -0.06    0.08 
   4   0  25    0.00    0.10 
   6   0  25    0.08    0.08 
   6   0  25    0.12    0.10 
   8   0  25   -0.04    0.06 
   8   0  25    0.01    0.06 
  13  -1 -25    0.10    0.22 
 -13  -1  25    0.03    0.21 
 -13   1  25   -0.07    0.21 
  13   1 -25    0.03    0.18 
 -11  -1  25    1.21    0.39 
  11  -1 -25    0.79    0.30 
 -11   1  25    0.86    0.30 
  11   1 -25    1.26    0.33 
   9  -1 -25    0.07    0.17 
  -9  -1  25   -0.05    0.19 
   9   1 -25    0.14    0.19 
  -9   1  25   -0.05    0.19 
  -7  -1  25    0.28    0.20 
  -7  -1  25    0.12    0.19 
   7  -1 -25   -0.21    0.11 
   7   1 -25    0.16    0.17 
  -7   1  25    0.24    0.19 
  -7   1  25    0.12    0.19 
   5  -1 -25    2.16    0.34 
  -5  -1  25    2.27    0.38 
  -5  -1  25    2.14    0.38 
   5   1 -25    2.52    0.37 
  -5   1  25    2.77    0.43 
  -5   1  25    2.33    0.41 
  -3  -1  25    4.54    0.51 
   3  -1 -25    4.86    0.39 
  -3  -1  25    4.48    0.49 
   3   1 -25    4.82    0.38 
  -3   1  25    4.94    0.51 
  -3   1  25    3.68    0.46 
  -3   1  25    4.51    0.33 
  -1  -1  25    1.26    0.27 
   1  -1 -25    1.47    0.20 
  -1  -1  25    0.92    0.25 
  -1   1  25    1.30    0.24 
  -1   1  25    1.49    0.28 
   1   1 -25    1.59    0.23 
  -1   1  25    1.04    0.26 
   1  -1  25    0.54    0.18 
   1  -1  25    0.40    0.17 
   1   1  25    0.44    0.16 
   1   1  25    0.89    0.22 
   1   1  25    0.83    0.25 
   3  -1  25    0.60    0.16 
   3  -1  25    0.97    0.20 
   3   1  25    0.50    0.16 
   3   1  25    0.47    0.16 
   5  -1  25    0.12    0.11 
   5  -1  25    0.06    0.10 
   5   1  25    0.02    0.10 
   5   1  25   -0.09    0.09 
   7  -1  25    1.38    0.19 
   7  -1  25    1.12    0.17 
   7   1  25    1.03    0.17 
   9  -1  25    0.02    0.07 
   9   1  25    0.02    0.08 
  14  -2 -25    1.64    0.44 
  14   2 -25    1.24    0.38 
  12  -2 -25    1.35    0.37 
 -12  -2  25    0.81    0.36 
 -12   2  25    0.90    0.36 
  12   2 -25    0.96    0.35 
 -10  -2  25    0.51    0.28 
  10  -2 -25    0.20    0.19 
 -10   2  25   -0.19    0.20 
  10   2 -25    0.07    0.18 
   8  -2 -25    4.47    0.54 
  -8  -2  25    3.52    0.53 
  -8   2  25    3.61    0.55 
   8   2 -25    3.79    0.51 
   6  -2 -25    2.18    0.37 
  -6  -2  25    2.61    0.42 
  -6  -2  25    2.01    0.40 
  -6   2  25    1.78    0.36 
  -6   2  25    2.39    0.42 
   6   2 -25    2.11    0.37 
  -4  -2  25    8.64    0.62 
   4  -2 -25    8.97    0.57 
  -4  -2  25    8.11    0.64 
  -4   2  25    8.69    0.65 
   4   2 -25    7.79    0.53 
  -4   2  25    8.00    0.40 
  -4   2  25    8.93    0.62 
  -2  -2  25   18.24    0.90 
   2  -2 -25   19.16    0.74 
  -2  -2  25   18.87    0.87 
  -2   2  25   18.37    0.85 
  -2   2  25   19.21    0.89 
   2   2 -25   17.80    0.74 
  -2   2  25   19.23    0.76 
   0  -2  25   11.64    0.68 
   0  -2 -25   11.15    0.42 
   0  -2  25   11.67    0.64 
   0   2  25   11.59    0.63 
   0   2  25   11.48    0.64 
   0   2 -25   11.10    0.47 
   0   2  25   10.92    0.63 
   2  -2  25    1.96    0.29 
   2  -2  25    2.02    0.31 
   2   2  25    2.01    0.29 
   2   2  25    1.86    0.28 
   4  -2  25    1.61    0.25 
   4  -2  25    1.79    0.26 
   4   2  25    1.16    0.22 
   6  -2  25    0.02    0.09 
   6   2  25    0.01    0.11 
   8   2  25    0.81    0.17 
  10   2  25    0.11    0.09 
 -13  -3  25    1.57    0.42 
  13  -3 -25    1.20    0.43 
 -13   3  25    1.58    0.43 
  13   3 -25    1.29    0.42 
  11  -3 -25    7.66    0.81 
 -11  -3  25    7.51    0.83 
  11   3 -25    8.37    0.86 
 -11   3  25    6.82    0.78 
   9  -3 -25    0.22    0.20 
  -9  -3  25    0.01    0.19 
  -9   3  25   -0.27    0.17 
   9   3 -25   -0.20    0.14 
   7  -3 -25    6.13    0.63 
  -7  -3  25    5.69    0.67 
   7   3 -25    5.56    0.60 
  -7   3  25    5.24    0.64 
   7   3 -25    5.15    0.31 
  -5  -3  25    1.02    0.30 
  -5  -3  25    1.41    0.33 
   5  -3 -25    1.28    0.29 
   5   3 -25    1.47    0.30 
   5   3 -25    1.48    0.23 
  -5   3  25    1.24    0.34 
  -3  -3  25    6.64    0.64 
  -3  -3  25    7.62    0.59 
  -3   3  25    8.20    0.62 
   3   3 -25    6.99    0.49 
   1  -3 -25    0.14    0.12 
  -1  -3  25   -0.05    0.14 
  -1  -3  25   -0.12    0.13 
  -1   3  25   -0.02    0.15 
   1   3 -25    0.05    0.13 
   1   3 -25    0.06    0.12 
   1  -3  25    1.89    0.32 
   1  -3  25    2.05    0.34 
  -1  -3 -25    2.81    0.16 
   1   3  25    2.35    0.35 
  -1   3 -25    2.51    0.40 
  -1   3 -25    2.55    0.19 
   3   3  25   -0.21    0.11 
  -3   3 -25    0.16    0.19 
   5   3  25   -0.29    0.09 
   7   3  25    0.14    0.14 
   9   3  25    0.08    0.13 
  12  -4 -25    0.75    0.33 
  12   4 -25   -0.23    0.21 
 -12   4  25    0.68    0.34 
  10  -4 -25    4.59    0.64 
  10   4 -25    4.21    0.60 
 -10   4  25    2.97    0.55 
   8  -4 -25   11.05    0.76 
  -8  -4  25   12.57    0.90 
   8   4 -25   10.98    0.58 
  -8   4  25   12.31    0.90 
   8   4 -25   12.76    0.84 
  -6  -4  25    0.08    0.21 
   6  -4 -25   -0.03    0.18 
   6   4 -25    0.12    0.13 
   6   4 -25   -0.18    0.14 
  -6   4  25   -0.10    0.17 
  -4  -4  25    2.42    0.43 
   4  -4 -25    2.98    0.42 
   4   4 -25    2.56    0.39 
  -4   4  25    1.71    0.37 
   4   4 -25    2.02    0.32 
   2  -4 -25    1.70    0.29 
   2   4 -25    1.27    0.30 
  -2   4  25    1.57    0.35 
   2   4 -25    1.97    0.33 
   0   4 -25    1.16    0.30 
   0   4  25    1.45    0.34 
   2   4  25    0.62    0.23 
  -2   4 -25    0.27    0.21 
   4   4  25    0.30    0.20 
  -4   4 -25    0.64    0.26 
   6   4  25    0.92    0.24 
  -6   4 -25    0.94    0.33 
   8   4  25    0.26    0.18 
 -11   5  25    1.34    0.39 
  -9   5  25    1.58    0.46 
   9   5 -25    0.93    0.37 
  -7   5  25   -0.13    0.22 
  -5   5  25    0.18    0.21 
   5   5 -25   -0.02    0.16 
   3   5 -25   13.16    0.78 
  -3   5  25   14.95    0.92 
   1   5 -25    0.51    0.24 
  -1   5  25    0.03    0.22 
  -1   5 -25    6.88    0.76 
   1   5  25    6.85    0.66 
   3   5  25    0.55    0.25 
  -3   5 -25    1.08    0.35 
  -5   5 -25    0.47    0.25 
   5   5  25    0.08    0.17 
   7   5  25   -0.03    0.18 
  -7   5 -25    0.03    0.25 
  -8   6  25    1.05    0.41 
  -6   6  25    0.31    0.28 
  -4   6  25    0.44    0.26 
   4   6 -25   -0.09    0.20 
   2   6 -25    0.87    0.32 
  -2   6  25    1.09    0.36 
   0   6 -25    2.07    0.45 
   0   6  25    2.52    0.46 
   2   6  25    0.23    0.21 
  -2   6 -25    0.10    0.22 
   4   6  25    0.91    0.32 
  -4   6 -25    1.60    0.42 
  -5   7  25   -0.50    0.22 
  -3   7  25    0.44    0.35 
   3   7 -25    0.84    0.36 
  -1   7  25    1.02    0.34 
   1   7 -25    0.65    0.31 
  -1   7 -25   -0.06    0.22 
   1   7  25    0.62    0.30 
  14   0 -26    0.90    0.36 
  12   0 -26   -0.04    0.20 
 -12   0  26    0.41    0.27 
  10   0 -26    2.76    0.47 
 -10   0  26    3.14    0.53 
   8   0 -26    7.55    0.62 
  -8   0  26    7.14    0.74 
  -6   0  26    0.50    0.25 
  -6   0  26    0.33    0.20 
   6   0 -26    0.27    0.18 
  -4   0  26    0.24    0.19 
  -4   0  26    0.34    0.21 
   4   0 -26    0.08    0.13 
  -2   0  26    3.07    0.39 
  -2   0  26    2.24    0.37 
   2   0 -26    2.99    0.31 
   0   0 -26    0.20    0.08 
   0   0  26    0.25    0.18 
   0   0  26    0.28    0.19 
   0   0  26    0.28    0.15 
   2   0  26   11.70    0.57 
   2   0  26   11.28    0.73 
   2   0  26   10.56    0.57 
   4   0  26    2.78    0.29 
   4   0  26    2.70    0.31 
   6   0  26    0.04    0.09 
   6   0  26   -0.01    0.09 
   8   0  26    2.80    0.20 
   8   0  26    2.70    0.19 
  13  -1 -26    1.18    0.39 
 -13  -1  26    1.72    0.45 
 -13   1  26    1.77    0.43 
  13   1 -26    1.48    0.39 
 -11  -1  26    1.93    0.45 
  11  -1 -26    2.00    0.43 
 -11   1  26    2.87    0.53 
  11   1 -26    1.98    0.41 
   9  -1 -26   -0.14    0.14 
  -9  -1  26   -0.35    0.17 
   9   1 -26   -0.19    0.14 
  -9   1  26   -0.19    0.17 
   7  -1 -26    1.57    0.34 
  -7  -1  26    1.45    0.36 
  -7  -1  26    1.14    0.33 
   7   1 -26    1.37    0.32 
  -7   1  26    0.93    0.30 
  -7   1  26    1.43    0.33 
  -5  -1  26   -0.09    0.15 
   5  -1 -26    0.07    0.13 
  -5  -1  26   -0.08    0.16 
  -5   1  26   -0.05    0.16 
   5   1 -26    0.15    0.13 
  -5   1  26    0.06    0.18 
  -3  -1  26    5.49    0.57 
   3  -1 -26    5.67    0.42 
  -3  -1  26    6.47    0.59 
   3   1 -26    5.23    0.40 
  -3   1  26    5.17    0.52 
  -3   1  26    5.95    0.58 
  -3   1  26    6.16    0.39 
   1  -1 -26    0.85    0.17 
  -1  -1  26    1.23    0.29 
  -1  -1  26    0.97    0.25 
   1   1 -26    1.17    0.20 
  -1   1  26    0.84    0.22 
  -1   1  26    1.01    0.27 
  -1   1  26    1.28    0.26 
   1  -1  26   11.87    0.64 
   1  -1  26   12.42    0.63 
   1   1  26   12.67    0.64 
   1   1  26   11.79    0.64 
   1   1  26   12.95    0.74 
   3  -1  26    0.16    0.14 
   3  -1  26    0.28    0.14 
   3   1  26    0.16    0.13 
   3   1  26    0.29    0.15 
   5  -1  26    1.16    0.20 
   5  -1  26    1.31    0.21 
   5   1  26    0.64    0.16 
   5   1  26    1.40    0.22 
   7  -1  26    2.23    0.23 
   7  -1  26    2.26    0.24 
   7   1  26    2.48    0.25 
   9   1  26    0.06    0.07 
  12  -2 -26    0.86    0.32 
 -12  -2  26    0.47    0.32 
 -12   2  26    1.15    0.41 
  12   2 -26    1.96    0.47 
 -10  -2  26    5.85    0.70 
  10  -2 -26    5.05    0.63 
 -10   2  26    5.67    0.71 
  10   2 -26    8.11    0.82 
   8  -2 -26    4.30    0.54 
  -8  -2  26    3.14    0.54 
   8   2 -26    3.95    0.52 
  -8   2  26    3.50    0.54 
  -6  -2  26    1.29    0.33 
   6  -2 -26    0.91    0.25 
  -6  -2  26    1.15    0.31 
  -6   2  26    1.06    0.31 
   6   2 -26    0.44    0.20 
  -6   2  26    0.65    0.28 
  -4  -2  26   -0.22    0.13 
  -4  -2  26   -0.08    0.18 
   4  -2 -26    0.03    0.13 
  -4   2  26   -0.17    0.14 
   4   2 -26    0.07    0.14 
  -4   2  26    0.09    0.10 
  -4   2  26   -0.09    0.15 
  -2  -2  26    2.62    0.41 
   2  -2 -26    3.08    0.33 
  -2  -2  26    2.28    0.36 
   2   2 -26    2.89    0.33 
  -2   2  26    3.31    0.37 
  -2   2  26    3.01    0.41 
  -2   2  26    3.53    0.44 
   0  -2 -26    0.09    0.07 
   0  -2  26    0.35    0.18 
   0  -2  26    0.22    0.15 
   0   2  26    0.20    0.17 
   0   2  26    0.09    0.14 
   0   2 -26    0.32    0.11 
   0   2  26    0.02    0.16 
   2  -2  26    0.43    0.18 
   2  -2  26    0.49    0.17 
   2   2  26    0.85    0.23 
   2   2  26    0.42    0.17 
   4  -2  26    0.29    0.16 
   4  -2  26    0.31    0.17 
   4   2  26    0.82    0.21 
   6   2  26    1.99    0.27 
   8   2  26    0.88    0.18 
  13  -3 -26    0.73    0.34 
 -13  -3  26    0.03    0.28 
  13   3 -26    0.63    0.30 
 -13   3  26    0.05    0.26 
 -11  -3  26   -0.15    0.21 
  11  -3 -26   -0.22    0.19 
  11   3 -26    0.09    0.23 
 -11   3  26    0.20    0.24 
  -9  -3  26   -0.02    0.19 
   9  -3 -26    0.30    0.22 
   9   3 -26   -0.01    0.17 
  -9   3  26   -0.20    0.19 
  -7  -3  26    0.27    0.23 
   7  -3 -26    0.03    0.17 
   7   3 -26   -0.01    0.14 
   7   3 -26    0.08    0.09 
  -7   3  26    0.06    0.21 
  -5  -3  26   -0.10    0.19 
   5  -3 -26    0.17    0.19 
  -5  -3  26    0.20    0.24 
   5   3 -26    0.03    0.15 
  -5   3  26   -0.03    0.20 
   5   3 -26    0.15    0.12 
  -3  -3  26    0.23    0.21 
  -3  -3  26    0.01    0.16 
   3  -3 -26   -0.27    0.10 
   3   3 -26    0.05    0.12 
   3   3 -26   -0.08    0.10 
  -3   3  26   -0.05    0.16 
  -1  -3  26    0.19    0.17 
   1  -3 -26    0.35    0.14 
   1   3 -26    0.25    0.14 
  -1   3  26    0.01    0.16 
   1   3 -26    0.14    0.14 
   1  -3  26    4.52    0.50 
   1   3  26    4.50    0.49 
  -1   3 -26    3.96    0.23 
  -1   3 -26    5.52    0.59 
   3   3  26    0.09    0.16 
  -3   3 -26   -0.04    0.18 
   5   3  26    0.23    0.17 
   7   3  26   -0.07    0.12 
   9   3  26    0.60    0.18 
  12  -4 -26    0.42    0.37 
  12   4 -26    0.23    0.29 
 -12   4  26    0.07    0.28 
  10  -4 -26    1.02    0.34 
 -10   4  26    1.54    0.44 
  10   4 -26    1.09    0.33 
  -8  -4  26    4.24    0.61 
   8  -4 -26    3.56    0.53 
   8   4 -26    3.38    0.51 
  -8   4  26    3.31    0.55 
   6  -4 -26    0.17    0.20 
  -6  -4  26   -0.05    0.20 
  -6   4  26    0.29    0.25 
   6   4 -26   -0.02    0.12 
   6   4 -26   -0.09    0.16 
  -4  -4  26    4.08    0.55 
   4   4 -26    4.47    0.76 
   4   4 -26    4.09    0.46 
  -4   4  26    5.10    0.62 
   2   4 -26    0.23    0.18 
  -2   4  26    0.23    0.20 
   0   4  26   -0.04    0.17 
   0   4 -26    0.26    0.18 
   2   4  26    0.07    0.18 
  -2   4 -26    0.79    0.29 
   4   4  26    0.06    0.17 
  -4   4 -26    0.28    0.23 
  -6   4 -26    0.29    0.22 
   6   4  26    0.32    0.19 
   8   4  26   -0.03    0.16 
  -9   5  26    0.50    0.33 
   7   5 -26   -0.06    0.18 
  -7   5  26   -0.13    0.21 
   5   5 -26    0.31    0.19 
  -5   5  26    0.23    0.25 
  -3   5  26    0.43    0.23 
   3   5 -26    0.71    0.26 
  -1   5  26   -0.31    0.15 
   1   5 -26    0.40    0.21 
   1   5  26    0.36    0.23 
  -1   5 -26    0.23    0.22 
   3   5  26   -0.09    0.19 
  -3   5 -26   -0.06    0.20 
   5   5  26    0.19    0.19 
  -5   5 -26    0.16    0.26 
   7   5  26    0.10    0.21 
  -7   5 -26    0.53    0.31 
  -8   6  26    0.40    0.28 
  -6   6  26    0.31    0.30 
   6   6 -26    0.06    0.22 
   4   6 -26    1.39    0.36 
  -4   6  26    1.46    0.43 
  -2   6  26    0.39    0.28 
   2   6 -26    0.25    0.24 
   0   6 -26    0.57    0.28 
   0   6  26    0.62    0.28 
  -2   6 -26    0.29    0.26 
   2   6  26   -0.48    0.16 
  -4   6 -26    0.50    0.29 
   4   6  26    0.61    0.30 
   5   7 -26   -0.10    0.27 
  -5   7  26    0.33    0.31 
  -3   7  26    0.26    0.26 
   3   7 -26   -0.01    0.24 
   1   7 -26    1.35    0.39 
  -1   7  26    1.71    0.44 
  -1   7 -26    0.76    0.36 
   1   7  26    0.58    0.30 
  12   0 -27    0.12    0.23 
 -12   0  27   -0.22    0.19 
 -10   0  27   -0.04    0.19 
  10   0 -27   -0.24    0.16 
  -8   0  27    0.09    0.20 
   8   0 -27    0.10    0.16 
   6   0 -27    0.06    0.14 
  -6   0  27   -0.19    0.15 
  -6   0  27    0.03    0.18 
   4   0 -27    0.11    0.10 
  -4   0  27   -0.05    0.14 
  -4   0  27   -0.23    0.15 
   2   0 -27    0.03    0.09 
  -2   0  27   -0.13    0.13 
  -2   0  27    0.20    0.18 
   0   0  27    0.33    0.17 
   0   0 -27    0.05    0.05 
   0   0  27   -0.21    0.16 
   0   0  27    0.08    0.13 
   2   0  27    0.13    0.14 
   2   0  27    0.14    0.14 
   4   0  27    0.00    0.12 
   4   0  27   -0.06    0.09 
   6   0  27   -0.08    0.10 
   6   0  27    0.13    0.10 
   8   0  27   -0.02    0.08 
 -13  -1  27    0.04    0.25 
  13  -1 -27    0.01    0.24 
 -13   1  27    0.21    0.27 
  13   1 -27    0.24    0.24 
 -11  -1  27    0.36    0.29 
  11  -1 -27   -0.20    0.19 
 -11   1  27    0.37    0.29 
  11   1 -27    0.30    0.27 
  -9  -1  27    1.76    0.45 
   9  -1 -27    1.12    0.31 
  -9   1  27    1.38    0.38 
   9   1 -27    1.63    0.37 
   7  -1 -27    0.03    0.17 
  -7  -1  27   -0.09    0.14 
  -7  -1  27    0.41    0.24 
  -7   1  27    0.11    0.20 
   7   1 -27    0.34    0.20 
  -7   1  27    0.12    0.21 
   5  -1 -27    0.30    0.16 
  -5  -1  27    0.46    0.21 
  -5  -1  27    0.01    0.17 
  -5   1  27    0.52    0.25 
  -5   1  27    0.23    0.20 
   5   1 -27    0.27    0.16 
  -3  -1  27    0.37    0.19 
   3  -1 -27    0.02    0.11 
  -3  -1  27    0.18    0.17 
  -3   1  27    0.31    0.19 
  -3   1  27    0.03    0.13 
  -3   1  27   -0.12    0.14 
   3   1 -27    0.21    0.13 
  -1  -1  27    0.00    0.15 
   1  -1 -27    0.02    0.08 
  -1  -1  27    0.02    0.16 
  -1   1  27    0.05    0.15 
  -1   1  27   -0.41    0.11 
  -1   1  27    0.18    0.17 
   1   1 -27    0.14    0.11 
   1  -1  27    1.02    0.24 
   1  -1  27    1.20    0.25 
   1   1  27    1.08    0.25 
   1   1  27    0.52    0.19 
   1   1  27    0.40    0.22 
   3  -1  27    1.98    0.29 
   3  -1  27    2.05    0.30 
   3   1  27    2.22    0.31 
   3   1  27    1.73    0.27 
   5  -1  27    0.45    0.16 
   5   1  27    0.44    0.19 
   5   1  27    0.68    0.17 
   7  -1  27    0.05    0.09 
   7   1  27    0.27    0.12 
   9   1  27   -0.01    0.08 
 -12  -2  27   -0.17    0.25 
  12  -2 -27    0.51    0.28 
  12   2 -27    0.08    0.24 
 -12   2  27    0.38    0.32 
 -10  -2  27    2.95    0.55 
  10  -2 -27    2.55    0.47 
  10   2 -27    3.01    0.52 
 -10   2  27    2.36    0.48 
   8  -2 -27   -0.04    0.14 
  -8  -2  27    0.12    0.21 
   8   2 -27    0.04    0.15 
  -8   2  27   -0.17    0.20 
  -6  -2  27    5.29    0.64 
   6  -2 -27    5.26    0.55 
  -6  -2  27    6.62    0.84 
  -6   2  27    5.06    0.61 
   6   2 -27    5.10    0.54 
  -6   2  27    7.56    0.93 
  -4  -2  27    5.53    0.65 
   4  -2 -27    4.46    0.48 
  -4  -2  27    4.82    0.56 
   4   2 -27    5.55    0.44 
  -4   2  27    5.33    0.61 
  -4   2  27    5.99    0.36 
  -4   2  27    6.06    0.66 
  -2  -2  27    2.49    0.39 
  -2  -2  27    3.29    0.46 
   2  -2 -27    3.00    0.33 
   2   2 -27    3.73    0.38 
  -2   2  27    3.01    0.43 
  -2   2  27    3.46    0.45 
  -2   2  27    3.67    0.39 
   0  -2  27    7.91    0.59 
   0  -2  27    8.99    0.68 
   0  -2 -27    8.21    0.33 
   0   2  27    8.55    0.66 
   0   2  27    8.52    0.58 
   0   2 -27    8.98    0.38 
   0   2  27    9.12    0.60 
   2  -2  27    2.51    0.36 
   2   2  27    2.94    0.38 
   4  -2  27    0.39    0.17 
   4   2  27    0.09    0.15 
   6   2  27    0.07    0.12 
   8   2  27    1.32    0.22 
  11  -3 -27    2.97    0.54 
 -11  -3  27    2.79    0.53 
 -11   3  27    2.40    0.51 
  11   3 -27    2.71    0.53 
  -9  -3  27    4.51    0.66 
   9  -3 -27    5.36    0.66 
  -9   3  27    4.44    0.65 
   9   3 -27    4.67    0.61 
   7  -3 -27    0.38    0.23 
  -7  -3  27    0.14    0.22 
   7   3 -27    0.06    0.16 
  -7   3  27   -0.12    0.19 
   5  -3 -27    0.21    0.18 
  -5  -3  27    0.05    0.20 
   5   3 -27    0.34    0.13 
  -5   3  27    0.24    0.22 
   5   3 -27    0.35    0.20 
   3  -3 -27    0.07    0.17 
  -3  -3  27    0.00    0.16 
   3   3 -27   -0.16    0.10 
  -3   3  27    0.43    0.20 
   3   3 -27    0.14    0.18 
  -1  -3  27    0.21    0.17 
  -1   3  27    0.02    0.17 
   1   3 -27    0.23    0.16 
   1  -3  27    0.00    0.14 
  -1   3 -27    0.11    0.17 
   1   3  27    0.29    0.20 
   3   3  27    1.42    0.30 
   5   3  27    0.97    0.24 
   7   3  27    1.13    0.23 
 -10   4  27   -0.28    0.21 
  -8  -4  27    0.60    0.30 
  -8   4  27    0.72    0.31 
  -6  -4  27    1.01    0.35 
  -6   4  27    0.45    0.28 
   6   4 -27    0.52    0.18 
  -4  -4  27    1.55    0.37 
  -4   4  27    0.90    0.32 
   4   4 -27    0.87    0.23 
   2   4 -27    1.22    0.28 
  -2   4  27    1.28    0.35 
   0   4 -27    2.11    0.41 
   0   4  27    2.46    0.41 
  -2   4 -27    2.84    0.48 
   2   4  27    2.74    0.43 
   4   4  27    0.19    0.19 
  -4   4 -27    0.58    0.27 
   6   4  27   -0.04    0.16 
  -6   4 -27    0.14    0.24 
  -9   5  27    1.15    0.44 
  -7   5  27    1.81    0.46 
  -5   5  27   -0.16    0.18 
   5   5 -27   -0.02    0.15 
  -3   5  27    5.26    0.67 
   3   5 -27    5.30    0.58 
   1   5 -27    0.44    0.23 
  -1   5  27    0.39    0.24 
  -1   5 -27    0.15    0.19 
   1   5  27   -0.25    0.18 
   3   5  27    2.43    0.41 
  -3   5 -27    1.76    0.41 
  -5   5 -27    1.26    0.39 
   5   5  27    1.25    0.32 
  -8   6  27    0.69    0.33 
  -6   6  27    0.27    0.27 
  -4   6  27    3.63    0.60 
   4   6 -27    4.29    0.58 
   2   6 -27    0.53    0.28 
  -2   6  27    1.07    0.39 
   0   6 -27    1.29    0.34 
   0   6  27    0.54    0.30 
   2   6  27    1.12    0.35 
  -2   6 -27    0.52    0.30 
   4   6  27   -0.11    0.20 
  -4   6 -27    0.27    0.26 
  12   0 -28    0.54    0.29 
 -12   0  28    1.24    0.39 
  10   0 -28   -0.15    0.17 
 -10   0  28    0.68    0.31 
  -8   0  28    6.12    0.69 
   8   0 -28    5.34    0.61 
   6   0 -28    1.59    0.32 
  -6   0  28    0.90    0.31 
   4   0 -28    1.96    0.30 
  -4   0  28    2.13    0.41 
  -4   0  28    1.93    0.45 
  -2   0  28   22.43    1.10 
  -2   0  28   21.61    1.00 
   2   0 -28   22.75    0.79 
   0   0  28    7.66    0.55 
   0   0  28    7.73    0.62 
   0   0  28    6.96    0.56 
   2   0  28    0.92    0.23 
   4   0  28   -0.32    0.09 
   6   0  28    0.12    0.11 
   8   0  28    0.37    0.11 
 -13  -1  28    0.20    0.27 
  13  -1 -28   -0.38    0.20 
 -13   1  28    0.08    0.27 
  13   1 -28    0.30    0.34 
  11  -1 -28    0.57    0.29 
 -11  -1  28    1.19    0.38 
  11   1 -28    0.89    0.34 
 -11   1  28    0.69    0.34 
  -9  -1  28    1.87    0.43 
   9  -1 -28    1.75    0.39 
   9   1 -28    2.39    0.46 
  -9   1  28    2.24    0.47 
   7  -1 -28    0.04    0.17 
  -7  -1  28    0.25    0.23 
   7   1 -28    0.04    0.16 
  -7   1  28   -0.07    0.18 
  -5  -1  28   -0.08    0.14 
   5  -1 -28    0.20    0.15 
  -5   1  28   -0.16    0.15 
   5   1 -28   -0.18    0.10 
   3  -1 -28   13.69    0.65 
  -3  -1  28   12.93    0.79 
  -3   1  28   14.13    0.81 
   3   1 -28   14.00    0.66 
  -3   1  28   13.51    0.62 
   1  -1 -28    1.16    0.18 
  -1  -1  28    0.82    0.25 
  -1   1  28    0.64    0.22 
   1   1 -28    0.84    0.16 
  -1   1  28    0.90    0.27 
   1  -1  28    7.65    0.55 
   1   1  28    7.91    0.55 
   1   1  28    7.83    0.62 
   3  -1  28    4.87    0.45 
   3   1  28    4.20    0.42 
   5  -1  28    1.37    0.23 
   5   1  28    1.70    0.24 
   7  -1  28   -0.01    0.09 
   7   1  28    0.00    0.10 
   9   1  28    0.91    0.15 
 -12  -2  28    0.63    0.36 
 -12   2  28    0.47    0.37 
 -10  -2  28    2.37    0.51 
  10  -2 -28    1.71    0.41 
 -10   2  28    1.52    0.42 
  10   2 -28    2.67    0.49 
   8  -2 -28    3.07    0.48 
  -8  -2  28    3.36    0.54 
  -8   2  28    2.88    0.54 
   8   2 -28    4.07    0.53 
  -6  -2  28    0.99    0.34 
   6  -2 -28    0.96    0.27 
   6   2 -28    0.72    0.23 
  -6   2  28    0.60    0.28 
  -4  -2  28    0.48    0.26 
   4  -2 -28   -0.11    0.10 
   4   2 -28    0.06    0.09 
  -4   2  28    0.26    0.19 
  -2  -2  28    4.34    0.54 
   2  -2 -28    4.52    0.60 
  -2   2  28    4.25    0.53 
  -2   2  28    4.25    0.43 
   0  -2 -28    0.29    0.08 
   0  -2  28    0.48    0.22 
   0   2  28    0.19    0.20 
   0   2 -28    0.28    0.10 
   0   2  28    0.46    0.22 
   2  -2  28    0.20    0.16 
   2   2  28    0.18    0.17 
   4  -2  28    0.02    0.13 
   4   2  28    0.12    0.15 
   6   2  28    0.21    0.14 
   8   2  28    1.64    0.23 
 -11  -3  28    0.05    0.26 
 -11   3  28    0.53    0.30 
  -9  -3  28   -0.03    0.21 
  -9   3  28   -0.03    0.23 
  -7  -3  28    0.12    0.21 
  -7   3  28    0.14    0.23 
  -5  -3  28    0.17    0.20 
  -5   3  28    0.44    0.24 
   5   3 -28   -0.02    0.09 
  -3  -3  28    9.34    0.72 
  -3   3  28    7.57    0.72 
   3   3 -28    8.06    0.54 
  -1  -3  28    0.66    0.23 
  -1   3  28    0.72    0.25 
  -1   3  28    1.05    0.27 
   1   3 -28    0.64    0.22 
   1  -3  28    0.74    0.25 
  -1   3 -28    0.32    0.21 
   1   3  28    0.39    0.23 
   3   3  28    0.68    0.25 
   5   3  28    0.15    0.18 
   7   3  28   -0.09    0.14 
 -10   4  28   -0.02    0.24 
  -8  -4  28    1.93    0.45 
  -8   4  28    2.86    0.56 
  -6  -4  28    0.45    0.26 
   6   4 -28    0.27    0.24 
  -6   4  28    0.17    0.21 
  -4  -4  28    0.31    0.22 
  -4   4  28    0.12    0.21 
   4   4 -28    0.16    0.14 
   2   4 -28    1.42    0.30 
  -2   4  28    1.85    0.39 
   0   4 -28    0.01    0.19 
   0   4  28    0.11    0.21 
  -2   4 -28    0.23    0.20 
   2   4  28   -0.01    0.18 
   4   4  28   -0.16    0.16 
  -4   4 -28    0.37    0.25 
   6   4  28    0.49    0.22 
  -9   5  28    0.36    0.27 
  -7   5  28    0.35    0.31 
  -5   5  28    0.18    0.24 
   5   5 -28    0.03    0.15 
   3   5 -28    0.14    0.18 
  -3   5  28    0.15    0.23 
  -1   5  28    0.79    0.28 
   1   5 -28    0.59    0.27 
  -1   5 -28    0.51    0.27 
   1   5  28    0.20    0.24 
   3   5  28    0.19    0.23 
  -3   5 -28    0.97    0.36 
  -5   5 -28    0.41    0.27 
   5   5  28    0.47    0.25 
  -6   6  28    0.02    0.22 
   4   6 -28    0.07    0.21 
  -4   6  28    0.62    0.33 
   2   6 -28   -0.12    0.19 
  -2   6  28    0.09    0.24 
   0   6 -28    0.80    0.30 
   0   6  28    1.43    0.39 
   2   6  28    1.06    0.31 
  -2   6 -28    0.79    0.32 
 -12   0  29    0.07    0.25 
 -10   0  29    0.00    0.22 
  -8   0  29    0.18    0.22 
   8   0 -29    0.04    0.18 
   6   0 -29    0.06    0.18 
  -6   0  29   -0.11    0.17 
  -4   0  29   -0.24    0.13 
  -2   0  29    0.09    0.17 
   0   0  29    0.13    0.21 
   0   0  29    0.14    0.16 
   2   0  29    0.10    0.16 
   4   0  29    0.05    0.12 
   6   0  29    0.03    0.11 
   8   0  29    0.10    0.09 
 -11  -1  29    0.31    0.28 
 -11   1  29    0.71    0.34 
  -9  -1  29    0.22    0.22 
  -9   1  29   -0.13    0.21 
  -7  -1  29    1.32    0.36 
  -7   1  29    0.98    0.35 
  -5  -1  29    0.02    0.18 
  -5   1  29    0.00    0.16 
  -3  -1  29    0.43    0.23 
  -3   1  29    0.10    0.18 
  -1  -1  29    2.59    0.41 
  -1   1  29    2.86    0.41 
  -1   1  29    2.89    0.41 
   1  -1  29    0.92    0.26 
   1   1  29    1.10    0.26 
   3  -1  29    1.03    0.23 
   3   1  29    0.55    0.20 
   5  -1  29    0.38    0.16 
   5   1  29    0.33    0.15 
   7  -1  29    0.05    0.11 
   7   1  29    0.23    0.12 
 -12  -2  29    0.37    0.34 
 -12   2  29    0.12    0.30 
 -10  -2  29    4.72    0.70 
 -10   2  29    4.34    0.65 
  -8  -2  29    2.91    0.52 
  -8   2  29    2.47    0.49 
  -6  -2  29    1.23    0.34 
  -6   2  29    1.17    0.36 
  -4  -2  29    0.16    0.21 
  -4   2  29    0.11    0.17 
  -2  -2  29    4.56    0.54 
  -2   2  29    4.24    0.51 
   0  -2  29    1.79    0.35 
   0   2  29    2.19    0.37 
   0   2  29    2.68    0.40 
   2  -2  29    1.99    0.34 
   2   2  29    1.52    0.30 
   4  -2  29    0.09    0.13 
   4   2  29   -0.04    0.13 
   6   2  29    0.30    0.15 
   8   2  29    0.98    0.20 
 -11  -3  29    0.00    0.26 
 -11   3  29   -0.02    0.27 
  -9  -3  29    0.44    0.31 
  -9   3  29    0.84    0.37 
  -7  -3  29    1.72    0.43 
  -7   3  29    2.07    0.45 
  -5  -3  29    0.19    0.23 
  -5   3  29    0.30    0.23 
  -3  -3  29   -0.19    0.16 
  -3   3  29    0.19    0.20 
   3   3 -29    0.63    0.21 
  -1  -3  29    0.71    0.26 
  -1   3  29    0.64    0.27 
   1  -3  29    6.80    0.65 
   1   3  29    7.27    0.57 
   3   3  29    0.16    0.19 
   5   3  29    0.15    0.17 
   7   3  29   -0.15    0.15 
 -10   4  29    2.53    0.54 
  -8  -4  29    0.97    0.35 
  -8   4  29    0.50    0.30 
  -6  -4  29    0.01    0.20 
  -6   4  29    0.00    0.21 
  -4  -4  29    0.36    0.24 
  -4   4  29    0.08    0.23 
   4   4 -29   -0.11    0.13 
   2   4 -29    3.26    0.45 
  -2   4  29    4.32    0.58 
   0   4 -29    0.39    0.22 
   0   4  29    0.24    0.21 
   2   4  29    4.32    0.54 
  -2   4 -29    3.81    0.58 
   4   4  29    0.19    0.20 
  -4   4 -29    0.09    0.24 
   6   4  29   -0.13    0.18 
  -7   5  29    4.73    0.69 
  -5   5  29    0.22    0.26 
  -3   5  29    0.64    0.27 
   3   5 -29    0.08    0.16 
   1   5 -29    0.85    0.29 
  -1   5  29    0.91    0.35 
   1   5  29    5.69    0.69 
  -1   5 -29    6.32    0.74 
  -3   5 -29    0.24    0.23 
   3   5  29   -0.13    0.21 
   4   6 -29    0.02    0.22 
  -4   6  29    0.32    0.26 
  -2   6  29    1.57    0.44 
   2   6 -29    0.68    0.28 
   0   6  29    0.14    0.24 
   0   6 -29    0.38    0.26 
 -12   0  30    3.82    0.65 
 -10   0  30    1.61    0.42 
  -8   0  30    0.13    0.24 
  -6   0  30    5.07    0.66 
  -4   0  30    0.37    0.25 
  -2   0  30    0.51    0.24 
   0   0  30   -0.22    0.13 
   0   0  30   -0.27    0.20 
   2   0  30    7.05    0.52 
   4   0  30    0.93    0.22 
   6   0  30   -0.03    0.10 
 -11  -1  30    0.10    0.26 
 -11   1  30   -0.03    0.23 
  -9  -1  30    5.16    0.70 
  -9   1  30    4.36    0.65 
  -7  -1  30    8.31    0.83 
  -7   1  30    7.72    0.82 
  -5  -1  30   -0.01    0.18 
  -5   1  30    0.70    0.27 
  -3  -1  30   -0.21    0.13 
  -3   1  30   -0.01    0.18 
  -1  -1  30    0.17    0.18 
  -1   1  30    0.68    0.25 
   1  -1  30    4.28    0.49 
   1   1  30    4.38    0.50 
   3  -1  30    5.83    0.46 
   3   1  30    4.50    0.47 
   5  -1  30    1.00    0.22 
   5   1  30    0.77    0.20 
   7  -1  30    0.90    0.19 
   7   1  30    0.78    0.19 
 -10  -2  30   -0.15    0.23 
 -10   2  30    0.17    0.26 
  -8  -2  30    0.11    0.25 
  -8   2  30    0.02    0.18 
  -6  -2  30   -0.03    0.21 
  -6   2  30   -0.07    0.20 
  -4  -2  30   -0.10    0.18 
  -4   2  30   -0.04    0.18 
  -2  -2  30    0.56    0.23 
  -2   2  30    0.09    0.18 
   0  -2  30    0.35    0.20 
   0   2  30    0.27    0.19 
   2  -2  30    6.96    0.55 
   2   2  30    6.42    0.53 
   4  -2  30   -0.02    0.14 
   4   2  30    0.39    0.18 
   6   2  30    0.12    0.14 
  -9  -3  30    0.02    0.24 
  -9   3  30    0.29    0.29 
  -7  -3  30    1.22    0.37 
  -7   3  30    0.79    0.34 
  -5  -3  30    1.05    0.36 
  -5   3  30    1.99    0.42 
  -3  -3  30   -0.17    0.17 
  -3   3  30   -0.05    0.20 
  -1  -3  30   -0.01    0.18 
  -1   3  30    0.39    0.23 
   1  -3  30    0.34    0.20 
   1   3  30   -0.19    0.16 
   3   3  30    0.30    0.22 
   5   3  30    0.07    0.16 
  -8  -4  30    0.70    0.34 
  -8   4  30   -0.06    0.23 
  -6  -4  30    0.24    0.25 
  -6   4  30   -0.04    0.21 
  -4  -4  30    1.08    0.33 
  -4   4  30    0.52    0.27 
   4   4 -30    0.66    0.22 
   2   4 -30    0.65    0.23 
  -2   4  30    1.39    0.34 
   0   4  30    0.44    0.26 
   0   4 -30    0.98    0.29 
  -2   4 -30    0.11    0.21 
   2   4  30    0.15    0.21 
   4   4  30   -0.19    0.17 
  -7   5  30   -0.01    0.26 
  -5   5  30    0.50    0.28 
   3   5 -30    0.53    0.23 
  -3   5  30    0.31    0.25 
  -1   5  30    0.32    0.25 
   1   5 -30    0.61    0.27 
  -1   5 -30    0.62    0.31 
   1   5  30    1.18    0.36 
   3   5  30    0.08    0.23 
  -3   5 -30    0.31    0.26 
 -10   0  31   -0.29    0.21 
  -8   0  31    0.04    0.22 
  -6   0  31   -0.08    0.20 
  -4   0  31    0.02    0.18 
  -2   0  31    0.45    0.24 
   0   0  31   -0.22    0.14 
   2   0  31    0.00    0.15 
   4   0  31    0.00    0.14 
   6   0  31   -0.10    0.11 
 -11  -1  31    1.05    0.39 
 -11   1  31    0.97    0.37 
  -9  -1  31    1.30    0.41 
  -9   1  31    1.07    0.40 
  -7  -1  31    0.28    0.22 
  -7   1  31   -0.08    0.18 
  -5  -1  31    2.22    0.42 
  -5   1  31    2.36    0.47 
  -3  -1  31    0.43    0.25 
  -3   1  31   -0.09    0.19 
  -1  -1  31    1.22    0.31 
  -1   1  31    1.60    0.35 
   1  -1  31    0.03    0.17 
   1   1  31    0.22    0.18 
   3  -1  31    0.35    0.20 
   3   1  31    0.40    0.19 
   5  -1  31    0.15    0.14 
   5   1  31    0.26    0.14 
 -10  -2  31    1.23    0.40 
 -10   2  31    0.91    0.37 
  -8  -2  31    2.72    0.52 
  -8   2  31    1.90    0.44 
  -6  -2  31    0.02    0.22 
  -6   2  31    0.09    0.23 
  -4  -2  31    0.34    0.25 
  -4   2  31    0.19    0.23 
  -2  -2  31    0.21    0.21 
  -2   2  31    0.17    0.18 
   0  -2  31    0.21    0.19 
   0   2  31    0.32    0.21 
   2  -2  31    1.70    0.33 
   2   2  31    1.53    0.32 
   4  -2  31    1.79    0.32 
   4   2  31    2.12    0.35 
   6   2  31    0.48    0.20 
  -9  -3  31    1.03    0.39 
  -9   3  31    1.01    0.39 
  -7  -3  31    0.00    0.22 
  -7   3  31    0.32    0.27 
  -5  -3  31    1.00    0.36 
  -5   3  31    0.61    0.32 
  -3  -3  31   -0.08    0.18 
  -3   3  31    0.15    0.21 
  -1  -3  31   -0.14    0.16 
  -1   3  31    0.47    0.25 
   1  -3  31    0.30    0.20 
   1   3  31   -0.03    0.17 
   3   3  31    1.42    0.32 
   5   3  31   -0.11    0.16 
  -8  -4  31    1.15    0.42 
  -8   4  31    0.32    0.30 
  -6  -4  31    0.44    0.27 
  -6   4  31    0.25    0.26 
  -4  -4  31    0.78    0.32 
  -4   4  31    0.74    0.35 
  -2   4  31    0.79    0.31 
   2   4 -31    0.97    0.27 
   0   4  31   -0.21    0.19 
   0   4 -31    0.21    0.20 
  -2   4 -31    0.47    0.27 
   2   4  31    0.06    0.19 
   4   4  31    0.70    0.29 
  -5   5  31    0.44    0.25 
  -3   5  31    0.46    0.27 
   1   5 -31    0.15    0.20 
  -1   5  31   -0.23    0.19 
  -1   5 -31    0.36    0.26 
   1   5  31   -0.01    0.25 
 -10   0  32    4.42    0.70 
  -8   0  32    0.70    0.29 
  -6   0  32   -0.08    0.18 
  -4   0  32    0.50    0.27 
  -2   0  32   -0.01    0.20 
   0   0  32    0.19    0.21 
   2   0  32    0.14    0.17 
   4   0  32    2.68    0.36 
   6   0  32    0.13    0.14 
  -9  -1  32    0.33    0.27 
  -9   1  32    0.77    0.32 
  -7  -1  32    1.79    0.43 
  -7   1  32    1.01    0.34 
  -5  -1  32    2.40    0.44 
  -5   1  32    2.46    0.47 
  -3  -1  32    2.08    0.41 
  -3   1  32    1.88    0.39 
  -1  -1  32    6.79    0.67 
  -1   1  32    6.81    0.68 
   1  -1  32    4.34    0.53 
   1   1  32    3.38    0.46 
   3  -1  32    1.50    0.30 
   3   1  32    0.95    0.27 
   5  -1  32    0.07    0.15 
   5   1  32   -0.01    0.15 
 -10  -2  32    0.48    0.28 
 -10   2  32   -0.03    0.26 
  -8  -2  32   -0.13    0.19 
  -8   2  32   -0.07    0.23 
  -6  -2  32   -0.12    0.20 
  -6   2  32    0.18    0.24 
  -4  -2  32   -0.05    0.21 
  -4   2  32   -0.10    0.20 
  -2  -2  32    2.09    0.43 
  -2   2  32    3.25    0.50 
   0  -2  32    0.41    0.22 
   0   2  32    0.20    0.21 
   2  -2  32    0.81    0.25 
   2   2  32    0.89    0.26 
   4  -2  32    0.96    0.26 
   4   2  32    0.48    0.20 
  -9  -3  32   -0.31    0.21 
  -9   3  32   -0.21    0.23 
  -7  -3  32    0.48    0.29 
  -7   3  32    0.06    0.21 
  -5  -3  32    0.06    0.22 
  -5   3  32    0.06    0.20 
  -3  -3  32    0.00    0.19 
  -3   3  32    0.45    0.25 
  -1  -3  32    0.02    0.20 
  -1   3  32   -0.03    0.19 
   1  -3  32    0.23    0.20 
   1   3  32   -0.01    0.20 
   3   3  32   -0.16    0.16 
  -6  -4  32    0.70    0.31 
  -6   4  32    0.48    0.29 
  -4  -4  32    0.22    0.24 
  -4   4  32   -0.05    0.20 
   2   4 -32    0.98    0.28 
  -2   4  32    0.79    0.31 
   0   4  32   -0.20    0.18 
   0   4 -32   -0.30    0.16 
   2   4  32    0.80    0.32 
  -3   5  32    0.36    0.29 
   1   5 -32    0.33    0.23 
  -1   5  32   -0.12    0.16 
 -10   0  33   -0.16    0.21 
  -8   0  33   -0.01    0.23 
  -6   0  33    0.09    0.23 
  -4   0  33    0.22    0.23 
  -2   0  33   -0.24    0.18 
   0   0  33   -0.37    0.13 
   2   0  33    0.14    0.19 
   4   0  33   -0.04    0.15 
  -9  -1  33    0.74    0.38 
  -9   1  33    0.52    0.33 
  -7  -1  33   -0.05    0.21 
  -7   1  33   -0.11    0.21 
  -5  -1  33    0.09    0.20 
  -5   1  33    0.12    0.25 
  -3  -1  33    1.09    0.34 
  -3   1  33    1.20    0.36 
  -1  -1  33    0.54    0.25 
  -1   1  33    0.05    0.21 
   1  -1  33    0.24    0.18 
   1   1  33   -0.07    0.17 
   3  -1  33    0.55    0.21 
   3   1  33    0.06    0.19 
   5  -1  33    0.02    0.14 
   5   1  33    0.06    0.15 
  -8  -2  33    0.00    0.23 
  -8   2  33    0.00    0.26 
  -6  -2  33    0.43    0.27 
  -6   2  33   -0.34    0.17 
  -4  -2  33    1.36    0.38 
  -4   2  33    1.14    0.36 
  -2  -2  33    0.09    0.20 
  -2   2  33    0.21    0.22 
   0  -2  33    1.39    0.31 
   0   2  33    0.72    0.26 
   2  -2  33    0.79    0.25 
   2   2  33    1.33    0.31 
   4  -2  33    0.07    0.17 
   4   2  33    0.17    0.16 
  -7  -3  33   -0.01    0.21 
  -7   3  33    0.06    0.21 
  -5  -3  33    0.26    0.26 
  -5   3  33    0.41    0.26 
  -3  -3  33    3.24    0.53 
  -3   3  33    3.96    0.57 
  -1  -3  33    0.23    0.22 
  -1   3  33    0.62    0.27 
   1  -3  33   -0.01    0.19 
   1   3  33    0.36    0.24 
   3   3  33    0.23    0.21 
  -6  -4  33    1.40    0.42 
  -6   4  33    0.90    0.37 
  -4  -4  33    1.92    0.44 
  -4   4  33    1.46    0.42 
  -2   4  33    0.18    0.25 
   0   4  33    0.47    0.30 
  -8   0  34    1.92    0.50 
  -6   0  34   -0.23    0.18 
  -4   0  34    1.96    0.42 
  -2   0  34    0.69    0.30 
   0   0  34    0.69    0.26 
   2   0  34    0.32    0.20 
   4   0  34    0.77    0.23 
  -9  -1  34    4.09    0.68 
  -9   1  34    2.14    0.52 
  -7  -1  34   -0.03    0.23 
  -7   1  34   -0.16    0.19 
  -5  -1  34    0.66    0.28 
  -5   1  34    0.52    0.26 
  -3  -1  34   16.18    0.98 
  -3   1  34   13.65    0.92 
  -1  -1  34    0.18    0.21 
  -1   1  34    0.14    0.20 
   1  -1  34    0.57    0.21 
   1   1  34    1.26    0.32 
   3  -1  34    0.92    0.26 
   3   1  34    0.58    0.24 
  -8  -2  34    0.87    0.33 
  -8   2  34    1.47    0.45 
  -6  -2  34    0.55    0.29 
  -6   2  34    1.37    0.39 
  -4  -2  34    0.67    0.29 
  -4   2  34    1.36    0.38 
  -2  -2  34    0.99    0.33 
  -2   2  34    0.60    0.29 
   0  -2  34    0.09    0.19 
   0   2  34    0.05    0.20 
   2  -2  34    0.18    0.21 
   2   2  34   -0.11    0.19 
  -5  -3  34    0.00    0.23 
  -5   3  34   -0.02    0.23 
  -3  -3  34    0.55    0.28 
  -3   3  34    0.57    0.29 
  -1  -3  34   -0.05    0.20 
  -1   3  34   -0.04    0.22 
   1  -3  34   -0.35    0.15 
   1   3  34   -0.06    0.18 
  -8   0  35    0.13    0.25 
  -6   0  35    0.23    0.24 
  -4   0  35   -0.14    0.18 
  -2   0  35    0.01    0.21 
   0   0  35   -0.01    0.20 
   2   0  35    0.16    0.19 
  -7  -1  35    0.33    0.25 
  -7   1  35   -0.07    0.21 
  -5  -1  35    0.18    0.24 
  -5   1  35    0.46    0.27 
  -3  -1  35    0.73    0.29 
  -3   1  35    0.60    0.30 
  -1  -1  35    0.26    0.21 
  -1   1  35    0.11    0.22 
   1  -1  35    0.60    0.27 
   1   1  35    0.94    0.31 
  -6  -2  35   -0.20    0.18 
  -6   2  35    0.06    0.23 
  -4  -2  35   -0.26    0.17 
  -4   2  35   -0.16    0.20 
  -2  -2  35    1.69    0.39 
  -2   2  35    1.01    0.34 
   0  -2  35   -0.06    0.20 
   0   2  35    0.28    0.23 
  -3  -3  35    0.46    0.27 
  -3   3  35    0.31    0.22 
  -1  -3  35   -0.29    0.20 
  -1   3  35   -0.53    0.17 
  -6   0  36    0.04    0.24 
  -4   0  36   -0.04    0.21 
  -2   0  36    0.25    0.26 
   0   0  36    1.56    0.37 
  -5  -1  36   -0.05    0.21 
  -5   1  36   -0.05    0.20 
  -3  -1  36    0.45    0.25 
  -3   1  36   -0.10    0.19 
  -1  -1  36    2.10    0.44 
  -1   1  36    1.56    0.40 
  -4  -2  36    0.01    0.19 
  -4   2  36    0.08    0.19 
  -2  -2  36    0.22    0.21 
  -2   2  36   -0.14    0.20 
   0   0   0    0.00    0.00 
;
_shelx_hkl_checksum              96677
loop_
_space_group_symop_operation_xyz
'x, y, z'
'-x, y, -z+1/2'
'x+1/2, y+1/2, z'
'-x+1/2, y+1/2, -z+1/2'
'-x, -y, -z'
'x, -y, z-1/2'
'-x+1/2, -y+1/2, -z'
'x+1/2, -y+1/2, z-1/2'
loop_
_atom_site_label
_atom_site_type_symbol
_atom_site_fract_x
_atom_site_fract_y
_atom_site_fract_z
_atom_site_U_iso_or_equiv
_atom_site_adp_type
_atom_site_occupancy
_atom_site_site_symmetry_order
_atom_site_calc_flag
_atom_site_refinement_flags_posn
_atom_site_refinement_flags_adp
C1 C 0.26442(18) 0.1646(3) 0.33317(8) 0.0565(7) Uani 1 1 d . .
H1 H 0.2340 0.2363 0.3499 0.068 Uiso 1 1 calc R U
C2 C 0.36168(18) 0.1577(3) 0.33952(9) 0.0610(7) Uani 1 1 d . .
H2 H 0.3961 0.2237 0.3612 0.073 Uiso 1 1 calc R U
C3 C 0.40947(18) 0.0567(4) 0.31488(9) 0.0638(8) Uani 1 1 d . .
C4 C 0.3561(2) -0.0394(4) 0.28283(9) 0.0678(8) Uani 1 1 d . .
H4 H 0.3868 -0.1070 0.2651 0.081 Uiso 1 1 calc R U
C5 C 0.25879(17) -0.0375(3) 0.27663(8) 0.0584(7) Uani 1 1 d . .
H5 H 0.2244 -0.1051 0.2554 0.070 Uiso 1 1 calc R U
C6 C 0.21211(16) 0.0650(3) 0.30197(7) 0.0485(6) Uani 1 1 d . .
C7 C 0.05098(16) 0.0667(3) 0.32335(7) 0.0494(6) Uani 1 1 d . .
C8 C -0.10470(17) 0.0874(3) 0.33309(7) 0.0526(7) Uani 1 1 d . .
H8 H -0.1678 0.1033 0.3207 0.063 Uiso 1 1 calc R U
C9 C -0.08278(16) 0.0650(3) 0.37900(7) 0.0448(6) Uani 1 1 d . .
C10 C 0.01119(17) 0.0388(3) 0.39730(7) 0.0540(7) Uani 1 1 d . .
H10 H 0.0280 0.0210 0.4282 0.065 Uiso 1 1 calc R U
C11 C 0.07877(17) 0.0395(3) 0.36984(7) 0.0554(7) Uani 1 1 d . .
H11 H 0.1421 0.0221 0.3817 0.066 Uiso 1 1 calc R U
C12 C -0.15438(14) 0.2243(3) 0.44827(7) 0.0417(6) Uani 1 1 d . .
C13 C -0.12824(17) 0.2056(3) 0.49426(8) 0.0557(7) Uani 1 1 d . .
H13 H -0.1196 0.1034 0.5068 0.067 Uiso 1 1 calc R U
C14 C -0.11499(18) 0.3395(4) 0.52150(8) 0.0633(8) Uani 1 1 d . .
H14 H -0.0972 0.3263 0.5525 0.076 Uiso 1 1 calc R U
C15 C -0.12742(17) 0.4924(3) 0.50399(9) 0.0558(7) Uani 1 1 d . .
C16 C -0.15436(18) 0.5081(3) 0.45773(9) 0.0603(7) Uani 1 1 d . .
H16 H -0.1637 0.6101 0.4452 0.072 Uiso 1 1 calc R U
C17 C -0.16752(17) 0.3758(3) 0.42997(8) 0.0539(6) Uani 1 1 d . .
H17 H -0.1852 0.3887 0.3989 0.065 Uiso 1 1 calc R U
C18 C 0.5167(2) 0.0529(5) 0.32238(13) 0.1103(14) Uani 1 1 d . .
H18A H 0.5380 -0.0565 0.3252 0.165 Uiso 1 1 calc R U
H18B H 0.5406 0.1106 0.3495 0.165 Uiso 1 1 calc R U
H18C H 0.5394 0.1021 0.2971 0.165 Uiso 1 1 calc R U
C19 C -0.1120(2) 0.6377(4) 0.53422(10) 0.0805(9) Uani 1 1 d . .
H19A H -0.1580 0.7184 0.5235 0.121 Uiso 1 1 calc R U
H19B H -0.0495 0.6793 0.5339 0.121 Uiso 1 1 calc R U
H19C H -0.1188 0.6078 0.5645 0.121 Uiso 1 1 calc R U
N1 N 0.11210(14) 0.0708(3) 0.29296(7) 0.0617(7) Uani 1 1 d . .
N2 N -0.04045(13) 0.0876(3) 0.30534(6) 0.0549(6) Uani 1 1 d . .
O1 O -0.26121(12) 0.0721(3) 0.38328(6) 0.0726(6) Uani 1 1 d . .
O2 O -0.15603(15) -0.0840(2) 0.44084(6) 0.0753(6) Uani 1 1 d . .
S1 S -0.17251(4) 0.05579(8) 0.41273(2) 0.0524(2) Uani 1 1 d . .
H1N H 0.0850(17) 0.076(3) 0.2628(9) 0.069(8) Uiso 1 1 d . .
loop_
_atom_site_aniso_label
_atom_site_aniso_U_11
_atom_site_aniso_U_22
_atom_site_aniso_U_33
_atom_site_aniso_U_23
_atom_site_aniso_U_13
_atom_site_aniso_U_12
C1 0.0617(16) 0.0576(19) 0.0508(14) -0.0070(13) 0.0108(12) 0.0049(13)
C2 0.0637(17) 0.059(2) 0.0582(15) -0.0043(14) 0.0047(13) -0.0113(14)
C3 0.0497(15) 0.078(2) 0.0640(17) 0.0045(16) 0.0088(13) 0.0014(15)
C4 0.0661(18) 0.077(2) 0.0637(17) -0.0074(16) 0.0206(14) 0.0137(16)
C5 0.0595(16) 0.067(2) 0.0489(14) -0.0101(13) 0.0094(12) 0.0027(14)
C6 0.0482(13) 0.0594(17) 0.0379(12) 0.0025(12) 0.0068(10) 0.0064(12)
C7 0.0490(14) 0.0615(18) 0.0374(12) -0.0017(12) 0.0058(10) 0.0067(12)
C8 0.0473(13) 0.0680(19) 0.0415(13) 0.0011(12) 0.0038(11) 0.0036(12)
C9 0.0502(13) 0.0470(16) 0.0374(12) -0.0019(11) 0.0072(10) -0.0004(11)
C10 0.0639(16) 0.0649(19) 0.0321(12) 0.0034(12) 0.0046(11) 0.0019(13)
C11 0.0477(13) 0.078(2) 0.0389(13) 0.0032(13) 0.0022(10) 0.0096(13)
C12 0.0430(12) 0.0423(15) 0.0414(12) 0.0030(11) 0.0119(10) -0.0018(11)
C13 0.0729(17) 0.0521(18) 0.0416(13) 0.0088(13) 0.0076(12) 0.0002(14)
C14 0.0762(18) 0.074(2) 0.0396(13) -0.0049(14) 0.0093(12) -0.0078(16)
C15 0.0498(14) 0.0594(19) 0.0636(17) -0.0140(14) 0.0256(12) -0.0119(13)
C16 0.0748(18) 0.0454(17) 0.0640(17) 0.0044(14) 0.0214(14) 0.0008(14)
C17 0.0629(16) 0.0558(18) 0.0432(13) 0.0034(13) 0.0092(11) 0.0007(13)
C18 0.0569(19) 0.156(4) 0.118(3) -0.018(3) 0.0136(18) 0.004(2)
C19 0.084(2) 0.075(2) 0.090(2) -0.0351(18) 0.0373(17) -0.0229(17)
N1 0.0474(12) 0.103(2) 0.0343(11) -0.0027(11) 0.0054(9) 0.0086(12)
N2 0.0474(11) 0.0816(17) 0.0354(10) 0.0002(10) 0.0057(9) 0.0068(11)
O1 0.0493(10) 0.1064(17) 0.0618(11) -0.0198(11) 0.0077(8) -0.0187(10)
O2 0.1173(16) 0.0444(12) 0.0733(12) 0.0059(10) 0.0431(11) -0.0092(11)
S1 0.0587(4) 0.0529(5) 0.0485(4) -0.0046(3) 0.0173(3) -0.0103(3)
loop_
_atom_type_symbol
_atom_type_description
_atom_type_scat_dispersion_real
_atom_type_scat_dispersion_imag
_atom_type_scat_source
C C 0.0033 0.0016 'International Tables Vol C Tables 4.2.6.8 and 6.1.1.4'
H H 0.0000 0.0000 'International Tables Vol C Tables 4.2.6.8 and 6.1.1.4'
N N 0.0061 0.0033 'International Tables Vol C Tables 4.2.6.8 and 6.1.1.4'
O O 0.0106 0.0060 'International Tables Vol C Tables 4.2.6.8 and 6.1.1.4'
S S 0.1246 0.1234 'International Tables Vol C Tables 4.2.6.8 and 6.1.1.4'
loop_
_geom_angle_atom_site_label_1
_geom_angle_atom_site_label_2
_geom_angle_atom_site_label_3
_geom_angle
C2 C1 C6 119.9(2)
C2 C1 H1 120.1
C6 C1 H1 120.1
C3 C2 C1 122.0(2)
C3 C2 H2 119.0
C1 C2 H2 119.0
C2 C3 C4 117.4(2)
C2 C3 C18 120.8(3)
C4 C3 C18 121.8(3)
C5 C4 C3 121.6(3)
C5 C4 H4 119.2
C3 C4 H4 119.2
C4 C5 C6 119.9(2)
C4 C5 H5 120.0
C6 C5 H5 120.0
C1 C6 C5 119.1(2)
C1 C6 N1 122.3(2)
C5 C6 N1 118.5(2)
N2 C7 N1 114.57(19)
N2 C7 C11 121.6(2)
N1 C7 C11 123.8(2)
N2 C8 C9 123.5(2)
N2 C8 H8 118.2
C9 C8 H8 118.2
C8 C9 C10 118.1(2)
C8 C9 S1 120.58(18)
C10 C9 S1 121.14(17)
C11 C10 C9 119.8(2)
C11 C10 H10 120.1
C9 C10 H10 120.1
C10 C11 C7 118.7(2)
C10 C11 H11 120.6
C7 C11 H11 120.6
C17 C12 C13 120.0(2)
C17 C12 S1 119.57(17)
C13 C12 S1 120.41(19)
C14 C13 C12 119.4(2)
C14 C13 H13 120.3
C12 C13 H13 120.3
C13 C14 C15 121.7(2)
C13 C14 H14 119.1
C15 C14 H14 119.1
C14 C15 C16 117.8(2)
C14 C15 C19 121.0(3)
C16 C15 C19 121.1(3)
C17 C16 C15 121.3(3)
C17 C16 H16 119.4
C15 C16 H16 119.4
C16 C17 C12 119.8(2)
C16 C17 H17 120.1
C12 C17 H17 120.1
C3 C18 H18A 109.5
C3 C18 H18B 109.5
H18A C18 H18B 109.5
C3 C18 H18C 109.5
H18A C18 H18C 109.5
H18B C18 H18C 109.5
C15 C19 H19A 109.5
C15 C19 H19B 109.5
H19A C19 H19B 109.5
C15 C19 H19C 109.5
H19A C19 H19C 109.5
H19B C19 H19C 109.5
C7 N1 C6 127.6(2)
C7 N1 H1N 116.1(16)
C6 N1 H1N 116.3(16)
C8 N2 C7 118.18(18)
O1 S1 O2 119.10(13)
O1 S1 C9 107.38(10)
O2 S1 C9 107.77(12)
O1 S1 C12 109.23(11)
O2 S1 C12 107.34(11)
C9 S1 C12 105.18(11)
loop_
_geom_bond_atom_site_label_1
_geom_bond_atom_site_label_2
_geom_bond_distance
C1 C2 1.375(3)
C1 C6 1.378(3)
C1 H1 0.9300
C2 C3 1.369(4)
C2 H2 0.9300
C3 C4 1.383(4)
C3 C18 1.514(4)
C4 C5 1.375(3)
C4 H4 0.9300
C5 C6 1.381(3)
C5 H5 0.9300
C6 N1 1.414(3)
C7 N2 1.345(3)
C7 N1 1.357(3)
C7 C11 1.404(3)
C8 N2 1.331(3)
C8 C9 1.373(3)
C8 H8 0.9300
C9 C10 1.387(3)
C9 S1 1.754(2)
C10 C11 1.363(3)
C10 H10 0.9300
C11 H11 0.9300
C12 C17 1.376(3)
C12 C13 1.377(3)
C12 S1 1.755(2)
C13 C14 1.376(4)
C13 H13 0.9300
C14 C15 1.378(4)
C14 H14 0.9300
C15 C16 1.384(4)
C15 C19 1.506(4)
C16 C17 1.374(3)
C16 H16 0.9300
C17 H17 0.9300
C18 H18A 0.9600
C18 H18B 0.9600
C18 H18C 0.9600
C19 H19A 0.9600
C19 H19B 0.9600
C19 H19C 0.9600
N1 H1N 0.92(3)
O1 S1 1.4331(18)
O2 S1 1.4335(19)
loop_
_geom_torsion_atom_site_label_1
_geom_torsion_atom_site_label_2
_geom_torsion_atom_site_label_3
_geom_torsion_atom_site_label_4
_geom_torsion
C6 C1 C2 C3 1.6(4)
C1 C2 C3 C4 0.1(4)
C1 C2 C3 C18 179.5(3)
C2 C3 C4 C5 -1.7(4)
C18 C3 C4 C5 178.9(3)
C3 C4 C5 C6 1.6(4)
C2 C1 C6 C5 -1.7(4)
C2 C1 C6 N1 -177.8(2)
C4 C5 C6 C1 0.2(4)
C4 C5 C6 N1 176.4(2)
N2 C8 C9 C10 -1.0(4)
N2 C8 C9 S1 -176.6(2)
C8 C9 C10 C11 1.4(4)
S1 C9 C10 C11 177.0(2)
C9 C10 C11 C7 0.0(4)
N2 C7 C11 C10 -1.9(4)
N1 C7 C11 C10 179.6(3)
C17 C12 C13 C14 -0.4(4)
S1 C12 C13 C14 -179.60(19)
C12 C13 C14 C15 0.2(4)
C13 C14 C15 C16 0.3(4)
C13 C14 C15 C19 -179.6(2)
C14 C15 C16 C17 -0.6(4)
C19 C15 C16 C17 179.3(2)
C15 C16 C17 C12 0.4(4)
C13 C12 C17 C16 0.1(4)
S1 C12 C17 C16 179.33(19)
N2 C7 N1 C6 174.7(3)
C11 C7 N1 C6 -6.7(5)
C1 C6 N1 C7 -50.5(4)
C5 C6 N1 C7 133.4(3)
C9 C8 N2 C7 -0.9(4)
N1 C7 N2 C8 -179.1(2)
C11 C7 N2 C8 2.3(4)
C8 C9 S1 O1 1.1(3)
C10 C9 S1 O1 -174.4(2)
C8 C9 S1 O2 130.6(2)
C10 C9 S1 O2 -44.9(2)
C8 C9 S1 C12 -115.2(2)
C10 C9 S1 C12 69.4(2)
C17 C12 S1 O1 -48.3(2)
C13 C12 S1 O1 131.0(2)
C17 C12 S1 O2 -178.69(18)
C13 C12 S1 O2 0.6(2)
C17 C12 S1 C9 66.7(2)
C13 C12 S1 C9 -114.0(2)
