#------------------------------------------------------------------------------
#$Date: 2017-09-28 16:02:44 +0300 (Thu, 28 Sep 2017) $
#$Revision: 201426 $
#$URL: file:///home/coder/svn-repositories/cod/cif/1/54/74/1547424.cif $
#------------------------------------------------------------------------------
#
# This file is available in the Crystallography Open Database (COD),
# http://www.crystallography.net/
#
# All data on this site have been placed in the public domain by the
# contributors.
#
data_1547424
loop_
_publ_author_name
'Anuradha R. Pallipurath'
'Jonathan M. Skelton'
'Mark R. Warren'
'Naghmeh Kamali'
'Patrick McArdle'
'Andrea Erxleben'
_publ_section_title
;
 Sulfamerazine: Understanding the Influence of Slip Planes in the
 Polymorphic Phase Transformation through X-Ray Crystallographic Studies
 and ab Initio Lattice Dynamics
;
_journal_name_full               'Molecular Pharmaceutics'
_journal_page_first              3735
_journal_page_last               3748
_journal_paper_doi               10.1021/acs.molpharmaceut.5b00504
_journal_volume                  12
_journal_year                    2015
_chemical_absolute_configuration ad
_chemical_formula_moiety         'C11 H12 N4 O2 S'
_chemical_formula_sum            'C11 H12 N4 O2 S'
_chemical_formula_weight         264.31
_space_group_crystal_system      orthorhombic
_space_group_IT_number           33
_space_group_name_Hall           'P 2c -2n'
_space_group_name_H-M_alt        'P n a 21'
_symmetry_space_group_name_Hall  'P 2c -2n'
_symmetry_space_group_name_H-M   'P n a 21'
_atom_sites_solution_hydrogens   mixed
_cell_angle_alpha                90
_cell_angle_beta                 90
_cell_angle_gamma                90
_cell_formula_units_Z            8
_cell_length_a                   14.49140(10)
_cell_length_b                   8.20690(10)
_cell_length_c                   21.9332(3)
_cell_measurement_reflns_used    10285
_cell_measurement_temperature    260
_cell_measurement_theta_max      29.4560
_cell_measurement_theta_min      1.7990
_cell_volume                     2608.50(5)
_computing_cell_refinement
;
CrysAlisPro, Agilent Technologies,
Version 1.171.37.35 (release 13-08-2014 CrysAlis171 .NET)
(compiled Aug 13 2014,18:06:01)
;
_computing_data_collection
;
CrysAlisPro, Agilent Technologies,
Version 1.171.37.35 (release 13-08-2014 CrysAlis171 .NET)
(compiled Aug 13 2014,18:06:01)
;
_computing_data_reduction
;
CrysAlisPro, Agilent Technologies,
Version 1.171.37.35 (release 13-08-2014 CrysAlis171 .NET)
(compiled Aug 13 2014,18:06:01)
;
_computing_molecular_graphics    OSCAIL
_computing_structure_refinement  'SHELXL-2014/7 (Sheldrick, 2014)'
_computing_structure_solution    SHELXT
_diffrn_ambient_temperature      260
_diffrn_measured_fraction_theta_full 0.998
_diffrn_measured_fraction_theta_max 0.999
_diffrn_measurement_device       'CrystalLogic Kappa (3 circle)'
_diffrn_measurement_device_type  'Rigaku Saturn724+ (2x2 bin mode)'
_diffrn_measurement_method
;
omega rotation with 1 degree frames
;
_diffrn_measurement_specimen_support 'MiTeGen loop'
_diffrn_radiation_monochromator  'double crystal Silicon 111'
_diffrn_radiation_source         'Diamond Light Source Beamline I19'
_diffrn_radiation_type           Synchrotron
_diffrn_radiation_wavelength     0.68890
_diffrn_reflns_av_R_equivalents  0.0454
_diffrn_reflns_av_unetI/netI     0.0430
_diffrn_reflns_Laue_measured_fraction_full 0.998
_diffrn_reflns_Laue_measured_fraction_max 0.999
_diffrn_reflns_limit_h_max       20
_diffrn_reflns_limit_h_min       -13
_diffrn_reflns_limit_k_max       11
_diffrn_reflns_limit_k_min       -11
_diffrn_reflns_limit_l_max       27
_diffrn_reflns_limit_l_min       -31
_diffrn_reflns_number            23639
_diffrn_reflns_point_group_measured_fraction_full 0.989
_diffrn_reflns_point_group_measured_fraction_max 0.970
_diffrn_reflns_theta_full        24.415
_diffrn_reflns_theta_max         29.477
_diffrn_reflns_theta_min         2.568
_exptl_absorpt_coefficient_mu    0.248
_exptl_absorpt_correction_T_max  1.00000
_exptl_absorpt_correction_T_min  0.99546
_exptl_absorpt_process_details
;
CrysAlisPro, Agilent Technologies,
Version 1.171.36.28 (release 01-02-2013 CrysAlis171 .NET)
Empirical absorption correction using spherical harmonics,
implemented in SCALE3 ABSPACK scaling algorithm.
;
_exptl_crystal_colour            Colourless
_exptl_crystal_density_diffrn    1.346
_exptl_crystal_description       Parallelepiped
_exptl_crystal_F_000             1104
_exptl_crystal_size_max          0.50
_exptl_crystal_size_mid          0.40
_exptl_crystal_size_min          0.20
_refine_diff_density_max         0.228
_refine_diff_density_min         -0.296
_refine_diff_density_rms         0.045
_refine_ls_abs_structure_details
;
 Flack x determined using 2167 quotients [(I+)-(I-)]/[(I+)+(I-)]
 (Parsons, Flack and Wagner, Acta Cryst. B69 (2013) 249-259).
;
_refine_ls_abs_structure_Flack   0.03(5)
_refine_ls_extinction_coef       .
_refine_ls_extinction_method     none
_refine_ls_goodness_of_fit_ref   1.015
_refine_ls_hydrogen_treatment    mixed
_refine_ls_matrix_type           full
_refine_ls_number_parameters     344
_refine_ls_number_reflns         7727
_refine_ls_number_restraints     1
_refine_ls_restrained_S_all      1.015
_refine_ls_R_factor_all          0.0674
_refine_ls_R_factor_gt           0.0476
_refine_ls_shift/su_max          0.000
_refine_ls_shift/su_mean         0.000
_refine_ls_structure_factor_coef Fsqd
_refine_ls_weighting_details
'w=1/[\s^2^(Fo^2^)+(0.0541P)^2^+0.3587P] where P=(Fo^2^+2Fc^2^)/3'
_refine_ls_weighting_scheme      calc
_refine_ls_wR_factor_gt          0.1103
_refine_ls_wR_factor_ref         0.1257
_reflns_Friedel_coverage         0.897
_reflns_Friedel_fraction_full    0.978
_reflns_Friedel_fraction_max     0.939
_reflns_number_gt                5884
_reflns_number_total             7727
_reflns_threshold_expression     'I > 2\s(I)'
_cod_data_source_file            Exp_Form-I2FSynchrotron_Form-I_260K.cif
_cod_data_source_block           260k_smz-f1_a
_cod_database_code               1547424
_shelx_space_group_comment
;
The symmetry employed for this shelxl refinement is uniquely defined
by the following loop, which should always be used as a source of
symmetry information in preference to the above space-group names.
They are only intended as comments.
;
_shelx_estimated_absorpt_t_min   0.886
_shelx_estimated_absorpt_t_max   0.952
_shelx_res_file
;
    260k_smz-f1_a.res created by SHELXL-2014/7
TITL 260k_smz-f1_a.res in Pna2(1)
REM Old TITL 006_260K_SulfamerazineF1_ in Pna2(1)
REM SHELXT solution in Pna2(1)
REM R1 0.104,  Rweak 0.020,  Alpha 0.003,  Orientation as input
REM Flack x =  0.033 ( 0.043 ) from Parsons' quotients
REM Formula found by SHELXT:  C26 N4 O4 S2
CELL  0.68890  14.4914   8.2069  21.9332   90.000   90.000   90.000
ZERR    8.000   0.0001   0.0001   0.0003    0.000    0.000    0.000
REM SG 33 4 4 Pna21 PGmm2 Orthorhombic
LATT -1
REM SG  ASUN  1  .5 .5 1.
REM SG  ORGN  on 2(1)
SYMM -X,-Y,0.5+Z
SYMM 0.5+X,0.5-Y,Z
SYMM 0.5-X,0.5+Y,0.5+Z
SFAC C H N O S
UNIT 88.00 96.00 32.00 16.00 8.00
L.S. 10
SIZE    0.50  0.40  0.20
BOND $H
FMAP 2
PLAN 20
ACTA
CONF
EQIV $1 x, y-1, z
HTAB N5 O4_$1
EQIV $2 -x+3/2, y+1/2, z-1/2
HTAB N1 O4_$2
EQIV $3 x, y+1, z
HTAB N1 O1_$3
HTAB N2 N8
HTAB N6 N4
LIST 4
WGHT    0.054100    0.358700
FVAR       0.40910   0.35344
S1    5    0.646464    0.495582    0.344368    11.00000    0.03300    0.03841 =
         0.03564    0.00309   -0.00138   -0.00218
S2    5    0.577814    0.495412    0.652498    11.00000    0.03183    0.03801 =
         0.03396    0.00377   -0.00174   -0.00219
O1    4    0.689797    0.371215    0.308878    11.00000    0.05570    0.03806 =
         0.04568   -0.00639    0.00259   -0.00194
O2    4    0.549390    0.522549    0.337846    11.00000    0.03411    0.05697 =
         0.04750    0.00833   -0.00769   -0.00738
O3    4    0.675097    0.468096    0.658755    11.00000    0.03332    0.05644 =
         0.04330    0.00866   -0.00557   -0.00231
O4    4    0.535451    0.622724    0.686925    11.00000    0.05160    0.03540 =
         0.04998   -0.00387   -0.00084   -0.00289
N1    3    0.842924    1.115862    0.312387    11.00000    0.04764    0.04037 =
         0.07553   -0.00934    0.02123   -0.00501
N2    3    0.655772    0.449437    0.417298    11.00000    0.02858    0.05339 =
         0.03876    0.01036   -0.00027    0.00146
N3    3    0.814798    0.409768    0.417647    11.00000    0.03246    0.04606 =
         0.04628    0.00466    0.00105    0.00355
N4    3    0.728165    0.428912    0.509541    11.00000    0.04023    0.09094 =
         0.03771    0.00715   -0.00076    0.01492
N5    3    0.380626   -0.119787    0.695783    11.00000    0.05736    0.04019 =
         0.10451   -0.00681    0.02224   -0.01007
AFIX  93
H5A   2    0.324300   -0.118468    0.708121    11.00000   -1.30000
H5B   2    0.408016   -0.211186    0.689433    11.00000   -1.30000
AFIX   0
N6    3    0.568158    0.536946    0.579249    11.00000    0.03078    0.06133 =
         0.03487    0.01125    0.00382    0.00330
N7    3    0.409680    0.585271    0.579907    11.00000    0.03560    0.05002 =
         0.04526    0.00433    0.00424    0.00537
N8    3    0.496366    0.566147    0.487528    11.00000    0.04119    0.08503 =
         0.04054    0.00768   -0.00332    0.01445
C1    1    0.705528    0.677788    0.334202    11.00000    0.03184    0.03523 =
         0.03161    0.00326    0.00043    0.00048
C2    1    0.795102    0.679979    0.310736    11.00000    0.03394    0.03710 =
         0.03226   -0.00051    0.00015    0.00501
AFIX  43
H2    2    0.823976    0.582888    0.300053    11.00000   -1.30000
AFIX   0
C3    1    0.840495    0.825349    0.303444    11.00000    0.02833    0.04362 =
         0.03035   -0.00224    0.00307   -0.00002
AFIX  43
H3    2    0.900354    0.826201    0.288159    11.00000   -1.30000
AFIX   0
C4    1    0.797334    0.972868    0.318866    11.00000    0.03746    0.03653 =
         0.03560   -0.00157    0.00067   -0.00245
C5    1    0.707306    0.968921    0.342575    11.00000    0.04056    0.03780 =
         0.04609   -0.00362    0.00908    0.00472
AFIX  43
H5    2    0.678032    1.065636    0.353260    11.00000   -1.30000
AFIX   0
C6    1    0.662302    0.823086    0.350061    11.00000    0.03343    0.04005 =
         0.04651   -0.00163    0.00925    0.00426
AFIX  43
H6    2    0.602711    0.821422    0.365787    11.00000   -1.30000
AFIX   0
C7    1    0.737078    0.428447    0.449166    11.00000    0.03236    0.04124 =
         0.04103    0.00766    0.00093    0.00283
C8    1    0.806242    0.403128    0.540674    11.00000    0.05263    0.13141 =
         0.04556    0.00744   -0.00589    0.02676
AFIX  43
H8    2    0.803755    0.399715    0.583024    11.00000   -1.30000
AFIX   0
C9    1    0.889317    0.381676    0.512580    11.00000    0.04077    0.11593 =
         0.05554    0.00089   -0.01071    0.02038
AFIX  43
H9    2    0.942553    0.362977    0.535202    11.00000   -1.30000
AFIX   0
C10   1    0.892395    0.388383    0.449984    11.00000    0.03446    0.05655 =
         0.06042   -0.00149   -0.00061    0.00850
C11   1    0.979268    0.371075    0.414280    11.00000    0.03836    0.08722 =
         0.07891   -0.00522    0.00615    0.01073
AFIX 137
H11A  2    0.986671    0.259593    0.401961    11.00000   -1.30000
H11B  2    1.030772    0.403091    0.439064    11.00000   -1.30000
H11C  2    0.976356    0.439386    0.378802    11.00000   -1.30000
AFIX   0
C12   1    0.518966    0.315136    0.665714    11.00000    0.03363    0.03548 =
         0.03348   -0.00085    0.00255    0.00015
C13   1    0.563758    0.167953    0.655500    11.00000    0.03577    0.03971 =
         0.05980    0.00109    0.00888    0.00317
AFIX  43
H13   2    0.624517    0.166970    0.641854    11.00000   -1.30000
AFIX   0
C14   1    0.517920    0.023686    0.665641    11.00000    0.04278    0.03590 =
         0.07376   -0.00305    0.00753    0.00502
AFIX  43
H14   2    0.548073   -0.074605    0.658687    11.00000   -1.30000
AFIX   0
C15   1    0.426427    0.022798    0.686305    11.00000    0.04227    0.03694 =
         0.04868   -0.00325    0.00328   -0.00323
C16   1    0.382399    0.171514    0.696519    11.00000    0.03489    0.04189 =
         0.04238   -0.00453    0.00657   -0.00261
AFIX  43
H16   2    0.321743    0.172873    0.710360    11.00000   -1.30000
AFIX   0
C17   1    0.428038    0.316801    0.686270    11.00000    0.03527    0.03603 =
         0.03619   -0.00291    0.00291    0.00257
AFIX  43
H17   2    0.398124    0.415393    0.693078    11.00000   -1.30000
AFIX   0
C18   1    0.486480    0.564184    0.548197    11.00000    0.03442    0.04412 =
         0.03507    0.00367   -0.00096    0.00147
C19   1    0.418841    0.598389    0.456672    11.00000    0.04991    0.13583 =
         0.03989    0.00132   -0.01106    0.02615
AFIX  43
H19   2    0.421294    0.602671    0.414332    11.00000   -1.30000
AFIX   0
C20   1    0.336078    0.625312    0.484980    11.00000    0.04726    0.12037 =
         0.06064   -0.00565   -0.01502    0.03248
AFIX  43
H20   2    0.283464    0.650102    0.462543    11.00000   -1.30000
AFIX   0
C21   1    0.332839    0.614664    0.547731    11.00000    0.03768    0.05946 =
         0.05622   -0.00314   -0.00363    0.00905
C22   1    0.245876    0.635078    0.583397    11.00000    0.03768    0.09416 =
         0.08627   -0.00355    0.00417    0.01112
AFIX 137
H22A  2    0.248791    0.734510    0.606371    11.00000   -1.30000
H22B  2    0.238633    0.544699    0.610769    11.00000   -1.30000
H22C  2    0.194277    0.639152    0.555990    11.00000   -1.30000
AFIX   0
H1N1  2    0.891186    1.115366    0.292348    11.00000    0.05541
H2N1  2    0.811342    1.196579    0.315014    11.00000    0.05722
H1N2  2    0.615217    0.473422    0.435906    11.00000    0.03503
H1N6  2    0.620673    0.502660    0.558399    11.00000    0.05883
HKLF 4
REM  260k_smz-f1_a.res in Pna2(1)
REM R1 =  0.0476 for    5884 Fo > 4sig(Fo)  and  0.0674 for all    7727 data
REM    344 parameters refined using      1 restraints
END
WGHT      0.0486      0.3863
REM Highest difference peak  0.228,  deepest hole -0.296,  1-sigma level  0.045
Q1    1   0.6937  0.5858  0.3444  11.00000  0.05    0.23
Q2    1   0.8112  0.7593  0.3065  11.00000  0.05    0.20
Q3    1   0.7540  0.9569  0.3305  11.00000  0.05    0.20
Q4    1   0.5459  0.3851  0.6594  11.00000  0.05    0.19
Q5    1   0.4742  0.3287  0.6723  11.00000  0.05    0.19
Q6    1   0.7453  0.6873  0.3216  11.00000  0.05    0.19
Q7    1   0.5405  0.2565  0.6496  11.00000  0.05    0.19
Q8    1   0.8197  0.9004  0.3189  11.00000  0.05    0.18
Q9    1   0.5514  0.0893  0.6660  11.00000  0.05    0.18
Q10   1   0.5172  0.4338  0.6544  11.00000  0.05    0.17
Q11   1   0.2690  0.5745  0.4679  11.00000  0.05    0.17
Q12   1   0.9504  0.5282  0.5609  11.00000  0.05    0.17
Q13   1   0.6627  0.4421  0.3074  11.00000  0.05    0.17
Q14   1   0.4558  0.5135  0.4733  11.00000  0.05    0.17
Q15   1   0.4955  0.5049  0.5017  11.00000  0.05    0.17
Q16   1   0.6913  0.8983  0.3496  11.00000  0.05    0.17
Q17   1   0.8108  1.1791  0.2725  11.00000  0.05    0.16
Q18   1   0.6949  0.3649  0.3400  11.00000  0.05    0.16
Q19   1   0.6858  0.7422  0.3438  11.00000  0.05    0.16
Q20   1   0.8089  0.4187  0.4010  11.00000  0.05    0.16
;
_shelx_res_checksum              8811
_shelx_hkl_file
;
   0   0 -29    2.20    1.31
   0   0 -28  105.57    9.85
   0   0 -27   -0.70    1.49
   0   0 -26  321.82   16.47
   0   0 -25    0.98    0.93
   0   0 -24    0.09    1.01
   0   0 -23    0.25    0.81
   0   0 -22   29.95    4.78
   0   0 -21    2.01    1.75
   0   0 -20  340.67   15.05
   0   0 -19    0.57    1.33
   0   0 -18   32.93    4.55
   0   0 -17    0.33    0.69
   0   0 -16  196.98   10.17
   0   0 -15   -0.67    0.76
   0   0 -14   46.96    4.71
   0   0 -13   -0.11    0.67
   0   0 -12 2259.48   29.97
   0   0 -11    0.37    0.64
   0   0 -10  289.73    9.77
   0   0  -9    0.11    0.49
   0   0  -8 9999.00   51.24
   0   0  -7    0.07    0.41
   0   0  -5   -0.24    0.47
   0   0  -4 2640.96   18.88
   0   0  -3    1.76    0.43
   0   0   4 2680.53   14.18
   0   0   5    0.11    0.21
   0   0   7    0.03    0.38
   0   0   9    0.25    0.35
   0   0  10  287.03    7.33
   0   0  11    0.14    0.32
   0   0  12 2360.76   22.90
   0   0  13   -0.17    0.44
   0   0  14   41.79    3.34
   0   0  15    0.15    0.55
   0   0  16  204.16    8.03
   0   0  17   -0.30    0.48
   0   0  17    0.01    0.86
   0   0  18   35.17    3.62
   0   0  19   -0.03    0.50
   0  -1 -31    4.01    2.57
   0  -1 -30    3.35    2.50
   0  -1 -29    2.01    1.80
   0  -1 -28    2.78    2.27
   0  -1 -27    0.19    0.92
   0   1 -26   -1.56    1.03
   0  -1 -26    1.45    2.15
   0   1 -25    1.06    1.61
   0  -1 -25   -0.93    1.58
   0   1 -24    0.59    1.70
   0  -1 -24   -0.07    1.08
   0   1 -23   -1.39    1.74
   0  -1 -23   -0.19    0.87
   0  -1 -22    0.39    1.12
   0   1 -22   -0.86    1.54
   0  -1 -21   64.64    6.45
   0   1 -21   66.25    6.83
   0   1 -20    1.34    1.41
   0  -1 -20    0.09    1.96
   0   1 -19    7.14    2.15
   0  -1 -19    9.60    2.79
   0  -1 -18    0.80    1.12
   0   1 -18   -0.06    1.10
   0  -1 -17   14.16    2.80
   0   1 -17    7.45    2.03
   0   1 -16   -0.38    0.99
   0  -1 -16   -0.93    0.94
   0  -1 -15   48.73    5.08
   0   1 -15   47.18    4.76
   0  -1 -14   -0.49    1.21
   0   1 -14   -0.04    0.50
   0  -1 -13   88.85    6.39
   0   1 -13   79.60    5.74
   0  -1 -12    0.57    1.09
   0   1 -12    0.16    0.70
   0  -1 -11   31.32    3.62
   0   1 -11   27.53    3.01
   0  -1 -10    0.04    0.99
   0   1 -10    0.18    0.34
   0   1  -9 1046.77   10.31
   0   1  -9 1023.29   16.46
   0  -1  -9 1045.19   18.51
   0   1  -8   -0.01    0.16
   0  -1  -8    0.16    0.53
   0   1  -8   -0.58    0.78
   0   1  -7  980.98    9.38
   0  -1  -7  956.41   15.89
   0   1  -7  992.04   13.98
   0  -1  -6   -0.04    0.41
   0   1  -6    0.23    0.36
   0   1  -6   -0.01    0.25
   0  -1  -5 1783.99   19.05
   0   1  -5 1764.57   15.44
   0  -1  -5 1797.99   17.62
   0  -1  -4    0.63    0.52
   0  -1  -4   -0.24    0.50
   0   1  -4    0.24    0.24
   0   1  -4   -0.08    0.14
   0   1  -3  801.67    8.37
   0  -1  -3  830.76   10.72
   0  -1  -3  813.32   10.53
   0  -1  -2    0.30    0.30
   0  -1  -2    0.08    0.34
   0   1  -2    0.05    0.11
   0  -1  -1  334.25    5.06
   0   1  -1  339.39    5.65
   0  -1  -1  348.26    6.05
   0   1   0    0.21    0.26
   0  -1   0   -0.13    0.10
   0   1   1  350.49    6.14
   0  -1   1  333.81    5.06
   0  -1   2    0.06    0.18
   0   1   2   -0.04    0.20
   0   1   3  813.01   10.02
   0  -1   5 1799.51   10.57
   0  -1   6    0.06    0.17
   0  -1   7  974.17    8.96
   0  -1   8   -0.04    0.24
   0   1   8   -0.04    0.28
   0   1   9 1035.74   16.12
   0  -1   9 1061.54   10.79
   0  -1  10   -0.13    0.18
   0   1  10   -0.64    0.67
   0  -1  11   27.61    1.97
   0   1  11   31.62    2.98
   0   1  12   -0.13    0.55
   0  -1  12    0.64    0.24
   0   1  13   84.58    5.23
   0  -1  13   90.25    4.02
   0   1  14    0.11    0.79
   0  -1  14    0.02    0.32
   0   1  14    0.40    0.32
   0   1  15   47.37    3.68
   0  -1  15   47.20    3.17
   0   1  15   51.73    4.37
   0   1  16    0.86    0.82
   0   1  16    0.33    0.71
   0  -1  16    0.81    0.71
   0  -1  17   11.43    1.72
   0   1  17    8.91    1.74
   0   1  17   11.47    2.14
   0   1  18    0.43    0.78
   0   1  18   -0.76    1.09
   0   1  19   11.72    2.45
   0   1  20    0.24    0.55
   0   1  21   59.24    5.57
   0  -2 -30   56.75    7.62
   0  -2 -29    1.30    1.82
   0  -2 -28   11.72    3.28
   0  -2 -27    1.96    2.09
   0  -2 -26   67.37    7.59
   0  -2 -25   -3.03    1.78
   0  -2 -24    2.18    1.70
   0  -2 -23    0.86    0.79
   0  -2 -22   60.86    6.85
   0  -2 -21    0.23    1.24
   0  -2 -20   87.33    7.82
   0   2 -19    0.99    1.12
   0  -2 -19   -0.35    0.71
   0  -2 -18   30.77    4.31
   0   2 -18   40.86    4.81
   0   2 -17    1.04    1.44
   0  -2 -17    0.91    1.57
   0   2 -16  456.64   14.91
   0  -2 -16  481.80   16.66
   0  -2 -15    0.05    0.78
   0   2 -15    1.16    1.08
   0   2 -14  211.04    9.43
   0   2 -14  197.51    5.76
   0  -2 -14  210.74   10.46
   0  -2 -13    0.32    0.53
   0   2 -13    1.34    0.63
   0   2 -13    0.08    0.39
   0  -2 -12 1024.22   21.98
   0   2 -12 1033.29   12.99
   0   2 -12 1051.74   19.09
   0   2 -11   -0.66    0.44
   0   2 -11    0.38    0.33
   0  -2 -11   -0.27    0.66
   0   2 -10 1326.33   19.34
   0   2 -10 1349.07   14.94
   0  -2 -10 1337.10   22.98
   0   2  -9    0.46    0.37
   0  -2  -9    1.71    1.07
   0  -2  -8   91.80    5.57
   0   2  -8  101.43    4.11
   0  -2  -7   -0.34    0.45
   0   2  -7    0.22    0.42
   0  -2  -7   -0.02    0.52
   0  -2  -6  999.71   16.66
   0   2  -6  996.08   13.19
   0  -2  -5   -0.15    0.31
   0   2  -5    0.28    0.31
   0  -2  -5    0.05    0.33
   0   2  -4 1061.27   13.86
   0  -2  -4 1042.19   15.90
   0  -2  -3    0.04    0.43
   0  -2  -3    0.56    0.54
   0   2  -3    0.17    0.38
   0  -2  -2  422.71    8.04
   0   2  -2  395.30    8.64
   0  -2  -2  411.11    9.32
   0  -2  -1    0.38    0.36
   0   2  -1    0.29    0.47
   0  -2  -1    0.05    0.34
   0   2   1    0.06    0.34
   0  -2   1   -0.44    0.20
   0  -2   2  418.25    5.38
   0  -2   2  407.45    7.92
   0   2   2  395.19    9.25
   0  -2   3    0.52    0.36
   0   2   3    1.31    0.86
   0  -2   4 1115.76   12.14
   0   2   4 1103.00   16.10
   0  -2   5    0.33    0.42
   0   2   5   -0.25    0.46
   0   2   6  996.36   16.03
   0   2   7    0.67    0.82
   0  -2   7    0.12    0.32
   0   2   8   99.54    5.20
   0  -2   8   97.89    3.32
   0  -2   9   -0.10    0.35
   0   2   9   -0.25    0.58
   0   2  10 1355.50   20.07
   0  -2  10 1351.11   12.60
   0   2  11    0.22    0.55
   0  -2  11    0.56    0.26
   0   2  11   -0.24    0.50
   0  -2  12  996.87   11.54
   0   2  12 1012.06   18.27
   0  -2  13   -0.01    0.23
   0   2  13    0.16    0.78
   0   2  13   -0.56    0.89
   0   2  14  222.28    9.07
   0   2  14  203.69    9.44
   0  -2  15    0.35    0.38
   0   2  15    0.13    0.71
   0   2  15    0.32    1.32
   0   2  16  493.06   13.86
   0   2  16  484.18   15.17
   0   2  17   -0.67    0.98
   0   2  17    0.26    1.21
   0   2  18   47.55    4.42
   0   2  18   29.90    4.02
   0   2  19    0.26    1.04
   0   2  19   -0.09    1.34
   0   2  20   89.10    7.14
   0   2  21   -0.81    0.94
   0   2  22   46.60    5.38
   0  -3 -30   -1.27    1.13
   0  -3 -29   -1.64    1.46
   0  -3 -28    0.09    1.64
   0  -3 -27    9.50    3.20
   0  -3 -26    1.82    2.30
   0  -3 -25   -0.94    0.86
   0  -3 -24   -1.36    0.82
   0  -3 -23    5.60    2.56
   0  -3 -22    0.14    1.38
   0  -3 -21   53.94    6.12
   0  -3 -20    0.79    1.26
   0  -3 -19   56.28    6.16
   0  -3 -18   -0.01    0.74
   0  -3 -17   28.98    4.48
   0  -3 -16    0.11    1.47
   0  -3 -15   68.37    6.20
   0  -3 -14   -0.55    0.65
   0   3 -14   -0.91    0.90
   0   3 -13   72.74    4.29
   0  -3 -13   84.52    6.50
   0  -3 -12    0.14    1.41
   0   3 -12   -0.39    0.81
   0  -3 -11   77.25    6.02
   0   3 -11   81.96    4.61
   0  -3 -10   -0.12    0.75
   0   3 -10    0.19    0.43
   0   3  -9 1738.11   21.35
   0  -3  -9 1685.39   26.37
   0  -3  -9 1668.29   26.25
   0   3  -8   -0.80    0.82
   0  -3  -8    0.70    1.34
   0  -3  -8   -0.45    0.95
   0  -3  -7    5.82    1.45
   0  -3  -7    9.88    1.95
   0   3  -7    7.19    1.48
   0  -3  -6   -0.12    0.63
   0  -3  -6    0.34    0.61
   0   3  -6    1.57    0.71
   0  -3  -5  359.36   10.14
   0  -3  -5  385.81   11.56
   0   3  -5  381.46   10.33
   0  -3  -4    0.25    0.36
   0  -3  -4    0.42    0.77
   0   3  -4    0.18    0.49
   0   3  -3  471.44   11.56
   0  -3  -3  491.69   10.71
   0  -3  -3  476.88   12.17
   0  -3  -2    0.62    0.50
   0  -3  -2    1.17    0.87
   0   3  -2   -0.49    0.51
   0  -3  -1 1004.17   13.23
   0   3  -1  998.48   17.21
   0   3   0   -0.38    0.71
   0  -3   0   -0.01    0.29
   0  -3   0   -0.54    0.55
   0  -3   1 1024.01   11.35
   0  -3   1 1022.82   16.26
   0   3   1 1020.42   17.53
   0  -3   2   -0.20    0.42
   0  -3   2   -0.06    0.27
   0  -3   3  486.89    7.12
   0   3   3  479.16   12.41
   0  -3   3  494.42   10.73
   0   3   4    0.12    0.40
   0  -3   4   -0.16    0.32
   0  -3   4    0.30    0.24
   0   3   5  386.91   11.45
   0  -3   5  376.34    8.99
   0  -3   6    0.28    0.32
   0   3   6    0.03    0.68
   0   3   7   10.25    1.74
   0  -3   7    5.23    0.97
   0   3   8    0.81    0.97
   0  -3   8   -0.09    0.23
   0  -3   9 1740.22   17.42
   0   3   9 1687.23   25.46
   0  -3  10   -0.03    0.45
   0   3  10    0.52    0.90
   0  -3  11   83.71    3.67
   0   3  11   87.38    5.95
   0   3  12    0.28    0.46
   0  -3  12    0.15    0.24
   0  -3  13   73.98    3.36
   0   3  13   84.15    6.55
   0   3  13   83.24    6.05
   0   3  14   -0.48    0.67
   0  -3  14    0.29    0.30
   0   3  14    0.99    1.03
   0   3  15   62.45    5.53
   0   3  15   75.75    6.51
   0   3  16   -0.10    0.76
   0   3  16   -0.18    0.56
   0   3  17   29.65    4.08
   0   3  17   29.91    4.05
   0   3  18   -0.29    0.89
   0   3  18    1.11    1.08
   0   3  19   62.56    6.31
   0   3  19   51.63    5.46
   0   3  20    0.45    1.40
   0   3  21   48.45    5.84
   0   3  22    1.71    1.87
   0   3  23    4.87    2.55
   0  -4 -29   -0.35    1.04
   0  -4 -28    1.10    1.83
   0  -4 -27    1.91    2.47
   0  -4 -26   27.42    5.31
   0  -4 -25   -0.05    1.54
   0  -4 -24    5.45    2.60
   0  -4 -23   -1.19    0.96
   0  -4 -22  130.12   10.09
   0  -4 -21    0.56    1.39
   0  -4 -20   30.30    4.60
   0  -4 -19    1.47    1.44
   0  -4 -18   97.64    8.18
   0  -4 -17    1.37    1.14
   0  -4 -16  468.58   17.39
   0  -4 -15    0.31    1.27
   0   4 -14  109.84    6.42
   0  -4 -14  131.72    8.88
   0   4 -13   -0.07    0.61
   0  -4 -13   -1.28    0.99
   0   4 -12  445.52   12.52
   0  -4 -12  443.32   15.31
   0   4 -11    0.19    0.66
   0  -4 -11    0.13    1.31
   0   4 -10 1201.75   21.08
   0  -4 -10 1210.29   24.15
   0  -4  -9   -0.85    1.08
   0   4  -9    0.95    1.38
   0  -4  -9    0.27    0.47
   0  -4  -8  321.43   12.27
   0   4  -8  349.70   11.32
   0  -4  -8  327.72   11.94
   0   4  -7    0.19    0.49
   0  -4  -7    0.12    0.47
   0  -4  -6  597.57   14.71
   0   4  -6  591.00   15.07
   0  -4  -6  595.57   16.27
   0   4  -5    0.00    0.55
   0  -4  -5    0.31    0.95
   0  -4  -5    0.08    0.56
   0   4  -4 1278.28   22.11
   0  -4  -4 1284.29   20.04
   0  -4  -4 1289.71   23.08
   0  -4  -3   -0.01    0.80
   0  -4  -3    0.63    1.01
   0   4  -3    0.56    0.80
   0  -4  -2  343.14    9.38
   0  -4  -2  347.19   11.55
   0   4  -2  349.37   11.62
   0   4  -1    0.80    0.72
   0  -4  -1    0.20    0.48
   0  -4  -1   -0.10    0.46
   0  -4   0  167.85    5.69
   0  -4   0  164.78    7.76
   0   4   0  159.78    7.98
   0  -4   1   -0.49    0.96
   0   4   1   -0.22    1.04
   0  -4   1    0.38    0.59
   0  -4   2  332.96   10.66
   0   4   2  304.48   11.25
   0  -4   2  331.84    7.11
   0  -4   3   -0.06    0.62
   0  -4   3    0.89    0.53
   0   4   3    1.42    1.06
   0  -4   4 1261.39   12.92
   0  -4   4 1251.82   19.97
   0   4   5    0.50    0.75
   0  -4   5    0.48    0.92
   0  -4   5    0.24    0.41
   0  -4   6  597.75    9.09
   0  -4   6  607.46   13.39
   0  -4   7   -0.60    0.73
   0   4   7    0.37    1.13
   0  -4   8  337.99    9.69
   0   4   8  334.37   12.57
   0  -4   9    0.21    0.50
   0   4   9   -0.25    1.05
   0   4  10 1199.55   24.04
   0  -4  10 1244.56   17.77
   0  -4  11    0.02    0.65
   0   4  11   -0.58    1.12
   0  -4  12  423.27    9.93
   0   4  12  463.28   15.71
   0  -4  13    0.04    0.31
   0   4  13    0.13    0.98
   0   4  14  114.40    7.95
   0   4  14  116.64    8.37
   0   4  15    0.68    0.81
   0   4  15    0.56    0.85
   0   4  16  453.65   17.15
   0   4  16  430.83   16.32
   0   4  17    1.07    1.34
   0   4  17    0.93    0.88
   0   4  18   89.34    7.62
   0   4  18   95.35    8.02
   0   4  19    0.21    1.18
   0   4  19    1.04    1.07
   0   4  20   25.68    4.29
   0   4  20   22.43    3.95
   0   4  21   -0.78    0.86
   0   4  22  140.11   10.56
   0   4  23    1.26    1.55
   0   4  24    0.51    1.54
   0  -5 -28    1.40    1.09
   0  -5 -27    1.85    1.39
   0  -5 -26   -0.26    1.65
   0  -5 -25    1.68    1.00
   0  -5 -24   -0.61    1.79
   0  -5 -23   14.74    3.58
   0  -5 -22   -0.62    1.97
   0  -5 -21    0.55    1.57
   0  -5 -20   -0.34    1.06
   0  -5 -19    4.51    1.61
   0  -5 -18   -0.71    0.97
   0  -5 -17    2.48    1.57
   0  -5 -16    0.27    1.57
   0  -5 -15    8.19    2.65
   0  -5 -14   -0.90    1.39
   0  -5 -13   27.45    4.16
   0   5 -13   17.99    2.75
   0   5 -12    1.26    1.04
   0  -5 -12   -1.28    0.70
   0   5 -11   11.94    2.53
   0  -5 -11   12.08    2.70
   0  -5 -10    1.54    1.77
   0  -5 -10    0.16    1.01
   0   5 -10   -0.57    0.79
   0  -5  -9    3.10    1.36
   0   5  -9    5.08    1.85
   0  -5  -9    1.04    1.07
   0  -5  -8    1.69    1.53
   0   5  -8    2.90    1.59
   0  -5  -8    0.18    1.14
   0  -5  -7   76.61    5.88
   0   5  -7   72.19    5.86
   0  -5  -7   63.70    5.86
   0  -5  -6   -0.19    0.93
   0   5  -6    0.36    0.59
   0  -5  -6    1.39    1.06
   0  -5  -5  119.05    6.75
   0   5  -5  119.23    7.49
   0  -5  -4   -0.98    1.27
   0  -5  -4   -0.36    0.78
   0   5  -4    0.41    0.70
   0  -5  -3  129.68    7.85
   0   5  -3  113.72    7.40
   0  -5  -3  107.78    6.02
   0  -5  -2   -0.32    1.03
   0  -5  -2    0.40    0.46
   0   5  -2   -0.25    0.78
   0  -5  -1   35.33    3.18
   0   5  -1   36.23    4.18
   0  -5  -1   31.83    3.80
   0   5   0   -0.35    0.94
   0  -5   0   -0.79    0.50
   0  -5   0    0.27    0.58
   0  -5   1   32.28    3.79
   0  -5   1   31.96    2.71
   0   5   1   26.34    3.43
   0  -5   2    0.47    0.68
   0  -5   2   -0.25    0.42
   0   5   2    0.50    0.95
   0  -5   3  119.78    7.00
   0  -5   3  115.72    4.48
   0   5   3  117.19    7.76
   0   5   4    0.51    0.96
   0  -5   4    0.48    0.77
   0  -5   4   -0.11    0.46
   0   5   5  118.39    7.87
   0  -5   5  113.24    6.73
   0  -5   6   -0.04    0.59
   0  -5   6    0.01    0.31
   0   5   6    0.11    1.00
   0   5   7   67.73    6.00
   0  -5   7   73.80    5.20
   0   5   8   -1.21    1.09
   0  -5   8   -0.34    0.65
   0  -5   8   -0.21    0.47
   0   5   9    3.44    1.48
   0  -5   9    4.72    1.50
   0  -5   9    3.61    0.93
   0  -5  10    1.09    1.16
   0   5  10   -0.01    1.55
   0  -5  11    6.71    1.88
   0   5  11   10.36    2.69
   0  -5  12   -0.19    0.44
   0   5  12    1.52    1.62
   0   5  13   18.02    3.46
   0   5  14   -0.15    1.14
   0   5  15    4.98    2.00
   0   5  15    5.07    1.50
   0   5  16    1.31    1.26
   0   5  16   -0.59    1.26
   0   5  17    2.94    1.39
   0   5  17    6.35    2.64
   0   5  18   -0.89    1.14
   0   5  18   -0.10    1.48
   0   5  19    3.23    2.09
   0   5  19    5.98    1.47
   0   5  20    0.18    1.00
   0   5  20   -1.39    1.80
   0   5  21    3.88    1.81
   0   5  21    0.69    1.21
   0   5  22    1.11    1.39
   0   5  23    9.45    2.96
   0   5  24    0.69    1.36
   0   5  25   -1.88    2.39
   0  -6 -26   57.76    7.63
   0  -6 -25    0.22    1.25
   0  -6 -24   16.39    4.05
   0  -6 -23    0.59    1.19
   0  -6 -22   91.34    8.84
   0  -6 -21   -1.21    1.37
   0  -6 -20   55.54    6.84
   0  -6 -19   -0.50    1.74
   0  -6 -18   -0.45    1.54
   0  -6 -17    0.55    1.16
   0  -6 -16  114.45    9.04
   0  -6 -15   -0.06    1.65
   0  -6 -14    5.68    2.30
   0  -6 -13    0.47    1.01
   0   6 -13   -0.05    0.99
   0   6 -12  145.64    9.22
   0  -6 -12  166.05   10.13
   0  -6 -11   -2.87    1.88
   0   6 -11   -0.19    1.26
   0  -6 -10  198.90   10.69
   0   6 -10  205.75   10.94
   0  -6  -9   -0.08    0.76
   0   6  -9    0.35    1.14
   0  -6  -9    0.01    1.04
   0  -6  -8   21.82    3.21
   0  -6  -8   18.63    3.59
   0   6  -8   24.72    3.92
   0   6  -7    2.73    2.06
   0  -6  -7    0.01    0.59
   0  -6  -7    2.95    2.15
   0   6  -6 1193.27   26.31
   0  -6  -6 1211.92   26.69
   0  -6  -6 1152.04   23.54
   0   6  -5    1.78    2.18
   0  -6  -5    1.03    0.78
   0  -6  -5    0.90    1.13
   0  -6  -4  526.59   17.25
   0   6  -4  528.48   17.40
   0  -6  -4  534.12   14.90
   0   6  -3    1.70    1.39
   0  -6  -3    0.12    0.50
   0  -6  -3   -0.49    1.45
   0   6  -2  838.24   21.98
   0  -6  -2  854.65   21.83
   0  -6  -2  864.85   17.61
   0  -6  -1    1.76    1.53
   0  -6  -1    1.42    2.03
   0   6  -1    2.03    1.60
   0  -6   0  654.99   14.47
   0   6   0  694.03   19.99
   0  -6   0  679.92   18.97
   0  -6   1   -0.27    0.47
   0   6   1    2.63    2.27
   0  -6   1   -0.10    1.33
   0  -6   2  840.40   14.33
   0  -6   2  886.81   21.28
   0   6   2  849.97   22.59
   0  -6   3    1.04    0.87
   0   6   3   -0.68    1.18
   0  -6   3   -0.16    0.75
   0  -6   4  508.41   15.98
   0   6   4  558.79   18.31
   0   6   5   -0.72    1.01
   0  -6   5    0.31    0.55
   0  -6   5    1.07    1.39
   0  -6   6 1251.98   24.46
   0   6   6 1149.55   27.13
   0  -6   7    1.19    1.42
   0   6   7   -1.42    1.60
   0  -6   8   21.10    3.22
   0   6   8   24.46    4.13
   0  -6   9   -0.33    0.64
   0   6   9    0.94    1.14
   0   6  10  200.91   11.48
   0  -6  10  200.86    9.37
   0  -6  11    0.95    0.99
   0   6  11    1.86    1.63
   0   6  12  150.05   10.21
   0   6  13    1.46    1.26
   0   6  14    7.06    2.65
   0   6  15    2.11    2.22
   0   6  15   -0.33    1.48
   0   6  16  116.21    9.51
   0   6  16  107.43    9.43
   0   6  17   -1.98    2.01
   0   6  17    0.71    1.88
   0   6  18    0.25    1.01
   0   6  18    2.38    2.36
   0   6  19   -0.49    1.14
   0   6  19    0.08    1.16
   0   6  20   38.67    5.68
   0   6  20   44.85    6.11
   0   6  21    0.52    1.08
   0   6  21   -0.68    1.18
   0   6  22   91.08    9.14
   0   6  23    0.09    1.51
   0   6  24   14.01    3.71
   0   6  25   -0.82    1.65
   0   6  26   39.40    6.68
   0  -7 -25    3.25    2.27
   0  -7 -24   -1.19    1.26
   0  -7 -23   -0.34    1.66
   0  -7 -22   -1.09    1.84
   0  -7 -21    8.92    3.14
   0  -7 -20   -1.58    2.10
   0  -7 -19   12.76    2.83
   0  -7 -18    2.39    2.91
   0  -7 -17    3.09    1.61
   0  -7 -16    0.22    1.20
   0  -7 -15   18.93    3.96
   0  -7 -14   -0.51    1.88
   0  -7 -13   24.82    4.51
   0   7 -12   -0.10    1.72
   0  -7 -12    0.80    1.18
   0   7 -11   10.53    2.79
   0  -7 -11    8.86    2.47
   0  -7 -10    3.05    1.78
   0   7 -10   -0.96    1.82
   0   7  -9   72.82    7.08
   0  -7  -9   85.04    7.00
   0  -7  -9   85.05    7.89
   0   7  -8   -0.28    1.41
   0  -7  -8   -0.58    0.75
   0  -7  -8   -0.28    1.02
   0  -7  -7  414.14   15.72
   0  -7  -7  418.51   16.80
   0   7  -7  421.85   17.01
   0  -7  -6    0.70    0.74
   0  -7  -6   -0.01    1.16
   0   7  -6    1.90    1.89
   0  -7  -5  246.44   11.33
   0   7  -5  290.67   13.94
   0  -7  -5  271.67   13.43
   0   7  -4    1.78    2.27
   0  -7  -4    0.01    0.93
   0  -7  -4   -0.78    1.26
   0  -7  -3   27.22    3.60
   0  -7  -3   32.80    4.48
   0   7  -3   31.01    4.61
   0  -7  -2    0.67    0.73
   0   7  -2    1.40    1.08
   0  -7  -2   -0.26    1.00
   0   7  -1  803.56   23.43
   0  -7  -1  784.62   17.53
   0  -7  -1  778.37   22.27
   0  -7   0    2.16    2.37
   0  -7   0    0.24    0.96
   0   7   0   -1.16    0.85
   0  -7   1  832.64   22.67
   0   7   1  802.45   23.17
   0  -7   2   -0.56    1.48
   0   7   2    0.36    0.96
   0  -7   3   25.44    4.14
   0   7   3   27.36    4.52
   0  -7   4   -0.35    1.61
   0   7   4    0.62    1.27
   0  -7   5  271.74   12.67
   0   7   5  271.28   13.83
   0   7   6   -1.58    1.51
   0  -7   6    0.44    0.88
   0   7   7  414.86   17.30
   0  -7   7  399.20   15.13
   0   7   8   -0.74    1.66
   0  -7   8    0.84    1.63
   0  -7   9   78.86    6.69
   0   7   9   78.89    7.42
   0   7  10   -0.95    2.08
   0  -7  10    3.34    1.90
   0   7  11    9.10    2.87
   0   7  12   -0.69    0.93
   0   7  13   23.53    4.36
   0   7  14   -1.62    2.20
   0   7  15   15.04    3.65
   0   7  15   18.40    3.88
   0   7  16   -0.07    1.51
   0   7  16    0.62    1.01
   0   7  17    6.63    2.47
   0   7  17    2.77    1.45
   0   7  18    0.69    1.05
   0   7  18    2.73    1.72
   0   7  19    8.09    3.26
   0   7  19    6.09    2.28
   0   7  20   -1.43    1.07
   0   7  20   -0.70    1.56
   0   7  21    6.35    2.55
   0   7  21    6.41    2.89
   0   7  22    2.00    2.67
   0   7  23    1.42    1.43
   0   7  24    0.11    1.62
   0   7  25    1.81    1.68
   0  -8 -22   13.59    4.24
   0  -8 -21   -0.48    1.83
   0  -8 -20   16.67    4.06
   0  -8 -19    1.63    1.24
   0  -8 -18   -0.67    1.16
   0  -8 -17    1.30    2.24
   0  -8 -16   23.16    4.54
   0  -8 -15   -0.70    1.35
   0  -8 -14    9.06    3.15
   0  -8 -13    0.22    1.63
   0  -8 -12    8.41    2.94
   0   8 -12   14.15    4.46
   0  -8 -11    0.98    0.92
   0   8 -11   -2.68    1.63
   0  -8 -10   37.53    5.21
   0   8 -10   48.85    6.30
   0  -8  -9   -0.70    1.38
   0   8  -9    2.16    2.25
   0  -8  -8    3.42    2.15
   0   8  -8    1.69    1.06
   0  -8  -7   -0.17    1.23
   0   8  -7   -1.27    1.51
   0  -8  -7    3.06    2.03
   0  -8  -6   78.52    7.62
   0   8  -6   89.10    8.35
   0  -8  -6   61.28    6.13
   0  -8  -5   -0.79    1.16
   0   8  -5   -0.03    0.95
   0  -8  -5   -0.71    1.59
   0   8  -4   40.07    5.48
   0  -8  -4   35.88    5.27
   0  -8  -4   33.84    4.48
   0  -8  -3   -0.18    1.07
   0   8  -3    1.56    1.86
   0  -8  -2   44.63    5.58
   0   8  -2   40.25    5.52
   0   8  -1    0.11    1.10
   0  -8  -1    1.59    1.47
   0  -8   0   72.25    7.10
   0   8   0   68.99    7.38
   0   8   1   -1.30    1.00
   0  -8   1    0.36    1.05
   0   8   2   35.97    5.35
   0  -8   2   39.35    5.52
   0  -8   3    0.38    1.24
   0   8   3    1.11    2.26
   0   8   4   46.07    5.91
   0  -8   4   40.91    5.56
   0   8   5   -0.48    0.82
   0  -8   5    0.41    1.48
   0   8   6   71.06    7.31
   0  -8   6   74.44    7.18
   0   8   7   -0.68    1.40
   0  -8   7   -0.64    1.23
   0   8   8   -0.69    1.68
   0  -8   8   -1.61    1.01
   0  -8   9    1.60    1.86
   0   8   9    0.93    1.83
   0   8  10   37.22    5.39
   0   8  11    0.37    1.15
   0   8  12    6.63    2.37
   0   8  13   -1.39    1.48
   0   8  14    1.34    1.04
   0   8  14    2.37    2.07
   0   8  15   -0.58    1.69
   0   8  15   -0.13    1.02
   0   8  16   18.48    4.15
   0   8  16   24.92    4.77
   0   8  17    0.84    1.54
   0   8  17   -0.93    2.00
   0   8  18    1.71    2.58
   0   8  18   -2.70    2.20
   0   8  19    4.04    2.91
   0   8  19   -1.30    1.68
   0   8  20   12.42    4.14
   0   8  20   18.46    4.10
   0   8  21   -1.13    1.85
   0   8  21   -2.31    2.40
   0   8  22    6.12    3.07
   0  -9 -20    1.10    1.34
   0  -9 -19   -2.14    2.20
   0  -9 -18    0.77    1.52
   0  -9 -17    9.09    2.76
   0  -9 -16   -1.61    2.21
   0  -9 -15   -2.65    2.05
   0  -9 -14   -1.65    2.02
   0  -9 -13    1.28    1.55
   0  -9 -12    1.62    2.36
   0  -9 -11    8.69    3.19
   0   9 -11   14.80    3.80
   0   9 -10    0.85    2.45
   0  -9 -10   -0.72    1.42
   0   9  -9   13.34    3.20
   0   9  -8   -1.01    1.16
   0   9  -7    9.74    2.52
   0   9  -6   -0.73    1.36
   0  -9  -5   -1.35    1.72
   0   9  -5    2.43    2.07
   0   9  -4    0.33    1.45
   0  -9  -4    0.01    1.18
   0  -9  -3   22.43    4.33
   0   9  -3   14.29    3.44
   0  -9  -2    0.72    2.09
   0   9  -2    2.68    1.50
   0   9  -1    4.22    2.21
   0  -9  -1    2.21    1.26
   0  -9   0   -0.23    0.94
   0   9   0    2.87    1.85
   0   9   1    5.37    2.27
   0  -9   1    0.75    1.47
   0   9   2   -1.12    1.19
   0  -9   2    1.38    1.39
   0  -9   3   18.20    3.74
   0   9   3   17.37    4.08
   0  -9   4    0.81    1.56
   0   9   4    0.83    1.66
   0   9   5    1.86    2.66
   0  -9   5    0.25    1.67
   0   9   6   -1.44    1.31
   0  -9   6    0.08    1.39
   0  -9   7    2.31    1.45
   0   9   7    7.92    3.00
   0  -9   8   -0.58    1.57
   0   9   8   -1.75    1.66
   0   9   9   10.19    2.81
   0   9  10   -1.79    2.16
   0   9  11   21.84    4.51
   0   9  12    1.80    2.26
   0   9  13    3.88    2.20
   0   9  13    1.56    0.99
   0   9  14   -0.20    1.69
   0   9  14    1.77    1.88
   0   9  15    4.77    2.27
   0   9  15    2.43    2.25
   0   9  16   -2.25    1.17
   0   9  16   -0.34    1.71
   0   9  17   11.82    4.02
   0   9  17    8.50    3.31
   0   9  18    0.36    2.54
   0   9  18    2.82    1.84
   0   9  19   -0.94    1.21
   0   9  19    0.05    1.63
   0   9  20    0.47    1.71
   0   9  20   -0.86    1.09
   0  10 -10   17.04    4.12
   0  10  -9    1.11    1.04
   0  10  -8    0.30    1.03
   0  10  -7    2.83    2.24
   0  10  -6   36.97    6.03
   0  10  -5    3.34    2.21
   0  10  -4   13.33    3.21
   0  10  -3    3.78    2.29
   0  10  -2   13.26    3.99
   0  10  -1    1.95    1.95
   0  10   0   55.39    6.78
   0 -10   0   69.00    7.92
   0  10   1    1.72    2.05
   0 -10   1    1.33    2.12
   0  10   2    9.91    3.11
   0 -10   2   22.71    5.00
   0  10   3    0.92    1.69
   0 -10   3   -0.16    2.11
   0  10   4   32.06    5.56
   0 -10   4   24.33    4.73
   0 -10   5    0.10    1.64
   0  10   5   -0.76    1.18
   0  10   6   35.82    5.73
   0 -10   6   40.50    6.02
   0  10   7    2.93    3.07
   0  10   8    0.03    2.08
   0  10   9    1.26    2.48
   0  10  10   19.21    3.98
   0  10  11   -0.26    1.37
   0  10  11   -0.33    1.97
   0  10  12    7.48    2.98
   0  10  12   10.13    3.21
   0  10  13   -2.72    2.43
   0  10  13    1.01    2.08
   0  10  14   -0.23    1.71
   0  10  14    3.08    1.68
   0  10  15   -4.58    3.00
   0  10  15    0.12    0.97
   0  10  16    9.37    4.52
   0  10  16    5.56    2.83
   0  11  -9    1.16    1.50
   0  11  -8    0.50    1.74
   0  11  -7    5.58    2.92
   0  11  -6   -2.50    2.35
   0  11  -5    2.17    2.30
   0  11  -4   -0.70    1.46
   0  11  -3    6.86    3.24
   0  11  -2    0.57    1.54
   0  11  -1    7.40    2.85
   0  11   0   -0.19    0.98
   0  11   1    2.40    2.37
   0  11   2   -0.37    1.70
   0  11   3    2.91    1.86
   0  11   4    0.11    2.31
   0  11   5    0.67    1.04
   0  11   6   -0.22    1.28
   0  11   7   -0.86    1.21
   0  11   8    4.53    2.64
   0  11   8   -0.71    1.74
   0  11   9   -1.07    2.42
   0  11   9   10.11    2.77
   0  11  10    0.45    1.41
   0  11  10    0.20    1.02
   1   0 -31   -2.70    2.80
   1   0 -30   -0.23    1.92
   1   0 -29    4.17    2.73
   1   0 -28   -0.55    2.41
   1   0 -27    1.06    2.03
   1   0 -26    2.22    2.07
  -1   0 -26    1.68    1.27
   1   0 -25    0.13    1.39
  -1   0 -25    1.16    1.67
  -1   0 -24   -0.77    0.95
   1   0 -24    0.88    1.13
  -1   0 -23   -0.01    1.15
   1   0 -23   -0.20    1.09
   1   0 -22    0.90    0.88
  -1   0 -22   -2.23    2.03
  -1   0 -21   -0.78    0.98
   1   0 -21    0.35    1.04
  -1   0 -20    0.26    0.91
   1   0 -20   -1.67    1.58
   1   0 -19   -0.15    1.16
  -1   0 -19    1.08    2.00
  -1   0 -18    0.94    1.57
   1   0 -18    0.76    0.93
  -1   0 -17   -0.09    0.81
   1   0 -17    0.91    1.21
   1   0 -16    0.17    0.98
  -1   0 -16   -0.34    1.17
  -1   0 -15    0.10    0.61
   1   0 -15   -0.18    1.04
  -1   0 -14    0.24    0.58
   1   0 -14   -0.52    0.91
   1   0 -13    0.14    0.54
  -1   0 -13    0.33    0.74
  -1   0 -12   -0.05    0.72
   1   0 -12    0.51    0.41
  -1   0 -11    0.82    0.83
   1   0 -11    0.95    0.53
  -1   0 -10    0.15    0.72
   1   0 -10    0.17    0.47
   1   0  -9    0.04    0.59
  -1   0  -9    0.32    0.52
   1   0  -8    0.22    0.61
  -1   0  -8   -0.05    0.39
   1   0  -7   -0.11    0.37
  -1   0  -7    0.38    0.36
   1   0  -6    0.25    0.34
   1   0  -6    0.32    0.56
  -1   0  -6   -0.56    0.44
  -1   0  -5   -0.12    0.25
   1   0  -5   -0.06    0.30
   1   0  -5    0.03    0.17
   1   0  -4    0.26    0.37
  -1   0  -4    0.08    0.34
   1   0  -4    0.10    0.13
   1   0  -3    0.13    0.16
  -1   0  -3    0.25    0.22
   1   0  -3   -0.14    0.32
   1   0  -2    0.16    0.15
   1   0  -2    0.06    0.13
   1   0  -1    0.04    0.10
   1   0  -1    0.21    0.18
   1   0   1    0.12    0.17
   1   0   2   -0.11    0.20
   1   0   3    0.15    0.15
   1   0   4   -0.13    0.15
   1   0   5   -0.16    0.17
   1   0   6    0.01    0.29
   1   0   7    0.27    0.43
  -1   0   8    0.02    0.30
   1   0   8    0.23    0.48
   1   0   9    0.29    0.37
  -1   0   9   -0.12    0.31
   1   0   9    0.07    0.14
   1   0  10    0.18    0.34
   1   0  10   -0.14    0.15
  -1   0  10    0.08    0.22
  -1   0  11    0.07    0.27
   1   0  11    0.44    0.45
   1   0  11    0.23    0.21
   1   0  12    0.05    0.21
   1   0  12    0.01    0.51
  -1   0  12    0.16    0.43
   1   0  13    0.02    0.49
   1   0  13    0.40    0.31
  -1   0  13    0.82    0.64
  -1   0  14   -0.30    0.58
   1   0  14   -0.18    0.63
   1   0  14    0.01    0.16
   1   0  15    0.37    0.24
  -1   0  15    0.18    0.67
   1   0  15   -0.21    0.60
   1   0  16    0.22    0.29
   1   0  16   -0.29    0.77
  -1   0  16    1.37    0.94
   1   0  17    0.90    1.05
  -1   0  17    0.26    0.36
  -1   0  18    0.11    0.54
   1   0  18    0.03    0.78
   1   0  19    0.20    0.64
   1   0  20   -0.17    0.86
   1  -1 -31    8.95    3.41
   1  -1 -30   26.64    5.04
  -1  -1 -29   38.52    5.82
   1  -1 -29   36.27    5.69
   1  -1 -28   12.72    3.46
  -1  -1 -28   18.75    4.05
   1   1 -28   11.93    3.35
  -1  -1 -27    3.69    2.04
   1   1 -27    4.15    2.37
   1  -1 -27    5.92    2.70
   1   1 -26   62.19    7.36
   1  -1 -26   57.56    6.99
  -1  -1 -26   58.88    7.06
   1  -1 -25   44.50    5.96
   1   1 -25   52.42    6.76
  -1  -1 -25   42.28    5.77
  -1  -1 -24    3.95    1.88
   1   1 -24   -1.53    2.22
   1  -1 -24    3.87    2.55
   1  -1 -23   45.76    5.92
   1   1 -23   37.23    5.31
  -1  -1 -23   33.98    5.16
  -1   1 -22   23.67    4.29
   1  -1 -22   38.07    5.19
  -1  -1 -22   29.07    4.83
   1   1 -22   32.81    4.66
   1  -1 -21    7.09    2.04
  -1   1 -21    9.19    2.59
   1   1 -21    6.99    2.32
  -1  -1 -21    7.02    2.63
  -1  -1 -20   79.88    7.26
  -1   1 -20   61.44    6.33
   1   1 -20   73.89    6.85
   1  -1 -20   79.95    7.22
  -1   1 -19   90.20    7.55
   1  -1 -19   86.14    7.23
  -1  -1 -19   87.13    7.35
   1   1 -19   84.62    7.11
   1   1 -18   21.05    3.55
  -1   1 -18   17.09    3.06
   1  -1 -18   16.15    3.25
  -1  -1 -18   20.42    3.56
   1   1 -17   85.69    6.88
   1  -1 -17   91.20    7.28
  -1  -1 -17   95.79    7.54
  -1   1 -17   81.65    6.71
  -1   1 -16  165.55    9.31
  -1  -1 -16  137.82    8.66
   1  -1 -16  140.34    8.83
   1   1 -16  132.30    8.11
  -1  -1 -15    7.78    2.25
  -1   1 -15    8.47    2.03
   1  -1 -15   12.09    2.51
   1   1 -15   10.23    2.38
   1   1 -14   69.72    5.40
  -1   1 -14   75.75    5.85
  -1  -1 -14   67.48    5.91
   1  -1 -14   84.32    6.36
  -1   1 -13  324.32   11.74
   1  -1 -13  360.10   12.77
   1   1 -13  341.49   11.64
  -1  -1 -13  328.60   12.38
  -1   1 -12  712.78   16.60
  -1  -1 -12  731.15   17.66
   1   1 -12  726.12   16.37
   1  -1 -12  746.96   17.80
   1   1 -11  261.13    9.33
   1  -1 -11  260.34   10.13
  -1  -1 -11  267.51   10.31
  -1   1 -11  259.93    9.61
   1   1 -10  478.64    9.11
  -1   1 -10  499.95   12.67
   1  -1 -10  471.01   13.12
  -1  -1 -10  446.50   12.88
   1   1 -10  482.44   11.87
  -1   1  -9  556.78   12.65
   1  -1  -9  540.03   11.50
  -1  -1  -9  580.57   13.88
   1   1  -9  559.13    9.51
   1  -1  -9  566.09   13.61
   1   1  -9  563.23   12.10
   1  -1  -8  329.27    8.61
   1  -1  -8  347.33   10.15
   1   1  -8  375.34    7.49
  -1   1  -8  374.08    9.77
   1   1  -8  345.72    8.92
  -1  -1  -8  373.67   10.59
   1  -1  -7  511.45   10.37
  -1  -1  -7  527.86   11.94
   1   1  -7  529.90   10.06
   1   1  -7  520.57    8.72
   1  -1  -7  508.74   11.77
   1  -1  -6 1028.83   13.96
   1   1  -6 1024.33   12.64
   1   1  -6 1009.36   11.82
  -1  -1  -6 1044.31   15.73
   1  -1  -5  538.36   10.81
   1   1  -5  536.84    8.35
   1   1  -5  539.96    8.13
   1  -1  -5  534.08    9.71
  -1  -1  -5  550.41   10.66
  -1  -1  -4 1747.51   17.49
  -1   1  -4 1752.99   10.73
   1   1  -4 1718.28   12.55
   1  -1  -4 1760.17   17.93
   1   1  -4 1728.58   14.68
   1   1  -3 1330.39   12.47
   1   1  -3 1349.20    8.70
  -1   1  -3 1332.95   10.05
  -1  -1  -3 1324.56   13.74
   1  -1  -3 1294.19   13.75
   1  -1  -3 1317.67   14.51
  -1  -1  -2   49.03    2.30
   1  -1  -2   50.34    2.59
   1  -1  -2   55.34    2.75
   1   1  -2   55.70    1.83
   1   1  -2   50.45    2.43
   1  -1  -1 1975.22   15.10
  -1  -1  -1 2003.89   12.34
   1   1  -1 1984.04   12.60
   1   1   1 2078.63   15.66
   1  -1   1 2095.03   15.10
   1  -1   2   48.36    2.26
   1   1   2   51.53    2.50
   1   1   2   52.72    2.72
   1   1   3 1338.24   14.53
   1   1   3 1352.18   12.99
   1   1   4 1713.51   15.00
   1  -1   4 1685.37   13.91
   1   1   5  543.98   10.18
   1   1   5  538.02    8.58
   1   1   6 1025.72   14.65
   1  -1   6 1060.19   11.46
   1   1   7  557.84    9.26
   1  -1   7  556.42    8.63
   1   1   7  541.98   11.06
   1   1   8  364.48    7.75
   1  -1   8  350.18    7.27
   1   1   9  561.86    9.85
   1   1   9  542.24   12.00
   1  -1   9  553.89    9.59
   1  -1  10  488.81    9.37
  -1  -1  10  486.57    6.11
   1   1  10  506.46   12.04
   1   1  10  498.25    9.55
   1   1  11  271.76    9.14
  -1   1  11  276.43    8.80
   1  -1  11  264.28    7.24
  -1  -1  11  261.13    4.96
   1   1  11  255.69    7.11
  -1  -1  12  724.24    8.99
   1   1  12  737.34   12.41
  -1   1  12  714.97   14.96
   1   1  12  742.57   15.49
   1  -1  12  738.79   12.48
   1   1  13  348.92   11.05
  -1   1  13  364.10   10.81
   1  -1  13  376.14    9.26
   1   1  13  348.19    8.80
  -1  -1  13  356.67    6.75
  -1  -1  14   67.46    3.11
  -1   1  14   72.01    4.88
   1  -1  14   73.86    4.24
   1   1  14   75.53    4.16
   1   1  14   78.63    5.35
   1   1  15    7.38    1.33
   1   1  15    6.70    1.81
  -1  -1  15    7.02    1.03
   1  -1  15    9.16    1.62
  -1   1  15    7.19    1.69
  -1  -1  16  145.80    5.06
   1   1  16  151.08    7.98
  -1   1  16  142.55    7.33
   1  -1  16  153.32    6.65
   1   1  16  150.78    6.09
   1  -1  17   90.08    5.21
   1   1  17   75.46    4.48
   1   1  17   79.00    5.85
  -1   1  17   82.38    5.81
  -1   1  18   18.65    2.96
   1   1  18   19.81    3.05
   1  -1  18   15.99    2.26
  -1   1  19   86.38    6.24
   1   1  19   85.89    6.48
   1   1  20   59.90    5.77
  -1   1  20   61.47    5.44
   1   1  21    7.59    2.04
   1  -2 -30    6.56    2.47
  -1  -2 -30    7.36    2.20
   1  -2 -29    4.11    1.48
  -1  -2 -29    2.40    2.09
  -1  -2 -28    5.10    2.77
   1  -2 -28    7.12    1.09
  -1  -2 -27    7.25    2.77
   1  -2 -27    0.88    1.15
  -1  -2 -26    0.85    1.34
   1  -2 -26    4.12    2.16
  -1  -2 -25    6.15    2.66
   1  -2 -25   12.07    3.30
   1  -2 -24    9.97    3.00
   1   2 -24    7.01    2.38
  -1  -2 -24    8.85    2.98
  -1  -2 -23    7.34    2.69
   1  -2 -23    4.04    1.59
   1   2 -23   10.98    3.05
   1  -2 -22    5.25    1.80
   1   2 -22    5.19    1.77
  -1  -2 -22    1.72    1.42
   1   2 -21    5.34    2.25
  -1  -2 -21   12.94    3.17
   1  -2 -21    8.43    2.48
   1   2 -20   39.58    4.96
  -1  -2 -20   32.89    4.75
   1  -2 -20   28.29    4.40
  -1  -2 -19   11.71    2.67
   1  -2 -19   14.43    3.70
   1   2 -19   13.78    2.86
   1  -2 -18   10.38    2.88
  -1  -2 -18   11.38    3.00
   1   2 -18   10.11    2.47
  -1  -2 -17   12.38    2.84
   1   2 -17   17.06    3.11
   1  -2 -16   17.83    3.20
   1   2 -16   15.06    2.78
  -1  -2 -16   13.07    2.98
   1   2 -15   13.49    1.85
   1   2 -15   14.91    2.57
   1  -2 -15   11.10    2.51
  -1  -2 -15   10.71    2.28
   1   2 -14   60.26    3.72
   1  -2 -14   48.30    5.19
  -1  -2 -14   60.46    5.73
   1   2 -14   57.07    4.90
   1   2 -13    8.43    1.84
   1  -2 -13    9.43    2.25
  -1   2 -13    5.24    0.77
   1   2 -13    7.40    1.40
  -1  -2 -13    6.24    1.76
   1   2 -12    4.32    1.08
   1  -2 -12    3.25    1.76
  -1   2 -12    3.15    0.58
   1   2 -12    1.63    0.86
  -1  -2 -12    1.59    0.66
   1   2 -11    1.81    0.73
   1   2 -11    0.92    0.60
  -1  -2 -11    0.92    1.18
  -1   2 -11    0.88    0.19
   1  -2 -11    1.51    0.74
   1  -2 -10   30.72    3.22
  -1  -2 -10   31.29    3.49
   1   2 -10   36.32    3.08
  -1   2 -10   33.24    2.03
   1  -2 -10   32.41    3.58
   1   2 -10   31.90    2.59
  -1  -2  -9  114.27    6.52
   1  -2  -9  108.03    5.92
   1   2  -9  115.72    4.99
   1  -2  -9  124.30    6.70
  -1   2  -9  114.41    3.90
   1   2  -9  115.11    5.10
   1   2  -8   75.80    3.82
  -1   2  -8   74.62    3.24
  -1  -2  -8   75.16    5.01
   1   2  -8   74.35    4.00
   1  -2  -8   77.73    4.88
   1  -2  -8   73.50    5.01
   1  -2  -7  107.46    5.60
   1  -2  -7  100.24    5.55
  -1  -2  -7  116.53    6.01
  -1   2  -7  101.85    3.97
   1   2  -7  102.39    3.95
   1   2  -6  125.03    3.88
   1   2  -6  123.68    5.00
  -1  -2  -6  118.32    5.66
  -1   2  -6  115.54    4.32
   1  -2  -6  121.63    5.79
   1  -2  -6  120.95    5.92
  -1  -2  -5   19.52    2.16
   1  -2  -5   20.81    2.35
  -1   2  -5   20.46    1.80
   1  -2  -5   19.74    2.32
   1   2  -5   17.80    1.92
  -1  -2  -4  106.57    4.75
   1  -2  -4  103.05    4.93
   1  -2  -4  113.08    5.33
   1   2  -4  108.58    4.72
  -1   2  -4  102.66    4.19
  -1   2  -3  839.74   12.28
   1  -2  -3  867.78   14.32
  -1  -2  -3  832.14   12.25
   1  -2  -3  810.84   13.08
   1   2  -3  826.53   13.00
  -1  -2  -2 2688.31   23.97
  -1  -2  -2 2696.47   19.53
   1  -2  -2 2722.44   22.26
   1   2  -2 2657.87   23.45
   1  -2  -2 2714.51   24.48
   1  -2  -1 2586.84   23.40
  -1  -2  -1 2587.93   22.47
  -1   2  -1 2568.28   22.40
   1  -2  -1 2661.70   20.99
   1   2  -1 2560.87   23.11
  -1  -2  -1 2652.11   17.00
   1   2   0 4562.65   31.38
   1  -2   0 4619.39   30.49
   1  -2   0 4676.37   26.09
  -1   2   0 4583.45   30.76
  -1  -2   0 4601.73   28.62
   1   2   1 2578.90   23.48
  -1  -2   1 2616.47   20.59
   1  -2   1 2569.06   18.76
   1  -2   2 2653.91   18.66
   1  -2   2 2674.30   22.22
  -1  -2   2 2666.56   19.87
   1   2   3  845.44   13.96
  -1  -2   3  861.55   10.49
   1  -2   4   98.23    4.04
   1   2   4  105.95    4.97
  -1  -2   4  110.66    3.50
  -1  -2   5   21.74    1.43
   1   2   5   21.64    2.30
   1  -2   5   19.96    1.81
   1   2   6  120.32    5.42
   1  -2   6  122.32    4.59
   1   2   6  117.95    5.84
  -1  -2   6  123.32    3.12
   1  -2   7   96.73    4.16
   1   2   7  101.92    5.64
   1   2   7  110.08    5.40
   1   2   8   82.27    4.70
   1   2   8   78.45    5.01
   1  -2   8   76.46    3.71
   1   2   9  109.43    5.59
   1  -2   9  104.18    4.32
   1   2   9  107.11    6.15
   1  -2  10   31.64    2.42
   1   2  10   34.77    3.60
   1   2  10   31.89    3.04
   1   2  11    1.00    0.90
   1   2  11    1.63    0.85
   1  -2  11    1.11    0.62
   1   2  12    5.90    1.47
   1  -2  12    3.67    0.92
   1   2  12    6.56    1.68
   1   2  13    8.36    1.97
   1   2  13    8.06    1.71
   1  -2  13    9.15    1.48
   1   2  14   63.45    4.57
   1  -2  14   60.41    3.70
   1   2  14   63.76    5.34
  -1   2  14   62.00    5.31
   1  -2  15   10.40    1.64
   1   2  15   19.18    2.94
  -1   2  15   13.57    2.53
   1   2  15   13.56    2.24
  -1   2  16   17.98    2.83
   1  -2  16   16.69    2.14
   1   2  16   19.93    2.73
   1   2  16   18.52    3.04
   1   2  17   17.52    2.96
  -1   2  17   18.74    3.02
  -1   2  17   15.14    2.51
   1   2  17   19.13    2.76
   1   2  18    6.04    2.05
  -1   2  18    7.86    2.11
   1   2  18    7.49    1.61
  -1   2  18   13.42    2.46
  -1   2  19   14.16    2.70
   1   2  19   13.58    2.96
  -1   2  19   11.01    2.50
   1   2  20   25.50    4.17
  -1   2  20   34.03    4.48
   1   2  21   11.07    2.95
  -1   2  21    5.07    1.54
   1   2  22    7.44    2.32
   1  -3 -30   10.67    3.13
  -1  -3 -30   21.75    4.88
  -1  -3 -29   11.60    3.47
   1  -3 -29   17.87    4.28
  -1  -3 -28    6.40    2.98
   1  -3 -28    1.39    1.60
   1  -3 -27    7.59    2.58
  -1  -3 -27    4.88    2.42
   1  -3 -26   46.29    6.36
  -1  -3 -26   48.81    6.23
  -1  -3 -25   17.45    3.68
   1  -3 -25   20.27    4.16
   1  -3 -24   10.85    3.38
  -1  -3 -24   11.05    3.44
  -1  -3 -23   42.13    5.73
   1  -3 -23   35.17    5.51
   1  -3 -22   86.84    8.29
  -1  -3 -22   81.24    7.96
  -1  -3 -21   19.81    3.96
   1  -3 -21   17.91    3.48
   1  -3 -20   82.65    7.96
  -1  -3 -20   93.83    8.28
   1  -3 -19   82.99    7.72
  -1  -3 -19   84.06    7.78
   1  -3 -18   37.08    5.04
  -1  -3 -18   34.98    4.78
   1  -3 -17  136.86    9.33
  -1  -3 -17  117.49    8.52
  -1  -3 -16  412.59   15.85
   1  -3 -16  410.53   15.73
   1  -3 -15   44.52    5.29
  -1  -3 -15   50.55    5.66
   1   3 -14  346.54   10.06
  -1  -3 -14  372.49   14.38
   1  -3 -14  342.32   13.79
  -1  -3 -13  523.05   16.52
   1   3 -13  513.35   12.32
  -1   3 -13  482.45   10.18
  -1   3 -12  202.26    6.61
   1   3 -12  194.56    7.78
   1  -3 -12  211.90   10.34
  -1  -3 -12  212.64   10.26
   1  -3 -12  198.34    9.70
   1   3 -11  158.45    6.83
  -1  -3 -11  159.83    8.69
  -1   3 -11  164.03    6.12
   1  -3 -11  153.74    8.26
   1  -3 -11  150.11    8.44
  -1  -3 -10  778.74   18.43
   1   3 -10  801.39   15.51
   1  -3 -10  828.35   18.67
  -1   3 -10  817.47   13.84
   1  -3 -10  750.28   18.27
   1  -3  -9  175.00    8.49
  -1  -3  -9  191.96    8.78
   1   3  -9  181.01    7.28
   1  -3  -9  197.66    9.01
  -1   3  -9  178.03    6.63
  -1  -3  -8  116.38    6.57
   1   3  -8  119.25    5.88
  -1   3  -8  130.42    5.72
   1  -3  -8  124.13    6.95
   1  -3  -8  125.57    6.89
   1  -3  -7  331.92   11.03
  -1   3  -7  337.66    9.56
  -1  -3  -7  343.91   10.88
   1  -3  -7  325.04   11.10
   1   3  -7  343.56   10.06
   1   3  -6   45.70    3.63
   1  -3  -6   38.91    3.68
   1  -3  -6   37.60    3.75
  -1  -3  -6   42.10    3.67
  -1   3  -6   43.14    3.38
   1   3  -5  190.51    7.47
  -1  -3  -5  190.29    8.07
   1  -3  -5  185.80    8.21
  -1  -3  -5  194.53    7.37
  -1   3  -5  196.32    7.27
   1  -3  -5  197.99    7.88
  -1   3  -4  606.47   12.90
   1   3  -4  576.47   13.08
  -1  -3  -4  594.24   13.88
  -1  -3  -4  576.03   12.02
   1  -3  -4  589.92   12.84
   1  -3  -4  586.03   14.07
   1  -3  -3  136.25    5.96
  -1   3  -3  139.20    6.21
  -1  -3  -3  132.40    6.39
  -1  -3  -3  135.13    5.39
   1  -3  -3  140.10    6.70
   1   3  -3  135.81    6.40
   1  -3  -2  144.14    6.69
   1   3  -2  124.46    6.18
  -1   3  -2  133.24    6.17
  -1  -3  -2  143.83    5.16
  -1  -3  -2  128.24    6.18
   1  -3  -2  135.18    5.65
  -1  -3  -1  541.50    9.31
   1  -3  -1  539.25   10.78
  -1   3  -1  552.25   12.77
   1  -3  -1  553.31   12.92
  -1  -3  -1  557.08   12.61
   1   3  -1  568.34   13.17
  -1   3   0 1217.91   19.26
   1  -3   0 1208.54   18.63
  -1  -3   0 1189.31   12.11
  -1  -3   0 1201.21   17.85
   1  -3   0 1239.36   15.62
   1   3   0 1194.06   19.15
  -1  -3   1  582.91   12.04
  -1   3   1  550.98   13.16
   1  -3   1  554.17   10.10
   1  -3   1  585.75   12.62
  -1  -3   1  574.77    7.08
   1   3   1  593.88   13.54
   1  -3   2  136.83    4.84
  -1   3   2  139.86    6.61
  -1  -3   2  141.10    5.77
   1   3   2  135.46    6.54
   1  -3   2  148.03    6.26
   1  -3   3  122.34    4.48
   1   3   3  142.21    6.76
  -1  -3   3  140.01    5.55
  -1   3   3  135.68    6.67
   1  -3   3  135.92    6.03
  -1  -3   4  601.41   11.03
  -1   3   4  573.30   13.88
   1   3   4  561.97   13.63
   1  -3   4  572.42   12.08
   1  -3   4  549.77    9.75
  -1   3   5  194.94    8.20
   1   3   5  184.44    7.95
  -1  -3   5  194.95    6.04
   1  -3   5  191.50    6.91
  -1   3   6   41.51    3.85
   1  -3   6   43.72    3.24
  -1  -3   6   45.24    2.76
   1  -3   7  349.60    9.23
  -1  -3   7  361.71    7.53
  -1   3   7  348.68   11.27
   1   3   7  348.66   11.07
   1  -3   8  128.09    5.50
  -1   3   8  116.43    6.72
  -1  -3   8  122.25    4.18
   1   3   8  114.73    6.43
  -1  -3   9  179.69    4.78
   1   3   9  186.93    8.30
  -1   3   9  187.41    8.55
   1  -3   9  179.54    6.48
   1   3   9  181.78    8.86
  -1   3  10  798.58   17.99
  -1  -3  10  775.64    9.21
   1  -3  10  769.42   13.58
   1   3  10  790.91   18.87
   1   3  10  768.74   17.26
  -1   3  11  169.48    8.49
   1   3  11  176.75    9.12
   1   3  11  168.98    8.23
   1  -3  11  153.69    5.87
   1   3  12  182.32    8.65
  -1   3  12  183.18    8.98
   1  -3  12  192.20    6.63
   1   3  12  178.05    9.35
   1  -3  13  498.94   10.90
   1   3  13  501.29   14.60
   1   3  13  487.77   15.81
  -1   3  13  483.52   14.99
   1  -3  14  322.79    8.69
   1   3  14  336.34   13.26
   1   3  14  351.64   12.50
  -1   3  14  356.35   12.89
   1   3  15   46.55    4.65
  -1   3  15   53.56    4.94
   1  -3  15   38.83    3.13
  -1   3  15   39.16    4.79
   1   3  15   43.50    4.91
  -1   3  16  406.73   14.42
  -1   3  16  403.20   15.00
   1   3  16  419.56   14.20
   1   3  16  411.98   15.22
   1   3  17  121.77    7.83
   1   3  17  109.20    7.98
  -1   3  17  119.39    8.40
  -1   3  17  115.60    7.96
  -1   3  18   33.55    4.29
  -1   3  18   23.14    3.76
   1   3  18   26.39    4.23
   1   3  18   35.99    4.26
   1   3  19   81.19    7.21
  -1   3  19   79.78    6.99
   1   3  19   82.52    6.64
  -1   3  19   92.75    7.34
  -1   3  20   79.55    6.98
  -1   3  20   82.87    7.40
   1   3  20   98.76    8.02
   1   3  21   12.86    3.26
  -1   3  21   12.09    2.98
   1   3  22   84.70    7.72
  -1   3  22   81.73    7.70
  -1   3  23   47.64    5.75
   1   3  23   47.29    5.97
   1   3  24   10.72    3.35
  -1  -4 -29    1.66    1.45
   1  -4 -29    0.23    1.61
   1  -4 -28    1.10    1.26
  -1  -4 -28   -0.82    1.63
   1  -4 -27    6.31    2.55
  -1  -4 -27   -0.77    1.18
  -1  -4 -26    3.71    1.81
   1  -4 -26   10.83    3.85
   1  -4 -25   -0.03    0.93
  -1  -4 -25    6.50    2.82
  -1  -4 -24    1.32    1.02
   1  -4 -24    2.96    1.99
   1  -4 -23   15.36    3.65
  -1  -4 -23   13.62    3.22
   1  -4 -22   15.12    3.36
  -1  -4 -22   22.46    4.01
   1  -4 -21   25.09    4.69
  -1  -4 -21   21.79    4.61
  -1  -4 -20    3.01    1.92
   1  -4 -20    2.18    1.31
  -1  -4 -19    7.23    2.38
   1  -4 -19    9.29    2.85
  -1  -4 -18   11.71    3.38
   1  -4 -18   12.74    3.35
  -1  -4 -17   19.57    3.76
   1  -4 -17   22.23    3.88
  -1  -4 -16   13.21    3.27
   1  -4 -16    6.35    2.22
  -1  -4 -15   26.51    4.28
   1  -4 -15   27.89    4.21
   1  -4 -14    3.73    2.05
   1   4 -14    4.18    1.33
  -1  -4 -14    4.28    1.77
   1   4 -13    4.71    1.47
  -1   4 -13    5.41    1.52
   1  -4 -13    6.45    1.97
  -1  -4 -13    5.10    1.80
   1   4 -12  110.14    6.61
   1  -4 -12   99.70    7.36
   1  -4 -12   79.53    6.70
  -1   4 -12   89.62    5.61
  -1  -4 -12   90.13    6.87
  -1   4 -11   31.55    3.24
   1  -4 -11   31.14    4.15
  -1  -4 -11   29.78    3.85
   1  -4 -11   31.41    3.98
   1   4 -11   29.93    3.46
  -1   4 -10  139.86    7.01
  -1  -4 -10  135.72    8.05
   1   4 -10  140.63    7.44
   1  -4 -10  133.42    8.11
   1  -4 -10  119.16    7.68
   1   4  -9  254.82    9.97
   1  -4  -9  255.22   11.20
  -1  -4  -9  258.56   10.74
  -1   4  -9  254.60    9.54
   1  -4  -9  250.25   10.57
   1  -4  -8  111.85    6.96
  -1  -4  -8  104.99    6.72
  -1   4  -8  112.57    6.35
   1   4  -8  112.02    6.60
   1  -4  -8  113.16    7.36
  -1   4  -7   10.69    1.94
   1  -4  -7    7.33    1.79
   1  -4  -7    9.49    2.32
   1   4  -7   13.58    2.28
  -1  -4  -7   10.82    2.20
  -1  -4  -6   63.40    4.78
  -1  -4  -6   57.90    5.13
   1  -4  -6   62.76    4.93
   1  -4  -6   66.67    5.48
   1   4  -6   55.88    4.61
  -1   4  -6   59.33    4.71
   1   4  -5   85.27    5.76
  -1   4  -5   85.17    5.61
   1  -4  -5   82.59    5.42
   1  -4  -5   66.37    5.37
  -1  -4  -5   71.63    4.86
  -1  -4  -5   84.93    5.99
   1   4  -4   54.82    4.69
   1  -4  -4   55.96    4.34
  -1  -4  -4   47.08    3.72
  -1  -4  -4   47.96    4.43
   1  -4  -4   51.80    4.74
  -1   4  -4   48.84    4.32
  -1  -4  -3   48.42    4.37
   1  -4  -3   43.96    4.26
  -1  -4  -3   43.30    3.42
   1  -4  -3   46.61    3.79
  -1   4  -3   44.77    4.20
   1   4  -3   50.55    4.45
  -1  -4  -2  160.29    7.81
   1   4  -2  153.18    7.88
   1  -4  -2  171.12    7.02
   1  -4  -2  174.91    8.36
  -1   4  -2  164.78    8.00
  -1  -4  -2  176.29    6.40
   1  -4  -1  361.01   11.83
   1  -4  -1  354.76    9.64
  -1  -4  -1  370.43    8.61
  -1  -4  -1  354.53   11.39
   1   4  -1  335.77   11.62
  -1  -4   0  904.18   12.22
   1   4   0  850.25   18.69
   1  -4   0  907.20   18.37
  -1  -4   0  888.69   17.85
  -1   4   0  875.30   18.75
   1  -4   0  902.82   14.95
   1   4   1  341.24   11.76
   1  -4   1  350.10   11.40
  -1   4   1  351.48   11.96
  -1  -4   1  332.89   10.56
  -1  -4   1  325.67    6.54
   1  -4   1  344.17    8.81
   1  -4   2  165.53    7.65
  -1   4   2  174.39    8.58
  -1  -4   2  170.63    7.48
  -1  -4   2  166.14    4.04
   1   4   2  163.00    8.17
   1  -4   2  170.40    6.06
  -1   4   3   40.05    4.15
   1  -4   3   46.91    4.03
   1   4   3   46.38    4.52
   1  -4   3   42.68    3.00
  -1  -4   3   45.83    1.75
  -1  -4   3   42.29    3.61
  -1   4   4   56.40    5.06
   1  -4   4   48.35    3.15
   1   4   4   47.17    4.43
  -1  -4   4   44.14    3.61
   1  -4   4   60.58    4.43
  -1   4   5   79.16    5.93
   1  -4   5   72.62    3.89
  -1  -4   5   72.87    4.54
   1   4   5   79.89    5.90
   1  -4   5   78.54    5.07
   1   4   6   63.66    5.19
   1  -4   6   65.60    4.56
  -1   4   6   59.18    5.23
   1  -4   6   62.79    3.71
  -1  -4   6   63.25    4.12
  -1  -4   7    8.73    1.46
  -1   4   7    8.22    1.95
   1  -4   7   10.47    1.78
  -1  -4   7    8.59    0.87
   1   4   7   12.65    2.48
  -1  -4   8  115.82    5.26
   1   4   8  116.01    7.44
   1  -4   8  119.53    6.05
  -1   4   8  108.63    7.17
   1  -4   9  251.98    8.75
  -1   4   9  238.98   10.91
   1   4   9  256.27   11.02
  -1  -4   9  260.66    7.64
  -1  -4  10  136.48    5.34
  -1   4  10  143.57    8.46
   1  -4  10  143.96    6.64
   1   4  10  141.25    8.32
  -1  -4  11   30.16    2.37
   1   4  11   28.32    4.07
   1  -4  11   30.09    2.90
   1   4  11   38.31    4.70
  -1   4  11   28.28    3.81
  -1  -4  12   87.14    3.78
   1  -4  12   96.93    5.41
   1   4  12   92.11    7.30
   1   4  12   94.89    7.00
  -1   4  12  108.82    7.50
   1   4  13    4.98    2.11
   1   4  13    7.01    2.09
  -1   4  13    2.29    1.38
   1  -4  13    2.80    0.98
   1   4  14    2.02    0.98
  -1   4  14    2.79    1.19
   1  -4  14    3.40    1.10
   1   4  14    3.85    1.48
   1   4  15   31.24    4.28
  -1   4  15   23.74    3.76
   1   4  15   30.34    4.26
   1   4  16   11.88    2.71
   1   4  16   11.20    2.76
  -1   4  16   12.79    3.03
  -1   4  16   11.82    2.88
  -1   4  17   17.20    2.99
   1   4  17   24.24    4.08
   1   4  17   19.62    3.45
  -1   4  17   17.38    3.65
  -1   4  18    7.56    2.57
  -1   4  18   15.72    3.33
   1   4  18   15.10    2.86
   1   4  18   13.21    3.23
  -1   4  19    3.18    2.04
   1   4  19    5.07    2.15
  -1   4  19    9.07    2.16
   1   4  19    3.39    2.05
   1   4  20   -0.15    2.35
  -1   4  20    4.98    2.23
   1   4  20    0.53    1.78
  -1   4  20    3.85    2.09
  -1   4  21   20.98    3.96
  -1   4  21   17.34    3.35
   1   4  21   22.65    4.18
   1   4  22   13.85    2.93
  -1   4  22   16.21    3.65
  -1   4  23   14.76    3.45
   1   4  23   14.34    3.75
   1   4  24    2.08    1.07
  -1   4  24    4.82    2.48
   1   4  25    2.78    1.99
  -1  -5 -28   -0.12    2.61
   1  -5 -28    3.45    2.74
   1  -5 -27    2.48    2.11
  -1  -5 -27    3.53    2.67
  -1  -5 -26   17.98    3.80
   1  -5 -26   12.78    3.07
   1  -5 -25   10.15    3.72
  -1  -5 -25   13.24    3.82
  -1  -5 -24    0.50    1.96
   1  -5 -24   -1.02    1.52
  -1  -5 -23   15.78    4.05
   1  -5 -23   14.72    4.04
   1  -5 -22   50.16    6.37
  -1  -5 -22   38.95    5.77
   1  -5 -21    9.23    3.25
  -1  -5 -21    6.57    2.37
  -1  -5 -20   17.80    3.29
   1  -5 -20   20.90    3.74
  -1  -5 -19   39.20    5.30
   1  -5 -19   37.78    5.42
   1  -5 -18   13.16    3.52
  -1  -5 -18   14.27    2.89
   1  -5 -17   19.36    3.84
  -1  -5 -17   16.36    3.57
   1  -5 -16  151.86   10.00
  -1  -5 -16  159.56   10.43
   1  -5 -15   35.02    4.76
  -1  -5 -15   46.60    5.28
   1   5 -14   34.53    4.09
   1  -5 -14   43.31    5.33
   1  -5 -13  124.83    8.78
   1  -5 -13  133.11    9.15
   1   5 -13  141.41    8.32
  -1   5 -13  139.56    8.10
  -1  -5 -13  125.79    8.70
   1   5 -12   79.30    6.21
   1  -5 -12   95.95    7.72
  -1  -5 -12   92.37    7.19
   1  -5 -12  103.93    7.78
  -1   5 -12   88.98    6.50
   1   5 -11   13.32    2.64
  -1  -5 -11   16.56    3.19
   1  -5 -11   14.62    3.28
  -1   5 -11   12.88    2.46
   1  -5 -11   16.15    3.33
   1  -5 -10  266.02   11.93
  -1   5 -10  263.01   11.13
  -1  -5 -10  266.95   11.86
   1  -5 -10  279.49   12.83
   1   5 -10  274.66   11.57
   1  -5  -9  149.61    9.28
   1  -5  -9  145.26    8.66
  -1  -5  -9  146.07    8.51
   1   5  -9  141.85    8.27
  -1   5  -9  157.10    8.55
   1  -5  -8   25.81    3.70
   1  -5  -8   27.24    4.09
   1   5  -8   29.51    3.67
  -1  -5  -8   30.72    3.86
  -1   5  -8   27.98    3.78
   1  -5  -7  154.08    8.47
  -1  -5  -7  140.31    7.88
  -1   5  -7  141.49    8.20
   1   5  -7  161.42    8.81
   1  -5  -7  153.08    9.10
   1  -5  -6  129.29    8.33
  -1   5  -6  124.81    7.71
  -1  -5  -6  129.67    8.19
  -1  -5  -6  125.97    7.15
   1  -5  -6  129.00    7.58
   1   5  -6  130.16    7.91
  -1   5  -5   50.91    4.89
   1  -5  -5   48.76    5.05
  -1  -5  -5   47.19    5.08
   1   5  -5   47.99    4.94
   1  -5  -5   51.74    4.62
  -1  -5  -5   44.96    4.16
  -1  -5  -4  197.55    9.81
  -1  -5  -4  204.45    8.38
   1  -5  -4  215.34    9.18
   1   5  -4  200.84    9.88
   1  -5  -4  213.44   10.34
  -1   5  -4  216.31   10.18
   1  -5  -3  264.53   11.46
  -1  -5  -3  264.82   11.10
  -1   5  -3  257.17   11.06
   1  -5  -3  237.64    9.51
   1   5  -3  246.58   10.96
  -1  -5  -3  266.79    9.16
  -1  -5  -2   36.10    3.10
  -1   5  -2   40.60    4.47
   1  -5  -2   35.57    3.36
   1   5  -2   33.39    4.19
   1  -5  -2   38.60    4.38
  -1  -5  -2   37.47    4.05
  -1   5  -1   20.70    3.20
   1  -5  -1   21.94    2.63
  -1  -5  -1   21.53    2.45
   1  -5  -1   22.99    3.36
  -1  -5  -1   25.23    3.29
   1   5  -1   15.00    2.76
   1   5   0  167.65    9.06
   1  -5   0  165.91    7.05
  -1  -5   0  175.25    8.74
   1  -5   0  167.46    8.88
  -1   5   0  156.47    8.68
  -1  -5   0  178.00    6.19
  -1  -5   1   20.63    1.94
  -1   5   1   20.65    3.17
   1  -5   1   24.26    3.30
   1  -5   1   22.02    2.51
  -1  -5   1   24.32    3.35
   1   5   1   19.74    3.25
  -1  -5   2   37.10    2.40
  -1   5   2   33.04    4.12
   1   5   2   46.04    4.82
   1  -5   2   34.66    2.99
   1  -5   2   45.80    4.47
  -1  -5   2   40.60    4.14
   1  -5   3  257.85    7.96
  -1  -5   3  241.99    5.16
   1  -5   3  261.70   10.63
  -1   5   3  258.80   11.51
   1   5   3  277.31   11.77
  -1  -5   3  265.52   10.34
  -1  -5   4  201.62    8.90
   1  -5   4  214.06    9.54
   1   5   4  191.02    9.82
   1  -5   4  199.19    6.89
  -1   5   4  196.51   10.06
  -1   5   5   50.69    5.21
   1  -5   5   52.00    4.67
   1  -5   5   44.28    3.33
   1   5   5   54.66    5.39
  -1  -5   5   46.54    4.24
   1  -5   6  126.49    7.28
   1  -5   6  123.68    5.49
  -1  -5   6  127.72    6.84
  -1   5   6  127.23    8.19
   1   5   6  144.57    8.85
   1   5   7  132.37    8.61
   1  -5   7  149.34    7.89
  -1  -5   7  154.37    7.43
   1  -5   7  145.39    6.00
  -1   5   7  157.56    9.34
  -1  -5   8   29.71    3.21
   1  -5   8   23.97    2.45
   1  -5   8   20.26    2.81
  -1   5   8   28.45    3.96
   1   5   8   24.49    3.75
   1   5   9  159.60    9.39
   1  -5   9  149.75    7.84
   1  -5   9  154.92    6.50
  -1  -5   9  146.24    7.07
  -1   5   9  160.39    9.57
   1   5  10  249.72   11.98
  -1   5  10  241.04   11.96
  -1  -5  10  240.39    8.84
   1  -5  10  247.38    9.81
  -1   5  11   12.84    2.95
   1   5  11   21.74    3.60
  -1  -5  11   13.82    2.08
   1  -5  11   16.29    2.42
   1  -5  12   90.92    5.83
  -1   5  12   99.60    7.82
   1   5  12  103.97    7.91
   1   5  12  102.20    8.01
  -1  -5  12   90.39    5.05
   1  -5  13  122.15    6.89
   1   5  13  132.10    9.52
   1   5  13  136.02    9.26
  -1   5  13  125.25    8.97
   1   5  14   51.05    5.50
   1   5  14   36.04    4.82
  -1   5  14   40.32    5.13
   1   5  15   30.72    4.37
   1   5  15   38.52    5.25
  -1   5  15   37.38    5.01
   1   5  16  163.23   10.29
  -1   5  16  141.82   10.02
   1   5  16  133.68    9.83
  -1   5  17   11.18    3.06
   1   5  17   16.44    3.64
   1   5  17   17.16    3.30
  -1   5  17   18.53    3.60
   1   5  18    8.23    2.39
  -1   5  18    9.20    2.83
   1   5  18   10.70    2.83
  -1   5  18   15.18    3.34
  -1   5  19   34.02    5.45
   1   5  19   38.76    5.42
   1   5  19   39.56    5.64
  -1   5  19   41.51    5.59
  -1   5  20   19.07    3.82
   1   5  20   20.57    3.99
   1   5  20   17.72    3.72
  -1   5  20   13.46    3.51
   1   5  21    5.11    2.38
  -1   5  21    6.24    1.79
  -1   5  21   10.06    2.88
  -1   5  22   47.68    6.42
   1   5  22   40.19    5.74
  -1   5  23    7.81    2.36
   1   5  23   24.31    4.68
  -1   5  24   -1.28    2.48
   1   5  24   -0.04    1.83
  -1   5  25    6.62    2.95
   1   5  25    4.31    1.78
   1   5  26   10.82    3.40
  -1  -6 -26    0.25    1.57
   1  -6 -26    0.43    1.19
  -1  -6 -25   -0.49    1.08
   1  -6 -25   -0.11    2.13
  -1  -6 -24    1.58    1.88
   1  -6 -24    1.24    2.40
   1  -6 -23    0.76    1.06
  -1  -6 -23    2.78    2.43
   1  -6 -22    8.88    3.22
  -1  -6 -22   -0.42    1.56
   1  -6 -21    2.97    2.26
  -1  -6 -21    2.70    1.33
  -1  -6 -20   -1.93    2.41
   1  -6 -20    0.57    1.87
   1  -6 -19    1.08    1.08
  -1  -6 -19   -0.31    0.98
  -1  -6 -18    2.31    2.29
   1  -6 -18    2.97    2.20
   1  -6 -17    4.50    2.06
  -1  -6 -17    3.37    2.28
   1  -6 -16    2.06    1.29
  -1  -6 -16    4.83    2.00
  -1  -6 -15    3.28    1.69
   1  -6 -15    5.78    2.25
   1  -6 -14    4.19    1.97
  -1  -6 -14    8.35    2.53
  -1  -6 -13   14.10    3.47
   1   6 -13   13.08    2.82
   1  -6 -13   18.17    3.73
  -1  -6 -12   17.16    3.54
   1   6 -12   15.98    3.33
  -1   6 -12   12.32    3.01
   1  -6 -12   10.50    2.50
   1  -6 -12   21.74    3.87
   1   6 -11    9.72    2.69
   1  -6 -11    3.89    1.67
  -1   6 -11    5.75    1.75
   1  -6 -11    4.99    2.42
  -1  -6 -11    6.98    2.11
   1  -6 -10   11.26    2.90
   1  -6 -10   11.67    2.80
  -1  -6 -10   11.48    2.89
  -1   6 -10   10.75    2.68
   1   6 -10    7.17    2.23
   1  -6  -9    3.67    2.22
   1   6  -9    7.80    2.07
   1  -6  -9    6.32    2.42
  -1   6  -9    6.90    2.23
  -1  -6  -9    9.34    2.95
  -1  -6  -8    1.99    1.24
  -1   6  -8    0.50    0.92
   1  -6  -8    1.20    1.21
   1   6  -8    2.83    1.42
   1  -6  -8    2.86    1.70
  -1   6  -7   30.60    4.40
  -1  -6  -7   40.21    4.70
   1  -6  -7   43.49    5.06
   1   6  -7   42.65    4.95
   1  -6  -7   36.80    4.40
  -1  -6  -6   55.03    5.19
   1  -6  -6   46.48    4.91
  -1  -6  -6   49.87    5.45
   1   6  -6   45.39    5.31
   1  -6  -6   56.15    5.82
  -1   6  -6   48.53    5.34
  -1  -6  -5   76.73    6.63
  -1   6  -5   86.39    6.99
   1  -6  -5   73.65    5.89
   1   6  -5   72.84    6.47
   1  -6  -5   89.91    7.33
  -1  -6  -5   80.65    6.00
   1   6  -4   64.42    6.22
   1  -6  -4   68.79    6.23
  -1  -6  -4   80.00    6.69
   1  -6  -4   71.38    5.85
  -1   6  -4   71.23    6.40
  -1  -6  -4   73.10    5.43
  -1   6  -3   49.10    5.30
  -1  -6  -3   46.74    4.18
  -1  -6  -3   56.40    5.54
   1   6  -3   50.03    5.36
   1  -6  -3   55.11    4.92
   1  -6  -3   45.14    5.18
   1  -6  -2   49.96    4.54
  -1   6  -2   62.26    6.03
   1  -6  -2   45.05    5.14
  -1  -6  -2   49.96    4.01
  -1  -6  -2   50.22    5.31
   1   6  -2   45.15    5.28
   1  -6  -1   21.08    2.76
  -1   6  -1   17.55    3.32
  -1  -6  -1   21.10    2.60
   1   6  -1   17.83    3.45
  -1  -6  -1   17.32    3.11
   1  -6  -1   23.72    3.79
   1  -6   0   31.49    3.34
   1   6   0   31.82    4.61
  -1   6   0   26.68    3.90
   1  -6   0   26.53    3.66
  -1  -6   0   35.98    4.20
  -1  -6   0   26.63    2.62
   1   6   1   16.48    2.91
   1  -6   1   16.69    2.47
   1  -6   1   18.45    3.24
  -1   6   1   21.84    3.91
  -1  -6   1   20.83    3.15
  -1  -6   1   19.87    2.15
  -1   6   2   60.90    5.94
   1  -6   2   60.48    5.81
  -1  -6   2   52.86    3.20
   1   6   2   43.52    5.11
   1  -6   2   61.20    4.33
  -1  -6   2   61.18    5.51
   1  -6   3   56.67    5.57
  -1  -6   3   41.67    4.52
   1   6   3   40.62    5.02
   1  -6   3   49.89    3.84
  -1  -6   3   41.30    2.46
  -1   6   3   42.69    5.19
   1  -6   4   63.50    4.11
  -1   6   4   70.96    6.58
   1   6   4   73.93    6.54
   1  -6   4   82.34    6.48
  -1  -6   4   64.84    5.75
  -1  -6   5   86.21    6.40
  -1   6   5   81.61    7.05
   1  -6   5   87.46    4.91
   1   6   5   79.55    6.89
   1  -6   5   89.04    6.73
   1   6   6   56.16    5.75
  -1   6   6   57.99    6.16
   1  -6   6   51.76    3.74
  -1  -6   6   49.44    4.75
   1  -6   6   48.52    5.08
   1  -6   7   33.10    3.95
  -1   6   7   42.88    5.10
   1  -6   7   30.91    2.84
   1   6   7   33.90    4.60
  -1  -6   7   41.07    4.40
   1  -6   8    3.92    1.73
  -1   6   8    3.14    1.21
   1   6   8    2.93    1.79
  -1  -6   8    0.71    0.68
  -1  -6   9    7.14    1.61
  -1   6   9    5.61    1.83
   1  -6   9    3.70    0.87
   1   6   9    4.91    1.54
  -1   6  10    8.81    2.83
   1   6  10   10.66    2.12
   1  -6  10    6.04    1.62
  -1  -6  10    8.50    2.07
  -1   6  11    9.38    2.72
   1  -6  11    6.46    1.97
   1   6  11    4.10    1.64
  -1  -6  11    4.53    1.39
   1   6  12   17.43    3.74
   1  -6  12   14.04    2.66
   1   6  12   16.42    3.69
  -1   6  12    8.22    2.57
  -1   6  13   12.72    2.63
   1   6  13   15.15    3.32
   1   6  13   17.77    3.67
   1   6  14    1.98    1.25
  -1   6  14    3.80    2.34
   1   6  15    6.20    2.76
  -1   6  15    4.07    1.03
   1   6  15    3.31    2.26
  -1   6  16    1.91    1.79
   1   6  16    2.65    0.83
   1   6  16    4.35    1.63
  -1   6  17    1.57    1.60
   1   6  17    0.56    0.98
   1   6  17    0.50    1.69
  -1   6  17    1.37    1.75
  -1   6  18   -0.30    1.36
   1   6  18    0.75    1.50
   1   6  18    1.27    1.30
  -1   6  18    2.94    1.87
  -1   6  19    6.87    3.10
   1   6  19    1.77    2.36
  -1   6  19    2.83    2.07
   1   6  19    0.63    1.31
   1   6  20    2.38    2.47
  -1   6  20   -0.61    1.58
  -1   6  20   -0.19    1.71
   1   6  20    1.99    1.99
   1   6  21    3.29    1.66
  -1   6  21    6.00    1.74
  -1   6  21    3.21    1.36
   1   6  22    7.76    3.14
  -1   6  22    6.71    1.73
   1   6  23    2.91    2.40
  -1   6  23    2.27    1.55
   1   6  24    1.05    0.98
  -1   6  24   -0.38    2.10
  -1   6  25    1.20    2.60
   1   6  25    2.78    1.90
  -1   6  26    1.80    2.77
   1   6  26    0.14    1.23
  -1  -7 -25    0.29    1.95
   1  -7 -25    2.42    1.79
   1  -7 -24    4.10    1.85
  -1  -7 -24   -0.86    1.92
  -1  -7 -23   12.72    3.26
   1  -7 -23   14.05    3.17
   1  -7 -22   13.58    3.90
  -1  -7 -22   14.76    3.91
  -1  -7 -21    0.27    1.41
   1  -7 -21    3.81    1.48
   1  -7 -20   19.38    4.70
  -1  -7 -20   11.40    3.12
  -1  -7 -19   13.86    3.86
   1  -7 -19    9.18    2.85
  -1  -7 -18   -0.08    1.61
   1  -7 -18   -1.74    1.77
   1  -7 -17   20.70    4.09
  -1  -7 -17   14.52    3.37
   1  -7 -16   24.38    4.52
  -1  -7 -16   25.14    4.70
  -1  -7 -15    5.56    2.51
   1  -7 -15    1.29    1.81
   1  -7 -14    5.82    1.95
  -1  -7 -14    1.00    0.97
   1   7 -13   17.65    3.32
   1  -7 -13   23.22    3.80
  -1  -7 -13   23.59    3.97
  -1   7 -12   16.41    3.74
  -1  -7 -12    9.25    2.58
   1   7 -12   17.81    3.29
   1  -7 -12    9.92    2.98
   1  -7 -12   20.53    3.95
   1  -7 -11    4.87    2.41
   1   7 -11    6.84    2.29
  -1   7 -11    5.39    2.42
   1  -7 -11    0.54    1.32
  -1  -7 -11    6.54    2.38
   1  -7 -10   73.44    6.92
  -1   7 -10   88.36    7.78
  -1  -7 -10   72.31    7.05
   1   7 -10   68.96    6.95
   1  -7 -10   74.50    7.28
   1  -7  -9   41.49    5.40
   1   7  -9   52.68    6.09
  -1  -7  -9   37.65    5.01
   1  -7  -9   47.64    5.80
  -1   7  -9   38.47    5.03
  -1  -7  -8    3.67    1.93
   1  -7  -8    4.65    2.29
  -1   7  -8    6.81    2.32
   1  -7  -8    6.01    2.40
   1   7  -8    0.51    0.74
  -1   7  -7   49.49    5.90
   1  -7  -7   43.27    5.13
   1   7  -7   47.58    5.67
   1  -7  -7   58.04    6.26
  -1  -7  -7   51.07    5.26
  -1  -7  -6  107.56    7.36
   1   7  -6  123.00    9.18
  -1   7  -6  124.11    9.08
   1  -7  -6  116.52    9.04
   1  -7  -6  117.86    8.11
   1  -7  -5   35.92    4.38
  -1  -7  -5   38.53    5.12
  -1   7  -5   35.68    4.83
   1   7  -5   25.17    4.34
  -1  -7  -5   37.91    4.33
   1  -7  -5   32.00    4.67
  -1   7  -4   79.05    7.41
  -1  -7  -4   63.72    6.56
   1  -7  -4   79.16    6.40
  -1  -7  -4   71.29    5.90
   1  -7  -4   59.40    6.33
   1   7  -4   65.17    6.51
  -1  -7  -3  158.35   10.10
   1   7  -3  141.27    9.89
  -1   7  -3  155.61   10.25
  -1  -7  -3  154.01    8.10
   1  -7  -3  143.35    9.83
   1  -7  -3  150.11    8.53
   1   7  -2   72.28    6.96
  -1  -7  -2   62.51    6.28
   1  -7  -2   53.28    5.03
   1  -7  -2   52.26    5.90
  -1  -7  -2   53.04    4.57
  -1   7  -2   50.05    5.84
  -1  -7  -1    2.40    0.95
  -1   7  -1    1.49    1.53
   1   7  -1    3.72    1.96
   1  -7  -1    3.64    1.67
   1  -7  -1    2.50    1.38
  -1  -7  -1    2.11    1.02
   1  -7   0   29.73    3.56
   1  -7   0   38.84    5.03
   1   7   0   36.78    5.17
  -1  -7   0   35.62    4.71
  -1   7   0   41.56    5.56
   1   7   1    3.97    1.73
   1  -7   1    6.66    2.30
  -1  -7   1    4.62    2.41
  -1   7   1    2.57    1.94
   1  -7   1    5.50    1.69
  -1   7   2   64.15    6.56
   1   7   2   53.53    6.11
   1  -7   2   61.30    6.23
  -1  -7   2   59.05    5.85
   1  -7   2   58.08    4.66
  -1   7   3  177.39   11.09
   1   7   3  169.94   10.87
  -1  -7   3  168.17    9.98
   1  -7   3  149.84    9.63
  -1  -7   4   68.60    6.18
  -1   7   4   73.37    7.30
   1   7   4   67.25    6.86
   1  -7   4   68.10    6.39
  -1   7   5   28.87    4.76
   1  -7   5   30.97    4.42
  -1  -7   5   33.14    4.52
   1   7   5   31.99    4.91
   1  -7   6  107.28    7.93
   1   7   6  101.59    8.61
  -1  -7   6  109.94    7.94
  -1   7   6  132.92    9.78
   1   7   7   47.13    5.94
   1  -7   7   51.27    5.76
  -1  -7   7   53.50    5.44
  -1   7   7   55.69    6.43
  -1   7   8    3.84    2.20
   1   7   8    5.92    2.78
  -1  -7   8    0.83    0.89
   1  -7   8    3.55    1.65
  -1  -7   9   40.65    4.68
   1   7   9   42.28    5.85
   1  -7   9   34.13    4.64
  -1   7   9   51.07    6.35
  -1   7  10   52.77    6.58
   1  -7  10   60.02    6.13
  -1  -7  10   70.36    6.18
   1   7  10   73.53    7.25
   1   7  11    6.93    2.46
  -1   7  11    1.12    1.66
   1  -7  11    7.80    2.51
   1   7  12   14.16    3.55
   1   7  12    9.07    2.66
   1   7  13   16.58    4.13
  -1   7  13   19.17    3.80
   1   7  13   20.74    4.21
   1   7  14   13.36    3.28
  -1   7  14    7.11    2.31
   1   7  14   10.62    3.46
   1   7  15    6.27    2.35
   1   7  15    6.68    2.71
  -1   7  15    6.80    2.78
   1   7  16   34.39    5.49
  -1   7  16   28.16    5.06
   1   7  16   26.64    5.11
   1   7  17   16.86    3.63
  -1   7  17   16.75    4.08
  -1   7  17   10.22    2.67
   1   7  17    8.97    2.68
  -1   7  18    1.18    1.83
  -1   7  18   -0.78    1.95
   1   7  18   -1.52    2.22
   1   7  18   -0.36    1.33
   1   7  19   13.08    3.98
   1   7  19   13.75    3.57
  -1   7  19    7.52    2.93
  -1   7  19   11.54    3.32
  -1   7  20   16.14    4.52
   1   7  20   19.37    4.49
  -1   7  20    2.49    1.85
   1   7  20   15.30    4.31
  -1   7  21    5.10    2.73
  -1   7  21    1.85    1.61
   1   7  21   -2.55    2.28
   1   7  21    1.22    1.95
  -1   7  22   12.71    4.31
  -1   7  22   17.64    4.07
   1   7  22   20.17    4.61
   1   7  23   17.51    4.53
  -1   7  23   17.79    4.53
  -1   7  24    3.33    2.41
   1   7  24    0.70    2.51
  -1   7  25    2.00    1.63
   1   7  25    1.68    1.50
  -1  -8 -22    3.39    2.98
   1  -8 -22    0.36    1.23
   1  -8 -21   -0.41    1.15
  -1  -8 -21    1.38    1.10
   1  -8 -20    2.77    2.82
  -1  -8 -20    0.43    1.81
  -1  -8 -19   -0.35    2.36
   1  -8 -19    0.76    1.30
   1  -8 -18    1.58    1.89
  -1  -8 -18    0.40    2.10
   1  -8 -17   -0.97    1.53
  -1  -8 -17   -0.91    1.37
   1  -8 -16    0.88    1.20
  -1  -8 -16   -0.73    1.35
  -1  -8 -15   -1.37    0.97
   1  -8 -15    0.22    1.17
   1  -8 -14   -0.77    1.60
  -1  -8 -14    1.18    2.06
   1  -8 -13    5.11    2.51
  -1  -8 -13    5.11    2.58
  -1  -8 -12    1.29    1.85
   1   8 -12    1.44    1.08
   1  -8 -12    1.38    2.15
   1  -8 -11    3.45    1.69
   1   8 -11    4.66    2.40
  -1   8 -11    7.10    2.94
   1  -8 -11    5.70    2.36
  -1  -8 -11    4.98    1.69
  -1   8 -10    1.54    1.50
  -1  -8 -10    0.59    1.67
   1   8 -10    0.23    0.96
   1  -8 -10    1.56    1.63
   1  -8 -10    2.87    1.29
   1  -8  -9    1.39    1.41
  -1  -8  -9    2.90    1.70
  -1   8  -9    0.50    1.76
   1  -8  -9    0.65    1.54
   1   8  -9    2.91    2.60
   1   8  -8    4.70    2.15
  -1   8  -8    4.29    2.62
   1  -8  -8    4.16    2.18
   1  -8  -8    9.35    3.06
  -1  -8  -8    3.66    2.14
  -1  -8  -7    0.12    1.56
   1   8  -7    1.64    1.66
  -1   8  -7   -0.18    1.55
   1  -8  -7    2.16    0.82
   1  -8  -7    0.21    1.64
  -1  -8  -6   44.58    5.08
   1   8  -6   39.02    5.59
  -1   8  -6   54.30    6.69
   1  -8  -6   35.61    4.80
   1  -8  -6   43.34    5.87
  -1  -8  -5   12.48    3.02
   1  -8  -5   12.31    3.18
   1  -8  -5   12.89    2.56
  -1   8  -5   11.31    2.55
   1   8  -5   21.00    4.17
   1   8  -4    3.33    2.11
   1  -8  -4    5.44    1.75
  -1   8  -4    9.23    2.97
   1  -8  -4    6.20    2.23
   1  -8  -3   10.07    2.56
   1  -8  -3   14.59    3.13
  -1   8  -3   12.04    3.23
   1   8  -3   12.81    3.17
  -1  -8  -2   33.95    5.07
   1   8  -2   40.86    5.69
  -1   8  -2   30.60    4.61
   1  -8  -2   41.15    5.13
   1  -8  -1    4.57    1.82
  -1   8  -1    4.47    2.52
  -1  -8  -1    3.96    2.20
   1   8  -1    5.24    2.59
   1  -8   0   14.59    3.22
  -1   8   0   19.78    4.33
   1   8   0   14.26    3.51
  -1  -8   0   19.80    3.97
  -1  -8   1    2.67    2.11
  -1   8   1    5.86    2.32
   1   8   1    2.59    1.30
   1  -8   1    2.57    1.24
  -1   8   2   50.97    6.35
   1   8   2   37.58    5.49
   1  -8   2   37.53    5.23
  -1  -8   2   31.20    4.67
   1  -8   3   11.80    3.08
   1   8   3    8.22    2.78
  -1  -8   3   11.94    2.37
  -1   8   3   14.16    3.53
  -1   8   4   11.38    2.88
   1   8   4   10.25    2.75
  -1  -8   4    9.30    2.56
   1  -8   4    5.25    1.95
  -1  -8   5   13.46    2.72
   1   8   5   17.81    4.04
  -1   8   5   10.97    3.12
   1  -8   5   11.28    3.13
  -1   8   6   53.36    6.48
  -1  -8   6   48.51    5.83
   1  -8   6   39.65    5.30
   1   8   6   51.47    6.50
  -1  -8   7    2.19    1.73
  -1   8   7    1.14    1.00
   1  -8   7    0.44    1.21
   1   8   7    1.18    0.90
   1   8   8    8.80    2.84
  -1  -8   8    3.69    1.39
   1  -8   8    2.75    1.67
  -1   8   8    5.20    2.31
  -1   8   9    1.71    1.93
   1   8   9    1.37    1.20
   1  -8   9    2.88    2.39
  -1   8  10    2.10    2.40
   1   8  10   -0.13    1.29
   1   8  11    7.76    2.77
   1   8  11    6.74    2.39
  -1   8  11   10.67    3.11
  -1   8  12   -0.39    1.41
   1   8  12   -0.02    1.21
   1   8  12    1.32    1.91
   1   8  13    7.57    2.82
  -1   8  13    6.13    3.02
   1   8  13    6.18    2.85
   1   8  14    2.24    1.17
   1   8  14    2.40    2.09
  -1   8  14    1.78    1.25
   1   8  15   -0.34    1.77
   1   8  15    3.81    2.17
  -1   8  15    0.15    1.39
   1   8  16    0.32    1.81
  -1   8  16    0.61    1.54
   1   8  16   -0.30    2.03
  -1   8  16    0.47    1.04
  -1   8  17    5.54    2.90
   1   8  17   -0.49    1.16
   1   8  17    1.13    1.83
  -1   8  17    2.46    1.83
  -1   8  18   -1.92    1.48
   1   8  18   -1.38    3.10
  -1   8  18    2.25    1.66
   1   8  18    0.56    0.91
   1   8  19   -0.89    1.41
  -1   8  19   -0.70    1.75
  -1   8  19   -2.28    2.33
   1   8  19    0.58    1.75
   1   8  20   -1.33    1.86
   1   8  20    2.23    1.47
  -1   8  20   -0.61    1.73
  -1   8  20   -0.04    1.04
   1   8  21    0.11    0.96
  -1   8  21   -2.66    2.61
  -1   8  21   -1.96    2.03
   1   8  21    0.38    1.97
  -1   8  22    1.35    1.43
   1   8  22    3.14    1.94
  -1   8  22    2.71    2.66
   1  -9 -20    2.00    3.07
  -1  -9 -20   12.70    3.66
   1  -9 -19   -0.03    2.61
  -1  -9 -19    8.86    3.29
   1  -9 -18    1.70    1.78
  -1  -9 -18   -0.21    1.86
  -1  -9 -17   10.96    3.72
   1  -9 -17    7.19    3.19
  -1  -9 -16   10.48    3.87
   1  -9 -16   20.50    4.49
  -1  -9 -15    6.24    2.34
   1  -9 -15    4.42    1.46
  -1  -9 -14   12.44    3.15
   1  -9 -14   11.53    3.64
   1  -9 -13   15.67    3.49
  -1  -9 -13   18.64    4.17
   1  -9 -12    5.40    2.82
  -1  -9 -12    8.67    2.51
   1   9 -11    1.59    1.57
   1  -9 -11    5.84    2.64
   1   9 -10   27.13    5.09
   1  -9 -10   24.84    4.69
  -1   9 -10   26.97    5.24
   1  -9  -9    4.65    2.18
   1  -9  -9    8.53    2.41
  -1   9  -9   12.11    3.81
   1   9  -9    6.06    3.16
  -1   9  -8    1.38    1.60
   1   9  -8    3.60    2.21
   1  -9  -8    1.66    2.20
  -1   9  -7   32.88    5.53
   1   9  -7   18.43    3.94
   1  -9  -7   23.36    4.42
  -1   9  -6   56.83    6.89
   1  -9  -6   59.48    7.02
   1   9  -6   53.53    6.68
  -1   9  -5    2.55    1.61
   1  -9  -5   -0.06    1.92
   1   9  -5    2.29    1.74
   1  -9  -4   28.74    4.89
  -1   9  -4   40.09    5.93
   1   9  -4   37.10    5.90
  -1   9  -3   44.34    6.23
   1   9  -3   41.89    5.81
   1  -9  -3   45.11    5.90
  -1   9  -2   12.76    3.28
   1  -9  -2   27.39    4.79
   1   9  -2   21.50    4.61
   1  -9  -1    5.33    2.12
  -1   9  -1    5.76    2.61
   1   9  -1    8.44    3.32
   1  -9   0   30.79    4.97
   1   9   0   34.65    5.60
  -1   9   0   37.56    5.64
   1   9   1    5.48    1.87
   1  -9   1    4.55    1.81
  -1   9   1   10.52    3.03
   1   9   2   27.00    4.88
   1  -9   2   19.14    3.90
  -1   9   2   18.52    3.75
  -1   9   3   46.33    6.44
   1   9   3   42.17    5.82
   1  -9   3   48.14    6.14
  -1   9   4   30.16    4.98
   1  -9   4   40.08    5.74
   1   9   4   36.39    5.82
  -1   9   5    0.11    1.15
   1   9   5    6.12    2.99
   1  -9   5    5.18    1.74
   1   9   6   47.82    6.52
   1  -9   6   58.22    6.90
  -1   9   6   49.50    6.38
   1   9   7   29.96    5.12
  -1   9   7   26.32    5.04
   1  -9   7   27.89    4.61
   1   9   8   -0.84    1.46
  -1   9   8    0.66    1.80
   1  -9   8   -1.05    1.50
  -1   9   9   11.23    3.22
   1   9   9   11.48    3.02
   1   9   9   10.64    2.78
   1   9  10   24.52    4.71
   1   9  10   29.31    5.19
  -1   9  10   26.59    4.58
  -1   9  11    4.45    2.22
   1   9  11    4.45    1.82
   1   9  11    4.89    2.55
   1   9  12    5.27    2.04
   1   9  12    5.23    2.81
  -1   9  12    8.05    1.65
   1   9  13   18.28    4.03
   1   9  13   19.54    4.45
  -1   9  13   20.24    4.13
   1   9  14   11.57    3.45
  -1   9  14    5.84    2.51
   1   9  14    3.56    2.14
  -1   9  15    3.96    1.95
  -1   9  15    5.20    2.90
   1   9  15    3.47    2.49
   1   9  15    6.55    3.10
  -1   9  16   17.04    4.13
  -1   9  16   16.72    3.68
   1   9  16   16.40    4.16
   1   9  16   12.32    3.46
   1   9  17   12.71    3.84
   1   9  17    4.39    2.56
  -1   9  17    9.10    2.80
  -1   9  17    5.45    2.52
  -1   9  18    1.74    2.72
  -1   9  18   -1.12    1.58
   1   9  18    3.67    2.66
   1   9  18    2.03    2.32
  -1   9  19    7.77    2.11
  -1   9  19   13.00    3.84
   1   9  19    7.88    2.98
   1   9  20   13.42    4.10
   1   9  20    5.78    2.64
  -1   9  20    8.61    3.12
  -1   9  20    5.46    2.98
   1  10 -11    0.31    2.47
   1  10 -10    8.81    3.05
  -1  10  -9   13.85    3.67
   1  10  -9   13.25    3.54
   1  10  -8    1.74    2.40
  -1  10  -8    1.12    1.44
  -1  10  -7    1.17    1.97
   1  10  -7    8.14    3.03
   1 -10  -6   16.08    3.81
  -1  10  -6   14.55    3.95
   1  10  -6   17.42    4.26
   1  10  -5    2.47    2.27
   1 -10  -5    3.65    1.99
  -1  10  -5    3.70    2.03
   1  10  -4   15.90    4.13
   1 -10  -4   16.45    3.84
  -1  10  -4   11.84    3.45
   1  10  -3    7.33    2.68
  -1  10  -3    2.89    1.91
   1 -10  -3    3.10    1.89
   1  10  -2    6.21    1.45
  -1  10  -2    4.05    2.82
   1 -10  -2    4.30    1.89
   1  10  -1    3.06    1.28
  -1  10  -1    4.81    2.06
   1 -10  -1    3.81    2.25
   1  10   0    5.18    2.08
  -1  10   0    6.87    3.14
   1 -10   0    7.32    2.65
   1 -10   1    1.19    1.72
  -1  10   1    0.56    1.27
   1  10   1   -2.14    2.11
  -1  10   2    2.14    1.36
   1 -10   2    4.05    2.51
   1  10   2    8.09    2.90
   1 -10   3    5.74    3.36
  -1  10   3    6.69    3.10
   1  10   3    5.13    2.55
  -1  10   4   12.87    3.85
   1 -10   4   14.02    3.97
   1  10   4   11.70    3.16
  -1  10   5    0.09    1.78
   1 -10   5   -2.57    2.35
  -1  10   6   16.44    3.92
   1  10   6   21.70    4.52
   1 -10   6   17.49    3.93
   1  10   7    6.44    2.84
  -1  10   7    3.87    2.30
   1  10   7    8.52    2.54
  -1  10   8   -0.91    1.49
   1  10   8    0.48    2.04
   1  10   8    0.21    1.98
  -1  10   9    6.31    2.78
   1  10   9    8.19    3.21
   1  10   9    3.76    1.09
   1  10  10    4.92    3.07
  -1  10  10    4.96    2.04
   1  10  10    7.84    1.76
   1  10  11    8.97    3.44
  -1  10  11    4.92    3.01
   1  10  11    8.79    2.99
  -1  10  12   20.26    5.23
   1  10  12   16.87    4.41
   1  10  12   11.54    3.34
   1  10  13   11.74    3.61
   1  10  13    7.54    2.55
  -1  10  13   14.55    4.22
  -1  10  14    5.15    3.28
   1  10  14    4.11    2.56
   1  10  14    0.99    1.58
  -1  10  14    0.32    1.34
   1  10  15    5.60    2.68
   1  10  15    7.33    3.10
  -1  10  15    6.46    2.67
  -1  10  15    3.99    2.06
  -1  10  16    1.41    2.15
  -1  10  16   -3.37    2.87
   1  10  16   -0.38    1.68
   1  10  16   -0.07    1.45
   1  11 -10   -2.57    2.09
  -1  11  -9    7.74    4.02
   1  11  -9    4.46    2.84
  -1  11  -8    0.94    2.66
   1  11  -8   -0.97    2.30
  -1  11  -7    5.59    3.55
   1  11  -7   -0.72    1.37
  -1  11  -6    8.72    2.86
   1  11  -6   10.68    3.17
  -1  11  -5   -1.17    1.44
   1  11  -5    1.43    1.33
  -1  11  -4    6.51    2.88
   1  11  -4    2.55    1.38
   1  11  -3    9.48    3.73
  -1  11  -3    8.69    3.11
   1  11  -2    2.41    1.86
  -1  11  -2    4.49    2.78
   1  11  -2    0.70    1.29
  -1  11  -1    4.11    2.77
   1  11  -1    8.58    3.30
   1  11  -1    4.86    3.10
   1 -11  -1    3.66    2.59
   1  11   0   12.94    3.71
  -1  11   0   16.56    4.64
   1  11   0   10.57    3.33
   1 -11   0    8.77    3.21
   1  11   1    9.43    3.25
   1 -11   1    0.34    1.81
   1  11   1    3.56    2.03
  -1  11   1    8.53    2.84
   1  11   2    5.33    2.61
   1 -11   2    2.92    1.40
  -1  11   2    5.20    2.68
   1  11   2    2.54    0.95
  -1  11   3    7.98    2.58
   1  11   3    8.11    2.80
   1 -11   3    2.96    1.87
   1  11   4    4.63    2.07
   1  11   4    6.60    3.66
  -1  11   4   15.13    3.72
   1 -11   4    9.32    3.45
  -1  11   5    3.03    2.03
   1 -11   5    1.47    1.24
   1  11   5    1.59    3.07
   1  11   6    9.30    3.32
  -1  11   6   10.18    3.24
   1  11   6   11.01    3.65
   1  11   7    6.05    3.49
  -1  11   7    6.12    2.51
   1  11   7    8.81    3.02
  -1  11   8    0.17    2.34
   1  11   8    1.31    1.27
   1  11   8    0.66    1.39
  -1  11   9    2.95    1.18
   1  11   9    8.21    3.79
   1  11   9    5.21    2.32
   1  11  10    3.23    2.40
   1  11  10    8.85    3.45
  -1  11  10    3.69    2.99
   2   0 -31    4.48    2.20
   2   0 -30   12.36    3.33
   2   0 -29   20.44    4.37
   2   0 -28   22.38    4.87
   2   0 -27    5.92    1.32
   2   0 -26    0.95    1.42
   2   0 -25   44.11    6.09
   2   0 -24   36.99    5.23
   2   0 -23  108.81    9.04
   2   0 -22   25.20    4.62
  -2   0 -22   21.51    4.01
   2   0 -21   75.54    7.09
  -2   0 -21   72.06    7.34
   2   0 -20   21.50    3.84
  -2   0 -20   23.26    4.39
   2   0 -19  403.59   15.73
  -2   0 -19  398.21   16.02
   2   0 -18   10.75    2.69
  -2   0 -18   15.75    3.15
  -2   0 -17  193.04   10.56
   2   0 -17  175.04    9.82
  -2   0 -16   18.38    3.45
   2   0 -16   15.48    2.90
   2   0 -15  332.14   12.81
  -2   0 -15  339.79   13.32
   2   0 -14   19.13    3.21
  -2   0 -14   17.10    3.10
  -2   0 -13 2964.55   36.81
   2   0 -13 3102.64   36.20
   2   0 -12   40.47    4.09
  -2   0 -12   35.52    3.89
   2   0 -11  220.43    9.03
  -2   0 -11  207.67    9.08
   2   0 -10 1706.13   23.66
  -2   0 -10 1761.30   25.25
   2   0  -9 1253.73   19.46
   2   0  -9 1282.52   13.65
  -2   0  -9 1250.00   20.14
  -2   0  -8  359.95   10.28
   2   0  -8  353.45    9.88
   2   0  -8  353.73    6.77
   2   0  -7 5406.55   36.56
  -2   0  -7 5458.04   38.02
   2   0  -6  397.35    9.31
   2   0  -6  423.43    6.75
   2   0  -5 1573.74   16.31
   2   0  -5 1569.71   17.41
   2   0  -4 6134.08   31.69
   2   0  -3 4568.28   26.13
   2   0  -2 5630.11   27.17
   2   0  -1  313.71    6.10
   2   0  -1  313.32    5.99
   2   0  -1  324.85    5.71
   2   0   0    1.96    0.60
   2   0   0    4.23    0.73
   2   0   1  296.06    5.86
   2   0   1  305.54    5.42
   2   0   3 4611.87   25.77
   2   0   5 1567.67   16.46
   2   0   5 1605.02   10.02
   2   0   6  388.15    8.99
   2   0   7 5485.48   33.84
   2   0   8  353.80    8.99
   2   0   9 1263.31   17.86
   2   0  10 1723.33   21.50
   2   0  11  225.23    8.02
  -2   0  11  230.96    6.37
   2   0  12   44.30    3.70
  -2   0  12   38.51    2.71
   2   0  13 2932.04   31.81
  -2   0  13 3099.79   25.19
  -2   0  14   20.59    2.15
   2   0  14   21.18    2.62
   2   0  15  322.55   10.86
  -2   0  15  355.14    9.25
   2   0  16   20.15    2.88
  -2   0  16   19.23    2.23
   2   0  17  152.36    8.06
  -2   0  17  168.93    6.91
   2   0  18   11.33    2.27
  -2   0  18   10.01    1.68
   2   0  19  377.76   13.42
   2   0  20   27.93    3.72
   2  -1 -31    4.62    2.59
   2  -1 -30    3.23    2.62
   2  -1 -29    0.34    1.42
   2   1 -29    3.54    2.00
   2  -1 -28    0.96    1.85
   2   1 -28    0.46    1.68
   2   1 -27    0.87    1.59
   2  -1 -27    0.71    2.11
  -2  -1 -26   -0.19    1.20
   2   1 -26   -0.08    1.14
   2  -1 -26    2.61    2.41
  -2  -1 -25   -0.83    0.86
   2  -1 -25    5.14    2.52
   2   1 -25    2.89    2.26
   2  -1 -24   -0.46    1.06
  -2  -1 -24   -1.42    1.67
   2  -1 -23    4.49    2.10
  -2  -1 -23    4.41    1.55
   2   1 -23    1.13    1.57
  -2  -1 -22   14.85    3.46
   2   1 -22   12.20    2.98
   2  -1 -22   12.77    3.17
   2  -1 -21    6.08    2.05
   2   1 -21    7.06    1.82
  -2  -1 -21   11.88    3.09
   2  -1 -20   26.52    4.32
   2   1 -20   21.93    3.63
  -2  -1 -20   31.42    4.66
   2  -1 -19    2.32    1.58
   2   1 -19    3.12    1.90
  -2  -1 -19    4.29    1.73
  -2  -1 -18   24.40    3.93
   2  -1 -18   32.38    4.63
   2   1 -18   21.43    3.48
  -2  -1 -17    3.05    1.43
   2  -1 -17    4.01    1.67
   2   1 -17    1.12    0.87
   2  -1 -16   21.31    3.37
   2   1 -16   21.99    3.26
  -2  -1 -16   16.10    3.18
  -2  -1 -15   25.44    3.67
   2   1 -15   23.07    3.27
   2  -1 -15   20.81    3.29
   2  -1 -14   95.73    6.88
  -2  -1 -14   87.11    6.60
   2   1 -14   89.62    6.15
   2   1 -13   32.81    3.60
  -2  -1 -13   27.00    3.40
   2  -1 -13   26.85    3.58
   2   1 -12  413.04   12.17
  -2  -1 -12  394.94   13.22
   2  -1 -12  419.30   13.40
   2   1 -11   21.68    2.68
   2   1 -11   20.67    2.25
   2  -1 -11   16.86    2.56
  -2  -1 -11   21.30    3.08
   2  -1 -11   13.99    2.06
   2   1 -10   22.74    2.25
   2  -1 -10   14.34    2.49
  -2  -1 -10   18.02    2.62
   2   1 -10   16.20    2.25
   2  -1 -10   18.96    2.20
   2  -1  -9   65.56    4.05
   2  -1  -9   61.10    4.64
  -2  -1  -9   70.57    5.00
   2   1  -9   63.43    4.13
   2   1  -9   68.16    3.88
  -2  -1  -8  103.14    5.67
   2   1  -8  106.23    4.88
   2  -1  -8  108.87    5.97
   2   1  -8  110.45    4.86
   2  -1  -8  111.40    5.25
   2   1  -7   65.42    3.59
   2  -1  -7   60.41    4.19
  -2  -1  -7   65.82    4.33
   2   1  -7   63.82    3.57
   2  -1  -7   57.13    3.54
   2   1  -6  582.71    9.93
  -2  -1  -6  595.78   12.30
   2  -1  -6  580.55   10.85
   2  -1  -6  582.10   12.42
   2   1  -6  605.77   10.55
   2   1  -5   13.52    1.58
   2   1  -5   14.53    1.42
   2  -1  -5   16.11    1.82
  -2  -1  -5   12.47    1.71
   2  -1  -5   11.27    1.77
   2   1  -4   77.66    3.60
  -2  -1  -4   84.81    4.11
   2  -1  -4   85.87    4.32
   2  -1  -4   80.53    3.87
   2   1  -4   85.45    3.09
   2   1  -3  790.92    7.61
   2   1  -3  771.81    8.43
   2  -1  -3  739.81   12.07
   2  -1  -3  746.24   11.47
  -2  -1  -3  761.38   11.28
   2  -1  -2   94.37    3.97
   2   1  -2   98.85    2.81
   2  -1  -2   96.99    4.17
   2   1  -2   90.77    3.81
   2   1  -2   93.51    2.92
   2   1  -1   20.63    1.82
   2   1  -1   22.61    1.56
   2  -1  -1   20.81    1.81
   2  -1  -1   23.75    2.01
   2   1   0    0.85    0.50
   2  -1   0    0.64    0.31
   2   1   0    0.68    0.42
   2  -1   0    0.61    0.45
   2   1   1   18.26    1.66
   2   1   1   19.95    1.66
   2  -1   1   22.13    1.83
   2  -1   2   95.43    3.82
   2   1   2   87.56    3.58
   2   1   2   94.29    3.95
   2   1   3  774.90   11.79
   2  -1   3  802.66   11.29
   2   1   3  779.78   10.70
   2   1   4   85.42    3.54
   2   1   4   83.05    4.08
   2  -1   4   85.42    3.79
   2   1   5   17.09    1.93
   2  -1   5   14.38    1.59
   2   1   5   14.48    1.45
   2  -1   6  600.29   10.30
   2   1   6  578.04    9.49
   2   1   6  578.63   11.78
   2   1   7   68.37    4.17
   2  -1   7   63.02    3.38
   2   1   7   69.95    3.31
   2   1   8  100.93    5.29
   2  -1   8  109.84    4.73
   2   1   8  109.05    4.27
   2   1   9   71.32    3.46
   2   1   9   71.41    4.54
   2  -1   9   75.77    3.98
   2  -1  10   18.52    2.11
   2   1  10   18.09    2.31
   2   1  10   22.77    2.04
   2  -1  11   15.27    2.02
   2   1  11   20.10    1.88
   2   1  11   12.92    2.16
   2   1  12  405.11    8.85
   2   1  12  415.40   12.13
   2  -1  12  393.89   10.23
   2  -1  13   31.54    2.98
   2   1  13   28.00    3.32
   2   1  13   25.46    2.26
  -2  -1  13   23.72    1.40
   2  -1  14   93.15    5.29
   2   1  14   89.89    6.12
  -2   1  14   96.97    5.66
   2   1  14   92.72    4.39
  -2  -1  14   90.31    2.92
   2   1  15   30.44    2.56
  -2   1  15   25.04    3.00
  -2  -1  15   22.15    1.54
   2  -1  15   22.63    2.79
   2   1  15   23.27    3.18
   2   1  16   20.42    3.06
  -2   1  16   16.38    2.51
   2   1  16   20.34    2.17
  -2  -1  16   17.26    1.43
   2  -1  16   19.52    2.65
   2  -1  17    3.39    1.19
   2   1  17    2.83    1.30
  -2   1  17    4.58    1.46
  -2   1  18   25.08    3.32
   2  -1  18   27.25    3.24
   2   1  19    2.62    1.61
  -2   1  19    1.69    0.97
   2  -1  19    2.41    1.44
   2   1  20   28.06    4.15
   2   1  21    9.64    2.42
   2   1  22   13.79    3.10
   2  -2 -30    3.90    2.72
   2  -2 -29   48.55    6.84
   2  -2 -28    7.60    2.33
  -2  -2 -28   12.93    4.09
   2  -2 -27    7.09    2.34
  -2  -2 -27    7.27    2.59
   2  -2 -26    7.29    2.74
  -2  -2 -26    1.64    1.69
  -2  -2 -25   67.36    7.62
   2  -2 -25   60.90    7.25
   2   2 -24   12.19    3.51
  -2  -2 -24   11.70    2.90
   2  -2 -24    6.38    2.39
  -2  -2 -23  114.50    9.45
   2   2 -23  134.97   10.05
   2  -2 -23  138.94   10.54
   2  -2 -22    1.00    0.86
  -2  -2 -22    4.25    2.36
   2   2 -22    0.67    1.30
  -2  -2 -21    2.22    1.21
   2   2 -21    0.37    1.18
   2  -2 -21    2.48    1.46
  -2  -2 -20   16.65    3.48
   2   2 -20    9.50    2.73
   2  -2 -20   11.64    3.18
   2  -2 -19  148.96   10.10
   2   2 -19  140.54    9.05
  -2  -2 -19  133.12    9.53
   2   2 -18   36.38    4.70
   2  -2 -18   40.55    5.01
  -2  -2 -18   28.41    4.32
   2   2 -17  172.22    9.33
   2  -2 -17  177.60   10.44
  -2  -2 -17  167.28   10.20
   2  -2 -16    6.23    2.32
   2   2 -16    5.34    1.80
  -2  -2 -16    1.51    1.00
   2   2 -15   28.68    3.54
  -2  -2 -15   28.21    4.14
   2   2 -15   24.03    2.68
   2  -2 -15   28.08    3.88
   2   2 -14    5.59    1.20
   2  -2 -14    3.72    1.86
   2   2 -14    5.10    1.27
  -2  -2 -14    5.50    1.77
   2  -2 -13  586.67   16.97
   2   2 -13  573.65   14.33
   2   2 -13  574.50   12.92
   2  -2 -13  556.33   15.03
  -2  -2 -13  578.68   16.92
   2   2 -12  140.29    6.29
   2   2 -12  150.09    6.94
   2  -2 -12  134.32    7.12
  -2  -2 -12  135.74    7.82
   2  -2 -12  138.04    7.93
   2   2 -11    3.46    1.02
   2   2 -11    3.58    1.04
  -2  -2 -11    3.35    1.79
   2  -2 -11    2.47    1.02
  -2   2 -11    3.03    0.52
   2  -2 -11    2.04    1.15
   2   2 -10   93.59    4.87
  -2   2 -10   79.57    2.83
   2  -2 -10   86.76    6.01
  -2  -2 -10   79.40    5.68
   2  -2 -10   86.25    5.50
   2   2 -10   95.47    5.05
  -2   2  -9  454.06    7.30
   2  -2  -9  470.64   12.56
   2   2  -9  436.99   10.77
  -2  -2  -9  449.42   12.95
   2   2  -9  443.67    9.99
   2  -2  -9  435.92   13.12
   2   2  -8   23.67    2.06
  -2  -2  -8   29.19    3.17
   2  -2  -8   22.88    3.05
  -2   2  -8   30.07    1.98
   2  -2  -8   29.30    3.05
   2   2  -8   30.83    2.77
   2  -2  -7  427.86   11.45
  -2   2  -7  437.42    7.92
   2   2  -7  435.76   10.37
   2  -2  -7  419.05   11.82
   2   2  -7  442.91    8.11
  -2  -2  -7  449.49   11.83
   2  -2  -6   26.07    2.78
  -2   2  -6   22.10    1.89
   2   2  -6   22.30    1.62
   2   2  -6   22.94    1.35
  -2  -2  -6   21.76    2.53
   2   2  -6   21.20    2.24
  -2   2  -5   54.72    3.05
   2  -2  -5   55.56    3.86
   2  -2  -5   59.71    4.14
   2   2  -5   50.27    3.51
  -2  -2  -5   53.19    3.61
   2   2  -5   58.21    2.19
   2   2  -5   56.27    2.31
   2   2  -4  138.77    5.70
   2  -2  -4  133.02    5.96
  -2   2  -4  137.78    5.00
   2  -2  -4  131.21    5.83
   2   2  -4  130.54    3.96
  -2  -2  -4  145.71    5.60
   2  -2  -3 2066.56   22.71
   2   2  -3 2018.68   21.78
   2   2  -3 2073.08   17.03
   2  -2  -3 2020.34   22.78
  -2  -2  -3 2049.99   19.57
  -2  -2  -2  277.81    6.58
   2   2  -2  273.95    7.98
   2  -2  -2  263.96    8.09
   2  -2  -2  286.54    8.13
   2   2  -2  271.30    6.58
   2  -2  -1  702.59   12.89
   2   2  -1  688.31   12.73
   2  -2  -1  720.68   12.36
   2   2  -1  711.32   11.26
  -2  -2  -1  713.74    9.37
   2  -2   0  143.39    5.34
   2   2   0  123.64    4.98
   2   2   0  136.57    5.65
   2   2   1  712.75   12.96
   2  -2   1  722.56   12.75
   2   2   1  718.20   12.45
   2  -2   1  723.08   11.60
   2  -2   2  272.35    7.75
   2  -2   2  267.78    7.16
   2   2   2  284.85    8.12
   2   2   2  280.60    8.18
   2   2   3 1985.98   22.51
   2   2   3 2027.88   21.97
   2   2   4  143.81    5.99
   2   2   4  129.63    5.92
   2  -2   4  137.60    5.49
   2   2   5   55.48    3.97
   2  -2   5   52.52    3.33
   2   2   5   53.21    3.61
   2   2   6   21.35    2.58
   2  -2   6   27.27    2.41
   2   2   6   25.04    2.55
   2   2   7  441.67   10.71
   2  -2   7  418.84    9.65
   2   2   7  446.13   11.93
   2  -2   8   34.86    2.79
   2   2   8   27.78    2.95
   2   2   8   28.54    2.76
   2   2   9  434.53   12.54
   2   2   9  465.84   11.18
   2  -2   9  450.51   10.21
   2   2  10   98.76    5.32
   2  -2  10   89.47    4.65
   2   2  10   89.03    5.80
   2  -2  11    3.35    1.00
   2   2  11    2.68    0.99
   2   2  11    1.77    0.87
   2   2  12  127.93    7.31
   2  -2  12  149.03    6.29
   2   2  12  128.30    6.29
   2   2  13  593.63   16.19
   2   2  13  604.94   13.61
   2  -2  13  575.99   12.83
   2   2  14    5.39    1.51
   2  -2  14    3.11    1.08
   2   2  14    4.18    1.08
   2   2  15   25.84    3.05
   2   2  15   24.28    3.50
   2  -2  15   22.75    2.75
   2   2  16    4.31    1.27
  -2   2  16    2.22    0.46
   2   2  16    1.31    0.46
   2  -2  16    4.05    1.20
   2  -2  17  160.36    7.56
  -2   2  17  177.02    9.54
   2   2  17  164.14    7.76
   2   2  17  191.64   10.20
   2   2  18   38.36    4.92
  -2   2  18   33.91    4.21
  -2   2  19  134.07    8.49
   2   2  19  147.76    9.27
   2   2  20   10.68    2.61
  -2   2  20    8.66    2.17
   2   2  21    0.91    1.17
  -2   2  21    0.24    0.59
   2   2  22    3.80    1.92
   2   2  23  114.60    9.09
  -2  -3 -30   -1.26    1.39
   2  -3 -30   -0.28    1.04
  -2  -3 -29    9.08    2.70
   2  -3 -29    9.84    2.64
  -2  -3 -28    0.74    1.21
   2  -3 -28    0.87    0.99
  -2  -3 -27   -0.19    2.07
   2  -3 -27    0.97    2.10
   2  -3 -26   -1.23    1.96
  -2  -3 -26    1.78    2.35
   2  -3 -25   11.77    3.54
  -2  -3 -25    9.09    2.59
  -2  -3 -24    2.03    1.88
   2  -3 -24   -0.32    1.10
  -2  -3 -23    1.14    0.96
   2  -3 -23    2.26    1.68
   2  -3 -22    2.43    1.90
  -2  -3 -22    2.20    2.42
  -2  -3 -21   11.45    3.11
   2  -3 -21   11.80    3.25
   2  -3 -20    4.10    1.51
  -2  -3 -20    5.01    1.87
   2  -3 -19    1.72    1.23
   2   3 -19    1.45    1.75
  -2  -3 -19   -0.54    0.83
   2  -3 -18    4.78    2.21
   2   3 -18    4.84    1.45
  -2  -3 -18    8.21    2.63
   2   3 -17    1.03    1.12
  -2  -3 -17    0.12    1.06
   2  -3 -17    1.59    1.99
  -2  -3 -16    2.98    1.66
   2   3 -16    0.76    0.74
   2  -3 -16    3.05    1.53
  -2  -3 -15    8.03    2.47
   2   3 -15    3.70    1.22
   2  -3 -15    6.59    2.00
   2   3 -15    2.71    1.03
   2  -3 -14   11.16    2.85
   2   3 -14   10.18    1.90
  -2  -3 -14   16.72    3.06
   2   3 -14    9.10    1.78
   2  -3 -14    9.32    2.25
   2   3 -13    2.39    1.10
   2  -3 -13    2.85    0.92
   2  -3 -13    2.47    1.24
  -2  -3 -13    0.25    0.94
   2   3 -13    3.37    1.40
  -2   3 -13    5.16    1.20
   2   3 -12   33.89    3.34
   2  -3 -12   26.67    3.64
   2   3 -12   38.06    3.35
   2  -3 -12   39.09    4.33
  -2   3 -12   31.88    2.60
  -2  -3 -12   32.79    4.14
  -2  -3 -11   40.78    4.34
   2   3 -11   36.12    3.10
   2  -3 -11   38.51    4.19
   2  -3 -11   36.32    4.20
   2   3 -11   36.87    3.54
  -2  -3 -10   33.13    3.81
   2   3 -10   34.07    3.43
   2  -3 -10   31.13    3.82
   2  -3 -10   32.78    3.74
   2   3 -10   30.53    2.59
  -2   3 -10   31.24    2.63
   2   3  -9   43.11    2.80
   2  -3  -9   50.16    4.62
   2   3  -9   39.45    1.95
   2  -3  -9   42.82    4.35
  -2  -3  -9   39.41    4.00
  -2   3  -9   39.82    3.18
   2   3  -9   38.00    3.56
   2  -3  -8    4.53    1.23
  -2  -3  -8    2.96    1.24
   2  -3  -8    3.69    1.31
   2   3  -8    2.10    0.91
  -2   3  -8    1.11    0.53
   2   3  -8    1.94    0.57
   2  -3  -7   20.04    2.76
   2  -3  -7   24.96    3.07
  -2   3  -7   22.30    2.39
   2   3  -7   28.10    2.02
  -2  -3  -7   25.00    2.87
   2   3  -7   28.62    3.10
   2  -3  -6    2.47    1.17
   2  -3  -6    4.59    1.34
  -2   3  -6    2.96    0.65
   2   3  -6    2.08    1.02
  -2  -3  -6    0.20    0.49
   2   3  -5  144.48    6.84
  -2   3  -5  149.92    6.42
  -2  -3  -5  151.87    6.60
   2  -3  -5  157.91    7.23
   2  -3  -5  149.03    7.37
  -2  -3  -4   12.77    1.90
   2  -3  -4   15.70    2.42
   2   3  -4   16.71    2.23
   2  -3  -4   14.80    2.07
  -2   3  -4   14.24    1.88
  -2  -3  -3   12.90    1.68
   2  -3  -3   13.23    2.10
  -2   3  -3   14.13    2.04
   2  -3  -3   10.10    1.83
   2   3  -3   12.85    2.04
  -2  -3  -2   56.92    3.27
  -2   3  -2   55.75    4.09
   2  -3  -2   57.24    4.05
   2  -3  -2   63.41    4.56
   2   3  -2   53.74    4.13
  -2   3  -1 1014.18   17.28
  -2  -3  -1 1043.11   12.65
   2  -3  -1  995.56   17.92
   2   3  -1 1011.60   17.98
   2  -3  -1 1031.36   16.39
   2  -3   0  111.92    5.27
   2  -3   0  104.22    5.74
   2   3   0  112.60    5.99
  -2  -3   0  116.01    3.68
   2   3   1 1000.13   18.22
   2  -3   1 1009.78   17.43
   2  -3   1 1004.92   15.36
   2  -3   2   62.15    3.72
   2  -3   2   58.06    4.31
   2   3   2   54.61    4.26
   2  -3   3   12.54    1.85
   2  -3   3   15.19    1.89
   2   3   3   12.07    1.96
   2   3   3   13.91    2.17
   2  -3   4   15.39    2.16
   2   3   4   19.74    2.62
   2  -3   4   15.53    1.86
   2   3   4   16.19    2.32
   2   3   5  154.83    7.30
   2   3   5  146.60    7.34
   2  -3   5  153.11    6.67
   2   3   6    0.98    0.43
   2  -3   6    0.56    0.37
   2   3   7   23.74    2.89
   2  -3   7   29.19    2.80
   2   3   7   22.94    3.11
   2  -3   8    2.13    0.79
   2   3   8    2.61    0.96
   2   3   8    0.91    1.02
   2  -3   9   43.35    3.57
   2   3   9   39.77    3.82
   2   3   9   41.55    4.21
   2   3  10   32.74    3.77
   2   3  10   28.78    3.35
   2  -3  10   26.70    2.77
   2  -3  11   36.74    3.33
   2   3  11   38.08    3.91
   2   3  11   30.77    3.89
   2   3  12   31.96    3.56
   2   3  12   33.69    3.97
   2  -3  12   29.78    3.10
   2   3  13    3.30    1.11
   2  -3  13    2.19    0.90
   2   3  13    2.14    1.73
   2   3  14    7.10    1.86
   2  -3  14    6.20    1.28
   2   3  14    4.18    1.88
   2   3  15    6.32    1.86
   2  -3  15    7.48    1.47
   2   3  15    7.51    1.80
   2  -3  16    6.62    1.54
   2   3  16    1.49    0.98
   2   3  16    5.71    1.91
  -2   3  17    2.52    1.19
   2   3  17    1.57    1.38
   2   3  17    1.30    1.40
   2   3  18    3.57    1.54
  -2   3  18    2.26    0.92
   2   3  18    3.59    1.82
  -2   3  18    5.06    1.81
   2   3  19    2.38    1.73
  -2   3  19   -0.51    1.16
  -2   3  19    0.20    0.96
   2   3  20    2.35    1.75
  -2   3  20    2.51    1.92
  -2   3  20    1.17    0.79
   2   3  21    8.86    2.74
  -2   3  21   14.18    3.23
   2   3  22    0.53    1.52
  -2   3  22    0.27    1.43
   2   3  23    3.74    1.78
   2   3  24    2.21    1.62
  -2  -4 -29   22.06    5.04
   2  -4 -29   19.95    4.63
   2  -4 -28    5.40    2.91
  -2  -4 -28    7.14    2.47
  -2  -4 -27    2.94    1.44
   2  -4 -27    2.69    1.49
   2  -4 -26   -0.09    1.21
  -2  -4 -26    4.22    2.73
   2  -4 -25   53.72    6.82
  -2  -4 -25   58.63    7.36
   2  -4 -24    2.95    1.68
  -2  -4 -24    3.10    1.72
   2  -4 -23   38.46    5.63
  -2  -4 -23   29.15    5.13
  -2  -4 -22    2.56    2.33
   2  -4 -22    1.71    2.00
   2  -4 -21    0.99    1.58
  -2  -4 -21   -0.88    1.00
   2  -4 -20   10.73    2.81
  -2  -4 -20    9.58    3.34
   2  -4 -19  134.74    9.96
  -2  -4 -19  142.55   10.22
  -2  -4 -18   29.16    4.59
   2  -4 -18   33.49    4.87
  -2  -4 -17  138.79    9.63
   2  -4 -17  128.31    9.36
  -2  -4 -16    1.91    1.37
   2  -4 -16    1.31    1.68
   2  -4 -15   37.98    4.95
  -2  -4 -15   39.37    4.82
   2  -4 -15   36.79    4.79
   2   4 -15   31.92    3.73
   2  -4 -14   52.45    5.62
   2   4 -14   52.66    4.86
   2  -4 -14   64.33    6.24
  -2  -4 -14   49.80    5.42
   2   4 -13  357.89   12.70
   2  -4 -13  358.34   14.13
  -2  -4 -13  396.14   14.85
   2  -4 -13  360.69   14.40
  -2  -4 -12  114.52    7.78
   2  -4 -12  115.38    7.95
   2  -4 -12  117.38    8.04
  -2   4 -12  119.43    6.17
   2   4 -12  116.07    7.04
  -2   4 -11   51.71    4.18
   2  -4 -11   56.69    5.57
   2  -4 -11   58.05    5.48
  -2  -4 -11   50.72    5.12
   2   4 -10    3.97    0.85
  -2   4 -10    2.46    1.00
   2   4 -10    3.13    1.07
   2  -4 -10    2.01    1.61
   2  -4 -10    4.56    1.75
  -2  -4 -10    5.19    2.06
   2  -4  -9  375.46   13.54
  -2  -4  -9  370.85   12.92
  -2   4  -9  388.21   11.63
   2  -4  -9  387.42   13.85
   2   4  -9  382.35   12.50
   2  -4  -8   49.09    4.81
   2  -4  -8   56.08    5.27
   2   4  -8   59.03    5.07
  -2   4  -8   52.65    4.30
  -2  -4  -8   45.77    4.44
  -2  -4  -7  109.90    6.57
   2  -4  -7   98.24    6.60
  -2   4  -7  105.45    6.16
   2  -4  -7  110.21    7.27
   2   4  -7  101.87    6.47
   2   4  -6   55.73    4.75
   2  -4  -6   52.78    4.88
   2  -4  -6   43.15    4.24
  -2   4  -6   54.60    4.45
  -2  -4  -6   56.41    4.51
  -2   4  -5   34.00    3.63
   2  -4  -5   33.16    3.99
   2  -4  -5   25.66    3.19
  -2  -4  -5   35.96    3.43
   2   4  -5   31.99    3.62
   2   4  -4  116.45    6.87
   2  -4  -4  122.38    7.27
   2  -4  -4  122.75    6.75
  -2  -4  -4  125.27    6.07
  -2   4  -4  113.20    6.54
  -2   4  -3  300.09   10.96
   2  -4  -3  312.90   11.68
  -2  -4  -3  332.71    9.41
   2  -4  -3  314.21   10.40
   2   4  -3  323.99   11.45
  -2  -4  -2   43.19    3.10
   2  -4  -2   35.27    3.51
  -2   4  -2   35.75    3.84
   2  -4  -2   37.40    3.92
   2   4  -2   39.27    4.02
  -2   4  -1 1512.00   24.59
   2  -4  -1 1477.50   21.45
  -2  -4  -1 1510.32   16.84
   2   4  -1 1464.07   24.74
   2  -4  -1 1539.34   24.79
  -2   4   0  167.31    8.23
   2   4   0  157.48    8.14
   2  -4   0  171.76    8.24
   2  -4   0  168.50    7.02
  -2  -4   0  155.44    4.93
   2   4   1 1485.72   25.05
   2  -4   1 1543.54   20.78
   2  -4   1 1488.09   23.96
  -2  -4   1 1531.51   13.32
  -2   4   1 1473.38   24.56
   2  -4   2   32.08    2.99
   2   4   2   37.68    4.03
  -2   4   2   40.84    4.22
   2  -4   2   36.63    3.75
  -2  -4   3  322.42    9.89
  -2   4   3  325.87   11.95
   2  -4   3  316.96    9.27
   2   4   3  347.75   12.12
   2  -4   3  300.67   10.72
  -2   4   4  116.57    7.12
   2  -4   4  126.90    6.85
   2  -4   4  117.30    5.58
   2   4   4  118.82    7.19
  -2   4   5   32.92    3.77
   2   4   5   32.69    3.81
   2  -4   5   30.54    2.88
   2  -4   5   30.57    3.34
   2   4   6   54.27    4.89
   2  -4   6   58.21    4.54
   2  -4   6   60.57    4.06
   2   4   6   56.92    5.10
  -2   4   6   53.39    4.97
   2   4   7  107.22    7.23
   2  -4   7  106.11    6.10
   2   4   7   99.27    6.74
  -2   4   7  112.40    7.29
   2   4   8   53.26    5.03
  -2   4   8   59.12    5.20
   2  -4   8   52.56    4.39
   2   4   8   50.31    5.15
   2   4   9  384.90   13.55
   2  -4   9  377.20   11.69
   2   4   9  402.95   14.50
  -2   4   9  392.98   13.88
   2  -4  10    3.45    1.25
  -2   4  10    4.08    1.70
   2   4  10    4.15    1.64
   2   4  10    3.32    1.40
  -2   4  11   49.81    5.26
   2   4  11   48.76    4.84
   2  -4  11   53.21    4.43
   2   4  11   51.11    5.34
   2   4  12  124.80    7.82
  -2   4  12  113.56    7.94
   2  -4  12  129.39    6.77
   2   4  13  335.30   13.28
   2   4  13  360.26   14.54
  -2   4  13  342.02   13.90
   2  -4  13  352.40   11.29
  -2   4  14   53.37    5.49
   2   4  14   58.28    5.52
   2   4  14   48.95    5.37
   2  -4  14   54.19    4.41
   2   4  15   32.21    4.11
   2   4  15   29.79    4.18
   2  -4  15   28.12    3.25
  -2   4  15   28.87    3.89
   2   4  16    1.89    1.55
   2   4  16    2.52    1.72
  -2   4  16    2.03    1.73
   2   4  17  123.52    8.59
   2   4  17  126.80    9.13
  -2   4  17  129.78    9.05
  -2   4  18   34.34    4.76
   2   4  18   48.08    5.74
  -2   4  18   34.94    5.20
   2   4  18   47.49    5.24
   2   4  19  118.75    8.61
  -2   4  19  144.17   10.23
   2   4  19  121.34    9.46
  -2   4  19  134.92    9.93
  -2   4  20    3.78    2.21
   2   4  20    3.48    1.81
  -2   4  20    4.96    2.29
  -2   4  21   -0.86    1.33
   2   4  21    1.08    1.21
  -2   4  21    2.17    2.19
   2   4  22    2.19    1.89
  -2   4  22    2.15    1.06
  -2   4  23   35.13    5.46
   2   4  23   31.69    5.26
   2   4  24    5.34    2.14
   2   4  25   44.03    6.30
  -2  -5 -28   -2.87    2.13
   2  -5 -28   -1.05    1.19
  -2  -5 -27    5.81    2.82
   2  -5 -27    7.56    3.54
  -2  -5 -26    1.03    2.06
   2  -5 -26    0.49    1.55
   2  -5 -25    8.34    3.26
  -2  -5 -25   10.90    3.32
   2  -5 -24    1.03    1.16
  -2  -5 -24    3.81    2.52
  -2  -5 -23    2.05    1.41
   2  -5 -23    3.25    2.45
   2  -5 -22   11.62    3.02
  -2  -5 -22   16.63    3.45
   2  -5 -21    0.65    1.33
  -2  -5 -21   -0.74    0.97
  -2  -5 -20    1.13    1.17
   2  -5 -20    0.94    1.17
   2  -5 -19   10.88    3.37
  -2  -5 -19    6.31    1.93
  -2  -5 -18    2.02    2.07
   2  -5 -18   -1.39    1.81
  -2  -5 -17    3.51    2.22
   2  -5 -17    2.72    1.85
  -2  -5 -16    6.17    2.49
   2  -5 -16    8.88    2.43
   2  -5 -15    2.64    1.57
   2  -5 -15    1.72    1.31
  -2  -5 -15    2.61    1.70
   2  -5 -14    5.51    1.58
  -2  -5 -14    3.47    1.92
   2  -5 -14    8.37    2.55
   2   5 -14    3.98    1.81
   2   5 -13   53.42    5.28
  -2  -5 -13   59.59    6.05
   2  -5 -13   57.34    6.07
   2  -5 -13   60.17    5.89
   2  -5 -12   26.27    4.09
   2  -5 -12   27.84    4.26
  -2  -5 -12   28.27    4.09
  -2   5 -12   24.59    3.39
   2   5 -12   25.71    3.68
  -2   5 -11    4.66    1.29
   2   5 -11    1.88    0.99
   2  -5 -11    0.62    0.61
  -2  -5 -11    4.47    2.10
   2  -5 -11    3.78    2.00
   2   5 -10   13.31    2.54
   2  -5 -10   18.41    3.19
  -2  -5 -10   18.26    3.04
  -2   5 -10   16.80    2.80
   2  -5 -10   24.31    3.78
  -2  -5  -9   11.68    2.40
   2  -5  -9   15.30    2.90
   2  -5  -9   18.63    3.20
   2   5  -9   19.28    3.32
  -2   5  -9   11.25    2.40
  -2  -5  -8    3.73    1.51
   2  -5  -8    7.28    1.96
   2   5  -8    4.89    1.55
   2  -5  -8    4.72    1.74
  -2   5  -8    5.02    1.58
   2   5  -7    1.50    0.64
   2  -5  -7    0.31    1.09
  -2  -5  -7   -0.21    0.95
  -2   5  -7   -0.54    0.78
   2  -5  -7   -0.27    1.02
   2  -5  -6    7.41    2.01
   2   5  -6    6.89    2.10
  -2   5  -6    7.85    2.27
   2  -5  -6    8.06    1.99
  -2  -5  -6    7.49    1.87
  -2  -5  -5   19.42    2.84
  -2   5  -5   20.92    3.14
   2   5  -5   20.53    3.14
   2  -5  -5   21.43    3.53
   2  -5  -5   18.08    2.89
  -2  -5  -4   78.02    5.24
   2  -5  -4   73.62    6.13
  -2   5  -4   73.74    5.79
   2  -5  -4   79.90    5.67
   2   5  -4   81.26    6.41
   2  -5  -3   78.26    5.56
  -2  -5  -3   74.62    4.76
   2   5  -3   83.05    6.45
   2  -5  -3   73.50    6.15
  -2   5  -3   77.92    6.07
  -2  -5  -2    7.87    1.46
   2  -5  -2    7.70    1.73
   2   5  -2    5.09    1.52
  -2   5  -2    8.83    2.21
   2  -5  -2    4.95    1.80
  -2  -5  -1  298.39    8.34
   2  -5  -1  272.45    9.87
   2   5  -1  288.29   12.06
  -2   5  -1  291.23   11.89
   2  -5  -1  295.73   12.05
   2   5   0   45.06    4.65
   2  -5   0   37.67    3.64
  -2   5   0   32.63    4.09
   2  -5   0   36.66    4.16
  -2  -5   0   33.00    2.51
   2  -5   1  270.86   11.35
   2   5   1  281.53   12.12
  -2  -5   1  286.28   10.96
   2  -5   1  304.31   10.07
  -2  -5   1  298.12    6.74
  -2   5   1  282.26   11.90
   2  -5   2    4.53    1.36
  -2  -5   2    5.93    0.81
  -2  -5   2    6.43    1.64
   2  -5   2    5.85    1.95
  -2   5   2    3.99    1.08
   2   5   2    6.28    1.91
  -2  -5   3   68.75    5.25
   2  -5   3   74.89    4.83
   2  -5   3   73.92    5.82
   2   5   3   67.68    6.04
  -2   5   3   69.90    6.18
  -2   5   4   75.97    6.41
   2   5   4   79.41    6.57
  -2  -5   4   75.33    5.38
   2  -5   4   74.67    5.76
   2  -5   4   69.58    4.59
   2  -5   5   15.90    2.70
  -2  -5   5   27.40    3.21
   2   5   5   24.41    3.58
   2  -5   5   18.65    2.35
  -2   5   5   19.77    3.24
   2  -5   6    8.89    1.99
  -2  -5   6    5.60    1.43
   2  -5   6    7.96    1.72
  -2   5   6    8.68    2.19
   2   5   6    4.08    1.30
   2   5   7    0.08    1.11
  -2   5   7   -0.77    1.00
   2  -5   7    0.12    0.91
   2  -5   7   -0.08    1.07
  -2   5   8    1.90    1.06
   2   5   8    5.45    1.62
   2  -5   8    4.84    1.44
   2  -5   8    3.94    1.16
   2   5   8    4.18    1.35
   2   5   9   13.95    2.76
   2  -5   9    8.93    1.94
   2   5   9   13.69    2.80
  -2   5   9   12.36    2.92
   2  -5   9   16.17    2.36
  -2   5  10    8.20    2.53
   2   5  10   14.50    3.10
   2  -5  10   17.51    2.78
   2   5  10   15.77    3.25
   2   5  11    2.05    1.09
   2   5  11   -0.45    1.89
  -2   5  11    2.96    1.30
   2  -5  11    4.07    1.47
  -2   5  12   25.57    4.00
   2   5  12   27.26    4.20
   2   5  12   29.44    4.35
   2  -5  12   27.26    3.46
  -2   5  13   58.70    6.13
   2  -5  13   64.53    5.16
   2   5  13   53.84    5.86
   2   5  13   59.33    6.33
   2  -5  14    5.38    1.75
   2   5  14    8.37    2.73
   2   5  14    7.19    2.37
  -2   5  14    4.57    1.82
  -2   5  15    2.43    1.98
   2   5  15    1.59    1.44
   2   5  15    2.89    1.32
  -2   5  16    8.92    2.86
   2   5  16    8.81    2.62
   2   5  16   10.59    2.88
   2   5  17    4.73    1.49
  -2   5  17    3.33    1.78
   2   5  18    0.70    1.24
   2   5  18   -1.76    1.65
  -2   5  18   -1.28    1.32
  -2   5  19   10.67    3.61
   2   5  19    8.76    2.82
   2   5  19   11.26    3.18
  -2   5  19   12.17    3.29
   2   5  20    0.01    1.67
  -2   5  20   -1.51    1.27
   2   5  20    1.44    0.90
  -2   5  21    3.79    2.45
  -2   5  21    1.09    1.64
   2   5  21    1.35    0.76
  -2   5  22   12.80    3.39
   2   5  22   10.50    2.85
  -2   5  23    0.99    1.19
   2   5  23    4.84    2.91
  -2   5  24    3.30    1.59
   2   5  24    2.34    2.72
   2   5  25    6.59    2.87
   2   5  26    1.00    2.13
   2  -6 -26    1.24    1.14
  -2  -6 -26   -2.68    2.55
   2  -6 -25   25.12    4.97
  -2  -6 -25   17.45    4.22
   2  -6 -24   10.49    3.63
  -2  -6 -24    9.58    3.50
  -2  -6 -23    6.66    2.69
   2  -6 -23   13.52    3.88
  -2  -6 -22   12.66    3.75
   2  -6 -22   12.75    3.28
  -2  -6 -21    6.21    2.96
   2  -6 -21    7.21    3.17
  -2  -6 -20    5.88    2.73
   2  -6 -20    9.93    2.54
   2  -6 -19   91.63    8.60
  -2  -6 -19   93.10    8.70
  -2  -6 -18    5.27    2.37
   2  -6 -18    3.54    2.18
  -2  -6 -17   53.15    6.35
   2  -6 -17   54.50    6.31
   2  -6 -16    7.38    2.56
  -2  -6 -16    6.64    2.04
   2  -6 -15   69.50    7.26
   2  -6 -15   66.58    7.18
  -2  -6 -15   79.06    7.40
   2  -6 -14   31.13    5.11
   2  -6 -14   25.93    4.76
  -2  -6 -14   36.91    5.29
   2   6 -14   32.16    4.61
   2   6 -13  358.30   14.85
   2  -6 -13  385.98   16.55
  -2  -6 -13  374.33   15.58
   2  -6 -13  387.68   16.31
   2  -6 -12    5.57    1.74
  -2  -6 -12   12.00    2.89
  -2   6 -12    8.39    2.23
   2  -6 -12    7.59    2.82
   2   6 -12    2.28    0.99
   2  -6 -11   63.93    6.45
   2   6 -11   42.12    5.09
   2  -6 -11   49.22    5.72
  -2  -6 -11   58.55    6.06
  -2   6 -11   53.63    5.70
  -2  -6 -10   31.40    4.53
   2  -6 -10   28.52    4.17
   2   6 -10   26.53    4.19
   2  -6 -10   26.92    4.26
  -2   6 -10   32.89    4.28
  -2  -6  -9  296.69   12.89
   2  -6  -9  291.06   13.78
   2  -6  -9  273.09   12.87
  -2   6  -9  303.21   13.17
  -2   6  -8  174.30   10.18
   2  -6  -8  163.28   10.22
   2  -6  -8  180.51   10.08
  -2  -6  -8  171.45    9.61
   2   6  -8  150.36    9.50
  -2   6  -7  278.26   12.63
   2  -6  -7  270.97   12.29
   2   6  -7  270.66   12.65
   2  -6  -7  285.68   13.28
  -2  -6  -7  266.36   11.58
  -2  -6  -6    6.65    1.97
   2  -6  -6    7.71    2.38
   2  -6  -6    7.48    2.44
  -2   6  -6    5.19    1.91
   2   6  -6    4.53    1.66
   2  -6  -5   34.51    4.91
   2   6  -5   39.56    4.89
  -2   6  -5   39.54    4.82
   2  -6  -5   43.25    4.79
  -2  -6  -5   41.05    4.31
   2  -6  -4  344.34   12.78
  -2  -6  -4  303.60   11.07
  -2   6  -4  316.70   13.68
   2   6  -4  348.41   14.54
   2  -6  -4  306.61   13.60
  -2  -6  -3  235.44    9.11
   2  -6  -3  225.99   10.25
  -2   6  -3  214.03   11.14
   2   6  -3  255.46   12.19
   2  -6  -3  230.20   11.83
   2  -6  -2  133.49    7.78
   2  -6  -2  130.96    8.88
   2   6  -2  130.87    8.84
  -2   6  -2  134.45    8.95
  -2  -6  -2  131.47    6.54
   2   6  -1  278.60   12.79
   2  -6  -1  215.86   11.05
  -2   6  -1  224.79   11.39
   2  -6  -1  258.45   10.43
  -2  -6  -1  276.50    8.72
  -2  -6   0   19.66    2.22
   2   6   0   21.41    3.66
  -2   6   0   23.00    3.83
   2  -6   0   18.73    3.45
   2  -6   0   19.65    2.85
  -2   6   1  272.43   12.69
   2  -6   1  280.55   12.47
  -2  -6   1  245.45    6.96
   2   6   1  279.40   12.91
   2  -6   1  287.64   10.46
   2   6   2  119.67    8.57
  -2  -6   2  120.57    4.15
   2  -6   2  137.76    8.71
  -2   6   2  121.99    8.56
   2  -6   2  125.01    6.80
   2   6   3  227.63   11.78
  -2   6   3  240.20   12.04
  -2  -6   3  256.06   11.17
   2  -6   3  234.24   11.34
   2  -6   3  231.11    9.23
   2   6   4  335.06   14.50
   2  -6   4  318.32   13.20
   2  -6   4  333.96   10.89
  -2  -6   4  321.72   12.28
  -2   6   4  320.37   14.11
  -2   6   5   41.77    5.01
   2   6   5   31.80    4.40
   2  -6   5   41.75    4.87
   2  -6   5   40.82    3.89
  -2   6   6    5.70    2.71
   2   6   6    8.53    2.61
   2  -6   6    7.44    1.87
   2  -6   6    4.75    1.53
   2  -6   7  275.46   10.04
   2   6   7  280.47   13.54
  -2   6   7  273.62   13.45
   2  -6   7  290.29   12.38
   2  -6   8  186.55    9.80
   2   6   8  162.87   10.29
  -2   6   8  175.93   10.77
   2  -6   8  169.57    7.87
   2   6   8  174.65   10.43
   2  -6   9  299.18   12.67
   2   6   9  313.17   14.45
  -2   6   9  293.89   14.07
   2   6   9  307.50   14.22
   2  -6   9  258.39    9.98
   2   6  10   33.19    4.56
   2  -6  10   28.74    3.81
   2   6  10   28.66    4.54
  -2   6  10   23.05    3.99
   2   6  11   53.23    6.09
   2   6  11   58.16    6.36
  -2   6  11   50.52    5.97
   2  -6  11   56.08    5.38
  -2   6  12    4.93    1.92
   2   6  12    5.83    1.77
   2   6  12    7.96    2.86
   2  -6  12    4.48    1.48
   2   6  13  396.80   16.65
  -2   6  13  352.23   15.98
   2   6  13  386.80   16.82
   2   6  14   32.45    4.87
   2   6  14   28.57    4.87
  -2   6  14   33.19    4.99
   2   6  15   60.92    6.86
   2   6  15   70.04    7.33
  -2   6  16   10.46    2.84
   2   6  16    3.47    2.10
   2   6  16    8.03    2.60
   2   6  17   52.40    6.41
  -2   6  17   42.91    5.98
   2   6  17   63.36    6.83
  -2   6  18    3.49    1.70
   2   6  18    3.35    1.33
   2   6  18    4.45    2.57
   2   6  19   90.38    8.70
  -2   6  19  101.87    9.26
   2   6  19   94.52    8.86
  -2   6  19   93.82    9.12
  -2   6  20    7.23    3.08
   2   6  20    1.56    1.23
   2   6  20    7.42    3.30
  -2   6  20    7.42    2.41
  -2   6  21    5.19    1.76
   2   6  21    7.00    2.39
  -2   6  21    8.33    3.28
   2   6  22   13.15    3.52
  -2   6  22   11.36    3.03
  -2   6  22    7.27    2.40
   2   6  23    6.67    1.94
  -2   6  23   10.38    2.64
  -2   6  24    6.12    2.18
   2   6  24    8.53    3.54
  -2   6  25    8.59    3.72
   2   6  25   14.17    3.53
   2   6  26    0.36    1.94
  -2  -7 -24    0.85    2.69
   2  -7 -24    4.88    2.24
   2  -7 -23    0.30    1.72
  -2  -7 -23    1.68    1.72
  -2  -7 -22   -2.10    1.92
   2  -7 -22   -1.12    1.69
  -2  -7 -21    2.80    1.04
   2  -7 -21    2.44    1.92
  -2  -7 -20   18.27    4.26
   2  -7 -20   28.96    5.29
   2  -7 -19    5.12    2.69
  -2  -7 -19    4.89    2.30
   2  -7 -18   12.03    3.36
  -2  -7 -18   15.31    3.37
  -2  -7 -17    3.04    1.83
   2  -7 -17    1.78    1.93
   2  -7 -16    6.54    2.25
  -2  -7 -16   10.57    3.03
   2  -7 -15    0.33    1.88
  -2  -7 -15   -0.08    1.61
   2  -7 -14   39.56    5.30
   2  -7 -14   37.58    5.60
  -2  -7 -14   47.50    6.19
   2  -7 -13    5.57    2.49
  -2  -7 -13   12.29    3.28
   2  -7 -13    8.63    2.71
   2   7 -13   14.96    3.84
  -2  -7 -12   48.92    5.81
   2  -7 -12   43.80    5.66
   2  -7 -12   47.63    6.23
   2   7 -12   47.41    5.74
  -2   7 -11   31.69    4.64
   2  -7 -11   45.49    5.95
  -2  -7 -11   38.19    5.09
   2  -7 -11   37.57    5.46
   2   7 -11   44.85    5.88
   2   7 -10   29.63    4.44
   2  -7 -10   22.14    4.15
   2  -7 -10   27.33    4.18
  -2  -7 -10   25.59    3.98
  -2   7 -10   31.05    4.82
   2  -7  -9   54.74    6.40
   2  -7  -9   44.95    5.48
  -2   7  -9   32.23    4.69
  -2  -7  -9   40.50    5.08
   2   7  -9   42.53    5.53
  -2   7  -8   79.80    7.42
  -2  -7  -8   73.40    6.47
   2   7  -8   97.96    8.16
   2  -7  -8   92.06    8.05
   2  -7  -8   88.31    7.46
  -2  -7  -7   -0.58    0.76
   2  -7  -7    1.92    1.32
   2  -7  -7    0.56    1.04
  -2   7  -7    0.71    1.10
   2  -7  -6   90.67    7.44
  -2   7  -6  116.51    8.90
   2   7  -6  107.36    8.49
   2  -7  -6   94.14    8.07
  -2  -7  -6  101.06    7.23
   2  -7  -5  107.73    7.93
   2   7  -5  103.94    8.46
  -2   7  -5  104.05    8.30
   2  -7  -5   93.12    8.19
  -2  -7  -5   80.24    6.40
  -2   7  -4    3.94    1.48
   2  -7  -4    3.94    2.10
  -2  -7  -4    2.61    1.25
   2   7  -4    5.49    2.01
   2  -7  -4    5.76    2.35
   2  -7  -3  224.78   10.82
  -2   7  -3  218.78   12.07
   2  -7  -3  206.68   11.64
   2   7  -3  211.36   12.08
  -2  -7  -3  216.66    9.54
  -2  -7  -2   13.73    2.23
  -2   7  -2   14.99    3.28
   2   7  -2   16.42    3.50
   2  -7  -2   13.00    2.88
   2  -7  -2    7.86    2.54
  -2   7  -1   17.18    3.55
   2  -7  -1   16.03    3.19
   2  -7  -1   17.87    2.92
   2   7  -1   24.50    4.26
   2  -7   0    2.50    0.85
  -2   7   0    3.59    1.67
   2   7   0    4.78    2.15
   2  -7   0    4.16    1.94
   2  -7   1   23.26    3.95
   2   7   1   17.16    3.68
   2  -7   1   16.92    2.78
  -2   7   1   20.49    3.75
   2   7   2   15.76    3.70
   2  -7   2   15.94    2.75
  -2   7   2    9.18    2.60
   2  -7   2   15.77    3.61
   2   7   3  195.88   11.70
  -2   7   3  215.67   12.15
   2  -7   3  222.51   11.76
   2  -7   3  200.94    8.99
  -2   7   4    4.31    2.21
   2  -7   4    6.05    2.42
   2   7   4    4.71    2.20
   2   7   5  104.57    8.69
   2  -7   5  105.05    8.12
  -2   7   5   92.75    8.07
   2   7   6  110.51    8.67
  -2   7   6  101.17    8.42
   2  -7   6  112.97    8.26
  -2   7   7    1.55    0.97
   2   7   7    0.97    1.54
   2  -7   7    1.49    1.35
   2   7   8   87.89    7.94
   2   7   8  109.58    9.17
   2  -7   8   99.39    8.00
  -2   7   8  101.47    8.61
  -2   7   9   38.70    5.52
   2   7   9   51.29    6.12
   2   7   9   41.93    5.55
   2  -7   9   28.89    4.07
   2   7  10   27.26    4.66
  -2   7  10   28.74    4.87
   2  -7  10   25.07    3.99
   2   7  10   25.62    4.20
   2   7  11   36.12    5.34
  -2   7  11   32.20    5.13
   2   7  11   32.24    4.90
   2  -7  11   36.41    4.86
   2   7  12   61.61    7.05
   2   7  12   46.80    6.26
  -2   7  12   49.12    6.16
   2   7  13    9.79    2.54
  -2   7  13   13.70    3.55
   2   7  13   13.67    3.80
  -2   7  14   51.54    6.60
   2   7  14   34.87    4.94
   2   7  14   46.46    6.15
  -2   7  15    2.71    2.34
   2   7  15   -2.11    1.54
   2   7  15    1.65    1.35
  -2   7  16    5.96    2.00
   2   7  16    4.91    1.42
   2   7  16   10.57    3.71
   2   7  17    2.10    1.94
  -2   7  17    0.37    1.33
   2   7  17    2.32    1.88
  -2   7  18   22.79    4.29
   2   7  18   18.61    4.41
  -2   7  19    3.73    2.36
  -2   7  19    0.76    1.74
   2   7  19    1.78    1.60
   2   7  19    7.36    2.49
   2   7  20   24.28    5.30
  -2   7  20   23.40    5.11
  -2   7  20   18.34    4.75
   2   7  20   24.53    4.71
  -2   7  21    7.00    3.00
  -2   7  21    4.73    1.95
   2   7  21    1.75    1.67
  -2   7  22   -0.60    2.67
  -2   7  22    3.86    2.94
   2   7  22    0.16    2.03
   2   7  23    2.47    1.61
  -2   7  23   -0.52    1.53
   2   7  24    0.55    1.65
  -2   7  24   -0.20    1.93
   2  -8 -22    8.19    3.33
  -2  -8 -22    5.38    2.76
  -2  -8 -21   -0.89    1.23
   2  -8 -21    1.44    1.84
  -2  -8 -20   -2.97    2.38
   2  -8 -20    4.16    1.86
  -2  -8 -19    7.05    2.40
   2  -8 -19    0.14    1.31
  -2  -8 -18    0.39    2.39
   2  -8 -18   -1.21    1.83
   2  -8 -17   10.80    3.34
  -2  -8 -17   15.84    4.06
   2  -8 -16   12.70    3.33
  -2  -8 -16   13.48    3.23
   2  -8 -15   -0.67    1.09
  -2  -8 -15    2.37    2.02
   2  -8 -14    2.52    2.28
  -2  -8 -14    4.87    1.90
   2   8 -13   22.54    5.04
  -2  -8 -13   23.25    4.21
   2  -8 -13   22.46    4.37
   2  -8 -13   15.91    3.45
   2  -8 -12   -0.80    1.11
   2   8 -12    2.20    1.71
  -2  -8 -12    0.76    1.21
   2  -8 -12   -0.13    1.53
  -2   8 -11    5.40    3.19
   2  -8 -11    1.95    1.68
   2  -8 -11   -0.65    1.12
   2   8 -11    1.66    1.64
  -2  -8 -11    0.95    1.80
   2  -8 -10    1.37    0.91
   2  -8 -10    2.74    2.01
  -2  -8 -10    5.25    2.23
   2   8 -10    2.27    1.83
   2  -8  -9   28.53    4.86
   2  -8  -9   28.93    4.61
  -2   8  -9   29.50    4.73
   2   8  -9   29.95    4.91
  -2  -8  -9   25.74    4.00
   2  -8  -8    4.19    2.31
  -2   8  -8    2.55    1.27
   2  -8  -8    1.19    1.13
  -2  -8  -8    3.68    1.41
  -2   8  -7   38.93    5.55
   2   8  -7   29.49    4.97
   2  -8  -7   26.82    4.26
  -2  -8  -7   32.42    4.75
   2  -8  -7   44.22    5.74
  -2   8  -6    7.89    2.67
   2   8  -6   12.60    3.03
   2  -8  -6    7.69    2.73
   2  -8  -6    8.38    2.97
  -2   8  -5   14.94    3.81
   2  -8  -5   12.20    2.70
   2  -8  -5   13.04    3.10
   2   8  -5   10.26    3.30
   2  -8  -4   35.76    5.20
   2   8  -4   30.80    4.95
   2  -8  -4   40.61    4.78
  -2   8  -4   37.02    5.20
   2   8  -3  131.64    9.86
  -2   8  -3  120.70    9.55
   2  -8  -3  144.00   10.37
   2  -8  -3  123.43    8.75
   2   8  -2    4.11    2.04
   2  -8  -2    6.38    2.18
   2  -8  -2    3.81    1.97
  -2   8  -2    2.62    1.86
  -2   8  -1    4.34    2.03
   2  -8  -1    6.38    2.28
  -2   8   0    8.88    2.93
   2  -8   0    9.94    2.59
   2   8   0   12.91    3.18
   2  -8   1    7.38    2.59
  -2   8   1   10.49    3.01
   2   8   1    7.82    2.32
  -2   8   2    4.70    2.27
   2   8   2    3.40    0.94
   2  -8   2    5.17    2.09
   2  -8   3  115.36    9.12
   2   8   3  130.06   10.01
  -2   8   3  131.10   10.19
   2   8   4   41.96    5.74
   2  -8   4   39.09    5.42
  -2   8   4   41.93    5.52
   2  -8   5   13.40    3.17
   2   8   5   13.63    3.61
  -2   8   5   10.37    3.60
   2   8   6    9.36    3.02
   2   8   6    7.51    2.10
   2  -8   6    9.06    2.60
  -2   8   6    7.71    2.32
   2  -8   7   26.94    4.40
  -2   8   7   31.12    5.21
   2   8   7   32.83    5.28
   2   8   7   35.20    5.34
  -2   8   8    2.92    1.96
   2   8   8    0.94    1.68
   2   8   8    4.02    1.54
   2  -8   8    2.18    1.32
   2   8   9   29.42    4.68
   2   8   9   35.12    5.75
   2  -8   9   18.89    3.60
  -2   8   9   30.77    5.25
   2   8  10    6.74    2.24
  -2   8  10    2.79    2.01
   2   8  10    3.78    2.48
   2  -8  10    2.96    2.34
  -2   8  11   -0.35    1.10
   2   8  11    0.86    0.96
   2   8  11    1.97    2.08
   2   8  12    1.89    1.64
  -2   8  12    5.66    2.29
   2   8  12    2.13    1.20
   2   8  13   15.91    4.10
  -2   8  13   16.66    3.76
   2   8  13   20.06    4.51
   2   8  14    2.00    2.67
   2   8  14    0.45    1.41
  -2   8  14    2.22    2.06
   2   8  15   -0.47    0.78
  -2   8  15    1.77    1.78
   2   8  15   -0.36    1.76
  -2   8  16   13.95    3.92
   2   8  16    8.58    2.82
   2   8  16    8.80    2.88
   2   8  17    2.67    2.37
   2   8  17   12.38    2.99
  -2   8  17    7.29    3.05
  -2   8  18    1.64    1.53
   2   8  18    2.59    2.49
  -2   8  18   -0.13    2.73
   2   8  18   -0.54    2.35
   2   8  19    4.65    2.57
  -2   8  19    9.16    3.27
  -2   8  19   11.01    3.10
   2   8  19    4.38    2.45
  -2   8  20    2.02    1.35
   2   8  20    4.61    2.39
  -2   8  20    3.46    2.10
   2   8  20    6.56    3.07
  -2   8  21    1.55    1.52
   2   8  21    2.83    1.60
  -2   8  21    5.66    2.40
  -2   8  22    6.30    3.26
  -2   8  22    4.68    1.70
   2   8  22    5.11    2.66
  -2  -9 -19    5.90    2.94
   2  -9 -19    2.94    2.76
  -2  -9 -18    0.75    1.64
   2  -9 -18    3.15    2.92
   2  -9 -17   -0.34    1.66
  -2  -9 -17   -1.07    2.43
  -2  -9 -16    3.37    2.94
   2  -9 -16    5.80    2.69
  -2  -9 -15    1.59    1.65
   2  -9 -15    1.82    1.22
  -2  -9 -14    1.42    2.38
   2  -9 -14    7.41    2.57
   2  -9 -13    0.05    1.83
  -2  -9 -13   -2.38    1.88
   2   9 -12   -0.83    2.12
   2  -9 -12    2.44    1.75
   2  -9 -12    0.70    1.83
   2  -9 -11   -0.70    2.14
   2  -9 -11    3.48    1.31
   2   9 -11    1.91    1.76
   2   9 -10    6.66    3.04
   2  -9 -10    9.43    2.75
   2  -9 -10    6.43    2.06
  -2   9 -10    2.67    2.36
   2  -9  -9    1.04    1.73
  -2   9  -9    2.58    1.81
   2  -9  -9    3.10    2.74
   2   9  -9    0.48    1.40
  -2   9  -8    1.56    1.48
   2  -9  -8    1.77    1.88
   2  -9  -8    1.43    1.14
   2   9  -8    0.92    1.91
   2   9  -7   -0.31    0.94
   2  -9  -7   -0.04    1.62
  -2   9  -7   -0.77    1.90
  -2   9  -6    3.22    1.33
   2  -9  -6    6.58    2.73
  -2   9  -5    5.02    2.01
   2  -9  -5   12.91    3.63
   2   9  -5    8.81    2.70
  -2   9  -4    6.32    2.40
   2   9  -4    7.10    2.89
   2  -9  -4    6.97    2.54
   2  -9  -3    8.43    2.72
  -2   9  -3    6.68    2.56
   2   9  -3   12.71    3.35
   2  -9  -2    5.49    2.51
   2   9  -2    2.74    1.72
  -2   9  -2    2.22    1.23
   2   9  -1   -1.70    1.35
   2  -9  -1    1.17    1.42
  -2   9  -1   -0.10    1.32
  -2   9   0    5.92    2.68
   2   9   0   11.30    3.09
   2  -9   0    6.20    2.50
   2   9   1    4.14    2.36
  -2   9   1    4.88    2.00
   2  -9   1    4.18    1.71
   2  -9   2    5.02    2.58
  -2   9   2    6.43    2.70
   2   9   2    4.50    2.57
   2  -9   3   13.16    3.13
  -2   9   3    8.28    2.37
   2   9   3   12.33    3.37
   2  -9   4    9.50    2.94
   2   9   4    1.81    2.27
   2   9   4    6.33    2.40
  -2   9   4    5.36    1.77
   2  -9   5    9.35    2.49
  -2   9   5   13.09    3.96
   2   9   5    7.45    3.48
   2   9   5   12.83    3.28
   2  -9   6    4.07    1.34
   2   9   6    6.07    2.53
  -2   9   6   10.59    2.80
   2   9   7    2.28    1.85
   2   9   7   -1.78    1.34
  -2   9   7   -1.88    1.94
   2  -9   7   -2.19    2.57
   2  -9   8    2.19    1.61
   2   9   8    0.85    1.57
   2   9   8    1.68    2.14
  -2   9   8    1.63    2.21
   2   9   9   -0.17    1.63
  -2   9   9   -2.95    2.49
   2   9   9   -0.75    1.95
   2  -9   9   -2.60    2.73
   2   9  10    9.23    3.29
  -2   9  10   11.58    3.66
   2   9  10   12.75    3.50
   2   9  11    1.10    1.88
  -2   9  11    4.90    2.70
   2   9  11    4.26    2.93
   2   9  12    0.54    1.23
  -2   9  12    0.92    2.28
   2   9  12   -0.03    0.81
  -2   9  13    2.52    1.92
   2   9  13    5.43    2.03
   2   9  13   -0.30    1.70
   2   9  14    5.50    2.81
   2   9  14    4.69    2.43
  -2   9  14    3.37    2.13
   2   9  15    0.38    1.10
  -2   9  15    0.22    1.84
   2   9  15    0.18    1.96
   2   9  16   -1.71    2.88
  -2   9  16    0.50    1.41
   2   9  16    1.52    1.54
   2   9  17    0.76    2.22
  -2   9  17   -0.87    1.82
   2   9  17   -0.63    1.59
  -2   9  17    1.12    1.59
   2   9  18    2.14    1.43
   2   9  18    1.16    2.15
  -2   9  18    0.77    1.04
  -2   9  18    1.59    1.38
   2   9  19   -2.38    1.46
  -2   9  19    2.36    2.21
   2   9  19   -0.77    1.16
  -2   9  19    0.96    2.04
   2 -10 -16   -0.86    2.22
   2  10 -11    7.94    3.20
   2  10 -10    1.52    1.79
  -2  10  -9    7.11    2.82
   2 -10  -9    8.26    3.14
   2  10  -9   10.86    3.52
   2  10  -8    1.52    1.62
  -2  10  -8    7.05    2.77
   2 -10  -8    2.72    2.38
  -2  10  -7   30.78    5.00
   2  10  -7   32.45    5.52
   2 -10  -7   31.48    5.31
   2  10  -6    5.59    2.56
  -2  10  -6    4.15    2.51
   2 -10  -6    3.92    2.50
  -2  10  -5    1.34    2.35
   2  10  -5    3.46    2.53
   2 -10  -5    1.54    1.10
   2 -10  -4   15.05    3.73
  -2  10  -4   18.71    4.23
   2  10  -4   13.01    3.13
   2 -10  -3   20.84    4.62
  -2  10  -3   15.59    3.83
   2  10  -3   22.11    4.64
   2  10  -3   15.88    3.24
  -2  10  -2    8.04    3.00
   2  10  -2   15.21    3.63
   2  10  -2   14.62    3.49
   2 -10  -2    8.01    3.05
   2  10  -1    2.01    2.52
   2 -10  -1    0.35    1.87
   2  10  -1    3.36    1.89
  -2  10  -1    4.60    2.43
   2  10   0    0.37    0.85
   2  10   0    2.24    2.07
  -2  10   0    2.08    2.48
   2 -10   0    2.66    1.91
   2  10   1    2.12    2.22
   2  10   1   -0.19    1.17
   2 -10   1    1.58    1.39
  -2  10   1    2.75    2.67
   2 -10   2   12.66    3.12
   2  10   2    9.04    2.68
   2  10   2    7.14    2.21
  -2  10   2    7.40    3.32
   2  10   3   18.68    4.61
   2 -10   3   24.97    5.01
  -2  10   3   28.59    5.34
   2  10   3   22.90    4.85
   2  10   4    7.83    3.01
   2  10   4   14.35    3.87
   2 -10   4    8.50    2.70
  -2  10   4   14.69    3.99
   2  10   5    5.50    2.63
   2  10   5    4.48    2.98
   2 -10   5    4.42    1.85
  -2  10   5    1.55    1.95
   2  10   6    6.63    2.90
   2 -10   6    4.47    1.79
  -2  10   6    6.55    2.44
   2  10   6    3.99    2.49
   2  10   7   44.71    6.55
   2  10   7   38.52    6.30
  -2  10   7   27.11    4.79
   2 -10   7   27.50    5.19
   2  10   8    2.11    1.93
  -2  10   8    3.57    3.08
   2  10   8    2.80    2.53
  -2  10   9    4.04    2.26
   2  10   9    8.59    2.75
   2  10   9   11.04    3.18
  -2  10  10   -0.55    1.59
   2  10  10    0.91    1.19
  -2  10  11    8.36    3.36
   2  10  11   16.75    3.79
   2  10  11    7.78    3.07
   2  10  12    7.23    3.09
  -2  10  12    0.91    1.96
   2  10  12    3.86    2.52
  -2  10  13   12.91    3.53
   2  10  13   15.79    3.86
   2  10  13   17.60    4.33
   2  10  14    1.89    1.61
   2  10  14    5.99    2.48
  -2  10  14    1.98    2.15
   2  10  15   -0.04    1.56
   2  10  15    5.11    2.82
  -2  10  15    6.59    2.87
  -2  10  16   -0.50    1.16
   2  10  16    2.03    1.50
   2  10  16    4.09    3.38
  -2  10  16    2.44    2.58
   2  11 -10    5.90    3.16
   2  11  -9    3.95    2.85
   2  11  -8    1.96    2.89
  -2  11  -8    1.76    2.73
  -2  11  -7    0.73    2.50
   2  11  -7    0.04    1.97
  -2  11  -6    4.34    1.73
   2  11  -6    0.16    1.42
   2 -11  -6    1.71    2.02
   2  11  -5   -1.42    1.97
  -2  11  -5   -0.02    2.25
   2 -11  -5    0.11    1.83
   2  11  -4    4.75    2.63
  -2  11  -4    3.71    2.62
   2 -11  -4    0.15    1.65
   2 -11  -3    2.27    2.23
  -2  11  -3    4.38    2.67
   2  11  -3    9.01    3.54
   2 -11  -2    1.42    1.69
   2  11  -2    1.86    2.18
  -2  11  -2    1.14    1.43
   2  11  -1   -0.78    1.37
  -2  11  -1    1.76    2.34
   2 -11  -1    4.05    2.26
   2  11  -1   -0.59    1.95
  -2  11   0    0.90    1.55
   2  11   0   -0.15    1.95
   2  11   0    0.01    1.36
   2 -11   0   -1.51    1.20
   2 -11   1    0.79    2.23
   2  11   1    0.36    2.05
   2  11   1    0.34    1.09
   2  11   2   -1.19    2.10
   2  11   2    2.56    2.51
   2 -11   2    0.90    2.20
  -2  11   2    0.71    1.71
   2 -11   3    2.13    2.29
   2  11   3   -0.59    1.85
   2  11   3    0.86    1.50
  -2  11   3    3.61    2.53
   2  11   4    2.12    2.05
  -2  11   4    2.57    1.88
   2  11   4    1.92    2.47
   2 -11   4    2.49    2.46
   2  11   5   -0.95    0.96
   2  11   5   -3.54    2.24
  -2  11   5    1.65    2.13
   2  11   6    2.53    2.17
  -2  11   6    2.44    2.11
   2  11   6   -0.71    1.72
   2  11   7    0.77    1.48
  -2  11   7    1.26    1.53
   2  11   7    1.18    1.37
   2  11   8    2.81    2.19
   2  11   8    0.47    1.54
  -2  11   8    0.11    1.69
   2  11   9    0.13    1.06
  -2  11   9   -1.78    2.51
   2  11   9    3.28    2.98
   2  11  10    2.33    1.76
  -2  11  10    8.09    3.85
   2  11  10    2.70    2.00
   3   0 -30   -4.70    2.62
   3   0 -29    0.03    1.11
   3   0 -28    0.07    1.84
   3   0 -27    0.11    0.96
   3   0 -26   -1.69    0.90
   3   0 -25   -0.28    1.15
   3   0 -24   -0.18    1.38
   3   0 -23    0.60    0.97
   3   0 -22    0.61    1.11
   3   0 -21   -0.36    0.73
   3   0 -20    0.81    1.13
   3   0 -19   -1.00    1.29
   3   0 -18    1.33    1.51
   3   0 -17   -0.68    0.91
   3   0 -16   -0.50    0.59
   3   0 -15    0.72    0.86
   3   0 -14    1.08    1.08
   3   0 -13    0.53    0.94
   3   0 -12    0.68    1.07
   3   0 -12   -0.13    0.26
   3   0 -11    0.01    0.34
   3   0 -11    0.52    0.75
   3   0 -10    0.43    0.51
   3   0 -10   -1.02    0.60
   3   0  -9    0.35    0.62
   3   0  -9   -0.17    0.42
   3   0  -8   -0.40    0.42
   3   0  -8   -0.09    0.24
   3   0  -7    0.54    0.67
   3   0  -7    0.13    0.33
   3   0  -6    0.34    0.55
   3   0  -6   -0.41    0.63
   3   0  -6    0.19    0.42
   3   0  -5    0.23    0.49
   3   0  -5    0.06    0.32
   3   0  -5   -0.04    0.24
   3   0  -4    0.03    0.47
   3   0  -4   -0.02    0.42
   3   0  -4   -0.06    0.37
   3   0  -3    0.11    0.28
   3   0  -3    0.47    0.69
   3   0  -3    0.22    0.58
   3   0  -2    0.19    0.31
   3   0  -2   -0.46    0.35
   3   0  -2    0.16    0.25
   3   0  -1    0.25    0.30
   3   0  -1    0.22    0.36
   3   0  -1    0.17    0.28
   3   0   0   -0.04    0.20
   3   0   0   -0.11    0.29
   3   0   1    0.29    0.20
   3   0   1    0.38    0.40
   3   0   2   -0.18    0.43
   3   0   2   -0.24    0.25
   3   0   3    0.56    0.52
   3   0   3    0.24    0.31
   3   0   4    0.49    0.41
   3   0   4   -0.02    0.26
   3   0   5   -0.31    0.34
   3   0   5    0.09    0.23
   3   0   6   -0.03    0.22
   3   0   6    0.50    0.59
   3   0   7   -0.23    0.14
   3   0   7    0.20    0.71
   3   0   8    0.29    0.30
   3   0   8    0.23    0.47
   3   0   9   -0.10    0.64
   3   0   9   -0.02    0.13
   3   0  10    0.01    0.18
   3   0  10   -0.05    0.47
   3   0  11    0.03    0.71
   3   0  12    0.06    0.60
   3   0  13    0.37    0.38
  -3   0  14   -0.28    0.31
   3   0  14    0.09    0.50
  -3   0  15    0.36    0.63
   3   0  15   -0.16    0.59
   3   0  16    0.66    0.64
  -3   0  16   -0.03    0.46
  -3   0  17    0.46    0.47
   3   0  17   -0.50    0.48
   3   0  18   -0.36    0.69
   3   0  19   -0.20    0.78
   3   0  20    0.34    0.78
   3   0  21   -0.57    0.90
   3  -1 -30    2.62    2.05
   3  -1 -29   21.49    5.09
   3  -1 -28    8.18    2.59
   3   1 -28    9.61    3.02
   3   1 -27   11.97    3.48
   3  -1 -27   15.42    4.02
   3   1 -26    7.02    2.89
   3  -1 -26    6.26    2.92
   3   1 -25   13.86    3.41
   3  -1 -25   13.89    3.27
   3  -1 -24   16.84    3.63
   3   1 -24   16.91    3.97
   3  -1 -23   74.15    7.60
   3   1 -23   71.74    7.32
   3   1 -22   22.05    4.09
  -3  -1 -22   24.18    4.02
   3  -1 -22   31.28    4.71
   3  -1 -21    2.53    1.96
  -3  -1 -21    4.84    1.45
   3   1 -21    5.59    2.37
   3  -1 -20   33.00    4.81
   3   1 -20   31.99    4.41
  -3  -1 -20   42.91    5.63
   3   1 -19   74.76    6.69
  -3  -1 -19   77.94    7.32
   3  -1 -19   73.87    6.93
  -3  -1 -18    5.43    1.72
   3   1 -18    7.17    2.13
   3  -1 -18   11.26    2.47
  -3  -1 -17  108.37    8.12
   3  -1 -17  106.88    8.00
   3   1 -17  110.47    7.67
  -3  -1 -16   39.94    4.74
   3   1 -16   33.91    4.21
   3  -1 -16   41.64    4.76
  -3  -1 -15   19.34    3.33
   3  -1 -15   14.13    2.62
   3   1 -15   15.87    2.87
   3  -1 -14   51.49    4.15
   3   1 -14   54.72    4.88
  -3  -1 -14   41.75    4.70
   3  -1 -14   50.81    5.12
   3   1 -13  322.06   11.34
   3  -1 -13  318.86   12.21
   3  -1 -13  319.51   10.08
  -3  -1 -13  312.14   12.42
   3   1 -12  240.07    9.56
   3  -1 -12  227.52   10.26
   3  -1 -12  216.42    8.27
  -3  -1 -12  239.99   10.60
   3   1 -12  250.16    8.75
   3   1 -11   40.79    3.66
  -3  -1 -11   42.31    4.28
   3   1 -11   51.93    3.97
   3  -1 -11   48.07    3.75
   3  -1 -11   48.31    4.46
   3  -1 -10  140.39    7.43
  -3  -1 -10  150.93    7.87
   3   1 -10  139.48    6.28
   3   1 -10  145.05    6.68
   3  -1 -10  150.44    6.46
   3  -1  -9  434.96   12.67
   3   1  -9  412.90   10.74
   3   1  -9  433.69   10.84
   3  -1  -9  414.02   10.56
  -3  -1  -9  410.47   12.41
  -3  -1  -8  127.78    6.52
   3   1  -8  121.39    5.52
   3  -1  -8  111.40    6.17
   3   1  -8  126.88    5.85
   3  -1  -8  116.65    5.46
   3   1  -7  272.07    7.88
   3  -1  -7  252.20    9.20
   3  -1  -7  264.33    7.95
   3   1  -7  263.00    8.04
   3   1  -6  772.03   12.38
   3  -1  -6  716.47   14.66
   3   1  -6  740.95   13.26
   3   1  -6  761.89    8.03
   3  -1  -6  742.70   13.13
   3   1  -5   45.65    3.28
   3  -1  -5   49.37    3.71
   3  -1  -5   45.83    3.22
   3   1  -5   49.06    2.19
   3   1  -5   47.03    2.86
   3   1  -4  504.83   10.67
   3  -1  -4  501.68   11.46
   3   1  -4  520.27    7.42
   3   1  -4  529.86    9.11
   3  -1  -4  497.33   10.36
   3  -1  -3 2458.80   22.49
   3   1  -3 2439.57   22.62
   3   1  -3 2448.34   18.78
   3  -1  -3 2488.46   24.34
   3   1  -2  987.46   14.24
   3   1  -2  981.35   11.65
   3   1  -2  997.31   11.51
   3  -1  -2  964.68   14.21
   3  -1  -2  947.41   14.84
   3  -1  -1  569.85   10.80
   3   1  -1  571.10    9.33
   3  -1  -1  576.30   11.14
   3   1  -1  546.89   10.60
   3   1   0  537.89   10.19
   3   1   0  534.17    9.52
   3  -1   0  533.53   10.51
   3  -1   0  539.84   10.41
   3  -1   1  578.25   10.83
   3   1   1  561.85   10.24
   3   1   2  966.88   14.04
   3   1   2  945.30   13.21
   3   1   3 2456.87   21.02
   3   1   3 2478.99   23.47
   3  -1   3 2407.32   22.89
   3   1   4  515.97    9.68
   3  -1   4  508.47   10.68
   3   1   4  518.33   11.10
   3   1   5   44.58    2.80
   3  -1   5   51.42    3.41
   3   1   5   49.61    3.58
   3   1   6  737.10   14.30
   3   1   6  727.70   11.43
   3  -1   6  727.12   12.89
   3   1   7  280.46    7.10
   3  -1   7  261.96    8.08
   3   1   7  274.77    8.95
   3  -1   8  116.97    5.48
   3   1   8  116.30    6.01
   3   1   8  118.14    4.61
   3  -1   9  449.82   10.99
   3   1   9  445.93    9.00
   3  -1  10  137.30    6.20
   3   1  10  135.11    6.97
   3   1  10  132.00    5.03
   3   1  11   43.70    3.88
   3   1  11   40.72    2.73
   3  -1  11   43.51    3.61
   3  -1  12  229.59    8.56
   3   1  12  206.84    8.98
   3   1  12  227.85    6.54
   3  -1  13  295.33   10.12
   3   1  13  315.27    7.82
   3   1  13  321.85   11.59
   3   1  14   44.72    2.92
   3   1  14   52.65    4.77
   3  -1  14   46.32    3.99
   3   1  15   18.08    2.72
   3  -1  15   12.62    2.31
   3   1  15   13.97    1.66
   3  -1  16   40.20    4.04
   3   1  16   38.01    4.33
   3   1  16   34.87    2.62
  -3   1  16   39.40    3.78
  -3   1  17  105.02    6.59
   3  -1  17  107.59    6.81
   3   1  17  111.47    7.59
   3   1  18    7.90    2.39
   3  -1  18    9.21    2.20
  -3   1  18    5.02    1.48
   3  -1  19   67.74    5.60
  -3   1  19   69.34    5.39
   3   1  19   79.19    6.62
   3   1  20   32.54    4.32
   3   1  21    2.51    1.27
   3   1  22   21.66    4.03
   3  -2 -30   -0.42    1.20
   3  -2 -29   11.69    3.45
   3  -2 -28    2.05    1.50
   3  -2 -27    4.67    1.38
   3  -2 -26    0.88    2.00
  -3  -2 -25    0.41    1.83
   3  -2 -25    2.44    1.76
  -3  -2 -24    2.83    2.09
   3  -2 -24    1.68    1.45
   3   2 -23    5.06    2.25
   3  -2 -23    9.63    2.51
  -3  -2 -23   11.23    3.36
  -3  -2 -22    1.31    1.72
   3  -2 -22    2.21    1.38
   3   2 -22   -0.19    0.87
   3   2 -21   22.38    4.15
  -3  -2 -21   21.51    4.23
   3  -2 -21   24.35    4.24
   3  -2 -20    6.04    2.44
   3   2 -20    7.02    1.62
  -3  -2 -20    2.46    1.39
   3  -2 -19    9.81    3.06
  -3  -2 -19   11.07    3.12
   3   2 -19    6.93    2.05
  -3  -2 -18    3.68    1.48
   3   2 -18    1.70    1.00
   3  -2 -18    5.72    2.27
  -3  -2 -17    1.35    1.60
   3  -2 -17    0.73    0.78
   3   2 -17   -0.05    1.09
   3   2 -16   11.66    2.28
   3   2 -16   13.55    2.26
   3  -2 -16   13.57    2.80
  -3  -2 -16   12.35    3.01
  -3  -2 -15   27.05    3.87
   3   2 -15   21.63    3.11
   3  -2 -15   24.33    3.28
   3  -2 -15   26.12    3.87
   3   2 -15   23.65    3.06
  -3  -2 -14    0.36    1.42
   3  -2 -14    1.06    1.12
   3  -2 -14    1.86    0.87
   3   2 -14    2.66    0.80
   3   2 -14    0.87    0.76
  -3  -2 -13    1.41    0.97
   3  -2 -13    0.38    0.64
   3   2 -13    0.36    0.42
   3  -2 -13    0.35    0.50
   3   2 -13    0.16    0.42
   3  -2 -12   25.36    3.54
   3  -2 -12   29.97    3.46
  -3  -2 -12   20.66    3.11
   3   2 -12   32.11    3.24
   3   2 -12   27.67    3.09
   3   2 -11  156.81    6.73
   3   2 -11  143.25    6.81
  -3  -2 -11  139.60    7.99
   3  -2 -11  135.62    8.01
   3  -2 -11  140.66    7.55
  -3  -2 -10   46.50    4.51
   3  -2 -10   42.38    4.32
   3   2 -10   45.23    3.50
   3  -2 -10   50.32    4.24
   3   2 -10   44.50    3.70
  -3   2 -10   40.70    2.11
   3  -2  -9   16.32    2.51
  -3   2  -9   13.46    1.30
   3   2  -9   16.45    2.23
  -3  -2  -9    9.37    1.89
   3  -2  -9   16.70    2.45
   3   2  -9    9.66    1.42
  -3  -2  -8   46.65    4.12
  -3   2  -8   49.50    2.72
   3   2  -8   48.59    3.85
   3  -2  -8   42.68    4.05
   3   2  -8   48.25    3.13
   3  -2  -8   51.48    4.17
   3   2  -7   29.42    2.27
   3   2  -7   28.94    2.95
   3   2  -7   26.12    1.42
  -3   2  -7   29.24    2.17
   3  -2  -7   24.92    2.84
  -3  -2  -7   31.61    3.23
   3  -2  -7   30.77    3.37
   3  -2  -6  142.02    7.02
  -3  -2  -6  149.70    6.71
   3  -2  -6  132.03    6.51
   3   2  -6  133.58    6.17
   3   2  -6  141.29    3.79
   3   2  -6  139.44    4.44
   3   2  -5  170.20    4.59
   3   2  -5  168.71    6.89
  -3  -2  -5  182.16    7.04
   3   2  -5  175.25    4.53
   3  -2  -5  158.97    6.95
   3  -2  -4   28.77    2.87
   3   2  -4   30.00    2.06
   3   2  -4   27.08    1.69
   3  -2  -4   32.07    3.14
   3   2  -3 1044.71   10.14
   3   2  -3 1031.92   16.55
   3  -2  -3 1032.16   17.48
   3  -2  -3 1037.46   17.45
   3   2  -3 1024.43   13.05
   3   2  -2  493.47    9.66
   3  -2  -2  511.78   11.88
   3   2  -2  483.32   11.51
   3  -2  -2  516.93   12.24
   3   2  -1  237.21    7.92
   3   2  -1  227.93    6.79
   3  -2  -1  240.76    7.96
   3  -2  -1  225.97    7.89
   3   2   0  218.03    7.55
   3  -2   0  207.37    7.29
   3  -2   0  212.76    7.54
   3   2   0  211.15    6.87
   3   2   1  218.31    7.57
   3   2   1  225.43    7.35
   3  -2   1  231.68    7.51
   3  -2   1  228.06    7.77
   3   2   2  487.17   11.38
   3   2   2  480.79   11.11
   3  -2   2  498.75   11.55
   3  -2   2  478.02   10.83
   3   2   3 1061.01   16.63
   3  -2   3 1065.88   16.72
   3  -2   4   30.66    2.79
   3   2   4   27.84    2.70
   3   2   4   31.66    2.96
   3   2   5  176.36    7.40
   3  -2   5  167.43    6.73
   3   2   5  166.68    6.64
   3  -2   6  137.76    6.20
   3   2   6  138.81    6.11
   3   2   6  145.96    6.93
   3   2   7   25.08    2.66
   3  -2   7   24.88    2.62
   3   2   7   27.75    3.16
   3  -2   8   39.37    3.36
   3   2   8   43.86    3.50
   3   2   8   49.63    4.25
   3  -2   9   16.32    2.27
   3   2   9   10.12    1.67
   3   2   9   10.90    2.08
   3   2  10   44.62    3.63
   3  -2  10   44.24    3.73
   3   2  10   49.86    4.54
   3   2  11  140.16    6.59
   3   2  11  154.97    8.24
   3  -2  11  138.46    6.68
   3   2  12   33.07    3.24
   3   2  12   29.86    3.65
   3  -2  12   25.98    2.97
   3   2  13    0.69    0.61
   3  -2  13    0.29    0.41
   3   2  13    0.11    0.60
   3   2  14    1.31    0.54
   3  -2  14    0.88    0.69
   3   2  15   21.55    3.38
   3   2  15   21.39    2.62
   3  -2  15   21.70    2.96
   3   2  16   15.87    2.25
   3  -2  16   13.18    2.38
   3   2  16   11.63    2.47
   3   2  17    2.63    1.55
   3  -2  17    1.16    1.08
   3   2  17    1.64    0.93
   3   2  18    0.54    1.08
   3  -2  18    1.97    1.64
  -3   2  18    0.79    1.10
   3   2  19   11.45    2.75
  -3   2  19   12.84    2.71
  -3   2  20    3.36    1.53
   3   2  20    5.88    2.31
   3   2  21   28.86    4.21
   3   2  22    2.37    1.25
   3   2  23   13.06    3.07
   3  -3 -29   36.38    5.88
   3  -3 -28   20.05    4.23
  -3  -3 -27   42.14    6.08
   3  -3 -27   25.27    4.48
   3  -3 -26   18.85    4.02
  -3  -3 -26   14.30    3.74
  -3  -3 -25   20.33    4.57
   3  -3 -25   25.71    4.63
   3  -3 -24    3.91    1.85
  -3  -3 -24    1.44    1.56
  -3  -3 -23   44.38    6.26
   3  -3 -23   49.73    6.26
  -3  -3 -22   12.72    3.32
   3  -3 -22   10.55    3.03
  -3  -3 -21    3.07    1.19
   3  -3 -21    1.33    1.77
  -3  -3 -20    5.42    2.29
   3  -3 -20    3.75    1.76
   3  -3 -19   38.85    5.09
  -3  -3 -19   46.71    5.73
  -3  -3 -18   47.42    5.85
   3   3 -18   58.86    6.00
   3  -3 -18   60.29    6.34
  -3  -3 -17   49.23    5.98
   3   3 -17   40.68    4.43
   3  -3 -17   39.23    5.04
   3  -3 -16   41.03    4.83
  -3  -3 -16   34.85    4.81
   3   3 -16   34.04    3.89
   3   3 -16   28.43    3.85
   3  -3 -16   46.76    5.48
  -3  -3 -15   68.13    6.45
   3  -3 -15   58.27    5.58
   3  -3 -15   70.00    6.41
   3   3 -15   60.70    5.06
   3   3 -15   69.17    5.27
   3  -3 -14   15.96    3.14
  -3  -3 -14   14.45    3.08
   3   3 -14   12.72    2.37
   3   3 -14   14.13    2.45
   3  -3 -14   21.09    3.42
   3   3 -13  276.97    9.40
   3  -3 -13  287.03   11.90
   3   3 -13  259.95   10.15
   3  -3 -13  291.39   12.61
   3  -3 -12  476.35   16.04
  -3  -3 -12  472.04   15.53
   3  -3 -12  445.99   14.84
   3   3 -12  446.39   13.14
   3   3 -12  456.91   11.38
  -3   3 -12  443.03    9.05
   3  -3 -11   39.04    4.60
  -3  -3 -11   44.55    4.68
   3   3 -11   43.49    3.28
   3   3 -11   43.01    4.04
  -3   3 -11   39.82    2.91
   3  -3 -11   52.56    4.91
   3  -3 -10  149.29    8.18
  -3   3 -10  153.46    5.89
   3  -3 -10  134.63    8.08
   3   3 -10  150.00    5.61
   3   3 -10  160.65    7.79
  -3  -3 -10  145.12    8.11
   3   3  -9  739.92   16.75
   3   3  -9  717.08   11.08
  -3   3  -9  698.18   13.16
   3  -3  -9  731.32   17.97
   3  -3  -9  701.70   17.91
  -3  -3  -9  711.58   17.36
   3   3  -8   23.58    1.74
  -3   3  -8   22.18    2.41
   3  -3  -8   22.09    3.00
  -3  -3  -8   21.49    2.96
   3   3  -8   24.13    3.17
   3   3  -8   24.34    1.81
   3  -3  -8   19.70    2.93
  -3  -3  -7  531.59   13.91
  -3   3  -7  541.95   11.87
   3  -3  -7  502.86   14.52
   3  -3  -7  535.51   14.88
   3   3  -7  530.72    7.23
   3   3  -7  507.09   13.48
   3   3  -7  517.15    9.10
   3   3  -6  615.00   10.45
   3   3  -6  569.83    6.19
  -3   3  -6  618.52   13.00
   3  -3  -6  599.88   15.43
  -3  -3  -6  628.87   14.45
   3   3  -6  626.50   14.80
   3  -3  -6  585.58   15.26
   3  -3  -5   73.97    5.29
   3   3  -5   74.17    5.04
   3   3  -5   63.17    3.55
   3  -3  -5   71.17    5.16
  -3   3  -5   72.06    4.46
  -3  -3  -5   67.73    4.57
   3   3  -4 1093.48   19.38
   3  -3  -4 1078.49   19.75
   3   3  -4 1085.02   15.55
  -3  -3  -4 1111.89   17.44
   3  -3  -4 1071.11   20.06
   3   3  -3 2118.85   27.08
   3   3  -3 2100.14   22.60
  -3  -3  -3 2090.89   22.64
   3  -3  -3 2156.92   27.06
   3  -3  -3 2094.23   27.71
   3   3  -2  355.87   11.05
   3  -3  -2  363.90   10.88
   3  -3  -2  373.31   11.44
   3   3  -2  353.56    9.54
   3   3  -1  605.15   12.94
   3  -3  -1  589.64   14.33
   3  -3  -1  582.63   13.46
   3   3   0  454.78   11.56
   3  -3   0  461.44   11.71
   3  -3   0  434.81   12.56
   3   3   0  456.85   12.59
   3   3   1  551.71   13.91
   3   3   1  573.86   13.34
   3  -3   1  596.02   14.24
   3  -3   1  570.49   12.94
   3   3   2  333.37   10.54
   3  -3   2  341.47    9.91
   3   3   2  355.85   11.20
   3   3   3 2132.56   27.51
   3  -3   3 2185.90   26.93
   3   3   3 2126.91   27.07
   3  -3   3 2135.51   24.71
   3  -3   4 1106.28   19.01
   3   3   4 1058.09   19.67
   3  -3   4 1125.23   17.97
   3   3   4 1114.54   19.77
   3   3   5   90.66    5.72
   3  -3   5   83.55    5.25
   3   3   5   72.46    5.23
   3   3   6  617.08   14.98
   3  -3   6  631.88   14.38
   3   3   6  607.89   15.48
   3  -3   7  519.74   13.09
   3   3   7  504.24   13.70
   3   3   8   22.93    2.98
   3   3   8   22.02    3.16
   3  -3   8   18.80    2.53
   3   3   9  741.52   16.85
   3  -3   9  686.38   15.38
   3   3   9  715.48   17.98
   3   3  10  157.65    7.92
   3  -3  10  145.33    7.11
   3   3  10  149.67    8.42
   3   3  11   41.44    4.16
   3  -3  11   43.11    4.11
   3   3  11   52.97    5.06
   3  -3  12  437.04   12.72
   3   3  12  445.46   13.82
   3  -3  13  282.62   10.29
   3   3  13  281.50   10.91
   3  -3  14   16.02    2.36
   3   3  14   15.18    2.57
   3   3  14   13.31    2.65
   3   3  15   73.00    5.80
   3  -3  15   58.97    4.89
   3   3  15   70.05    6.28
   3  -3  16   33.94    3.80
   3   3  16   40.50    4.87
   3   3  16   38.43    4.40
   3   3  17   42.39    4.47
   3  -3  17   42.92    4.37
   3   3  17   38.40    4.91
   3   3  18   69.80    6.58
   3   3  18   47.90    4.95
  -3   3  19   25.16    4.21
   3   3  19   39.89    5.16
   3   3  20    5.68    2.07
  -3   3  20    8.43    2.67
  -3   3  21   -0.23    1.49
   3   3  21    0.53    1.16
  -3   3  21    2.70    1.35
  -3   3  22    7.04    2.12
   3   3  22   12.00    2.89
   3   3  23   48.92    6.29
   3   3  24    1.63    1.35
   3   3  25   23.02    4.57
   3  -4 -29    2.06    1.36
   3  -4 -28    5.40    2.74
  -3  -4 -28    5.71    2.89
  -3  -4 -27   14.00    3.37
   3  -4 -27   20.88    4.73
  -3  -4 -26    2.52    2.33
   3  -4 -26    5.63    3.09
   3  -4 -25   17.19    4.06
  -3  -4 -25   19.97    4.58
  -3  -4 -24    2.23    1.16
   3  -4 -24    3.96    1.91
   3  -4 -23    4.94    2.36
  -3  -4 -23    3.32    2.86
  -3  -4 -22    5.06    2.20
   3  -4 -22    3.44    1.33
  -3  -4 -21    6.72    2.33
   3  -4 -21   10.43    3.10
   3  -4 -20    2.89    1.25
  -3  -4 -20    8.27    2.86
  -3  -4 -19   30.69    5.00
   3  -4 -19   22.52    4.18
  -3  -4 -18    8.12    2.56
   3  -4 -18    9.78    2.75
  -3  -4 -17   -0.53    0.89
   3  -4 -17    1.03    1.72
   3  -4 -17   -0.12    1.56
   3  -4 -16    4.42    2.21
   3  -4 -16    6.28    2.13
  -3  -4 -16    3.41    1.68
   3  -4 -15   16.85    2.91
  -3  -4 -15   16.35    3.17
   3  -4 -15   19.71    3.71
   3   4 -15   17.20    2.87
   3   4 -14    0.24    1.46
   3  -4 -14    0.88    1.39
  -3  -4 -14    1.40    0.82
   3  -4 -14   -0.56    0.80
   3   4 -13   15.97    2.97
  -3  -4 -13   18.46    3.15
   3  -4 -13   13.85    2.88
   3  -4 -13   10.95    2.89
   3  -4 -12    7.72    2.03
   3  -4 -12    9.42    2.23
  -3  -4 -12    7.53    2.14
  -3   4 -12    9.13    1.70
   3   4 -12    9.22    2.11
  -3   4 -11   44.32    3.89
   3  -4 -11   50.83    5.35
   3   4 -11   42.62    4.31
   3  -4 -11   35.56    4.58
  -3  -4 -11   38.87    4.56
   3   4 -10   74.41    3.58
  -3   4 -10   72.22    4.99
   3  -4 -10   81.37    6.64
   3  -4 -10   69.94    6.16
  -3  -4 -10   71.55    5.90
   3   4  -9   33.68    2.56
  -3   4  -9   39.44    3.73
   3  -4  -9   35.52    4.29
   3  -4  -9   32.39    4.20
   3   4  -9   40.09    4.38
  -3  -4  -9   35.93    4.01
  -3  -4  -8   41.29    4.30
   3   4  -8   46.64    4.66
   3  -4  -8   45.19    4.77
  -3   4  -8   41.74    3.91
   3  -4  -8   38.33    4.31
   3   4  -8   44.58    3.21
   3   4  -7   41.84    4.35
  -3  -4  -7   36.42    3.69
   3   4  -7   37.80    3.04
  -3   4  -7   35.49    3.61
   3  -4  -7   39.58    4.35
   3  -4  -7   38.45    4.51
   3   4  -6   56.06    3.91
  -3  -4  -6   45.20    4.06
   3   4  -6   41.97    4.28
   3  -4  -6   50.74    4.81
  -3   4  -6   45.52    4.17
   3  -4  -6   56.15    5.17
   3   4  -5  213.65    9.69
  -3  -4  -5  209.53    8.47
   3  -4  -5  217.44   10.07
   3   4  -5  214.16    7.93
   3  -4  -5  226.36    9.88
  -3   4  -5  213.25    9.11
   3  -4  -4  137.64    7.39
  -3  -4  -4  134.77    6.41
   3   4  -4  145.77    8.00
  -3   4  -4  130.24    7.22
   3  -4  -4  136.93    7.89
   3   4  -4  134.53    6.50
  -3   4  -3   94.74    6.03
   3   4  -3   95.66    5.66
   3  -4  -3   96.89    6.17
   3  -4  -3   93.72    6.40
  -3  -4  -3   95.80    5.12
  -3   4  -2  263.96   10.28
  -3  -4  -2  258.66    7.81
   3  -4  -2  270.86   10.17
   3   4  -2  275.53    9.85
   3  -4  -2  240.47   10.29
   3   4  -2  237.51   10.12
   3  -4  -1  306.70   10.58
  -3  -4  -1  304.61    7.80
   3   4  -1  314.20   11.64
   3  -4  -1  284.83   11.08
   3   4  -1  292.49   10.36
  -3   4  -1  290.28   10.93
   3   4   0   92.46    5.91
   3  -4   0   89.74    6.22
   3  -4   0  105.96    6.07
   3   4   0  112.22    6.92
   3  -4   1  284.05   10.95
   3  -4   1  292.52    9.94
   3   4   1  287.56   10.82
   3   4   1  285.69   11.22
   3   4   2  241.80   10.59
   3   4   2  245.23   10.06
   3  -4   2  264.68    9.47
   3  -4   2  249.38   10.06
   3  -4   3  104.42    5.84
   3   4   3  101.15    6.68
   3   4   3  106.79    6.83
   3  -4   3  102.97    6.36
   3   4   4  141.38    7.95
   3   4   4  133.53    7.80
   3  -4   4  142.90    7.70
   3  -4   4  141.32    6.77
   3   4   5  228.79   10.14
   3   4   5  208.88    9.81
   3  -4   5  214.40    8.42
   3  -4   5  222.11    9.53
   3   4   6   45.98    4.53
   3   4   6   50.14    4.89
   3  -4   6   49.40    4.12
   3  -4   6   57.52    4.87
   3   4   7   46.79    4.76
   3   4   7   38.77    4.34
   3  -4   7   46.04    4.24
   3  -4   8   48.79    4.40
   3   4   8   54.73    5.20
   3   4   8   46.02    4.71
   3   4   9   42.20    4.58
   3   4   9   35.39    4.28
   3  -4  10   80.68    5.70
   3   4  10   77.63    6.38
   3   4  10   68.63    6.12
   3  -4  11   36.29    3.85
   3   4  11   35.61    4.52
   3   4  11   35.09    4.55
   3   4  12    4.24    1.27
   3   4  12    6.79    2.34
   3  -4  13   20.29    2.97
   3   4  13   15.73    3.15
   3   4  13   17.53    3.16
   3   4  14   -0.30    0.92
   3  -4  14   -0.29    0.46
   3   4  14    0.08    0.67
   3   4  15   13.63    2.78
   3  -4  15   16.09    2.75
   3   4  15   16.70    3.16
   3   4  16    6.92    2.34
   3   4  16    5.34    2.55
   3   4  17    3.67    3.13
   3   4  17   -0.11    1.44
  -3   4  17    0.24    0.98
   3   4  18    7.33    2.48
   3   4  18    8.16    2.35
  -3   4  18    4.38    2.08
  -3   4  19   31.79    4.83
   3   4  19   23.48    3.95
   3   4  19   29.03    4.50
  -3   4  20   -0.72    1.17
  -3   4  20    2.70    1.61
   3   4  20    2.12    2.25
   3   4  21   13.40    3.43
  -3   4  21    5.89    2.30
  -3   4  21    6.54    2.71
   3   4  22    4.66    2.18
  -3   4  22    9.28    2.89
  -3   4  23    2.83    1.62
   3   4  23    5.04    2.26
   3   4  24    6.10    2.27
   3   4  25   10.02    3.02
   3   4  26    5.46    2.58
  -3  -5 -27    2.85    1.37
   3  -5 -27   10.16    3.33
  -3  -5 -26    4.91    2.52
   3  -5 -26   10.86    3.19
  -3  -5 -25    9.10    2.98
   3  -5 -25    9.42    3.52
   3  -5 -24    6.69    2.61
  -3  -5 -24    6.49    2.39
   3  -5 -23   15.37    3.53
  -3  -5 -23   10.46    3.65
  -3  -5 -22    9.12    2.67
   3  -5 -22    5.88    2.44
  -3  -5 -21    3.05    1.23
   3  -5 -21    5.96    3.06
   3  -5 -20   20.48    4.03
  -3  -5 -20   21.27    4.14
   3  -5 -19   49.45    6.15
  -3  -5 -19   35.89    5.39
   3  -5 -18   14.83    3.76
  -3  -5 -18   20.18    4.33
   3  -5 -17   36.93    5.40
   3  -5 -17   34.25    4.96
  -3  -5 -17   32.09    4.89
   3  -5 -16   28.33    4.44
   3  -5 -16   25.92    4.10
  -3  -5 -16   27.78    4.41
   3  -5 -15   49.42    5.99
  -3  -5 -15   56.71    6.10
   3  -5 -15   51.64    5.81
   3   5 -15   34.18    4.51
   3   5 -14   55.31    5.83
  -3  -5 -14   56.50    6.17
   3  -5 -14   56.43    6.07
   3  -5 -14   54.13    5.94
  -3  -5 -13  145.37    9.58
   3   5 -13  148.51    8.90
   3  -5 -13  162.97   10.27
   3  -5 -13  164.23   10.27
  -3   5 -12   86.62    6.40
   3   5 -12   87.24    6.87
  -3  -5 -12   83.50    6.95
   3  -5 -12   92.05    7.61
   3  -5 -12   72.27    6.88
   3   5 -11   33.62    4.32
  -3  -5 -11   22.71    3.69
  -3   5 -11   32.09    3.98
   3  -5 -11   35.81    4.98
   3  -5 -11   29.07    4.11
   3  -5 -10   45.12    5.37
   3  -5 -10   34.43    4.49
  -3   5 -10   37.29    4.23
  -3  -5 -10   44.97    4.74
   3   5 -10   44.07    4.92
   3   5  -9  133.23    6.51
  -3   5  -9  140.43    8.06
  -3  -5  -9  127.30    7.96
   3  -5  -9  149.10    9.49
   3   5  -9  151.07    8.98
   3  -5  -9  137.29    8.70
   3   5  -8   15.95    3.07
   3  -5  -8   26.25    3.84
  -3   5  -8   24.26    3.48
  -3  -5  -8   21.71    3.23
   3   5  -8   19.24    2.56
   3  -5  -8   11.80    2.42
   3  -5  -7   55.17    5.63
   3   5  -7   74.86    6.22
   3  -5  -7   76.43    6.27
  -3   5  -7   69.92    5.78
  -3  -5  -7   71.79    5.74
   3   5  -7   75.19    5.21
  -3  -5  -6   55.41    4.81
  -3   5  -6   55.76    5.09
   3  -5  -6   60.31    5.73
   3  -5  -6   60.72    5.53
   3   5  -6   51.22    4.47
   3   5  -6   65.17    5.81
   3  -5  -5    4.93    1.73
  -3   5  -5    4.56    1.68
  -3  -5  -5    6.12    1.71
   3   5  -5    5.01    1.52
   3   5  -5    5.03    1.67
   3  -5  -5    6.51    2.30
   3   5  -4   46.09    4.27
   3   5  -4   53.30    5.30
  -3   5  -4   42.86    4.51
   3  -5  -4   44.62    4.53
  -3  -5  -4   40.78    3.75
   3  -5  -4   47.60    5.15
   3   5  -3  150.51    8.08
  -3  -5  -3  152.60    6.85
  -3   5  -3  155.35    8.86
   3   5  -3  153.96    8.95
   3  -5  -3  154.74    8.28
   3  -5  -3  148.62    8.88
   3  -5  -2    9.47    2.10
   3   5  -2   10.54    2.18
  -3   5  -2   12.78    2.73
   3   5  -2   13.47    2.71
  -3  -5  -2    7.00    1.44
   3  -5  -2    7.26    1.87
   3  -5  -1  175.91    9.45
   3   5  -1  186.99    9.18
  -3  -5  -1  189.82    6.76
   3   5  -1  176.72    9.54
   3  -5  -1  175.95    8.62
  -3   5  -1  185.92    9.73
  -3   5   0   94.08    6.83
   3   5   0   98.98    7.07
   3   5   0   85.33    6.40
   3  -5   0   90.30    6.00
   3  -5   0   92.02    6.81
   3   5   1  185.14    9.81
   3   5   1  163.75    8.96
   3  -5   1  160.70    8.90
   3  -5   1  186.80    8.70
   3  -5   2   10.06    2.35
   3  -5   2    6.34    1.65
  -3   5   2   13.42    2.84
   3   5   2   10.48    2.30
   3   5   2    6.67    2.02
  -3   5   3  166.23    9.28
   3   5   3  146.92    8.89
   3  -5   3  147.72    8.43
   3  -5   3  142.48    7.56
   3   5   3  141.62    8.58
   3  -5   4   57.24    4.63
  -3   5   4   44.64    5.21
   3   5   4   54.47    5.44
   3  -5   4   51.42    5.04
   3   5   4   51.52    5.26
   3  -5   5    7.92    2.04
   3   5   5    2.38    1.25
   3   5   5    6.80    2.22
   3  -5   5    6.09    1.49
  -3   5   5    6.89    2.36
   3   5   6   54.24    5.34
  -3   5   6   56.66    5.66
   3   5   6   52.15    5.36
   3  -5   6   59.45    5.40
   3  -5   6   59.72    4.76
   3   5   7   72.83    6.48
   3   5   7   66.17    6.15
   3  -5   7   71.00    5.23
   3  -5   7   68.79    5.72
  -3   5   7   64.98    6.08
  -3   5   8   16.82    3.22
   3   5   8   16.89    3.12
   3  -5   8   17.33    2.92
   3   5   8   17.67    3.27
   3  -5   8   16.53    2.67
   3   5   9  144.24    9.09
   3  -5   9  130.84    7.90
   3  -5   9  143.43    7.79
   3   5   9  133.41    8.91
  -3   5   9  139.39    9.12
   3   5  10   42.71    4.98
  -3   5  10   39.01    5.15
   3  -5  10   30.59    4.02
   3   5  10   44.87    5.24
   3   5  11   32.32    4.38
  -3   5  11   36.87    5.03
   3   5  11   35.03    4.81
   3  -5  11   29.75    3.82
   3   5  12   92.04    7.47
   3   5  12   90.07    7.64
  -3   5  12   91.79    7.53
   3   5  13  159.81   10.06
   3   5  13  157.66   10.18
   3  -5  13  176.15    9.21
  -3   5  13  158.66   10.41
   3   5  14   41.70    5.50
   3   5  14   59.22    6.13
  -3   5  14   65.50    6.39
   3  -5  14   55.79    5.15
   3   5  15   43.72    5.49
   3   5  15   37.48    5.13
  -3   5  15   47.62    5.93
   3   5  16   25.67    4.14
   3   5  16   19.72    3.69
  -3   5  16   22.00    4.21
   3   5  17   40.30    5.49
   3   5  17   46.68    5.47
  -3   5  17   38.90    5.74
   3   5  18   11.31    2.80
   3   5  18   20.73    3.98
  -3   5  18   23.62    4.13
  -3   5  19   50.74    6.14
   3   5  19   37.79    5.33
   3   5  19   44.94    5.94
  -3   5  20   11.27    3.44
   3   5  20   19.36    4.12
   3   5  21    3.54    1.82
  -3   5  21    4.54    2.67
  -3   5  21    7.22    3.23
  -3   5  22    8.21    2.66
   3   5  22    6.94    2.37
  -3   5  22    4.12    1.19
  -3   5  23   10.33    3.32
   3   5  23   13.55    3.60
   3   5  24    7.30    2.00
  -3   5  24    4.95    1.71
   3   5  25   14.00    3.63
   3   5  26    4.45    1.81
   3  -6 -26    1.69    1.63
  -3  -6 -26    0.62    1.44
  -3  -6 -25    4.52    2.36
   3  -6 -25    5.66    2.57
   3  -6 -24    4.43    2.10
  -3  -6 -24    3.21    2.61
  -3  -6 -23    1.91    1.89
   3  -6 -23    4.31    2.61
  -3  -6 -22   -0.32    2.05
   3  -6 -22    0.79    1.51
   3  -6 -21    4.29    2.61
  -3  -6 -21    6.62    2.26
  -3  -6 -20   -1.35    1.63
   3  -6 -20    0.05    1.16
  -3  -6 -19   23.37    4.59
   3  -6 -19   32.60    5.10
  -3  -6 -18   17.24    3.85
   3  -6 -18   19.65    4.18
  -3  -6 -17    7.61    2.69
   3  -6 -17    9.32    2.82
   3  -6 -17   10.33    3.28
  -3  -6 -16    9.01    2.43
   3  -6 -16   17.21    3.67
   3  -6 -16   13.46    3.48
  -3  -6 -15   41.67    5.45
   3  -6 -15   33.61    5.24
   3  -6 -15   32.28    4.99
   3  -6 -14    4.80    1.78
  -3  -6 -14    4.63    1.65
   3   6 -14    3.99    1.80
   3  -6 -14   10.16    2.66
   3   6 -13   87.13    7.58
   3  -6 -13   81.91    7.48
   3  -6 -13   86.39    7.81
  -3  -6 -13   85.13    7.41
   3  -6 -12    5.95    2.11
   3   6 -12    9.31    2.84
  -3  -6 -12   10.78    2.96
   3  -6 -12    6.15    2.06
   3  -6 -11   56.61    6.25
   3  -6 -11   42.24    5.22
  -3   6 -11   51.07    5.46
   3   6 -11   52.31    5.85
  -3  -6 -11   44.62    5.24
  -3  -6 -10   14.05    2.90
   3   6 -10   18.25    3.48
  -3   6 -10   10.64    2.44
   3  -6 -10   14.16    3.43
   3   6  -9   16.62    3.00
   3  -6  -9   18.57    3.55
   3  -6  -9   17.31    3.33
  -3   6  -9   16.78    3.10
  -3  -6  -9   19.31    3.39
   3   6  -8   29.90    4.26
  -3   6  -8   28.06    4.22
  -3  -6  -8   25.71    3.76
   3  -6  -8   22.46    3.91
   3  -6  -8   30.02    4.87
   3   6  -8   23.79    3.23
   3   6  -7   59.23    6.12
  -3   6  -7   59.21    5.85
  -3  -6  -7   55.77    5.29
   3  -6  -7   68.91    6.75
   3   6  -7   57.16    5.16
   3  -6  -7   51.98    5.51
  -3  -6  -6   11.89    2.35
   3   6  -6   12.02    2.47
   3  -6  -6   13.65    2.80
  -3   6  -6   11.30    2.61
   3   6  -6   12.78    2.76
   3  -6  -6   12.06    2.95
   3   6  -5   58.47    5.47
  -3   6  -5   51.42    5.60
   3  -6  -5   65.98    6.33
   3   6  -5   57.94    5.99
  -3  -6  -5   56.80    4.89
   3  -6  -5   54.36    5.52
   3  -6  -4   10.81    3.21
   3   6  -4    6.98    2.02
  -3  -6  -4   13.00    2.25
  -3   6  -4   13.53    3.01
   3  -6  -4    9.77    2.78
   3   6  -4    8.01    2.23
   3  -6  -3   65.40    5.82
   3   6  -3   65.18    5.78
  -3  -6  -3   60.10    4.66
   3  -6  -3   63.33    6.06
   3   6  -3   58.28    6.10
  -3   6  -3   60.60    5.92
  -3  -6  -2   70.82    4.79
   3   6  -2   71.23    6.58
   3  -6  -2   73.88    6.00
  -3   6  -2   79.38    6.84
   3  -6  -2   74.90    6.84
   3   6  -2   89.36    6.79
  -3  -6  -1   60.40    4.21
  -3   6  -1   66.61    6.33
   3  -6  -1   63.51    5.48
   3  -6  -1   56.05    5.91
   3   6  -1   62.92    6.07
   3   6  -1   61.72    5.65
   3   6   0    1.54    0.69
   3  -6   0    1.09    1.75
   3  -6   0    1.72    1.28
   3   6   0    1.74    0.70
  -3   6   0    1.02    0.79
   3  -6   1   60.24    5.32
   3   6   1   64.10    6.32
   3   6   1   56.68    5.73
   3  -6   1   57.19    5.60
  -3   6   1   62.24    6.30
   3   6   2   70.35    6.34
   3   6   2   84.94    7.23
   3  -6   2   76.96    5.82
  -3   6   2   85.12    7.31
   3  -6   2   83.76    6.93
   3   6   3   66.47    6.25
   3   6   3   68.28    6.86
   3  -6   3   55.98    4.92
   3  -6   3   73.94    6.50
   3   6   4   11.63    2.61
   3   6   4    6.52    2.61
   3  -6   4    9.90    2.04
  -3   6   4    8.87    2.84
   3  -6   4    8.53    2.03
   3   6   5   60.06    6.19
  -3   6   5   52.37    5.89
   3  -6   5   48.76    4.70
   3  -6   5   52.30    5.34
   3   6   5   53.99    5.92
   3  -6   6    9.25    1.99
  -3   6   6   11.92    2.55
   3   6   6   13.44    3.14
   3   6   6   11.07    2.71
   3  -6   6    9.70    2.44
   3   6   7   64.73    6.43
  -3   6   7   65.05    6.47
   3  -6   7   62.92    5.10
   3   6   7   56.56    6.11
   3  -6   7   65.14    5.92
  -3   6   8   25.97    4.29
   3   6   8   31.89    4.61
   3   6   8   23.97    3.94
   3  -6   8   27.87    3.50
   3  -6   8   28.52    3.88
  -3   6   9   17.47    3.74
   3   6   9   15.64    3.38
   3  -6   9   19.05    3.23
   3  -6   9   17.35    2.99
   3   6   9   12.50    3.11
   3   6  10   13.18    3.02
   3   6  10   24.29    4.28
   3  -6  10   20.84    3.06
   3  -6  10   19.63    3.18
  -3   6  10   14.43    2.81
   3   6  11   51.81    6.02
  -3   6  11   49.61    5.92
   3  -6  11   45.52    4.89
   3   6  11   47.25    5.84
   3   6  12    2.81    1.95
  -3   6  12    6.26    2.69
   3  -6  12    7.13    2.36
   3   6  12    9.22    2.60
  -3   6  13  103.56    8.74
   3  -6  13   72.60    6.44
   3   6  13   90.16    8.26
   3   6  13   92.92    8.11
  -3   6  14    7.66    2.49
   3   6  14    4.35    2.10
   3   6  14    6.63    2.58
   3   6  15   33.17    5.03
   3   6  15   35.24    5.20
  -3   6  15   44.29    5.71
  -3   6  16   13.54    3.24
   3   6  16   10.98    2.43
   3   6  16   12.92    3.22
   3   6  17   12.27    3.21
  -3   6  17   10.15    3.16
   3   6  17    3.45    1.54
  -3   6  18   11.24    2.96
   3   6  18    4.84    2.94
   3   6  19   24.37    4.62
  -3   6  19   27.66    5.23
   3   6  19   16.31    3.58
   3   6  20    3.57    2.01
   3   6  20    3.12    2.17
  -3   6  20    1.18    1.62
  -3   6  21    8.92    3.80
  -3   6  21    2.05    1.93
   3   6  21    4.51    2.52
   3   6  22    4.55    2.74
  -3   6  22    1.19    1.31
  -3   6  22   -0.53    2.50
   3   6  23    1.26    1.43
  -3   6  23    1.88    1.44
   3   6  24    6.46    3.06
  -3   6  24   -0.11    1.74
   3   6  25    2.79    1.66
  -3   6  25    1.48    1.46
   3   6  26    0.56    1.18
  -3  -7 -24    9.63    3.92
   3  -7 -24    3.75    2.21
  -3  -7 -23   13.35    4.01
   3  -7 -23    4.70    2.76
  -3  -7 -22   10.88    3.75
   3  -7 -22    9.70    2.98
  -3  -7 -21    6.88    2.75
   3  -7 -21    9.41    3.24
  -3  -7 -20    4.16    2.29
   3  -7 -20    2.45    2.20
  -3  -7 -19   12.59    3.46
   3  -7 -19   13.38    3.25
  -3  -7 -18    4.10    2.02
   3  -7 -18    1.61    1.51
  -3  -7 -17   22.29    4.29
   3  -7 -17   25.76    4.61
   3  -7 -16   27.60    4.83
   3  -7 -16   24.60    4.74
  -3  -7 -16   27.83    4.71
   3  -7 -15   10.42    3.06
  -3  -7 -15    9.31    2.09
   3  -7 -15    8.04    2.45
   3  -7 -14   11.66    3.30
   3  -7 -14   14.43    3.73
  -3  -7 -14    8.14    2.82
   3   7 -14   13.56    3.48
   3  -7 -13   39.39    5.38
  -3  -7 -13   41.11    5.50
   3  -7 -13   32.28    4.89
   3   7 -13   43.84    5.46
  -3  -7 -12    7.37    2.38
   3  -7 -12    8.32    1.93
   3   7 -12    4.39    1.99
   3  -7 -12   12.84    3.03
   3   7 -11    1.74    1.80
   3  -7 -11    2.31    1.44
   3  -7 -11    1.02    1.64
  -3  -7 -11    3.70    1.17
  -3   7 -11    3.38    2.24
   3   7 -10   23.39    4.06
  -3   7 -10   20.26    3.70
  -3  -7 -10   19.37    3.39
   3  -7 -10   20.78    3.94
   3  -7 -10   14.18    3.60
   3  -7  -9   73.36    7.48
   3   7  -9   63.58    6.80
   3  -7  -9   66.45    6.64
  -3   7  -9   68.61    6.98
  -3  -7  -9   68.74    6.50
  -3  -7  -8    9.20    2.33
  -3   7  -8   13.17    3.03
   3  -7  -8   17.26    3.63
   3  -7  -8   11.73    2.81
   3   7  -8    5.92    2.39
   3   7  -7   25.97    4.24
  -3  -7  -7   19.55    3.56
  -3   7  -7   18.22    3.42
   3   7  -7   19.28    3.27
   3  -7  -7   19.25    3.39
   3  -7  -7   27.92    4.52
   3  -7  -6   44.92    5.32
   3   7  -6   41.82    5.59
  -3  -7  -6   42.22    4.88
  -3   7  -6   42.36    5.42
   3  -7  -6   34.09    5.02
   3   7  -6   42.27    4.96
  -3   7  -5   17.15    3.25
   3   7  -5   19.40    3.32
  -3  -7  -5   16.30    2.51
   3  -7  -5    9.31    2.13
   3  -7  -5   17.68    3.77
   3   7  -5   11.69    2.92
   3  -7  -4   66.21    6.91
   3   7  -4   71.83    7.05
  -3   7  -4   86.49    7.81
  -3  -7  -4   85.24    6.21
   3  -7  -4   85.07    6.89
   3   7  -4   73.17    6.52
   3  -7  -3   80.58    6.69
  -3  -7  -3   87.37    6.15
   3   7  -3   99.00    8.30
   3  -7  -3   92.12    7.91
  -3   7  -3   83.84    7.69
   3   7  -3   75.85    6.85
   3   7  -2   61.03    6.66
  -3   7  -2   56.04    6.28
   3  -7  -2   59.92    5.87
   3   7  -2   53.25    5.81
   3  -7  -2   50.29    6.01
   3   7  -1  167.65   10.87
   3  -7  -1  178.61   11.00
   3  -7  -1  157.11    9.15
  -3   7  -1  166.11   10.71
   3   7  -1  176.20   10.66
   3  -7   0  102.23    7.13
   3   7   0  120.15    8.91
   3  -7   0  123.07    9.12
   3   7   0  130.04    9.30
  -3   7   0  123.70    9.40
   3   7   1  174.88   10.52
  -3   7   1  163.69   10.85
   3   7   1  168.64   10.66
   3  -7   1  166.26    9.11
   3  -7   1  176.52   11.03
   3   7   2   62.49    6.45
  -3   7   2   49.44    6.18
   3   7   2   70.04    6.94
   3  -7   2   53.93    5.27
   3  -7   2   49.43    5.85
   3  -7   3   86.34    6.59
   3   7   3   80.49    7.50
   3  -7   3   89.32    7.62
  -3   7   3   87.80    8.02
   3   7   3   78.11    7.30
   3   7   4   93.41    8.05
  -3   7   4   79.07    7.67
   3  -7   4   78.06    6.16
   3  -7   4   77.09    7.20
   3   7   4   70.71    7.46
   3   7   5   16.09    3.34
   3   7   5   19.12    3.91
   3  -7   5   14.68    2.63
  -3   7   5   11.90    3.29
   3  -7   5   13.88    2.83
   3   7   6   48.83    5.97
   3   7   6   41.20    5.61
  -3   7   6   42.65    5.85
   3  -7   6   46.53    5.54
   3   7   7   22.96    4.14
  -3   7   7   17.95    4.02
   3  -7   7   23.35    3.95
   3   7   7   19.31    3.79
  -3   7   8    8.93    1.92
   3   7   8    8.67    2.47
   3   7   8   10.89    2.74
   3  -7   8   13.90    3.20
   3  -7   9   63.43    6.40
   3   7   9   66.26    6.83
  -3   7   9   85.08    7.99
   3   7   9   70.90    7.29
   3   7  10   19.12    4.26
   3  -7  10   23.50    3.90
  -3   7  10   26.71    4.72
   3   7  10   17.72    3.87
   3   7  11    2.02    0.94
   3   7  11    3.69    2.21
  -3   7  11    1.24    2.09
   3  -7  11    2.80    1.80
   3   7  12    6.10    1.80
   3  -7  12    2.85    1.27
  -3   7  12    6.27    1.88
   3   7  13   44.08    6.17
  -3   7  13   39.11    5.50
   3   7  13   42.32    5.81
   3   7  14   10.47    3.51
   3   7  14   13.46    3.11
  -3   7  14   13.72    3.60
  -3   7  15    8.94    3.21
   3   7  15    8.59    2.59
   3   7  15    5.83    2.04
   3   7  16   27.58    5.36
  -3   7  16   33.00    5.59
   3   7  16   24.00    4.48
   3   7  17   18.62    4.57
   3   7  17   23.71    4.67
  -3   7  17   19.34    4.09
   3   7  18    0.51    1.44
  -3   7  18    1.43    1.40
   3   7  18    1.99    2.43
   3   7  19   16.81    4.13
   3   7  19   14.31    3.57
  -3   7  19   22.38    5.04
   3   7  20    5.72    2.71
   3   7  20    5.53    2.36
  -3   7  21    6.20    1.39
   3   7  21    6.65    2.57
  -3   7  21    3.05    1.88
   3   7  22   13.22    2.42
  -3   7  22   18.60    4.67
  -3   7  22    9.60    2.94
  -3   7  23    9.38    3.44
   3   7  23    6.15    2.52
  -3   7  24    4.75    2.83
   3   7  24    8.38    3.00
  -3  -8 -22    1.00    1.47
   3  -8 -22    4.23    2.69
  -3  -8 -21    5.16    2.95
   3  -8 -21    0.48    1.78
   3  -8 -20   -1.27    1.80
  -3  -8 -20    2.23    1.26
  -3  -8 -19    2.51    1.78
   3  -8 -19    5.32    3.08
  -3  -8 -18    0.71    1.25
   3  -8 -18   -0.06    1.69
   3  -8 -17    4.88    2.31
  -3  -8 -17    4.11    2.48
  -3  -8 -16    5.80    2.74
   3  -8 -16    4.23    2.45
   3  -8 -15   17.45    4.19
  -3  -8 -15   19.88    3.94
   3  -8 -15   12.76    3.32
  -3  -8 -14    3.09    2.35
   3  -8 -14   10.72    3.54
   3  -8 -14    5.04    2.71
   3  -8 -13   28.36    4.71
   3   8 -13   25.28    4.78
  -3  -8 -13   35.66    5.56
   3  -8 -13   30.77    5.35
   3  -8 -12    9.73    2.75
   3   8 -12   18.29    4.21
   3  -8 -12   10.16    2.99
  -3  -8 -12   10.25    2.75
   3   8 -11    2.48    1.37
   3  -8 -11    0.75    1.37
   3  -8 -11   -0.80    0.88
   3   8 -10    7.33    2.67
  -3  -8 -10    2.21    1.23
   3  -8 -10    2.88    1.78
   3  -8 -10    2.85    1.43
  -3   8 -10    5.41    2.91
   3  -8  -9   17.14    3.90
  -3   8  -9   21.20    4.32
   3   8  -9   15.30    3.53
   3  -8  -9   20.27    3.86
  -3  -8  -9   18.82    3.62
  -3   8  -8    7.14    3.01
  -3  -8  -8    7.24    2.35
   3  -8  -8    9.40    2.75
   3  -8  -8    5.55    1.78
   3   8  -8    5.35    2.26
   3   8  -7   10.41    2.94
  -3   8  -7    9.21    2.75
   3  -8  -7   12.35    2.74
   3  -8  -7   12.87    3.82
   3   8  -6   -1.21    1.79
   3   8  -6    1.79    2.06
   3  -8  -6    1.96    1.97
   3  -8  -6   -2.37    2.03
  -3   8  -6    1.44    1.99
   3   8  -5    9.00    2.49
  -3   8  -5    9.89    3.01
   3  -8  -5   13.93    3.04
   3   8  -5    6.06    2.85
   3  -8  -5   12.22    2.96
   3  -8  -4   35.08    5.23
  -3   8  -4   25.38    4.49
   3  -8  -4   35.07    4.94
   3   8  -4   32.63    5.34
   3   8  -4   28.66    4.63
   3   8  -3   13.83    3.51
   3   8  -3    9.82    3.08
  -3   8  -3    7.38    1.86
   3  -8  -3   16.19    3.14
   3  -8  -3   10.19    2.67
  -3   8  -2    2.61    1.51
   3   8  -2    0.77    1.45
   3   8  -2    4.37    2.86
   3  -8  -2    4.04    2.43
   3  -8  -2    1.85    1.81
   3   8  -1   22.26    3.95
  -3   8  -1   26.08    4.93
   3  -8  -1   14.17    2.95
   3   8  -1    8.87    2.62
   3  -8  -1   18.32    3.71
   3   8   0    1.58    1.53
   3  -8   0    1.25    1.79
   3   8   0    1.08    0.77
  -3   8   0    1.94    1.61
   3   8   1   20.87    4.07
  -3   8   1   15.40    3.89
   3   8   1   19.51    3.88
   3  -8   1   18.86    3.71
   3   8   2    1.74    1.82
   3   8   2    3.48    2.10
  -3   8   2    2.77    2.40
   3  -8   2    3.69    1.93
   3   8   3   16.41    3.76
   3  -8   3   12.73    3.02
   3   8   3   11.89    3.50
  -3   8   3   11.00    3.22
   3   8   4   37.60    5.54
   3  -8   4   27.44    4.26
  -3   8   4   28.11    4.97
   3   8   4   22.40    4.04
  -3   8   5   10.37    2.64
   3   8   5    9.50    2.61
   3   8   5    7.49    2.67
   3  -8   5    6.42    2.17
   3   8   6    2.74    2.16
  -3   8   6    1.93    1.94
   3  -8   6    2.34    1.34
   3   8   6    0.44    1.26
   3   8   7    9.51    3.09
  -3   8   7    6.36    2.54
   3  -8   7   10.11    2.98
   3   8   7   10.65    3.14
  -3   8   8    6.04    2.72
   3   8   8    1.52    1.06
   3   8   8    7.20    2.39
   3  -8   8    7.30    2.68
  -3   8   9   21.13    4.04
   3  -8   9   14.30    3.27
   3   8   9   23.86    4.42
   3   8   9   27.28    4.80
  -3   8  10    8.53    3.40
   3  -8  10    4.60    2.02
   3   8  10    8.10    2.04
   3   8  10    5.23    2.26
  -3   8  11    2.02    2.11
   3   8  11    0.04    1.44
   3   8  11    0.37    1.01
   3   8  12   10.96    3.44
  -3   8  12    8.77    3.24
   3   8  12   11.51    2.73
   3   8  13   36.26    6.09
   3   8  13   27.02    4.83
   3   8  14    6.54    3.20
   3   8  14    2.10    1.89
  -3   8  14    7.78    2.59
  -3   8  15   12.75    2.99
   3   8  15   11.17    3.41
   3   8  15   13.33    3.70
   3   8  16    2.81    1.92
  -3   8  16    3.29    2.03
   3   8  16    1.91    0.90
   3   8  17    8.12    3.39
   3   8  17    6.85    2.62
  -3   8  17    7.61    3.12
   3   8  18    2.67    2.06
   3   8  18    0.56    1.95
  -3   8  18    2.09    2.11
   3   8  19    3.68    1.77
  -3   8  19    2.36    2.67
   3   8  19    4.40    1.49
  -3   8  20    0.80    1.55
   3   8  20    1.39    2.65
  -3   8  20    3.58    1.58
   3   8  20    3.01    1.87
  -3   8  21    0.42    2.13
   3   8  21    6.33    2.99
  -3   8  21    1.94    1.43
  -3   8  22   -0.42    1.05
   3   8  22    3.79    2.70
  -3  -9 -19   11.83    3.79
   3  -9 -19   11.50    3.99
  -3  -9 -18    2.51    1.54
   3  -9 -18    2.13    1.62
   3  -9 -17    1.62    1.65
  -3  -9 -17    1.79    1.83
  -3  -9 -16    6.59    2.68
   3  -9 -16    7.01    2.78
  -3  -9 -15    7.68    2.55
   3  -9 -15    9.05    3.35
   3  -9 -14    8.17    3.22
   3  -9 -14    5.46    2.36
   3  -9 -13    6.73    1.93
   3  -9 -13   10.81    3.07
   3  -9 -12    1.32    2.52
   3   9 -12    4.76    2.35
   3  -9 -12    3.71    1.78
   3  -9 -11    2.63    1.19
   3   9 -11    2.24    1.08
   3  -9 -11    4.60    2.44
   3  -9 -10   10.31    2.73
   3   9 -10   16.84    4.05
   3  -9 -10   16.36    4.11
  -3   9  -9   35.99    5.84
   3  -9  -9   33.08    5.36
   3   9  -9   41.65    6.33
   3  -9  -9   36.71    5.32
   3  -9  -8   13.22    3.22
   3  -9  -8   16.54    3.78
  -3   9  -8   13.41    3.68
   3   9  -8   16.23    3.30
   3   9  -7   37.86    5.39
  -3   9  -7   25.74    4.89
   3  -9  -7   26.28    4.79
   3  -9  -7   21.56    4.61
   3   9  -6   31.04    5.25
  -3   9  -6   30.31    4.92
   3  -9  -6   25.94    4.95
  -3   9  -5   20.15    4.21
   3  -9  -5   32.60    5.05
   3   9  -5   28.77    4.91
   3   9  -4   52.81    6.65
  -3   9  -4   54.68    6.91
   3   9  -4   54.26    6.75
   3  -9  -4   58.35    6.98
   3  -9  -3   51.16    6.43
   3   9  -3   62.51    7.48
  -3   9  -3   68.43    7.77
   3   9  -3   66.64    7.29
   3  -9  -2   14.89    3.31
  -3   9  -2   15.00    3.74
   3   9  -2   19.19    4.10
   3   9  -2   20.97    4.39
  -3   9  -1   44.13    6.19
   3  -9  -1   49.67    6.37
   3   9  -1   46.78    6.80
   3   9  -1   46.91    6.24
   3  -9   0   21.62    4.37
  -3   9   0   30.52    5.32
   3   9   0   30.46    5.24
   3   9   0   32.63    5.39
   3   9   1   44.68    6.17
  -3   9   1   42.09    6.17
   3  -9   1   47.49    6.29
   3   9   1   42.22    5.87
   3   9   2   21.80    4.18
   3  -9   2   18.11    3.98
  -3   9   2   16.70    4.00
   3   9   2   17.19    3.96
   3   9   3   58.07    6.78
  -3   9   3   65.16    7.52
   3   9   3   69.08    7.69
   3  -9   3   69.36    7.49
   3   9   4   44.68    6.29
   3   9   4   40.33    5.95
  -3   9   4   42.31    6.22
   3  -9   4   47.45    6.38
   3  -9   5   24.80    4.99
   3   9   5   21.79    4.63
  -3   9   5   24.40    4.72
   3   9   5   23.37    4.55
   3   9   6   20.80    4.78
   3  -9   6   31.69    5.28
   3   9   6   31.09    5.25
  -3   9   6   26.34    4.97
  -3   9   7   35.86    5.95
   3   9   7   42.85    6.20
   3   9   7   27.30    4.98
   3  -9   7   31.42    5.16
   3   9   8   11.74    3.63
   3   9   8   19.67    4.28
  -3   9   8   12.60    3.53
   3  -9   8   17.25    4.21
   3   9   9   36.15    6.13
  -3   9   9   55.22    6.69
   3  -9   9   48.92    6.55
   3   9   9   35.69    5.58
   3   9  10   12.48    3.47
   3   9  10   10.56    2.89
  -3   9  10   13.13    3.63
   3   9  11    5.37    2.26
  -3   9  11    3.94    1.31
   3   9  11    1.03    0.77
   3   9  12    0.01    0.95
  -3   9  12    3.74    2.26
   3   9  12    3.66    2.99
   3   9  13    6.07    3.12
  -3   9  13   12.82    3.91
   3   9  13   14.15    4.05
   3   9  14    5.61    2.82
   3   9  14    6.85    2.84
  -3   9  14    8.34    3.04
   3   9  15    6.38    2.65
   3   9  15    8.19    3.56
  -3   9  15    6.27    2.93
   3   9  16    2.43    2.05
  -3   9  16    7.84    3.44
   3   9  16    4.08    2.59
  -3   9  17    4.75    2.15
   3   9  17    3.76    2.50
   3   9  17    2.22    2.14
   3   9  18    2.62    2.12
  -3   9  18    2.13    1.38
   3   9  18    1.75    1.59
  -3   9  19    5.57    2.53
   3   9  19   11.78    3.87
   3   9  19   12.97    4.09
  -3   9  19   10.09    3.92
   3 -10 -15    1.32    1.61
   3 -10 -12    1.72    2.40
   3  10 -11   22.37    5.16
   3 -10 -11   13.72    3.28
   3 -10 -10    7.73    2.79
   3  10 -10    4.32    2.13
   3  10  -9    8.63    3.34
  -3  10  -9   14.88    5.62
   3 -10  -9    9.12    3.01
   3 -10  -8   12.17    3.47
   3  10  -8   11.85    3.47
  -3  10  -8    7.53    2.99
   3 -10  -7    2.05    1.85
   3  10  -7    2.83    2.02
  -3  10  -7   -0.22    1.22
   3  10  -6    3.07    2.59
  -3  10  -6    3.60    2.13
   3 -10  -6    3.33    2.46
  -3  10  -5   18.39    4.41
   3  10  -5   13.83    3.86
   3 -10  -5   15.06    3.69
   3  10  -4   27.18    5.51
  -3  10  -4   24.15    4.59
   3 -10  -4   29.04    5.28
   3  10  -3   57.87    7.39
  -3  10  -3   49.60    7.17
   3  10  -3   44.79    6.44
   3 -10  -3   51.24    6.76
   3  10  -2   11.89    3.45
  -3  10  -2   15.49    3.84
   3  10  -2    8.04    2.80
   3 -10  -2    9.80    2.95
   3  10  -1    3.63    2.23
   3  10  -1    7.41    2.59
  -3  10  -1    5.20    2.11
   3 -10  -1    5.07    2.15
   3  10   0    6.85    2.78
  -3  10   0    2.69    1.24
   3  10   0    5.58    2.35
   3 -10   0    5.98    2.29
  -3  10   1    5.39    2.48
   3  10   1    7.08    3.08
   3 -10   1    4.12    1.26
   3  10   1    1.00    1.10
   3  10   2   12.86    3.59
  -3  10   2    5.75    2.42
   3 -10   2   18.40    4.29
   3  10   2   12.17    3.53
  -3  10   3   44.02    6.72
   3 -10   3   41.71    6.09
   3  10   3   56.83    7.25
   3  10   3   49.80    7.02
  -3  10   4   23.12    5.00
   3  10   4   21.68    4.85
   3 -10   4   29.16    5.08
   3  10   4   21.10    4.77
   3  10   5   14.27    3.88
   3  10   5   23.37    4.62
   3 -10   5   16.01    4.20
  -3  10   5   17.98    3.65
   3  10   6   -0.12    1.20
  -3  10   6    3.45    2.69
   3  10   6    4.09    2.97
   3 -10   6    2.72    1.49
   3  10   7    3.04    2.07
   3  10   7   -0.87    1.11
   3 -10   7    0.36    1.41
  -3  10   7   -0.18    1.73
   3  10   8   16.51    3.64
  -3  10   8   18.22    3.75
   3  10   8   10.46    3.30
  -3  10   9    7.49    3.20
   3  10   9   10.47    3.01
   3  10   9    6.85    2.67
   3  10  10    6.50    2.53
  -3  10  10    5.48    1.87
   3  10  11   22.22    4.56
   3  10  11   15.38    3.50
  -3  10  11    7.72    3.34
   3  10  12    4.20    2.13
   3  10  12    0.57    2.42
  -3  10  12    4.21    2.64
   3  10  13    0.55    2.10
   3  10  13   -1.99    1.53
  -3  10  13   -0.81    1.71
   3  10  14    4.44    2.10
   3  10  14    2.93    1.62
  -3  10  14    4.35    3.55
   3  10  15   -2.38    2.01
   3  10  15   -0.36    2.37
  -3  10  15   -1.68    2.04
   3  11  -9    4.27    1.53
   3 -11  -9    2.72    2.37
   3  11  -8   20.68    4.76
  -3  11  -8   13.80    4.66
   3 -11  -8    7.08    3.08
   3  11  -7    7.71    3.18
  -3  11  -7   13.82    3.73
   3 -11  -7   16.38    4.38
   3  11  -6    3.28    2.27
   3 -11  -6    3.96    2.45
  -3  11  -6    3.27    2.91
  -3  11  -5   -0.27    2.23
   3  11  -5    4.51    3.17
   3 -11  -5    5.73    2.45
  -3  11  -4    4.11    1.19
   3 -11  -4    1.90    1.23
   3  11  -3    1.11    1.87
  -3  11  -3    3.99    2.54
   3 -11  -3    0.39    1.67
   3  11  -2    1.73    1.16
  -3  11  -2    0.61    1.05
   3 -11  -2    4.38    2.64
   3  11  -1    5.33    2.65
  -3  11  -1   -1.45    2.18
   3 -11  -1    0.50    1.33
   3  11  -1   -1.19    2.28
  -3  11   0   -1.69    2.24
   3 -11   0   -1.12    2.17
   3  11   0    0.04    1.15
   3  11   0    1.15    1.98
   3  11   1    4.20    2.12
   3 -11   1    3.93    2.39
  -3  11   1    4.16    2.55
   3  11   1    2.49    2.44
   3  11   2    1.54    1.77
  -3  11   2    0.30    2.03
   3 -11   2    5.22    2.84
   3  11   2    1.77    1.80
   3 -11   3    3.88    1.84
   3  11   3   -2.01    2.48
  -3  11   3    0.27    1.60
   3  11   3   -0.50    1.63
   3  11   4    7.45    3.43
  -3  11   4    6.76    2.27
   3  11   4    6.23    2.85
   3 -11   4    0.30    1.59
   3 -11   5    3.64    2.41
   3  11   5    1.84    1.82
  -3  11   5    1.19    1.01
   3  11   5    5.93    2.90
  -3  11   6    3.08    2.49
   3 -11   6    2.99    1.96
   3  11   6    1.64    1.40
   3  11   7   11.19    3.76
  -3  11   7   16.46    4.07
   3  11   7   11.43    3.46
   3  11   8   12.90    4.13
   3  11   8   15.03    4.06
  -3  11   8    9.16    2.61
   3  11   9   -1.08    1.45
  -3  11   9    7.23    2.91
   3  11   9    5.99    2.80
   4   0 -30    4.28    1.73
   4   0 -29    4.95    2.71
   4   0 -28   -0.55    1.39
   4   0 -27   27.58    5.26
   4   0 -26   63.00    7.67
   4   0 -25   10.82    3.50
   4   0 -24   11.03    3.34
   4   0 -23   34.66    5.03
   4   0 -22   53.97    6.30
   4   0 -21   55.17    6.30
   4   0 -20   68.57    6.82
   4   0 -19   92.99    7.77
   4   0 -18  108.67    8.09
   4   0 -17  419.02   15.57
   4   0 -16  104.10    7.60
   4   0 -15  179.41    9.47
   4   0 -14  136.94    7.99
   4   0 -14  124.23    5.54
   4   0 -13   72.60    4.14
   4   0 -13   72.99    5.90
   4   0 -12   72.25    5.57
   4   0 -12   65.97    3.95
   4   0 -11  796.78   13.02
   4   0 -11  751.26   17.48
   4   0 -10   49.17    4.33
   4   0 -10   56.75    3.48
   4   0  -9  760.49   16.54
   4   0  -9  745.72   12.42
   4   0  -8  204.99    6.41
   4   0  -8  189.04    7.93
   4   0  -7   34.62    2.65
   4   0  -7   31.40    3.12
   4   0  -7   39.34    3.59
   4   0  -6   85.17    4.13
   4   0  -6   86.12    4.99
   4   0  -6   87.84    4.97
   4   0  -5  252.11    7.02
   4   0  -5  248.70    8.29
   4   0  -5  246.55    8.16
   4   0  -4   85.32    4.05
   4   0  -4   88.02    4.77
   4   0  -4   86.94    4.76
   4   0  -3 1023.56   14.32
   4   0  -3 1008.20   15.73
   4   0  -3 1036.62   15.82
   4   0  -2  675.28   12.34
   4   0  -2  711.70   12.03
   4   0  -2  700.94   12.88
   4   0  -1  381.09    8.86
   4   0  -1  371.32    9.34
   4   0  -1  382.92    9.25
   4   0   0  446.02    9.73
   4   0   0  470.93   10.07
   4   0   1  381.45    9.13
   4   0   1  393.62    8.87
   4   0   2  689.38   11.51
   4   0   2  652.01   12.69
   4   0   3 1025.48   15.96
   4   0   3 1023.34   13.57
   4   0   4   90.75    3.96
   4   0   4   90.21    4.88
   4   0   5  255.73    6.51
   4   0   5  265.61    8.69
   4   0   6  101.23    5.43
   4   0   6   86.01    3.72
   4   0   7   35.79    3.29
   4   0   7   36.23    2.31
   4   0   8  179.39    4.96
   4   0   8  184.77    7.74
   4   0   9  769.56   16.10
   4   0   9  797.75    9.97
   4   0  10   61.30    4.69
   4   0  10   54.00    2.54
   4   0  11  728.68    8.69
   4   0  11  779.18   16.96
   4   0  12   63.99    5.03
   4   0  12   57.32    2.13
   4   0  13   77.84    5.63
   4   0  14  129.83    7.46
   4   0  15  166.32    8.75
  -4   0  16   96.05    5.09
   4   0  16   91.63    6.66
   4   0  17  405.73   14.52
   4   0  18  116.18    7.81
   4   0  19   86.07    7.06
   4   0  20   52.62    5.62
   4   0  21   54.05    5.89
   4  -1 -30    1.81    1.87
   4  -1 -29    3.24    2.54
   4  -1 -28   -0.73    1.37
   4   1 -27    3.45    2.41
   4  -1 -27    0.95    1.99
   4  -1 -26   -0.28    1.61
   4   1 -26    2.06    1.72
   4  -1 -25    4.20    2.13
   4   1 -25    7.67    3.04
   4  -1 -24   22.50    4.18
   4   1 -24   14.35    3.61
   4   1 -23    4.45    1.51
   4  -1 -23    1.66    2.04
   4  -1 -22    8.61    3.08
   4   1 -22    6.69    2.28
   4   1 -21    1.52    1.56
   4  -1 -21    3.12    1.27
   4  -1 -20    3.84    1.86
   4   1 -20   -0.43    1.49
   4   1 -19   28.30    4.25
   4  -1 -19   27.87    4.54
   4  -1 -18   31.93    4.41
   4   1 -18   37.53    4.99
   4  -1 -17   19.92    3.64
   4   1 -17   14.04    2.86
   4   1 -16  181.71    9.67
   4  -1 -16  188.27   10.33
   4  -1 -16  165.71    8.12
   4  -1 -15    3.57    1.46
   4  -1 -15    2.93    1.06
   4   1 -14   23.97    3.47
   4  -1 -14   29.41    3.34
   4   1 -13   27.35    3.48
   4  -1 -13   31.59    4.06
   4  -1 -13   32.35    3.35
   4  -1 -12   33.50    3.45
   4  -1 -12   41.08    4.58
   4   1 -12   33.87    3.67
   4   1 -12   35.24    3.58
   4   1 -12   28.26    1.67
   4   1 -11   69.20    4.94
   4   1 -11   62.03    4.65
   4  -1 -11   72.20    4.81
   4  -1 -11   74.68    5.81
   4  -1 -10  436.84   11.52
   4   1 -10  418.62   11.98
   4  -1 -10  407.76   13.26
   4   1 -10  412.57   11.86
   4   1 -10  425.80    6.78
   4  -1  -9    6.49    1.41
   4   1  -9    4.54    1.52
   4   1  -9    4.71    1.23
   4  -1  -9    6.07    1.60
   4   1  -9    7.47    0.95
   4  -1  -8  122.63    5.93
   4  -1  -8  130.40    7.13
   4   1  -8  125.87    4.02
   4   1  -8  133.84    6.51
   4   1  -8  142.90    6.36
   4   1  -7   22.72    2.41
   4   1  -7   23.22    1.77
   4  -1  -7   24.66    2.68
   4   1  -7   24.27    2.69
   4  -1  -7   26.08    3.11
   4  -1  -6  101.16    5.26
   4   1  -6   78.91    4.79
   4   1  -6   93.23    3.66
   4   1  -6   89.30    4.64
   4  -1  -6   76.20    5.13
   4  -1  -5   63.65    4.04
   4   1  -5   61.98    3.74
   4  -1  -5   54.37    4.20
   4   1  -5   61.87    3.06
   4   1  -5   58.66    4.07
   4  -1  -4  253.83    8.89
   4  -1  -4  249.16    8.06
   4   1  -4  270.53    8.52
   4   1  -4  268.96    6.64
   4  -1  -3   28.99    2.72
   4  -1  -3   32.29    3.12
   4   1  -3   31.08    2.34
   4   1  -3   27.32    2.37
   4   1  -3   34.84    2.98
   4   1  -2   51.73    3.66
   4   1  -2   51.05    3.15
   4  -1  -2   52.06    3.63
   4  -1  -2   59.57    4.10
   4   1  -2   54.67    3.21
   4   1  -1   18.51    2.14
   4   1  -1   14.18    1.64
   4  -1  -1   13.78    1.85
   4  -1  -1   17.17    2.23
   4  -1   0  153.20    6.34
   4  -1   0  139.76    5.97
   4   1   1   12.53    1.71
   4  -1   1   14.41    1.93
   4   1   1   15.16    1.89
   4   1   2   55.00    3.71
   4  -1   2   55.48    3.86
   4   1   2   52.70    3.48
   4   1   3   30.28    2.61
   4  -1   3   32.17    3.00
   4   1   3   28.55    2.76
   4   1   4  249.65    7.46
   4   1   4  274.22    8.63
   4  -1   4  258.20    8.34
   4  -1   5   59.59    4.08
   4   1   5   60.19    3.62
   4   1   5   61.88    4.26
   4   1   6   88.05    4.31
   4   1   6   94.14    5.42
   4  -1   6   89.04    5.04
   4   1   7   27.13    2.33
   4   1   7   24.03    2.87
   4  -1   7   27.88    2.89
   4  -1   8  121.34    6.10
   4   1   8  126.42    5.21
   4   1   8  133.08    6.84
   4   1   9    8.45    1.27
   4   1   9    6.68    1.68
   4  -1   9    8.61    1.68
   4  -1  10  411.47   11.79
   4   1  10  441.11    9.53
   4   1  10  438.77   12.97
   4   1  11   69.61    5.30
   4   1  11   65.75    3.65
   4  -1  11   69.09    4.89
   4   1  12   42.14    2.93
   4   1  12   34.43    3.81
   4  -1  12   37.05    3.82
   4   1  13   24.13    3.33
   4   1  13   33.94    2.63
  -4  -1  13   24.61    1.47
   4  -1  13   35.20    3.74
   4   1  14   32.36    2.54
   4   1  14   36.58    4.37
   4  -1  14   28.55    3.43
   4   1  15    1.63    1.11
   4   1  15    3.82    0.94
   4  -1  15    5.03    1.69
   4   1  16  168.67    9.35
   4  -1  16  159.10    8.59
   4  -1  17   13.98    2.61
   4   1  17   11.01    2.44
   4   1  18   33.02    4.41
   4  -1  18   33.02    4.14
  -4   1  18   28.48    3.61
   4   1  19   27.59    3.88
   4  -1  19   25.61    3.69
   4   1  20   -0.67    0.82
   4  -1  20    1.87    1.34
   4   1  21    1.93    2.01
   4   1  22    8.60    2.57
   4   1  23    4.03    1.35
   4  -2 -30    2.31    1.86
   4  -2 -29    3.68    2.13
   4  -2 -28    3.50    1.90
   4  -2 -27   33.23    5.54
   4  -2 -26   26.76    4.95
   4  -2 -25   42.52    6.03
   4  -2 -24    2.85    2.01
   4   2 -23    1.95    2.21
   4  -2 -23    1.84    0.85
   4   2 -22   30.42    4.56
   4  -2 -22   22.00    4.16
   4  -2 -21   33.24    4.82
   4   2 -21   41.30    5.28
   4   2 -20    1.97    1.29
   4  -2 -20    1.80    0.97
   4   2 -19   63.10    6.28
   4  -2 -19   83.34    7.68
  -4  -2 -19   81.32    7.44
  -4  -2 -18    6.69    2.02
   4  -2 -18    5.76    1.46
   4   2 -18    5.33    1.87
   4  -2 -17    5.45    1.53
   4  -2 -17    8.73    2.54
   4   2 -17    7.84    2.02
  -4  -2 -17    5.27    1.98
   4   2 -16  141.63    8.02
   4  -2 -16  136.67    8.13
   4   2 -16  139.62    8.23
   4  -2 -16  134.67    9.06
  -4  -2 -16  141.01    9.33
   4  -2 -15   77.99    6.78
  -4  -2 -15   99.21    7.58
   4   2 -15   85.16    5.90
   4  -2 -15   91.98    6.61
   4   2 -15   86.20    6.19
  -4  -2 -14   28.40    3.90
   4   2 -14   33.76    3.78
   4  -2 -14   26.27    3.97
   4  -2 -14   35.47    3.91
   4   2 -14   35.50    3.86
   4   2 -13   79.81    5.40
  -4  -2 -13   59.98    5.59
   4  -2 -13   80.70    6.64
   4  -2 -13   83.24    5.98
   4   2 -13   77.18    5.53
   4  -2 -12  127.26    8.05
  -4  -2 -12  148.76    8.66
   4   2 -12  139.08    7.01
   4  -2 -12  154.39    8.08
   4   2 -12  156.07    7.90
   4   2 -11   38.56    3.82
  -4   2 -11   33.38    1.84
   4   2 -11   36.97    3.31
   4  -2 -11   35.48    4.24
   4  -2 -11   32.72    3.76
  -4  -2 -11   33.15    4.03
   4   2 -10  166.09    6.88
   4  -2 -10  169.02    8.33
   4  -2 -10  172.73    9.05
  -4   2 -10  165.13    4.74
  -4  -2 -10  159.40    8.42
   4   2 -10  181.95    8.03
   4   2  -9   57.84    3.83
   4  -2  -9   54.66    4.97
   4   2  -9   55.39    4.34
   4  -2  -9   48.85    4.22
   4   2  -8   13.79    1.77
   4  -2  -8   10.72    1.94
   4  -2  -8   11.31    2.30
   4   2  -8   11.77    1.14
   4   2  -8   11.10    2.03
   4   2  -7    4.42    1.50
   4  -2  -7    4.06    1.12
   4   2  -7    4.46    1.01
   4  -2  -7    1.95    0.80
   4   2  -7    5.54    0.84
   4   2  -6    3.30    1.04
   4  -2  -6    2.68    0.79
   4   2  -6    2.61    0.68
   4  -2  -6    2.63    1.09
   4   2  -6    2.72    0.76
   4   2  -5   19.88    2.67
   4   2  -5   17.04    1.72
   4   2  -5   22.46    2.04
   4  -2  -5   21.99    2.89
   4  -2  -5   15.59    2.40
   4  -2  -4  557.25   13.67
   4   2  -4  556.36    9.48
   4   2  -4  556.98   10.23
   4   2  -4  535.12   12.86
   4  -2  -4  559.43   13.94
   4   2  -3  167.69    7.25
   4   2  -3  172.30    5.20
   4  -2  -3  155.42    7.14
   4   2  -3  164.33    5.97
   4  -2  -3  169.32    7.52
   4  -2  -2   71.76    4.79
   4  -2  -2   78.29    5.02
   4   2  -2   79.85    4.97
   4   2  -2   77.72    4.17
   4   2  -1   55.99    4.18
   4  -2  -1   53.77    4.08
   4   2  -1   56.53    3.74
   4  -2  -1   57.53    4.32
   4   2   0   59.70    4.18
   4  -2   0   63.24    4.39
   4   2   0   60.03    3.85
   4  -2   0   60.80    4.24
   4  -2   1   59.49    4.26
   4   2   1   58.59    3.90
   4   2   1   53.98    3.97
   4  -2   2   74.80    4.76
   4  -2   2   79.70    4.96
   4   2   2   74.68    4.69
   4   2   2   81.02    4.86
   4   2   3  158.36    6.78
   4  -2   3  165.07    7.16
   4   2   3  157.57    6.94
   4   2   4  558.04   12.77
   4  -2   4  571.23   13.43
   4   2   4  537.83   13.24
   4   2   5   18.66    2.39
   4  -2   5   15.07    2.24
   4   2   5   19.33    2.62
   4   2   6    3.29    1.26
   4  -2   6    4.62    1.31
   4   2   6    3.10    1.01
   4   2   7    3.49    0.98
   4  -2   7    2.72    0.90
   4   2   7    4.28    1.34
   4   2   8   11.69    2.16
   4   2   8   13.08    1.92
   4  -2   8    8.96    1.77
   4   2   9   59.11    4.18
   4   2   9   55.85    4.83
   4  -2   9   51.55    4.22
   4   2  10  179.20    8.79
   4  -2  10  176.93    8.11
   4   2  11   38.61    3.52
   4   2  11   35.53    4.08
   4  -2  11   31.64    3.32
   4   2  12  140.16    6.73
   4  -2  12  149.58    7.70
   4   2  12  139.22    8.22
   4   2  13   70.49    4.75
   4   2  13   74.06    6.12
   4  -2  13   67.24    5.19
   4   2  14   28.78    3.86
   4   2  14   35.18    3.49
   4  -2  14   38.48    4.03
   4   2  15   83.99    5.29
   4   2  15   81.83    6.67
   4  -2  15   86.84    6.24
   4   2  16  136.52    6.79
   4   2  16  139.90    8.86
   4  -2  16  129.02    7.82
   4   2  17    3.11    1.41
   4  -2  17    7.58    2.06
   4  -2  18    7.61    2.30
   4   2  18    7.48    2.20
   4   2  19   89.78    7.67
   4  -2  19   85.19    7.00
   4   2  20    3.16    1.34
  -4   2  20    2.00    1.18
   4   2  21   43.97    5.59
   4   2  22   24.82    4.57
   4   2  23    1.36    1.28
   4   2  24    0.80    1.24
   4  -3 -29    4.15    1.76
   4  -3 -28    2.65    1.84
   4  -3 -27    3.76    2.35
   4  -3 -26    4.49    2.11
   4  -3 -25   -1.24    1.08
   4  -3 -24    1.12    1.79
  -4  -3 -23    1.79    1.72
   4  -3 -23    0.60    1.04
  -4  -3 -22    1.53    1.45
   4  -3 -22    3.42    2.38
   4  -3 -21    0.07    1.39
  -4  -3 -21    0.53    1.46
  -4  -3 -20   -0.16    0.87
   4  -3 -20   -0.14    1.46
   4  -3 -19    4.24    2.08
  -4  -3 -19    1.07    0.87
   4  -3 -18    5.27    1.92
  -4  -3 -18    8.10    2.63
   4  -3 -18    9.43    2.50
  -4  -3 -17   22.09    4.16
   4   3 -17   11.85    2.61
   4  -3 -17   17.27    3.60
   4  -3 -17   18.53    3.56
  -4  -3 -16    9.23    2.64
   4   3 -16    7.35    1.98
   4  -3 -16    7.67    2.15
   4  -3 -16    9.30    2.33
   4   3 -16   11.81    2.32
  -4  -3 -15   24.87    4.22
   4   3 -15   33.19    3.68
   4  -3 -15   36.86    4.60
   4  -3 -15   38.39    5.12
   4   3 -15   26.60    3.54
  -4  -3 -14    0.62    1.66
   4   3 -14   -0.55    0.55
   4  -3 -14    2.75    1.59
   4   3 -14    1.93    1.18
   4  -3 -14    1.11    1.25
  -4  -3 -13   19.11    3.04
   4   3 -13   19.96    2.60
   4  -3 -13   16.46    3.01
   4   3 -13   21.49    3.01
   4  -3 -13   13.47    3.04
   4   3 -12   25.84    3.36
  -4   3 -12   20.56    2.26
  -4  -3 -12   28.52    3.88
   4   3 -12   27.61    2.93
   4  -3 -12   21.23    3.64
   4  -3 -12   22.52    3.33
   4  -3 -11    6.68    2.12
   4   3 -11    5.80    1.82
   4  -3 -11    4.89    1.84
  -4  -3 -11    5.72    1.67
  -4   3 -11    5.35    1.05
   4   3 -11    6.92    1.16
  -4   3 -10   12.95    1.83
  -4  -3 -10   11.84    2.29
   4   3 -10   10.93    1.66
   4  -3 -10   14.56    2.88
   4   3 -10   10.05    2.19
   4  -3 -10    9.33    2.12
   4   3  -9   29.22    3.44
   4  -3  -9   26.35    3.65
   4   3  -9   33.33    2.56
  -4  -3  -9   29.63    3.76
  -4   3  -9   26.62    2.73
   4  -3  -9   28.36    3.74
   4   3  -9   25.57    1.84
  -4   3  -8    4.13    0.89
   4   3  -8    2.39    0.82
  -4  -3  -8    2.78    1.40
   4   3  -8    2.77    0.74
   4  -3  -8    1.95    1.14
   4   3  -8    2.88    0.66
   4  -3  -8    3.02    1.35
   4   3  -7   26.89    3.32
   4   3  -7   30.17    2.40
   4   3  -7   32.83    2.10
  -4   3  -7   31.83    3.01
   4  -3  -7   29.99    3.65
   4  -3  -7   32.55    3.75
  -4  -3  -7   30.80    3.32
   4  -3  -6  250.79   10.34
   4   3  -6  253.98   10.06
   4   3  -6  261.54    5.42
   4  -3  -6  247.33   10.29
   4   3  -6  250.56    7.22
   4   3  -5   30.54    3.47
   4   3  -5   31.69    2.69
   4  -3  -5   40.25    4.17
   4  -3  -5   29.57    3.58
   4   3  -5   34.25    1.84
   4   3  -4    8.37    0.97
   4  -3  -4   11.30    2.27
   4   3  -4   12.05    2.10
   4  -3  -4   10.60    2.16
   4   3  -4    6.89    1.32
   4   3  -3   46.67    4.19
   4  -3  -3   47.54    4.22
   4  -3  -3   52.56    4.62
   4   3  -3   47.37    2.32
   4   3  -3   47.82    3.60
   4   3  -2   39.76    3.92
   4  -3  -2   40.20    3.80
   4  -3  -2   39.95    4.02
   4   3  -2   37.40    3.21
   4   3  -1   74.85    4.72
   4   3  -1   79.36    5.53
   4  -3  -1   84.48    5.51
   4  -3  -1   88.29    5.82
   4   3   0  257.54    9.09
   4  -3   0  250.60    9.37
   4   3   0  241.23    9.51
   4  -3   0  268.21   10.05
   4   3   1   73.13    4.91
   4  -3   1   71.83    4.99
   4   3   1   74.54    5.34
   4  -3   1   79.89    5.38
   4  -3   2   33.29    3.48
   4   3   2   37.17    3.57
   4   3   2   38.25    3.83
   4  -3   2   42.81    3.83
   4  -3   3   49.32    4.17
   4   3   3   39.73    3.86
   4  -3   3   40.65    3.73
   4   3   4    9.62    1.96
   4   3   4    8.14    1.80
   4  -3   4   12.77    2.21
   4  -3   4    9.85    1.91
   4   3   5   36.40    3.70
   4  -3   5   33.13    3.56
   4   3   5   32.68    3.51
   4  -3   6  259.71    9.86
   4   3   6  253.47   10.40
   4   3   6  264.16   10.12
   4   3   7   25.28    3.19
   4   3   7   33.78    3.87
   4  -3   7   29.38    3.27
   4   3   8    2.23    0.73
   4   3   8    2.47    1.19
   4  -3   8    2.21    1.12
   4   3   9   30.76    3.49
   4  -3   9   31.79    3.55
   4   3   9   27.91    3.64
   4   3  10    9.01    1.97
   4   3  10   12.10    2.09
   4  -3  10   11.66    2.21
   4   3  11    7.98    2.22
   4   3  11    7.31    1.69
   4  -3  11    5.14    1.44
   4   3  12   23.96    3.21
   4  -3  12   27.03    3.49
   4   3  12   24.07    3.72
   4   3  13   13.35    2.66
   4  -3  13   15.20    2.51
   4   3  13   15.43    2.54
   4   3  14    1.29    0.63
   4   3  14   -0.04    1.12
   4  -3  14   -0.61    1.32
   4   3  15   32.33    3.77
   4  -3  15   31.34    3.74
   4   3  15   36.15    4.83
   4   3  16    6.35    1.52
   4   3  16    4.99    1.69
   4  -3  16    4.31    1.50
   4  -3  17   18.10    2.96
   4   3  17   19.55    3.52
   4   3  17   16.21    2.75
   4   3  18    7.28    2.35
   4   3  19    3.06    1.34
   4   3  20   -0.03    1.03
  -4   3  21    2.63    1.70
   4   3  21   -0.14    1.64
   4   3  22   -0.01    1.88
   4   3  23    1.14    1.23
   4   3  24    1.77    1.63
   4   3  25    1.27    1.77
   4  -4 -28   -1.34    1.83
   4  -4 -27   13.84    3.81
   4  -4 -26   17.28    3.83
  -4  -4 -25    8.34    2.86
   4  -4 -25   13.35    3.48
   4  -4 -24    2.48    1.88
  -4  -4 -24    1.56    1.25
   4  -4 -23    8.19    2.94
  -4  -4 -23   11.28    3.73
  -4  -4 -22   12.26    3.78
   4  -4 -22   11.92    3.55
   4  -4 -21   56.75    6.98
  -4  -4 -21   40.66    5.89
  -4  -4 -20   39.40    5.71
   4  -4 -20   22.74    4.54
  -4  -4 -19    4.59    2.20
   4  -4 -19    8.91    2.69
   4  -4 -18    4.87    1.89
  -4  -4 -18    2.32    1.41
   4  -4 -17   -0.81    1.34
   4  -4 -17    1.71    1.48
  -4  -4 -17    3.07    2.45
   4  -4 -16   74.80    7.10
  -4  -4 -16   61.18    6.45
   4  -4 -16   64.20    6.40
   4   4 -16   60.75    5.96
  -4  -4 -15  372.67   15.61
   4  -4 -15  360.99   15.66
   4  -4 -15  355.69   15.07
   4   4 -15  379.29   14.10
   4  -4 -14   53.16    6.38
   4  -4 -14   67.43    6.44
  -4  -4 -14   63.03    6.28
   4   4 -14   55.60    5.53
  -4  -4 -13   31.93    4.31
   4  -4 -13   27.15    4.07
   4  -4 -13   30.68    4.47
   4   4 -13   28.95    3.85
  -4  -4 -12  112.12    7.99
   4  -4 -12  109.58    8.07
   4   4 -12  100.60    7.09
   4  -4 -12   99.29    7.62
   4   4 -11  114.00    7.37
  -4   4 -11  104.32    6.06
  -4  -4 -11  116.13    7.99
   4  -4 -11  104.28    7.85
   4  -4 -11  121.94    8.34
   4  -4 -10   91.17    7.20
  -4   4 -10   97.75    5.88
  -4  -4 -10  112.80    7.50
   4   4 -10  106.93    7.22
   4  -4 -10  108.06    7.86
  -4  -4  -9   74.52    5.93
  -4   4  -9   68.06    5.04
   4  -4  -9   75.60    6.33
   4   4  -9   64.87    3.70
   4  -4  -9   63.43    5.89
   4   4  -9   61.32    5.59
   4   4  -8   12.49    2.51
  -4  -4  -8   10.47    2.19
   4   4  -8    7.15    1.41
   4  -4  -8   13.61    2.49
  -4   4  -8   11.28    2.23
   4  -4  -8    8.08    1.91
   4  -4  -7  128.30    8.14
  -4  -4  -7  125.46    7.31
  -4   4  -7  112.70    6.58
   4  -4  -7  111.25    7.45
   4   4  -7  122.51    7.51
   4   4  -7  124.24    5.78
   4  -4  -6    9.16    2.12
  -4   4  -6   13.64    2.52
  -4  -4  -6   11.63    2.13
   4   4  -6   10.24    1.68
   4   4  -6   10.66    2.08
   4  -4  -6   12.53    2.55
  -4   4  -5   57.71    4.67
   4   4  -5   63.19    5.36
   4   4  -5   72.03    4.65
  -4  -4  -5   66.12    4.87
   4  -4  -5   61.24    5.41
   4  -4  -5   68.73    5.64
   4   4  -4  217.96    9.98
   4   4  -4  216.31    8.38
   4  -4  -4  226.43   10.18
   4  -4  -4  221.49   10.30
  -4   4  -4  222.42    9.46
   4   4  -3   78.11    5.95
   4   4  -3   93.01    5.60
   4  -4  -3   79.24    5.87
   4  -4  -3   82.82    6.28
   4  -4  -2    5.91    1.77
   4  -4  -2    8.44    2.08
   4   4  -2    4.60    1.17
   4   4  -2    6.60    1.54
   4   4  -1    5.18    1.49
   4  -4  -1    3.60    1.52
   4  -4  -1    3.88    1.65
   4   4  -1    7.35    2.14
   4  -4   0   10.23    2.10
   4  -4   0   11.75    2.33
   4   4   0    8.12    2.17
   4   4   0    9.21    1.89
   4   4   1    2.71    1.43
   4  -4   1    3.67    1.60
   4   4   1    5.33    1.65
   4  -4   1    4.13    1.39
   4   4   2    6.66    1.51
   4  -4   2    8.43    1.96
   4   4   2    5.65    1.66
   4  -4   2    8.37    1.89
   4   4   3   86.42    6.12
   4   4   3   86.44    6.26
   4  -4   3   83.23    5.72
   4  -4   3   91.02    6.49
   4   4   4  220.89   10.10
   4   4   4  231.64   10.12
   4  -4   4  226.19    9.30
   4  -4   4  219.89    9.89
   4  -4   5   61.38    4.91
   4   4   5   63.01    5.40
   4  -4   5   67.48    5.57
   4   4   5   61.74    5.33
   4   4   6   15.36    2.76
   4  -4   6   16.17    2.77
   4   4   6    7.70    1.88
   4  -4   6   15.18    2.53
   4   4   7  108.82    7.17
   4  -4   7  129.10    7.49
   4   4   7  111.21    7.40
   4   4   8   16.96    3.00
   4   4   8   15.11    3.11
   4  -4   8    7.99    2.05
   4   4   9   75.67    6.28
   4   4   9   68.50    5.79
   4  -4   9   59.84    5.23
   4   4  10   93.22    7.21
   4  -4  10  105.10    6.88
   4  -4  11  112.40    7.31
   4   4  11  112.82    7.62
   4   4  11  106.76    7.92
   4  -4  12   86.45    6.50
   4   4  12  106.51    7.48
   4   4  12   99.74    7.71
   4   4  13   31.52    4.39
   4  -4  13   27.41    3.60
   4   4  13   25.93    3.85
   4   4  14   57.08    5.54
   4  -4  14   55.27    5.26
   4   4  14   66.05    6.54
   4  -4  15  364.82   13.75
   4   4  15  371.96   14.36
   4   4  15  351.27   15.23
   4  -4  16   61.36    5.60
   4   4  16   76.34    6.55
   4   4  16   58.01    6.30
   4   4  17    2.82    1.22
   4   4  17    7.00    2.28
   4   4  18    4.08    1.64
   4   4  18    4.74    2.28
   4   4  19    3.49    1.96
   4   4  20   23.52    4.19
  -4   4  21   41.90    5.94
   4   4  21   47.52    6.13
  -4   4  22    9.03    2.82
  -4   4  22    6.75    3.06
   4   4  22    7.15    2.07
   4   4  23   11.03    2.48
   4   4  24    3.72    1.50
   4   4  25    8.80    2.86
   4   4  26   15.92    4.06
   4  -5 -27    6.01    2.30
   4  -5 -26    4.48    2.85
   4  -5 -25    2.20    2.22
  -4  -5 -25    1.81    1.17
  -4  -5 -24    9.39    3.29
   4  -5 -24   13.53    3.47
  -4  -5 -23   -1.14    1.23
   4  -5 -23    3.89    2.07
  -4  -5 -22    6.14    2.02
   4  -5 -22    2.59    1.32
  -4  -5 -21    0.60    1.85
   4  -5 -21    1.13    1.96
  -4  -5 -20    4.81    2.33
   4  -5 -20    3.51    1.52
   4  -5 -19    1.14    1.13
  -4  -5 -19    5.13    2.59
  -4  -5 -18   16.72    3.79
   4  -5 -18   10.79    3.13
   4  -5 -18   15.29    3.89
  -4  -5 -17   48.54    6.04
   4  -5 -17   39.27    5.47
   4  -5 -17   51.28    6.22
   4  -5 -16   42.95    5.45
  -4  -5 -16   54.07    6.54
   4  -5 -16   50.74    5.78
   4   5 -15   80.57    7.06
   4  -5 -15   67.91    7.04
   4  -5 -15   62.77    6.69
  -4  -5 -15   74.26    7.07
  -4  -5 -14   10.92    2.90
   4   5 -14    7.33    1.83
   4  -5 -14    4.98    1.94
   4  -5 -14    8.32    2.92
   4  -5 -13   63.12    6.48
  -4  -5 -13   50.62    5.78
   4  -5 -13   62.28    6.50
   4   5 -13   65.81    6.27
   4   5 -12   68.49    6.21
  -4  -5 -12   64.85    6.36
   4  -5 -12   59.10    6.13
   4  -5 -12   58.51    6.01
   4   5 -11    1.35    1.30
   4  -5 -11    3.38    1.46
  -4  -5 -11    0.89    1.04
  -4   5 -11    2.29    1.53
   4  -5 -11    2.05    0.89
   4   5 -10   31.23    4.26
  -4   5 -10   29.63    3.79
  -4  -5 -10   36.18    4.39
   4  -5 -10   35.07    4.56
   4  -5 -10   28.36    4.38
   4   5  -9   20.42    3.36
  -4   5  -9   24.19    3.46
  -4  -5  -9   24.87    3.62
   4  -5  -9   20.98    3.33
   4  -5  -9   21.39    3.83
   4   5  -9   18.65    2.54
   4   5  -8    9.80    1.96
  -4   5  -8   12.35    2.58
   4   5  -8   12.05    2.62
  -4  -5  -8   11.39    2.61
   4  -5  -8    9.30    2.51
   4  -5  -8   10.42    2.00
   4  -5  -7   18.68    3.37
   4   5  -7   15.98    2.46
  -4  -5  -7   17.46    3.01
  -4   5  -7   21.49    3.31
   4  -5  -7   14.26    3.02
   4   5  -7   14.07    2.80
   4   5  -6    5.92    1.55
   4   5  -6    6.92    2.09
  -4   5  -6    6.75    1.81
  -4  -5  -6    5.33    2.00
   4  -5  -6    8.54    2.23
   4  -5  -6    6.12    2.08
  -4  -5  -5   11.91    2.34
  -4   5  -5   10.85    2.34
   4  -5  -5   11.68    2.73
   4  -5  -5   10.42    2.34
   4   5  -5    8.81    1.95
   4   5  -5   12.68    2.80
   4  -5  -4   51.35    5.12
   4   5  -4   49.68    5.17
  -4  -5  -4   51.81    4.21
   4   5  -4   48.93    4.58
  -4   5  -4   49.62    5.06
   4  -5  -4   55.44    5.61
   4   5  -3   14.95    2.90
   4   5  -3   15.58    2.50
   4  -5  -3   11.50    2.33
  -4   5  -3   12.16    2.33
   4  -5  -3   12.79    2.73
   4  -5  -2    1.87    1.39
   4   5  -2   -1.30    1.26
   4   5  -2    0.77    0.77
   4  -5  -2   -0.12    0.79
  -4   5  -2    1.77    1.55
   4   5  -1   37.55    4.53
   4  -5  -1   41.17    4.36
  -4   5  -1   43.19    4.74
   4  -5  -1   32.99    4.11
   4   5  -1   43.87    4.50
   4   5   0   17.16    2.78
   4   5   0   17.63    3.12
  -4   5   0   14.01    2.60
   4  -5   0   22.32    3.47
   4  -5   0   16.99    2.78
   4   5   1   39.66    4.38
   4   5   1   43.72    4.96
  -4   5   1   49.07    5.17
   4  -5   1   38.01    4.04
   4  -5   1   34.16    4.45
   4  -5   2    1.16    0.74
   4   5   2    1.15    0.79
   4   5   2    0.95    0.99
   4  -5   2    0.88    0.78
   4  -5   3   11.21    2.58
   4  -5   3    7.00    1.92
   4   5   3    8.92    2.51
   4   5   4   63.11    5.83
   4   5   4   54.53    5.28
   4  -5   4   54.87    5.00
   4  -5   4   44.15    4.75
   4   5   5   11.56    2.63
   4   5   5   14.73    2.82
   4  -5   5   11.77    2.55
   4  -5   5    8.40    2.09
   4  -5   6    3.66    1.50
   4  -5   6    2.75    1.19
   4   5   6    4.89    1.76
   4   5   6    5.06    1.89
   4  -5   7   12.59    2.50
   4   5   7   12.51    2.59
   4   5   7   19.25    3.45
   4  -5   7   15.86    3.04
   4   5   8   12.13    2.67
   4   5   8    9.97    2.08
   4  -5   8    9.83    2.08
   4  -5   8   13.64    2.46
   4   5   9   22.13    3.54
   4   5   9   18.49    3.10
   4  -5   9   20.49    3.10
   4  -5   9   19.91    3.32
   4   5  10   32.61    4.39
   4   5  10   36.27    4.85
   4  -5  10   36.22    4.34
   4  -5  11    1.16    0.88
   4   5  11    6.79    2.32
   4   5  11    5.97    1.99
   4   5  12   59.47    5.94
   4   5  12   55.44    6.05
   4  -5  12   62.13    5.73
   4   5  13   41.96    5.33
   4   5  13   56.82    5.87
   4  -5  13   52.56    5.33
   4   5  14    5.50    2.48
   4   5  14    3.55    1.96
   4  -5  14    4.39    1.97
   4   5  15   75.15    7.32
   4   5  15   79.41    7.28
   4  -5  15   74.65    6.70
   4   5  16   49.78    5.93
  -4   5  16   38.28    5.19
   4   5  17   48.30    5.94
  -4   5  17   43.04    5.76
   4   5  17   45.34    5.79
   4   5  18   12.40    3.45
  -4   5  18   11.03    3.08
   4   5  18    5.67    2.15
   4   5  19    2.60    1.86
  -4   5  19   -0.43    1.79
  -4   5  20   12.02    3.63
   4   5  20    2.53    2.18
   4   5  21    0.54    1.41
  -4   5  21    0.99    2.06
  -4   5  22    2.90    1.64
  -4   5  22    0.18    1.81
   4   5  22    5.75    3.07
   4   5  23    1.69    2.40
  -4   5  23    2.67    1.68
   4   5  24    7.11    2.66
   4   5  25   -0.07    1.73
   4   5  26    0.17    1.80
   4   5  27    1.70    1.23
  -4  -6 -26    6.78    3.06
   4  -6 -26   10.15    3.28
   4  -6 -25    8.04    3.23
  -4  -6 -25    4.20    1.28
   4  -6 -24   10.59    2.80
  -4  -6 -24    4.08    2.80
  -4  -6 -23    7.20    2.76
   4  -6 -23   17.06    4.04
  -4  -6 -22    8.06    2.74
   4  -6 -22   11.08    3.19
  -4  -6 -21   30.68    5.36
   4  -6 -21   34.68    5.73
   4  -6 -20   89.84    8.60
  -4  -6 -20   68.01    7.54
   4  -6 -19    4.04    3.35
  -4  -6 -19    3.43    2.17
  -4  -6 -18    3.42    0.90
   4  -6 -18    4.88    2.96
   4  -6 -18    5.13    2.09
  -4  -6 -17   27.76    4.82
   4  -6 -17   38.33    5.41
   4  -6 -17   40.46    5.71
  -4  -6 -16    8.16    2.71
   4  -6 -16   12.64    3.25
   4  -6 -16    9.07    2.73
   4  -6 -15  224.60   13.22
   4  -6 -15  224.62   13.09
  -4  -6 -15  253.26   13.61
   4   6 -15  222.46   12.62
   4  -6 -14   54.52    6.66
  -4  -6 -14   50.68    6.21
   4   6 -14   55.99    6.34
   4  -6 -14   55.90    6.32
   4   6 -13   14.66    3.41
  -4  -6 -13   11.21    3.20
   4  -6 -13    9.15    2.70
   4  -6 -13    7.40    2.02
   4   6 -12   12.86    3.15
   4  -6 -12   21.37    4.17
  -4  -6 -12   15.45    3.22
   4  -6 -12   18.49    3.69
   4  -6 -11  231.58   12.95
   4   6 -11  232.14   12.26
  -4   6 -11  203.02   10.94
  -4  -6 -11  235.32   12.20
   4  -6 -11  226.42   12.45
   4   6 -10   48.88    5.64
  -4   6 -10   48.87    5.40
  -4  -6 -10   45.25    5.15
   4  -6 -10   46.85    5.97
   4  -6 -10   51.96    5.80
   4   6  -9   96.09    7.74
  -4   6  -9  106.30    7.89
   4  -6  -9  106.69    8.19
   4  -6  -9   88.03    7.79
  -4  -6  -9  100.13    7.37
   4   6  -8   26.09    4.05
   4   6  -8   28.08    3.79
  -4  -6  -8   26.17    3.70
  -4   6  -8   24.32    3.80
   4  -6  -8   31.02    4.44
   4  -6  -8   26.38    4.46
   4   6  -7    7.91    2.01
   4   6  -7    6.96    2.56
   4  -6  -7    8.16    2.30
  -4  -6  -7    8.73    2.29
  -4   6  -7    8.68    2.55
   4  -6  -7    9.16    2.17
  -4   6  -6   92.45    7.52
   4  -6  -6   73.65    6.66
  -4  -6  -6   87.28    6.52
   4   6  -6   97.44    6.85
   4   6  -6  105.86    8.21
   4  -6  -6  100.10    8.17
   4   6  -5  150.53    8.59
  -4  -6  -5  151.97    8.26
  -4   6  -5  142.08    9.11
   4  -6  -5  145.01    9.11
   4  -6  -5  161.66   10.28
   4   6  -5  160.77   10.07
   4   6  -4    2.77    1.77
  -4  -6  -4    1.68    0.50
   4  -6  -4    2.11    1.21
   4   6  -4    2.00    0.89
   4  -6  -4    2.31    2.53
  -4   6  -4    4.78    1.85
   4   6  -3   70.79    6.03
  -4   6  -3   74.20    6.79
   4   6  -3   64.36    6.32
   4  -6  -3   75.34    6.51
   4  -6  -3   72.04    6.92
   4   6  -2    8.94    2.50
   4   6  -2   11.60    2.31
  -4   6  -2   12.67    3.06
   4  -6  -2   13.78    2.62
   4  -6  -2    7.89    2.57
   4  -6  -1   99.66    7.77
  -4   6  -1   94.02    7.57
   4   6  -1   81.50    6.78
   4  -6  -1   82.41    6.57
   4   6  -1   82.80    7.01
   4   6   0  121.07    8.50
  -4   6   0  111.57    8.32
   4  -6   0  109.44    7.46
   4   6   0  115.21    8.11
   4  -6   0  115.78    8.34
   4   6   1   90.10    7.60
  -4   6   1   88.62    7.41
   4   6   1   83.83    6.87
   4  -6   1   86.55    7.36
   4  -6   1   80.55    6.29
   4  -6   2   13.63    2.98
  -4   6   2   15.66    3.24
   4   6   2   13.46    2.91
   4   6   2    6.09    1.58
   4  -6   2   11.77    2.49
   4   6   3   70.20    6.49
   4   6   3   71.84    6.85
   4  -6   3   71.49    6.07
  -4   6   3   67.66    6.54
   4  -6   3   83.88    7.05
   4  -6   4    3.30    1.66
   4   6   4    2.62    1.51
  -4   6   4    2.42    1.38
   4   6   4    2.11    1.35
   4  -6   4    3.39    1.05
   4  -6   5  137.27    8.29
   4   6   5  129.19    9.21
  -4   6   5  153.75   10.00
   4   6   5  149.15    9.53
   4  -6   5  135.63    8.84
   4   6   6  106.44    8.27
   4   6   6  103.19    8.01
   4  -6   6  100.11    7.09
  -4   6   6   96.97    8.01
   4  -6   6  105.89    7.88
   4  -6   7    7.42    2.27
  -4   6   7    9.32    2.60
   4   6   7    8.19    2.39
   4   6   7    9.52    2.84
   4  -6   7    7.54    2.10
   4   6   8   22.81    3.77
   4   6   8   25.53    4.10
  -4   6   8   27.11    4.36
   4  -6   8   21.64    3.35
   4  -6   8   24.43    3.81
   4  -6   9   84.86    6.76
   4   6   9  104.77    8.38
   4  -6   9   89.25    7.33
  -4   6   9   94.07    8.04
   4   6  10   54.79    6.04
   4   6  10   44.09    5.43
  -4   6  10   52.50    6.09
   4  -6  10   45.74    5.07
   4  -6  10   56.95    5.86
   4   6  11  217.96   12.45
   4   6  11  234.05   12.91
  -4   6  11  233.41   13.02
   4  -6  11  219.91   11.01
   4  -6  11  231.10   11.93
   4  -6  12   17.30    3.27
   4   6  12   31.06    4.73
   4  -6  12   17.91    3.38
   4   6  12   24.52    4.33
  -4   6  12   25.39    4.64
   4  -6  13   12.06    2.64
   4   6  13   13.57    2.96
   4   6  13   10.28    2.91
  -4   6  13   12.65    3.35
   4   6  14   55.04    6.20
   4   6  14   59.37    6.79
  -4   6  14   42.15    6.07
   4  -6  14   59.95    6.32
   4   6  15  255.83   13.76
   4   6  15  220.35   13.12
  -4   6  15  238.60   13.75
   4   6  16   10.70    3.02
  -4   6  16   14.41    3.23
   4   6  16    7.51    2.04
   4   6  17   29.72    5.20
  -4   6  17   32.37    5.32
   4   6  17   32.22    5.30
   4   6  18    3.70    1.68
  -4   6  18    3.19    1.64
   4   6  19    5.74    2.50
   4   6  19    2.34    1.88
  -4   6  19    1.69    1.27
   4   6  20   76.82    8.21
  -4   6  20   64.39    7.90
   4   6  21   40.04    6.15
  -4   6  21   36.58    6.00
   4   6  22    7.36    2.56
  -4   6  22    6.44    2.88
  -4   6  22    9.00    2.83
  -4   6  23   23.18    5.45
  -4   6  23   15.25    4.50
   4   6  23   21.23    4.58
  -4   6  24   12.39    3.55
   4   6  24   12.73    3.80
   4   6  25    3.32    2.34
   4   6  26    7.39    2.99
   4  -7 -24    1.76    2.24
  -4  -7 -24    0.79    2.03
   4  -7 -23   -1.04    2.82
  -4  -7 -23    1.91    1.36
  -4  -7 -22    2.44    1.31
   4  -7 -22    4.90    2.54
   4  -7 -21    2.97    2.11
  -4  -7 -21    1.22    2.11
  -4  -7 -20    7.50    3.13
   4  -7 -20    7.14    2.32
  -4  -7 -19   18.05    4.10
   4  -7 -19   10.17    3.28
   4  -7 -18   14.20    3.67
  -4  -7 -18   26.19    4.63
   4  -7 -18   19.27    4.20
   4  -7 -17    2.57    1.93
  -4  -7 -17    7.57    2.63
   4  -7 -17    2.90    1.46
   4  -7 -16    8.55    2.78
  -4  -7 -16   12.51    3.50
   4  -7 -16    6.45    2.27
   4  -7 -15   10.56    2.98
  -4  -7 -15    8.55    2.97
   4  -7 -15    6.10    3.09
   4   7 -14    8.18    2.77
  -4  -7 -14    3.84    2.14
   4  -7 -14    2.35    1.97
   4  -7 -14    2.31    1.06
   4   7 -13   30.74    4.82
   4  -7 -13   29.60    5.05
  -4  -7 -13   34.26    5.34
   4  -7 -13   31.72    5.25
   4   7 -12    1.62    0.97
  -4  -7 -12    7.27    1.98
   4  -7 -12    6.41    2.47
   4  -7 -12    2.49    1.99
   4   7 -11   26.56    4.73
  -4  -7 -11   15.87    3.70
   4  -7 -11   19.74    3.89
   4  -7 -11   21.41    4.22
   4   7 -10   63.45    6.80
  -4   7 -10   56.56    6.30
  -4  -7 -10   49.15    5.68
   4  -7 -10   39.00    5.42
   4  -7 -10   48.14    6.13
   4   7  -9    3.16    2.44
  -4  -7  -9    2.13    1.72
   4  -7  -9    2.30    1.36
  -4   7  -9    3.04    1.91
   4  -7  -9    1.68    1.44
   4   7  -8   39.92    5.19
  -4   7  -8   49.11    6.01
  -4  -7  -8   42.70    5.05
   4  -7  -8   49.26    5.67
   4  -7  -8   29.49    4.83
  -4  -7  -7    0.25    0.92
   4  -7  -7    2.99    1.46
  -4   7  -7    3.99    2.12
   4   7  -7    0.37    0.79
   4  -7  -7    0.27    0.92
   4   7  -6   12.97    3.16
   4   7  -6   14.95    3.01
  -4  -7  -6   16.31    3.12
   4  -7  -6   18.28    3.55
  -4   7  -6   17.03    3.46
   4  -7  -6   13.57    3.11
  -4  -7  -5   19.47    2.96
   4  -7  -5   10.03    3.12
   4  -7  -5   13.74    3.08
   4   7  -5   14.70    3.43
  -4   7  -5   14.41    3.34
   4   7  -5   11.28    2.64
   4   7  -4    1.86    1.06
   4   7  -4    6.71    2.35
  -4   7  -4    3.30    0.75
   4  -7  -4    6.64    2.08
   4  -7  -4    2.15    0.88
  -4   7  -3    7.71    2.51
   4   7  -3    4.03    1.94
   4  -7  -3    7.06    1.90
   4   7  -3    4.25    1.74
   4  -7  -3    8.05    2.87
   4   7  -2    2.72    1.22
   4   7  -2    6.04    2.68
   4  -7  -2    3.16    0.97
   4  -7  -2    6.25    2.28
  -4   7  -2    3.00    1.37
   4  -7  -1    5.51    1.77
   4   7  -1    3.82    2.02
  -4   7  -1    8.59    2.61
   4   7  -1    3.83    1.70
   4  -7  -1    4.79    1.95
   4  -7   0    9.10    2.32
   4   7   0   19.04    3.74
  -4   7   0   12.06    2.96
   4  -7   0   15.89    3.27
   4   7   0   10.11    2.59
   4   7   1    3.33    1.64
   4   7   1    7.59    2.57
   4  -7   1    2.21    1.63
  -4   7   1    5.19    2.53
   4  -7   1    7.35    2.38
   4  -7   2    2.42    1.18
   4   7   2    3.55    1.73
   4   7   2    6.83    2.05
   4  -7   2    6.00    2.38
   4   7   3    7.80    2.22
   4  -7   3    9.33    2.52
  -4   7   3    5.50    1.63
   4   7   3   11.23    2.54
   4  -7   3    5.53    2.10
   4  -7   4    5.27    2.38
   4   7   4    5.14    2.24
  -4   7   4    3.73    1.64
   4  -7   4    2.36    1.61
   4   7   4    5.33    1.50
   4   7   5    9.07    2.48
  -4   7   5   18.37    3.77
   4   7   5   10.99    2.92
   4  -7   5   15.79    2.97
   4  -7   5   12.96    3.16
   4   7   6   10.77    2.77
  -4   7   6   18.01    4.29
   4   7   6   17.51    3.48
   4  -7   6   13.47    2.71
   4  -7   6   12.60    3.18
  -4   7   7    2.31    0.78
   4   7   7    1.29    0.90
   4   7   7    0.36    0.94
   4  -7   7    0.05    1.10
   4   7   8   47.21    5.85
  -4   7   8   45.04    6.03
   4  -7   8   36.93    5.16
   4  -7   9    3.02    1.78
   4   7   9    3.20    1.31
   4   7   9    3.13    1.69
  -4   7   9    1.97    2.07
   4   7  10   47.68    6.38
   4   7  10   50.18    6.29
  -4   7  10   47.84    6.48
   4  -7  10   43.55    5.18
   4  -7  11   17.69    3.53
   4   7  11   21.44    4.31
   4   7  11   25.16    4.25
  -4   7  11   22.63    4.35
   4   7  12    7.70    3.18
   4   7  12    3.95    2.28
  -4   7  12    6.79    2.44
   4  -7  12    3.44    1.86
   4   7  13   26.05    4.61
   4   7  13   28.60    4.83
  -4   7  13   28.70    4.94
  -4   7  14    7.49    2.19
   4   7  14    7.18    2.56
   4   7  14    5.09    1.97
   4   7  15    3.88    2.86
   4   7  15    5.02    2.56
  -4   7  15    4.53    1.71
  -4   7  16   15.26    3.58
   4   7  16   15.12    3.79
   4   7  16    8.46    3.09
  -4   7  17    1.27    0.98
   4   7  17    3.45    2.80
  -4   7  18   21.70    5.03
   4   7  18   19.22    4.87
   4   7  18   19.18    4.08
   4   7  19   15.06    4.58
   4   7  19   19.23    3.97
  -4   7  19   17.34    4.30
  -4   7  20    6.61    2.55
   4   7  20    8.30    3.19
   4   7  21    0.54    1.16
  -4   7  21    0.83    2.11
   4   7  22    8.31    3.15
  -4   7  22    2.08    1.64
  -4   7  22    4.45    2.75
  -4   7  23    4.49    2.68
  -4   7  23    1.21    1.85
   4   7  23    6.73    3.25
   4   7  24   -1.53    2.57
  -4   7  24   -2.77    2.79
   4  -8 -22    3.61    2.53
  -4  -8 -22    6.36    2.73
  -4  -8 -21    8.38    3.41
   4  -8 -21    5.22    2.61
  -4  -8 -20    9.28    3.87
   4  -8 -20    8.03    2.83
  -4  -8 -19   18.62    4.31
   4  -8 -19   21.23    4.74
   4  -8 -18   14.43    3.93
  -4  -8 -18   19.67    4.31
   4  -8 -17    0.67    1.31
  -4  -8 -17    2.35    2.42
   4  -8 -17   -0.13    1.61
   4  -8 -16   17.72    3.62
   4  -8 -16   12.01    3.27
  -4  -8 -16   14.75    3.92
  -4  -8 -15    1.57    1.47
   4  -8 -15   -0.41    0.82
   4  -8 -14   -0.89    1.56
   4  -8 -14    1.15    1.39
  -4  -8 -14   -2.21    1.89
   4  -8 -13    6.38    2.30
   4   8 -13    9.52    3.19
  -4  -8 -13    4.94    1.82
   4  -8 -13   12.23    2.92
   4  -8 -12    4.64    1.95
   4  -8 -12    0.56    2.01
   4   8 -12    3.25    2.65
  -4  -8 -12   -1.36    1.64
   4   8 -11    5.71    2.45
  -4  -8 -11    9.50    3.12
   4  -8 -11    5.90    2.04
   4  -8 -11    6.44    2.40
   4   8 -10   69.92    7.66
  -4   8 -10   65.66    7.47
  -4  -8 -10   60.10    6.90
   4  -8 -10   74.66    8.13
   4  -8 -10   65.91    7.40
   4   8  -9   15.61    3.68
  -4  -8  -9   14.81    2.95
  -4   8  -9    6.57    1.58
   4  -8  -9   17.69    3.95
   4  -8  -9    8.88    2.65
   4   8  -8    2.00    2.03
  -4   8  -8    5.87    2.35
   4  -8  -8    7.01    2.79
   4  -8  -8    6.62    2.62
   4   8  -7   33.23    5.17
  -4   8  -7   40.01    5.77
   4  -8  -7   43.11    5.88
   4  -8  -7   42.32    5.69
  -4   8  -6   58.80    6.88
   4  -8  -6   57.98    6.67
   4  -8  -6   58.51    6.91
   4   8  -6   61.80    7.07
  -4   8  -5   23.69    4.16
   4   8  -5   18.19    3.78
   4  -8  -5   21.43    3.73
   4   8  -5   19.52    3.80
   4  -8  -5   19.80    4.37
   4  -8  -4    8.02    2.40
   4  -8  -4    9.85    3.04
   4   8  -4    8.14    2.81
  -4   8  -4    8.24    2.53
   4   8  -4    8.07    2.70
   4  -8  -3    4.84    1.57
   4   8  -3    4.01    1.51
  -4   8  -3    5.04    2.03
   4  -8  -3    7.26    2.41
   4   8  -3    5.05    2.13
   4  -8  -2    3.91    1.41
   4   8  -2    2.38    2.07
  -4   8  -2    3.68    1.20
   4   8  -2    5.49    2.08
   4  -8  -2    4.30    2.35
   4  -8  -1   72.71    6.59
   4   8  -1   73.84    7.32
  -4   8  -1   74.88    7.85
   4   8  -1   66.34    7.10
   4  -8  -1   74.41    7.73
   4  -8   0   78.51    7.89
   4  -8   0   73.96    6.73
   4   8   0   77.93    7.90
   4   8   0   85.27    7.88
  -4   8   0   72.28    7.64
   4   8   1   68.03    7.15
  -4   8   1   76.86    7.86
   4   8   1   74.03    7.62
   4  -8   1   65.70    7.01
   4   8   2    8.60    3.33
  -4   8   2    3.43    2.35
   4   8   2    6.42    2.16
   4  -8   2    5.40    2.69
  -4   8   3    3.24    2.26
   4   8   3    1.98    1.58
   4  -8   3    5.00    1.85
   4   8   4   12.22    3.39
  -4   8   4    9.00    2.36
   4   8   4    8.49    2.42
   4  -8   4    9.04    3.10
   4   8   5   18.60    4.03
  -4   8   5   23.38    4.46
   4   8   5   20.79    3.98
   4  -8   5   16.95    3.20
   4   8   6   78.34    8.00
  -4   8   6   59.24    6.76
   4   8   6   61.43    6.87
   4  -8   6   65.19    7.07
   4  -8   7   39.43    5.49
   4   8   7   43.09    5.73
  -4   8   7   40.23    5.88
   4   8   7   48.03    6.23
   4   8   8    7.05    3.17
   4   8   8    4.32    1.65
  -4   8   8    7.97    2.99
   4  -8   8    7.07    2.29
  -4   8   9   11.00    3.40
   4   8   9   11.16    3.32
   4  -8   9   13.98    3.50
   4   8   9   10.61    2.97
   4   8  10   75.08    8.05
  -4   8  10   64.83    8.03
   4   8  10   52.97    6.75
   4  -8  10   71.39    7.47
   4   8  11    4.00    1.23
   4   8  11    2.53    0.95
  -4   8  11    6.60    2.62
   4  -8  11    7.11    3.00
   4   8  12    0.28    1.24
   4   8  12    4.79    2.36
  -4   8  12    0.88    1.62
   4   8  13    3.62    1.05
  -4   8  13    8.18    2.82
   4   8  13    9.86    3.01
   4   8  14    0.71    2.62
   4   8  14    0.70    1.73
  -4   8  14    3.05    2.30
   4   8  15   -1.06    1.35
   4   8  15    1.87    0.78
  -4   8  15    4.22    2.74
   4   8  16   10.43    3.56
   4   8  16   13.07    3.61
  -4   8  16   17.66    4.43
  -4   8  17    1.73    1.50
   4   8  17    1.11    1.27
   4   8  17   -0.12    1.32
   4   8  18    8.54    3.28
   4   8  18   16.12    4.17
  -4   8  18   14.41    3.40
  -4   8  19   13.48    3.78
   4   8  19   10.30    2.81
   4   8  19   14.24    4.19
   4   8  20    6.60    3.23
   4   8  20    6.58    2.38
  -4   8  20   12.54    3.39
  -4   8  21    8.68    2.84
   4   8  21   10.45    3.36
   4   8  22    4.44    3.19
  -4   8  22    4.06    2.44
  -4   8  22   12.00    4.34
  -4  -9 -19    1.33    1.82
   4  -9 -19    2.88    2.71
  -4  -9 -18   -1.59    2.61
   4  -9 -18   -1.98    1.70
  -4  -9 -17    0.24    1.51
   4  -9 -17    1.21    2.28
  -4  -9 -16    2.29    2.53
   4  -9 -16   -0.93    1.63
   4  -9 -16   -2.35    2.52
   4  -9 -15    2.74    1.80
   4  -9 -15    1.83    2.39
   4  -9 -14    0.70    1.73
   4  -9 -14    7.12    3.22
   4  -9 -13    6.99    1.28
   4  -9 -13    1.11    1.46
   4   9 -12   14.44    3.83
   4  -9 -12    7.96    2.55
   4   9 -11    5.92    2.74
   4  -9 -11    0.84    2.41
   4  -9 -11    0.80    1.00
   4   9 -10   -1.18    1.85
   4  -9 -10    2.57    2.56
   4  -9 -10   -0.23    0.97
   4  -9  -9    6.37    2.36
   4   9  -9    4.06    2.25
  -4   9  -9    5.80    2.33
   4  -9  -9    4.13    2.45
   4   9  -8   14.80    3.88
  -4   9  -8   16.81    4.02
   4  -9  -8   17.50    4.07
   4  -9  -8   12.48    3.36
   4  -9  -7   10.45    3.74
  -4   9  -7    5.83    1.96
   4   9  -7    4.03    2.38
   4  -9  -7    6.85    2.49
  -4   9  -6    4.68    2.82
   4   9  -6    4.47    2.63
   4  -9  -6    1.11    1.72
   4  -9  -6    4.00    2.52
   4   9  -5   -1.60    1.68
  -4   9  -5    0.13    1.34
   4  -9  -5    1.25    2.25
   4  -9  -5   -0.07    1.25
  -4   9  -4    5.84    2.33
   4  -9  -4    9.85    3.09
   4   9  -4    5.61    2.43
   4   9  -4    9.54    2.78
   4   9  -3   10.32    2.83
  -4   9  -3    6.92    3.02
   4   9  -3    7.33    2.64
   4  -9  -3    8.24    3.15
   4   9  -2    1.80    1.48
  -4   9  -2   -0.97    2.38
   4   9  -2    2.65    2.62
   4  -9  -2    0.25    1.69
   4   9  -1    6.31    2.98
  -4   9  -1    8.74    2.92
   4   9  -1    5.67    2.33
   4  -9  -1   10.53    3.63
   4   9   0   28.26    4.99
   4   9   0   18.08    3.82
   4  -9   0   23.98    4.36
  -4   9   0   20.85    4.58
   4   9   1    9.22    3.03
  -4   9   1    7.50    2.92
   4   9   1    3.25    1.16
   4  -9   1    5.12    2.40
   4   9   2    6.71    3.04
   4   9   2    2.61    1.78
   4  -9   2    5.08    2.50
  -4   9   2    2.56    1.99
   4   9   3    5.17    2.65
   4   9   3    3.59    2.16
  -4   9   3    9.68    3.09
   4  -9   3    3.99    2.08
   4   9   4    4.21    2.25
   4   9   4    7.37    2.70
  -4   9   4    9.86    2.58
   4  -9   4    5.49    1.74
   4   9   5    0.21    0.89
   4   9   5    0.97    1.85
  -4   9   5    1.34    1.81
   4  -9   5    1.32    1.96
  -4   9   6    0.66    1.40
   4   9   6   -1.69    2.73
   4   9   6    3.16    2.89
   4  -9   6    3.05    2.79
   4   9   7    8.34    2.80
   4   9   7    7.15    2.65
  -4   9   7    3.01    2.21
   4  -9   7    6.21    2.93
  -4   9   8    9.57    3.09
   4   9   8   12.13    3.22
   4   9   8   11.11    3.48
   4  -9   8   10.34    2.49
  -4   9   9    2.50    1.68
   4   9   9    7.73    2.69
   4   9   9    7.88    2.83
   4  -9   9    5.96    2.61
   4   9  10    0.51    2.00
   4   9  10    1.99    1.20
  -4   9  10    1.36    2.09
   4  -9  10   -1.25    1.87
   4   9  11    2.34    2.26
   4   9  11    2.97    1.97
  -4   9  11   -1.04    1.79
   4   9  12    9.31    3.11
   4   9  12   12.94    3.44
  -4   9  12   15.64    3.89
   4   9  13   10.66    3.37
  -4   9  13   10.28    3.14
   4   9  13    3.22    1.77
   4   9  14    3.30    2.12
   4   9  14    2.40    1.13
  -4   9  14    0.89    1.58
   4   9  15    0.77    1.50
   4   9  15   -0.98    1.71
  -4   9  16    0.47    1.92
   4   9  16    2.36    1.71
   4   9  16   -0.54    1.51
   4   9  17    0.45    2.49
   4   9  17    0.02    1.08
   4   9  18    0.15    1.63
   4   9  18   -0.86    1.39
  -4   9  18    0.25    1.62
  -4   9  19   -1.87    1.89
   4   9  19   -1.05    1.85
   4 -10 -15    1.40    2.17
   4 -10 -14    2.01    2.29
   4 -10 -14    3.66    3.09
   4 -10 -13    1.76    0.97
   4 -10 -13    2.48    2.73
   4  10 -12    4.60    3.57
   4 -10 -12    0.35    1.43
   4  10 -11    9.02    3.65
   4 -10 -11    6.05    2.71
   4  10 -10    8.60    3.09
   4 -10 -10   19.16    4.29
   4 -10  -9   22.75    4.74
   4  10  -9   19.58    4.53
   4 -10  -8    7.36    2.44
  -4  10  -8    1.86    2.11
   4  10  -8    5.82    2.58
   4  10  -7    8.12    3.34
  -4  10  -7    9.74    3.91
   4 -10  -7    3.88    2.51
   4  10  -6   14.78    3.99
  -4  10  -6   17.76    4.43
   4 -10  -6    8.79    2.46
  -4  10  -5   13.00    3.56
   4  10  -5   16.80    4.12
   4 -10  -5   21.19    4.61
   4  10  -4   12.21    3.33
  -4  10  -4   13.22    4.02
   4 -10  -4   12.90    3.40
   4  10  -3    5.56    2.71
  -4  10  -3    4.28    2.89
   4 -10  -3    5.67    3.02
   4  10  -2    1.56    1.29
   4  10  -2    4.37    1.90
  -4  10  -2    0.73    1.49
   4 -10  -2    1.45    1.24
   4  10  -1    8.87    2.99
   4  10  -1   15.52    3.80
  -4  10  -1   14.35    3.97
   4 -10  -1    7.12    2.62
   4  10   0   23.07    4.90
  -4  10   0   28.22    5.44
   4  10   0   22.35    4.71
   4 -10   0   24.15    4.63
   4  10   1    5.27    2.69
   4  10   1    2.83    1.90
  -4  10   1    2.54    2.26
   4 -10   1    9.60    3.46
   4  10   2    2.42    1.90
  -4  10   2    3.71    2.43
   4  10   2    1.44    1.66
   4  10   3    3.44    1.68
   4  10   3    2.57    1.65
  -4  10   3    4.93    1.70
   4 -10   3    1.73    2.34
   4  10   4    4.96    2.47
   4  10   4   11.48    3.36
  -4  10   4   10.74    3.54
   4 -10   4   11.61    3.50
   4  10   5    9.90    3.19
   4  10   5   10.82    3.28
  -4  10   5   15.11    3.83
   4 -10   5   12.58    3.28
   4 -10   6    5.12    2.75
   4  10   6    9.53    3.27
   4  10   6   10.16    3.33
   4  10   7    8.78    3.20
   4  10   7    1.53    2.09
  -4  10   7    7.11    1.99
   4 -10   7    4.06    2.43
   4  10   8   11.03    3.35
   4  10   8    8.15    3.61
  -4  10   8    4.79    2.90
   4 -10   8    8.00    2.76
   4  10   9   23.68    5.30
   4  10   9   27.50    5.03
  -4  10   9   26.77    5.35
   4  10  10   20.50    4.60
   4  10  10   11.88    3.68
  -4  10  10   13.86    4.23
   4  10  11   13.22    4.05
  -4  10  11    9.90    3.67
   4  10  11   10.02    3.39
   4  10  12    3.24    2.30
  -4  10  12    2.40    2.88
   4  10  12    2.47    2.20
  -4  10  13    1.99    2.64
   4  10  13    7.68    3.29
   4  10  13    4.77    2.16
   4  10  14    1.14    1.69
  -4  10  14    3.50    2.89
   4  10  14    0.39    1.41
   4  10  15    9.74    4.43
  -4  10  15    3.95    2.18
   4  10  15    3.18    1.75
   4 -11  -8    4.17    2.33
   4  11  -8    0.74    1.56
   4  11  -7    9.63    3.92
  -4  11  -7    0.62    1.89
   4 -11  -7    6.13    2.76
   4  11  -6    1.40    2.79
  -4  11  -6    0.25    1.92
   4 -11  -6    5.72    3.54
   4  11  -5    1.68    2.05
  -4  11  -5    1.20    2.48
   4 -11  -5   -2.59    2.49
  -4  11  -4   -0.17    1.25
   4  11  -4    0.76    1.63
   4 -11  -4    2.86    2.26
   4 -11  -3   -1.86    1.52
  -4  11  -3    1.97    1.27
   4  11  -3    0.54    1.65
   4  11  -2    2.25    2.44
  -4  11  -2   -0.76    1.33
   4 -11  -2    0.87    1.27
   4  11  -1    9.78    3.91
  -4  11  -1   13.82    4.34
   4  11  -1   -0.79    2.08
   4 -11  -1    7.46    2.54
   4  11   0    5.72    3.17
  -4  11   0    3.88    1.42
   4 -11   0    4.16    2.55
   4  11   0    1.73    2.11
   4  11   1    6.91    2.83
   4  11   1    3.76    2.17
  -4  11   1    5.99    2.65
   4 -11   1    5.21    2.60
   4  11   2    0.52    1.37
   4  11   2    2.01    1.82
  -4  11   2    0.85    1.51
   4 -11   2    2.39    2.28
   4  11   3    1.02    0.96
   4  11   3    0.23    1.53
  -4  11   3    0.37    1.61
   4 -11   3    2.01    2.23
   4  11   4    1.09    2.15
  -4  11   4    0.69    1.32
   4  11   4   -1.38    2.00
   4 -11   4   -1.64    1.96
   4  11   5   -0.98    1.02
   4  11   5   -2.10    2.12
  -4  11   5    1.80    1.71
   4 -11   5    0.70    2.07
   4  11   6    0.99    1.18
   4  11   6    3.01    1.65
  -4  11   6    2.79    1.42
   4 -11   6    4.44    2.61
   4  11   7    6.32    3.40
   4  11   7    8.25    3.08
  -4  11   7    5.33    1.92
   4  11   8    4.92    2.98
   4  11   8    4.86    2.81
  -4  11   8    5.58    2.75
   5   0 -30   -2.76    2.65
   5   0 -29    3.19    2.47
   5   0 -28    4.26    3.05
   5   0 -27    2.13    1.75
   5   0 -26    0.50    1.24
   5   0 -25   -0.44    1.43
   5   0 -24   -2.07    1.89
   5   0 -23    1.16    1.55
   5   0 -22   -1.09    1.42
   5   0 -21    0.26    0.75
   5   0 -20    1.33    0.77
   5   0 -19   -0.79    1.45
   5   0 -18    1.43    1.34
   5   0 -17   -0.72    1.45
   5   0 -16   -0.30    0.98
   5   0 -15    1.05    1.16
   5   0 -14    0.28    0.67
   5   0 -14   -0.76    1.07
   5   0 -13   -0.01    0.92
   5   0 -13    0.22    0.52
   5   0 -12    0.30    0.56
   5   0 -12    1.22    0.95
   5   0 -11    0.07    0.63
   5   0 -11    0.42    1.00
   5   0 -10   -0.25    0.71
   5   0 -10    0.21    1.03
   5   0  -9    0.54    0.48
   5   0  -9    0.29    0.68
   5   0  -8   -0.27    0.60
   5   0  -8   -0.31    0.48
   5   0  -7   -0.08    0.31
   5   0  -7    0.50    0.81
   5   0  -7   -0.25    0.58
   5   0  -6    0.35    0.69
   5   0  -6    0.77    1.16
   5   0  -6    0.20    0.77
   5   0  -5    0.46    0.57
   5   0  -5    0.50    0.70
   5   0  -5    0.00    0.67
   5   0  -4   -0.10    0.41
   5   0  -4    0.03    0.37
   5   0  -4   -0.10    0.63
   5   0  -3    0.39    0.61
   5   0  -3   -0.31    0.31
   5   0  -3    0.05    0.69
   5   0  -2   -0.29    0.72
   5   0  -2   -0.05    0.61
   5   0  -2    0.02    0.63
   5   0  -1   -0.04    0.32
   5   0  -1   -0.34    0.46
   5   0  -1   -0.20    0.60
   5   0   0   -0.28    0.52
   5   0   0   -0.44    0.26
   5   0   1    0.07    0.34
   5   0   1    0.09    0.60
   5   0   2    0.41    0.56
   5   0   2    0.07    0.31
   5   0   3    0.01    0.39
   5   0   3    0.56    0.71
   5   0   4    0.33    0.48
   5   0   4   -0.18    0.39
   5   0   5    0.51    0.76
   5   0   5    0.03    0.42
   5   0   6   -0.10    0.44
   5   0   6   -0.26    0.32
   5   0   7    0.00    0.48
   5   0   7    0.42    0.48
   5   0   8    0.45    1.05
   5   0   8    0.13    0.31
   5   0   9    0.76    1.10
   5   0   9    0.20    0.36
   5   0  10    0.12    0.90
   5   0  10    0.58    0.43
   5   0  11   -0.24    0.48
   5   0  11    0.01    0.36
   5   0  12   -0.24    0.34
   5   0  12   -0.27    0.47
   5   0  13   -0.14    0.62
   5   0  13   -0.13    0.19
   5   0  14   -0.19    0.45
   5   0  15    1.14    1.46
   5   0  16    0.18    0.66
   5   0  17   -0.69    0.97
   5   0  18    0.42    0.60
   5   0  19    0.63    1.40
   5   0  20    0.04    1.25
   5   0  21    0.60    1.64
   5   0  22    2.09    1.74
   5  -1 -30   -0.99    1.60
   5  -1 -29    9.21    2.94
   5  -1 -28    9.10    2.83
   5  -1 -27   23.29    4.69
   5   1 -27   -5.14    2.15
   5  -1 -26   44.04    6.44
   5   1 -26   28.86    4.97
   5   1 -25   38.59    5.61
   5  -1 -25   36.90    5.51
   5   1 -24    5.15    2.18
   5  -1 -24    5.25    2.70
   5  -1 -23    5.70    2.47
   5   1 -23    5.95    1.96
   5   1 -22   14.28    3.46
   5  -1 -22   12.32    3.24
   5   1 -21   25.05    4.56
   5  -1 -21   26.59    4.29
   5   1 -20    1.40    1.54
   5  -1 -20   -0.89    0.75
   5   1 -19   28.66    4.24
   5  -1 -19   29.61    4.69
   5  -1 -18   27.97    4.45
   5   1 -18   30.31    4.43
   5   1 -17   26.97    3.81
   5  -1 -17   28.32    4.15
   5  -1 -16  250.63   10.12
   5  -1 -16  275.56   12.89
   5   1 -16  265.59   12.03
   5  -1 -15  168.31    8.18
   5  -1 -15  195.44   10.67
   5   1 -15  198.77    9.96
   5   1 -14  119.86    7.52
   5  -1 -14  131.86    8.52
   5  -1 -14  137.71    7.31
   5  -1 -13   62.13    4.80
   5   1 -13   59.22    5.08
   5  -1 -13   61.32    5.78
   5   1 -13   60.11    5.31
   5  -1 -12   85.02    6.52
   5   1 -12   95.39    6.36
   5  -1 -12   84.27    5.53
   5   1 -12   76.49    3.47
   5   1 -12   78.09    5.65
   5  -1 -11  140.48    8.19
   5   1 -11  138.84    7.43
   5  -1 -11  140.85    6.95
   5   1 -11  141.56    7.60
   5   1 -11  136.90    4.71
   5  -1 -10  314.56   12.21
   5   1 -10  332.34   11.15
   5  -1 -10  347.33   10.77
   5   1 -10  328.42   11.23
   5   1 -10  313.74    7.35
   5   1  -9   20.91    1.91
   5  -1  -9   19.52    2.55
   5   1  -9   22.06    2.68
   5   1  -9   24.04    2.95
   5  -1  -9   22.95    3.34
   5   1  -8   17.65    1.90
   5  -1  -8   18.34    2.98
   5   1  -8   22.44    2.86
   5  -1  -8   17.03    2.40
   5   1  -8   11.93    1.94
   5   1  -7   11.76    1.51
   5   1  -7    9.95    1.89
   5  -1  -7   12.01    2.31
   5   1  -7   13.27    2.18
   5  -1  -7   11.28    1.91
   5   1  -6  705.11   12.29
   5  -1  -6  719.08   14.89
   5   1  -6  720.20   14.49
   5  -1  -6  729.89   16.62
   5   1  -6  713.37   15.57
   5  -1  -5  236.95    8.58
   5  -1  -5  245.06    9.49
   5   1  -5  251.89    7.26
   5   1  -5  241.34    8.13
   5   1  -5  260.42    9.32
   5  -1  -4 1177.28   18.85
   5   1  -4 1151.87   17.66
   5   1  -4 1228.23   19.70
   5  -1  -4 1184.77   20.42
   5   1  -3  179.21    6.33
   5  -1  -3  185.48    7.52
   5   1  -3  179.94    6.84
   5  -1  -3  174.40    7.72
   5  -1  -2   28.74    3.08
   5   1  -2   23.40    2.71
   5  -1  -2   27.53    2.85
   5   1  -2   23.10    2.35
   5   1  -2   20.13    2.27
   5   1  -1   26.26    2.78
   5   1  -1   30.36    2.81
   5  -1  -1   27.12    2.86
   5   1   0   21.95    2.46
   5  -1   0   26.47    2.86
   5  -1   0   27.39    3.00
   5   1   0   24.64    2.58
   5   1   1   26.87    2.73
   5  -1   1   28.25    2.93
   5   1   1   34.63    3.12
   5  -1   2   25.53    2.85
   5   1   2   24.85    2.70
   5   1   3  177.37    7.39
   5  -1   3  170.88    7.47
   5   1   3  176.10    6.85
   5   1   4 1230.00   19.70
   5  -1   4 1207.61   19.91
   5   1   5  262.81    8.37
   5  -1   5  247.87    9.07
   5   1   5  261.20    9.34
   5   1   6  729.75   15.92
   5  -1   6  702.34   15.25
   5   1   6  697.09   13.48
   5   1   7   11.52    1.73
   5   1   7   10.30    2.00
   5  -1   7   11.09    2.05
   5   1   8   18.53    2.85
   5   1   8   17.27    2.15
   5  -1   8   18.14    2.61
   5   1   9   20.26    2.29
   5   1   9   22.56    3.13
   5  -1   9   17.55    2.62
   5   1  10  332.65    9.02
   5   1  10  333.43   12.11
   5  -1  10  313.17   11.02
   5   1  11  142.41    5.90
   5   1  11  153.37    8.27
   5  -1  11  137.91    7.51
   5  -1  12   78.95    5.80
   5   1  12   91.68    4.62
   5   1  13   52.11    3.50
   5   1  13   57.27    5.30
   5  -1  13   56.47    5.08
   5   1  14  128.04    8.09
   5  -1  14  125.83    7.61
   5   1  14  118.63    5.24
   5   1  15  196.82   10.22
   5  -1  15  200.21    9.85
   5   1  15  182.58    6.36
   5   1  16  274.89   12.36
   5  -1  16  266.02   11.55
   5   1  17   26.12    3.95
   5  -1  17   35.89    4.25
   5   1  18   28.94    4.34
   5  -1  18   19.53    3.25
   5  -1  19   21.10    3.50
   5   1  19   21.09    3.84
   5  -1  20    1.32    1.01
   5   1  20    2.29    2.31
   5   1  21   26.24    4.06
   5  -1  21   22.80    3.92
   5   1  22   14.18    3.75
   5   1  23    6.44    2.38
   5  -2 -29    1.60    1.58
   5  -2 -28    0.05    1.47
   5  -2 -27    0.95    2.24
   5  -2 -26   10.36    3.13
   5  -2 -25   15.63    4.29
   5  -2 -24    0.42    1.33
   5  -2 -23   23.93    4.62
   5  -2 -22    4.87    2.31
   5  -2 -21    4.17    1.73
   5   2 -21    4.53    2.01
   5   2 -20    6.44    2.34
   5  -2 -20   11.05    3.38
   5   2 -19   88.24    7.53
   5  -2 -19   79.55    7.57
   5   2 -18   13.50    2.77
   5  -2 -18   17.18    3.52
   5   2 -17   26.90    3.99
   5  -2 -17   19.27    3.88
   5  -2 -17   22.80    3.33
   5   2 -17   20.45    3.23
   5   2 -16   53.33    5.16
   5  -2 -16   50.48    5.54
   5  -2 -16   53.05    5.23
   5   2 -16   54.57    5.18
   5   2 -15  400.27   13.76
   5  -2 -15  375.45   13.53
   5   2 -15  389.58   13.66
   5  -2 -15  396.89   15.55
   5   2 -14   63.37    5.40
   5  -2 -14   80.02    6.89
   5  -2 -14   82.09    6.25
   5   2 -14   70.74    5.74
   5   2 -13  180.68    9.02
   5  -2 -13  198.31   10.37
   5  -2 -13  190.63    9.54
   5   2 -13  182.31    8.50
   5  -2 -12   10.86    2.03
   5  -2 -12   14.99    3.02
   5   2 -12    7.98    1.71
   5   2 -12    9.52    2.18
  -5   2 -11   50.38    2.78
   5   2 -11   52.48    4.22
   5  -2 -11   55.38    5.40
   5  -2 -11   43.19    4.40
   5   2 -11   48.38    4.57
   5  -2 -10    2.02    1.49
   5   2 -10    1.27    0.50
   5   2 -10   -0.29    0.68
   5   2 -10    1.59    0.98
   5  -2 -10    0.81    0.78
   5  -2  -9    4.66    1.32
   5   2  -9    3.15    0.92
   5   2  -9    4.52    0.76
   5  -2  -9    3.27    1.15
   5   2  -9    6.16    1.59
   5   2  -8   61.35    4.03
   5   2  -8   57.61    3.05
   5  -2  -8   49.54    4.69
   5  -2  -8   56.87    4.86
   5   2  -8   54.18    4.62
   5   2  -7  360.42   11.70
   5   2  -7  358.16    7.98
   5   2  -7  360.36    9.49
   5  -2  -7  354.16   12.55
   5  -2  -7  361.87   11.96
   5   2  -6  224.60    7.36
   5   2  -6  235.16    9.42
   5   2  -6  223.69    6.71
   5  -2  -6  223.34    9.84
   5  -2  -6  229.01    9.48
   5  -2  -5   52.65    4.64
   5  -2  -5   56.87    4.69
   5   2  -5   53.67    3.42
   5   2  -5   59.53    4.68
   5  -2  -4   46.09    4.12
   5   2  -4   45.05    3.23
   5  -2  -4   47.03    4.37
   5   2  -4   41.63    3.04
   5   2  -4   41.15    3.96
   5   2  -3  178.93    7.95
   5  -2  -3  175.88    8.02
   5   2  -3  182.81    6.79
   5   2  -3  195.33    6.49
   5  -2  -3  188.44    8.48
   5   2  -2   93.28    4.94
   5  -2  -2   87.59    5.61
   5  -2  -2  104.58    6.33
   5   2  -2   82.27    5.33
   5   2  -2   88.12    4.42
   5  -2  -1   49.90    4.18
   5  -2  -1   39.29    3.82
   5   2  -1   51.60    3.78
   5   2  -1   45.14    3.88
   5   2   0  265.03    9.43
   5  -2   0  249.59    9.39
   5   2   0  246.99    8.56
   5  -2   0  261.64    9.62
   5   2   1   48.06    4.04
   5  -2   1   48.71    4.17
   5   2   1   44.64    3.71
   5  -2   1   44.37    3.98
   5   2   2   88.61    5.36
   5  -2   2   85.99    5.45
   5   2   2   88.43    5.38
   5  -2   2   86.49    5.52
   5  -2   3  183.37    8.08
   5   2   3  180.08    7.85
   5   2   4   46.60    3.86
   5  -2   4   48.33    4.23
   5   2   4   47.44    4.09
   5   2   5   57.75    4.72
   5  -2   5   57.20    4.58
   5   2   5   51.65    4.14
   5   2   6  221.68    9.27
   5  -2   6  199.30    8.71
   5   2   6  219.73    8.45
   5   2   7  359.16   10.73
   5  -2   7  357.70   11.74
   5   2   7  348.44   12.01
   5   2   8   55.28    4.79
   5  -2   8   58.14    4.82
   5   2   8   56.77    4.25
   5   2   9    6.46    1.62
   5   2   9    2.87    1.42
   5  -2   9    9.03    2.00
   5   2  10    1.49    0.73
   5   2  10    1.33    0.87
   5  -2  10    0.20    0.84
   5  -2  11   44.91    4.45
   5   2  11   52.50    4.97
   5   2  11   44.64    3.78
   5   2  12   10.27    1.86
   5   2  12   10.58    2.47
   5  -2  12    8.01    1.96
   5  -2  13  198.26    9.59
   5   2  13  181.65    9.87
   5   2  13  187.49    8.11
   5   2  14   71.31    6.42
   5   2  14   86.73    5.43
   5  -2  14   77.45    6.19
   5   2  15  390.96   11.71
   5  -2  15  389.72   14.02
   5   2  15  365.97   14.56
   5   2  16   54.69    4.33
   5   2  16   58.47    5.94
   5  -2  16   56.52    5.60
   5   2  17   23.56    3.87
   5  -2  17   23.15    3.57
   5   2  18   21.59    3.97
   5  -2  18   12.51    2.81
   5  -2  19   81.85    6.95
   5   2  19   98.42    8.34
   5   2  20    7.60    2.70
   5   2  21    4.86    2.33
   5   2  22    4.91    1.84
   5   2  23   19.89    3.70
   5   2  24    4.48    2.31
   5  -3 -29    1.37    1.85
   5  -3 -28    9.20    2.88
   5  -3 -27   33.70    5.91
   5  -3 -26    5.49    2.39
   5  -3 -25   67.95    7.89
   5  -3 -24    2.29    0.95
   5  -3 -23    3.63    2.07
   5  -3 -22   74.37    7.90
   5  -3 -21   69.94    7.52
   5  -3 -20   35.67    5.50
   5  -3 -19   67.26    7.10
   5  -3 -19   68.99    6.65
   5  -3 -18   13.83    3.12
   5  -3 -18   16.52    3.56
   5  -3 -17   18.42    3.52
   5  -3 -17   11.41    2.62
   5   3 -17   14.67    2.37
   5  -3 -16   90.78    7.82
   5  -3 -16  104.21    7.85
   5   3 -16   88.76    6.88
   5   3 -15  287.23   11.23
   5  -3 -15  309.27   14.38
   5  -3 -15  288.53   12.96
   5   3 -15  328.28   13.13
   5   3 -14   68.01    5.08
   5  -3 -14   70.40    6.70
   5   3 -14   76.78    6.21
   5  -3 -14   68.83    6.22
   5  -3 -13   12.85    2.80
   5   3 -13    9.72    1.83
   5  -3 -13    7.18    2.45
   5   3 -13    9.35    2.32
   5  -3 -12   45.98    5.26
   5   3 -12   42.62    3.68
   5  -3 -12   34.30    4.09
   5   3 -12   38.82    4.45
   5   3 -11   78.50    6.17
   5  -3 -11   72.92    6.32
  -5   3 -11   74.67    4.41
   5   3 -11   76.76    4.53
   5  -3 -11   64.05    5.84
  -5   3 -10  121.94    5.73
   5   3 -10  124.21    5.59
   5  -3 -10  124.06    8.18
   5  -3 -10  119.59    7.74
   5   3 -10  127.02    7.62
   5   3 -10  120.59    4.05
   5   3  -9   33.01    2.83
   5  -3  -9   26.23    3.71
   5   3  -9   32.26    2.27
   5  -3  -9   32.64    3.94
   5   3  -9   30.93    3.84
   5  -3  -8   12.75    2.32
   5   3  -8    7.95    1.61
   5   3  -8    9.25    1.57
   5  -3  -8    9.66    2.28
   5   3  -8   10.96    1.42
   5   3  -7   82.40    6.01
   5  -3  -7   79.08    5.96
   5  -3  -7   79.80    6.19
   5   3  -7   89.67    4.45
   5   3  -7   85.40    4.01
   5   3  -6  342.10    9.08
   5   3  -6  326.04    7.69
   5   3  -6  328.24   11.78
   5  -3  -6  356.49   13.03
   5  -3  -6  331.92   12.35
   5   3  -5  319.01   11.54
   5  -3  -5  308.60   12.01
   5   3  -5  313.60    9.28
   5   3  -5  325.07    7.52
   5  -3  -5  296.48   11.49
   5   3  -4  156.75    8.12
   5  -3  -4  153.08    8.24
   5   3  -4  155.97    5.26
   5   3  -4  154.40    6.62
   5  -3  -4  151.16    8.16
   5   3  -3  101.79    6.68
   5  -3  -3  106.56    6.86
   5   3  -3  117.08    5.91
   5   3  -3  104.40    4.34
   5  -3  -3  100.64    6.71
   5   3  -2  256.28   10.29
   5  -3  -2  253.80   10.51
   5  -3  -2  276.34   10.72
   5   3  -2  263.96    9.07
   5  -3  -1  887.29   19.24
   5   3  -1  848.08   18.52
   5  -3  -1  875.54   18.95
   5   3  -1  873.73   17.17
   5   3   0  603.60   14.53
   5   3   0  601.14   15.60
   5  -3   0  644.23   16.31
   5  -3   0  611.47   16.13
   5  -3   1  886.15   19.35
   5   3   1  867.99   18.85
   5  -3   1  874.98   18.78
   5   3   1  894.46   18.15
   5   3   2  267.81   10.55
   5  -3   2  254.36   10.38
   5   3   2  268.47   10.18
   5  -3   2  248.58    9.88
   5  -3   3  122.86    7.05
   5   3   3  114.00    6.86
   5  -3   3  119.06    6.98
   5   3   3  110.90    6.62
   5   3   4  163.41    8.21
   5  -3   4  164.07    8.29
   5  -3   4  160.13    7.99
   5   3   5  326.89   11.52
   5  -3   5  337.03   11.94
   5   3   5  311.82   11.54
   5  -3   6  331.02   11.72
   5   3   6  324.35   12.14
   5   3   6  326.02   11.54
   5   3   7   88.83    6.09
   5  -3   7   91.71    6.32
   5   3   7   94.96    6.56
   5  -3   8    9.82    1.97
   5   3   8   11.44    2.28
   5   3   8   10.19    2.23
   5   3   9   27.92    3.96
   5   3   9   33.75    3.74
   5  -3   9   32.88    3.69
   5   3  10  140.64    7.72
   5  -3  10  148.26    8.15
   5   3  10  121.11    7.94
   5   3  11   85.66    6.10
   5  -3  11   83.06    6.19
   5   3  11   81.03    6.57
   5  -3  12   45.48    4.59
   5   3  12   39.43    4.16
   5   3  12   39.85    4.71
   5   3  13   15.63    2.67
   5   3  13   14.73    3.21
   5  -3  13   10.90    2.13
   5   3  14   67.73    5.58
   5  -3  14   59.94    5.37
   5   3  14   70.33    6.50
   5   3  15  315.08   12.26
   5   3  15  294.55   13.68
   5  -3  15  318.51   12.87
   5  -3  16  102.97    7.35
   5   3  16   96.28    6.76
   5   3  16   82.86    7.35
   5   3  17   14.63    2.81
   5   3  17   11.62    2.97
   5  -3  17   17.56    3.06
   5   3  18    9.32    2.47
   5  -3  18   19.88    3.23
   5   3  19   76.39    7.49
   5   3  20   42.54    5.64
   5   3  21   69.27    7.39
   5   3  22   67.70    7.72
   5   3  23    2.88    2.12
   5   3  24    5.62    1.72
   5   3  25   66.21    8.14
   5  -4 -28    2.73    2.47
   5  -4 -27    2.80    2.27
   5  -4 -26    0.47    2.24
   5  -4 -25    7.12    3.06
   5  -4 -24   15.17    3.76
   5  -4 -23    8.72    2.63
   5  -4 -22    7.12    2.82
   5  -4 -21   19.60    4.26
   5  -4 -20   34.18    5.16
   5  -4 -20   31.39    5.04
   5  -4 -19    6.27    2.24
   5  -4 -19    1.12    0.74
  -5  -4 -18    6.47    1.82
   5  -4 -18    4.38    1.82
   5  -4 -18    5.58    1.65
  -5  -4 -17  122.46    9.34
   5  -4 -17  134.90    9.74
   5  -4 -16   39.95    5.17
  -5  -4 -16   47.34    5.78
   5  -4 -16   46.02    5.31
   5   4 -16   40.39    5.32
   5  -4 -15   24.45    4.19
   5   4 -15   17.06    3.28
   5  -4 -15   16.57    3.24
  -5  -4 -15   19.70    3.75
   5   4 -14   10.64    2.81
   5  -4 -14   13.67    3.08
  -5  -4 -14    7.34    2.44
   5  -4 -14   12.14    3.61
   5  -4 -13   58.63    5.98
  -5  -4 -13   54.35    5.54
   5  -4 -13   57.62    6.05
   5   4 -13   56.97    5.61
   5   4 -12   88.28    6.84
   5  -4 -12   82.74    7.40
   5  -4 -12   77.95    6.94
  -5  -4 -12   89.92    7.35
  -5   4 -11   20.88    2.84
   5  -4 -11   23.89    3.82
   5  -4 -11   26.09    4.08
   5   4 -11   26.22    3.68
   5   4 -10    7.97    2.28
  -5   4 -10    7.55    1.74
   5  -4 -10   11.29    2.71
   5  -4 -10    6.48    2.19
   5   4  -9   72.18    6.15
   5   4  -9   68.42    4.04
  -5   4  -9   83.82    5.69
   5  -4  -9   74.95    6.38
   5  -4  -9   74.05    6.44
  -5   4  -8   10.46    2.04
   5   4  -8   14.63    2.82
   5   4  -8   14.53    1.98
   5  -4  -8   17.12    3.10
   5   4  -7   33.92    4.19
  -5   4  -7   47.45    4.32
   5  -4  -7   34.71    4.32
   5   4  -7   47.80    3.75
   5  -4  -7   29.69    3.99
   5  -4  -6  129.82    8.10
   5   4  -6  113.43    7.65
   5   4  -6  134.94    6.49
   5  -4  -6  124.12    8.09
   5   4  -5   40.94    4.59
   5   4  -5   44.46    1.90
   5  -4  -5   44.89    4.70
   5   4  -5   45.34    3.93
   5  -4  -5   44.73    4.90
   5   4  -4   57.77    5.28
   5  -4  -4   61.45    5.64
   5  -4  -4   48.44    5.02
   5   4  -4   63.45    4.72
   5   4  -3    5.02    0.87
   5   4  -3    5.51    1.48
   5  -4  -3    4.74    1.88
   5   4  -3    5.77    1.47
   5  -4  -3    7.54    2.12
   5   4  -2   17.64    2.53
   5  -4  -2   17.31    2.83
   5   4  -2   20.27    3.10
   5  -4  -2   16.73    2.79
   5  -4  -1    3.43    1.91
   5   4  -1    5.50    1.77
   5   4  -1    2.60    1.18
   5  -4  -1    4.41    1.51
   5   4   0   74.60    5.51
   5   4   0   76.88    6.05
   5  -4   0   79.61    6.27
   5  -4   0   57.46    5.08
   5  -4   1    1.78    0.67
   5   4   1    4.75    1.83
   5   4   1    3.62    1.23
   5  -4   1    6.68    1.95
   5   4   2   19.70    2.98
   5   4   2   20.32    3.17
   5  -4   2   21.31    3.11
   5  -4   2   15.60    2.86
   5   4   3    3.82    1.82
   5   4   3    4.95    1.65
   5  -4   3    5.94    1.93
   5  -4   3    4.07    1.77
   5   4   4   59.28    5.25
   5  -4   4   57.35    5.14
   5   4   4   56.66    5.33
   5  -4   4   54.05    4.79
   5   4   5   38.48    4.35
   5   4   5   42.73    4.67
   5  -4   5   44.61    4.40
   5  -4   5   47.14    4.78
   5   4   6  120.45    7.90
   5  -4   6  131.90    7.92
   5  -4   6  136.95    7.97
   5   4   6  142.66    8.35
   5   4   7   47.17    5.03
   5  -4   7   35.24    4.12
   5   4   7   38.91    4.40
   5   4   8   15.73    3.02
   5   4   8   21.63    3.41
   5  -4   8   14.85    2.61
   5   4   9   78.94    6.62
   5  -4   9   73.70    6.26
   5   4   9   87.07    6.76
   5   4  10    9.85    2.18
   5  -4  10    8.15    2.23
   5   4  10    7.65    2.49
   5   4  11   23.33    3.45
   5  -4  11   21.21    3.26
   5   4  11   24.26    3.73
   5  -4  12   79.66    6.39
   5   4  12   89.83    7.00
   5   4  12   81.68    7.17
   5   4  13   58.30    5.79
   5   4  13   44.83    5.42
   5  -4  13   54.69    5.55
   5   4  14   13.13    2.65
   5  -4  14   12.37    2.77
   5   4  14    6.16    1.71
   5   4  15   30.26    4.51
   5  -4  15   19.95    3.36
   5   4  15   20.72    3.36
   5  -4  16   41.67    4.99
   5   4  16   50.07    5.57
   5   4  16   51.38    5.88
   5  -4  17  117.02    8.36
   5   4  17  142.81    9.22
   5   4  17  129.17    9.71
   5   4  18    4.44    1.98
   5   4  18    5.20    2.15
   5   4  19    0.80    0.90
   5   4  20   29.07    4.63
   5   4  21   11.51    3.31
   5   4  22    4.81    2.87
   5   4  23   11.18    1.70
   5   4  24   18.28    4.04
   5   4  25   12.39    4.39
   5   4  26    2.64    2.58
   5  -5 -27    3.63    1.68
   5  -5 -26    3.68    2.13
   5  -5 -25    8.32    2.84
   5  -5 -24   28.24    5.09
   5  -5 -23    8.65    3.47
   5  -5 -22    1.45    0.95
   5  -5 -21   23.49    4.67
   5  -5 -20   42.21    5.99
  -5  -5 -20   62.68    7.28
   5  -5 -20   48.38    6.39
  -5  -5 -19    0.88    1.94
   5  -5 -19    2.93    1.30
   5  -5 -19    5.65    2.53
   5  -5 -18    6.76    2.57
  -5  -5 -18    4.31    2.58
   5  -5 -18    1.38    1.45
   5  -5 -17   35.89    5.31
  -5  -5 -17   30.88    4.92
   5  -5 -17   30.33    4.87
   5   5 -16    1.41    0.83
  -5  -5 -16    4.62    2.34
   5  -5 -16    5.75    2.01
   5  -5 -16    1.89    1.54
   5   5 -15   81.25    7.41
   5  -5 -15   89.29    7.98
   5  -5 -15   88.28    7.95
  -5  -5 -15   93.22    8.15
  -5  -5 -14   29.88    4.33
   5  -5 -14   28.39    4.53
   5   5 -14   32.15    4.46
   5  -5 -14   33.95    5.07
   5   5 -13    0.91    1.30
  -5  -5 -13   -0.18    1.06
   5  -5 -13    0.72    0.95
   5   5 -12   14.41    3.04
   5  -5 -12   18.37    4.13
   5  -5 -12   17.92    3.54
  -5  -5 -12   15.45    3.10
  -5   5 -11   98.34    6.97
  -5  -5 -11   89.75    7.35
   5  -5 -11  105.05    8.22
   5  -5 -11  106.66    8.47
   5   5 -11  113.73    8.29
  -5   5 -10   27.37    3.68
   5  -5 -10   30.37    4.59
   5   5 -10   28.98    4.24
   5  -5 -10   16.23    3.32
  -5  -5 -10   23.61    3.61
   5  -5  -9   72.89    6.70
   5  -5  -9   60.58    6.47
   5   5  -9   61.87    6.09
  -5   5  -9   65.12    5.73
   5   5  -8    9.91    1.78
   5   5  -8   15.14    2.87
   5  -5  -8   18.94    3.75
  -5   5  -8   15.14    2.77
   5  -5  -8   14.03    2.92
   5   5  -7   14.63    2.80
   5   5  -7   13.62    2.33
   5  -5  -7   17.73    3.40
  -5   5  -7   15.71    2.91
   5  -5  -7   16.59    3.09
   5  -5  -6  187.75   10.67
   5   5  -6  172.51    9.80
  -5   5  -6  185.02    9.77
   5  -5  -6  178.90   10.05
   5   5  -6  180.86    8.44
   5  -5  -5  103.58    7.52
   5   5  -5  102.58    7.63
  -5   5  -5  105.67    7.32
   5  -5  -5  102.40    7.74
   5   5  -5  103.32    6.54
   5  -5  -4    4.95    1.78
   5   5  -4    6.69    2.18
   5   5  -4    3.30    1.45
   5  -5  -4    4.90    2.00
  -5   5  -4    5.88    2.16
   5   5  -3   27.36    4.10
   5   5  -3   26.30    3.30
  -5   5  -3   17.58    3.13
   5  -5  -3   21.38    3.42
   5  -5  -3   23.66    3.92
   5  -5  -2   18.58    3.31
   5   5  -2   23.53    3.62
   5   5  -2   26.17    3.62
   5  -5  -2   21.94    3.55
   5   5  -1   33.33    4.21
   5   5  -1   41.77    4.42
   5  -5  -1   40.36    4.46
   5  -5  -1   34.01    4.58
   5   5   0  108.99    7.87
   5  -5   0  126.79    7.91
   5   5   0  115.95    7.56
   5  -5   0  122.55    8.33
   5   5   1   42.41    4.63
   5  -5   1   36.18    4.26
   5   5   1   44.63    5.05
   5  -5   1   42.47    4.83
   5  -5   2   20.16    3.23
   5  -5   2   14.91    2.87
   5   5   2   23.03    3.58
   5   5   2   24.38    3.40
   5   5   3   27.44    3.68
   5   5   3   22.03    3.45
   5  -5   3   29.43    4.13
   5  -5   3   27.74    3.80
   5  -5   4    8.45    2.56
   5   5   4    9.82    2.55
   5   5   4    7.24    2.10
   5  -5   4    7.70    2.32
   5   5   5   92.99    7.34
   5   5   5   97.80    7.36
   5  -5   5   97.38    6.87
   5  -5   5   99.17    7.60
   5   5   6  173.22    9.91
   5   5   6  186.01   10.35
   5  -5   6  180.92    9.42
   5  -5   6  182.77   10.32
   5   5   7   18.40    3.48
   5  -5   7   15.16    3.09
   5   5   7   15.89    3.04
   5  -5   7   12.22    2.27
   5  -5   8   17.66    2.98
   5  -5   8   13.02    2.57
   5   5   8   18.01    3.11
   5   5   8   11.81    2.61
   5   5   9   55.74    5.91
   5   5   9   65.98    6.33
   5  -5   9   70.72    6.30
   5  -5   9   60.86    5.95
   5   5  10   28.63    4.39
   5   5  10   27.28    4.43
   5  -5  10   18.75    3.52
   5   5  11  102.93    8.25
   5   5  11  112.50    8.43
   5  -5  11   94.06    7.75
   5  -5  12   11.24    2.69
   5   5  12   11.63    2.66
   5   5  12   10.25    2.38
   5  -5  13   -0.40    0.96
   5   5  13    2.54    1.74
   5   5  13    0.10    1.04
   5  -5  14   39.08    4.74
   5   5  14   35.21    4.88
   5   5  14   34.39    4.81
   5  -5  15   85.92    7.04
   5   5  15   82.95    7.53
   5   5  15   80.10    7.68
   5   5  16    1.32    1.03
   5   5  16    0.81    1.44
   5   5  17   24.13    4.31
   5   5  17   23.23    4.30
   5   5  18    4.68    2.14
   5   5  18    6.60    3.22
   5   5  19    2.88    1.39
  -5   5  20   60.89    7.40
   5   5  20   52.71    6.72
  -5   5  21   34.37    5.89
   5   5  21   20.41    4.37
  -5   5  22   -2.61    2.26
   5   5  22    1.69    2.07
  -5   5  23    7.30    3.17
  -5   5  23    4.20    2.12
   5   5  23    5.20    2.47
   5   5  24   25.81    4.67
   5   5  25    7.32    2.45
   5   5  26    1.64    1.28
   5   5  27    0.66    1.56
   5  -6 -25    0.61    1.49
   5  -6 -24    3.88    2.21
   5  -6 -23   -1.22    1.11
   5  -6 -22    6.99    2.82
   5  -6 -21    2.29    1.76
   5  -6 -20   -0.27    2.18
  -5  -6 -20   -0.96    1.44
   5  -6 -20    3.17    1.49
  -5  -6 -19   -0.04    1.50
   5  -6 -19   -1.28    1.92
   5  -6 -19    0.08    1.28
  -5  -6 -18    3.56    2.17
   5  -6 -18    2.60    1.67
   5  -6 -18    2.55    0.90
  -5  -6 -17    5.15    1.41
   5  -6 -17    6.46    2.13
   5  -6 -16    9.31    2.93
  -5  -6 -16   11.57    2.94
   5  -6 -16    8.39    3.18
   5   6 -15   21.15    3.84
  -5  -6 -15   20.80    4.34
   5  -6 -15   18.46    4.16
   5  -6 -15   20.24    4.25
   5   6 -14    2.29    0.81
   5  -6 -14    7.93    2.20
   5  -6 -14    4.27    1.74
  -5  -6 -14    4.21    2.10
   5   6 -13   10.71    2.91
  -5  -6 -13    7.80    2.80
   5  -6 -13    7.85    2.63
   5  -6 -13   12.17    3.02
   5   6 -12   35.54    4.94
   5  -6 -12   44.27    5.63
   5  -6 -12   40.14    5.71
  -5  -6 -12   41.82    5.55
   5   6 -11   11.75    2.64
  -5  -6 -11    7.83    2.39
   5  -6 -11    7.83    2.45
   5  -6 -11    4.39    2.42
   5   6 -10    2.98    1.92
   5  -6 -10    7.59    2.83
  -5  -6 -10    7.30    2.32
  -5   6 -10    5.75    2.39
   5  -6 -10    1.24    1.88
   5   6  -9   27.43    4.34
  -5   6  -9   21.08    3.98
   5  -6  -9   24.94    4.40
   5  -6  -9   18.73    3.70
   5   6  -8   18.41    3.54
  -5   6  -8   24.15    3.83
   5  -6  -8   19.25    3.27
   5  -6  -8   22.27    4.17
  -5   6  -7   44.04    5.12
   5   6  -7   56.90    6.05
   5  -6  -7   46.71    5.78
   5  -6  -7   45.52    5.51
   5   6  -7   44.45    4.58
   5   6  -6    6.72    1.95
  -5   6  -6    4.22    1.97
   5  -6  -6    5.70    2.03
   5  -6  -6    5.25    2.30
   5   6  -6    2.53    1.43
   5   6  -5    5.99    1.96
   5   6  -5    5.13    2.25
   5  -6  -5    6.23    2.05
  -5   6  -5    4.43    1.79
   5  -6  -5    5.00    2.28
   5   6  -4   64.66    5.62
   5  -6  -4   64.65    6.06
  -5   6  -4   69.19    6.40
   5   6  -4   66.40    6.59
   5  -6  -4   70.43    6.83
  -5   6  -3   15.76    3.05
   5   6  -3   17.33    3.52
   5  -6  -3   14.86    2.87
   5  -6  -3   15.98    3.28
   5   6  -3   15.53    2.88
   5   6  -2   39.37    5.18
   5   6  -2   40.03    4.77
   5  -6  -2   33.77    4.73
  -5   6  -2   29.32    4.19
   5  -6  -2   35.63    4.74
   5   6  -1   41.30    5.24
   5   6  -1   29.23    3.87
  -5   6  -1   41.28    5.07
   5  -6  -1   45.41    4.97
   5  -6  -1   42.33    5.34
   5   6   0   34.90    4.88
   5   6   0   30.32    4.14
  -5   6   0   33.05    4.59
   5  -6   0   37.53    4.79
   5  -6   0   34.01    4.36
   5  -6   1   38.63    4.74
   5   6   1   38.10    4.75
   5   6   1   37.18    4.67
  -5   6   1   40.62    5.04
   5  -6   1   28.78    4.17
   5   6   2   41.69    5.18
   5   6   2   37.37    4.83
  -5   6   2   38.18    4.88
   5  -6   2   33.83    4.36
   5  -6   2   39.09    5.16
   5  -6   3   16.48    3.27
   5   6   3   15.22    3.36
  -5   6   3   19.13    3.41
   5  -6   3   12.71    3.06
   5   6   3   15.68    2.88
  -5   6   4   70.05    6.78
   5   6   4   63.69    6.47
   5  -6   4   52.99    5.33
   5  -6   4   55.39    5.78
   5   6   4   55.87    6.05
   5  -6   5    3.81    1.08
   5   6   5    5.83    2.11
  -5   6   5    9.28    2.33
   5  -6   5    0.77    1.32
   5   6   5    5.23    1.58
   5  -6   6    4.91    1.49
   5   6   6    5.74    2.62
   5  -6   6    3.61    1.06
   5   6   6    0.30    0.72
   5   6   7   47.72    5.77
   5   6   7   50.87    5.74
   5  -6   7   43.71    5.14
   5  -6   7   54.97    5.91
   5   6   8   21.31    4.00
   5   6   8   16.30    3.62
   5  -6   8   12.32    2.59
   5  -6   8   23.00    3.81
   5   6   9   21.54    3.99
   5  -6   9   15.16    3.28
   5  -6   9   18.03    3.23
   5   6   9   14.78    3.15
   5  -6  10    4.38    1.69
   5   6  10    3.84    2.09
   5  -6  10    3.87    1.82
   5   6  10    7.64    1.99
   5  -6  11    4.43    1.82
   5   6  11    8.84    2.74
   5   6  11    5.07    2.17
  -5   6  11    6.44    2.28
   5  -6  11    6.89    1.97
   5   6  12   37.73    5.32
  -5   6  12   21.93    4.20
   5   6  12   36.56    5.11
   5  -6  12   32.08    4.54
   5  -6  12   33.00    4.93
   5  -6  13   12.85    2.85
   5   6  13   10.61    2.89
  -5   6  13    5.13    1.12
   5  -6  13    6.85    2.44
   5   6  13    6.78    2.67
   5  -6  14    6.01    3.08
   5   6  14    6.83    2.65
   5   6  14    6.56    2.69
  -5   6  14    6.29    2.35
  -5   6  15   14.43    3.32
   5   6  15   23.41    4.02
   5   6  15   21.91    3.97
   5   6  16    9.20    2.40
   5   6  16   12.69    3.26
  -5   6  16    7.76    2.86
  -5   6  17    7.29    2.58
   5   6  17    6.97    2.51
   5   6  17    4.97    2.39
   5   6  18    3.93    2.09
   5   6  18    1.66    1.65
  -5   6  18    0.80    1.36
   5   6  19   -0.84    2.10
   5   6  19   -1.15    2.41
  -5   6  19    0.24    1.32
  -5   6  20    4.59    2.72
   5   6  20    7.66    2.99
  -5   6  21    4.38    2.72
   5   6  21    0.82    2.07
  -5   6  22    8.60    3.35
   5   6  22    6.47    2.67
   5   6  23    0.16    1.57
  -5   6  23    1.53    1.92
  -5   6  23   -0.05    1.92
  -5   6  24    4.36    2.85
   5   6  24   -0.12    2.00
   5   6  25   -2.01    3.08
   5  -7 -23    2.52    2.17
   5  -7 -22    6.87    2.76
   5  -7 -21   21.66    4.75
   5  -7 -20    6.93    3.16
   5  -7 -19   24.39    4.76
  -5  -7 -19   18.22    3.59
   5  -7 -19   23.91    4.67
  -5  -7 -18   18.87    4.28
   5  -7 -18   26.58    4.74
   5  -7 -18   20.94    4.07
  -5  -7 -17   23.24    4.40
   5  -7 -17   20.27    4.78
   5  -7 -17   18.16    3.55
  -5  -7 -16   29.46    5.20
   5  -7 -16   35.86    5.35
   5  -7 -16   19.08    4.05
  -5  -7 -15   -1.56    1.95
   5  -7 -15    3.83    1.95
   5  -7 -15    3.40    2.29
   5   7 -14   14.45    3.65
  -5  -7 -14   10.09    3.18
   5  -7 -14   16.71    3.82
   5  -7 -14   19.04    4.33
   5  -7 -13   22.90    4.47
  -5  -7 -13   12.23    2.86
   5   7 -13   15.75    3.85
   5  -7 -13   10.90    3.24
   5   7 -12   17.39    3.49
  -5  -7 -12    9.75    2.86
   5  -7 -12   18.09    3.70
   5  -7 -12   11.43    3.32
   5   7 -11   54.36    6.24
   5  -7 -11   58.71    6.56
   5  -7 -11   58.49    6.79
  -5  -7 -11   64.88    6.86
   5  -7 -10   74.16    7.74
   5   7 -10   81.25    7.82
  -5   7 -10   82.36    7.60
   5  -7 -10   85.47    7.93
  -5   7  -9   50.98    6.05
   5  -7  -9   45.71    6.00
   5   7  -9   51.80    6.25
   5  -7  -9   46.93    6.01
  -5   7  -8   59.35    6.61
   5  -7  -8   51.79    5.89
   5  -7  -8   49.31    6.27
   5   7  -8   60.40    6.69
   5  -7  -7   61.97    6.57
   5   7  -7   65.83    6.99
  -5   7  -7   61.13    6.56
   5  -7  -7   59.17    6.89
   5   7  -6   18.63    4.20
   5  -7  -6   26.00    4.23
   5   7  -6   25.45    3.86
  -5   7  -6   19.95    3.83
   5  -7  -6   25.15    4.20
   5   7  -5   64.07    6.85
   5   7  -5   50.50    5.63
  -5   7  -5   57.82    6.43
   5  -7  -5   62.05    6.56
   5   7  -4   20.92    3.77
   5   7  -4   15.71    3.80
  -5   7  -4   11.20    2.81
   5  -7  -4   16.94    3.48
   5  -7  -4   20.99    3.86
   5  -7  -3    5.48    2.42
   5   7  -3    4.82    2.37
  -5   7  -3    6.11    2.05
   5   7  -3    4.17    1.80
   5  -7  -3    2.11    1.28
   5   7  -2   26.23    4.16
  -5   7  -2   22.62    4.21
   5  -7  -2   19.80    3.94
   5  -7  -2   22.41    3.89
   5   7  -2   19.57    3.73
   5  -7  -1   55.76    6.25
   5   7  -1   59.43    6.49
   5   7  -1   55.73    6.07
  -5   7  -1   62.50    6.69
   5  -7  -1   41.81    5.00
   5   7   0    3.54    1.78
   5   7   0    3.01    1.77
   5  -7   0    4.96    2.11
  -5   7   0    7.83    3.05
   5  -7   0    5.53    1.93
   5   7   1   58.58    6.35
   5   7   1   64.24    6.49
  -5   7   1   60.83    6.66
   5  -7   1   49.17    5.56
   5  -7   1   57.32    6.38
   5   7   2   28.66    4.84
   5   7   2   17.82    3.48
   5  -7   2   19.37    3.87
  -5   7   2   18.30    3.59
   5  -7   2   17.06    3.37
   5  -7   3    2.37    0.83
   5   7   3    4.40    1.96
  -5   7   3    0.39    1.54
   5  -7   3    3.04    1.52
   5   7   3    4.95    2.37
   5  -7   4   21.63    3.94
   5   7   4   18.27    3.54
  -5   7   4   16.69    3.82
   5   7   4   19.21    4.02
   5  -7   4   19.88    3.65
   5   7   5   67.54    6.82
   5  -7   5   55.70    6.13
   5   7   5   60.24    6.52
  -5   7   5   63.41    6.82
   5  -7   5   69.83    6.74
   5   7   6   25.30    4.50
   5   7   6   27.82    4.41
  -5   7   6   24.49    4.47
   5  -7   6   30.65    4.52
   5  -7   6   29.28    4.58
   5   7   7   71.66    7.39
   5   7   7   53.37    6.20
   5  -7   7   54.34    5.95
   5  -7   7   62.72    6.68
  -5   7   7   53.27    6.64
   5   7   8   53.41    6.23
   5   7   8   52.70    6.18
  -5   7   8   59.81    6.85
   5  -7   8   49.58    5.93
   5   7   9   57.91    6.67
   5   7   9   43.80    5.47
   5  -7   9   54.50    6.05
  -5   7   9   39.54    5.63
   5   7  10   83.89    8.30
   5   7  10   78.89    7.73
  -5   7  10   86.26    8.37
   5  -7  10   81.69    7.72
   5   7  11   61.11    6.93
   5   7  11   50.49    6.09
  -5   7  11   53.91    7.04
   5  -7  11   64.61    6.88
  -5   7  12   14.14    3.65
   5  -7  12   12.42    2.96
   5   7  12   14.40    3.64
   5   7  12   21.03    3.96
   5  -7  13   10.58    2.64
   5   7  13    9.62    2.97
  -5   7  13    6.26    2.10
   5   7  14    9.93    3.22
  -5   7  14    4.50    1.33
  -5   7  15    1.54    1.53
   5   7  15    6.46    2.57
   5   7  15    1.96    2.51
   5   7  16   27.00    4.70
   5   7  16   28.53    4.98
  -5   7  16   23.91    4.87
   5   7  17   19.85    4.25
   5   7  17   19.61    4.17
  -5   7  17   25.84    4.98
   5   7  18   17.11    4.13
  -5   7  18   17.58    4.62
   5   7  18   12.38    3.69
   5   7  19    8.93    2.82
   5   7  19    8.34    3.47
   5   7  20   11.34    2.99
  -5   7  20   11.74    3.58
  -5   7  21   21.66    4.75
   5   7  21   20.98    4.49
  -5   7  22    5.39    3.32
   5   7  22    6.19    2.65
  -5   7  23    0.44    1.30
  -5   7  23   -0.41    1.24
   5   7  23   -0.03    1.73
   5  -8 -21   -2.47    2.16
   5  -8 -20    1.68    1.54
   5  -8 -19    2.12    1.22
   5  -8 -18    1.00    1.71
   5  -8 -18    1.08    1.47
   5  -8 -17    1.31    2.16
   5  -8 -17    1.93    2.28
   5  -8 -16    2.20    1.86
   5  -8 -16   -1.04    2.13
   5  -8 -15   17.07    3.67
   5  -8 -15    9.47    3.01
   5   8 -14    4.42    2.42
   5  -8 -14    1.09    2.01
   5  -8 -14    2.27    1.96
   5   8 -13    0.53    1.31
   5  -8 -13    1.71    1.99
   5  -8 -13    0.50    1.13
   5  -8 -12    5.93    2.11
   5  -8 -12    6.21    2.24
   5   8 -12    7.03    2.86
   5   8 -11    4.85    2.80
   5  -8 -11   -0.01    1.28
   5  -8 -11    3.73    1.18
   5   8 -10    2.29    2.32
   5  -8 -10    3.59    1.86
   5  -8 -10    4.70    2.13
   5   8  -9   -0.50    1.08
   5  -8  -9    1.30    1.61
  -5   8  -9    1.54    1.78
   5  -8  -9    0.88    1.67
   5  -8  -8   11.28    3.21
   5   8  -8    9.26    2.94
  -5   8  -8   12.16    3.37
   5  -8  -8   12.79    3.47
   5   8  -7   10.73    3.44
   5  -8  -7    9.32    2.79
  -5   8  -7   11.94    2.99
   5  -8  -7    6.95    2.15
   5  -8  -6   16.13    3.52
   5   8  -6   11.52    2.75
  -5   8  -6   14.27    3.64
   5  -8  -6    8.19    2.67
   5   8  -5    0.33    1.78
   5   8  -5    3.60    2.61
   5  -8  -5    0.46    1.08
  -5   8  -5    1.27    1.02
   5  -8  -5    1.75    1.50
   5  -8  -4    5.93    2.10
  -5   8  -4   12.84    3.52
   5   8  -4   10.72    3.05
   5   8  -4    3.83    1.60
   5  -8  -4    6.55    2.27
   5   8  -3    5.98    2.13
  -5   8  -3    0.06    0.96
   5  -8  -3    4.79    2.17
   5  -8  -3    3.82    1.97
   5   8  -3    5.56    2.27
   5   8  -2    4.69    2.17
   5   8  -2    6.89    1.84
  -5   8  -2    8.45    2.91
   5  -8  -2    5.41    2.63
   5  -8  -2    6.55    2.40
   5   8  -1   -0.67    1.09
   5   8  -1   -2.29    2.26
  -5   8  -1   -1.26    1.84
   5  -8  -1    2.50    1.54
   5  -8  -1    2.41    1.93
   5   8   0   53.03    6.77
   5   8   0   36.60    5.17
  -5   8   0   54.02    6.80
   5  -8   0   50.65    6.23
   5  -8   0   44.73    6.13
  -5   8   1    3.28    2.23
   5   8   1    0.56    1.46
   5   8   1    4.17    2.64
   5  -8   1    1.40    1.66
   5  -8   1    0.83    1.20
   5   8   2    7.20    2.72
   5   8   2   10.57    3.35
  -5   8   2    5.65    2.44
   5  -8   2    7.59    2.20
   5  -8   2    6.72    2.59
   5   8   3    3.04    1.44
   5   8   3    2.30    1.84
  -5   8   3    0.93    1.34
   5  -8   3    4.13    2.15
   5   8   4   13.28    3.43
   5   8   4    6.72    2.36
  -5   8   4    9.74    2.92
   5  -8   4    6.51    2.52
   5   8   5   -1.25    2.39
  -5   8   5   -0.12    0.94
   5   8   5   -0.79    1.49
   5  -8   5    3.00    2.36
   5   8   6   13.64    3.72
   5  -8   6   13.37    3.46
   5   8   6   13.82    3.10
  -5   8   6   18.93    3.81
  -5   8   7    9.12    3.30
   5   8   7    5.46    2.46
   5  -8   7    5.47    2.05
   5   8   7   11.59    3.64
   5   8   8   13.53    3.58
  -5   8   8    9.17    2.83
   5   8   8   10.74    3.08
   5  -8   8    7.52    2.50
   5   8   9   -1.20    1.63
  -5   8   9    1.04    1.54
   5   8   9    0.95    1.19
   5  -8   9    2.58    1.64
   5   8  10    1.34    2.03
  -5   8  10    2.70    1.81
   5   8  10    3.31    1.83
   5  -8  10    4.91    2.02
   5   8  11    4.87    2.40
   5   8  11    1.95    0.80
  -5   8  11    2.98    2.25
   5  -8  11    4.15    2.56
   5   8  12    8.63    2.97
  -5   8  12    4.43    3.21
   5   8  12    8.43    2.78
   5   8  13   -0.70    1.62
  -5   8  13   -1.74    2.21
   5   8  13   -0.05    1.01
   5   8  14    1.39    1.80
   5   8  14    4.20    2.52
  -5   8  14    3.76    2.80
   5   8  15    9.99    3.05
   5   8  15   12.01    3.55
  -5   8  15    7.85    2.67
  -5   8  16    1.51    1.94
   5   8  16    2.88    2.46
   5   8  16    2.15    1.33
   5   8  17    0.74    1.26
   5   8  17    0.49    1.71
   5   8  18    3.25    2.01
   5   8  18    1.64    2.42
  -5   8  18   -0.14    1.54
   5   8  19   -0.53    1.13
   5   8  19   -1.01    1.57
   5   8  20   -0.09    1.44
  -5   8  20   -2.94    1.55
   5   8  21   -0.19    1.27
  -5   8  21    2.29    1.74
   5  -9 -18    7.38    3.24
   5  -9 -17    5.68    2.52
   5  -9 -17    6.83    3.04
   5  -9 -16   18.91    4.19
   5  -9 -16   22.58    4.59
   5  -9 -15   12.63    3.82
   5  -9 -15    6.75    2.75
   5  -9 -14    0.58    1.81
   5  -9 -14    0.84    1.17
   5   9 -13    9.53    3.08
   5  -9 -13    4.89    2.97
   5  -9 -13    3.71    1.59
   5   9 -12   15.14    4.07
   5  -9 -12   17.27    3.93
   5  -9 -12   14.11    3.40
   5   9 -11   22.09    4.60
   5  -9 -11   19.24    4.24
   5  -9 -11   20.19    4.42
   5   9 -10   23.12    5.19
   5  -9 -10   23.46    4.14
   5  -9 -10   15.70    3.56
   5   9  -9   19.19    3.90
   5  -9  -9   12.27    3.60
   5  -9  -9   24.54    4.60
   5   9  -8   10.27    3.49
   5  -9  -8   14.39    3.61
  -5   9  -8   12.87    3.87
   5  -9  -8   19.85    4.39
   5  -9  -7   50.38    6.74
   5   9  -7   41.81    6.22
  -5   9  -7   47.43    6.49
   5  -9  -7   33.91    5.81
   5  -9  -6   11.29    3.59
   5   9  -6   13.00    3.70
  -5   9  -6    4.82    1.57
   5  -9  -6    7.18    2.49
   5   9  -5   40.25    6.12
  -5   9  -5   47.37    6.48
   5  -9  -5   48.30    6.21
   5  -9  -5   54.88    7.04
   5   9  -4   22.78    4.45
  -5   9  -4   27.95    4.90
   5  -9  -4   17.00    4.14
   5  -9  -4   21.35    4.53
  -5   9  -3    0.60    1.65
   5   9  -3    1.54    1.62
   5   9  -3    2.10    1.22
   5  -9  -3    2.01    0.95
   5   9  -2    8.66    3.07
  -5   9  -2   14.03    3.78
   5  -9  -2   10.75    2.96
   5   9  -2   10.64    3.29
   5   9  -1   64.02    7.54
   5  -9  -1   74.15    8.00
   5   9  -1   69.40    7.68
  -5   9  -1   52.93    7.09
   5   9   0   12.83    3.46
   5   9   0   13.71    3.91
  -5   9   0    8.78    2.92
   5  -9   0   12.35    3.33
   5   9   1   70.78    7.73
   5   9   1   58.31    7.10
  -5   9   1   62.79    7.45
   5  -9   1   68.75    8.07
   5   9   2   12.06    3.32
  -5   9   2   19.09    4.24
   5   9   2   12.24    3.95
   5  -9   2    7.03    2.02
   5   9   3    1.28    2.55
  -5   9   3    2.79    2.25
   5   9   3    3.12    2.28
   5  -9   3   -1.17    1.79
   5   9   4   16.36    3.42
   5   9   4   20.69    4.44
  -5   9   4   26.81    4.87
   5  -9   4   10.87    2.75
   5   9   5   53.29    6.92
   5   9   5   51.36    6.60
  -5   9   5   49.73    6.63
   5  -9   5   58.44    7.23
   5   9   6    7.90    2.14
  -5   9   6    5.89    2.82
   5   9   6   12.96    3.34
   5  -9   6   14.64    4.24
   5   9   7   37.17    6.08
   5   9   7   31.08    4.97
  -5   9   7   45.02    6.28
   5  -9   7   28.78    5.29
   5   9   8   21.28    4.34
   5   9   8   16.11    4.02
  -5   9   8   10.44    3.06
   5  -9   8   14.22    3.81
   5   9   9   20.59    4.23
  -5   9   9   24.77    5.09
   5   9   9   18.45    4.18
   5  -9   9   24.56    4.70
  -5   9  10   21.42    4.76
   5   9  10   17.95    4.03
   5   9  10   10.86    3.22
   5  -9  10   28.77    5.39
   5   9  11   22.99    4.70
  -5   9  11   30.30    5.66
   5   9  11   23.77    4.65
  -5   9  12   15.17    3.94
   5   9  12   19.46    4.00
   5   9  13    4.96    2.95
   5   9  13    8.63    2.43
  -5   9  13    3.87    2.39
   5   9  14    0.70    1.92
   5   9  14    3.47    2.41
  -5   9  14    3.04    1.51
  -5   9  15    6.59    2.12
   5   9  15    5.63    2.04
   5   9  15    4.96    3.04
   5   9  16   25.08    5.25
   5   9  16   22.32    4.80
  -5   9  16   15.18    4.02
  -5   9  17   16.50    4.06
   5   9  17   12.11    3.67
   5   9  17    5.51    2.22
   5   9  18    3.00    2.22
  -5   9  18    8.84    2.47
   5   9  18   10.20    3.35
   5 -10 -14    4.36    2.90
   5 -10 -14    0.43    1.43
   5 -10 -13    0.35    1.36
   5 -10 -13   -0.84    1.44
   5  10 -12   -1.88    1.92
   5 -10 -12    2.69    2.40
   5 -10 -12    2.98    2.44
   5  10 -11    4.10    2.31
   5 -10 -11   -2.75    2.21
   5 -10 -10    9.56    3.48
   5  10 -10    4.67    2.88
   5  10  -9    0.28    1.17
   5 -10  -9    7.73    3.46
   5  10  -8   -0.05    1.00
  -5  10  -8    0.15    2.57
   5 -10  -8    4.91    2.52
   5  10  -7    7.09    2.64
  -5  10  -7    0.79    1.78
   5 -10  -7    3.42    2.28
   5  10  -6   -2.55    2.52
  -5  10  -6    2.52    2.36
   5 -10  -6    1.96    1.82
   5  10  -5    4.24    1.39
  -5  10  -5    4.02    2.30
   5 -10  -5    3.84    1.78
   5  10  -4    1.74    2.49
   5 -10  -4    0.82    2.21
  -5  10  -4   -0.54    1.43
  -5  10  -3    2.72    1.92
   5 -10  -3    3.03    2.30
   5  10  -3   -0.63    1.77
   5  10  -2    5.22    1.83
  -5  10  -2    2.22    1.17
   5 -10  -2    4.15    2.27
   5  10  -1    9.03    3.47
  -5  10  -1    7.34    2.94
   5 -10  -1    2.44    1.43
   5  10  -1    7.89    2.81
  -5  10   0    1.00    1.29
   5 -10   0    2.22    2.08
   5  10   0    0.63    2.10
   5  10   0    3.11    2.67
   5 -10   1   13.18    3.65
  -5  10   1    5.19    2.22
   5  10   1   11.74    3.10
   5  10   1   12.33    3.11
   5  10   2    9.66    3.32
  -5  10   2    8.36    3.15
   5 -10   2    5.54    2.50
   5  10   2    6.78    2.86
   5  10   3    3.60    1.85
  -5  10   3    8.12    3.65
   5 -10   3    4.95    2.57
   5  10   3    4.27    1.79
  -5  10   4    2.08    1.92
   5  10   4   -0.03    1.70
   5  10   4   -2.03    1.34
   5 -10   4   -0.65    1.51
   5  10   5    4.07    2.66
   5 -10   5    9.66    3.47
  -5  10   5    9.96    3.16
   5  10   5    5.45    2.31
   5 -10   6   -0.59    1.32
   5  10   6    2.65    2.51
  -5  10   6    0.47    1.60
   5  10   6    0.61    1.05
   5  10   7   -1.62    2.03
  -5  10   7    3.64    1.81
   5  10   7    1.31    1.86
   5 -10   7    2.80    1.98
   5  10   8    1.92    2.53
  -5  10   8   -0.91    1.11
   5 -10   8    2.61    1.26
   5  10   8    2.11    1.86
   5  10   9    0.37    1.76
   5  10   9    4.03    2.69
  -5  10   9    0.34    1.10
   5  10  10    8.92    3.56
   5  10  10    7.34    2.85
  -5  10  10    4.67    3.09
  -5  10  11    4.15    1.88
   5  10  11    1.59    2.72
   5  10  11    2.53    1.94
   5  10  12    3.48    2.97
  -5  10  12    3.89    2.68
   5  10  12    4.63    2.46
   5  10  13   -0.08    1.69
  -5  10  13   -2.06    2.69
   5  10  13    1.01    1.53
   5  10  14    1.05    2.17
   5  10  14   -0.78    1.60
  -5  10  14   -1.13    1.88
   5  11  -7    4.49    2.83
   5 -11  -7   -0.86    1.73
   5  11  -6    4.60    3.08
  -5  11  -6    3.85    2.94
   5 -11  -6    4.43    2.80
   5  11  -5   11.86    3.93
  -5  11  -5    5.69    1.80
   5 -11  -5   15.08    4.09
   5  11  -4    2.23    2.16
  -5  11  -4    3.30    2.61
   5 -11  -4    3.79    2.59
  -5  11  -3    1.93    2.00
   5  11  -3    2.64    1.24
   5 -11  -3    1.26    2.33
   5  11  -2    1.90    1.41
  -5  11  -2    0.50    1.94
   5 -11  -2    1.16    2.19
   5  11  -1   -1.80    1.70
  -5  11  -1    1.95    1.20
   5 -11  -1    0.77    2.04
  -5  11   0    5.21    2.65
   5  11   0    3.24    1.73
   5 -11   0    7.69    3.44
   5  11   1    5.86    3.25
  -5  11   1    1.46    1.20
   5  11   1    1.96    1.95
   5 -11   1    0.43    2.98
   5  11   2    5.41    2.59
  -5  11   2    1.01    1.80
   5  11   2    0.09    1.87
   5 -11   2   -3.64    2.90
   5  11   3    1.20    2.41
   5  11   3    0.84    1.35
   5 -11   3   -0.79    1.17
   5  11   4   -0.08    1.71
  -5  11   4    1.72    0.98
   5  11   4    2.42    2.41
   5 -11   4    6.44    2.86
   5  11   5    0.51    2.06
  -5  11   5    5.30    3.00
   5  11   5    5.28    3.06
   5 -11   5    8.68    3.11
   5  11   6    5.88    2.67
  -5  11   6    1.34    1.90
   5  11   6    1.21    0.87
   5 -11   6    4.66    3.68
   5  11   7    2.26    1.96
  -5  11   7    4.56    2.30
   5  11   7   -0.27    1.58
   5 -11   7    2.79    2.46
   6   0 -29    6.49    2.96
   6   0 -28   95.88    9.62
   6   0 -27   27.00    5.34
   6   0 -26    2.25    1.73
   6   0 -25   18.89    4.08
   6   0 -24   80.08    8.33
   6   0 -23    5.08    2.23
   6   0 -22   82.32    8.15
   6   0 -21   16.60    3.50
   6   0 -20    1.09    1.34
   6   0 -19   13.67    2.98
   6   0 -18    5.73    1.66
   6   0 -17   93.23    7.43
   6   0 -16  947.49   24.11
   6   0 -15  207.51   10.96
   6   0 -14  560.01   17.38
   6   0 -14  542.83   13.18
   6   0 -13   96.63    7.00
   6   0 -13   96.14    5.55
   6   0 -12   68.21    5.69
   6   0 -12   71.62    4.60
   6   0 -11   90.38    6.57
   6   0 -11   88.26    5.22
   6   0 -10  392.88   13.33
   6   0 -10  401.41   11.02
   6   0  -9  271.34    9.02
   6   0  -9  273.51   10.91
   6   0  -8  106.75    5.70
   6   0  -8  109.84    6.78
   6   0  -7   98.62    6.34
   6   0  -7  104.29    5.55
   6   0  -7   95.30    6.19
   6   0  -6  385.51   12.30
   6   0  -6  404.55   11.14
   6   0  -6  407.98   12.54
   6   0  -5 1144.50   20.77
   6   0  -5 1177.49   18.81
   6   0  -5 1144.11   20.59
   6   0  -4  627.21   15.14
   6   0  -4  649.21   14.00
   6   0  -3  664.40   14.41
   6   0  -3  671.18   15.41
   6   0  -3  665.75   15.09
   6   0  -2 3077.25   31.25
   6   0  -2 3178.77   32.24
   6   0  -2 3134.75   32.74
   6   0  -1 1088.22   18.70
   6   0  -1 1091.71   19.57
   6   0  -1 1107.51   18.87
   6   0   0  380.51   11.02
   6   0   0  384.42   10.99
   6   0   1 1066.63   18.62
   6   0   1 1084.00   18.29
   6   0   2 3013.84   30.06
   6   0   2 3145.84   32.27
   6   0   3  672.42   15.24
   6   0   3  669.97   13.83
   6   0   4  630.90   15.17
   6   0   4  648.39   13.47
   6   0   5 1144.08   17.89
   6   0   5 1149.62   20.75
   6   0   6  371.90   12.02
   6   0   6  397.30   10.21
   6   0   7   93.66    6.13
   6   0   7   91.71    4.80
   6   0   8  110.57    5.21
   6   0   8  100.40    6.51
   6   0   9  277.61    8.12
   6   0   9  282.02   11.05
   6   0  10  399.19    9.48
   6   0  10  383.21   13.13
   6   0  11   94.61    4.43
   6   0  11   94.65    6.61
   6   0  12   69.60    3.63
   6   0  12   72.72    5.93
   6   0  13   95.06    4.12
   6   0  13   86.93    6.70
   6   0  14  526.21   16.77
   6   0  15  214.68   10.79
   6   0  16  970.03   23.97
   6   0  17   79.87    7.00
   6   0  18    7.43    2.19
   6   0  19   11.88    2.66
   6   0  20   -0.15    1.14
   6   0  21   26.19    4.67
   6   0  22   68.49    7.16
   6  -1 -29    2.63    2.14
   6  -1 -28    5.10    2.10
   6  -1 -27    3.29    1.96
   6   1 -26   -5.11    2.13
   6  -1 -26    5.38    1.91
   6   1 -25    4.91    1.81
   6  -1 -25    7.10    2.47
   6   1 -24    4.93    2.03
   6  -1 -24    2.63    1.34
   6   1 -23   16.60    3.51
   6  -1 -23   21.05    4.12
   6   1 -22    5.13    2.73
   6  -1 -22   10.34    3.31
   6  -1 -21   24.51    4.29
   6   1 -21   20.80    3.72
   6   1 -20   58.52    6.41
   6  -1 -20   56.15    6.65
   6   1 -19   15.03    3.20
   6  -1 -19   16.47    3.52
   6   1 -18    7.36    2.52
   6  -1 -18   10.72    2.49
   6  -1 -17    9.13    2.47
   6   1 -17   12.93    2.87
   6  -1 -16   21.02    3.29
   6  -1 -16   18.92    3.53
   6   1 -16   12.23    2.56
   6   1 -15   60.60    5.58
   6  -1 -15   67.84    6.62
   6  -1 -15   64.40    5.32
   6  -1 -14  193.07    8.95
   6   1 -14  192.35    9.88
   6  -1 -14  178.18   10.10
   6  -1 -13   23.96    3.57
   6   1 -13   20.88    3.21
   6  -1 -13   21.64    3.00
   6   1 -13   29.32    3.91
   6  -1 -12   50.38    4.49
   6   1 -12   48.89    4.69
   6  -1 -12   51.15    5.26
   6   1 -12   48.00    3.25
   6   1 -12   53.32    5.04
   6   1 -11   49.72    4.67
   6  -1 -11   55.64    5.26
   6  -1 -11   38.59    3.89
   6   1 -11   47.02    4.71
   6   1 -11   42.57    3.17
   6  -1 -10    2.01    0.93
   6   1 -10    3.41    0.92
   6  -1 -10    4.66    1.53
   6   1 -10    1.59    0.84
   6   1 -10    3.04    1.19
   6  -1  -9   25.75    3.68
   6   1  -9   32.87    2.90
   6  -1  -9   29.53    3.32
   6   1  -9   26.15    3.23
   6   1  -9   31.71    3.68
   6   1  -8   23.88    2.49
   6   1  -8   25.34    3.17
   6   1  -8   25.29    3.32
   6  -1  -8   17.60    2.91
   6  -1  -8   23.38    2.89
   6  -1  -7  189.06    9.30
   6  -1  -7  188.68    8.21
   6   1  -7  194.57    7.01
   6   1  -7  189.75    8.28
   6   1  -7  192.73    8.80
   6  -1  -6  302.28   10.37
   6   1  -6  317.35    9.21
   6   1  -6  299.55   10.23
   6   1  -6  294.87   10.91
   6  -1  -5  427.46   12.34
   6   1  -5  441.81   10.98
   6   1  -5  438.07   12.05
   6   1  -5  408.35   12.57
   6  -1  -5  412.20   13.16
   6   1  -4   80.81    4.65
   6  -1  -4   70.26    4.95
   6  -1  -4   85.24    5.91
   6   1  -4   78.46    5.03
   6   1  -4   67.74    4.96
   6  -1  -3   53.60    4.30
   6  -1  -3   57.25    4.77
   6   1  -3   53.95    4.15
   6   1  -3   57.17    4.00
   6   1  -3   56.40    4.42
   6   1  -2    2.87    1.07
   6   1  -2    1.11    0.54
   6  -1  -2    0.40    0.65
   6  -1  -2    1.80    0.93
   6   1  -2    0.81    0.75
   6   1  -1    9.35    1.87
   6  -1  -1   11.85    1.90
   6  -1  -1    9.95    1.82
   6   1  -1   10.04    1.82
   6   1   0    1.31    0.43
   6   1   0    2.80    1.13
   6  -1   0    1.66    1.00
   6  -1   0    2.87    1.44
   6  -1   1    9.22    1.91
   6   1   1   10.90    1.86
   6  -1   1   11.15    2.06
   6   1   1   10.19    1.95
   6   1   2    0.27    0.48
   6  -1   2    2.47    1.11
   6   1   2    1.43    0.81
   6   1   3   46.98    4.11
   6  -1   3   49.86    4.32
   6   1   3   50.78    4.09
   6  -1   4   75.89    5.37
   6   1   4   64.93    4.93
   6   1   4   68.32    4.64
   6   1   5  410.05   12.91
   6  -1   5  426.96   12.90
   6   1   5  419.92   11.48
   6  -1   6  299.91   10.75
   6   1   6  304.09    9.52
   6   1   7  184.23    8.85
   6  -1   7  184.12    8.62
   6   1   8   24.02    3.31
   6   1   8   23.02    2.57
   6  -1   8   22.74    3.06
   6   1   9   26.89    3.51
   6  -1   9   34.34    3.92
   6   1   9   31.99    3.09
   6  -1  10    2.58    0.86
   6   1  10    2.01    0.84
   6   1  10    1.58    0.81
   6   1  11   43.53    4.67
   6  -1  11   42.03    4.37
   6   1  11   42.20    3.43
   6   1  12   46.13    4.97
   6  -1  12   49.07    4.77
   6   1  12   44.87    3.53
   6  -1  13   19.49    3.24
   6   1  13   23.57    3.58
   6   1  13   22.76    2.51
   6   1  14  176.99    9.90
   6  -1  14  177.64    9.46
   6   1  14  178.26    6.92
   6   1  15   59.24    5.78
   6   1  15   57.31    3.86
   6  -1  15   49.34    5.20
   6   1  16   20.92    3.45
   6  -1  16   20.34    3.46
   6  -1  17   11.55    2.58
   6   1  17    9.51    2.27
   6  -1  18    7.55    2.35
   6   1  18    3.56    1.51
   6  -1  19   17.93    3.58
   6   1  19   15.38    3.28
   6   1  20   59.45    6.62
   6  -1  20   60.81    6.41
   6  -1  21   23.69    4.02
   6   1  21   23.40    4.37
   6   1  22    4.73    0.99
   6   1  23   18.21    3.65
   6   1  24    4.81    2.29
   6  -2 -29    2.58    1.95
   6  -2 -28   26.09    5.01
   6  -2 -27    5.60    2.99
   6  -2 -26   -1.84    2.26
   6  -2 -25    2.76    1.99
   6  -2 -24   36.41    5.68
   6  -2 -23    0.97    1.12
   6  -2 -22    4.44    1.07
   6  -2 -21    3.81    1.92
   6   2 -21   -3.45    1.56
   6  -2 -20   11.91    2.86
   6   2 -20   16.47    3.56
   6   2 -19    1.44    1.06
   6  -2 -19    3.85    2.13
   6  -2 -18   22.94    4.65
   6   2 -18   17.55    3.36
   6   2 -17    0.58    1.25
   6  -2 -17    0.80    0.94
   6   2 -17    0.89    0.85
   6  -2 -17    2.81    2.08
   6   2 -16  130.06    8.33
   6  -2 -16  129.91    9.40
   6  -2 -16  146.17    8.95
   6   2 -16  124.85    8.35
   6   2 -15   84.23    6.42
   6  -2 -15   85.59    7.43
   6  -2 -15   79.74    6.52
   6   2 -15   89.30    6.69
   6   2 -14  321.00   12.16
   6  -2 -14  324.05   14.14
   6  -2 -14  318.35   12.77
   6   2 -14  314.01   12.79
   6  -2 -13   25.47    4.04
   6   2 -13   20.78    3.21
   6   2 -13   22.67    3.48
   6  -2 -13   24.06    3.52
   6   2 -12   55.87    4.90
   6  -2 -12   52.40    5.44
   6  -2 -12   53.36    4.95
   6   2 -12   69.66    5.71
   6  -2 -11   50.64    4.91
   6   2 -11   48.79    4.30
   6  -2 -11   43.80    4.96
   6   2 -11   43.40    4.60
   6   2 -10   35.40    2.67
   6   2 -10   33.61    3.46
   6  -2 -10   30.18    4.13
   6  -2 -10   34.34    3.98
   6   2 -10   33.13    3.95
   6   2  -9    2.51    1.24
   6  -2  -9    2.63    0.94
   6  -2  -9    3.61    1.48
   6   2  -9    0.82    0.43
   6   2  -9    0.85    0.51
   6  -2  -8    9.66    2.30
   6   2  -8    7.71    1.41
   6   2  -8    8.23    2.09
   6  -2  -8   12.11    2.60
   6   2  -8   11.97    2.15
   6   2  -7   11.00    1.54
   6   2  -7   11.10    2.18
   6  -2  -7    8.71    2.07
   6   2  -7    6.53    1.39
   6  -2  -6  134.54    8.03
   6   2  -6  145.18    5.99
   6   2  -6  125.83    7.34
   6  -2  -6  136.13    7.59
   6  -2  -5   35.82    3.79
   6   2  -5   38.71    3.41
   6  -2  -5   38.13    4.22
   6   2  -5   45.49    3.49
   6   2  -5   36.18    3.87
   6   2  -4    2.43    1.20
   6  -2  -4    4.73    1.54
   6   2  -4    3.56    0.93
   6   2  -4    0.65    0.56
   6  -2  -4    1.60    1.43
   6   2  -3   26.32    2.83
   6  -2  -3   31.73    3.66
   6  -2  -3   27.28    3.39
   6   2  -3   26.90    2.72
   6   2  -3   36.20    3.80
   6   2  -2  287.79    9.43
   6  -2  -2  257.71   10.30
   6   2  -2  277.09    8.89
   6  -2  -2  252.56   10.63
   6   2  -2  265.19   10.11
   6   2  -1   46.95    4.30
   6   2  -1   43.27    3.95
   6  -2  -1   47.77    4.44
   6  -2  -1   43.20    4.32
   6   2   0    1.84    1.12
   6  -2   0    0.95    0.54
   6  -2   0    1.41    1.17
   6   2   0    1.33    0.65
   6   2   1   50.49    4.35
   6  -2   1   52.40    4.57
   6  -2   1   51.12    4.56
   6   2   2  276.04   10.06
   6  -2   2  266.75   10.36
   6   2   2  256.68    9.83
   6  -2   2  285.84   10.78
   6   2   3   31.80    3.42
   6  -2   3   31.33    3.56
   6   2   3   34.97    3.66
   6   2   4    2.18    1.10
   6   2   4    1.88    1.14
   6  -2   4    3.70    1.12
   6   2   5   38.56    3.78
   6  -2   5   38.61    3.99
   6   2   5   42.69    4.25
   6   2   6  144.32    7.30
   6  -2   6  142.86    7.77
   6   2   6  143.63    7.94
   6   2   7    4.74    1.65
   6   2   7    7.29    1.60
   6  -2   7    6.23    1.53
   6   2   8    6.36    1.60
   6   2   8   11.81    2.46
   6  -2   8   11.30    2.18
   6   2   9    2.56    1.57
   6   2   9    1.06    0.42
   6  -2   9    2.71    0.84
   6   2  10   43.83    3.97
   6   2  10   40.19    4.52
   6  -2  10   29.74    3.76
   6   2  11   39.36    3.67
   6   2  11   39.68    4.56
   6  -2  11   42.26    4.55
   6   2  12   48.66    4.25
   6   2  12   59.38    5.56
   6  -2  12   47.95    4.86
   6   2  13   24.81    3.04
   6   2  13   20.65    3.61
   6  -2  13   28.76    3.82
   6   2  14  296.27   10.73
   6   2  14  343.49   14.23
   6  -2  14  327.96   13.41
   6   2  15   84.67    5.77
   6   2  15   79.70    7.13
   6  -2  15   91.90    7.19
   6   2  16  128.49    7.02
   6   2  16  140.07    9.46
   6  -2  16  131.49    8.71
   6   2  17    2.88    1.96
   6  -2  17    3.19    1.63
   6  -2  18   14.02    3.14
   6   2  18   15.13    3.35
   6  -2  19    1.07    1.28
   6   2  19    2.84    1.83
   6   2  20   22.49    4.36
   6  -2  20   11.75    2.91
   6   2  21    6.40    2.76
   6   2  22    4.54    1.64
   6   2  23    4.90    2.60
   6   2  24   25.12    4.85
   6   2  25    3.10    2.04
   6  -3 -28    1.17    1.63
   6  -3 -27    2.40    1.87
   6  -3 -26    7.95    3.22
   6  -3 -25   19.81    4.19
   6  -3 -24    3.24    1.92
   6  -3 -23    1.64    1.01
   6  -3 -22   -1.33    1.73
   6  -3 -21    3.77    2.04
   6  -3 -20   23.47    4.62
   6  -3 -19   52.09    6.18
   6  -3 -18   29.87    4.76
   6  -3 -18   36.86    4.95
   6  -3 -17   74.07    7.24
   6  -3 -17   67.40    6.54
   6   3 -17   67.45    6.46
   6  -3 -16   35.57    5.14
   6  -3 -16   25.17    4.10
   6   3 -16   29.55    4.20
   6  -3 -15   13.16    2.92
   6  -3 -15   13.80    3.03
   6   3 -15   16.89    2.97
   6  -3 -14  103.21    7.91
   6   3 -14  113.14    6.99
   6  -3 -14   98.56    8.18
   6   3 -14  118.73    8.08
   6   3 -13   32.15    3.40
   6  -3 -13   29.13    3.99
   6   3 -13   31.81    4.06
   6  -3 -12   35.32    4.76
   6   3 -12   36.11    3.60
   6   3 -12   48.72    5.12
   6  -3 -12   38.30    4.78
   6  -3 -11  100.79    7.78
   6   3 -11   94.40    5.57
  -6   3 -11   95.58    5.26
   6  -3 -11   90.56    6.95
   6   3 -11   91.55    6.83
   6  -3 -10   14.19    2.75
   6   3 -10   16.95    3.02
   6   3 -10   16.89    2.01
   6   3 -10   14.38    2.03
   6  -3 -10   17.30    3.37
   6  -3  -9   34.28    4.45
   6   3  -9   35.31    3.23
   6   3  -9   33.74    2.69
   6  -3  -9   37.36    4.57
   6   3  -9   37.41    4.32
   6  -3  -8   34.38    4.34
   6  -3  -8   31.45    4.19
   6   3  -8   36.29    3.17
   6   3  -8   35.70    2.94
   6   3  -8   28.57    3.68
   6   3  -7  203.71    9.87
   6  -3  -7  202.07   10.11
   6   3  -7  224.47    7.80
   6   3  -6  186.39    7.33
   6  -3  -6  196.84   10.08
   6   3  -6  195.11    6.97
   6  -3  -6  189.16    9.79
   6   3  -6  172.79    9.06
   6   3  -5  270.81    9.18
   6  -3  -5  272.53   11.80
   6   3  -5  259.84    7.87
   6   3  -5  269.39   11.19
   6  -3  -5  262.16   11.40
   6   3  -4  180.94    9.07
   6   3  -4  170.74    7.45
   6  -3  -4  179.38    9.40
   6   3  -4  165.15    6.29
   6  -3  -4  187.24    9.51
   6   3  -3  415.86   13.74
   6   3  -3  389.75   11.62
   6  -3  -3  413.53   14.15
   6   3  -3  412.22   10.25
   6  -3  -3  407.30   13.93
   6  -3  -2   49.34    4.68
   6   3  -2   53.48    4.94
   6  -3  -2   48.65    4.74
   6   3  -2   49.05    4.28
   6   3  -1   44.96    4.46
   6  -3  -1   46.40    4.60
   6   3  -1   48.05    4.18
   6  -3  -1   53.24    5.00
   6   3   0   20.82    3.08
   6  -3   0   24.09    3.47
   6   3   0   22.78    3.03
   6  -3   0   20.78    3.11
   6   3   1   57.51    4.95
   6  -3   1   51.10    4.90
   6   3   1   45.72    4.22
   6  -3   1   57.84    5.10
   6  -3   2   50.90    4.78
   6   3   2   46.79    4.44
   6  -3   2   55.79    5.08
   6   3   2   53.12    4.71
   6   3   3  393.78   13.16
   6  -3   3  429.78   14.01
   6   3   3  395.88   13.14
   6  -3   3  380.38   13.18
   6  -3   4  190.18    9.30
   6  -3   4  164.47    8.65
   6   3   4  169.75    8.73
   6   3   4  179.06    8.88
   6   3   5  253.97   10.57
   6  -3   5  263.55   11.21
   6   3   5  269.60   11.09
   6   3   6  212.97    9.66
   6  -3   6  189.45    9.45
   6   3   6  183.93    9.36
   6   3   7  207.51   10.14
   6   3   7  192.57    9.28
   6  -3   7  212.17   10.09
   6   3   8   39.63    4.23
   6  -3   8   31.01    4.10
   6   3   8   36.07    4.10
   6   3   9   31.36    3.83
   6  -3   9   27.45    3.65
   6   3   9   34.56    4.30
   6   3  10   15.19    2.62
   6  -3  10   16.96    2.85
   6   3  10   16.81    2.80
   6   3  11   88.88    6.43
   6   3  11  103.81    7.64
   6  -3  11   91.44    6.88
   6   3  12   39.52    4.27
   6  -3  12   41.64    4.66
   6   3  12   47.08    5.28
   6   3  13   38.09    4.33
   6  -3  13   34.68    4.32
   6   3  13   35.57    4.64
   6   3  14  100.29    6.92
   6  -3  14  103.54    7.69
   6   3  14   88.42    7.40
   6   3  15   16.46    2.70
   6   3  15   15.05    3.52
   6  -3  15   13.09    2.85
   6  -3  16   24.87    4.02
   6   3  16   37.16    4.99
   6   3  16   35.07    4.11
   6  -3  17   51.92    5.85
   6   3  17   67.69    6.86
   6  -3  18   23.66    4.05
   6   3  18   33.26    4.94
   6  -3  19   53.34    5.94
   6   3  19   66.25    6.97
   6   3  20   17.39    3.89
   6   3  21    2.30    1.20
   6   3  22    1.23    1.27
   6   3  23    0.97    1.26
   6   3  24    3.56    1.74
   6   3  25   24.62    5.03
   6   3  26    4.91    2.09
   6  -4 -28   12.55    3.56
   6  -4 -27   -0.90    1.67
   6  -4 -26   -0.20    0.92
   6  -4 -25    2.26    1.33
   6  -4 -24   37.93    5.93
   6  -4 -23   11.05    3.09
   6  -4 -22   14.22    3.21
   6  -4 -21   13.52    3.42
   6  -4 -20   11.73    2.87
   6  -4 -20   12.93    3.85
   6  -4 -19    3.80    1.90
   6  -4 -19   -0.48    1.01
   6  -4 -18  122.87    9.80
   6  -4 -18  103.86    8.82
   6  -4 -17   26.93    4.57
   6   4 -17   23.67    3.65
   6  -4 -17   25.16    4.53
   6   4 -16   17.44    3.45
   6  -4 -16   15.15    3.30
   6  -4 -16   18.26    3.77
   6  -4 -15   22.63    4.15
   6  -4 -15   16.93    3.33
   6   4 -15   24.02    3.95
   6   4 -14    5.09    2.58
   6  -4 -14    3.43    2.01
   6  -4 -14    4.72    1.87
   6  -4 -13   33.05    4.74
   6  -4 -13   39.04    4.97
   6   4 -13   39.29    4.88
   6  -4 -12  210.25   11.81
   6  -4 -12  211.96   11.53
   6   4 -12  222.23   11.20
  -6   4 -11   79.95    5.74
   6  -4 -11   86.03    7.48
   6  -4 -11   88.76    7.38
   6   4 -11   78.76    6.71
   6   4 -10   14.83    2.94
  -6   4 -10   20.75    3.12
   6  -4 -10   23.05    4.01
   6  -4 -10   19.31    3.46
   6   4  -9   53.79    5.33
   6   4  -9   48.03    3.78
   6  -4  -9   59.58    5.98
  -6   4  -9   57.37    4.91
   6  -4  -9   56.09    5.77
   6   4  -8  256.83    8.89
   6  -4  -8  288.92   13.02
   6  -4  -8  273.43   12.64
   6   4  -7   21.57    3.54
   6  -4  -7   17.90    3.04
   6   4  -7   22.82    2.63
   6  -4  -7   15.60    2.82
   6   4  -6   45.62    4.83
   6  -4  -6   50.89    5.45
   6   4  -6   43.57    4.00
   6  -4  -6   46.14    5.25
   6   4  -5  296.33   12.32
   6   4  -5  293.64    7.13
   6  -4  -5  297.64   12.85
   6   4  -5  296.17   10.61
   6  -4  -5  293.45   12.82
   6  -4  -4    0.55    0.78
   6   4  -4   -1.15    0.93
   6   4  -4   -0.03    0.64
   6  -4  -4    0.41    0.75
   6   4  -4    1.30    0.60
   6   4  -3  112.06    7.89
   6  -4  -3  115.64    7.94
   6   4  -3  116.58    5.04
   6   4  -3  111.00    6.63
   6  -4  -3  119.18    8.28
   6   4  -2   68.46    5.81
   6  -4  -2   66.38    5.93
   6   4  -2   73.16    5.50
   6  -4  -2   59.46    5.80
   6   4  -1   42.25    4.52
   6   4  -1   52.45    4.77
   6  -4  -1   53.89    5.23
   6  -4  -1   48.75    5.21
   6   4   0   85.58    6.56
   6  -4   0   76.14    6.23
   6   4   0   71.60    5.72
   6  -4   0   71.42    6.34
   6  -4   1   51.36    5.11
   6   4   1   56.28    5.23
   6   4   1   45.31    4.65
   6  -4   1   53.94    5.18
   6  -4   2   76.90    6.33
   6   4   2   69.90    5.94
   6  -4   2   74.31    6.14
   6   4   2   72.13    5.77
   6  -4   3  126.00    8.07
   6   4   3  105.40    7.42
   6   4   3  117.99    7.74
   6  -4   3  109.38    7.37
   6   4   4   -0.13    0.85
   6  -4   4    0.79    0.81
   6  -4   4    0.45    1.09
   6   4   4   -0.16    0.66
   6  -4   5  282.81   12.37
   6   4   5  289.70   12.28
   6  -4   5  300.99   12.48
   6   4   5  284.82   12.18
   6  -4   6   40.87    4.71
   6   4   6   40.75    4.67
   6  -4   6   47.35    4.95
   6   4   6   46.33    4.90
   6  -4   7   18.10    3.21
   6   4   7   20.74    3.25
   6   4   7   11.64    2.56
   6  -4   8  265.74   12.10
   6   4   8  281.98   12.22
   6   4   8  289.27   12.86
   6   4   9   52.34    5.33
   6  -4   9   61.33    5.71
   6   4   9   57.00    5.91
   6   4  10   16.85    3.09
   6  -4  10   14.43    2.80
   6   4  10   16.80    3.42
   6   4  11   79.05    6.67
   6  -4  11   75.54    6.51
   6   4  11   69.25    6.66
   6   4  12  207.95   10.82
   6  -4  12  213.64   11.20
   6   4  12  203.13   11.32
   6   4  13   44.33    5.17
   6  -4  13   35.00    4.56
   6   4  13   42.44    5.30
   6   4  14    1.73    0.81
   6  -4  14    5.74    1.79
   6   4  14    4.40    1.77
   6   4  15   22.38    3.58
   6  -4  15   16.89    3.43
   6   4  15   21.32    3.66
   6   4  16   19.34    3.62
   6   4  16   15.78    3.71
   6  -4  16   15.34    3.17
   6   4  17   21.45    4.22
   6   4  17   28.37    4.31
   6  -4  17   22.13    3.80
   6   4  18  119.77    9.56
   6   4  19    2.57    2.42
   6   4  20    7.90    2.37
   6   4  21   22.07    4.37
   6   4  22   23.86    4.44
   6   4  23   10.02    3.24
   6   4  24   22.78    4.53
   6   4  25    5.61    2.97
   6   4  26    6.53    1.31
   6   4  27    4.06    2.18
   6  -5 -26    1.97    1.49
   6  -5 -25   12.76    3.65
   6  -5 -24    2.68    2.22
   6  -5 -23    0.95    0.95
   6  -5 -22   15.12    4.00
   6  -5 -21   10.66    3.04
   6  -5 -21    4.49    2.14
   6  -5 -20    0.66    1.25
   6  -5 -20    2.21    2.55
   6  -5 -19    0.97    1.02
   6  -5 -19    3.25    1.96
   6  -5 -18    5.93    2.28
   6  -5 -18    0.93    2.02
   6  -5 -17    6.28    2.40
   6  -5 -17   12.40    3.21
   6   5 -16    5.04    1.78
   6  -5 -16    8.44    2.42
   6  -5 -16    4.15    2.84
   6   5 -15    8.98    2.83
   6  -5 -15    7.43    1.85
   6  -5 -15    8.53    2.62
   6   5 -14    6.90    2.32
   6  -5 -14   10.36    3.04
   6  -5 -14   10.16    3.01
   6  -5 -13   42.49    5.65
   6  -5 -13   35.66    5.24
   6   5 -13   33.73    4.65
   6   5 -12    5.93    2.00
   6  -5 -12    5.27    1.97
   6  -5 -12    3.99    1.88
   6   5 -11    3.02    1.50
   6  -5 -11    2.08    1.89
   6  -5 -11    4.58    2.47
   6   5 -10    3.57    1.91
  -6   5 -10    6.46    1.85
   6  -5 -10    5.40    1.75
   6  -5 -10    6.38    2.19
   6   5  -9   17.46    3.32
  -6   5  -9   16.77    3.03
   6  -5  -9   18.47    3.49
   6  -5  -9   10.49    2.08
   6   5  -8   16.05    3.24
   6   5  -8   18.44    2.69
  -6   5  -8   14.99    2.82
   6  -5  -8   15.87    3.22
   6  -5  -8   14.48    3.09
   6   5  -7    9.81    2.67
   6   5  -7    9.36    1.88
  -6   5  -7    9.61    2.64
   6  -5  -7    8.23    2.25
   6  -5  -7    6.67    2.13
   6  -5  -6    5.22    1.92
   6   5  -6    1.67    0.80
   6   5  -6    2.96    1.21
  -6   5  -6    8.97    2.29
   6  -5  -6    6.45    2.29
   6   5  -5   23.76    3.61
   6  -5  -5   21.43    3.61
   6   5  -5   17.17    2.81
   6  -5  -5   28.42    4.25
   6   5  -4   44.80    5.03
   6  -5  -4   49.34    5.50
   6   5  -4   43.50    4.49
   6  -5  -4   39.93    4.94
   6  -5  -3   45.28    5.29
   6   5  -3   43.44    4.88
   6   5  -3   38.41    4.42
   6  -5  -3   50.09    5.41
   6   5  -2   44.03    5.00
   6  -5  -2   30.57    4.20
   6  -5  -2   34.25    4.51
   6   5  -2   35.12    4.20
   6   5  -1    8.67    2.24
   6   5  -1    9.77    2.30
   6  -5  -1   15.44    3.18
   6  -5  -1   10.15    2.33
   6  -5   0   11.24    2.69
   6   5   0   10.75    2.46
   6   5   0   11.10    2.65
   6  -5   0   11.81    2.80
   6  -5   1   13.43    3.52
   6   5   1    9.20    2.52
   6   5   1    9.98    2.39
   6  -5   1   16.08    3.08
   6   5   2   35.52    4.46
   6  -5   2   30.01    4.29
   6  -5   2   34.36    4.41
   6   5   2   33.08    4.15
   6   5   3   52.92    5.34
   6   5   3   48.48    5.07
   6  -5   3   47.70    5.16
   6  -5   3   36.16    4.69
   6   5   4   50.28    5.41
   6  -5   4   43.68    5.04
   6   5   4   47.51    5.13
   6  -5   4   36.47    4.65
   6   5   5   22.23    3.99
   6  -5   5   23.49    3.87
   6   5   5   22.54    3.56
   6  -5   5   23.12    3.54
   6  -5   6    1.91    1.05
   6   5   6    4.91    2.02
   6   5   6    5.00    2.32
   6  -5   6    7.33    2.19
   6  -5   7   12.23    2.74
   6  -5   7   10.72    2.76
   6   5   7    9.28    2.42
   6   5   7   13.48    2.99
   6   5   8   13.92    3.12
   6  -5   8   12.43    2.71
   6   5   8   20.96    3.51
   6  -5   8   15.58    2.93
   6  -5   9    9.59    2.05
   6   5   9   15.11    3.17
   6  -5   9   14.62    3.07
   6   5  10    4.53    2.19
   6  -5  10    4.87    0.87
   6   5  10    8.54    2.54
   6   5  11    3.24    1.62
   6  -5  11    1.01    0.74
   6   5  11    3.10    1.73
   6   5  12    8.02    2.30
   6   5  12    4.07    2.09
   6  -5  12    6.42    2.46
   6  -5  13   35.17    4.85
   6   5  13   44.95    5.34
   6   5  13   30.80    4.93
   6   5  14    9.77    2.73
   6  -5  14   15.82    3.68
   6   5  15    7.90    2.30
   6  -5  15   11.11    3.00
   6   5  15    5.89    2.75
   6   5  16    5.84    1.89
   6  -5  16    5.95    2.73
   6   5  16    6.19    2.48
   6   5  17   14.10    3.56
   6   5  17   17.33    3.77
   6   5  18    7.25    2.99
   6   5  18    5.36    1.89
   6   5  19    1.99    1.64
   6   5  20    0.43    1.42
   6   5  21    5.67    2.25
  -6   5  22    7.68    2.08
   6   5  22    4.30    1.16
  -6   5  23    3.31    2.07
   6   5  23    0.94    1.75
   6   5  24   -1.22    1.93
   6   5  25   11.10    3.81
   6   5  26    9.03    3.61
   6  -6 -25   11.35    4.01
   6  -6 -24   13.51    4.37
   6  -6 -23    1.10    1.26
   6  -6 -22   45.74    6.65
   6  -6 -21   13.33    3.52
   6  -6 -21   14.88    4.21
   6  -6 -20    0.34    0.99
   6  -6 -20    2.62    2.18
   6  -6 -19    9.06    2.78
   6  -6 -19    9.04    3.46
   6  -6 -18   79.20    8.38
   6  -6 -18   88.45    8.67
   6  -6 -17   10.21    3.33
   6  -6 -17    9.11    3.53
   6   6 -16    1.89    1.15
   6  -6 -16    0.13    0.99
   6  -6 -16    1.68    1.63
   6   6 -15    4.56    2.04
   6  -6 -15    5.48    1.95
   6  -6 -15    6.22    1.82
   6   6 -14    2.04    1.59
   6  -6 -14    2.59    2.23
   6  -6 -14    3.00    1.28
   6   6 -13    4.46    1.71
   6  -6 -13    9.72    2.49
   6  -6 -13    7.34    2.48
   6   6 -12   82.47    7.71
   6  -6 -12   78.49    7.77
   6  -6 -12   87.83    8.27
   6   6 -11   20.06    3.94
   6  -6 -11   16.56    3.32
   6  -6 -11   19.10    3.71
   6  -6 -10    2.43    1.96
   6   6 -10    0.46    0.72
  -6   6 -10    2.19    2.00
   6  -6 -10    0.85    1.44
   6   6  -9   19.13    3.73
   6  -6  -9   18.39    4.00
  -6   6  -9   15.78    3.12
   6  -6  -9   20.64    4.23
   6   6  -8  200.67   11.70
  -6   6  -8  195.66   11.26
   6  -6  -8  224.72   12.53
   6  -6  -8  199.15   11.97
   6  -6  -7   38.21    5.23
  -6   6  -7   27.73    4.34
   6   6  -7   30.42    4.06
   6  -6  -7   33.44    4.90
   6   6  -7   38.03    5.12
   6  -6  -6    0.49    1.20
   6   6  -6    1.32    1.15
  -6   6  -6   -0.10    0.91
   6   6  -6    0.84    1.07
   6  -6  -6   -0.42    1.08
   6   6  -5   35.95    4.62
   6  -6  -5   29.89    4.28
   6   6  -5   29.23    3.99
  -6   6  -5   21.33    3.55
   6  -6  -5   35.77    5.16
   6   6  -4  109.12    8.48
   6  -6  -4   86.76    7.54
  -6   6  -4   93.94    7.79
   6  -6  -4  100.40    8.32
   6   6  -4   99.79    7.43
   6   6  -3    1.81    1.05
  -6   6  -3    1.16    1.46
   6   6  -3    1.07    1.18
   6  -6  -3    2.96    2.24
   6  -6  -3    0.25    1.01
   6   6  -2  180.51   10.98
   6  -6  -2  190.10   11.33
  -6   6  -2  182.53   10.75
   6  -6  -2  168.41   10.28
   6   6  -2  168.29    9.89
   6   6  -1   33.09    4.34
   6   6  -1   41.27    5.53
  -6   6  -1   31.25    4.58
   6  -6  -1   40.21    5.31
   6  -6  -1   33.22    4.68
   6   6   0    1.91    1.03
   6   6   0    3.37    1.71
   6  -6   0    0.51    1.58
   6  -6   0    2.94    1.03
   6   6   1   37.44    4.73
   6   6   1   43.60    5.26
   6  -6   1   31.20    4.41
   6  -6   1   40.60    5.30
   6   6   2  186.88   10.71
   6   6   2  190.44   10.94
   6  -6   2  161.07    9.95
   6  -6   2  184.12   11.05
   6   6   3    2.35    2.10
   6   6   3    3.68    2.21
   6  -6   3    1.91    0.96
   6  -6   3    5.10    2.36
   6   6   4   94.51    7.93
   6   6   4   98.57    8.27
   6  -6   4  106.50    8.21
   6  -6   4   94.03    7.88
   6   6   5   18.82    3.89
   6   6   5   33.55    4.73
   6  -6   5   23.64    4.02
   6  -6   5   29.02    4.58
   6  -6   6    0.08    1.33
   6   6   6    1.26    1.50
   6   6   6    0.08    0.71
   6  -6   6    1.65    1.97
   6   6   7   35.51    5.00
   6   6   7   28.81    4.60
   6  -6   7   36.76    5.07
   6  -6   7   30.34    4.52
   6   6   8  207.08   11.94
   6   6   8  207.13   11.93
   6  -6   8  200.26   11.18
   6  -6   8  220.93   12.41
   6  -6   9   20.26    4.03
   6   6   9   16.71    4.20
   6   6   9   10.72    2.36
   6  -6   9   15.63    3.12
   6  -6  10    1.23    0.91
   6   6  10    0.04    1.09
   6   6  10    2.72    2.02
   6  -6  10    0.89    1.13
   6   6  11   29.41    4.76
   6  -6  11   22.37    4.17
   6   6  11   20.84    3.78
   6  -6  11   23.62    4.04
   6  -6  12   75.92    7.33
   6   6  12   80.77    7.82
   6  -6  12   78.89    7.61
   6   6  12   84.96    7.91
   6  -6  13    8.30    2.34
   6   6  13    7.42    2.62
   6   6  13    6.38    2.11
   6  -6  13   11.43    2.77
   6   6  14    1.84    1.73
   6  -6  14   -1.24    1.52
   6   6  14    1.48    1.56
   6   6  15    4.66    2.20
   6  -6  15    4.02    1.53
   6   6  15    0.90    0.95
   6   6  16   -1.76    1.36
   6   6  16   -0.31    1.01
   6   6  17   14.24    3.38
  -6   6  17   10.69    2.92
   6   6  17    9.96    3.03
   6   6  18   97.74    9.31
  -6   6  18   89.26    8.89
   6   6  18   94.84    9.21
   6   6  19    9.98    3.59
  -6   6  19    9.84    3.28
  -6   6  20    3.27    2.26
   6   6  20    2.41    2.12
  -6   6  21   16.07    4.23
   6   6  21   11.19    3.20
  -6   6  22   44.90    7.06
   6   6  22   50.53    7.15
  -6   6  23    0.72    2.04
   6   6  23    3.44    1.93
   6   6  24   25.20    4.93
   6   6  25    4.38    1.20
   6  -7 -23    6.57    3.49
   6  -7 -22   -4.60    2.82
   6  -7 -21   21.64    4.76
   6  -7 -21   14.51    3.76
   6  -7 -20    9.66    2.79
   6  -7 -20    3.68    1.48
   6  -7 -19   11.60    3.38
   6  -7 -19    3.64    1.42
   6  -7 -18   15.61    3.94
   6  -7 -18   15.39    3.65
   6  -7 -17    2.53    1.68
   6  -7 -17   11.91    4.09
   6  -7 -16    9.90    2.85
   6  -7 -16    7.09    3.09
   6  -7 -15    6.73    2.92
   6   7 -15    6.92    2.29
   6  -7 -15    5.65    2.18
   6  -7 -14    1.89    1.90
   6   7 -14    4.68    2.04
   6  -7 -14    1.24    1.02
   6  -7 -13   23.94    4.60
   6   7 -13   18.09    3.91
   6  -7 -13   21.43    4.34
   6   7 -12    5.97    2.45
   6  -7 -12    8.33    3.09
   6  -7 -12    7.64    2.81
   6   7 -11    0.75    1.22
   6  -7 -11    0.04    1.63
   6   7 -10   22.76    4.46
   6  -7 -10   22.32    4.51
   6  -7 -10   20.75    4.31
   6   7  -9    5.24    2.08
  -6   7  -9    6.98    3.09
   6  -7  -9   -0.09    1.47
   6  -7  -9    6.76    2.80
   6  -7  -8   41.82    5.61
   6   7  -8   31.71    4.94
  -6   7  -8   28.18    4.38
   6  -7  -8   44.12    6.15
   6   7  -7    7.12    2.78
  -6   7  -7    6.27    2.48
   6  -7  -7    7.83    2.79
   6  -7  -7    7.93    2.73
   6   7  -6    2.36    2.11
   6   7  -6    2.66    1.10
   6  -7  -6    1.01    0.99
  -6   7  -6    3.89    1.65
  -6   7  -5    7.81    1.90
   6   7  -5    9.72    2.77
   6   7  -5   13.92    2.90
   6  -7  -5   12.86    3.15
   6  -7  -5   15.16    3.21
   6   7  -4   55.82    6.54
  -6   7  -4   50.20    6.20
   6  -7  -4   45.06    5.85
   6  -7  -4   43.95    5.82
   6   7  -4   60.34    6.29
   6   7  -3   21.74    3.62
   6   7  -3   21.39    4.37
  -6   7  -3   18.79    3.88
   6  -7  -3   23.33    4.16
   6  -7  -3   19.57    4.22
   6   7  -2   68.26    6.66
   6   7  -2   60.51    6.80
  -6   7  -2   72.53    7.40
   6  -7  -2   61.76    6.52
   6  -7  -2   52.09    6.28
   6   7  -1    8.87    2.29
  -6   7  -1   13.44    3.22
   6   7  -1   11.14    3.19
   6  -7  -1    6.94    2.56
   6  -7  -1    4.47    2.41
   6  -7   0    2.28    1.23
   6   7   0    2.43    1.45
   6   7   0    1.06    1.61
  -6   7   0    3.48    1.80
   6  -7   0    2.99    1.96
   6  -7   1    5.36    2.09
  -6   7   1    6.13    1.92
   6  -7   1    5.82    1.81
   6   7   1    4.05    1.86
   6   7   2   70.29    7.20
   6   7   2   66.29    6.60
  -6   7   2   68.36    7.29
   6  -7   2   70.94    6.91
   6  -7   2   58.90    6.76
   6  -7   3   24.51    4.19
  -6   7   3   16.56    3.56
   6   7   3   17.65    3.88
   6   7   3   26.00    4.20
   6  -7   3   17.49    3.20
   6  -7   4   55.71    6.17
   6   7   4   57.47    6.39
   6   7   4   52.55    6.24
  -6   7   4   47.23    6.00
   6  -7   4   53.33    6.31
   6  -7   5    6.23    2.32
   6   7   5   13.58    3.22
   6   7   5   16.18    3.46
   6  -7   5   15.89    3.49
  -6   7   5   13.74    3.20
   6  -7   6    5.39    1.93
   6   7   6    6.56    3.21
  -6   7   6    2.22    1.77
   6   7   6    1.29    1.16
   6  -7   6    0.74    1.32
   6  -7   7    4.62    2.08
   6   7   7   10.36    2.85
   6  -7   7    4.73    2.17
   6   7   7    7.49    2.14
  -6   7   7   11.50    3.37
  -6   7   8   28.35    4.80
   6   7   8   45.53    5.61
   6   7   8   46.25    5.97
   6  -7   8   38.79    5.49
   6  -7   8   43.39    5.80
   6  -7   9    4.17    2.27
   6   7   9    4.60    2.28
   6   7   9    4.14    1.70
   6  -7   9    2.06    1.64
  -6   7   9    6.84    2.75
   6   7  10   25.03    4.59
  -6   7  10   23.15    4.40
   6  -7  10   27.01    4.74
   6   7  10   25.98    4.79
   6  -7  11    5.81    2.45
   6   7  11    3.78    1.83
   6   7  11    4.41    1.60
  -6   7  11    4.80    2.05
   6  -7  12    5.90    2.86
   6   7  12    7.10    3.10
   6   7  12    9.80    3.01
  -6   7  12   10.77    3.35
   6  -7  13   16.45    3.83
   6   7  13   20.46    4.19
   6   7  13   17.11    3.69
  -6   7  13   17.37    3.59
   6   7  14    9.97    3.57
   6   7  14    6.18    2.88
  -6   7  14    2.04    2.31
   6   7  15    7.66    2.67
   6   7  15   10.31    2.42
  -6   7  15    7.03    3.00
   6   7  16    1.92    0.97
   6   7  16    7.47    2.15
  -6   7  16    5.88    2.75
   6   7  17    1.84    1.56
  -6   7  17    1.31    1.57
  -6   7  18   10.68    3.27
   6   7  18   22.11    4.46
   6   7  18   16.99    4.09
  -6   7  19   12.85    3.25
   6   7  19    8.50    3.38
   6   7  20    5.96    2.33
  -6   7  20   14.66    3.81
  -6   7  21   16.94    4.11
   6   7  21   22.12    4.64
   6   7  22    4.08    2.84
  -6   7  22   -0.31    1.92
   6   7  23    2.83    2.38
  -6   7  23    1.62    2.08
   6  -8 -21    8.25    3.33
   6  -8 -20    3.59    2.14
   6  -8 -20   10.46    4.04
   6  -8 -19    9.40    3.22
   6  -8 -19   13.55    3.47
   6  -8 -18   19.05    4.79
   6  -8 -18   16.84    4.14
   6  -8 -17   11.89    3.49
   6  -8 -17    9.21    3.27
   6  -8 -16   10.97    3.17
   6  -8 -16    8.42    2.82
   6  -8 -15   10.95    3.43
   6  -8 -15   11.73    3.55
   6   8 -14   19.04    4.37
   6  -8 -14   12.82    3.33
   6  -8 -14   22.63    4.46
   6  -8 -13   26.38    4.89
   6   8 -13   20.62    4.59
   6  -8 -13   20.10    4.50
   6   8 -12   27.41    4.92
   6  -8 -12   18.99    4.07
   6  -8 -12   29.03    4.73
   6  -8 -11   15.58    4.15
   6   8 -11   20.95    4.29
   6  -8 -11   12.09    3.67
   6   8 -10    6.13    2.62
   6  -8 -10    8.56    2.49
   6   8  -9    9.35    2.72
  -6   8  -9   13.44    4.07
   6  -8  -9   13.54    3.27
   6  -8  -9    7.61    2.98
   6   8  -8   49.51    6.43
  -6   8  -8   67.34    7.43
   6  -8  -8   48.53    6.39
   6  -8  -8   54.09    6.65
   6   8  -7   28.16    4.84
  -6   8  -7   22.18    4.75
   6  -8  -7   29.72    5.06
   6  -8  -7   28.50    4.68
   6   8  -6    5.85    2.31
  -6   8  -6    9.35    2.43
   6  -8  -6    4.80    1.73
   6  -8  -6    5.43    2.04
   6  -8  -5   20.82    4.20
   6   8  -5   16.04    3.72
  -6   8  -5   27.50    4.75
   6  -8  -5   25.52    4.73
   6   8  -4   24.21    4.12
   6   8  -4   24.22    4.35
  -6   8  -4   26.16    4.60
   6  -8  -4   29.45    4.87
   6  -8  -4   25.74    4.69
   6   8  -3    2.94    1.99
   6   8  -3   -0.24    1.04
   6  -8  -3   -0.32    1.36
  -6   8  -3    2.23    1.57
   6  -8  -3    1.03    2.07
   6   8  -2   35.27    5.06
  -6   8  -2   42.53    5.55
   6   8  -2   35.43    5.17
   6  -8  -2   43.25    5.80
   6  -8  -2   36.63    5.45
   6   8  -1    9.55    2.70
  -6   8  -1    6.52    2.63
   6  -8  -1    8.45    2.95
   6   8  -1    7.82    2.76
   6  -8  -1    9.56    3.16
  -6   8   0    0.80    1.63
   6   8   0    0.84    1.02
   6   8   0    2.87    2.16
   6  -8   0    1.94    2.20
   6  -8   0    0.52    1.28
   6   8   1    6.96    2.64
  -6   8   1   10.97    3.16
   6   8   1    7.19    2.72
   6  -8   1   10.27    3.39
   6  -8   1   10.64    2.84
   6   8   2   42.81    5.85
   6   8   2   30.38    4.95
  -6   8   2   30.70    5.28
   6  -8   2   42.59    5.86
   6  -8   2   37.23    5.67
   6  -8   3    2.01    1.81
   6   8   3   -0.19    1.38
  -6   8   3    1.91    1.37
   6   8   3    2.51    2.18
   6  -8   3    0.30    1.30
   6   8   4   30.55    4.72
   6   8   4   21.91    4.07
  -6   8   4   25.34    4.69
   6  -8   4   24.76    4.31
   6   8   5   20.99    4.47
  -6   8   5   20.34    4.06
   6   8   5   18.02    3.96
   6  -8   5    8.95    2.57
   6   8   6    4.26    1.05
  -6   8   6    5.56    2.97
   6   8   6    5.69    2.31
   6  -8   6    3.36    1.02
   6   8   7   31.00    5.12
   6  -8   7   24.87    4.90
  -6   8   7   18.07    3.90
   6   8   7   16.94    3.76
   6   8   8   45.52    5.99
   6   8   8   56.59    6.80
  -6   8   8   55.05    6.62
   6  -8   8   53.72    6.71
   6  -8   9    6.26    2.70
  -6   8   9   13.84    3.34
   6   8   9   12.46    3.94
   6   8   9   11.21    2.93
   6  -8  10    6.74    3.03
   6   8  10   10.82    3.54
   6   8  10   10.45    3.47
  -6   8  10   15.17    3.98
   6   8  11   16.12    3.71
   6   8  11    8.93    2.72
   6  -8  11   18.78    4.50
  -6   8  11   12.72    3.36
   6  -8  12   25.71    5.19
   6   8  12   27.65    4.68
   6   8  12   35.82    5.69
  -6   8  12   27.96    5.20
   6   8  13   24.72    4.59
   6   8  13   21.05    4.29
  -6   8  13   21.21    4.99
  -6   8  14   13.57    4.09
   6   8  14   16.43    4.09
   6   8  14   13.73    3.47
  -6   8  15   13.59    4.13
   6   8  15    8.50    3.08
   6   8  15    4.80    2.41
   6   8  16   10.64    3.18
   6   8  16   11.10    3.22
   6   8  17    7.64    2.80
   6   8  17    6.78    2.95
  -6   8  17   10.03    3.36
   6   8  18   28.02    5.00
   6   8  18   26.54    5.57
  -6   8  18   25.42    4.95
   6   8  19    9.49    3.43
  -6   8  19   12.57    3.94
   6   8  19   11.35    3.52
  -6   8  20    6.76    2.95
   6   8  20   15.02    4.43
  -6   8  21   12.08    4.06
   6   8  21    8.10    2.80
   6  -9 -17   -0.40    1.42
   6  -9 -17    2.50    1.29
   6  -9 -16    2.88    1.75
   6  -9 -16    0.21    1.21
   6  -9 -15    0.38    1.71
   6  -9 -15    0.57    1.31
   6   9 -14   -3.05    1.84
   6  -9 -14    3.45    2.54
   6  -9 -14    1.90    1.39
   6   9 -13   -1.17    2.49
   6  -9 -13    2.74    2.67
   6  -9 -13   -1.12    0.82
   6   9 -12   11.37    3.75
   6  -9 -12   10.06    3.41
   6  -9 -12    5.44    2.50
   6   9 -11    0.53    0.95
   6  -9 -11    0.51    1.72
   6  -9 -11    0.64    1.09
   6   9 -10   -0.41    1.24
   6  -9 -10   -0.66    0.94
   6  -9  -9    0.21    2.50
   6   9  -9    3.65    2.45
   6  -9  -9    3.59    2.41
   6  -9  -8    1.03    2.01
   6   9  -8    3.08    1.40
  -6   9  -8    2.34    2.31
   6  -9  -8    4.97    1.71
   6  -9  -7    0.68    1.46
   6  -9  -7    6.75    3.37
   6   9  -7    3.82    1.88
  -6   9  -7    1.77    1.56
   6   9  -6    5.57    2.70
   6  -9  -6    7.98    3.23
  -6   9  -6    1.29    1.41
   6  -9  -6   11.24    4.12
   6  -9  -5    4.63    1.86
   6   9  -5    6.75    1.96
   6  -9  -5    6.91    2.18
   6  -9  -4    1.96    2.38
   6   9  -4    1.64    1.25
  -6   9  -4    1.35    2.22
   6  -9  -4   -0.96    1.65
   6  -9  -3    2.17    1.96
   6   9  -3    2.09    1.83
   6   9  -3    4.77    2.69
  -6   9  -3    3.29    2.18
   6  -9  -3    6.01    2.51
   6   9  -2    2.28    1.92
  -6   9  -2   -0.77    1.63
   6   9  -2   -0.56    1.04
   6  -9  -2    3.91    2.31
  -6   9  -1    8.93    2.71
   6   9  -1    8.41    2.86
   6   9  -1   11.59    3.62
   6  -9  -1    6.98    2.10
  -6   9   0    2.44    1.80
   6   9   0    1.42    1.00
   6   9   0    3.59    2.42
   6  -9   0    5.70    2.38
   6   9   1    8.33    2.61
  -6   9   1    7.06    2.24
   6   9   1    8.11    3.01
   6  -9   1    7.90    3.22
   6   9   2   -2.51    2.46
  -6   9   2    2.91    2.68
   6   9   2    0.04    1.26
   6  -9   2    2.56    1.66
   6   9   3    3.56    2.18
   6   9   3    0.02    1.28
  -6   9   3    5.08    3.09
   6  -9   3    4.33    1.04
   6   9   4    1.26    1.85
  -6   9   4    0.67    1.76
   6   9   4    0.95    1.28
   6  -9   4    1.07    1.55
   6   9   5    5.90    2.60
  -6   9   5    4.92    2.41
   6   9   5    3.69    2.56
   6  -9   5   12.46    3.94
   6   9   6   11.80    3.74
  -6   9   6    6.47    3.19
   6   9   6    9.61    2.70
   6  -9   6   13.05    3.85
  -6   9   7    5.03    2.49
   6  -9   7    7.91    3.46
   6   9   7    4.88    2.44
   6   9   7   10.40    3.11
   6   9   8    2.95    2.05
   6   9   8    2.86    1.87
  -6   9   8    4.45    2.50
   6  -9   8    5.77    2.58
  -6   9   9   -0.02    1.23
   6   9   9    4.35    1.62
   6   9   9    7.33    2.75
   6  -9   9    3.42    2.43
   6   9  10   -1.20    2.01
   6   9  10   -0.15    0.99
  -6   9  10    0.70    2.01
   6  -9  10    5.08    2.51
   6   9  11   -0.50    2.03
   6   9  11    2.10    2.09
  -6   9  11   -1.54    2.57
   6   9  12   10.42    3.36
   6   9  12   12.58    3.53
  -6   9  12    8.44    2.80
   6   9  13   -0.75    2.57
   6   9  13   -1.38    1.84
  -6   9  13   -0.65    1.32
   6   9  14    4.83    2.21
  -6   9  14   -0.98    1.26
   6   9  14    5.33    2.28
   6   9  15    1.17    1.94
   6   9  15   -0.04    1.18
  -6   9  15   -1.07    2.16
   6   9  16   -1.59    0.85
   6   9  16   -0.17    2.55
  -6   9  16    0.35    1.14
   6   9  17   -0.73    1.02
   6   9  17   -0.25    1.46
  -6   9  17    0.10    1.69
   6 -10 -13    3.18    1.24
   6 -10 -13    2.05    1.46
   6  10 -12    6.59    2.79
   6 -10 -12    6.37    2.28
   6 -10 -12    1.72    2.06
   6  10 -11    5.18    3.02
   6 -10 -11    4.06    1.52
   6 -10 -11    5.94    1.88
   6  10 -10   -1.94    1.56
   6 -10 -10   -0.22    1.60
   6  10  -9   -1.61    1.71
   6 -10  -9    2.17    2.43
   6  10  -8   19.56    4.42
   6 -10  -8   16.22    4.41
   6  10  -7    8.50    2.74
  -6  10  -7    3.19    2.61
   6 -10  -7    4.56    2.51
   6  10  -6    3.42    1.27
   6 -10  -6    3.76    2.53
   6  10  -5    7.51    2.68
  -6  10  -5    7.31    3.09
   6 -10  -5    8.82    3.03
   6  10  -4   11.85    3.45
  -6  10  -4    8.94    3.26
   6 -10  -4   13.93    4.08
   6  10  -3    4.56    2.10
  -6  10  -3    3.07    1.20
   6 -10  -3    1.29    2.13
   6  10  -2   18.93    4.46
  -6  10  -2   15.93    4.02
   6 -10  -2   21.83    4.81
   6  10  -1    5.46    1.92
  -6  10  -1    5.72    2.28
   6  10  -1    1.91    1.23
   6 -10  -1    7.40    3.28
   6  10   0    0.03    0.97
  -6  10   0   -1.27    2.10
   6  10   0   -0.30    1.23
   6 -10   0   -0.53    1.74
   6 -10   1    8.29    3.08
   6  10   1    2.33    2.41
  -6  10   1   10.18    4.22
   6  10   1    4.77    1.83
   6  10   2   14.09    4.07
  -6  10   2   22.57    4.85
   6  10   2   12.42    3.76
   6 -10   2   21.46    4.33
   6  10   3    3.79    2.29
   6  10   3    4.14    2.47
  -6  10   3    1.79    1.68
   6 -10   3    0.20    1.61
   6  10   4   11.61    3.30
   6  10   4   13.65    3.66
   6 -10   4   12.55    3.53
  -6  10   4    9.46    2.80
   6  10   5    8.17    3.30
  -6  10   5   10.36    3.84
   6 -10   5    8.72    3.17
   6  10   5    8.04    2.83
   6  10   6    7.30    3.14
  -6  10   6    2.05    2.02
   6  10   6    3.84    1.53
   6 -10   6    2.14    1.92
   6  10   7   10.88    4.26
   6  10   7    6.78    2.67
  -6  10   7    3.91    1.51
   6 -10   7    4.83    2.09
   6  10   8   13.91    3.87
   6  10   8   12.66    3.87
  -6  10   8   16.58    4.04
   6 -10   8   16.30    4.19
   6  10   9    2.58    2.50
   6  10   9   -0.46    1.47
  -6  10   9    5.83    3.51
   6 -10   9    0.57    1.45
   6  10  10   -1.66    1.67
   6  10  10   -1.13    1.67
  -6  10  10   -0.31    1.46
   6  10  11    4.49    3.01
   6  10  11    1.77    1.39
   6  10  12   10.32    3.22
   6  10  12    4.20    1.98
  -6  10  12    5.31    2.81
  -6  10  13    1.84    2.77
   6  10  13   -0.65    1.59
   6  10  13    0.28    1.54
   6  11  -5    0.49    1.59
   6 -11  -5   -0.57    1.50
   6  11  -4    1.94    2.16
   6 -11  -4    0.74    2.31
  -6  11  -4   -0.13    2.14
   6  11  -3    0.49    1.97
  -6  11  -3   -0.49    1.35
   6 -11  -3    2.55    2.11
   6  11  -2    1.11    1.41
  -6  11  -2   -0.21    2.06
   6 -11  -2    1.23    2.03
   6  11  -1    3.57    2.33
  -6  11  -1   -2.64    2.38
   6 -11  -1    3.31    1.83
   6  11   0    4.25    2.38
  -6  11   0    6.68    3.19
   6 -11   0    6.46    2.47
   6  11   1    4.70    2.30
   6  11   1    4.75    2.81
  -6  11   1    3.38    2.27
   6 -11   1    4.55    3.26
   6  11   2    2.27    1.30
   6  11   2    2.01    1.99
  -6  11   2    0.68    1.46
   6 -11   2    3.64    2.15
   6  11   3    0.39    1.47
   6  11   3   -0.53    1.15
  -6  11   3    5.06    2.81
   6 -11   3    3.84    2.69
   6  11   4    2.96    2.10
   6  11   4    2.45    1.80
  -6  11   4   -0.02    1.42
   6 -11   4    0.01    1.57
   6  11   5    1.73    2.10
  -6  11   5   -1.48    1.18
   6 -11   5    1.01    1.31
   7   0 -29    0.14    0.85
   7   0 -28   -0.43    1.49
   7   0 -27   -0.30    2.43
   7   0 -26   -1.74    1.75
   7   0 -25    2.89    2.24
   7   0 -24   -0.64    1.93
   7   0 -23    2.47    2.27
   7   0 -22   -0.51    1.56
   7   0 -21    2.11    0.92
   7   0 -20    0.83    1.03
   7   0 -19   -0.90    1.78
   7   0 -18    0.78    1.40
   7   0 -17    2.04    1.71
   7   0 -16   -1.07    0.94
   7   0 -15   -1.25    0.96
   7   0 -14    0.94    0.96
   7   0 -13   -0.03    0.80
   7   0 -13    0.22    0.92
   7   0 -12    0.03    0.59
   7   0 -12   -0.06    0.74
   7   0 -11   -0.06    0.68
   7   0 -11   -0.03    0.79
   7   0 -10   -0.02    0.69
   7   0 -10   -0.12    1.09
   7   0  -9   -0.15    0.44
   7   0  -9   -0.44    1.03
   7   0  -8    0.11    0.44
   7   0  -8   -0.18    0.59
   7   0  -8   -0.09    0.76
   7   0  -7    0.46    0.61
   7   0  -7    0.46    0.90
   7   0  -7    0.73    1.30
   7   0  -6   -0.55    0.86
   7   0  -6    0.58    1.01
   7   0  -6    0.90    0.72
   7   0  -5    0.18    1.01
   7   0  -5    0.68    0.82
   7   0  -5    0.16    0.65
   7   0  -4    0.19    1.06
   7   0  -4   -0.42    0.68
   7   0  -4    0.22    0.92
   7   0  -3    0.15    0.79
   7   0  -3    0.60    1.26
   7   0  -3   -0.50    0.55
   7   0  -2   -0.76    1.08
   7   0  -2   -0.25    0.96
   7   0  -2    0.11    0.59
   7   0  -1    0.79    1.28
   7   0  -1    0.01    0.58
   7   0  -1    0.33    0.88
   7   0   0    0.25    0.90
   7   0   0    0.22    0.58
   7   0   0   -0.38    0.70
   7   0   1    0.39    0.51
   7   0   1   -0.23    0.80
   7   0   2   -0.46    0.96
   7   0   2    0.27    0.71
   7   0   3    0.55    0.96
   7   0   3   -0.20    0.72
   7   0   4   -0.16    0.38
   7   0   4    0.05    0.51
   7   0   5    0.11    0.41
   7   0   5    0.34    0.39
   7   0   6    0.24    0.40
   7   0   6    0.03    0.52
   7   0   7   -0.19    0.68
   7   0   7    0.32    0.77
   7   0   8   -0.06    0.90
   7   0   8    0.39    0.55
   7   0   9   -0.14    0.65
   7   0   9    0.07    0.31
   7   0  10   -0.09    0.45
   7   0  10    0.43    0.51
   7   0  11    0.38    0.77
   7   0  11    0.19    0.62
   7   0  12    0.70    0.46
   7   0  12    0.30    0.59
   7   0  13   -0.13    0.49
   7   0  13    0.23    0.54
   7   0  14   -0.53    0.94
   7   0  15    2.50    1.78
   7   0  16   -0.01    1.63
   7   0  17   -0.29    1.10
   7   0  18    1.23    1.69
   7   0  19    0.53    0.77
   7   0  20   -0.46    1.35
   7   0  21    0.53    0.77
   7   0  22   -0.29    1.46
   7   0  23   -1.14    1.61
   7  -1 -29    1.81    1.72
   7  -1 -28   51.44    6.94
   7  -1 -27    6.83    2.55
   7  -1 -26   -0.23    1.16
   7  -1 -25   12.23    3.22
   7   1 -24   77.53    8.14
   7  -1 -24   90.59    8.64
   7   1 -23    1.09    0.94
   7  -1 -23    3.70    1.79
   7   1 -22   40.82    5.68
   7  -1 -22   44.36    5.93
   7   1 -21   25.93    4.58
   7  -1 -21   21.19    4.55
   7   1 -20   38.72    5.32
   7  -1 -20   36.80    5.19
   7   1 -19   32.25    4.75
   7  -1 -19   27.29    4.47
   7   1 -18   32.66    4.65
   7  -1 -18   31.68    5.06
   7   1 -17   25.11    4.11
   7  -1 -17   25.09    3.95
   7   1 -16  330.77   13.95
   7  -1 -16  339.12   15.07
   7  -1 -15   76.34    6.91
   7   1 -15   67.71    6.27
   7  -1 -15   65.35    5.69
   7  -1 -14  514.16   17.74
   7   1 -14  478.62   16.26
   7  -1 -14  478.93   14.83
   7   1 -13   60.83    5.76
   7  -1 -13   51.07    5.48
   7  -1 -13   60.05    5.20
   7   1 -13   58.76    5.65
   7   1 -12  100.51    7.07
   7   1 -12   78.45    6.24
   7  -1 -12   77.56    5.92
   7  -1 -12   89.88    7.18
   7   1 -11  105.41    5.48
   7   1 -11  103.04    7.13
   7   1 -11   97.46    6.95
   7  -1 -11  109.68    7.65
   7  -1 -11  100.93    6.62
   7   1 -10   36.33    3.31
   7   1 -10   27.34    3.78
   7   1 -10   30.04    3.78
   7  -1 -10   31.55    3.86
   7   1  -9   14.94    2.34
   7   1  -9   14.12    2.68
   7  -1  -9   18.38    3.14
   7   1  -9   16.13    2.67
   7  -1  -9   15.00    2.52
   7  -1  -8   83.80    5.88
   7   1  -8   75.30    4.86
   7   1  -8   82.85    5.94
   7  -1  -8   82.19    6.48
   7   1  -8   88.29    6.30
   7  -1  -7   86.09    5.89
   7   1  -7   83.45    5.07
   7  -1  -7   79.09    6.19
   7   1  -7   80.77    5.92
   7   1  -7   92.92    6.42
   7  -1  -6  227.87    9.62
   7   1  -6  224.54    8.57
   7  -1  -6  212.49   10.10
   7   1  -6  230.19    9.55
   7   1  -6  229.66   10.08
   7   1  -5  269.60    9.46
   7  -1  -5  282.23   10.66
   7  -1  -5  289.08   11.62
   7   1  -5  277.47   10.90
   7   1  -5  278.94   10.45
   7  -1  -4  177.29    8.54
   7   1  -4  171.82    7.60
   7  -1  -4  175.40    8.98
   7   1  -4  170.79    8.10
   7   1  -4  159.10    8.22
   7  -1  -3  358.35   12.07
   7   1  -3  357.13   11.05
   7  -1  -3  376.87   13.06
   7   1  -3  347.28   11.42
   7   1  -3  373.95   12.49
   7  -1  -2  614.08   16.47
   7  -1  -2  614.94   15.74
   7   1  -2  598.04   14.41
   7   1  -2  606.29   15.67
   7  -1  -1   26.66    3.33
   7  -1  -1   25.73    3.28
   7   1  -1   27.74    3.18
   7   1  -1   20.39    2.86
   7   1  -1   29.05    3.41
   7   1   0    1.27    0.66
   7   1   0    1.67    0.88
   7  -1   0    1.40    0.86
   7  -1   0    2.04    1.48
   7  -1   1   21.54    3.00
   7  -1   1   23.83    3.27
   7   1   1   24.99    3.00
   7   1   1   26.25    3.22
   7  -1   2  649.64   16.61
   7   1   2  645.61   15.92
   7   1   2  618.10   15.14
   7   1   3  330.42   11.65
   7  -1   3  347.84   12.30
   7   1   3  337.97   11.18
   7   1   4  191.15    8.87
   7   1   4  179.93    8.05
   7   1   5  267.13   10.71
   7  -1   5  279.03   11.13
   7   1   5  278.33   10.09
   7   1   6  228.69    9.01
   7   1   6  221.58    9.90
   7  -1   6  234.62   10.20
   7  -1   7   73.88    5.80
   7   1   7   82.84    6.15
   7   1   7   85.80    5.51
   7   1   8   76.26    5.31
   7  -1   8   86.07    6.47
   7   1   9   14.31    2.55
   7  -1   9   13.32    2.55
   7   1   9   19.45    2.59
   7   1  10   30.32    3.89
   7  -1  10   35.63    4.15
   7   1  10   37.34    3.62
   7   1  11   96.45    7.16
   7  -1  11   98.93    7.07
   7   1  11  107.90    6.13
   7   1  12  103.37    7.52
   7  -1  12   97.52    7.05
   7   1  12   91.14    5.52
   7   1  13   47.37    5.27
   7  -1  13   52.92    5.45
   7   1  13   54.46    4.26
   7   1  14  464.85   16.69
   7  -1  14  470.14   16.32
   7   1  14  468.23   12.15
   7   1  15   61.43    6.24
   7  -1  15   64.27    6.10
   7   1  16  321.12   14.39
   7  -1  16  334.04   14.29
   7   1  17   31.34    4.60
   7  -1  17   28.11    4.06
   7   1  18   47.55    5.67
   7  -1  18   38.35    4.92
   7   1  19   29.52    4.48
   7  -1  19   35.28    5.10
   7   1  20   33.54    5.15
   7  -1  20   45.45    5.64
   7  -1  21   24.38    4.28
   7   1  21   26.09    4.97
   7  -1  22   39.01    5.57
   7   1  22   40.54    6.06
   7   1  23    3.00    2.75
   7   1  24   84.20    8.49
   7  -2 -28    1.88    1.63
   7  -2 -27    1.87    1.39
   7  -2 -26   -0.76    1.00
   7  -2 -25    9.19    3.58
   7  -2 -24    3.68    2.23
   7  -2 -23   18.64    3.99
   7  -2 -22    7.36    2.70
   7  -2 -21   18.57    4.15
   7  -2 -20    3.62    2.02
   7   2 -19   -0.08    1.10
   7  -2 -19   -1.56    1.81
   7   2 -18   46.19    5.52
   7  -2 -18   48.65    6.10
   7  -2 -17   23.69    4.12
   7   2 -17   20.26    3.51
   7  -2 -17   25.35    4.46
   7   2 -17   29.79    4.22
   7   2 -16  237.75   11.43
   7  -2 -16  240.81   12.84
   7  -2 -16  226.70   11.56
   7   2 -16  267.81   12.69
   7   2 -15   61.75    5.64
   7  -2 -15   61.35    6.46
   7  -2 -15   63.03    6.09
   7   2 -15   72.58    6.41
   7  -2 -14   62.43    5.90
   7   2 -14   70.66    6.09
   7  -2 -14   65.43    6.57
   7   2 -14   66.29    6.05
   7  -2 -13   54.98    5.84
   7  -2 -13   38.30    4.41
   7   2 -13   51.63    5.28
   7   2 -13   41.58    4.47
   7  -2 -12  108.07    8.02
   7  -2 -12   96.61    7.12
   7   2 -12   99.71    6.60
   7   2 -12  117.36    7.96
   7   2 -11    9.45    1.78
   7  -2 -11    8.08    2.36
   7  -2 -11    6.23    2.10
   7   2 -11    6.09    1.93
   7   2 -11    8.35    2.04
   7   2 -10   53.62    3.70
   7  -2 -10   48.57    5.22
   7   2 -10   53.45    4.71
   7  -2 -10   51.86    5.10
   7   2 -10   62.70    5.59
   7  -2  -9  102.38    7.01
   7   2  -9  118.53    6.72
   7   2  -9  107.42    5.45
   7  -2  -9  118.94    8.27
   7   2  -9  106.16    7.22
   7   2  -8  232.47    8.31
   7   2  -8  249.72    9.73
   7  -2  -8  245.26   11.56
   7   2  -8  256.65   11.09
   7  -2  -8  234.48   10.74
   7   2  -7    9.14    2.07
   7  -2  -7   10.11    2.45
   7   2  -7   11.45    1.78
   7  -2  -7    7.47    2.07
   7   2  -7    5.94    1.46
   7  -2  -6   21.89    3.07
   7  -2  -6   27.51    3.88
   7   2  -6   31.20    3.33
   7   2  -6   26.22    2.76
   7   2  -6   32.93    3.86
   7  -2  -5  147.76    8.20
   7   2  -5  152.34    8.23
   7  -2  -5  138.92    8.44
   7   2  -5  154.96    7.33
   7   2  -5  151.55    6.95
   7  -2  -4   23.24    3.32
   7   2  -4   28.70    3.18
   7   2  -4   23.59    2.81
   7   2  -4   28.18    3.67
   7  -2  -4   24.96    3.54
   7  -2  -3  145.77    8.11
   7  -2  -3  152.88    8.64
   7   2  -3  148.00    7.11
   7   2  -3  158.84    7.41
   7   2  -3  156.76    8.24
   7   2  -2   84.35    5.48
   7  -2  -2   80.54    6.02
   7   2  -2   78.11    5.23
   7  -2  -2   71.45    5.95
   7   2  -2   86.58    6.11
   7   2  -1    1.02    1.30
   7  -2  -1    2.66    1.16
   7  -2  -1    0.67    0.51
   7   2  -1    4.10    1.51
   7   2   0    0.24    0.50
   7  -2   0   -0.22    1.16
   7   2   0    0.47    0.34
   7  -2   0    1.01    1.48
   7   2   1    2.27    0.74
   7  -2   1    1.10    1.21
   7   2   1    1.10    0.78
   7  -2   1    1.16    0.45
   7   2   2   69.88    5.52
   7  -2   2   86.40    6.25
   7  -2   2   78.55    6.10
   7   2   3  151.46    7.94
   7   2   3  145.73    7.79
   7  -2   3  151.20    8.24
   7   2   4   25.53    3.34
   7   2   4   24.97    3.33
   7  -2   4   25.67    3.36
   7   2   5  150.41    7.86
   7   2   5  161.25    8.56
   7  -2   5  167.19    8.87
   7   2   6   30.05    3.61
   7   2   6   26.19    3.50
   7  -2   6   26.77    3.63
   7   2   7    7.78    1.79
   7  -2   7    8.19    2.02
   7   2   7    5.50    1.65
   7   2   8  255.18   10.29
   7   2   8  230.86   10.94
   7  -2   8  238.03   11.07
   7   2   9  118.21    6.96
   7   2   9  120.65    8.01
   7  -2   9  118.22    7.81
   7   2  10   55.11    4.74
   7   2  10   59.65    5.75
   7  -2  10   52.60    5.24
   7   2  11   12.10    2.46
   7  -2  11    9.68    2.37
   7   2  11    8.54    2.56
   7   2  12  113.24    6.91
   7   2  12  102.41    7.87
   7  -2  12  100.87    7.59
   7   2  13   49.35    4.42
   7   2  13   45.04    5.32
   7  -2  13   54.56    5.66
   7   2  14   69.17    5.38
   7   2  14   72.38    6.74
   7  -2  14   70.37    6.47
   7   2  15   67.69    5.27
   7   2  15   62.31    6.42
   7  -2  15   67.22    6.50
   7   2  16  229.53   12.42
   7  -2  16  212.16   11.75
   7  -2  17   25.19    4.17
   7   2  17   16.04    3.50
   7   2  18   42.76    5.57
   7  -2  18   48.15    6.07
   7   2  19    0.27    1.14
   7  -2  19   -0.04    1.34
   7   2  20    9.91    2.53
   7  -2  20   10.94    3.01
   7   2  21   16.72    3.46
   7   2  22    2.73    2.17
   7   2  23   13.90    3.12
   7   2  24    7.09    3.15
   7   2  25   11.03    3.18
   7  -3 -28   15.33    3.64
   7  -3 -27    0.58    1.27
   7  -3 -26    6.46    2.36
   7  -3 -25    6.38    2.86
   7  -3 -24   62.55    7.49
   7  -3 -23    4.76    2.64
   7  -3 -22    2.90    1.65
   7  -3 -21    0.59    1.29
   7  -3 -20   84.37    8.24
   7  -3 -19    9.54    3.08
   7  -3 -18  278.72   13.88
   7   3 -18  266.97   13.62
   7  -3 -17   16.31    3.70
   7  -3 -17   18.25    3.74
   7   3 -17   18.40    3.70
   7  -3 -16   10.26    2.38
   7  -3 -16   10.84    3.17
   7   3 -16    7.91    2.23
   7  -3 -15   20.11    3.88
   7  -3 -15   18.39    3.56
   7   3 -15   18.45    3.54
   7  -3 -14  563.32   19.70
   7   3 -14  592.52   19.00
   7   3 -13    1.55    1.41
   7  -3 -13    3.96    2.03
   7  -3 -13    4.29    1.79
   7   3 -12  658.77   16.33
   7  -3 -12  678.75   20.88
   7  -3 -12  656.37   19.56
   7   3 -12  625.55   19.07
   7  -3 -11   61.63    6.39
   7  -3 -11   56.87    5.77
   7   3 -11   60.87    4.77
   7   3 -11   66.03    5.89
   7   3 -10   16.58    2.48
   7  -3 -10   17.76    3.43
   7  -3 -10   18.94    3.28
   7   3 -10   25.97    3.82
   7  -3  -9   19.50    3.55
   7   3  -9   23.28    2.80
   7  -3  -9   21.75    3.56
   7   3  -9   20.45    2.56
   7   3  -9   18.73    3.17
   7   3  -8  553.28   13.73
   7  -3  -8  581.27   18.43
   7   3  -8  612.36   13.33
   7  -3  -8  576.34   17.79
   7   3  -8  605.36   17.84
   7  -3  -7   15.83    2.98
   7   3  -7    9.01    1.56
   7   3  -7   16.55    2.27
   7  -3  -7   12.54    2.72
   7   3  -7   14.54    2.99
   7   3  -6  367.45   13.59
   7  -3  -6  322.14   13.45
   7   3  -6  339.41   10.32
   7  -3  -6  357.33   13.90
   7   3  -6  362.89   11.28
   7   3  -5   37.43    3.60
   7  -3  -5   40.08    4.82
   7   3  -5   45.00    3.81
   7  -3  -5   37.07    4.52
   7   3  -5   38.86    4.33
   7   3  -4    3.66    1.53
   7  -3  -4    1.22    1.12
   7   3  -4    1.08    1.00
   7  -3  -4    1.49    1.31
   7   3  -4    3.60    1.27
   7   3  -3   15.09    2.89
   7  -3  -3   16.67    3.17
   7   3  -3   14.03    2.31
   7   3  -3   17.10    2.34
   7  -3  -3   15.29    2.97
   7   3  -2  612.82   17.40
   7  -3  -2  625.73   17.78
   7   3  -2  664.72   16.29
   7  -3  -2  617.70   18.06
   7   3  -2  615.08   14.38
   7   3  -1   21.62    3.19
   7  -3  -1   19.33    3.19
   7   3  -1   19.23    2.88
   7  -3  -1   19.35    3.18
   7   3   0    0.01    0.75
   7  -3   0    0.96    0.88
   7   3   0    0.90    0.43
   7  -3   0    0.47    0.89
   7  -3   1   20.97    3.33
   7   3   1   21.08    3.24
   7  -3   1   17.02    3.04
   7   3   1   17.64    2.80
   7   3   2  610.53   17.05
   7  -3   2  623.01   17.87
   7   3   2  633.83   17.21
   7  -3   2  659.58   18.21
   7   3   3   24.10    3.37
   7   3   3   21.11    3.12
   7  -3   3   14.45    2.68
   7  -3   3   15.55    2.94
   7   3   4    2.07    1.17
   7   3   4    4.00    1.51
   7  -3   4    3.79    1.39
   7  -3   4    1.79    1.22
   7   3   5   41.51    4.44
   7  -3   5   45.08    4.84
   7   3   5   34.24    4.11
   7   3   6  383.40   13.33
   7  -3   6  349.79   13.48
   7   3   6  361.76   13.74
   7   3   7   12.36    2.58
   7  -3   7   16.74    3.00
   7   3   8  592.82   16.92
   7  -3   8  581.90   17.64
   7   3   8  587.88   18.11
   7   3   9   22.94    3.42
   7  -3   9   20.18    3.44
   7   3   9   27.14    3.92
   7   3  10   18.62    2.92
   7  -3  10   18.00    3.32
   7   3  10   24.69    3.92
   7   3  11   64.74    5.74
   7  -3  11   63.10    5.97
   7   3  11   62.16    6.17
   7   3  12  688.55   18.75
   7  -3  12  635.14   19.28
   7   3  12  642.54   20.07
   7  -3  13    4.22    1.47
   7   3  13    4.99    1.60
   7   3  13    6.23    1.99
   7   3  14  565.17   17.16
   7  -3  14  568.03   18.78
   7   3  14  569.43   19.64
   7   3  15   22.66    3.45
   7   3  15   18.54    3.69
   7  -3  15   15.91    3.18
   7   3  16    7.85    2.79
   7   3  16    8.57    2.56
   7  -3  16    9.68    2.79
   7   3  17   30.52    4.67
   7  -3  17   18.77    3.99
   7   3  18  258.77   14.20
   7  -3  18  273.04   13.76
   7  -3  19   21.16    4.10
   7   3  19   13.89    3.39
   7   3  20  113.02    9.66
   7   3  21    1.72    1.99
   7   3  22    2.51    2.05
   7   3  23    6.27    2.86
   7   3  24   66.88    8.03
   7   3  25    3.27    1.03
   7   3  26   10.19    3.29
   7  -4 -27    4.76    2.11
   7  -4 -26    0.47    1.05
   7  -4 -25    6.11    2.55
   7  -4 -24   -0.26    1.25
   7  -4 -23    1.43    2.06
   7  -4 -22   16.87    3.79
   7  -4 -21    6.96    2.93
   7  -4 -20   -0.24    1.56
   7  -4 -19   85.98    8.47
   7  -4 -19   95.26    8.56
   7  -4 -18   28.32    4.92
   7  -4 -18   51.47    6.48
   7  -4 -17    8.44    3.00
   7  -4 -17    5.01    2.70
   7   4 -17    2.68    1.75
   7   4 -16    6.74    2.66
   7  -4 -16    5.51    1.94
   7  -4 -16    4.20    2.30
   7  -4 -15   27.12    4.46
   7  -4 -15   17.03    3.61
   7   4 -15   31.08    4.41
   7  -4 -14   63.90    6.78
   7  -4 -14   60.56    6.58
   7   4 -14   74.56    7.04
   7  -4 -13   50.77    6.12
   7   4 -13   52.09    5.75
   7  -4 -13   60.02    6.38
   7  -4 -12   13.77    3.30
   7   4 -12   12.08    2.73
   7  -4 -12   15.26    3.15
   7  -4 -11  118.27    8.88
   7  -4 -11  123.66    8.94
   7   4 -11  108.83    8.18
   7  -4 -10   25.57    4.35
   7  -4 -10   23.81    4.04
   7   4 -10   22.22    3.65
   7  -4  -9    1.80    0.99
   7   4  -9    2.02    1.80
   7  -4  -9    3.31    1.20
   7   4  -8   42.25    3.73
   7  -4  -8   37.84    5.02
   7  -4  -8   45.64    5.22
   7   4  -8   55.85    5.75
   7   4  -7  296.39   13.01
   7   4  -7  274.64    9.95
   7  -4  -7  288.37   13.56
   7  -4  -7  307.32   13.51
   7   4  -6   33.17    4.50
   7   4  -6   25.93    3.18
   7  -4  -6   37.92    5.13
   7  -4  -6   29.06    4.15
   7  -4  -5    3.77    1.73
   7   4  -5    1.30    0.59
   7  -4  -5    1.94    0.79
   7   4  -5    1.54    0.93
   7   4  -4    2.95    1.12
   7   4  -4    2.38    0.84
   7  -4  -4    4.10    2.17
   7  -4  -4    2.31    1.33
   7   4  -4    2.66    0.86
   7   4  -3   47.14    5.18
   7   4  -3   45.34    4.57
   7  -4  -3   51.32    5.23
   7   4  -3   40.55    3.39
   7  -4  -3   52.99    5.61
   7   4  -2    5.77    1.58
   7  -4  -2    3.91    1.56
   7   4  -2    3.74    1.49
   7  -4  -2    7.11    2.13
   7   4  -1    6.86    1.79
   7  -4  -1    6.96    2.05
   7   4  -1    7.73    1.97
   7  -4  -1    8.87    2.19
   7   4   0    0.21    1.11
   7  -4   0   -0.60    1.17
   7   4   0    0.05    0.42
   7  -4   0   -0.11    1.34
   7   4   1    1.11    1.67
   7  -4   1    4.05    1.82
   7   4   1    7.78    2.09
   7  -4   1    4.56    1.54
   7  -4   2    4.43    1.11
   7   4   2    1.58    1.13
   7  -4   2    2.97    1.11
   7   4   2    4.87    1.66
   7  -4   3   44.19    4.95
   7   4   3   48.68    5.10
   7   4   3   46.43    5.03
   7  -4   3   51.42    5.34
   7   4   4    2.80    1.22
   7  -4   4    2.89    1.10
   7  -4   4    1.84    1.01
   7   4   4    3.92    1.63
   7   4   5    4.30    1.85
   7   4   5    4.81    1.28
   7  -4   5    3.34    1.76
   7  -4   5    2.70    1.10
   7   4   6   23.80    3.73
   7  -4   6   32.51    4.31
   7   4   6   31.30    4.09
   7  -4   6   28.89    4.08
   7   4   7  297.17   12.81
   7  -4   7  295.69   13.16
   7   4   7  295.95   12.97
   7  -4   7  298.46   13.08
   7   4   8   40.75    4.82
   7  -4   8   35.76    4.48
   7   4   8   34.61    4.58
   7   4   9    2.65    1.76
   7  -4   9    1.45    1.17
   7   4   9    3.44    1.57
   7   4  10   25.57    3.76
   7  -4  10   18.69    3.32
   7   4  10   15.79    3.11
   7   4  11  116.56    8.34
   7  -4  11  118.41    8.36
   7   4  11  123.55    9.05
   7  -4  12   18.53    3.71
   7   4  12   10.72    2.85
   7   4  12   15.97    3.13
   7   4  13   68.26    6.39
   7  -4  13   56.49    5.94
   7   4  13   68.87    6.91
   7   4  14   62.84    6.07
   7  -4  14   55.80    6.15
   7   4  14   52.45    6.26
   7   4  15   28.46    4.23
   7  -4  15   18.91    3.74
   7   4  15   23.23    4.41
   7  -4  16   11.30    2.79
   7   4  16    3.88    1.32
   7   4  16    8.36    2.98
   7   4  17    3.39    1.14
   7   4  17    5.14    1.90
   7  -4  17    5.05    1.66
   7  -4  18   39.68    5.60
   7   4  18   37.40    5.44
   7   4  19   85.73    8.12
   7   4  20    0.53    2.01
   7   4  21    4.51    2.91
   7   4  22    8.82    2.68
   7   4  23   -0.84    2.26
   7   4  24    2.86    2.42
   7   4  25    0.09    2.10
   7   4  26    0.67    2.49
   7   4  27    6.78    2.23
   7  -5 -26   -0.46    1.77
   7  -5 -25    0.98    2.35
   7  -5 -24   40.73    6.08
   7  -5 -23    3.12    2.02
   7  -5 -22   28.23    5.02
   7  -5 -21    1.88    1.18
   7  -5 -20    1.28    1.52
   7  -5 -20    2.27    1.30
   7  -5 -19   16.04    4.04
   7  -5 -19   17.81    4.24
   7  -5 -18   77.58    7.93
   7  -5 -18   99.37    9.30
   7   5 -17   23.33    4.49
   7  -5 -17   31.40    5.39
   7  -5 -17   21.70    4.14
   7   5 -16    5.37    2.38
   7  -5 -16    2.07    1.52
   7  -5 -16    2.78    1.77
   7   5 -15    2.09    1.11
   7  -5 -15    6.05    2.37
   7  -5 -15    8.55    2.47
   7   5 -14    8.48    2.78
   7  -5 -14    6.94    2.05
   7  -5 -14    8.10    2.53
   7   5 -13    0.19    1.29
   7  -5 -13    0.08    1.06
   7  -5 -13    2.81    1.94
   7  -5 -12  127.53    9.65
   7   5 -12  112.91    8.88
   7  -5 -11   18.62    4.07
   7  -5 -11   19.59    4.08
   7   5 -11   27.78    4.28
   7   5 -10    3.23    1.52
  -7   5 -10    7.65    1.80
   7  -5 -10    2.29    1.38
   7  -5 -10    6.67    2.28
   7   5  -9   13.67    3.08
   7  -5  -9   13.28    3.20
  -7   5  -9    9.54    2.32
   7  -5  -9    5.02    2.05
   7   5  -8  136.67    9.33
  -7   5  -8  131.80    8.53
   7  -5  -8  140.97    9.80
   7  -5  -8  138.24    9.78
   7   5  -7   34.21    4.64
   7  -5  -7   31.11    4.55
   7   5  -7   32.95    3.86
   7  -5  -7   34.28    4.74
   7  -5  -6    9.82    2.71
   7   5  -6    9.63    2.62
   7   5  -6   10.02    2.15
   7  -5  -6    9.34    3.02
   7  -5  -5   17.39    3.31
   7   5  -5   17.14    3.52
   7   5  -5   17.34    2.72
   7  -5  -5   14.23    3.17
   7   5  -4   29.31    4.36
   7   5  -4   28.08    3.77
   7  -5  -4   28.36    4.33
   7  -5  -4   29.42    4.41
   7   5  -3   28.53    4.29
   7  -5  -3   30.71    4.59
   7   5  -3   28.99    3.85
   7  -5  -3   26.72    4.15
   7   5  -2  164.94   10.01
   7  -5  -2  142.89    9.47
   7   5  -2  168.99    9.40
   7  -5  -2  160.49   10.16
   7  -5  -1    8.23    2.87
   7   5  -1    5.98    1.93
   7   5  -1    9.35    2.61
   7  -5  -1    7.14    1.73
   7  -5   0    0.48    1.10
   7   5   0    0.53    0.99
   7   5   0    1.14    1.20
   7  -5   0    0.43    0.62
   7  -5   1    8.27    2.58
   7   5   1    9.67    2.90
   7   5   1    5.91    1.73
   7  -5   1    7.76    2.01
   7   5   2  166.63    9.91
   7  -5   2  175.17   10.43
   7   5   2  155.38    9.40
   7  -5   2  156.62   10.19
   7   5   3   36.80    4.69
   7  -5   3   29.24    4.21
   7   5   3   27.22    4.04
   7  -5   3   33.38    4.55
   7   5   4   23.09    3.71
   7  -5   4   24.59    3.83
   7  -5   4   29.22    4.30
   7   5   4   25.49    3.89
   7  -5   5   22.06    4.07
   7   5   5   16.47    3.01
   7   5   5   15.47    3.11
   7   5   6   10.39    2.85
   7  -5   6    9.41    2.35
   7  -5   6   14.41    2.99
   7   5   6   10.56    2.56
   7  -5   7   32.39    4.57
   7  -5   7   35.68    4.76
   7   5   7   35.04    4.86
   7   5   7   38.44    5.07
   7  -5   8  126.64    9.22
   7   5   8  134.95    9.25
   7  -5   8  134.04    9.11
   7   5   8  118.98    8.84
   7   5   9   12.20    3.00
   7  -5   9    9.06    2.76
   7   5   9    9.68    2.76
   7  -5   9    6.61    1.82
   7   5  10    4.21    1.90
   7  -5  10    5.07    2.21
   7   5  10    7.05    2.52
   7  -5  10    5.52    2.34
   7  -5  11   30.62    4.51
   7   5  11   27.12    4.47
   7   5  11   21.62    3.67
   7  -5  12  137.87    9.67
   7   5  12  127.73    9.24
   7   5  12  113.67    9.17
   7   5  13   -0.05    1.09
   7  -5  13    0.92    1.00
   7   5  13    1.06    1.33
   7   5  14    3.64    1.99
   7  -5  14    2.72    1.81
   7   5  14    2.25    1.30
   7   5  15    6.51    2.42
   7   5  15    3.75    1.98
   7  -5  15    9.55    2.51
   7   5  16    5.46    2.39
   7  -5  16    0.47    1.39
   7   5  16    4.73    2.14
   7  -5  17   27.34    5.00
   7   5  17   22.50    4.76
   7   5  17   27.95    4.41
   7   5  18   98.56    9.15
   7   5  19   26.66    4.64
   7   5  20    4.22    2.71
   7   5  21   10.18    3.78
   7   5  22   28.44    5.22
   7   5  23   -1.01    2.08
   7   5  24   39.93    6.70
   7   5  25    1.59    1.69
   7   5  26   -1.09    1.51
   7  -6 -24    1.16    1.97
   7  -6 -23   -0.29    1.55
   7  -6 -22    2.56    1.78
   7  -6 -21   10.14    3.76
   7  -6 -21    2.46    2.26
   7  -6 -20    2.52    1.81
   7  -6 -20   -0.39    2.62
   7  -6 -19    1.23    1.80
   7  -6 -19    6.48    2.50
   7  -6 -18    0.13    1.54
   7  -6 -18    1.77    1.79
   7  -6 -17   -0.13    1.71
   7  -6 -17    0.63    1.14
   7   6 -16   -0.05    1.38
   7  -6 -16    2.30    2.22
   7  -6 -16    0.95    2.00
   7   6 -15    1.87    1.17
   7  -6 -15    0.48    1.45
   7  -6 -15    2.08    1.36
   7   6 -14    3.46    2.12
   7  -6 -14    3.07    1.01
   7  -6 -14    1.66    1.96
   7   6 -13   17.61    3.71
   7  -6 -13   17.74    4.08
   7  -6 -13   20.09    4.47
   7   6 -12    8.37    2.35
   7  -6 -12    5.73    2.81
   7  -6 -12    2.36    2.30
   7  -6 -11   17.45    3.79
   7   6 -11   17.75    3.90
   7  -6 -11   15.65    3.87
   7   6 -10    6.34    2.03
  -7   6 -10    0.48    0.67
   7  -6 -10    3.36    1.84
   7  -6 -10    5.62    1.72
   7   6  -9    0.27    1.05
  -7   6  -9    1.43    1.28
   7  -6  -9    1.30    1.34
   7  -6  -9    3.12    1.89
   7   6  -8    0.89    1.41
  -7   6  -8    2.34    1.65
   7  -6  -8    1.53    0.82
   7  -6  -8   -0.69    1.08
   7   6  -7    3.33    1.19
  -7   6  -7    4.65    1.82
   7  -6  -7    7.07    2.10
   7  -6  -7    2.39    1.04
   7  -6  -6    1.76    1.77
   7   6  -6    1.13    1.02
   7   6  -6    1.74    1.45
  -7   6  -6    1.14    1.89
   7  -6  -6    0.23    1.49
   7  -6  -5   18.26    3.50
   7   6  -5   13.07    3.05
   7   6  -5   14.05    2.72
   7  -6  -5   22.31    4.16
  -7   6  -5   19.24    3.58
   7  -6  -4    7.67    2.75
   7   6  -4    6.98    2.12
  -7   6  -4   13.90    3.07
   7  -6  -4    6.98    2.26
   7   6  -4    6.66    1.98
   7  -6  -3    2.63    0.80
   7   6  -3    3.11    1.84
   7  -6  -3   -0.23    1.03
   7   6  -3   -0.54    1.32
   7  -6  -2    8.34    2.76
   7   6  -2   12.13    3.12
   7  -6  -2   11.80    3.14
   7   6  -2    9.17    2.63
   7  -6  -1   13.77    3.36
   7   6  -1   11.05    2.48
   7  -6  -1   13.81    3.16
   7   6  -1    8.56    2.37
   7  -6   0   -0.37    1.00
   7  -6   0    1.81    1.21
   7   6   0    1.05    1.12
   7   6   0    2.79    1.27
   7   6   1   13.37    3.05
   7  -6   1    9.15    2.83
   7   6   1    8.95    3.26
   7  -6   1    9.24    2.71
   7   6   2   11.04    2.58
   7  -6   2    9.17    2.88
   7   6   2    7.32    2.40
   7  -6   2    7.61    2.33
   7   6   3    3.93    1.87
   7  -6   3    2.20    1.76
   7   6   3    1.71    1.02
   7  -6   3    2.97    2.18
   7   6   4   10.10    2.61
   7  -6   4   11.24    2.68
   7   6   4    8.34    2.33
   7  -6   4    8.31    2.99
   7   6   5   14.52    3.03
   7  -6   5    8.08    3.13
   7   6   5   14.21    3.23
   7   6   6    2.86    1.66
   7  -6   6    1.84    1.13
   7   6   6    5.68    2.32
   7  -6   6    3.16    2.25
   7   6   7    4.15    1.69
   7  -6   7    6.62    2.25
   7   6   7    4.61    2.50
   7  -6   7    4.26    2.36
   7   6   8    1.20    0.88
   7  -6   8   -0.85    1.13
   7  -6   8    0.77    1.61
   7   6   8    0.09    1.44
   7   6   9    1.36    1.21
   7  -6   9    2.38    1.78
   7   6   9    0.73    1.83
   7  -6   9    0.01    1.15
   7   6  10    4.56    1.86
   7  -6  10    3.66    1.62
   7   6  10    0.79    0.93
   7  -6  11   15.50    3.74
   7   6  11    8.99    2.66
   7  -6  11   13.28    3.25
   7   6  11    7.93    3.05
   7  -6  12    8.68    2.69
   7   6  12    4.90    2.42
   7  -6  12    8.62    2.68
   7   6  12    7.87    2.47
   7  -6  13   12.85    2.70
   7   6  13   12.30    3.04
   7   6  13   15.35    4.12
   7  -6  13   19.98    4.42
   7  -6  14    3.65    2.46
   7   6  14    3.32    1.14
   7   6  14    5.31    2.09
   7  -6  14    1.47    1.12
   7  -6  15    4.74    2.02
   7   6  15    5.44    1.14
   7   6  15    2.46    0.94
   7   6  16   -1.77    1.66
   7   6  16    3.61    2.52
   7   6  17    1.69    1.69
   7   6  17   -0.68    1.35
   7   6  18    1.37    1.93
   7   6  18    2.32    1.59
   7   6  19    2.93    1.80
   7   6  20   -0.57    1.72
  -7   6  20    0.23    1.97
   7   6  21    9.47    3.51
  -7   6  21    6.50    2.02
  -7   6  22   -0.86    1.46
   7   6  22    0.17    1.15
  -7   6  23    3.25    2.82
   7   6  23    1.53    1.86
   7   6  24    2.49    1.85
  -7   6  24    2.09    2.41
   7  -7 -22    5.51    2.61
   7  -7 -22    6.07    1.69
   7  -7 -21    8.23    3.09
   7  -7 -21    4.17    2.46
   7  -7 -20   25.51    4.71
   7  -7 -20   17.86    4.30
   7  -7 -19    2.76    1.73
   7  -7 -19   -0.09    2.05
   7  -7 -18   55.89    7.22
   7  -7 -18   57.98    7.44
   7  -7 -17   10.10    3.16
   7  -7 -17    9.56    3.14
   7   7 -16   -1.63    1.37
   7  -7 -16    0.74    2.30
   7  -7 -16    2.68    1.41
   7   7 -15   -1.02    2.23
   7  -7 -15    2.24    1.85
   7  -7 -15    5.64    3.16
   7   7 -14   19.99    4.28
   7  -7 -14   25.57    4.67
   7  -7 -14   24.47    4.87
   7   7 -13    5.26    2.06
   7  -7 -13    4.40    1.69
   7  -7 -13    9.23    3.36
   7   7 -12   75.74    8.33
   7  -7 -12   86.71    8.53
   7  -7 -12   78.85    8.35
   7   7 -11    8.02    3.06
   7  -7 -11    7.70    2.40
   7  -7 -11    2.22    2.30
   7   7 -10    2.98    2.05
   7  -7 -10   -0.49    1.34
   7  -7 -10   -0.38    1.34
   7   7  -9    4.16    2.18
  -7   7  -9    4.27    2.21
   7  -7  -9    1.15    1.46
   7  -7  -9    3.26    1.89
   7   7  -8  149.31   10.64
  -7   7  -8  117.41    9.70
   7  -7  -8  146.03   10.72
   7  -7  -8  130.27   10.26
   7   7  -7    0.64    1.17
   7  -7  -7    5.05    2.17
  -7   7  -7    4.40    1.31
   7  -7  -7    5.28    2.69
   7   7  -6   24.28    4.38
  -7   7  -6   18.51    4.00
   7  -7  -6   22.55    4.37
   7  -7  -6   21.61    4.36
   7  -7  -5    7.53    3.12
  -7   7  -5   13.45    3.45
   7   7  -5    6.80    2.27
   7  -7  -5    8.51    2.84
   7   7  -4   49.85    5.66
   7   7  -4   36.54    5.25
  -7   7  -4   38.45    5.56
   7  -7  -4   48.34    6.00
   7  -7  -4   50.78    6.30
   7   7  -3    0.37    0.87
  -7   7  -3   -0.86    1.49
   7  -7  -3   -1.59    1.56
   7   7  -3    0.70    1.18
   7  -7  -3    2.15    1.90
   7  -7  -2   69.83    7.31
   7   7  -2   75.73    7.56
  -7   7  -2   72.59    7.57
   7  -7  -2   67.37    7.34
   7   7  -2   75.36    7.27
   7  -7  -1   13.24    3.10
   7   7  -1   10.83    3.07
   7   7  -1   12.94    3.27
  -7   7  -1    5.85    1.82
   7  -7  -1    8.19    2.99
   7  -7   0    2.62    2.02
   7   7   0    3.45    1.74
   7   7   0   -2.56    2.22
  -7   7   0   -0.11    1.96
   7  -7   0   -0.80    1.03
   7  -7   1    6.80    2.02
   7   7   1   11.18    3.21
   7   7   1    5.56    2.21
  -7   7   1   12.80    2.99
   7  -7   1    4.84    2.92
   7   7   2   54.80    6.49
  -7   7   2   76.96    7.47
   7  -7   2   71.95    7.38
   7  -7   2   54.25    6.70
   7   7   2   67.84    7.00
   7  -7   3    0.83    1.96
   7   7   3    2.04    2.01
   7   7   3    0.87    1.42
  -7   7   3    0.26    1.67
   7  -7   3    1.98    2.28
   7   7   4   46.50    5.75
   7  -7   4   50.07    6.38
   7  -7   4   46.81    5.90
  -7   7   4   51.11    6.15
   7   7   4   52.85    6.19
   7  -7   5    8.97    3.01
   7   7   5    9.63    2.55
   7   7   5   12.06    3.12
  -7   7   5    8.40    2.52
   7  -7   5    9.68    2.67
   7   7   6   24.70    4.12
   7  -7   6   18.31    4.12
   7  -7   6   25.84    4.63
   7   7   6   24.24    4.45
   7  -7   7    3.64    1.65
   7   7   7    6.78    2.54
   7   7   7    3.10    1.32
   7  -7   7    6.25    2.09
   7   7   8  146.04   10.84
   7   7   8  137.98   10.39
   7  -7   8  128.96   10.02
   7  -7   8  149.09   10.93
   7  -7   9    2.32    1.36
   7   7   9    3.44    1.53
   7  -7   9    6.53    2.96
   7  -7  10   -0.49    1.23
   7   7  10    1.62    1.74
   7   7  10    0.16    1.91
   7  -7  10    1.04    1.36
   7   7  11    3.51    1.45
   7  -7  11    7.82    2.61
  -7   7  11    4.71    1.96
   7   7  11    3.54    2.24
   7   7  12   81.41    8.14
  -7   7  12  100.81    9.05
   7   7  12   86.53    8.37
   7  -7  12   94.14    8.73
   7   7  13    9.56    2.64
   7  -7  13    3.50    2.16
   7   7  13    8.11    2.22
  -7   7  13    2.76    2.08
   7  -7  14   13.13    2.98
   7   7  14   17.73    4.24
  -7   7  14   15.46    3.29
   7   7  14   14.95    3.56
  -7   7  15    0.35    1.75
   7   7  15    3.20    3.07
   7   7  15   -0.16    1.25
   7   7  16    0.95    1.77
  -7   7  16    0.53    1.48
   7   7  16    0.89    1.28
   7   7  17    5.62    2.09
  -7   7  17   10.77    3.73
   7   7  17    8.24    2.72
   7   7  18   61.08    7.79
  -7   7  18   68.87    8.10
   7   7  18   63.27    7.50
  -7   7  19    2.09    2.22
   7   7  19   -0.21    1.89
  -7   7  20   11.65    3.96
   7   7  20   10.79    3.33
   7   7  21    1.65    1.82
  -7   7  21    0.67    1.13
   7   7  22    9.69    3.44
  -7   7  22   17.25    4.31
   7  -8 -20    1.08    2.34
   7  -8 -20   -0.05    2.07
   7  -8 -19   -1.79    2.09
   7  -8 -19    1.73    1.86
   7  -8 -18   -0.81    1.42
   7  -8 -18    1.80    1.77
   7  -8 -17    2.14    2.79
   7  -8 -17   11.42    3.86
   7  -8 -16    0.28    1.09
   7  -8 -16   -1.24    1.99
   7  -8 -15    0.02    1.55
   7  -8 -15    1.78    1.63
   7   8 -14    8.58    3.36
   7  -8 -14    0.45    1.17
   7  -8 -14    5.78    2.39
   7   8 -13    4.48    2.63
   7  -8 -13    3.65    2.23
   7  -8 -13    0.96    1.67
   7   8 -12    0.14    1.15
   7  -8 -12    0.25    1.16
   7  -8 -12    0.83    1.92
   7  -8 -11    4.95    1.27
   7  -8 -11    3.42    1.97
   7   8 -10    3.37    1.91
   7  -8 -10   -1.69    2.00
   7  -8 -10    0.69    1.19
   7   8  -9    9.04    3.35
   7  -8  -9    4.81    1.95
   7  -8  -9    8.33    3.34
   7   8  -8    3.77    2.41
  -7   8  -8    2.56    2.43
   7  -8  -8    5.52    2.37
   7  -8  -8   -0.37    1.12
   7   8  -7   -0.70    1.24
  -7   8  -7    6.11    2.50
   7  -8  -7    2.24    2.26
   7  -8  -7    3.64    2.35
   7   8  -6    5.21    1.99
  -7   8  -6    4.21    1.83
   7  -8  -6    3.06    2.03
   7  -8  -6    3.52    2.10
   7   8  -5    4.57    2.77
  -7   8  -5    4.56    2.08
   7  -8  -5    0.59    1.37
   7  -8  -5    4.18    2.13
   7   8  -4    6.16    3.10
   7   8  -4    6.46    2.09
  -7   8  -4    1.27    0.81
   7  -8  -4    1.40    1.66
   7  -8  -4    3.17    1.88
   7   8  -3   -1.01    1.59
   7   8  -3   -0.13    1.37
  -7   8  -3    1.26    1.67
   7  -8  -3    0.74    1.32
   7  -8  -3    0.38    0.91
   7   8  -2    5.45    2.60
   7   8  -2    6.15    2.66
   7  -8  -2    0.94    1.18
  -7   8  -2    2.97    1.67
   7  -8  -2   -0.95    1.82
   7   8  -1    4.24    2.57
   7   8  -1    1.89    0.96
  -7   8  -1    0.40    1.23
   7  -8  -1   -1.09    1.96
   7  -8  -1    2.58    2.15
   7   8   0    0.01    1.33
   7   8   0    0.42    1.78
   7  -8   0    2.42    2.15
  -7   8   0   -0.09    1.44
   7  -8   0   -0.46    1.11
   7   8   1    1.18    1.18
   7   8   1    0.95    1.28
  -7   8   1    2.28    1.90
   7  -8   1    6.22    2.21
   7  -8   1    2.01    1.49
  -7   8   2    1.54    1.34
   7   8   2    5.61    2.31
   7  -8   2    1.74    1.33
   7  -8   2    2.90    0.98
   7  -8   3    0.81    1.19
   7   8   3    0.03    1.52
   7   8   3   -0.32    1.85
  -7   8   3    0.67    1.10
   7  -8   3   -0.01    2.24
   7  -8   4    0.74    1.61
   7   8   4    4.38    2.33
   7   8   4    2.29    1.78
  -7   8   4    1.97    1.28
   7  -8   4    0.81    1.81
   7  -8   5    4.26    2.42
   7   8   5    4.37    2.36
   7   8   5    2.47    1.82
  -7   8   5    1.69    1.97
   7  -8   6    8.09    2.41
   7   8   6    1.26    1.84
   7   8   6    6.15    2.48
  -7   8   6    2.33    1.29
   7  -8   7    1.66    2.08
  -7   8   7   -0.22    1.87
   7   8   7   -1.63    1.80
   7   8   7    0.50    1.44
   7  -8   8   -0.26    1.76
   7   8   8    1.67    1.63
   7   8   8    0.97    1.92
  -7   8   8    6.23    2.46
   7  -8   9    6.26    2.27
  -7   8   9   10.64    3.17
   7   8   9    3.31    1.96
   7   8   9    9.48    2.88
   7  -8  10   -0.31    1.09
   7   8  10   -0.44    1.47
   7   8  10   -0.57    1.66
  -7   8  10    0.82    1.16
   7  -8  11    2.19    2.26
  -7   8  11    4.58    2.24
   7   8  11    5.36    3.22
   7   8  11    5.55    2.37
   7  -8  12    1.32    1.34
   7   8  12   -0.25    1.30
   7   8  12   -0.46    1.28
  -7   8  12   -1.09    0.99
   7   8  13    1.47    0.97
   7   8  13    4.91    2.81
  -7   8  13    1.44    2.34
   7   8  14    5.43    2.55
  -7   8  14    8.68    3.30
   7   8  14    9.04    2.73
   7   8  15    3.18    2.66
  -7   8  15   -1.97    1.76
   7   8  15    2.36    1.85
   7   8  16    0.84    1.85
   7   8  16    2.98    1.64
  -7   8  16    0.93    1.02
   7   8  17    0.89    1.52
  -7   8  17    3.81    2.76
   7   8  17    4.75    2.66
   7   8  18    1.32    2.54
  -7   8  18    1.09    2.37
   7   8  18    1.55    1.89
  -7   8  19   -1.30    1.58
   7   8  19    1.61    1.07
   7   8  20   -0.46    1.49
  -7   8  20   -0.16    1.69
   7  -9 -17    2.70    2.26
   7  -9 -17   -2.09    1.29
   7  -9 -16    0.60    1.35
   7  -9 -16   -1.08    2.58
   7  -9 -15    4.14    2.20
   7  -9 -15    6.12    1.92
   7   9 -14   41.59    6.38
   7  -9 -14   39.92    6.44
   7  -9 -14   30.33    5.61
   7   9 -13    4.37    1.93
   7  -9 -13   -2.05    2.27
   7  -9 -13    2.20    2.00
   7   9 -12   46.66    6.67
   7  -9 -12   47.41    6.88
   7  -9 -12   40.96    6.44
   7   9 -11    4.89    2.61
   7  -9 -11   -0.37    2.31
   7  -9 -11    2.00    2.07
   7   9 -10    1.52    1.09
   7  -9 -10    3.91    2.48
   7  -9 -10    0.97    1.27
   7   9  -9    1.50    1.83
   7  -9  -9    3.42    1.58
   7  -9  -9    5.16    2.28
   7   9  -8   73.05    8.15
   7  -9  -8   64.64    8.12
   7  -9  -8   88.44    9.16
   7   9  -7    0.34    1.94
  -7   9  -7    2.08    1.78
   7  -9  -7   -2.01    2.04
   7  -9  -7   -0.09    1.71
   7   9  -6   22.36    4.77
  -7   9  -6   20.46    4.58
   7  -9  -6   22.38    4.85
   7  -9  -6   15.67    4.09
   7   9  -5    0.39    2.04
  -7   9  -5    7.23    2.99
   7  -9  -5    4.34    1.82
   7  -9  -5    3.61    2.73
   7   9  -4   23.24    4.26
  -7   9  -4   26.68    5.38
   7  -9  -4   20.39    4.50
   7  -9  -4   22.99    5.10
   7   9  -3   -1.40    1.83
  -7   9  -3    0.83    1.83
   7  -9  -3    0.32    1.14
   7  -9  -3    1.09    1.37
   7   9  -2   52.36    6.71
  -7   9  -2   41.87    6.09
   7  -9  -2   51.24    6.68
   7  -9  -2   48.15    6.79
   7   9  -2   38.91    5.86
   7   9  -1    3.57    2.57
   7   9  -1    0.96    1.79
  -7   9  -1    0.62    1.67
   7  -9  -1    0.67    1.01
   7   9   0    0.10    1.90
   7   9   0    2.36    1.47
  -7   9   0    2.65    2.08
   7  -9   0    2.62    1.15
   7   9   1    1.74    2.29
   7   9   1    3.59    2.17
  -7   9   1    2.50    1.52
   7  -9   1    1.86    1.13
   7   9   2   41.82    6.18
  -7   9   2   63.58    7.56
   7  -9   2   47.90    6.77
   7   9   2   47.27    6.31
   7   9   3    2.46    2.01
   7   9   3   -0.48    1.03
  -7   9   3    1.37    2.24
   7  -9   3    6.01    2.11
   7   9   4   28.26    4.62
  -7   9   4   27.09    5.29
   7   9   4   23.96    4.60
   7  -9   4   19.07    4.15
   7   9   5    3.03    1.97
   7   9   5   -0.09    1.83
  -7   9   5    3.40    2.74
   7  -9   5    7.57    2.34
   7   9   6   20.26    4.47
   7   9   6   20.39    4.20
  -7   9   6   13.50    3.97
   7  -9   6   18.15    4.26
   7   9   7   -0.84    1.03
   7   9   7    2.46    1.16
  -7   9   7   -1.63    1.00
   7  -9   7   -0.03    1.36
   7   9   8   78.20    8.33
  -7   9   8   88.29    9.50
   7  -9   8   64.56    7.98
   7   9   8   80.88    8.59
   7   9   9    4.96    2.61
   7   9   9    6.08    2.93
  -7   9   9    5.42    3.11
   7  -9   9    2.89    2.33
   7   9  10    3.83    2.54
  -7   9  10    1.45    1.30
   7  -9  10    2.15    2.82
   7   9  11    4.91    2.24
   7   9  11    2.65    1.83
  -7   9  11    3.48    2.23
   7  -9  11    4.88    3.29
   7   9  12   63.98    7.76
  -7   9  12   53.19    7.40
   7   9  12   48.13    6.67
   7   9  13    1.59    1.39
   7   9  13    1.27    2.31
  -7   9  13   -1.41    2.21
   7   9  14   25.28    5.49
   7   9  14   38.57    6.22
  -7   9  14   23.47    4.75
   7   9  15    2.11    1.33
  -7   9  15   -0.33    1.33
   7   9  15    3.49    2.34
   7   9  16    1.83    2.07
  -7   9  16    3.00    2.98
   7   9  16    4.44    2.97
   7   9  17    0.03    2.31
  -7   9  17    1.45    1.85
   7   9  17    2.68    1.21
   7  10 -12    3.27    2.48
   7 -10 -12    1.84    1.99
   7 -10 -12    1.96    1.73
   7 -10 -11    9.64    3.53
   7 -10 -11    9.71    3.63
   7  10 -10    1.79    1.29
   7 -10 -10    0.73    3.23
   7 -10 -10    1.90    2.14
   7  10  -9    1.11    2.04
   7 -10  -9    1.45    1.67
   7  10  -8   -1.47    1.23
   7 -10  -8    1.57    1.26
   7  10  -7   17.23    3.98
   7 -10  -7   14.71    4.08
  -7  10  -6   -0.39    1.07
   7 -10  -6   -1.47    1.25
   7  10  -5   10.29    2.93
  -7  10  -5    8.40    3.30
   7 -10  -5   13.80    4.03
   7  10  -4    2.05    1.84
  -7  10  -4    1.47    2.25
   7 -10  -4    0.41    2.07
   7  10  -3    0.21    1.37
  -7  10  -3    0.08    2.02
   7 -10  -3    2.24    1.91
   7  10  -2    3.15    2.57
  -7  10  -2    2.65    1.91
   7 -10  -2   -0.43    1.13
   7  10  -1   -1.74    1.52
   7  10  -1    0.04    1.16
  -7  10  -1    1.56    1.22
   7 -10  -1   -0.96    1.31
   7  10   0    0.39    1.41
   7  10   0    2.62    2.29
  -7  10   0   -0.37    1.79
   7 -10   0   -0.63    1.85
   7  10   1   -1.74    2.20
   7  10   1    4.12    2.77
  -7  10   1   -1.09    2.50
   7 -10   1    2.47    1.85
   7  10   2   -0.80    1.88
   7  10   2   -1.01    1.36
  -7  10   2    1.89    2.05
   7 -10   2   -2.81    2.47
  -7  10   3    1.70    1.98
   7  10   3   -0.23    1.09
   7  10   3   -0.24    1.16
   7 -10   3   -3.09    2.77
  -7  10   4    4.94    2.91
   7  10   4    3.76    1.75
   7  10   4    3.47    2.56
   7 -10   4    2.13    2.36
   7 -10   5   18.54    4.35
   7  10   5   14.05    3.46
   7  10   5    9.83    3.41
  -7  10   5    9.00    3.16
   7  10   6   -1.07    1.38
   7  10   6    1.09    0.96
  -7  10   6    4.40    2.36
   7 -10   6    1.02    2.76
   7  10   7   10.47    2.95
   7  10   7   14.98    3.94
  -7  10   7   13.87    3.44
   7 -10   7    6.55    2.94
   7  10   8    5.83    2.62
   7  10   8    2.41    1.62
  -7  10   8    0.93    2.09
   7 -10   8   -0.04    1.76
   7  10   9   -0.31    1.22
   7  10   9    1.85    2.09
  -7  10   9    1.88    1.73
   7 -10   9    1.62    2.36
   7  10  10    1.12    1.35
   7  10  10    0.68    2.02
  -7  10  10   -0.40    0.94
   7  10  11    5.45    2.97
   7  10  11    8.11    2.68
  -7  10  11    4.63    2.57
  -7  10  12    3.21    1.62
   7  10  12   -0.68    1.01
   7  10  12   -0.35    1.75
   7  11  -2    5.61    2.67
  -7  11  -2   13.60    4.52
   7 -11  -2   13.40    4.04
   7  11  -1    3.52    2.24
  -7  11  -1    0.74    1.59
   7 -11  -1   -1.69    2.08
   7  11   0    0.11    1.33
  -7  11   0    1.60    1.72
   7 -11   0   -1.58    1.80
   7  11   1    7.14    3.77
   7  11   1    1.16    1.87
  -7  11   1   -1.35    1.96
   7 -11   1    2.25    2.66
   7  11   2    9.04    3.15
   7  11   2   11.64    3.56
  -7  11   2   17.30    4.66
   7 -11   2   15.77    4.59
   8   0 -28   -6.04    2.30
   8   0 -27   16.20    4.30
   8   0 -26   36.25    6.21
   8   0 -25   11.20    3.44
   8   0 -24   11.15    3.60
   8   0 -23   -0.09    1.07
   8   0 -22   12.95    3.43
   8   0 -21   40.78    5.62
   8   0 -20    6.58    2.88
   8   0 -19   29.85    5.21
   8   0 -18   72.83    7.28
   8   0 -17  129.71    9.58
   8   0 -16   17.22    3.61
   8   0 -15  144.42    9.58
   8   0 -14   60.20    6.14
   8   0 -13   49.63    5.65
   8   0 -13   60.35    5.05
   8   0 -12  328.37   13.89
   8   0 -12  345.30   12.21
   8   0 -11  270.63   12.41
   8   0 -11  275.57   10.73
   8   0 -10   69.05    5.34
   8   0  -9  707.62   17.17
   8   0  -9  677.74   19.09
   8   0  -8  451.65   13.78
   8   0  -8  436.53   15.12
   8   0  -7    6.41    1.81
   8   0  -7    8.77    2.30
   8   0  -7    9.89    2.15
   8   0  -6  256.02   10.19
   8   0  -6  269.74   11.43
   8   0  -6  245.04   10.96
   8   0  -5   20.71    2.99
   8   0  -5   29.69    3.81
   8   0  -5   27.80    3.52
   8   0  -4  528.01   14.82
   8   0  -4  535.87   16.03
   8   0  -4  512.26   15.40
   8   0  -3  885.57   19.38
   8   0  -3  881.36   20.31
   8   0  -3  934.08   20.54
   8   0  -2  435.78   14.11
   8   0  -2  444.16   14.04
   8   0  -1   62.55    5.20
   8   0  -1   62.56    5.35
   8   0  -1   64.18    5.26
   8   0   0  669.70   17.10
   8   0   0  695.60   18.06
   8   0   0  709.52   17.11
   8   0   1   68.34    5.48
   8   0   1   63.93    5.07
   8   0   2  461.24   14.27
   8   0   2  446.84   13.51
   8   0   3  860.27   19.74
   8   0   3  872.63   18.53
   8   0   4  515.55   15.27
   8   0   4  542.42   14.35
   8   0   5   25.30    3.53
   8   0   5   23.54    2.92
   8   0   6  252.00   11.03
   8   0   6  266.00    9.92
   8   0   7    6.63    1.90
   8   0   7    6.53    1.70
   8   0   8  444.07   15.17
   8   0   8  432.33   12.33
   8   0   9  717.71   19.41
   8   0   9  697.85   15.73
   8   0  10   62.14    5.91
   8   0  10   60.02    4.57
   8   0  11  305.38   12.99
   8   0  11  274.77    9.57
   8   0  12  362.29   14.57
   8   0  12  347.68   10.63
   8   0  13   70.14    6.51
   8   0  13   62.15    4.46
   8   0  14   52.19    5.78
   8   0  15  140.06    9.51
   8   0  16   13.37    3.19
   8   0  17  128.86    9.36
   8   0  18   73.24    7.24
   8   0  19   34.72    5.23
   8   0  20    7.23    2.07
   8   0  21   34.56    5.27
   8   0  22   10.64    3.59
   8   0  23    1.63    1.60
   8  -1 -28    4.40    2.63
   8  -1 -27    9.70    3.46
   8  -1 -26    1.62    1.40
   8  -1 -25    0.37    2.00
   8  -1 -24   10.45    3.48
   8   1 -23   -1.36    1.78
   8  -1 -23    0.63    1.53
   8   1 -22    1.71    1.03
   8  -1 -22    1.36    0.99
   8   1 -21   -0.77    1.67
   8  -1 -21    1.61    1.81
   8   1 -20    2.07    0.95
   8  -1 -20    4.92    1.53
   8  -1 -19   11.96    2.71
   8   1 -19   12.66    2.90
   8  -1 -18   29.91    4.91
   8   1 -18   15.27    3.28
   8   1 -17   29.39    4.69
   8  -1 -17   23.65    4.04
   8  -1 -16   16.90    3.59
   8   1 -16   15.31    3.07
   8   1 -15    8.06    2.08
   8  -1 -15    6.34    2.63
   8  -1 -15   13.08    3.18
   8  -1 -14    3.42    1.35
   8  -1 -14    5.26    2.16
   8   1 -14    8.28    2.32
   8   1 -13    3.56    1.24
   8  -1 -13   -0.08    1.11
   8  -1 -13    3.39    1.11
   8   1 -13    6.07    2.34
   8  -1 -12    2.25    0.89
   8  -1 -12    2.40    1.45
   8   1 -12    0.27    0.84
   8   1 -12    1.34    0.94
   8   1 -11   31.51    3.43
   8  -1 -11   23.37    3.54
   8   1 -11   28.71    4.08
   8  -1 -11   23.73    3.48
   8   1 -11   23.13    3.52
   8   1 -10   18.15    2.65
   8  -1 -10   14.13    2.79
   8   1 -10   14.49    2.87
   8   1 -10   14.13    2.66
   8  -1 -10   17.89    3.09
   8  -1  -9   13.39    2.57
   8   1  -9   12.30    2.26
   8  -1  -9   10.65    2.70
   8   1  -9   13.87    2.77
   8   1  -9   14.70    2.85
   8   1  -8   20.86    2.72
   8  -1  -8   13.13    2.40
   8   1  -8   17.55    3.02
   8   1  -8   19.16    3.28
   8  -1  -8   24.31    3.82
   8  -1  -7   41.72    4.47
   8   1  -7   39.02    3.77
   8  -1  -7   33.75    4.36
   8   1  -7   33.78    3.99
   8   1  -7   35.30    4.19
   8  -1  -6   10.47    2.45
   8   1  -6   12.83    2.39
   8  -1  -6    7.98    1.96
   8   1  -6    7.38    1.98
   8   1  -6    6.91    1.90
   8  -1  -5    5.14    1.72
   8  -1  -5    7.56    1.89
   8   1  -5    7.96    1.89
   8   1  -5    5.94    1.50
   8   1  -5    5.27    1.82
   8   1  -4   12.95    2.30
   8  -1  -4    8.71    1.92
   8  -1  -4    6.79    1.56
   8   1  -4    9.19    2.21
   8   1  -4    8.49    2.16
   8  -1  -3   28.55    3.58
   8  -1  -3   26.43    3.51
   8   1  -3   32.77    3.77
   8   1  -3   26.95    3.20
   8   1  -3   27.71    3.67
   8  -1  -2   42.12    4.34
   8   1  -2   50.51    4.50
   8  -1  -2   48.08    4.89
   8   1  -2   44.56    4.44
   8   1  -2   45.34    4.47
   8  -1  -1   62.97    5.34
   8   1  -1   58.65    4.90
   8  -1  -1   57.57    5.33
   8   1  -1   60.56    5.34
   8   1  -1   63.93    5.29
   8   1   0    1.64    0.50
   8   1   0    1.55    0.94
   8  -1   0    1.68    0.73
   8  -1   0    2.17    1.23
   8  -1   1   66.61    5.62
   8  -1   1   61.32    5.45
   8   1   1   65.27    5.37
   8   1   1   62.02    5.23
   8  -1   2   46.82    4.79
   8   1   2   45.71    4.49
   8   1   2   51.18    4.61
   8  -1   3   32.79    4.02
   8   1   3   26.04    3.39
   8   1   3   28.42    3.40
   8   1   4    7.45    1.64
   8   1   4    9.21    2.24
   8  -1   4    9.59    2.08
   8   1   5    6.30    1.57
   8   1   5    4.62    1.93
   8  -1   5    4.67    1.68
   8   1   6   10.38    1.98
   8   1   6    9.33    2.43
   8  -1   6    8.67    2.25
   8  -1   7   37.62    4.32
   8   1   7   31.47    3.61
   8   1   7   35.40    4.31
   8   1   8   21.15    3.40
   8  -1   8   17.17    3.00
   8   1   8   21.27    2.88
   8  -1   9   10.58    2.49
   8   1   9   10.40    2.03
   8   1   9    9.60    2.34
   8  -1  10   12.27    2.53
   8   1  10   10.37    2.06
   8   1  10   13.64    2.50
   8   1  11   22.86    3.64
   8  -1  11   25.83    3.72
   8   1  11   27.50    3.30
   8   1  12    2.84    1.37
   8  -1  12    0.68    1.04
   8   1  12    2.43    1.97
   8   1  13    1.10    0.73
   8  -1  13    4.03    1.83
   8   1  13    2.70    1.27
   8  -1  14    3.85    1.31
   8   1  14    2.43    0.70
   8  -1  15   10.31    3.06
   8   1  15    9.87    2.51
   8  -1  16   16.23    3.44
   8   1  16   14.67    3.02
   8  -1  17   31.69    4.71
   8   1  17   22.06    4.07
   8  -1  18   19.49    3.76
   8   1  18   11.21    3.29
   8  -1  19   10.81    2.86
   8   1  19    8.74    3.14
   8  -1  20    2.27    1.05
   8   1  20    1.57    1.14
   8  -1  21    2.69    2.04
   8   1  21   -0.87    1.87
   8   1  22    5.66    1.93
   8  -1  22    7.66    2.61
   8   1  23    1.30    1.59
   8   1  24    4.07    2.24
   8  -2 -28   17.51    4.05
   8  -2 -27   22.34    4.47
   8  -2 -26   13.02    3.75
   8  -2 -25    8.86    2.81
   8  -2 -24   30.85    5.13
   8  -2 -23    7.67    2.82
   8  -2 -22   19.71    4.47
   8  -2 -21   51.11    6.43
   8  -2 -20    6.14    2.87
   8  -2 -19   12.03    3.85
   8   2 -18   43.17    5.72
   8  -2 -18   43.15    5.75
   8  -2 -17   37.91    5.21
   8   2 -17   32.77    4.58
   8   2 -17   27.15    4.57
   8   2 -16   47.66    5.29
   8  -2 -16   34.40    5.15
   8  -2 -16   48.67    5.52
   8   2 -16   45.25    5.68
   8   2 -15   97.94    7.54
   8  -2 -15   97.61    8.37
   8  -2 -15   77.98    7.08
   8   2 -15  109.78    8.36
   8   2 -14   40.87    4.79
   8  -2 -14   39.45    5.37
   8   2 -14   40.74    5.00
   8  -2 -14   32.69    4.36
   8  -2 -13    8.94    2.70
   8   2 -13   14.70    2.89
   8  -2 -13   11.96    2.61
   8   2 -13   16.57    3.19
   8   2 -12   95.54    7.01
   8  -2 -12  111.43    8.56
   8  -2 -12   97.81    7.37
   8   2 -12   99.37    7.51
   8   2 -11  138.00    8.27
   8  -2 -11  155.91    9.87
   8  -2 -11  157.54    9.33
   8   2 -11  139.19    8.94
   8   2 -10   13.10    2.21
   8   2 -10   21.08    3.15
   8  -2 -10   21.31    3.57
   8   2 -10   23.32    3.74
   8  -2 -10   17.42    3.08
   8   2  -9   76.35    5.06
   8  -2  -9   70.55    6.53
   8   2  -9   78.11    6.10
   8   2  -9   76.19    6.39
   8  -2  -9   80.30    6.70
   8   2  -8  103.03    6.11
   8  -2  -8  107.37    7.90
   8   2  -8   88.16    6.28
   8   2  -8   93.53    7.05
   8  -2  -8   98.08    7.17
   8  -2  -7   73.47    6.05
   8   2  -7   72.59    5.15
   8  -2  -7   74.13    6.83
   8   2  -7   77.01    5.90
   8   2  -7   75.47    6.30
   8   2  -6    5.89    1.68
   8   2  -6    6.34    1.38
   8  -2  -6   10.09    2.43
   8   2  -6    9.60    2.30
   8  -2  -5  140.38    8.54
   8   2  -5  141.18    8.45
   8  -2  -5  142.51    9.02
   8   2  -5  141.18    7.72
   8   2  -5  159.49    7.67
   8  -2  -4  167.88    9.27
   8  -2  -4  169.33    9.68
   8   2  -4  171.64    8.37
   8   2  -4  149.67    7.59
   8   2  -4  174.52    9.37
   8  -2  -3  173.78    9.25
   8  -2  -3  159.06    9.25
   8   2  -3  159.47    7.98
   8   2  -3  153.58    7.74
   8   2  -3  158.21    8.77
   8  -2  -2  297.17   12.29
   8   2  -2  267.31   10.53
   8  -2  -2  276.49   12.16
   8   2  -2  263.90   10.46
   8   2  -2  255.19   11.12
   8  -2  -1  291.25   12.14
   8  -2  -1  285.99   12.39
   8   2  -1  299.09   11.26
   8   2   0  120.15    7.17
   8  -2   0  119.42    7.73
   8  -2   0  119.51    7.93
   8   2   0  116.19    7.39
   8   2   1  276.28   11.39
   8  -2   1  266.62   11.64
   8  -2   1  248.00   11.25
   8   2   1  293.73   11.66
   8   2   2  271.76   11.26
   8  -2   2  273.12   11.74
   8  -2   2  279.45   12.29
   8   2   2  260.36   10.97
   8   2   3  155.10    8.52
   8  -2   3  147.41    8.83
   8  -2   3  158.93    9.10
   8   2   3  157.42    8.50
   8   2   4  172.41    9.24
   8  -2   4  165.54    9.09
   8   2   4  162.85    8.59
   8   2   5  147.91    8.74
   8  -2   5  139.93    8.48
   8   2   5  158.81    8.35
   8   2   6    9.04    2.15
   8  -2   6   12.39    2.47
   8   2   6    8.17    2.11
   8   2   7   67.24    5.92
   8   2   7   73.12    5.68
   8   2   8  103.47    7.32
   8  -2   8   95.07    7.40
   8   2   8   95.39    6.47
   8   2   9   75.97    6.60
   8  -2   9   70.84    6.37
   8   2   9   71.41    5.71
   8   2  10   21.43    3.42
   8  -2  10   16.88    3.18
   8   2  10   14.77    2.79
   8   2  11  155.17    9.79
   8  -2  11  154.93    9.73
   8   2  11  146.38    8.09
   8   2  12   89.65    7.37
   8  -2  12   96.66    7.76
   8   2  12   91.21    6.49
   8   2  13   12.84    2.51
   8   2  13   13.66    2.67
   8  -2  13   15.36    3.30
   8   2  14   31.74    4.84
   8  -2  14   44.32    5.32
   8   2  14   39.81    4.23
   8   2  15  102.49    8.46
   8  -2  15   87.33    7.82
   8   2  15   93.07    6.59
   8  -2  16   49.62    5.85
   8   2  17   32.14    5.20
   8  -2  17   39.60    5.36
   8   2  18   37.81    5.20
   8  -2  18   36.16    5.32
   8   2  19   14.84    4.02
   8  -2  19   13.73    3.42
   8   2  20    3.07    1.30
   8  -2  20    8.67    2.87
   8   2  21   52.43    6.44
   8  -2  21   54.37    6.44
   8   2  22   14.34    3.51
   8   2  23    3.11    1.86
   8   2  24   27.70    5.08
   8   2  25   16.94    4.21
   8  -3 -27   -0.19    1.86
   8  -3 -26    2.86    2.23
   8  -3 -25    1.30    1.58
   8  -3 -24    1.58    1.33
   8  -3 -23    2.75    1.93
   8  -3 -22   -0.12    1.09
   8  -3 -21    2.88    2.16
   8  -3 -20    4.09    1.81
   8  -3 -19    4.19    1.94
   8   3 -19    2.20    2.17
   8  -3 -18    9.76    2.92
   8   3 -18   13.16    3.40
   8  -3 -17   83.66    7.73
   8  -3 -17   77.47    7.57
   8   3 -17   71.27    7.07
   8  -3 -16   53.13    6.44
   8  -3 -16   50.86    6.02
   8   3 -16   61.16    6.53
   8  -3 -15   26.73    4.50
   8  -3 -15   29.24    4.46
   8   3 -15   28.59    4.30
   8  -3 -14   30.22    4.72
   8   3 -14   24.63    4.33
   8  -3 -14   21.47    3.60
   8  -3 -13   16.40    3.36
   8  -3 -13   23.03    3.85
   8   3 -13   18.26    3.39
   8   3 -12    1.21    1.11
   8  -3 -12    1.92    1.36
   8   3 -12    1.11    1.32
   8  -3 -12    3.80    1.62
   8   3 -11   18.02    2.73
   8  -3 -11   24.40    3.73
   8  -3 -11   23.78    3.91
   8   3 -11   20.25    3.86
   8   3 -10   37.52    3.82
   8  -3 -10   30.30    4.71
   8  -3 -10   34.99    4.53
   8   3 -10   37.24    4.73
   8   3  -9   34.19    3.45
   8   3  -9   28.08    3.26
   8  -3  -9   24.43    4.25
   8  -3  -9   31.82    4.44
   8   3  -9   38.08    4.74
   8   3  -8   28.47    3.41
   8  -3  -8   29.08    4.22
   8   3  -8   30.86    3.39
   8  -3  -8   27.88    4.07
   8   3  -8   28.75    4.09
   8   3  -7   47.10    4.19
   8  -3  -7   55.30    5.92
   8   3  -7   50.64    4.30
   8  -3  -7   41.99    5.06
   8   3  -7   53.92    5.51
   8   3  -6   15.70    2.96
   8  -3  -6   21.94    3.91
   8   3  -6   21.61    2.93
   8   3  -6   17.73    2.58
   8  -3  -6   21.04    3.52
   8   3  -5    5.52    1.74
   8  -3  -5    3.88    1.21
   8   3  -5    5.13    1.54
   8  -3  -5    6.83    2.69
   8   3  -5    5.49    1.66
   8   3  -4   -0.19    1.12
   8  -3  -4    0.14    0.48
   8   3  -4    1.11    0.66
   8  -3  -4   -0.50    0.85
   8   3  -4    1.14    0.94
   8  -3  -3   25.51    3.75
   8   3  -3   23.70    3.19
   8  -3  -3   28.36    4.05
   8   3  -3   25.51    3.13
   8   3  -3   26.54    3.63
   8  -3  -2   22.76    3.78
   8   3  -2   26.63    3.36
   8  -3  -2   29.26    4.18
   8   3  -2   27.47    3.29
   8   3  -2   29.28    4.03
   8   3  -1   12.34    2.90
   8  -3  -1   13.24    2.80
   8   3  -1   11.01    2.38
   8  -3  -1   11.90    2.76
   8   3   0    5.31    1.74
   8  -3   0    7.29    2.09
   8  -3   0    5.42    1.79
   8   3   0    8.70    2.10
   8   3   1   13.15    2.81
   8  -3   1   16.09    2.97
   8  -3   1   12.13    2.68
   8   3   1   11.75    2.42
   8   3   2   29.45    3.89
   8  -3   2   22.13    3.40
   8   3   2   22.47    3.42
   8  -3   2   30.72    4.27
   8   3   3   22.25    3.40
   8  -3   3   27.60    3.90
   8   3   3   17.50    2.96
   8  -3   3   23.72    3.62
   8   3   4    0.32    0.52
   8  -3   4    0.16    0.53
   8  -3   4   -0.07    0.88
   8   3   4    1.08    1.58
   8   3   5    3.60    1.17
   8   3   5    3.42    1.83
   8  -3   5    5.64    1.91
   8  -3   5    4.24    1.57
   8   3   6   18.75    3.15
   8  -3   6   19.18    3.18
   8   3   6   19.57    3.50
   8   3   7   45.92    4.88
   8  -3   7   42.85    5.10
   8   3   7   46.81    5.10
   8   3   8   29.31    3.85
   8  -3   8   25.30    3.74
   8   3   8   23.53    3.81
   8   3   9   36.89    4.37
   8  -3   9   38.66    4.61
   8   3   9   38.77    4.92
   8   3  10   27.34    3.78
   8  -3  10   35.51    4.81
   8   3  10   30.62    4.65
   8   3  11   21.93    3.34
   8  -3  11   23.01    3.99
   8   3  11   23.75    4.03
   8   3  12    3.39    1.24
   8   3  12    2.01    1.23
   8  -3  12    2.78    1.97
   8   3  13   18.23    3.14
   8   3  13   22.12    3.87
   8  -3  13   25.18    3.99
   8   3  14   25.11    3.70
   8   3  14   28.09    4.58
   8  -3  14   23.44    4.16
   8   3  15   18.73    3.26
   8   3  15   31.81    4.79
   8  -3  15   32.41    4.72
   8   3  16   47.59    5.81
   8  -3  16   55.03    6.08
   8   3  17   74.77    7.75
   8  -3  17   65.77    6.96
   8  -3  18    8.98    2.93
   8   3  18    9.65    2.67
   8  -3  19    6.35    2.25
   8   3  19    5.78    1.90
   8  -3  20    3.20    1.90
   8   3  20    0.46    0.79
   8   3  21    1.36    2.39
   8   3  22    3.25    2.59
   8   3  23    1.47    1.48
   8   3  24    3.04    2.05
   8   3  25    1.55    1.17
   8   3  26   -1.21    1.57
   8  -4 -26    1.45    2.44
   8  -4 -25   11.42    3.09
   8  -4 -24   21.78    4.46
   8  -4 -23    4.75    2.28
   8  -4 -22   18.89    4.23
   8  -4 -21   30.33    5.24
   8  -4 -20    0.22    1.22
   8  -4 -19    4.10    2.75
   8  -4 -19   14.29    4.09
   8  -4 -18   15.40    4.32
   8  -4 -18   13.30    3.71
   8   4 -18   18.35    4.24
   8  -4 -17    4.40    1.99
   8  -4 -17    5.19    2.37
   8   4 -17    2.51    1.10
   8  -4 -16   53.33    6.55
   8  -4 -16   59.80    6.82
   8   4 -16   66.80    6.98
   8  -4 -15   90.58    8.42
   8  -4 -15   90.57    8.26
   8   4 -15   99.68    8.47
   8  -4 -14   27.57    4.55
   8  -4 -14   21.76    4.05
   8   4 -14   25.45    4.19
   8  -4 -13   15.92    3.10
   8   4 -13   23.27    4.13
   8  -4 -13   21.86    3.85
   8  -4 -12   21.24    3.94
   8   4 -12   23.33    4.23
   8  -4 -12   12.80    2.92
   8  -4 -11   69.67    6.97
   8  -4 -11   73.07    7.28
   8   4 -11   82.29    7.52
   8  -4 -10   17.48    3.77
   8  -4 -10   14.69    3.11
   8   4 -10   12.59    2.66
   8   4  -9   14.76    3.18
   8  -4  -9   15.81    3.04
   8  -4  -9   16.43    3.75
   8   4  -8    8.68    2.24
   8   4  -8    8.33    2.01
   8  -4  -8    4.91    1.75
   8  -4  -8    3.78    1.14
   8   4  -7   58.72    5.01
   8  -4  -7   57.84    6.26
   8  -4  -7   52.31    5.84
   8   4  -7   57.22    6.00
   8   4  -6   11.57    2.75
   8  -4  -6   12.06    3.02
   8   4  -6   11.59    2.23
   8  -4  -6   11.67    2.82
   8   4  -5  205.89   11.15
   8  -4  -5  218.76   11.78
   8   4  -5  220.52    8.61
   8  -4  -5  213.41   11.62
   8   4  -4  119.34    8.42
   8   4  -4   94.62    6.74
   8  -4  -4   89.01    7.55
   8   4  -4   96.24    5.76
   8  -4  -4   96.71    7.82
   8   4  -3   31.93    4.37
   8   4  -3   28.45    3.58
   8  -4  -3   33.77    4.54
   8   4  -3   35.21    3.65
   8  -4  -3   44.52    5.40
   8   4  -2  185.19   10.44
   8   4  -2  193.98    9.76
   8  -4  -2  161.29    9.86
   8   4  -2  187.67    8.38
   8  -4  -2  201.86   10.99
   8  -4  -1  337.97   14.34
   8   4  -1  342.55   14.09
   8  -4  -1  328.69   14.33
   8   4  -1  328.54   13.03
   8   4   0   40.10    4.92
   8  -4   0   46.46    5.28
   8   4   0   46.11    4.93
   8  -4   0   47.46    5.55
   8   4   1  346.90   14.24
   8  -4   1  368.32   14.90
   8   4   1  337.10   13.55
   8  -4   1  348.78   14.67
   8   4   2  164.64    9.98
   8  -4   2  178.97   10.36
   8   4   2  181.61    9.93
   8  -4   2  182.39   10.47
   8  -4   3   35.98    4.56
   8   4   3   34.24    4.36
   8  -4   3   30.73    4.26
   8   4   4  100.98    7.69
   8  -4   4  109.85    8.25
   8   4   4   95.00    7.46
   8  -4   4  106.75    7.97
   8   4   5  231.01   11.53
   8  -4   5  209.60   11.36
   8   4   5  221.07   11.30
   8  -4   5  217.94   11.65
   8   4   6   16.99    3.74
   8   4   6   12.68    2.93
   8  -4   6   16.80    3.50
   8  -4   6   13.62    2.47
   8   4   7   65.02    6.15
   8  -4   7   61.38    6.36
   8   4   7   58.48    5.89
   8  -4   7   62.43    6.36
   8   4   8    5.55    2.33
   8   4   8    6.10    2.47
   8  -4   8    7.99    2.57
   8   4   9   17.77    3.38
   8  -4   9   14.21    3.11
   8   4   9   20.35    3.58
   8   4  10   19.02    3.47
   8  -4  10   16.30    3.38
   8   4  10   23.27    3.87
   8   4  11   52.42    5.75
   8  -4  11   61.54    6.34
   8   4  11   71.87    6.94
   8   4  12   25.02    4.20
   8  -4  12   29.35    4.63
   8   4  12   31.01    4.68
   8   4  13   21.15    3.45
   8   4  13   18.30    3.39
   8  -4  13   20.71    3.74
   8   4  14   27.99    3.99
   8   4  14   22.07    3.93
   8  -4  14   23.32    4.27
   8   4  15   78.36    7.29
   8  -4  15  101.35    8.69
   8   4  15   87.76    8.12
   8   4  16   56.56    6.24
   8  -4  16   52.98    6.32
   8   4  16   65.22    7.10
   8   4  17    0.23    0.95
   8  -4  17    5.15    2.22
   8   4  18   14.72    3.54
   8  -4  18   12.95    3.30
   8   4  19   10.46    2.80
   8   4  20   -1.29    1.38
   8   4  21   22.20    4.53
   8   4  22   17.07    3.72
   8   4  23   -0.75    1.38
   8   4  24   24.97    4.94
   8   4  25   15.71    3.83
   8   4  26    1.02    2.07
   8  -5 -25    4.34    2.80
   8  -5 -24    1.35    1.18
   8  -5 -23   -2.36    1.56
   8  -5 -22    0.32    1.33
   8  -5 -21   -0.62    1.29
   8  -5 -20   -0.44    1.20
   8  -5 -20    5.59    3.41
   8  -5 -19    4.27    1.92
   8  -5 -19    1.25    1.79
   8  -5 -18    3.14    1.96
   8  -5 -18    4.33    2.29
   8   5 -17   10.41    3.08
   8  -5 -17    8.52    2.97
   8  -5 -17   10.12    3.27
   8  -5 -16   24.88    4.95
   8  -5 -16   14.37    3.28
   8   5 -16   28.06    4.71
   8  -5 -15   16.86    3.94
   8   5 -15   13.15    3.09
   8  -5 -15   25.39    4.78
   8   5 -14   15.22    3.35
   8  -5 -14   21.31    4.58
   8  -5 -14   14.13    3.94
   8   5 -13    4.24    2.33
   8  -5 -13    1.96    1.52
   8  -5 -13    6.52    1.71
   8   5 -12   14.15    3.12
   8  -5 -12    9.83    2.97
   8  -5 -12   11.58    2.66
   8   5 -11    9.73    2.46
   8  -5 -11    8.13    2.22
   8  -5 -11    6.70    2.73
   8   5 -10   -1.53    1.18
  -8   5 -10   -1.43    0.84
   8  -5 -10    1.93    1.09
   8  -5 -10    1.87    1.80
   8  -5  -9    5.32    2.46
   8   5  -9    2.61    1.82
   8  -5  -9    6.21    2.03
   8  -5  -8    9.79    2.38
   8   5  -8   16.50    3.36
   8  -5  -8   10.42    3.17
   8   5  -7   34.79    5.12
   8  -5  -7   25.49    4.48
   8  -5  -7   30.62    4.42
   8  -5  -6   15.26    3.36
   8   5  -6   16.91    3.26
   8  -5  -6   14.50    3.60
   8   5  -6    9.81    2.24
   8  -5  -5   10.09    2.95
   8   5  -5   12.67    2.72
   8  -5  -5   10.96    3.01
   8   5  -5   11.15    2.35
   8   5  -4   32.22    4.66
   8   5  -4   31.96    4.15
   8  -5  -4   32.22    4.77
   8  -5  -4   39.27    5.16
   8   5  -3   28.70    4.47
   8   5  -3   26.00    3.76
   8  -5  -3   31.08    4.72
   8  -5  -3   31.12    4.95
   8   5  -2   19.09    3.86
   8  -5  -2   14.27    3.31
   8   5  -2   18.00    3.37
   8  -5  -2   15.86    3.00
   8   5  -1    8.88    2.60
   8  -5  -1    9.38    2.41
   8   5  -1    8.75    2.30
   8  -5  -1    9.87    2.51
   8   5   0   11.71    2.80
   8  -5   0   17.28    3.30
   8   5   0    8.47    2.06
   8  -5   0    8.79    2.94
   8   5   1    2.96    1.40
   8  -5   1    6.53    2.36
   8   5   1   14.04    2.90
   8  -5   1   11.11    3.27
   8   5   2   21.44    4.15
   8  -5   2   20.39    3.85
   8   5   2   12.54    2.86
   8  -5   2   17.83    3.73
   8   5   3   22.87    3.93
   8  -5   3   19.22    3.80
   8   5   3   31.73    4.62
   8  -5   3   30.60    4.92
   8  -5   4   22.05    3.86
   8   5   4   29.78    4.11
   8   5   4   33.99    4.74
   8  -5   4   24.76    3.83
   8   5   5    9.54    2.38
   8  -5   5    8.99    2.76
   8   5   5    9.46    2.57
   8  -5   5    7.58    2.04
   8   5   6   14.78    2.72
   8  -5   6   17.05    3.23
   8   5   6   13.29    3.01
   8  -5   6   10.46    2.81
   8  -5   7   40.86    5.20
   8   5   7   36.98    5.01
   8   5   7   44.16    5.49
   8  -5   7   40.10    5.21
   8   5   8    9.27    2.78
   8  -5   8   11.43    3.01
   8   5   8    7.09    2.23
   8  -5   8   11.67    2.91
   8   5   9    8.65    2.80
   8  -5   9    5.63    2.37
   8   5   9    4.73    2.30
   8  -5   9    5.01    2.32
   8   5  10    0.08    1.62
   8  -5  10   -0.08    1.51
   8   5  10    1.09    1.23
   8  -5  10    0.36    1.35
   8   5  11    7.95    2.52
   8  -5  11    9.77    2.97
   8   5  11   11.63    3.01
   8   5  12    8.51    2.83
   8  -5  12    9.61    2.71
   8   5  12   14.99    3.45
   8   5  13    6.90    2.43
   8  -5  13    4.29    1.82
   8   5  13    7.38    2.81
   8   5  14   21.50    3.87
   8  -5  14   12.10    3.34
   8   5  14   13.51    3.30
   8   5  15   20.32    3.93
   8  -5  15   22.24    4.57
   8   5  15   26.28    4.73
   8  -5  16   24.75    5.03
   8   5  16   24.40    4.39
   8   5  16   23.90    4.55
   8   5  17    8.83    3.17
   8   5  17    8.12    2.61
   8  -5  17    9.29    3.65
   8   5  18    4.34    1.72
   8   5  19    5.68    2.60
   8   5  20   -0.15    1.36
   8   5  21    1.04    1.55
   8   5  22   -0.81    1.47
   8   5  23    0.23    1.18
   8   5  24    0.63    1.95
   8   5  25    4.59    2.26
   8  -6 -24   18.15    4.59
   8  -6 -23    0.40    2.18
   8  -6 -22    8.19    2.74
   8  -6 -21   22.56    5.30
   8  -6 -21   26.83    6.07
   8  -6 -20    0.21    1.52
   8  -6 -20    1.30    1.74
   8  -6 -19   10.03    3.59
   8  -6 -19   10.56    3.47
   8  -6 -18   18.90    4.05
   8  -6 -18   18.20    3.95
   8   6 -17   14.80    3.99
   8  -6 -17   11.83    3.43
   8  -6 -17    8.42    3.31
   8   6 -16   12.06    3.24
   8  -6 -16   13.85    3.90
   8  -6 -16   11.75    3.25
   8  -6 -15   40.95    6.35
   8   6 -15   48.00    6.27
   8  -6 -14   23.32    4.58
   8  -6 -14   20.58    4.56
   8   6 -14   27.26    4.77
   8   6 -13    2.01    1.67
   8  -6 -13    0.06    1.35
   8  -6 -13   -0.42    0.93
   8  -6 -12   38.60    5.45
   8  -6 -12   31.52    4.88
   8   6 -12   34.01    5.19
   8  -6 -11   75.69    7.88
   8   6 -11   93.81    8.38
   8   6 -10   12.26    3.12
   8  -6 -10   17.00    3.81
   8   6  -9   45.83    5.83
  -8   6  -9   41.52    5.16
   8  -6  -9   53.55    6.38
   8  -6  -9   40.72    5.63
   8   6  -8   18.73    3.69
  -8   6  -8   17.03    3.50
   8  -6  -8   27.64    4.36
   8  -6  -8   27.13    4.50
   8  -6  -7   15.14    3.44
  -8   6  -7   10.85    3.03
   8   6  -7   11.55    2.89
   8  -6  -7   11.42    3.52
   8   6  -6  104.84    8.64
   8  -6  -6   90.59    8.63
   8   6  -6   75.72    6.73
  -8   6  -6  108.63    8.50
   8  -6  -6   78.43    7.96
   8   6  -5   94.63    8.41
   8   6  -5  124.80    8.61
   8  -6  -5  113.19    9.22
   8  -6  -5  107.99    9.12
   8  -6  -4    5.60    1.77
   8   6  -4   11.00    3.05
   8   6  -4    8.75    2.44
   8  -6  -4    8.96    3.03
   8   6  -3   33.68    4.99
   8   6  -3   26.92    4.06
   8  -6  -3   31.88    4.68
   8  -6  -3   43.92    6.06
   8   6  -2   40.16    4.97
   8   6  -2   28.20    4.75
   8  -6  -2   43.23    5.64
   8  -6  -2   39.11    5.24
   8   6  -1   49.88    5.96
   8  -6  -1   48.53    5.93
   8   6  -1   45.29    5.20
   8  -6  -1   56.43    6.47
   8   6   0   46.81    5.89
   8  -6   0   48.81    5.96
   8   6   0   54.76    5.93
   8  -6   0   56.36    6.24
   8   6   1   59.47    6.65
   8  -6   1   52.22    5.96
   8   6   1   47.33    5.57
   8  -6   1   45.72    5.85
   8   6   2   29.63    4.89
   8  -6   2   35.70    5.06
   8   6   2   34.34    4.71
   8  -6   2   39.96    5.39
   8   6   3   30.66    4.70
   8  -6   3   34.44    5.22
   8   6   3   37.51    5.05
   8  -6   3   29.20    4.89
   8  -6   4   11.07    3.16
   8   6   4    9.89    3.44
   8   6   4    9.43    2.66
   8  -6   4   10.77    2.73
   8   6   5  115.02    8.89
   8  -6   5   98.63    8.68
   8   6   5   99.48    8.20
   8  -6   5  118.72    9.56
   8   6   6  104.75    8.73
   8  -6   6   94.79    8.47
   8   6   6   94.22    8.17
   8  -6   6  100.38    8.65
   8  -6   7    8.72    3.23
   8   6   7    8.52    2.78
   8   6   7   13.42    2.99
   8  -6   7   14.80    3.65
   8   6   8   19.29    4.12
   8   6   8   21.96    3.95
   8  -6   8   22.47    4.25
   8  -6   8   26.85    4.99
   8   6   9   42.91    5.64
   8   6   9   41.83    5.59
   8  -6   9   43.57    5.68
   8  -6   9   42.44    5.56
   8  -6  10    9.94    3.31
   8   6  10   12.71    2.91
   8   6  10    9.40    2.66
   8  -6  10   10.53    3.10
   8   6  11   95.95    8.23
   8  -6  11   74.02    7.66
   8   6  11   77.03    7.72
   8  -6  11   71.52    7.68
   8   6  12   29.30    4.51
   8   6  12   39.16    5.36
   8  -6  12   43.41    5.84
   8  -6  12   36.79    5.56
   8   6  13   -1.41    1.63
   8   6  13    3.24    1.42
   8  -6  13   -0.54    1.43
   8  -6  13    3.22    2.40
   8   6  14   26.23    4.76
   8   6  14   18.89    3.82
   8  -6  14   25.66    4.77
   8  -6  14   33.78    5.48
   8   6  15   59.27    6.86
   8   6  15   54.82    6.91
   8  -6  15   63.46    7.26
   8   6  16    9.41    2.84
   8  -6  16   12.05    3.79
   8   6  16   11.32    3.36
   8   6  17   12.97    3.09
   8   6  17   14.49    3.88
   8   6  18   17.33    4.00
   8   6  19   13.90    3.75
   8   6  20    3.84    1.91
   8   6  21   12.06    3.73
   8   6  22    3.94    3.24
  -8   6  22   -2.60    2.71
   8   6  23   -0.03    1.98
  -8   6  23   -0.29    2.21
   8   6  24   14.89    3.86
  -8   6  24    9.59    3.62
   8  -7 -22   -0.90    1.47
   8  -7 -22   -5.83    2.48
   8  -7 -21    1.48    1.24
   8  -7 -21    3.38    2.38
   8  -7 -20    0.73    2.30
   8  -7 -20    1.19    1.96
   8  -7 -19    3.37    2.18
   8  -7 -19   -0.50    1.31
   8  -7 -18    4.73    2.41
   8  -7 -18    4.53    2.69
   8  -7 -17    1.52    2.45
   8  -7 -17   -0.32    1.10
   8   7 -16    1.40    1.53
   8  -7 -16    3.79    1.91
   8  -7 -16    2.48    1.63
   8   7 -15    1.80    1.57
   8  -7 -15   -1.38    1.62
   8  -7 -15   -1.12    1.35
   8   7 -14    1.26    1.75
   8  -7 -14    2.12    1.74
   8  -7 -14    4.02    1.90
   8   7 -13    2.60    2.33
   8  -7 -13    5.46    2.64
   8  -7 -13    4.12    2.40
   8   7 -12   21.77    4.30
   8  -7 -12   15.86    4.14
   8  -7 -12   18.15    4.63
   8   7 -11   25.83    4.85
   8  -7 -11   23.97    4.79
   8  -7 -11   27.96    4.86
   8   7 -10   12.79    3.25
   8  -7 -10   15.00    3.54
   8  -7 -10   11.50    3.27
   8   7  -9   -1.14    1.63
   8  -7  -9    1.88    2.13
   8  -7  -9   -0.62    0.77
   8   7  -8   26.80    4.95
  -8   7  -8   20.05    3.91
   8  -7  -8   22.63    4.66
   8  -7  -8   21.83    4.34
   8   7  -7   21.88    4.30
  -8   7  -7   16.55    3.99
   8  -7  -7   21.36    4.19
   8  -7  -7   19.14    4.15
   8   7  -6    8.19    1.82
  -8   7  -6    6.86    2.01
   8  -7  -6    5.01    2.53
   8  -7  -6   11.42    3.33
   8   7  -5   47.87    6.04
  -8   7  -5   38.81    5.55
   8  -7  -5   35.80    5.54
   8  -7  -5   33.43    5.15
   8  -7  -4   17.67    3.84
  -8   7  -4   12.89    3.68
   8   7  -4    9.86    2.57
   8   7  -4   15.83    3.44
   8  -7  -4   10.76    3.02
   8   7  -3   20.41    4.35
  -8   7  -3   23.52    4.36
   8  -7  -3   23.03    4.49
   8  -7  -3   24.99    4.62
   8   7  -3   18.68    3.73
   8  -7  -2   22.39    4.31
   8  -7  -2   21.37    4.43
   8   7  -2   23.91    4.29
   8   7  -2   16.95    3.70
  -8   7  -2   19.98    3.70
   8   7  -1   33.42    5.12
  -8   7  -1   33.03    5.23
   8  -7  -1   40.66    5.64
   8   7  -1   35.12    4.88
   8  -7  -1   41.59    5.92
   8   7   0   50.18    5.98
   8  -7   0   59.52    7.02
   8   7   0   51.03    6.09
   8  -7   0   40.41    5.71
  -8   7   0   55.54    6.27
   8   7   1   41.19    5.68
   8  -7   1   35.43    5.09
   8   7   1   40.89    5.44
   8  -7   1   31.57    4.88
   8  -7   2   17.83    4.06
   8   7   2   18.09    3.87
   8  -7   2   23.81    4.71
   8   7   2    9.21    2.21
   8  -7   3   16.32    3.44
   8   7   3   21.75    3.78
   8  -7   3   24.60    4.53
   8   7   3   21.32    4.06
   8  -7   4    8.98    3.14
   8   7   4   12.83    3.23
   8  -7   4    9.91    2.77
   8   7   4    9.43    2.47
   8  -7   5   32.79    5.46
   8   7   5   27.11    4.48
   8   7   5   34.24    5.26
   8  -7   5   38.60    5.82
   8  -7   6   13.92    3.39
   8   7   6   11.75    3.20
   8  -7   6    9.31    3.28
   8   7   6   10.22    2.89
   8  -7   7   17.04    3.73
   8   7   7   16.91    3.59
   8  -7   7   24.18    4.66
   8   7   7   28.82    4.72
   8  -7   8   14.48    3.55
   8  -7   8   14.13    3.29
   8   7   8   19.72    3.95
   8  -7   9    0.97    1.67
   8   7   9    0.62    2.16
   8  -7   9    0.04    1.52
   8   7   9    0.50    1.50
   8  -7  10   12.27    3.63
   8   7  10   15.24    3.69
   8   7  10   12.29    3.40
   8  -7  10   16.05    4.18
   8  -7  11   22.24    4.16
   8   7  11   25.45    4.34
   8   7  11   22.78    4.32
   8  -7  11   22.47    4.51
   8  -7  12   16.24    3.74
   8   7  12   15.00    3.71
   8   7  12   16.76    3.62
   8  -7  13    0.29    2.25
   8   7  13    5.16    2.75
   8   7  13    4.54    2.03
   8   7  14    5.36    2.22
   8   7  14    1.42    1.31
   8   7  15   -1.27    2.08
   8   7  15    0.40    0.89
   8   7  16    3.99    2.63
   8   7  16    0.10    0.88
   8   7  17   -0.63    2.09
  -8   7  17   -1.57    2.73
   8   7  17    4.06    2.13
   8   7  18    2.11    1.15
  -8   7  18    3.89    2.43
   8   7  19    2.22    2.07
  -8   7  19    0.69    1.42
   8   7  20    3.48    2.53
  -8   7  20    2.15    2.47
  -8   7  21    4.96    2.95
   8   7  21    4.43    3.14
  -8   7  22    4.40    2.78
   8   7  22    0.56    1.83
   8  -8 -19    1.82    1.88
   8  -8 -19    1.20    2.16
   8  -8 -18    8.30    2.74
   8  -8 -18   10.27    3.53
   8  -8 -17   13.07    4.36
   8  -8 -17   19.79    4.59
   8  -8 -16   -1.69    1.24
   8  -8 -16    0.17    2.05
   8   8 -15   15.14    3.83
   8  -8 -15   13.07    4.16
   8  -8 -15   11.55    2.97
   8  -8 -14    9.14    3.88
   8   8 -14   12.96    4.15
   8  -8 -14    7.60    3.85
   8   8 -13   -1.21    1.92
   8  -8 -13   -2.21    1.96
   8  -8 -13    4.21    2.64
   8  -8 -12   24.80    4.84
   8   8 -12   31.03    5.26
   8  -8 -12   21.82    4.64
   8   8 -11   34.92    5.49
   8  -8 -11   40.27    6.30
   8  -8 -11   36.27    6.02
   8   8 -10    2.21    1.23
   8  -8 -10    1.30    2.05
   8  -8 -10    4.00    1.56
   8   8  -9   22.29    4.58
   8  -8  -9   26.35    4.82
   8  -8  -9   23.84    4.88
   8   8  -8   22.81    5.04
   8  -8  -8   23.40    4.64
   8  -8  -8   33.58    5.64
   8   8  -7   12.48    3.82
  -8   8  -7    4.59    2.40
   8  -8  -7   11.71    3.12
   8  -8  -7   13.35    3.79
   8   8  -6    9.39    2.84
  -8   8  -6    2.61    2.32
   8  -8  -6   12.82    3.24
   8  -8  -6    5.42    2.55
   8   8  -5   40.53    5.49
  -8   8  -5   31.70    5.65
   8  -8  -5   31.37    5.18
   8  -8  -5   46.27    6.21
   8   8  -4    6.58    3.11
   8  -8  -4    7.43    2.77
  -8   8  -4    9.54    3.32
   8  -8  -4    5.21    1.96
   8   8  -3    3.26    1.93
   8  -8  -3    4.78    2.34
   8   8  -3    2.22    1.64
  -8   8  -3    2.24    1.04
   8  -8  -3    6.63    2.49
   8  -8  -2   23.87    4.79
   8   8  -2   18.63    4.10
   8   8  -2   21.73    4.28
  -8   8  -2   19.91    4.41
   8  -8  -2   24.92    4.56
   8   8  -1   17.26    4.13
  -8   8  -1   17.54    3.98
   8  -8  -1   21.33    4.44
   8   8  -1   13.06    3.04
   8  -8  -1   14.67    3.89
   8  -8   0    2.07    1.44
   8   8   0    0.57    1.07
  -8   8   0    1.64    1.47
   8  -8   0    3.05    1.35
   8   8   0    2.04    1.86
   8  -8   1   18.12    4.11
   8   8   1   22.98    4.38
  -8   8   1   18.04    3.80
   8  -8   1   13.41    3.42
   8   8   1   18.08    3.86
   8  -8   2   20.03    3.90
   8   8   2   17.61    3.94
  -8   8   2   23.90    4.57
   8  -8   2   18.31    4.30
   8   8   2   15.13    3.86
   8  -8   3    3.14    1.23
   8   8   3    6.19    2.96
  -8   8   3    4.62    2.22
   8  -8   3    5.87    2.99
   8   8   3    0.39    0.75
   8  -8   4    3.07    0.93
   8   8   4    6.81    2.47
  -8   8   4    9.51    2.84
   8  -8   4    3.39    2.05
   8   8   4    6.42    1.72
   8   8   5   48.37    6.34
  -8   8   5   48.35    6.53
   8  -8   5   30.58    4.95
   8  -8   5   31.54    5.23
   8   8   5   39.49    5.97
  -8   8   6   10.02    3.03
   8  -8   6    4.99    3.15
   8   8   6    8.95    2.82
   8   8   6   11.63    3.20
  -8   8   7    8.91    2.89
   8  -8   7    8.72    2.60
   8   8   7    7.33    2.98
   8   8   7    6.53    2.25
   8  -8   8   20.46    4.53
   8   8   8   35.58    5.82
  -8   8   8   21.44    4.70
   8   8   8   25.04    4.83
   8  -8   9   27.63    5.23
   8   8   9   24.45    4.96
  -8   8   9   29.29    5.03
   8   8   9   22.58    4.44
   8  -8  10    2.99    1.98
   8   8  10    3.52    2.36
   8   8  10    4.88    2.22
  -8   8  10    3.51    2.43
   8   8  11   43.16    6.36
  -8   8  11   43.35    6.48
   8   8  11   40.98    5.98
   8  -8  11   57.09    7.18
   8  -8  12   20.37    4.48
   8   8  12   25.38    4.87
  -8   8  12   19.63    4.38
   8   8  12   23.77    4.31
   8  -8  13    4.77    2.97
   8   8  13    1.87    1.06
  -8   8  13    0.34    2.04
   8   8  13   -0.51    1.92
   8   8  14   13.95    4.14
  -8   8  14    8.82    3.48
   8   8  14    9.63    3.30
   8   8  15   12.73    3.04
  -8   8  15   13.63    4.08
   8   8  15    7.60    3.14
   8   8  16    0.01    2.47
  -8   8  16    0.59    1.52
   8   8  16    3.56    2.85
   8   8  17   27.09    4.89
  -8   8  17   15.30    4.39
   8   8  17   18.05    3.99
   8   8  18   10.10    3.00
  -8   8  18    9.54    3.77
   8   8  19    3.20    2.37
  -8   8  19   -1.44    2.72
   8  -9 -16    0.75    1.85
   8  -9 -16    2.90    1.46
   8  -9 -15    2.42    1.83
   8  -9 -15    2.61    1.86
   8   9 -14    3.16    2.78
   8  -9 -14    0.87    1.14
   8  -9 -14    3.35    2.89
   8  -9 -13    0.22    1.99
   8  -9 -13    0.40    1.95
   8   9 -12    0.36    2.48
   8  -9 -12    5.39    2.31
   8  -9 -12    7.04    2.68
   8   9 -11    5.72    3.24
   8  -9 -11   -0.84    2.35
   8  -9 -11    7.00    3.00
   8  -9 -10   -0.76    1.43
   8   9 -10    3.01    1.55
   8  -9  -9    3.48    2.93
   8   9  -9   -0.02    1.51
   8  -9  -9   -2.42    2.21
   8  -9  -8   -0.07    1.44
   8  -9  -8    2.66    1.71
   8   9  -7   -0.06    1.48
  -8   9  -7    1.58    2.72
   8  -9  -7   -2.33    1.64
   8  -9  -7   -0.11    2.26
   8   9  -6   -0.25    1.08
  -8   9  -6    2.97    2.64
   8  -9  -6   -2.45    2.41
   8  -9  -6    1.89    2.28
   8   9  -5    5.82    2.19
  -8   9  -5    5.54    3.05
   8  -9  -5    4.94    2.10
   8  -9  -5    7.95    3.06
   8   9  -4    1.58    1.95
  -8   9  -4    0.46    1.14
   8  -9  -4    2.01    1.75
   8  -9  -4    2.71    2.10
   8   9  -3    4.05    2.61
  -8   9  -3    4.25    2.49
   8  -9  -3    4.14    1.51
   8  -9  -3    2.27    1.39
   8   9  -2   10.63    3.81
  -8   9  -2    2.69    1.20
   8  -9  -2    2.10    1.72
   8   9  -2    5.60    2.85
   8  -9  -2    4.91    2.51
   8   9  -1    5.59    2.28
  -8   9  -1    2.01    1.43
   8  -9  -1    0.93    1.48
   8   9  -1    0.70    1.40
   8  -9  -1    1.09    1.23
   8   9   0    1.41    1.78
  -8   9   0    2.43    2.72
   8   9   0    1.31    1.25
   8  -9   0    1.31    1.16
   8   9   1    2.55    2.64
  -8   9   1    2.38    1.72
   8   9   1    1.37    1.23
   8  -9   1    3.89    2.87
   8   9   2    9.39    3.28
  -8   9   2    5.66    2.88
   8   9   2    3.18    2.39
   8  -9   2    2.70    1.60
   8   9   3    1.30    2.03
  -8   9   3    7.21    2.12
   8  -9   3    9.04    3.24
   8   9   3    2.74    1.89
   8   9   4    1.41    1.93
   8   9   4    0.81    1.11
  -8   9   4    4.40    2.68
   8  -9   4    0.75    1.43
   8   9   5   12.49    3.25
   8   9   5    8.34    3.35
  -8   9   5   11.18    3.53
   8  -9   5    3.01    2.53
   8   9   6    2.84    2.30
   8   9   6   -0.80    1.60
  -8   9   6   -0.03    2.23
   8  -9   6    3.27    2.32
   8   9   7   -1.34    1.98
  -8   9   7   -1.29    1.42
   8   9   7    0.35    1.17
   8  -9   7    0.71    1.66
   8   9   8    3.67    2.46
  -8   9   8    5.79    2.65
   8   9   8    7.26    3.14
   8  -9   8   10.27    3.28
   8   9   9    1.02    1.30
  -8   9   9    3.09    1.92
   8   9   9   -0.83    1.09
   8  -9   9    1.54    1.92
   8  -9  10   -0.22    1.48
   8   9  10    8.56    3.34
  -8   9  10    6.20    2.27
   8   9  10    3.91    2.60
   8  -9  11    0.22    1.96
   8   9  11    2.54    1.92
  -8   9  11    4.85    3.11
   8   9  11    4.78    2.71
   8   9  12    4.28    1.86
  -8   9  12   11.05    2.87
   8   9  12    8.49    3.23
   8   9  13    4.91    2.93
  -8   9  13    4.71    2.80
   8   9  13    3.50    1.72
   8   9  14    4.45    2.96
  -8   9  14    4.24    3.01
   8   9  14    2.79    1.49
   8   9  15    4.98    2.49
  -8   9  15    2.35    1.79
   8   9  15    3.16    2.27
   8   9  16   -0.58    2.23
  -8   9  16    0.44    2.34
   8   9  16    0.97    2.09
   8  10 -10   -0.81    1.91
   8 -10 -10   -0.95    2.40
   8 -10 -10    0.53    1.46
   8 -10  -9   12.60    4.02
   8  10  -9   15.57    4.14
   8 -10  -9   12.29    3.73
   8  10  -8    2.38    1.80
   8 -10  -8   10.22    3.12
   8  10  -7   -0.19    1.95
   8 -10  -7    2.77    1.42
   8  10  -6   -0.57    1.82
  -8  10  -6   -0.22    2.15
   8 -10  -6   -0.26    0.99
   8  10  -5   18.32    3.98
  -8  10  -5   13.94    4.12
   8 -10  -5   10.13    3.94
   8  10  -4    7.05    2.52
  -8  10  -4    7.72    3.94
   8 -10  -4    2.67    1.62
   8  10  -3    0.28    2.00
   8 -10  -3    1.79    2.40
  -8  10  -3    2.90    3.07
   8  10  -2    3.37    2.13
  -8  10  -2    4.99    1.63
   8 -10  -2    3.51    1.68
   8  10  -1   10.08    2.97
  -8  10  -1    3.71    1.31
   8 -10  -1   11.53    2.48
   8  10   0    1.87    1.11
  -8  10   0    0.69    1.17
   8  10   0    2.74    1.41
   8 -10   0    0.44    1.07
   8  10   1    8.12    3.58
  -8  10   1    2.30    1.83
   8 -10   1    8.81    2.50
   8  10   1    7.02    3.08
   8  10   2    6.03    2.11
  -8  10   2   10.45    3.01
   8 -10   2    7.85    3.46
   8  10   2    9.10    3.01
   8  10   3    5.00    3.12
  -8  10   3    1.42    2.02
   8 -10   3    0.03    1.30
   8  10   3    0.60    1.32
   8  10   4    7.40    3.27
  -8  10   4    7.18    2.97
   8 -10   4    8.07    3.46
   8  10   4    3.85    2.39
  -8  10   5   11.42    2.99
   8 -10   5   12.94    4.24
   8  10   5    7.24    2.91
   8  10   6    3.87    2.74
  -8  10   6   -2.21    2.43
   8 -10   6   -2.40    2.69
   8  10   6    1.70    2.30
   8  10   7    0.71    1.80
  -8  10   7    1.89    2.40
   8 -10   7    2.94    3.03
   8  10   7   -0.03    1.12
  -8  10   8   13.73    3.70
   8 -10   8    6.82    3.25
   8  10   8   10.86    2.82
   8  10   9   13.71    4.22
  -8  10   9   11.99    3.56
   8  10   9   14.34    3.98
   8 -10   9   11.04    3.84
   8  10  10    1.06    1.58
  -8  10  10    1.24    1.98
   8  10  10    0.19    1.60
   9   0 -27    1.47    1.37
   9   0 -26   -5.11    3.01
   9   0 -25    2.35    2.36
   9   0 -24    1.40    1.10
   9   0 -23    3.23    3.01
   9   0 -22   -0.65    1.75
   9   0 -21   -0.10    1.46
   9   0 -20   -1.06    2.21
   9   0 -19    0.61    1.11
   9   0 -18    0.54    1.72
   9   0 -17   -1.35    1.48
   9   0 -16   -0.12    0.78
   9   0 -15    1.60    1.31
   9   0 -14    0.38    1.00
   9   0 -13    1.17    1.38
   9   0 -13    0.25    1.75
   9   0 -12   -0.34    0.60
   9   0 -12    0.61    1.31
   9   0 -11    0.34    0.86
   9   0 -11   -0.07    0.75
   9   0 -10    0.16    0.71
   9   0 -10   -0.04    1.13
   9   0  -9    0.01    0.61
   9   0  -9   -0.42    1.48
   9   0  -8    0.19    0.66
   9   0  -8   -0.47    0.78
   9   0  -7    0.09    0.64
   9   0  -7    0.20    0.96
   9   0  -7    0.25    1.18
   9   0  -6   -0.38    1.26
   9   0  -6   -0.49    0.91
   9   0  -6    0.19    0.84
   9   0  -5    0.59    1.09
   9   0  -5   -0.69    1.32
   9   0  -5    0.72    1.04
   9   0  -4   -0.06    0.74
   9   0  -4    0.91    1.19
   9   0  -4   -0.82    0.57
   9   0  -3   -0.16    0.88
   9   0  -3    0.75    1.30
   9   0  -3    0.79    0.78
   9   0  -2   -0.02    0.58
   9   0  -2   -0.34    0.61
   9   0  -2    0.11    0.58
   9   0  -1    0.65    1.00
   9   0  -1   -0.44    0.49
   9   0  -1    0.27    0.75
   9   0   0    0.63    1.51
   9   0   0   -0.05    1.24
   9   0   0   -0.27    0.74
   9   0   1   -0.25    0.62
   9   0   1    0.03    0.54
   9   0   2    0.25    1.06
   9   0   2   -0.06    0.81
   9   0   3    0.04    0.43
   9   0   3   -0.29    0.81
   9   0   4   -0.50    1.16
   9   0   4   -0.04    0.69
   9   0   5    0.04    1.09
   9   0   5   -0.43    0.42
   9   0   6    1.42    1.13
   9   0   6    0.23    0.50
   9   0   7    0.64    1.28
   9   0   7    0.78    0.85
   9   0   8   -1.22    1.31
   9   0   8    0.11    0.95
   9   0   9   -0.10    0.59
   9   0   9    0.31    1.25
   9   0  10   -0.21    0.63
   9   0  10   -0.03    0.59
   9   0  11    0.31    1.34
   9   0  11   -0.37    0.75
   9   0  12    0.37    1.15
   9   0  12    0.27    0.66
   9   0  13    0.95    1.04
   9   0  13    0.28    0.56
   9   0  14   -0.74    1.74
   9   0  15    0.08    1.17
   9   0  16   -0.33    1.01
   9   0  17   -1.06    1.30
   9   0  18   -0.15    0.92
   9   0  19    0.30    1.19
   9   0  20    0.79    0.75
   9   0  21    0.24    1.68
   9   0  22   -0.66    1.49
   9   0  23    1.95    1.50
   9   0  24   -1.88    3.10
   9  -1 -28    8.84    3.73
   9  -1 -27   23.20    4.75
   9  -1 -26   16.56    4.49
   9  -1 -25   11.77    3.24
   9  -1 -24    1.25    2.19
   9  -1 -23   10.56    3.37
   9   1 -22   19.29    4.45
   9  -1 -22   21.83    4.52
   9   1 -21   50.54    6.30
   9  -1 -21   43.52    6.48
   9   1 -20   10.32    2.89
   9  -1 -20   12.11    3.01
   9   1 -19   30.07    4.64
   9  -1 -19   38.87    5.61
   9   1 -18    3.95    1.20
   9  -1 -18    2.66    1.61
   9   1 -17  229.75   12.76
   9  -1 -17  218.15   12.67
   9   1 -16   44.45    5.55
   9  -1 -16   46.53    5.87
   9   1 -15  131.48    9.28
   9  -1 -15  170.97   10.80
   9  -1 -14    6.20    2.51
   9   1 -14    6.18    1.56
   9  -1 -14    2.74    1.66
   9  -1 -13    2.54    1.58
   9   1 -13    0.30    1.17
   9  -1 -13    2.65    1.83
   9   1 -13    2.47    1.39
   9   1 -12   46.27    5.43
   9  -1 -12   61.39    6.23
   9   1 -12   57.26    5.92
   9  -1 -12   51.81    5.48
   9   1 -11  441.79   13.90
   9   1 -11  456.78   16.47
   9  -1 -11  458.01   17.01
   9   1 -11  446.09   16.48
   9  -1 -11  441.59   15.55
   9  -1 -10   33.99    4.30
   9   1 -10   36.99    4.07
   9   1 -10   20.40    3.59
   9  -1 -10   28.99    4.45
   9   1 -10   31.19    4.28
   9   1  -9  334.59   13.47
   9  -1  -9  320.34   12.82
   9   1  -9  312.73   11.62
   9  -1  -9  313.98   13.88
   9   1  -9  336.80   13.65
   9  -1  -8   96.48    7.04
   9   1  -8  108.12    6.85
   9  -1  -8   96.94    7.93
   9   1  -8   87.62    6.92
   9  -1  -7   90.79    6.80
   9   1  -7   94.08    6.33
   9  -1  -7  111.51    8.11
   9   1  -7  114.86    7.57
   9   1  -7  106.54    7.57
   9  -1  -6  112.08    7.57
   9   1  -6  114.71    7.11
   9  -1  -6  121.54    8.46
   9   1  -6  123.29    8.10
   9   1  -6  108.03    7.62
   9  -1  -5  275.57   12.70
   9  -1  -5  262.65   11.59
   9   1  -5  269.37   11.05
   9   1  -5  272.72   11.87
   9   1  -5  264.47   11.82
   9  -1  -4  188.00    9.83
   9   1  -4  197.35    9.51
   9  -1  -4  199.27   10.60
   9   1  -4  199.49   10.04
   9   1  -4  190.39    9.92
   9   1  -3  264.96   11.41
   9  -1  -3  269.46   11.60
   9   1  -3  265.92   11.06
   9  -1  -3  273.33   12.35
   9   1  -3  239.07   11.16
   9  -1  -2  141.72    8.54
   9   1  -2  133.88    7.74
   9  -1  -2  121.25    8.19
   9   1  -2  141.79    8.37
   9   1  -2  143.28    8.44
   9  -1  -1  382.50   13.92
   9   1  -1  412.89   13.75
   9  -1  -1  399.17   14.53
   9   1  -1  386.69   13.94
   9   1  -1  372.10   13.70
   9  -1   0  612.47   17.64
   9   1   0  634.80   17.56
   9  -1   0  674.36   19.23
   9   1   0  643.05   17.75
   9  -1   1  382.38   14.05
   9   1   1  397.03   13.81
   9  -1   1  403.84   15.12
   9   1   1  412.59   14.04
   9  -1   2  141.73    8.63
   9   1   2  143.63    8.40
   9  -1   2  144.42    8.83
   9   1   2  122.39    7.80
   9  -1   3  273.84   12.20
   9   1   3  247.09   11.10
   9   1   3  252.74   10.95
   9  -1   4  196.95   10.36
   9   1   4  181.01    9.63
   9   1   4  203.26    9.81
   9   1   5  249.74   11.50
   9   1   5  260.40   11.05
   9  -1   6  118.96    8.20
   9   1   6  121.14    8.19
   9   1   6  116.60    7.33
   9  -1   7  110.72    7.93
   9   1   7   98.41    6.69
   9   1   7  114.16    7.89
   9  -1   8   92.38    7.23
   9   1   8   98.24    6.64
   9   1   8   99.68    7.52
   9  -1   9  304.37   13.29
   9   1   9  325.21   12.13
   9   1   9  327.44   13.86
   9  -1  10   40.02    4.96
   9   1  10   32.28    3.86
   9   1  10   44.75    5.14
   9  -1  11  445.88   16.49
   9   1  11  430.18   14.11
   9   1  11  451.73   16.94
   9  -1  12   47.74    5.38
   9   1  12   55.15    5.01
   9   1  12   56.12    6.18
   9  -1  13    1.86    1.12
   9   1  13    1.01    1.64
   9   1  13    2.15    1.23
   9  -1  14    5.54    1.89
   9   1  14    5.69    2.06
   9   1  14    2.81    0.93
   9   1  15  142.65   10.02
   9  -1  15  133.29    9.56
   9  -1  16   40.46    5.04
   9   1  16   44.94    5.76
   9  -1  17  223.06   12.81
   9   1  17  236.63   13.29
   9  -1  18    4.26    1.83
   9   1  18    3.18    2.52
   9  -1  19   35.88    5.37
   9   1  19   40.54    5.50
   9  -1  20   10.22    3.17
   9   1  20    9.58    3.06
   9   1  21   53.65    6.77
   9  -1  21   47.84    6.36
   9  -1  22   32.97    5.41
   9   1  22   20.69    4.10
   9   1  23   13.70    3.72
   9  -1  23    8.33    3.11
   9   1  24    0.84    1.06
   9   1  25   17.54    4.59
   9  -2 -27    1.13    1.50
   9  -2 -26    2.70    1.26
   9  -2 -25    1.73    1.80
   9  -2 -24    0.14    1.23
   9  -2 -23   -1.17    1.78
   9  -2 -22    5.70    1.78
   9  -2 -21   -0.33    1.21
   9  -2 -20    1.18    1.68
   9  -2 -19    2.04    2.20
   9  -2 -18    5.50    2.15
   9  -2 -17    1.63    1.26
   9   2 -17    1.50    1.36
   9   2 -16    6.01    2.15
   9  -2 -16    3.74    1.37
   9   2 -16    5.75    2.30
   9  -2 -16    7.74    2.50
   9   2 -15    2.99    1.69
   9  -2 -15    1.03    1.59
   9   2 -15    1.30    0.98
   9  -2 -15    0.83    1.74
   9  -2 -14    3.79    1.94
   9   2 -14    3.64    1.39
   9  -2 -14    3.59    1.36
   9   2 -14    7.31    2.22
   9  -2 -13    2.84    1.55
   9   2 -13    3.46    1.65
   9  -2 -13    4.50    2.42
   9   2 -13    2.00    1.54
   9  -2 -12   11.04    2.73
   9   2 -12    7.64    2.23
   9  -2 -12    7.57    2.56
   9   2 -12    8.78    2.30
   9  -2 -11    4.62    2.29
   9   2 -11   11.31    2.79
   9  -2 -11    8.38    2.43
   9   2 -11    8.85    2.55
   9  -2 -10   -0.30    1.16
   9   2 -10    0.38    0.78
   9   2 -10    0.70    0.71
   9  -2 -10    0.33    1.64
   9   2 -10    0.43    1.37
   9  -2  -9    0.63    0.82
   9   2  -9    0.96    0.94
   9   2  -9   -0.62    0.57
   9   2  -9    1.22    0.90
   9  -2  -8   24.11    3.88
   9   2  -8   23.80    3.21
   9  -2  -8   18.32    3.62
   9   2  -8   15.38    3.16
   9   2  -8   22.76    3.56
   9   2  -7   14.29    2.67
   9  -2  -7   11.01    2.27
   9  -2  -7   15.31    3.07
   9   2  -7    9.97    2.29
   9   2  -7   13.49    2.36
   9   2  -6    4.89    1.98
   9  -2  -6    5.54    1.55
   9  -2  -6    7.12    2.44
   9   2  -6    5.39    1.83
   9   2  -6    6.35    1.68
   9   2  -5    0.08    0.84
   9   2  -5    2.31    0.77
   9  -2  -5    1.47    0.59
   9  -2  -5    2.29    1.35
   9   2  -5    2.40    1.19
   9   2  -4    3.64    1.06
   9   2  -4    2.86    0.98
   9  -2  -4    3.13    1.38
   9  -2  -4   -0.21    0.83
   9   2  -4   -0.06    0.73
   9   2  -3    6.57    1.81
   9   2  -3    5.02    1.57
   9  -2  -3    6.34    1.86
   9  -2  -3    5.54    2.14
   9   2  -3    6.29    1.54
   9   2  -2    6.01    1.75
   9   2  -2    9.84    2.23
   9  -2  -2    9.28    1.98
   9  -2  -2    9.59    2.45
   9   2  -2    9.67    2.44
   9  -2  -1   26.04    3.63
   9  -2  -1   30.73    4.39
   9   2  -1   30.31    3.84
   9   2  -1   26.32    3.60
   9   2  -1   37.53    4.32
   9   2   0   12.54    2.55
   9  -2   0   13.91    2.74
   9  -2   0   13.46    2.81
   9   2   0   16.65    3.01
   9  -2   1   32.15    4.26
   9  -2   1   35.00    4.48
   9   2   1   36.03    4.46
   9   2   1   24.23    3.56
   9   2   2    9.19    2.04
   9   2   2    8.01    2.11
   9  -2   2    3.70    1.69
   9  -2   2   10.32    2.49
   9   2   3    4.09    1.05
   9   2   3    3.72    1.41
   9  -2   3    6.83    2.10
   9  -2   3    6.57    2.11
   9   2   4    0.33    0.98
   9  -2   4    1.40    0.56
   9   2   5    1.97    1.10
   9   2   5    3.27    1.54
   9  -2   5    0.96    0.55
   9   2   6    4.11    1.37
   9  -2   6    1.33    0.88
   9   2   7   11.58    2.34
   9   2   7   12.72    2.87
   9  -2   7   12.12    3.03
   9   2   8   14.11    2.63
   9   2   8   25.16    3.94
   9  -2   8   24.65    4.08
   9   2   9    1.80    1.64
   9   2   9    0.11    0.61
   9  -2   9    0.14    1.30
   9   2  10    0.24    1.11
   9   2  10   -0.04    1.63
   9  -2  10   -0.09    1.33
   9   2  11    7.27    1.99
   9   2  11    6.93    2.16
   9  -2  11    9.85    2.61
   9   2  12    7.47    2.12
   9   2  12   11.17    2.79
   9  -2  12    8.70    2.16
   9   2  13    2.26    1.30
   9   2  13    3.45    1.52
   9  -2  13    4.03    2.11
   9   2  14    3.75    1.29
   9   2  14    3.32    1.78
   9  -2  14    4.71    2.00
   9   2  15    2.47    0.93
   9  -2  15    1.83    1.45
   9   2  16    4.76    1.91
   9  -2  16    5.42    2.38
   9   2  17    5.99    2.37
   9  -2  17    2.51    2.04
   9   2  18   12.77    2.98
   9  -2  18    8.16    2.93
   9   2  19    0.87    1.94
   9  -2  19   -0.30    1.51
   9   2  20    1.32    2.17
   9  -2  20   -0.43    0.96
   9   2  21    0.25    0.93
   9  -2  21    1.80    1.95
   9   2  22    4.66    2.57
   9   2  23    1.01    1.71
   9   2  24    1.99    1.89
   9   2  25    2.96    1.58
   9   2  26   -0.51    1.70
   9  -3 -27   48.35    6.97
   9  -3 -26    1.25    1.51
   9  -3 -25   30.97    6.02
   9  -3 -24   14.34    3.70
   9  -3 -23    4.06    2.41
   9  -3 -22   47.11    6.69
   9  -3 -21   59.70    7.45
   9  -3 -20    0.54    1.61
   9  -3 -19   14.67    3.60
   9   3 -19   16.12    3.79
   9  -3 -18   53.19    6.57
   9   3 -18   43.03    6.14
   9  -3 -17   18.84    4.01
   9   3 -17   27.20    4.75
   9  -3 -17   23.93    4.24
   9  -3 -16  249.84   14.17
   9  -3 -16  241.34   13.25
   9   3 -16  246.59   13.27
   9  -3 -15   27.46    4.66
   9  -3 -15   27.64    4.51
   9   3 -15   28.24    4.62
   9  -3 -14   51.85    6.30
   9  -3 -14   55.86    6.42
   9   3 -14   54.25    5.97
   9  -3 -13   61.13    6.65
   9  -3 -13   52.55    5.77
   9   3 -13   42.50    5.48
   9  -3 -12  258.34   13.65
   9  -3 -12  245.68   12.91
   9   3 -12  241.07   12.56
   9  -3 -11  300.16   14.46
   9  -3 -11  293.11   14.05
   9   3 -11  316.79   14.40
   9   3 -10  380.08   13.47
   9  -3 -10  357.13   16.04
   9  -3 -10  408.70   16.40
   9   3 -10  410.53   16.08
   9   3  -9    6.64    2.42
   9  -3  -9    0.71    0.76
   9   3  -9    5.24    1.82
   9  -3  -9    3.61    2.36
   9   3  -9    1.70    1.01
   9   3  -8   71.99    5.42
   9  -3  -8   69.28    7.00
   9   3  -8   72.21    6.51
   9  -3  -8   58.63    6.08
   9   3  -8   74.42    5.84
   9  -3  -7  691.05   21.46
   9   3  -7  657.80   17.19
   9   3  -7  689.96   17.16
   9   3  -7  694.78   20.51
   9  -3  -7  698.44   20.96
   9  -3  -6   54.46    5.73
   9  -3  -6   55.67    5.85
   9   3  -6   45.64    4.64
   9   3  -6   65.41    5.33
   9   3  -6   49.25    5.38
   9  -3  -5  941.45   23.99
   9  -3  -5  904.51   24.47
   9   3  -5  869.31   19.96
   9   3  -5  968.48   20.82
   9   3  -5  871.82   22.67
   9  -3  -4  433.39   16.14
   9   3  -4  398.93   13.38
   9  -3  -4  417.30   16.41
   9   3  -4  439.53   14.28
   9   3  -4  432.92   15.70
   9   3  -3    0.89    0.68
   9  -3  -3    1.42    0.78
   9   3  -3    0.72    1.23
   9  -3  -3    2.62    1.95
   9   3  -3    1.10    1.05
   9   3  -2   31.94    3.95
   9  -3  -2   29.08    4.30
   9  -3  -2   24.54    4.03
   9   3  -2   26.19    3.41
   9   3  -2   28.93    4.33
   9   3  -1 1399.85   26.61
   9  -3  -1 1332.26   28.19
   9   3  -1 1406.94   28.11
   9   3   0   10.85    2.52
   9  -3   0   13.47    3.06
   9   3   0    9.20    2.08
   9  -3   0    9.74    2.34
   9  -3   1 1344.34   28.49
   9  -3   1 1315.98   28.47
   9   3   1 1371.81   27.58
   9   3   2   27.12    3.85
   9  -3   2   23.90    3.90
   9  -3   2   24.25    3.86
   9   3   2   26.50    3.82
   9   3   3    1.83    1.55
   9  -3   3    0.09    1.12
   9   3   3    0.87    0.70
   9  -3   3   -0.66    1.42
   9   3   4  417.87   15.31
   9  -3   4  421.26   15.87
   9  -3   4  410.54   16.07
   9   3   5  907.76   22.53
   9   3   5  911.68   22.87
   9  -3   5  902.83   23.60
   9  -3   5  940.33   24.29
   9   3   6   45.09    5.25
   9   3   6   55.79    5.70
   9  -3   6   44.22    5.16
   9   3   7  725.70   20.18
   9   3   7  697.96   20.62
   9  -3   7  664.78   20.44
   9   3   8   68.12    6.22
   9   3   8   63.20    6.19
   9  -3   8   66.43    6.60
   9   3   9    5.03    1.68
   9  -3   9    2.10    1.09
   9   3   9    3.91    2.05
   9   3  10  426.38   15.51
   9   3  10  394.01   16.29
   9  -3  10  388.43   15.99
   9   3  11  310.22   13.54
   9   3  11  299.49   14.20
   9  -3  11  315.87   14.68
   9   3  12  248.57   12.13
   9   3  12  240.06   12.58
   9  -3  12  235.17   12.78
   9   3  13   48.63    5.44
   9   3  13   47.08    5.86
   9  -3  13   43.27    5.40
   9   3  14   53.13    5.66
   9   3  14   55.96    6.23
   9  -3  14   43.68    5.55
   9   3  15   29.47    4.80
   9  -3  15   25.42    4.38
   9   3  15   24.77    3.99
   9   3  16  262.30   14.19
   9  -3  16  247.29   13.61
   9   3  17   24.36    4.49
   9  -3  17   21.13    3.74
   9   3  18   40.02    5.83
   9  -3  18   47.21    6.19
   9  -3  19   19.03    4.24
   9   3  19   15.23    3.75
   9  -3  20    1.17    1.93
   9   3  20   -0.29    0.89
   9   3  21   52.06    6.84
   9   3  22   47.88    6.67
   9   3  23    5.89    3.05
   9   3  24    8.39    3.15
   9   3  25   43.31    6.80
   9   3  26    6.62    3.13
   9   3  27   31.77    5.56
   9  -4 -26   -0.85    1.38
   9  -4 -25    0.18    1.50
   9  -4 -24    0.38    1.66
   9  -4 -23    9.16    2.86
   9  -4 -22   -1.28    1.33
   9  -4 -21    0.12    1.74
   9  -4 -20    2.16    2.18
   9  -4 -19    1.01    2.01
   9  -4 -18    0.02    1.92
   9  -4 -18   -2.27    1.05
   9   4 -18    2.38    1.68
   9  -4 -17   87.95    8.63
   9  -4 -17   74.79    7.93
   9   4 -17   78.44    7.86
   9  -4 -16    0.65    0.82
   9   4 -16   -1.07    1.06
   9  -4 -15    7.06    2.35
   9  -4 -15    8.49    2.71
   9   4 -15    7.12    2.32
   9   4 -14    8.58    2.85
   9  -4 -14   15.54    3.68
   9  -4 -14   14.76    3.52
   9   4 -13    4.15    2.38
   9  -4 -13    3.10    2.00
   9  -4 -13    2.11    1.50
   9  -4 -12   36.34    5.23
   9  -4 -12   29.75    4.70
   9   4 -12   32.69    4.70
   9  -4 -11  124.35    9.61
   9  -4 -11  124.94    9.67
   9   4 -11  137.50    9.49
   9   4 -10    1.83    2.08
   9  -4 -10    0.18    1.84
   9  -4 -10    1.40    1.94
   9  -4  -9   89.80    8.24
   9  -4  -9   87.09    7.83
   9   4  -9   98.66    8.09
   9  -4  -8   67.18    6.97
   9   4  -8   69.76    5.71
   9  -4  -8   63.13    6.55
   9   4  -8   66.11    6.60
   9   4  -7   -0.62    0.66
   9  -4  -7    0.40    1.60
   9   4  -7   -0.09    0.51
   9  -4  -7    0.45    1.07
   9  -4  -6  123.09    9.41
   9  -4  -6  125.42    9.27
   9   4  -6   95.10    7.97
   9   4  -6  119.49    7.62
   9   4  -5   52.91    5.28
   9  -4  -5   48.69    5.78
   9  -4  -5   50.58    5.85
   9   4  -5   53.51    6.04
   9   4  -4   40.15    4.50
   9  -4  -4   33.87    4.92
   9   4  -4   41.42    4.17
   9  -4  -4   38.83    5.21
   9   4  -4   37.38    4.81
   9   4  -3   15.23    3.10
   9  -4  -3   13.55    2.87
   9   4  -3   15.98    2.86
   9  -4  -3   13.90    3.31
   9   4  -3   13.42    2.17
   9   4  -2   86.02    7.41
   9  -4  -2   84.48    7.30
   9   4  -2   86.03    6.69
   9  -4  -2   82.51    7.59
   9   4  -2   98.76    6.74
   9   4  -1    1.59    1.59
   9  -4  -1   -0.01    1.07
   9  -4  -1    2.78    1.77
   9   4  -1    1.92    1.42
   9   4   0  257.57   12.62
   9  -4   0  264.44   13.19
   9   4   0  242.63   11.64
   9  -4   0  269.11   13.47
   9   4   1    1.01    0.89
   9  -4   1   -1.65    1.62
   9  -4   1    2.62    1.82
   9   4   1    1.10    1.95
   9   4   2   91.08    7.50
   9  -4   2   94.04    7.84
   9   4   2   78.34    6.73
   9  -4   2   78.05    7.27
   9   4   3   12.01    2.93
   9   4   3   11.59    2.88
   9  -4   3   13.69    2.89
   9  -4   3   13.67    3.07
   9   4   4   39.44    4.80
   9  -4   4   43.11    5.25
   9   4   4   35.44    4.53
   9  -4   4   29.71    4.51
   9   4   5   56.15    5.87
   9  -4   5   53.73    6.09
   9   4   5   49.61    5.41
   9  -4   5   49.77    5.82
   9   4   6  125.24    8.85
   9  -4   6  102.14    8.30
   9   4   6  111.62    8.50
   9  -4   6  109.45    8.65
   9   4   7    1.72    1.91
   9   4   7    0.51    1.75
   9  -4   7    0.85    1.76
   9  -4   7    0.13    1.35
   9   4   8   73.84    6.94
   9  -4   8   50.48    5.78
   9   4   8   67.54    6.63
   9  -4   8   68.01    6.85
   9   4   9   89.32    7.60
   9  -4   9   93.03    8.15
   9   4   9   84.16    7.63
   9   4  10    1.57    1.37
   9   4  10    2.19    1.77
   9  -4  10    0.55    1.34
   9   4  11  133.66    9.30
   9  -4  11  135.56    9.78
   9   4  11  131.32    9.67
   9   4  12   36.68    4.89
   9  -4  12   35.72    5.14
   9   4  12   37.03    5.29
   9   4  13    4.59    2.04
   9   4  13    3.70    1.88
   9  -4  13    0.25    1.52
   9   4  14   11.44    3.03
   9   4  14    8.99    3.14
   9  -4  14    5.57    2.34
   9   4  15    6.68    2.53
   9   4  15   10.45    3.07
   9  -4  15    6.72    2.52
   9   4  16    1.05    1.48
   9  -4  16   -0.28    1.05
   9   4  16    0.73    1.09
   9  -4  17   88.01    8.47
   9   4  17   87.97    8.51
   9  -4  18    0.62    1.85
   9   4  18    2.70    1.53
   9  -4  19    3.09    1.64
   9   4  19    0.54    1.27
   9   4  20   -0.37    1.17
   9   4  21    2.11    1.75
   9   4  22    2.01    1.68
   9   4  23    6.14    3.39
   9   4  24    1.30    1.94
   9   4  25   -0.34    2.12
   9   4  26    4.05    2.22
   9  -5 -24    0.35    0.97
   9  -5 -23    4.10    1.95
   9  -5 -22   10.04    3.12
   9  -5 -21   14.89    3.96
   9  -5 -20    4.85    2.56
   9  -5 -19    6.57    3.04
   9  -5 -19    9.07    2.94
   9  -5 -18   -1.88    2.30
   9  -5 -18    0.05    1.61
   9   5 -17    5.45    2.47
   9  -5 -17    7.91    2.79
   9  -5 -17    6.24    2.16
   9   5 -16   11.72    3.67
   9  -5 -16    7.40    2.69
   9  -5 -16   13.30    3.37
   9  -5 -15  109.08    9.47
   9  -5 -15   94.39    9.06
   9   5 -15   90.65    8.56
   9   5 -14   14.68    3.45
   9  -5 -14   17.98    4.05
   9  -5 -14   12.80    3.61
   9   5 -13    2.63    1.12
   9  -5 -13    3.20    2.08
   9  -5 -13    1.77    1.90
   9  -5 -12   28.05    4.60
   9   5 -12   24.22    4.46
   9  -5 -12   17.07    4.11
   9  -5 -11  112.97    9.25
   9  -5 -11  113.96    9.55
   9   5 -11  129.64    9.87
   9  -5 -10    8.60    2.87
   9  -5 -10    7.50    2.76
   9   5 -10    5.11    2.23
   9  -5  -9    3.34    1.94
   9   5  -9    5.11    2.46
   9  -5  -9    6.59    2.08
   9  -5  -8    0.08    0.80
   9   5  -8    0.71    0.86
   9  -5  -8    0.47    1.12
   9   5  -7   19.65    3.48
   9  -5  -7   29.02    4.50
   9  -5  -7   27.91    5.00
   9  -5  -6   14.34    3.41
   9   5  -6   13.37    3.13
   9   5  -6   12.68    2.59
   9  -5  -6   14.78    3.66
   9   5  -5  217.60   12.19
   9   5  -5  204.52   10.70
   9  -5  -5  200.25   12.19
   9  -5  -5  216.57   12.39
   9   5  -4   20.00    3.55
   9  -5  -4   19.20    3.89
   9   5  -4   30.93    4.27
   9  -5  -4   23.10    4.25
   9   5  -3    7.43    2.72
   9  -5  -3    6.27    2.80
   9  -5  -3    8.59    2.78
   9   5  -3    5.47    2.04
   9   5  -2    5.76    1.36
   9  -5  -2    2.83    2.18
   9  -5  -2    3.62    1.58
   9   5  -2    4.64    1.67
   9   5  -1  235.40   12.60
   9   5  -1  200.42   11.05
   9  -5  -1  193.81   11.78
   9  -5  -1  193.54   11.81
   9   5   0   27.82    4.44
   9  -5   0   19.07    3.68
   9   5   0   22.53    3.81
   9  -5   0   21.60    4.02
   9   5   1  206.09   11.98
   9   5   1  193.78   11.03
   9  -5   1  196.32   12.10
   9  -5   1  193.60   11.71
   9   5   2    4.32    2.21
   9   5   2    4.25    1.78
   9  -5   2    7.43    2.77
   9  -5   2    4.86    2.04
   9   5   3    9.54    2.54
   9   5   3    7.93    2.49
   9  -5   3    8.69    2.69
   9  -5   3    4.55    2.23
   9  -5   4   28.56    4.45
   9   5   4   18.83    3.80
   9   5   4   21.09    3.60
   9  -5   4   26.14    4.42
   9  -5   5  204.19   12.26
   9   5   5  209.43   11.87
   9   5   5  210.91   11.90
   9  -5   5  206.89   12.39
   9   5   6   16.99    3.77
   9   5   6   15.44    3.28
   9  -5   6   17.44    3.49
   9  -5   6   11.87    2.92
   9   5   7   28.45    4.77
   9  -5   7   22.83    4.09
   9   5   7   29.52    4.40
   9  -5   7   28.22    4.44
   9   5   8    0.71    2.13
   9   5   8   -0.37    0.80
   9  -5   8    2.51    1.75
   9  -5   8    0.79    1.01
   9   5   9    5.80    2.11
   9   5   9    4.31    1.88
   9  -5   9    6.86    2.32
   9  -5   9    2.30    2.17
   9   5  10    6.42    2.06
   9   5  10    4.45    2.13
   9  -5  10    8.02    2.05
   9  -5  10    7.35    2.18
   9   5  11  124.00    9.41
   9  -5  11  117.24    9.60
   9   5  11  118.54    9.33
   9  -5  11  127.42    9.87
   9   5  12   21.53    3.99
   9  -5  12   19.11    3.77
   9   5  12   21.18    4.09
   9   5  13    3.17    2.10
   9   5  13    0.48    1.47
   9  -5  13    2.42    1.62
   9   5  14   13.57    3.89
   9   5  14   10.95    3.55
   9  -5  14   12.45    3.48
   9   5  15  100.13    8.67
   9  -5  15   86.29    8.46
   9   5  15   91.17    8.63
   9   5  16    9.15    3.33
   9   5  16   11.83    2.71
   9  -5  16    9.22    3.60
   9   5  17    7.72    3.12
   9  -5  17    4.49    2.33
   9   5  18   -0.72    1.11
   9   5  19   10.86    3.43
   9   5  20    1.96    0.90
   9   5  21   12.04    3.81
   9   5  22    5.65    2.26
   9   5  23    8.20    2.94
   9   5  24   -2.06    1.92
   9  -6 -23   -0.92    1.67
   9  -6 -22    4.20    2.49
   9  -6 -21    5.74    3.28
   9  -6 -20    0.26    1.72
   9  -6 -20    1.12    1.52
   9  -6 -19    6.62    3.13
   9  -6 -19   11.33    4.21
   9  -6 -18    4.60    1.81
   9  -6 -18    5.88    2.24
   9   6 -17    2.32    1.81
   9  -6 -17    4.34    1.34
   9   6 -16    8.19    3.01
   9  -6 -16   12.43    3.21
   9  -6 -16   10.51    3.23
   9   6 -15   19.40    3.88
   9  -6 -15   17.15    3.93
   9  -6 -15   20.88    4.87
   9   6 -14    2.44    1.97
   9  -6 -14    1.58    1.86
   9   6 -13    7.82    2.64
   9  -6 -13   10.38    3.14
   9  -6 -13   11.35    3.76
   9   6 -12    4.07    1.79
   9  -6 -12    2.77    1.95
   9  -6 -12    4.28    2.23
   9   6 -11    1.85    1.70
   9  -6 -11    2.09    1.42
   9  -6 -11   -0.33    2.33
   9   6 -10   17.15    3.78
   9  -6 -10   10.12    3.52
   9  -6 -10   17.05    4.13
   9   6  -9    2.66    0.76
   9  -6  -9    5.07    2.18
   9  -6  -9    4.47    2.08
   9   6  -8   32.51    4.91
  -9   6  -8   26.67    4.42
   9  -6  -8   30.28    5.20
   9  -6  -8   25.48    5.03
   9   6  -7   31.50    4.94
   9  -6  -7   17.86    3.53
   9  -6  -7   25.29    4.52
   9  -6  -6    3.31    2.60
   9   6  -6    1.48    1.14
   9  -6  -6    0.72    1.07
   9  -6  -5    0.38    0.91
   9   6  -5    1.73    2.51
   9  -6  -5    2.63    2.42
   9   6  -5    4.56    1.75
   9   6  -4    6.56    2.26
   9  -6  -4   10.96    3.29
   9   6  -4   11.25    2.79
   9  -6  -4    8.07    2.84
   9  -6  -3    1.30    1.99
   9   6  -3    1.14    1.19
   9   6  -3    4.74    2.08
   9  -6  -3    4.00    1.39
   9  -6  -2    5.84    2.33
   9   6  -2    5.01    2.50
   9   6  -2    5.89    1.76
   9  -6  -2    5.24    2.82
   9   6  -1   27.18    4.45
   9   6  -1   28.78    4.53
   9  -6  -1   26.12    4.71
   9  -6  -1   27.32    4.72
   9   6   0   41.36    5.49
   9   6   0   43.53    5.31
   9  -6   0   38.98    5.51
   9  -6   0   33.83    5.28
   9   6   1   21.09    3.99
   9   6   1   23.80    3.98
   9  -6   1   29.87    4.60
   9  -6   1   26.21    4.97
   9  -6   2    1.09    1.96
   9   6   2    4.58    2.32
   9   6   2    1.85    1.63
   9  -6   2    3.07    1.63
   9  -6   3    2.68    1.67
   9   6   3    5.21    2.53
   9   6   3    1.27    1.67
   9  -6   3    6.70    1.81
   9   6   4    7.01    2.80
   9  -6   4    8.28    2.42
   9   6   4    9.96    2.78
   9  -6   4    8.07    2.72
   9   6   5    0.37    1.12
   9  -6   5    2.00    2.00
   9   6   5    0.66    1.01
   9  -6   5    0.87    1.57
   9   6   6    1.10    1.30
   9  -6   6   -1.10    1.40
   9   6   6    1.37    1.69
   9  -6   6    0.77    1.51
   9   6   7   27.75    4.55
   9   6   7   25.79    4.40
   9  -6   7   22.87    4.37
   9  -6   7   33.32    5.10
   9   6   8   25.53    4.52
   9  -6   8   23.04    4.26
   9   6   8   28.13    5.10
   9  -6   8   25.96    4.88
   9   6   9    1.38    0.93
   9  -6   9   -0.49    1.17
   9   6   9    2.07    2.81
   9  -6   9    1.47    1.02
   9   6  10   12.11    3.08
   9  -6  10    9.48    3.30
   9   6  10   11.44    3.13
   9  -6  10   18.49    4.05
   9   6  11    0.27    1.38
   9  -6  11    1.48    1.87
   9   6  11   -0.23    1.11
   9  -6  11    3.82    2.49
   9   6  12    2.61    2.32
   9  -6  12    5.64    1.86
   9   6  12    7.71    2.95
   9  -6  12    4.59    2.05
   9   6  13   10.08    2.90
   9  -6  13    7.97    3.20
   9   6  13    8.86    2.98
   9  -6  13   14.37    3.88
   9   6  14    5.36    2.69
   9  -6  14    2.82    2.18
   9   6  14    3.20    2.39
   9  -6  14    3.26    2.73
   9   6  15   19.72    4.49
   9  -6  15   18.59    4.20
   9   6  15   11.51    2.92
   9  -6  15   14.57    3.72
   9   6  16   17.04    4.01
   9  -6  16    8.04    2.41
   9   6  16   10.01    2.98
   9   6  17    3.04    2.10
   9   6  18    7.15    3.01
   9   6  19    5.69    2.81
   9   6  20   -0.17    2.37
   9   6  21    0.31    2.10
   9   6  22    8.87    3.22
   9   6  23   -1.62    2.66
   9  -7 -21   12.32    3.74
   9  -7 -21    3.54    1.73
   9  -7 -20    5.48    2.58
   9  -7 -20    8.04    2.23
   9  -7 -19    1.53    1.51
   9  -7 -19    1.34    2.06
   9  -7 -18    3.52    2.47
   9  -7 -18    2.12    1.63
   9  -7 -17   21.99    4.26
   9  -7 -17   16.09    4.06
   9   7 -16    2.37    1.79
   9  -7 -16    0.79    2.41
   9  -7 -16    1.62    2.17
   9  -7 -15   62.49    7.80
   9   7 -15   54.91    6.94
   9  -7 -14    0.58    1.56
   9   7 -14    1.85    1.46
   9  -7 -14    0.72    1.62
   9   7 -13    2.43    2.04
   9  -7 -13    3.71    2.28
   9  -7 -13   -0.28    1.33
   9   7 -12    5.32    1.85
   9  -7 -12    0.65    1.99
   9  -7 -12    0.14    1.46
   9  -7 -11   75.76    8.02
   9  -7 -11   75.25    8.18
   9   7 -11   76.03    8.20
   9   7 -10   10.23    3.28
   9  -7 -10   12.44    3.51
   9  -7 -10    8.17    2.55
   9   7  -9   22.56    4.47
   9  -7  -9   15.67    3.61
   9  -7  -9   21.97    4.40
   9   7  -8    5.38    2.14
  -9   7  -8    2.38    2.50
   9  -7  -8    8.71    3.45
   9  -7  -8   10.88    3.28
   9   7  -7    4.52    2.75
  -9   7  -7    4.57    1.82
   9  -7  -7    4.92    1.96
   9  -7  -7    5.53    2.18
   9   7  -6   20.59    4.08
  -9   7  -6   30.66    4.79
   9  -7  -6   29.78    5.29
   9  -7  -6   26.23    4.71
   9   7  -5   96.57    8.66
  -9   7  -5  101.63    8.85
   9  -7  -5   91.08    8.69
   9  -7  -5  109.84    9.73
   9  -7  -4    2.79    1.73
   9   7  -4    3.50    2.64
   9   7  -4    0.72    1.03
  -9   7  -4    2.77    1.56
   9  -7  -4   -0.49    1.79
   9  -7  -3   15.33    3.17
   9   7  -3   18.87    4.11
   9   7  -3    9.22    2.99
  -9   7  -3   10.57    2.80
   9  -7  -3   16.80    4.07
   9  -7  -2    2.39    1.05
   9   7  -2    2.46    2.39
   9   7  -2    2.72    1.81
   9  -7  -2   -0.27    1.56
   9   7  -1   55.67    6.82
   9   7  -1   71.61    7.46
   9  -7  -1   61.54    7.16
   9  -7  -1   60.32    7.15
   9   7   0  121.13    9.58
   9   7   0  119.48    9.71
   9  -7   0  107.57    9.51
   9  -7   0  133.19   10.47
   9   7   1   68.10    7.74
   9   7   1   68.12    7.16
   9  -7   1   54.21    6.83
   9  -7   1   61.71    7.31
   9  -7   2    3.86    2.93
   9   7   2    0.66    1.58
   9   7   2    5.29    2.51
   9  -7   2    0.34    0.96
   9  -7   3   11.54    3.60
   9   7   3   11.05    3.18
   9   7   3   14.06    3.10
   9  -7   3   11.82    3.88
   9  -7   4    1.16    0.94
   9   7   4    0.34    2.02
   9  -7   4   -0.87    1.41
   9   7   4   -0.77    1.21
   9   7   5   91.92    8.54
   9   7   5   84.12    8.31
   9  -7   5   91.83    8.92
   9  -7   5   86.61    8.50
   9  -7   6   22.63    4.41
   9   7   6   23.36    4.48
   9   7   6   31.58    5.06
   9  -7   6   19.53    4.17
   9  -7   7    0.76    2.05
   9   7   7    5.69    2.45
   9   7   7    4.59    1.81
   9  -7   7    5.04    2.66
   9  -7   8    1.67    0.98
   9   7   8    8.62    2.65
   9  -7   8    5.17    2.14
   9   7   8    7.39    2.54
   9  -7   9   24.05    5.33
   9   7   9   16.97    3.41
   9   7   9   16.81    3.75
   9  -7   9   23.82    4.77
   9  -7  10    9.21    3.73
   9   7  10    7.93    3.09
   9   7  10   13.99    3.27
   9  -7  10    8.62    3.60
   9   7  11   72.64    7.79
   9   7  11   73.39    7.94
   9  -7  11   59.95    7.86
   9  -7  11   83.96    8.96
   9  -7  12    1.14    2.39
   9   7  12    2.21    2.69
   9   7  12    0.64    0.83
   9  -7  12    2.05    1.69
   9  -7  13    4.12    2.68
   9   7  13    5.23    2.07
   9   7  13    2.54    1.71
   9  -7  14   -1.17    2.26
   9   7  14    3.75    2.64
   9   7  14    0.08    0.96
   9   7  15   58.17    7.35
   9   7  15   61.49    7.57
   9  -7  15   57.86    7.49
   9   7  16    2.95    1.72
   9   7  16    0.78    1.74
   9   7  17    6.42    2.69
   9   7  17   12.47    4.13
   9   7  18   -0.42    1.94
   9   7  19    2.34    1.96
  -9   7  19    1.16    1.46
   9   7  20    5.30    3.26
  -9   7  20    4.02    2.05
  -9   7  21    5.06    2.09
   9   7  21   12.92    4.22
   9  -8 -18    5.55    2.35
   9  -8 -18    2.53    2.48
   9  -8 -17    0.41    1.70
   9  -8 -17    0.31    1.13
   9  -8 -16   -0.86    1.83
   9  -8 -16   -2.92    1.87
   9   8 -15   -0.21    2.19
   9  -8 -15    0.73    1.01
   9   8 -14    0.32    1.40
   9  -8 -14    2.21    1.31
   9  -8 -14    1.59    1.33
   9   8 -13    2.97    2.25
   9  -8 -13   -1.96    1.40
   9  -8 -13    1.55    2.43
   9  -8 -12    0.27    1.40
   9   8 -12    0.07    1.49
   9  -8 -12    0.33    2.50
   9   8 -11    1.01    1.79
   9  -8 -11    0.08    1.15
   9  -8 -11    4.18    2.01
   9   8 -10    6.19    2.60
   9  -8 -10    4.33    1.51
   9  -8 -10    0.07    2.44
   9   8  -9    1.12    1.71
   9  -8  -9    4.42    2.09
   9  -8  -9    1.53    2.58
   9   8  -8    6.45    2.57
   9  -8  -8   -0.28    2.19
   9  -8  -8    4.57    2.55
   9   8  -7    8.01    2.55
  -9   8  -7    3.84    2.54
   9  -8  -7    4.47    1.32
   9  -8  -7    2.32    1.36
   9   8  -6   15.88    3.60
  -9   8  -6   10.82    3.14
   9  -8  -6   16.60    4.10
   9  -8  -6   10.63    3.59
   9   8  -5    0.04    1.26
   9  -8  -5    2.40    1.58
  -9   8  -5   -1.10    1.63
   9  -8  -5    1.73    2.44
   9   8  -4    5.01    2.03
  -9   8  -4    2.99    1.72
   9  -8  -4    0.42    1.87
   9  -8  -4    5.44    3.06
   9   8  -3    6.93    2.41
   9   8  -3   -1.42    1.55
  -9   8  -3    6.42    2.42
   9  -8  -3    1.87    2.42
   9  -8  -3    5.45    2.77
   9  -8  -2   10.72    3.09
   9   8  -2   11.51    3.21
   9   8  -2    5.97    2.31
  -9   8  -2    4.02    1.80
   9  -8  -2   11.99    4.01
   9  -8  -1    0.45    1.24
   9   8  -1    0.92    1.17
   9   8  -1    1.76    1.32
  -9   8  -1    3.26    2.27
   9  -8  -1   -0.31    1.79
   9  -8   0    4.58    2.79
   9   8   0    5.11    2.29
   9   8   0    0.39    1.46
  -9   8   0    1.28    1.25
   9  -8   0    3.64    1.15
   9  -8   1    4.24    1.98
   9   8   1    2.25    1.53
   9   8   1    0.45    1.40
  -9   8   1    4.88    2.83
   9  -8   1    5.08    2.03
   9  -8   2   10.66    2.79
   9   8   2   10.20    2.57
  -9   8   2    6.45    2.04
   9   8   2   12.26    3.06
   9  -8   2   10.01    3.56
   9  -8   3    5.84    2.90
   9   8   3    1.04    1.33
  -9   8   3    4.39    2.47
   9   8   3    2.24    2.04
   9  -8   4   -0.63    1.16
   9   8   4    0.27    1.88
   9   8   4    1.21    1.13
   9  -8   4    2.27    1.19
   9  -8   5    0.55    1.44
   9   8   5    0.49    1.34
  -9   8   5    1.78    1.68
   9   8   5    1.67    2.43
   9  -8   5    0.96    2.17
   9  -8   6   16.39    4.21
   9   8   6   22.69    4.66
  -9   8   6   11.32    3.08
   9   8   6   18.70    4.19
   9  -8   6   12.90    4.04
  -9   8   7   -0.05    1.07
   9   8   7    0.43    1.38
   9  -8   8    1.97    1.36
   9   8   8    2.91    2.20
  -9   8   8    3.93    2.09
   9   8   8    3.86    1.83
   9  -8   9    2.01    1.87
   9   8   9    0.73    1.94
  -9   8   9   -1.33    2.23
   9   8   9    2.23    1.76
   9  -8  10    2.09    2.25
   9   8  10    1.74    2.58
  -9   8  10    3.90    1.11
   9   8  10    3.10    1.81
   9  -8  11    4.94    2.84
   9   8  11    4.69    2.97
  -9   8  11    3.22    2.39
   9   8  11    1.96    1.00
   9  -8  12    0.67    1.48
   9   8  12    0.79    2.09
  -9   8  12   -2.41    1.78
   9  -8  13    1.23    2.17
   9   8  13   -0.55    1.70
   9   8  13    0.97    1.59
  -9   8  13    2.65    2.58
   9   8  14    0.04    2.20
   9   8  14    3.72    2.41
  -9   8  14    0.48    1.81
   9   8  15   -3.59    3.27
   9   8  15   -0.56    1.33
  -9   8  15   -1.87    1.92
   9   8  16   -2.09    3.12
   9   8  16   -0.96    0.99
  -9   8  16   -0.30    1.56
   9   8  17   -0.78    2.22
   9   8  17   -0.63    1.81
  -9   8  17   -0.24    1.60
   9   8  18   -0.44    1.02
  -9   8  18    0.58    2.09
   9   9 -14    3.46    1.94
   9  -9 -14   -1.79    1.26
   9  -9 -14    0.78    2.53
   9   9 -13    1.15    1.68
   9  -9 -13    6.01    2.20
   9  -9 -13    1.90    1.50
   9   9 -12    0.65    1.70
   9  -9 -12    1.10    1.76
   9  -9 -12   -2.54    2.69
   9   9 -11   27.95    5.23
   9  -9 -11   27.78    5.49
   9  -9 -11   18.85    4.95
   9  -9 -10   29.09    5.44
   9   9 -10   31.40    5.52
   9  -9 -10   30.57    5.57
   9   9  -9   12.77    3.05
   9  -9  -9   14.19    3.61
   9  -9  -9   20.44    4.89
   9   9  -8    2.67    1.65
   9  -9  -8    1.24    1.93
   9  -9  -8    0.64    1.00
   9   9  -7   18.41    4.15
   9  -9  -7   14.34    4.02
   9  -9  -7    9.09    3.14
   9   9  -6   11.19    3.51
  -9   9  -6   17.85    4.43
   9  -9  -6   12.45    3.57
   9  -9  -6   18.27    4.28
   9   9  -5   54.24    7.34
  -9   9  -5   56.53    7.42
   9  -9  -5   65.23    8.01
   9  -9  -5   59.66    7.55
   9   9  -4    5.22    2.39
  -9   9  -4    4.26    3.19
   9  -9  -4    6.79    1.81
   9  -9  -4    1.69    1.49
   9   9  -3    1.18    2.17
  -9   9  -3   -0.48    1.07
   9  -9  -3    1.16    1.23
   9  -9  -3    0.30    1.47
   9   9  -2    4.25    2.89
  -9   9  -2    2.54    1.57
   9  -9  -2    0.69    1.48
   9  -9  -2   -0.72    1.17
   9   9  -1   34.26    5.98
  -9   9  -1   31.76    6.29
   9   9  -1   24.26    5.03
   9  -9  -1   18.58    4.81
   9  -9  -1   26.88    5.02
   9   9   0   28.40    5.20
  -9   9   0   31.63    5.27
   9   9   0   25.79    5.12
   9  -9   0   28.75    5.14
   9  -9   0   29.24    5.35
   9   9   1   37.11    6.22
  -9   9   1   37.32    5.68
   9   9   1   24.13    4.66
   9  -9   1   26.94    5.47
   9   9   2    0.15    1.27
  -9   9   2    1.27    2.23
   9   9   2   -0.56    1.14
   9  -9   2    0.91    1.06
   9   9   3   -1.87    1.56
  -9   9   3   -1.07    1.69
   9   9   3   -0.22    1.14
   9  -9   3   -0.57    1.20
   9   9   4    4.61    1.67
  -9   9   4    7.84    3.74
   9   9   4    6.06    2.22
   9  -9   4    7.03    2.85
   9   9   5   64.24    7.47
  -9   9   5   56.10    7.59
   9   9   5   66.42    7.78
   9  -9   5   64.74    8.05
   9  -9   6   23.87    5.25
   9   9   6   24.23    4.86
  -9   9   6   19.89    4.29
   9   9   6   18.61    4.21
   9  -9   7   12.90    3.90
  -9   9   7    9.33    3.36
   9   9   7    8.98    2.79
   9   9   7   12.08    3.81
   9  -9   8    2.56    2.60
   9   9   8    4.94    2.74
  -9   9   8   -2.05    2.04
   9   9   8   -0.26    1.69
   9  -9   9   15.03    4.33
   9   9   9   18.32    4.69
  -9   9   9   19.67    4.81
   9   9   9   13.23    3.49
   9  -9  10   21.30    4.87
   9   9  10   30.76    5.52
  -9   9  10   34.36    5.90
   9   9  10   26.52    4.86
   9  -9  11   11.61    3.63
   9   9  11   25.74    5.33
  -9   9  11   20.44    4.45
   9   9  11   20.60    4.69
   9  -9  12    1.29    1.71
   9   9  12    7.41    2.27
  -9   9  12    5.21    1.36
   9   9  12    0.51    1.45
   9   9  13   -1.31    1.96
   9   9  13    1.47    1.32
   9   9  14    2.20    2.44
   9   9  14   -0.28    1.14
  -9   9  14    0.11    1.46
   9  10  -9   22.06    4.72
   9 -10  -9    6.48    1.92
   9 -10  -9   21.00    4.77
   9  10  -8   13.68    3.14
   9 -10  -8   14.85    3.72
   9 -10  -8   23.31    4.80
   9  10  -7    5.49    2.60
   9 -10  -7    1.57    1.33
   9  10  -6   36.02    6.32
   9 -10  -6   38.07    6.52
   9  10  -5    4.49    2.00
  -9  10  -5   14.42    4.18
   9 -10  -5    9.80    3.73
   9  10  -4   -0.96    2.76
  -9  10  -4    1.29    1.68
   9 -10  -4    0.43    1.87
   9  10  -3    0.61    1.18
  -9  10  -3    3.11    2.95
   9 -10  -3    2.28    1.68
   9  10  -2   24.72    4.68
  -9  10  -2   14.61    4.04
   9 -10  -2   17.95    4.48
   9  10  -1   -1.11    1.99
  -9  10  -1   -1.87    1.93
   9  10   0   42.99    6.43
  -9  10   0   52.48    7.51
   9 -10   0   39.50    6.38
   9  10   1    5.34    2.24
  -9  10   1    3.79    2.31
   9  10   1    3.35    2.11
   9 -10   1   -0.60    2.35
   9  10   2   17.45    4.11
  -9  10   2   18.22    4.27
   9  10   2   21.05    4.92
   9 -10   2   21.16    4.98
   9  10   3   -0.54    1.44
  -9  10   3   -2.78    1.47
   9  10   3    0.46    1.78
   9 -10   3    2.07    2.28
   9  10   4    2.08    2.11
  -9  10   4    3.05    1.95
   9  10   4    5.08    2.71
   9 -10   4    1.74    2.06
   9  10   5   13.85    3.83
  -9  10   5    9.76    3.55
   9  10   5   12.20    3.71
   9 -10   5   11.51    3.87
   9  10   6   32.47    5.69
  -9  10   6   33.66    6.18
   9  10   6   39.41    6.18
   9 -10   6   35.09    6.28
   9  10   7   -1.42    2.11
  -9  10   7    4.94    2.67
   9  10   7    0.19    1.44
   9 -10   7    3.13    2.49
   9  10   8   10.28    3.65
  -9  10   8   19.92    4.77
   9  10   8   20.71    4.44
   9 -10   8   19.82    4.52
   9  10   9   22.54    4.76
  -9  10   9   16.61    4.18
   9  10   9   21.56    5.19
   9 -10   9   16.27    4.46
  10   0 -26   -5.90    2.42
  10   0 -25    8.41    2.79
  10   0 -24   20.32    4.61
  10   0 -23   31.02    5.21
  10   0 -22   21.62    4.53
  10   0 -21   71.09    7.90
  10   0 -20   28.04    5.21
  10   0 -19   31.66    5.20
  10   0 -18   76.84    7.84
  10   0 -17  133.47   10.00
  10   0 -16   49.07    6.39
  10   0 -15  133.50    9.86
  10   0 -14   70.42    6.93
  10   0 -13  110.99    8.79
  10   0 -12  144.57    8.87
  10   0 -12  169.18   10.60
  10   0 -11  131.69    8.47
  10   0 -11  136.24    9.66
  10   0 -10   53.70    5.57
  10   0 -10   48.37    5.55
  10   0  -9  112.70    7.95
  10   0  -9  123.77    8.99
  10   0  -8  123.38    8.04
  10   0  -8  104.73    8.22
  10   0  -7   68.56    5.99
  10   0  -7   70.25    6.60
  10   0  -7   84.63    7.05
  10   0  -6   28.89    3.91
  10   0  -6   31.49    4.49
  10   0  -6   34.41    4.82
  10   0  -5  124.47    8.06
  10   0  -5  122.49    8.51
  10   0  -4  167.93    9.33
  10   0  -4  173.32   10.05
  10   0  -4  153.99    9.39
  10   0  -3  125.16    8.28
  10   0  -3  142.86    8.97
  10   0  -3  133.92    8.60
  10   0  -2  117.48    7.93
  10   0  -2  108.28    7.85
  10   0  -2  113.31    7.93
  10   0  -1   59.75    5.75
  10   0  -1   56.78    5.68
  10   0  -1   66.50    5.81
  10   0   0    2.12    1.45
  10   0   0   -0.56    1.17
  10   0   0    0.84    0.95
  10   0   1   70.18    6.26
  10   0   1   68.70    6.31
  10   0   1   62.47    5.60
  10   0   2   97.16    7.48
  10   0   2  105.99    7.40
  10   0   3  127.98    8.52
  10   0   3  139.89    8.32
  10   0   4  155.06    9.43
  10   0   4  168.97    9.34
  10   0   5  123.84    8.27
  10   0   5  119.64    7.75
  10   0   6   38.35    4.57
  10   0   6   27.13    3.76
  10   0   7   90.28    7.28
  10   0   7   78.85    6.19
  10   0   8  125.19    8.79
  10   0   8  107.96    7.25
  10   0   9  114.14    8.55
  10   0   9  113.90    7.39
  10   0  10   49.06    5.48
  10   0  10   60.26    5.28
  10   0  11  137.56    9.55
  10   0  11  134.33    7.95
  10   0  12  147.43    9.82
  10   0  12  148.37    8.31
  10   0  13  112.15    8.75
  10   0  14   63.40    6.79
  10   0  15  121.55    9.47
  10   0  16   55.17    6.35
  10   0  17  125.71    9.68
  10   0  18   96.88    8.53
  10   0  19   31.90    5.24
  10   0  20   25.20    4.53
  10   0  21   65.82    7.50
  10   0  22   18.33    3.93
  10   0  23   37.73    6.25
  10   0  24   18.20    4.35
  10  -1 -27    0.28    2.84
  10  -1 -26    5.84    2.70
  10  -1 -25    3.36    2.13
  10  -1 -24    1.56    1.04
  10  -1 -23    1.61    2.24
  10  -1 -22    3.08    2.19
  10   1 -21    8.44    3.86
  10  -1 -21    6.25    2.89
  10   1 -20    1.68    1.39
  10  -1 -20    0.67    1.21
  10  -1 -19    2.87    1.12
  10   1 -19    5.14    2.10
  10   1 -18    2.90    2.11
  10  -1 -18    6.52    3.02
  10   1 -17    6.73    2.51
  10  -1 -17    8.12    2.88
  10  -1 -16    1.31    1.21
  10   1 -16    2.79    1.52
  10  -1 -15    6.52    2.31
  10   1 -15    3.91    1.78
  10  -1 -14    1.39    2.01
  10   1 -14    1.21    0.87
  10  -1 -14    0.83    1.67
  10  -1 -13   17.39    3.25
  10   1 -13   18.13    3.55
  10  -1 -13   16.87    3.23
  10  -1 -12   12.86    3.12
  10   1 -12    9.19    2.83
  10   1 -12   17.86    3.42
  10  -1 -11   -0.19    0.92
  10   1 -11    0.66    1.05
  10   1 -11   -0.89    1.04
  10  -1 -11    0.82    1.68
  10   1 -11   -0.60    1.04
  10  -1 -10    2.42    1.72
  10   1 -10    0.45    0.73
  10  -1 -10    2.81    2.09
  10   1 -10    1.69    1.54
  10   1 -10    0.32    0.86
  10  -1  -9    3.79    1.81
  10   1  -9    2.68    1.25
  10  -1  -9    4.93    2.08
  10   1  -9    3.73    1.57
  10   1  -9    1.54    0.64
  10  -1  -8   -0.10    0.80
  10   1  -8    0.58    0.76
  10  -1  -8    0.07    1.77
  10   1  -8    1.11    1.31
  10   1  -8    3.03    1.38
  10  -1  -7   18.93    3.36
  10   1  -7   23.54    3.47
  10   1  -7   21.88    3.78
  10  -1  -7   14.27    3.22
  10   1  -7   20.39    3.75
  10  -1  -6   16.71    3.09
  10  -1  -6   13.26    3.00
  10   1  -6   11.03    2.47
  10   1  -6   10.30    2.18
  10   1  -6    9.06    2.49
  10  -1  -5    1.63    1.07
  10  -1  -5    0.87    1.75
  10   1  -5   -0.19    0.73
  10   1  -5    0.83    1.14
  10   1  -5    0.59    0.94
  10  -1  -4    0.80    0.92
  10  -1  -4    2.43    1.05
  10   1  -4    2.21    1.28
  10   1  -4    2.25    0.69
  10   1  -4    0.36    0.65
  10  -1  -3    3.88    1.57
  10   1  -3    1.20    1.40
  10   1  -3    3.57    1.44
  10   1  -3    2.74    0.83
  10  -1  -2    3.89    1.83
  10  -1  -2    5.51    1.66
  10   1  -2    1.89    1.42
  10   1  -2    2.93    0.73
  10   1  -2    0.83    0.61
  10  -1  -1   19.95    3.25
  10   1  -1   21.11    3.28
  10  -1  -1   20.06    3.56
  10   1  -1   17.81    3.06
  10   1  -1   16.99    2.98
  10  -1   0   18.74    3.17
  10   1   0   17.81    3.13
  10  -1   0   10.11    2.30
  10   1   0   15.47    3.00
  10   1   0   13.32    2.68
  10   1   1   18.58    3.13
  10  -1   1   14.28    2.65
  10  -1   1   17.11    3.16
  10   1   1   18.87    3.17
  10   1   2    7.20    1.86
  10  -1   2    2.48    1.54
  10  -1   2    4.62    1.58
  10   1   2    5.71    2.12
  10   1   3    3.47    1.45
  10   1   3    5.46    1.62
  10  -1   3    1.73    1.52
  10   1   4   -0.07    0.59
  10  -1   4    0.81    0.65
  10   1   5    0.23    1.07
  10   1   5   -0.39    0.58
  10  -1   5    1.42    1.01
  10   1   6    8.32    2.23
  10   1   6   10.41    2.96
  10  -1   6   11.11    2.45
  10   1   7   22.20    3.74
  10   1   7   19.35    3.07
  10  -1   7   11.80    2.78
  10   1   8    0.22    0.55
  10   1   8    1.15    0.54
  10  -1   8    2.34    1.85
  10   1   9    3.19    1.50
  10   1   9    3.21    1.86
  10  -1   9    5.71    2.26
  10   1  10    5.22    1.87
  10  -1  10    1.73    0.89
  10   1  10    2.51    1.26
  10   1  11    0.58    0.82
  10  -1  11   -0.74    1.74
  10   1  11    0.21    1.36
  10   1  12   13.37    2.84
  10  -1  12   13.09    2.96
  10   1  12   14.12    2.71
  10   1  13    7.13    2.23
  10   1  13   11.63    2.33
  10   1  14   -0.88    1.92
  10  -1  14    1.20    1.67
  10   1  15    6.34    2.02
  10  -1  15   10.31    3.27
  10   1  16    5.71    2.38
  10  -1  16    6.48    2.36
  10   1  17    1.96    0.94
  10  -1  17    3.56    2.70
  10   1  18    2.54    1.28
  10  -1  18    1.82    1.07
  10   1  19    3.70    2.23
  10  -1  19    4.79    2.57
  10   1  20    2.59    1.29
  10  -1  20   -0.30    1.62
  10   1  21    3.41    1.67
  10  -1  21    3.99    2.70
  10   1  22    4.42    1.91
  10  -1  22    3.77    2.06
  10   1  23    0.63    1.63
  10  -1  23    3.65    3.49
  10   1  24    0.01    1.10
  10   1  25    1.75    3.15
  10  -2 -26    6.93    3.14
  10  -2 -25   16.53    4.47
  10  -2 -24   18.61    4.71
  10  -2 -23    7.07    3.33
  10  -2 -22    8.93    3.18
  10  -2 -21   20.82    4.62
  10  -2 -20    7.75    3.27
  10  -2 -19   21.74    4.13
  10  -2 -18   57.22    6.91
  10  -2 -17   62.53    6.79
  10   2 -16   17.17    3.95
  10  -2 -16   24.54    4.34
  10   2 -15   80.44    7.39
  10  -2 -15   88.20    8.29
  10  -2 -15   67.18    6.73
  10   2 -15   80.50    7.74
  10   2 -14   49.48    5.62
  10  -2 -14   53.26    6.42
  10  -2 -14   44.76    5.72
  10   2 -14   58.98    6.18
  10   2 -13   59.64    6.03
  10  -2 -13   39.25    5.33
  10  -2 -13   43.26    5.56
  10   2 -13   54.24    5.99
  10   2 -12  117.26    8.29
  10  -2 -12  113.72    9.20
  10   2 -12  110.61    8.60
  10  -2 -12  108.20    8.61
  10   2 -11  186.48   10.64
  10  -2 -11  201.86   12.02
  10   2 -11  192.27   11.31
  10  -2 -11  179.41   10.86
  10   2 -10   55.69    5.29
  10   2 -10   61.84    5.94
  10  -2 -10   59.80    6.46
  10   2 -10   53.53    5.96
  10  -2 -10   51.71    5.71
  10  -2  -9  108.42    8.43
  10   2  -9  100.69    6.88
  10  -2  -9  106.59    8.68
  10   2  -9  104.27    7.72
  10   2  -9  113.79    8.53
  10  -2  -8   96.64    7.72
  10   2  -8  109.00    7.27
  10  -2  -8  119.94    9.02
  10   2  -8  102.13    7.74
  10   2  -8  124.75    8.87
  10  -2  -7   37.42    4.69
  10   2  -7   41.94    4.96
  10   2  -7   43.14    4.59
  10  -2  -7   39.51    5.36
  10   2  -7   50.44    5.61
  10  -2  -6   40.24    5.00
  10   2  -6   54.38    5.25
  10  -2  -6   57.84    6.06
  10   2  -6   56.85    5.83
  10   2  -6   51.45    5.73
  10  -2  -5  108.85    8.08
  10   2  -5  119.40    7.64
  10  -2  -5  135.39    9.51
  10   2  -5  139.51    8.71
  10   2  -5  125.40    8.48
  10  -2  -4   71.54    6.44
  10   2  -4   77.55    6.15
  10  -2  -4   92.93    7.92
  10   2  -4   80.12    6.78
  10   2  -4   92.05    7.38
  10  -2  -3  138.10    9.06
  10  -2  -3  151.81   10.09
  10   2  -3  133.22    8.15
  10   2  -3  129.21    8.22
  10   2  -3  144.04    9.17
  10  -2  -2  213.97   11.42
  10  -2  -2  242.27   12.48
  10   2  -2  234.98   10.97
  10   2  -2  231.14   11.23
  10   2  -2  214.07   11.03
  10  -2  -1  147.40    9.47
  10  -2  -1  142.98    9.66
  10   2  -1  149.83    8.98
  10   2  -1  165.80    9.28
  10   2  -1  153.17    9.26
  10  -2   0   34.82    4.64
  10  -2   0   33.91    4.60
  10   2   0   42.84    4.88
  10   2   0   27.53    4.07
  10  -2   1  163.55    9.87
  10  -2   1  139.92    9.50
  10   2   1  157.80    9.29
  10   2   1  136.01    8.68
  10  -2   2  230.68   12.00
  10  -2   2  221.35   11.87
  10   2   2  239.15   11.60
  10   2   2  213.78   10.93
  10  -2   3  154.81    9.68
  10  -2   3  144.93    9.58
  10   2   3  146.01    9.12
  10   2   3  154.82    9.13
  10  -2   4   78.66    7.03
  10  -2   4   78.12    7.12
  10   2   4   86.74    6.83
  10   2   4   85.97    7.13
  10  -2   5  145.43    9.55
  10   2   5  123.33    8.36
  10   2   5  140.78    9.02
  10   2   6   43.40    5.06
  10  -2   6   49.43    5.73
  10   2   6   47.63    5.10
  10   2   7   49.96    5.69
  10  -2   7   41.46    5.16
  10   2   7   46.68    5.03
  10   2   8  119.98    8.81
  10  -2   8  110.42    8.49
  10   2   8  117.10    8.02
  10   2   9  106.75    8.16
  10  -2   9  102.26    8.33
  10   2   9  112.43    7.90
  10   2  10   46.88    5.66
  10  -2  10   44.55    5.56
  10   2  10   56.70    5.78
  10   2  11  177.33   11.21
  10  -2  11  211.32   12.18
  10   2  11  204.27   10.67
  10   2  12  125.11    9.32
  10  -2  12  112.30    9.00
  10   2  12  105.31    7.77
  10   2  13   49.49    6.33
  10  -2  13   53.96    6.33
  10   2  13   40.86    4.77
  10   2  14   56.38    6.42
  10  -2  14   45.24    5.77
  10   2  14   52.74    5.70
  10   2  15   80.96    7.74
  10  -2  15   75.89    7.68
  10   2  16   25.37    4.59
  10  -2  16   27.10    4.36
  10   2  17   55.42    6.85
  10  -2  17   52.97    6.28
  10   2  18   51.69    6.63
  10  -2  18   51.92    6.68
  10  -2  19   25.79    5.00
  10   2  19   28.17    5.13
  10   2  20    4.00    1.81
  10  -2  20    3.90    2.00
  10  -2  21   14.76    3.93
  10   2  21   36.53    5.71
  10   2  22   20.59    4.40
  10  -2  22   16.02    3.93
  10   2  23    8.39    3.33
  10   2  24   17.95    4.28
  10   2  25   11.64    4.02
  10   2  26    5.72    2.97
  10  -3 -26    1.02    1.96
  10  -3 -25   -0.94    1.12
  10  -3 -24    0.41    1.33
  10  -3 -23    2.76    2.40
  10  -3 -22    2.88    1.69
  10  -3 -21    0.75    1.37
  10  -3 -20   -1.12    1.80
  10  -3 -19    0.32    1.35
  10   3 -19   -0.07    1.26
  10  -3 -18    1.01    1.13
  10   3 -18    0.30    1.85
  10  -3 -17   -0.31    1.81
  10   3 -17    1.49    1.37
  10  -3 -16    3.47    1.73
  10   3 -16    4.39    1.56
  10  -3 -16    6.01    2.35
  10  -3 -15    0.13    1.10
  10   3 -15   -0.34    1.17
  10  -3 -15   -0.61    1.37
  10  -3 -14    0.28    1.56
  10  -3 -14    0.89    1.19
  10   3 -14    0.78    0.88
  10  -3 -13    9.75    2.88
  10  -3 -13    7.77    2.69
  10   3 -13    7.77    1.42
  10  -3 -12    1.32    1.08
  10  -3 -12    2.87    1.58
  10  -3 -11    0.77    0.77
  10  -3 -11    0.94    1.51
  10   3 -11   -0.75    0.96
  10   3 -10    9.10    3.21
  10  -3 -10    9.89    2.87
  10   3 -10    2.81    1.91
  10  -3 -10   13.62    3.11
  10   3  -9    5.35    1.64
  10  -3  -9    2.05    1.41
  10  -3  -9    4.79    2.50
  10   3  -9    2.77    1.08
  10   3  -8    0.25    1.20
  10  -3  -8    2.19    1.14
  10  -3  -8    0.30    1.42
  10   3  -8   -0.82    1.05
  10   3  -8    0.50    0.70
  10   3  -7   13.88    3.23
  10  -3  -7   14.20    3.42
  10   3  -7   19.60    2.95
  10  -3  -7   11.76    2.85
  10   3  -7   14.83    2.88
  10   3  -6   11.62    2.90
  10   3  -6   12.30    2.37
  10  -3  -6    6.29    2.19
  10  -3  -6    5.12    2.19
  10   3  -6    6.36    2.09
  10   3  -5    1.84    1.60
  10   3  -5    2.02    0.47
  10  -3  -5    1.56    0.64
  10  -3  -5    1.19    0.84
  10   3  -5    0.59    0.75
  10   3  -4   14.26    3.02
  10   3  -4   10.84    2.51
  10  -3  -4    8.97    2.56
  10  -3  -4   12.17    3.00
  10   3  -4   15.69    2.88
  10   3  -3    3.26    1.97
  10   3  -3    1.20    1.01
  10  -3  -3    1.75    1.31
  10  -3  -3    0.11    1.03
  10   3  -3    0.90    1.50
  10   3  -2    3.69    0.98
  10  -3  -2    4.73    1.95
  10   3  -2    4.56    1.96
  10  -3  -2    7.11    2.85
  10   3  -2    4.59    1.67
  10   3  -1    9.49    2.51
  10  -3  -1    7.99    1.88
  10   3  -1    9.66    2.31
  10  -3  -1   10.78    3.14
  10   3  -1    8.46    2.04
  10   3   0    7.65    2.66
  10  -3   0   10.54    2.07
  10   3   0    3.98    2.16
  10  -3   0    7.08    2.66
  10   3   1    8.37    2.53
  10  -3   1    8.66    2.10
  10   3   1    9.14    2.14
  10  -3   1    8.63    2.38
  10   3   2    5.55    1.71
  10  -3   2    6.16    2.14
  10   3   2    5.66    2.14
  10  -3   2    6.49    2.38
  10   3   3    3.38    1.77
  10   3   3    4.77    2.24
  10  -3   3    2.02    1.27
  10  -3   3    0.61    1.39
  10   3   4   14.15    3.09
  10  -3   4   12.13    2.66
  10   3   4   10.83    2.68
  10  -3   4   16.13    3.29
  10   3   5    0.89    0.78
  10  -3   5   -0.30    0.75
  10   3   6    8.81    2.51
  10  -3   6    6.62    2.55
  10   3   6   11.81    2.74
  10  -3   6   16.66    3.42
  10   3   7   16.83    3.68
  10  -3   7   15.64    3.24
  10   3   7   20.91    3.73
  10   3   8    2.00    1.57
  10  -3   8    2.81    1.45
  10   3   8   -0.10    1.12
  10   3   9    3.02    1.51
  10  -3   9    1.97    0.95
  10   3   9    3.70    1.78
  10   3  10   13.40    2.94
  10  -3  10   18.59    3.67
  10   3  10   15.23    3.44
  10   3  11    1.56    1.96
  10  -3  11    3.35    2.16
  10   3  11    1.06    1.62
  10   3  12    7.70    2.66
  10  -3  12    6.47    2.42
  10   3  12    5.56    2.33
  10   3  13    8.11    2.64
  10  -3  13    8.17    2.43
  10   3  13   10.11    2.74
  10   3  14   -0.38    1.52
  10  -3  14    1.02    1.10
  10   3  14    2.16    2.32
  10   3  15   -0.46    1.89
  10  -3  15    1.85    1.85
  10   3  15   -0.14    1.87
  10  -3  16    3.61    1.06
  10   3  16    7.49    2.83
  10  -3  17    0.38    1.10
  10   3  17   -1.26    1.89
  10   3  18    2.83    1.33
  10  -3  18   -1.62    1.97
  10   3  19   -0.66    1.15
  10  -3  19   -0.02    1.49
  10   3  20    0.90    1.43
  10  -3  20   -1.09    1.11
  10   3  21    0.97    1.51
  10   3  22    0.40    1.87
  10   3  23    1.38    1.45
  10   3  24    3.81    2.64
  10   3  25   -1.26    2.03
  10   3  26    0.35    1.52
  10  -4 -25   14.37    4.16
  10  -4 -24    9.98    2.68
  10  -4 -23    2.42    1.83
  10  -4 -22   11.52    3.44
  10  -4 -21    7.79    2.94
  10  -4 -20    7.24    2.44
  10  -4 -19   15.17    3.24
  10   4 -19   19.77    5.02
  10  -4 -18   30.44    5.22
  10   4 -18   45.67    6.05
  10  -4 -17   29.11    5.06
  10   4 -17   31.16    5.05
  10  -4 -17   25.20    4.90
  10  -4 -16   18.95    3.91
  10  -4 -16   20.87    3.79
  10   4 -16   24.66    4.64
  10  -4 -15   42.20    5.89
  10  -4 -15   48.54    6.44
  10   4 -15   44.01    5.93
  10  -4 -14   44.92    5.99
  10  -4 -14   42.95    5.81
  10   4 -14   47.48    6.00
  10  -4 -13   45.46    6.11
  10  -4 -13   36.94    5.71
  10   4 -13   37.71    5.35
  10  -4 -12   62.65    7.07
  10  -4 -12   58.92    6.74
  10   4 -12   59.20    6.58
  10  -4 -11  111.20    9.40
  10  -4 -11  127.27    9.90
  10   4 -11  115.56    9.28
  10  -4 -10   41.49    5.72
  10  -4 -10   39.68    5.61
  10   4 -10   53.40    6.19
  10  -4  -9   47.83    6.01
  10  -4  -9   50.35    6.10
  10   4  -9   45.01    5.78
  10  -4  -8   63.94    6.99
  10  -4  -8   71.04    7.31
  10   4  -8   59.67    6.16
  10   4  -7   13.63    3.21
  10  -4  -7   13.90    3.57
  10   4  -7   17.43    3.20
  10  -4  -7   17.78    4.10
  10  -4  -6   22.46    3.89
  10   4  -6   20.35    3.22
  10   4  -6   26.52    4.31
  10  -4  -6   27.46    4.51
  10  -4  -5   82.59    8.08
  10   4  -5   78.19    6.58
  10   4  -5   89.54    7.72
  10  -4  -5   85.86    7.81
  10   4  -4   31.95    4.31
  10  -4  -4   41.94    5.66
  10   4  -4   33.16    4.78
  10  -4  -4   35.76    4.95
  10  -4  -3   33.34    4.82
  10   4  -3   29.34    4.18
  10  -4  -3   36.70    5.21
  10   4  -3   28.39    3.71
  10   4  -3   36.71    5.08
  10  -4  -2  127.00    9.43
  10   4  -2  109.42    7.98
  10  -4  -2  118.54    9.39
  10   4  -2  132.42    8.36
  10   4  -2  121.42    8.90
  10  -4  -1  105.86    8.63
  10   4  -1  111.68    8.20
  10  -4  -1  141.50   10.24
  10   4  -1  136.43    9.33
  10  -4   0   85.41    7.78
  10   4   0   71.18    6.52
  10  -4   0   78.04    7.46
  10   4   0   81.77    7.42
  10   4   1  111.42    8.62
  10  -4   1  121.15    9.08
  10   4   1  116.19    8.80
  10  -4   1  120.19    9.48
  10   4   2  140.08    9.55
  10  -4   2  130.23    9.53
  10   4   2  127.96    9.07
  10  -4   2  135.94    9.78
  10   4   3   37.32    5.02
  10  -4   3   43.46    5.56
  10   4   3   35.79    4.84
  10  -4   3   35.58    5.18
  10   4   4   32.14    4.88
  10  -4   4   36.14    5.09
  10   4   4   30.32    4.61
  10  -4   4   32.95    4.62
  10   4   5   84.53    7.46
  10  -4   5   78.42    7.44
  10   4   5   69.65    6.80
  10  -4   5   80.01    7.71
  10   4   6   19.54    3.68
  10  -4   6   26.37    4.50
  10   4   6   29.33    4.54
  10  -4   6   24.00    4.31
  10   4   7   13.71    3.23
  10  -4   7   17.00    3.66
  10  -4   7   12.04    3.19
  10   4   7   13.60    3.14
  10   4   8   67.44    6.95
  10  -4   8   59.58    6.54
  10   4   8   50.63    6.20
  10  -4   8   71.03    7.31
  10   4   9   55.84    6.32
  10  -4   9   55.04    6.50
  10   4   9   49.04    6.02
  10   4  10   44.84    5.52
  10  -4  10   36.30    5.13
  10   4  10   39.47    5.28
  10   4  11  121.03    9.22
  10  -4  11  115.84    9.41
  10   4  11  111.83    9.11
  10   4  12   62.75    6.63
  10  -4  12   59.56    6.81
  10   4  12   70.06    7.22
  10   4  13   37.85    5.26
  10  -4  13   44.25    5.81
  10   4  13   36.24    5.49
  10   4  14   43.43    5.75
  10  -4  14   49.74    6.25
  10   4  14   33.61    4.93
  10   4  15   50.79    6.29
  10   4  15   41.24    5.64
  10  -4  15   45.15    6.35
  10   4  16   28.10    4.70
  10  -4  16   17.04    3.76
  10   4  17   33.66    5.39
  10  -4  17   28.31    5.07
  10   4  18   28.87    4.92
  10  -4  18   38.27    5.93
  10  -4  19   19.70    4.40
  10   4  19   15.34    3.73
  10   4  20    8.44    2.81
  10   4  21   14.20    3.05
  10   4  22    8.04    3.03
  10   4  23    3.06    1.98
  10   4  24   12.01    3.31
  10   4  25   14.84    3.77
  10  -5 -23    3.69    2.00
  10  -5 -22    0.88    1.73
  10  -5 -21    9.39    3.43
  10  -5 -20   -0.16    1.07
  10  -5 -19   -0.37    1.32
  10  -5 -19    2.98    3.14
  10  -5 -18    1.41    1.88
  10  -5 -18   -0.21    1.35
  10   5 -18   -1.24    1.54
  10  -5 -17    1.15    2.02
  10  -5 -17    0.23    1.29
  10   5 -17    2.95    2.69
  10   5 -16   12.78    3.11
  10  -5 -16   11.10    3.85
  10   5 -15   13.34    3.16
  10  -5 -15    7.64    2.88
  10  -5 -15    6.92    2.19
  10   5 -14    4.58    2.18
  10  -5 -14    4.25    2.68
  10  -5 -14    2.91    2.10
  10   5 -13   -0.10    0.85
  10  -5 -13    0.52    1.43
  10  -5 -13    0.86    1.56
  10   5 -12    5.41    1.77
  10  -5 -12    2.07    1.33
  10  -5 -11    1.53    0.93
  10   5 -11    3.21    2.23
  10  -5 -11    6.02    2.46
  10  -5 -10   15.44    3.68
  10   5 -10   14.70    3.45
  10  -5 -10   10.75    2.98
  10  -5  -9    4.58    1.13
  10   5  -9    3.68    2.50
  10  -5  -9    0.60    1.17
  10   5  -8   10.43    2.71
  10  -5  -8   15.59    3.57
  10  -5  -8   20.45    4.16
  10   5  -7    7.74    2.71
  10  -5  -7   11.46    3.16
  10  -5  -7   12.66    3.13
  10   5  -6    3.87    2.06
  10  -5  -6    4.14    2.03
  10   5  -6    3.95    1.95
  10  -5  -6    2.75    0.97
  10   5  -5    6.24    2.68
  10  -5  -5    7.97    2.85
  10   5  -5    7.49    2.45
  10  -5  -5    2.94    1.13
  10   5  -4   15.82    3.38
  10   5  -4   20.73    3.91
  10  -5  -4   19.69    4.35
  10  -5  -4   21.21    4.60
  10   5  -3   13.78    3.19
  10  -5  -3    9.49    3.10
  10  -5  -3    7.33    1.92
  10   5  -3    5.42    1.89
  10   5  -2   22.02    4.11
  10   5  -2   29.28    4.15
  10  -5  -2   30.65    5.13
  10  -5  -2   27.41    4.51
  10   5  -1   63.74    6.90
  10   5  -1   56.76    5.94
  10  -5  -1   60.04    7.00
  10  -5  -1   64.82    6.95
  10   5   0   50.59    6.06
  10   5   0   41.52    5.20
  10  -5   0   46.06    5.96
  10  -5   0   39.97    5.67
  10  -5   1   71.57    7.15
  10   5   1   64.69    6.81
  10   5   1   70.96    6.87
  10  -5   1   63.46    6.79
  10  -5   2   24.07    4.40
  10   5   2   26.89    3.96
  10   5   2   22.82    3.88
  10  -5   2   28.38    4.38
  10   5   3    5.68    2.27
  10   5   3    8.88    2.73
  10  -5   3    7.60    2.60
  10  -5   3    3.67    1.44
  10   5   4   22.26    4.34
  10   5   4   17.67    3.40
  10  -5   4   16.57    3.65
  10  -5   4   18.40    3.54
  10   5   5    4.81    1.81
  10   5   5    6.12    2.04
  10  -5   5    6.08    2.19
  10  -5   5    5.49    2.35
  10   5   6    1.97    1.48
  10   5   6    8.45    2.77
  10  -5   6    3.27    2.11
  10  -5   6    4.33    2.35
  10   5   7   14.26    3.71
  10   5   7   16.41    3.92
  10  -5   7    6.86    2.57
  10  -5   7    5.47    2.29
  10   5   8   16.52    3.51
  10   5   8   21.57    4.07
  10  -5   8   13.01    3.28
  10  -5   8   19.26    3.69
  10   5   9    2.35    1.32
  10   5   9    0.39    1.06
  10  -5   9   -0.03    0.96
  10   5  10    9.94    2.62
  10   5  10   12.09    3.52
  10  -5  10   10.51    2.82
  10  -5  10   15.07    3.76
  10   5  11    3.52    1.48
  10   5  11    3.28    2.24
  10  -5  11    5.01    1.46
  10  -5  11    3.62    2.56
  10   5  12    0.55    1.09
  10   5  12    1.30    1.99
  10  -5  12    6.12    2.45
  10  -5  12    1.06    1.77
  10   5  13   -1.86    1.99
  10   5  13   -1.30    1.36
  10  -5  13    1.97    2.16
  10   5  14    5.01    1.72
  10   5  14    3.88    2.03
  10  -5  14   -1.12    1.43
  10   5  15    8.34    2.94
  10   5  15    4.55    2.39
  10  -5  15    9.03    2.66
  10   5  16    5.25    1.76
  10  -5  16    9.84    2.63
  10   5  16   11.17    2.53
  10  -5  17    2.73    3.16
  10   5  17    0.35    1.51
  10  -5  18   -1.81    1.68
  10   5  18    0.52    1.51
  10   5  19    4.49    2.80
  10   5  20    0.05    1.79
  10   5  21   -0.67    1.94
  10   5  22    2.25    1.68
  10   5  23    0.08    1.66
  10  -6 -22    7.46    2.92
  10  -6 -21   17.44    4.18
  10  -6 -20   26.53    5.45
  10  -6 -20   -4.43    2.12
  10  -6 -19   11.67    3.22
  10  -6 -19    8.07    3.19
  10  -6 -18   14.44    3.97
  10  -6 -18   18.02    4.61
  10   6 -17   19.74    4.21
  10  -6 -17   24.32    4.94
  10  -6 -17   16.61    3.79
  10   6 -16   24.53    4.76
  10  -6 -16   26.71    5.17
  10  -6 -16   22.52    5.00
  10  -6 -15   49.19    6.48
  10  -6 -15   43.04    6.46
  10   6 -15   53.85    6.65
  10  -6 -14   32.58    5.18
  10  -6 -14   31.36    5.54
  10   6 -14   30.95    5.58
  10   6 -13   24.98    4.55
  10  -6 -13   31.71    5.53
  10  -6 -13   22.23    4.45
  10   6 -12   23.03    4.46
  10  -6 -12   14.17    3.59
  10  -6 -12   22.48    4.67
  10  -6 -11   23.24    4.45
  10   6 -11   22.69    4.64
  10  -6 -11   25.01    4.64
  10   6 -10   19.49    4.34
  10  -6 -10   16.83    3.89
  10  -6 -10   18.08    4.04
  10  -6  -9   25.64    4.73
  10  -6  -9   37.73    5.57
  10   6  -9   30.94    4.82
  10  -6  -8   34.53    5.34
  10  -6  -8   30.90    5.26
  10   6  -8   39.12    5.68
  10  -6  -7   12.19    3.34
  10   6  -7   10.70    3.45
  10  -6  -7   10.28    3.43
  10  -6  -6   19.89    4.32
  10   6  -6   25.63    4.16
  10  -6  -6   12.81    3.09
  10   6  -5   54.24    6.63
  10   6  -5   48.15    5.83
  10  -6  -5   48.11    6.39
  10  -6  -5   46.42    6.11
  10   6  -4   30.91    4.91
  10  -6  -4   23.63    4.18
  10   6  -4   24.71    4.09
  10  -6  -4   36.90    5.91
  10  -6  -3    2.28    1.58
  10   6  -3    5.16    2.00
  10  -6  -3    4.54    2.43
  10   6  -3    6.19    2.22
  10   6  -2   30.10    5.07
  10  -6  -2   19.85    3.97
  10  -6  -2   29.43    5.01
  10   6  -2   15.03    2.89
  10   6  -1   50.36    6.50
  10   6  -1   56.19    6.17
  10  -6  -1   51.48    6.31
  10  -6  -1   47.46    6.33
  10   6   0   49.31    6.57
  10   6   0   45.69    5.69
  10  -6   0   61.70    7.07
  10  -6   0   54.07    6.86
  10   6   1   62.07    6.83
  10   6   1   49.45    6.01
  10  -6   1   48.60    5.92
  10  -6   1   47.84    6.07
  10   6   2   20.80    4.21
  10  -6   2   17.72    3.90
  10   6   2   26.41    4.58
  10  -6   2   28.48    4.88
  10   6   3    3.37    1.62
  10   6   3    0.93    0.82
  10  -6   3    5.45    2.79
  10  -6   3    5.14    1.70
  10   6   4   31.03    4.90
  10   6   4   25.22    4.34
  10  -6   4   30.57    5.20
  10  -6   4   27.07    4.88
  10   6   5   46.62    5.76
  10   6   5   48.28    5.92
  10  -6   5   44.09    6.18
  10  -6   5   47.26    6.41
  10   6   6   11.76    3.14
  10   6   6   13.48    3.07
  10  -6   6   18.52    4.04
  10  -6   6   18.72    4.18
  10   6   7   14.02    3.29
  10   6   7    5.35    2.52
  10  -6   7   12.60    3.41
  10  -6   7    9.78    2.68
  10  -6   8   38.04    5.67
  10   6   8   23.04    4.63
  10   6   8   34.64    5.29
  10  -6   8   34.54    5.71
  10   6   9   33.75    5.51
  10  -6   9   24.58    4.66
  10   6   9   24.09    4.37
  10  -6   9   26.14    4.98
  10   6  10   21.82    4.39
  10   6  10   22.15    4.21
  10  -6  10   16.70    4.14
  10  -6  10   19.53    4.35
  10   6  11   22.78    4.72
  10   6  11   15.63    3.65
  10  -6  11   16.02    3.84
  10  -6  11   25.52    5.25
  10   6  12   21.63    4.54
  10   6  12   26.17    4.41
  10  -6  12   23.95    5.16
  10  -6  12   16.62    3.52
  10   6  13   22.24    4.74
  10  -6  13   32.28    5.29
  10   6  13   33.00    5.16
  10  -6  13   29.10    5.23
  10  -6  14   33.38    5.56
  10   6  14   45.68    6.52
  10   6  14   44.47    6.29
  10  -6  14   36.40    5.80
  10  -6  15   41.66    6.42
  10   6  15   57.58    7.55
  10   6  15   55.82    7.14
  10  -6  15   54.23    7.53
  10   6  16   24.71    4.79
  10   6  16   16.64    4.36
  10  -6  16   21.76    4.77
  10  -6  16   31.40    6.10
  10   6  17   22.37    4.44
  10   6  18   17.28    4.28
  10   6  19    6.54    2.50
  10   6  20   15.01    3.69
  10   6  21   27.32    5.71
  10   6  22   10.35    3.63
  10  -7 -20    4.54    2.79
  10  -7 -20    5.24    2.77
  10  -7 -19    2.98    1.86
  10  -7 -19    1.39    2.29
  10  -7 -18    1.87    1.43
  10  -7 -18    0.39    2.03
  10  -7 -17   -0.71    1.34
  10  -7 -17    1.44    1.41
  10   7 -16    5.04    3.12
  10  -7 -16    4.32    1.53
  10  -7 -16    4.70    2.31
  10   7 -15    2.53    1.47
  10  -7 -15    1.61    1.45
  10  -7 -15    2.31    1.07
  10   7 -14   11.14    3.39
  10  -7 -14    6.74    2.58
  10  -7 -14    5.04    2.60
  10   7 -13    0.40    1.31
  10  -7 -13    2.73    1.94
  10   7 -12   -0.09    1.52
  10  -7 -12    2.30    2.16
  10  -7 -12    4.16    2.09
  10   7 -11    9.37    2.97
  10  -7 -11    9.24    2.75
  10  -7 -11    9.36    3.39
  10   7 -10   15.02    4.03
  10  -7 -10   17.96    4.32
  10  -7 -10   20.31    4.02
  10   7  -9   15.33    3.87
  10  -7  -9   11.63    3.46
  10  -7  -9    7.25    2.67
  10   7  -8   10.57    3.00
  10  -7  -8   10.83    3.02
  10  -7  -8    5.27    2.81
  10  -7  -7    0.96    1.30
  10   7  -7    3.21    1.96
 -10   7  -7    1.75    2.03
  10  -7  -7    0.47    1.67
  10  -7  -6    4.41    2.19
  10   7  -6    1.16    1.06
 -10   7  -6    4.61    2.50
  10  -7  -6    6.45    1.77
  10  -7  -5   -0.70    1.39
  10   7  -5    4.40    1.77
 -10   7  -5    1.23    1.72
  10  -7  -5    1.46    1.31
  10  -7  -4    0.52    0.95
  10   7  -4    0.39    1.33
  10  -7  -4    3.74    2.64
  10  -7  -3    3.10    1.24
  10   7  -3    4.77    1.37
  10   7  -3    5.14    2.00
  10  -7  -3    6.39    1.82
  10  -7  -2    4.50    2.75
  10   7  -2    8.53    2.72
  10   7  -2   10.44    2.94
  10  -7  -2    7.59    3.13
  10   7  -1   34.12    5.91
  10  -7  -1   23.19    4.67
  10   7  -1   22.98    4.17
  10  -7  -1   22.62    4.63
  10   7   0    3.95    2.35
  10  -7   0    2.65    1.34
  10  -7   1   14.46    3.24
  10   7   1   23.97    4.50
  10   7   1   21.73    4.37
  10  -7   1   20.02    4.42
  10  -7   2    3.02    1.66
  10   7   2    5.19    2.85
  10   7   2    6.15    2.40
  10  -7   2    8.27    3.58
  10  -7   3    4.27    2.30
  10   7   3    6.30    3.25
  10   7   3    5.86    2.29
  10  -7   3    3.59    1.70
  10  -7   4    2.85    1.55
  10   7   4    2.49    2.31
  10   7   4    0.79    1.82
  10  -7   4    1.25    1.53
  10  -7   5    0.31    1.34
  10   7   5    3.99    1.95
  10   7   5    0.52    1.82
  10  -7   5    2.50    2.73
  10  -7   6    3.04    1.44
  10   7   6    5.90    2.43
  10   7   6    6.88    2.12
  10  -7   6    5.19    2.10
  10  -7   7   -0.16    2.07
  10   7   7   -0.19    1.05
  10   7   7   -1.80    1.78
  10  -7   7    2.26    2.58
  10  -7   8    8.02    3.00
  10   7   8   10.57    3.01
  10   7   8   11.21    3.28
  10  -7   8   10.12    3.38
  10  -7   9   14.05    3.70
  10   7   9    9.13    2.74
  10   7   9    9.94    3.04
  10  -7   9    9.78    3.07
  10  -7  10   19.36    4.38
  10   7  10   11.62    3.13
  10   7  10   10.56    3.40
  10  -7  10    9.25    2.69
  10  -7  11   14.84    3.80
  10   7  11   15.51    3.91
  10   7  11   11.75    3.46
  10  -7  11    7.88    3.06
  10   7  12    3.03    2.23
  10  -7  12    3.60    1.98
  10   7  12    1.43    1.11
  10  -7  12    4.13    2.98
  10   7  13    4.05    1.18
  10  -7  13    4.35    2.40
  10   7  13    1.91    1.13
  10  -7  13    3.60    1.49
  10   7  14    3.33    1.88
  10  -7  14    4.89    2.87
  10   7  14    4.60    2.29
  10   7  15   -2.15    2.62
  10  -7  15   -1.11    2.16
  10   7  15    1.38    1.11
  10   7  16    6.14    2.64
  10   7  16    5.03    2.17
  10   7  17    0.95    1.55
  10   7  18    2.28    1.65
  10   7  19   -0.72    2.38
  10   7  20    4.30    3.17
  10  -8 -17   -0.71    1.77
  10  -8 -17    1.74    2.09
  10   8 -16    7.52    3.68
  10  -8 -16   12.38    3.80
  10  -8 -16    0.02    1.15
  10   8 -15   15.37    3.93
  10  -8 -15   26.41    5.34
  10  -8 -15   20.80    4.82
  10   8 -14   24.33    4.55
  10  -8 -14   22.29    5.05
  10  -8 -14   22.24    5.21
  10   8 -13    5.47    2.50
  10  -8 -13    4.59    2.09
  10  -8 -13    7.94    2.90
  10   8 -12    8.00    2.21
  10  -8 -12    9.94    3.46
  10  -8 -12    9.55    3.79
  10   8 -11   17.24    3.96
  10  -8 -11   13.76    3.87
  10  -8 -11    4.63    2.87
  10   8 -10    4.52    2.17
  10  -8 -10    2.24    1.66
  10  -8 -10    2.46    1.14
  10   8  -9   25.15    5.06
  10  -8  -9   15.50    3.86
  10  -8  -9   22.27    4.62
  10   8  -8   25.60    5.10
  10  -8  -8   25.31    5.17
  10  -8  -8   19.87    4.99
  10   8  -7    1.62    1.17
 -10   8  -7    2.53    2.97
  10  -8  -7    7.21    3.04
  10  -8  -7    4.45    1.78
  10   8  -6   28.57    5.13
 -10   8  -6   18.06    4.26
  10  -8  -6   25.78    5.34
  10  -8  -6   26.09    5.10
  10   8  -5   51.41    6.55
 -10   8  -5   30.72    5.49
  10  -8  -5   29.10    5.57
  10  -8  -5   43.27    6.31
  10   8  -4   31.72    5.07
 -10   8  -4   29.22    5.27
  10  -8  -4   42.19    6.48
  10  -8  -4   37.36    5.84
  10  -8  -3    4.98    2.54
  10   8  -3    8.19    3.01
 -10   8  -3    9.13    2.13
  10  -8  -3    5.35    3.13
  10  -8  -2    8.13    2.31
  10   8  -2    6.13    2.28
  10   8  -2    5.35    2.51
 -10   8  -2    8.07    3.08
  10  -8  -2    7.34    2.58
  10  -8  -1   13.46    3.45
  10   8  -1   11.26    3.06
  10   8  -1    7.18    2.78
 -10   8  -1    7.12    2.94
  10  -8  -1   12.55    4.34
  10  -8   0   13.43    3.59
  10   8   0   22.01    4.71
  10   8   0   20.00    4.33
 -10   8   0   15.55    3.75
  10  -8   0   16.94    4.21
  10  -8   1   13.51    3.52
  10   8   1   12.31    3.88
  10   8   1    4.08    1.19
 -10   8   1   10.84    3.42
  10  -8   1    7.43    3.16
  10  -8   2    8.85    3.43
  10   8   2    8.95    2.69
  10   8   2    6.02    2.24
 -10   8   2    2.61    1.61
  10  -8   2    8.12    3.16
  10  -8   3   10.39    3.21
  10   8   3   11.39    3.09
  10   8   3    9.51    3.17
 -10   8   3    7.34    2.39
  10  -8   3   10.57    3.24
  10   8   4   37.31    5.76
  10   8   4   30.91    5.47
 -10   8   4   29.26    5.23
  10  -8   4   23.38    4.84
  10  -8   4   40.01    5.95
  10   8   5   53.44    6.66
  10   8   5   50.80    6.61
  10  -8   5   34.10    6.22
  10  -8   5   33.36    5.70
  10   8   6   35.68    5.49
  10   8   6   37.14    5.74
  10  -8   6   24.20    5.07
  10  -8   6   31.57    5.69
  10  -8   7    4.24    2.54
  10   8   7    5.19    2.25
  10   8   7    8.33    3.16
  10  -8   7    3.88    2.51
  10  -8   8   21.96    4.86
  10   8   8   29.87    5.32
  10   8   8   27.51    4.85
  10  -8   9   13.66    3.86
  10   8   9   17.31    4.05
  10   8   9   19.19    4.06
  10  -8  10    4.20    2.53
  10   8  10   11.17    3.71
  10   8  10    5.60    3.19
  10  -8  11    7.14    2.37
  10   8  11   10.19    2.98
  10   8  11    6.92    2.90
  10  -8  12    4.42    1.68
  10   8  12    5.87    3.06
  10   8  12    6.78    2.35
  10  -8  13    5.09    1.75
  10   8  13    6.91    3.55
  10   8  13    4.52    2.83
 -10   8  13    7.08    2.83
  10   8  14   16.56    4.48
  10   8  14   15.99    3.96
 -10   8  14    8.48    2.94
  10   8  15   20.06    5.01
  10   8  15   13.53    3.70
 -10   8  15   15.54    4.00
  10   8  16    3.89    2.30
  10   8  16    2.01    0.98
 -10   8  16    1.46    1.83
  10   8  17    1.17    1.24
 -10   8  17    0.35    0.99
  10   9 -13    0.94    2.53
  10  -9 -13    3.00    1.93
  10  -9 -13    1.10    1.31
  10   9 -12    3.76    3.22
  10  -9 -12    3.31    3.14
  10  -9 -12   -0.79    1.39
  10   9 -11    5.36    2.31
  10  -9 -11    5.68    3.17
  10  -9 -11   -0.85    1.65
  10   9 -10    4.93    2.98
  10  -9 -10    2.58    2.27
  10   9  -9    1.05    1.85
  10  -9  -9   -0.40    1.73
  10  -9  -9    3.98    2.47
  10   9  -8    0.94    2.18
  10  -9  -8    6.96    3.04
  10  -9  -8    2.74    2.46
  10   9  -7    4.00    1.48
  10  -9  -7    0.76    2.10
  10  -9  -7   -0.02    1.32
  10   9  -6   -1.45    2.20
  10  -9  -6    2.72    2.83
  10  -9  -6    4.08    2.17
  10   9  -5   -0.34    1.23
 -10   9  -5    0.78    1.49
  10  -9  -5   -0.43    1.87
  10  -9  -5    4.62    2.64
  10   9  -4    4.97    2.35
 -10   9  -4   10.84    3.83
  10  -9  -4    2.12    2.50
  10  -9  -4    4.18    2.75
  10   9  -3    5.91    2.41
 -10   9  -3    6.14    2.84
  10  -9  -3    8.02    3.38
  10  -9  -3    4.82    2.28
  10   9  -2    1.07    2.20
 -10   9  -2    0.47    1.05
  10  -9  -2    2.31    2.08
  10  -9  -2   -1.35    1.63
  10   9  -1    4.75    1.19
 -10   9  -1    3.56    1.26
  10  -9  -1    6.82    3.08
  10  -9  -1    5.10    3.01
  10   9   0    8.94    3.18
  10   9   0   10.00    2.68
 -10   9   0    9.19    3.08
  10  -9   0    8.05    3.56
  10  -9   0    8.53    3.61
  10   9   1    9.54    3.46
  10   9   1    8.17    3.13
 -10   9   1   -0.03    1.77
  10  -9   1    7.17    3.65
  10  -9   1    1.00    1.89
  10  -9   2    0.69    1.23
  10   9   2    3.16    2.21
  10   9   2   -0.74    1.17
 -10   9   2   -0.29    2.34
  10  -9   3    2.56    1.70
  10   9   3    9.49    3.28
  10   9   3    5.02    2.26
 -10   9   3    3.20    1.84
  10  -9   4    5.14    2.22
  10   9   4    0.22    1.29
  10   9   4    1.29    1.54
 -10   9   4    1.71    1.88
  10  -9   5   -1.77    1.99
  10   9   5    0.51    1.13
  10   9   5    2.20    2.53
 -10   9   5   -0.03    1.51
  10  -9   6    1.95    1.63
  10   9   6    1.71    1.95
  10   9   6    3.52    2.80
 -10   9   6    1.44    1.26
  10  -9   7   -1.27    1.56
  10   9   7    0.50    1.48
 -10   9   7    0.24    1.09
  10  -9   8    4.83    2.42
  10   9   8    4.98    2.96
  10   9   8    5.21    2.82
 -10   9   8    3.22    2.30
  10  -9   9    3.54    2.78
  10   9   9    2.17    1.63
  10   9   9   -0.61    1.11
 -10   9   9    2.29    2.29
  10  -9  10    1.44    2.08
  10   9  10    0.89    2.25
  10   9  10    1.51    1.66
 -10   9  10    4.75    2.89
  10   9  11   -0.04    1.56
  10   9  11    3.75    2.72
 -10   9  11    2.43    1.01
  10  -9  12    1.05    2.11
  10   9  12    1.23    1.25
  10   9  12   -0.16    1.34
 -10   9  12    1.69    1.67
  10   9  13    0.93    1.41
  10   9  13    2.27    2.13
 -10   9  13    2.53    2.47
  10  10  -6    2.76    1.68
  10 -10  -6    8.47    2.75
  10  10  -5   11.70    4.11
 -10  10  -5   16.35    5.72
  10 -10  -5    4.14    3.05
  10  10  -4    4.57    1.99
 -10  10  -4    2.08    1.55
  10 -10  -4    4.71    2.52
  10  10  -3    6.36    2.50
 -10  10  -3    6.11    2.73
  10 -10  -3    0.81    1.12
  10  10  -2    8.88    3.44
 -10  10  -2    8.20    3.88
  10 -10  -2    2.91    1.99
  10  10  -1   -1.38    1.78
 -10  10  -1    2.96    3.03
  10 -10  -1    2.89    1.85
  10  10   0    3.31    2.63
 -10  10   0   -2.16    2.40
  10 -10   0   -0.66    1.38
  10  10   1   -1.13    1.92
  10  10   1   -2.62    1.70
  10 -10   1    2.64    3.01
  10  10   2    0.51    1.90
  10  10   2    7.57    2.76
 -10  10   2    2.09    1.71
  10 -10   2    4.24    2.75
  10  10   3    3.71    2.45
  10  10   3    2.67    2.26
 -10  10   3   -0.71    1.13
  10 -10   3    4.00    3.47
  10  10   4    5.27    2.26
  10  10   4    8.80    2.77
 -10  10   4    8.98    3.11
  10 -10   4    9.56    3.40
  10  10   5    2.90    2.23
  10  10   5    4.82    2.57
 -10  10   5    8.04    3.65
  10 -10   5    8.27    3.06
  10  10   6    6.64    3.25
  10  10   6   11.53    3.83
  10 -10   6   12.64    3.85
  11   0 -24   -0.85    1.70
  11   0 -23   -1.17    1.97
  11   0 -22   -2.24    2.18
  11   0 -21    0.70    1.52
  11   0 -20    1.18    1.81
  11   0 -19    0.50    2.13
  11   0 -18   -0.32    1.22
  11   0 -17   -0.20    1.31
  11   0 -16    0.14    1.24
  11   0 -15    2.68    2.12
  11   0 -14    0.62    1.82
  11   0 -13   -0.67    1.30
  11   0 -12   -0.07    1.04
  11   0 -12   -0.52    1.27
  11   0 -11    0.46    1.20
  11   0 -11   -0.22    1.82
  11   0 -10   -0.09    0.81
  11   0 -10   -0.90    1.19
  11   0  -9    0.72    1.16
  11   0  -9    0.26    1.07
  11   0  -8    1.21    0.99
  11   0  -8   -0.08    1.07
  11   0  -7   -0.48    1.37
  11   0  -7    0.34    1.53
  11   0  -6    0.92    1.45
  11   0  -6    0.59    1.82
  11   0  -6   -0.37    1.12
  11   0  -5   -0.40    1.03
  11   0  -5    0.87    1.62
  11   0  -5    0.52    0.64
  11   0  -4    1.56    1.23
  11   0  -4    0.36    1.39
  11   0  -4   -0.03    1.14
  11   0  -3    0.02    1.26
  11   0  -3   -0.13    1.03
  11   0  -3   -0.54    1.07
  11   0  -2   -0.04    1.26
  11   0  -2    0.57    0.91
  11   0  -2    0.06    0.66
  11   0  -1   -1.16    1.39
  11   0  -1   -0.49    0.85
  11   0  -1    1.90    1.40
  11   0   0    0.89    1.38
  11   0   0    0.01    0.94
  11   0   0   -0.57    1.43
  11   0   1    0.17    1.97
  11   0   1   -0.43    0.70
  11   0   1    1.30    1.24
  11   0   2   -0.53    1.43
  11   0   2    1.03    1.43
  11   0   3   -0.19    1.13
  11   0   3    1.20    1.48
  11   0   4   -0.34    0.99
  11   0   4    0.59    1.02
  11   0   5   -0.26    1.42
  11   0   5    1.31    1.48
  11   0   6   -0.61    1.02
  11   0   6    0.49    0.96
  11   0   7   -0.38    1.17
  11   0   7   -0.44    1.39
  11   0   8    0.86    0.84
  11   0   8   -0.80    0.54
  11   0   9    0.53    0.87
  11   0   9    0.24    1.45
  11   0  10    0.14    0.80
  11   0  10   -0.09    1.10
  11   0  11    0.51    0.88
  11   0  11   -0.81    0.89
  11   0  12    0.36    1.16
  11   0  12    3.39    1.92
  11   0  13    0.16    1.38
  11   0  14   -0.28    1.42
  11   0  15    0.45    0.87
  11   0  16    0.53    1.69
  11   0  17   -0.51    1.30
  11   0  18   -0.38    0.92
  11   0  19   -0.37    0.86
  11   0  20   -0.35    1.01
  11   0  21    0.07    1.32
  11   0  22    1.13    1.86
  11   0  23   -1.05    1.39
  11   0  24    2.10    2.16
  11  -1 -26    0.59    1.44
  11  -1 -25   10.78    3.14
  11  -1 -24   30.41    5.64
  11  -1 -23    6.85    2.66
  11  -1 -22   -0.11    2.40
  11  -1 -21    4.79    2.07
  11   1 -20   10.97    4.03
  11  -1 -20    4.01    1.12
  11   1 -19   33.86    5.69
  11  -1 -19   24.28    4.77
  11   1 -18  111.18    9.48
  11  -1 -18  117.51    9.84
  11   1 -17   22.85    4.29
  11  -1 -17   14.27    3.71
  11   1 -16    1.57    2.05
  11  -1 -16   -1.08    2.07
  11   1 -15   29.23    4.66
  11  -1 -15   28.59    4.75
  11   1 -14   81.41    7.85
  11  -1 -14  108.32    9.39
  11   1 -13  235.97   13.03
  11  -1 -13  246.85   13.45
  11  -1 -13  228.25   12.55
  11   1 -12  270.15   13.94
  11  -1 -12  259.74   14.19
  11   1 -12  259.37   13.60
  11  -1 -12  256.64   13.11
  11   1 -11   13.26    3.00
  11  -1 -11   12.09    3.03
  11   1 -11   15.78    3.72
  11  -1 -11   10.28    2.89
  11   1 -11    9.93    3.07
  11  -1 -10  113.21    8.56
  11   1 -10  102.52    7.54
  11  -1 -10  107.67    8.75
  11   1 -10  107.56    8.45
  11   1 -10  118.17    8.88
  11  -1  -9  118.90    8.87
  11   1  -9  119.45    8.28
  11  -1  -9  117.72    9.27
  11   1  -9  127.19    9.11
  11   1  -9  114.30    8.83
  11  -1  -8   94.32    7.77
  11   1  -8  112.36    8.11
  11  -1  -8  118.24    9.08
  11   1  -8  124.25    9.05
  11   1  -8  139.72    9.41
  11  -1  -7  125.50    8.93
  11   1  -7  150.79    9.18
  11  -1  -7  146.57   10.26
  11   1  -7  142.14    9.66
  11   1  -7  141.92    9.40
  11  -1  -6   76.98    6.98
  11   1  -6   83.35    6.87
  11  -1  -6   87.12    7.56
  11   1  -6   83.36    7.40
  11   1  -6   91.12    7.42
  11  -1  -5   26.24    4.08
  11   1  -5   26.62    3.81
  11  -1  -5   29.93    4.41
  11   1  -5   24.99    4.14
  11   1  -5   29.49    4.31
  11  -1  -4   18.10    3.25
  11  -1  -4   23.85    4.17
  11   1  -4   13.18    2.98
  11   1  -4   12.21    2.80
  11   1  -4   18.67    3.14
  11  -1  -3  178.58   10.36
  11   1  -3  188.59   10.42
  11  -1  -3  186.99   11.22
  11   1  -3  161.64    9.98
  11   1  -3  208.23   11.19
  11  -1  -2  410.41   15.83
  11   1  -2  420.41   15.40
  11  -1  -2  415.97   16.71
  11   1  -2  416.26   16.06
  11   1  -2  447.28   16.37
  11  -1  -1   27.48    4.04
  11   1  -1   30.57    4.11
  11  -1  -1   36.32    4.65
  11   1  -1   23.79    3.84
  11   1  -1   24.63    3.82
  11   1   0    1.94    1.46
  11  -1   0    3.77    1.38
  11  -1   0    0.63    1.21
  11   1   0    0.31    1.40
  11   1   0    0.71    0.70
  11  -1   1   36.31    4.72
  11   1   1   27.03    3.83
  11  -1   1   30.32    4.44
  11   1   1   24.29    3.71
  11  -1   2  422.19   16.30
  11   1   2  421.14   15.59
  11  -1   2  463.33   17.48
  11   1   2  424.02   15.75
  11  -1   3  170.62   10.53
  11   1   3  177.52   10.27
  11  -1   3  172.19   10.53
  11   1   3  145.04    9.20
  11   1   4   15.16    2.93
  11   1   4   10.12    2.11
  11  -1   5   23.27    4.37
  11   1   5   14.59    3.17
  11   1   5   21.31    3.44
  11  -1   6   57.73    6.15
  11   1   6   75.05    6.84
  11   1   6   81.45    6.76
  11  -1   7  128.90    9.19
  11   1   7  141.34    9.44
  11   1   7  144.60    9.15
  11  -1   8  123.23    9.07
  11   1   8  127.59    9.02
  11   1   8  107.74    7.87
  11  -1   9  127.58    9.48
  11   1   9  120.68    9.12
  11   1   9  112.99    7.95
  11  -1  10  112.10    8.83
  11   1  10  109.32    8.67
  11   1  10  107.77    7.86
  11   1  11   14.12    3.48
  11  -1  11   13.82    3.42
  11   1  11    7.29    2.42
  11  -1  12  258.77   13.85
  11   1  12  254.13   13.52
  11   1  12  248.67   11.86
  11  -1  13  269.48   14.17
  11   1  13  243.26   13.24
  11   1  13  245.08   11.73
  11  -1  14   91.37    8.49
  11   1  14  100.91    8.89
  11  -1  15   40.33    5.81
  11   1  15   25.38    4.69
  11   1  16    0.20    1.54
  11  -1  16    0.92    1.74
  11   1  17   14.70    3.45
  11  -1  17   23.11    4.03
  11  -1  18  111.99    9.79
  11   1  18  119.30    9.87
  11   1  19   22.33    4.26
  11  -1  19   31.69    5.20
  11   1  20    7.00    2.74
  11  -1  20   12.82    3.59
  11   1  21    6.37    2.56
  11  -1  21    9.82    3.69
  11   1  22    1.02    1.23
  11  -1  22   -2.17    1.11
  11   1  23    5.42    2.05
  11  -1  23    5.51    2.62
  11   1  24   30.82    5.73
  11   1  25    9.89    3.66
  11  -2 -26    6.78    3.16
  11  -2 -25    3.23    1.43
  11  -2 -24    2.52    2.13
  11  -2 -23   14.58    3.85
  11  -2 -22    6.16    2.98
  11  -2 -21    0.80    1.21
  11  -2 -20    2.35    1.79
  11  -2 -19    2.42    2.34
  11  -2 -18    0.73    2.03
  11  -2 -17   -1.15    1.71
  11  -2 -16    4.04    1.14
  11   2 -16    1.60    0.89
  11  -2 -15    3.60    2.51
  11   2 -15   -0.57    0.76
  11  -2 -15   -0.27    1.23
  11   2 -15    1.61    1.90
  11  -2 -14    3.79    2.19
  11   2 -14    8.63    2.51
  11  -2 -14    7.32    3.02
  11   2 -14    5.12    2.27
  11  -2 -13    6.41    2.59
  11   2 -13    8.44    2.73
  11  -2 -13    7.07    2.52
  11   2 -13    8.58    2.74
  11  -2 -12    0.61    1.68
  11   2 -12    2.41    1.51
  11  -2 -12    1.64    0.95
  11   2 -12    1.86    1.80
  11  -2 -11    2.88    1.68
  11   2 -11    0.81    0.76
  11  -2 -11    2.79    1.64
  11   2 -11    0.93    0.87
  11  -2 -10    6.11    1.95
  11  -2 -10    1.73    1.87
  11   2 -10    1.90    0.94
  11   2 -10    1.78    1.06
  11  -2  -9    2.02    1.39
  11   2  -9    3.12    1.61
  11  -2  -9    2.52    1.23
  11   2  -9    1.66    1.21
  11   2  -9   -0.95    0.81
  11  -2  -8   41.85    5.39
  11   2  -8   36.03    4.33
  11  -2  -8   36.35    5.33
  11   2  -8   30.46    4.47
  11   2  -8   38.48    4.81
  11  -2  -7    9.71    2.64
  11  -2  -7   14.30    3.61
  11   2  -7    8.88    2.33
  11   2  -7   16.16    3.19
  11   2  -7   15.32    3.16
  11  -2  -6    1.28    1.59
  11  -2  -6    2.79    1.93
  11   2  -6    0.11    1.24
  11   2  -6    3.05    1.79
  11   2  -6    3.97    1.50
  11  -2  -5   16.78    3.38
  11  -2  -5   12.00    2.99
  11   2  -5   11.83    2.49
  11   2  -5   10.98    2.66
  11   2  -5   18.72    3.53
  11   2  -4    0.76    0.96
  11   2  -4    0.77    0.83
  11  -2  -4    2.40    0.97
  11  -2  -4    3.11    1.02
  11   2  -4    1.94    1.41
  11  -2  -3  207.17   11.73
  11   2  -3  198.85   10.58
  11  -2  -3  196.06   11.86
  11   2  -3  204.61   11.14
  11   2  -3  210.64   11.58
  11   2  -2    8.08    2.54
  11   2  -2    5.28    1.45
  11  -2  -2    4.92    1.82
  11  -2  -2    9.91    1.99
  11   2  -2    3.94    1.56
  11  -2  -1  128.49    9.07
  11  -2  -1  127.33    9.61
  11   2  -1  142.27    8.94
  11   2  -1  135.59    9.01
  11   2  -1  132.27    9.02
  11   2   0    0.70    1.41
  11   2   0   -0.33    0.77
  11  -2   0   -0.49    0.78
  11  -2   0   -0.47    0.92
  11   2   0   -0.08    1.37
  11  -2   1  147.93    9.65
  11  -2   1  130.61    9.43
  11   2   1  136.47    8.96
  11   2   1  138.01    9.33
  11   2   2   11.73    2.74
  11   2   2    5.42    1.88
  11  -2   2    8.71    2.39
  11  -2   2    7.84    2.61
  11  -2   3  188.21   11.16
  11  -2   3  212.27   12.26
  11   2   3  192.96   10.84
  11   2   3  213.41   11.32
  11   2   4    2.33    1.53
  11   2   4    2.48    1.38
  11  -2   4    2.45    1.63
  11  -2   4   -0.08    1.89
  11   2   5   14.92    3.21
  11   2   5   13.33    2.86
  11  -2   5   14.83    3.06
  11   2   6    4.78    2.36
  11   2   6    4.63    2.19
  11  -2   6    1.02    1.31
  11  -2   7   13.02    2.86
  11   2   7   20.33    3.64
  11   2   7   16.19    3.47
  11  -2   8   33.38    5.04
  11   2   8   36.91    4.83
  11   2   8   36.22    5.05
  11   2   9    2.41    1.18
  11   2   9    1.41    1.26
  11  -2   9    0.23    1.33
  11   2  10    3.42    0.75
  11   2  10    3.02    1.68
  11  -2  10    3.35    1.56
  11   2  11    2.41    1.13
  11   2  11    1.94    1.90
  11  -2  11    2.12    2.23
  11   2  12   -1.09    1.55
  11   2  12    0.07    0.99
  11  -2  12    1.44    1.90
  11   2  13    9.54    2.81
  11   2  13   10.22    2.90
  11  -2  13   11.80    3.44
  11   2  14    7.59    2.49
  11  -2  14    2.27    1.09
  11   2  15    0.26    0.94
  11  -2  15    0.88    1.23
  11   2  16   -1.14    1.64
  11  -2  16    0.14    1.82
  11   2  17    2.43    1.05
  11  -2  17   -0.41    1.21
  11   2  18    0.39    1.54
  11  -2  18    0.28    1.12
  11   2  19    2.14    1.89
  11  -2  19    0.31    2.13
  11   2  20    5.57    2.83
  11  -2  20    9.56    3.75
  11   2  21    2.32    1.48
  11  -2  21   -1.16    2.11
  11   2  22   -0.91    1.46
  11  -2  22    4.87    2.67
  11   2  23   12.10    4.14
  11   2  24    4.41    2.36
  11   2  25   -0.30    1.94
  11   2  26    1.67    1.93
  11  -3 -25   24.37    4.72
  11  -3 -24   23.97    5.24
  11  -3 -23   24.14    4.69
  11  -3 -22    8.24    3.24
  11  -3 -21    4.91    2.41
  11  -3 -20    9.60    3.39
  11  -3 -19   16.16    4.34
  11   3 -19    9.49    3.01
  11  -3 -18   54.91    7.03
  11   3 -18   54.18    6.80
  11  -3 -17   30.34    5.32
  11   3 -17   24.21    4.78
  11  -3 -16    1.33    1.31
  11   3 -16    0.43    0.98
  11  -3 -16    0.66    1.32
  11  -3 -15   12.88    3.58
  11  -3 -15   10.11    3.08
  11   3 -15   11.84    3.68
  11  -3 -14   47.02    6.38
  11  -3 -14   35.50    5.18
  11   3 -14   38.60    5.46
  11  -3 -13   53.29    6.37
  11  -3 -13   53.33    6.43
  11   3 -13   51.09    6.28
  11  -3 -12   63.50    6.95
  11  -3 -12   54.41    6.60
  11   3 -12   58.18    6.71
  11  -3 -11   81.45    8.21
  11   3 -11   71.64    7.44
  11  -3 -11   86.36    7.87
  11  -3 -10    9.72    2.83
  11  -3 -10   11.20    3.37
  11   3 -10   15.93    3.52
  11  -3  -9  367.51   16.93
  11   3  -9  394.94   16.58
  11  -3  -9  404.56   17.40
  11   3  -8  109.90    7.81
  11  -3  -8  120.05    9.86
  11   3  -8   88.82    7.50
  11   3  -8  100.37    8.21
  11  -3  -8  112.30    8.95
  11  -3  -7   49.84    6.02
  11   3  -7   46.95    5.07
  11  -3  -7   45.04    5.78
  11   3  -7   45.30    5.02
  11   3  -7   51.85    5.91
  11  -3  -6   28.62    4.51
  11   3  -6   23.34    3.58
  11  -3  -6   20.78    4.21
  11   3  -6   18.26    3.46
  11   3  -6   26.94    4.36
  11  -3  -5  237.53   12.76
  11  -3  -5  240.72   13.35
  11   3  -5  248.13   12.14
  11   3  -5  240.47   11.56
  11   3  -5  218.71   12.31
  11  -3  -4  111.79    9.01
  11  -3  -4  111.59    9.28
  11   3  -4  113.19    8.19
  11   3  -4  118.03    8.17
  11   3  -4  121.49    8.95
  11  -3  -3  873.23   24.78
  11  -3  -3  893.98   25.82
  11   3  -3  907.93   23.21
  11   3  -3  846.50   22.27
  11   3  -3  932.54   24.54
  11  -3  -2  150.26   10.27
  11  -3  -2  149.66   10.47
  11   3  -2  148.40    9.37
  11   3  -2  155.89    9.63
  11   3  -2  165.08   10.15
  11  -3  -1  854.56   24.44
  11  -3  -1  773.43   23.84
  11   3  -1  790.87   21.98
  11   3  -1  844.62   22.40
  11   3  -1  791.63   22.66
  11   3   0   18.96    3.91
  11  -3   0   23.73    4.32
  11  -3   0   21.03    4.56
  11   3   0   16.43    3.41
  11  -3   1  773.61   23.30
  11  -3   1  816.81   24.42
  11   3   1  818.51   23.06
  11   3   1  836.65   22.82
  11  -3   2  163.82   10.63
  11  -3   2  145.96   10.21
  11   3   2  137.98    9.44
  11   3   2  149.41    9.62
  11   3   3  944.63   24.62
  11  -3   3  961.43   25.80
  11  -3   3  944.69   25.84
  11   3   3  919.52   24.59
  11   3   4  113.77    8.55
  11  -3   4  111.86    8.97
  11  -3   4  113.64    9.02
  11   3   4  127.45    8.90
  11   3   5  250.91   12.83
  11  -3   5  249.87   13.29
  11  -3   5  261.80   13.89
  11   3   5  233.35   12.22
  11   3   6   18.46    3.87
  11  -3   6   27.85    4.72
  11  -3   6   20.32    4.13
  11   3   6   25.63    4.47
  11   3   7   48.95    5.82
  11  -3   7   40.38    5.57
  11   3   7   44.76    5.41
  11   3   8  108.49    8.88
  11  -3   8   98.35    8.38
  11   3   8  110.80    8.41
  11   3   9  376.65   16.35
  11  -3   9  361.29   16.42
  11   3  10   10.87    2.39
  11   3  10   14.45    3.20
  11  -3  10   14.86    3.46
  11   3  11   62.58    6.80
  11  -3  11   75.82    7.58
  11   3  11   70.43    7.14
  11   3  12   60.22    6.72
  11  -3  12   47.21    6.01
  11   3  12   47.60    5.83
  11   3  13   47.16    5.88
  11  -3  13   60.68    6.92
  11   3  13   43.93    5.66
  11   3  14   34.69    5.16
  11  -3  14   52.72    6.57
  11   3  14   50.52    5.99
  11   3  15    8.22    2.75
  11  -3  15   13.51    3.36
  11   3  16   -0.18    1.23
  11  -3  16   -0.56    1.87
  11   3  17   35.36    5.36
  11  -3  17   36.62    6.10
  11   3  18   57.15    7.10
  11  -3  18   57.06    7.21
  11   3  19   16.89    4.08
  11  -3  19   14.76    3.58
  11   3  20   12.72    3.87
  11  -3  20    9.57    3.80
  11   3  21    2.80    2.50
  11  -3  21    1.90    2.44
  11   3  22    6.52    3.31
  11   3  23   33.00    5.88
  11   3  24   26.18    5.29
  11   3  25   27.89    5.76
  11  -4 -24    4.00    1.93
  11  -4 -23    4.62    1.54
  11  -4 -22    6.52    3.06
  11  -4 -21    9.91    2.84
  11  -4 -20    1.41    1.48
  11  -4 -19    3.57    2.14
  11   4 -19    3.40    2.36
  11  -4 -18    0.13    0.87
  11   4 -18    1.39    1.41
  11  -4 -17    1.98    1.81
  11  -4 -17   -0.62    2.09
  11   4 -17    2.35    2.17
  11  -4 -16    3.54    2.38
  11  -4 -16    1.59    1.25
  11   4 -16    0.60    1.12
  11  -4 -15    5.42    2.46
  11   4 -15    5.79    2.65
  11  -4 -15    2.65    1.98
  11  -4 -14    1.89    1.83
  11  -4 -14   -0.83    1.94
  11   4 -14    0.10    1.48
  11  -4 -13   -0.16    0.81
  11  -4 -13    2.66    2.63
  11   4 -13    0.77    1.14
  11  -4 -12   15.32    3.36
  11  -4 -12   21.78    4.19
  11   4 -12   26.46    4.57
  11   4 -11    5.65    2.27
  11  -4 -11    8.44    2.75
  11  -4 -11    6.64    2.58
  11  -4 -10   16.46    3.75
  11  -4 -10   19.81    4.40
  11   4  -9    0.75    1.11
  11  -4  -9    2.64    1.95
  11  -4  -8   61.31    6.94
  11   4  -8   57.29    6.22
  11  -4  -8   51.58    6.42
  11   4  -7    7.60    2.72
  11   4  -7    5.71    2.35
  11  -4  -7    7.86    2.13
  11  -4  -7    3.82    1.15
  11   4  -6    1.73    1.35
  11  -4  -6    3.08    2.16
  11   4  -6    2.31    1.35
  11  -4  -6    4.73    2.21
  11   4  -5    2.83    1.92
  11  -4  -5    2.36    1.72
  11   4  -5    1.92    1.77
  11  -4  -5    2.25    1.09
  11  -4  -4  365.20   16.47
  11  -4  -4  379.56   17.53
  11   4  -4  365.89   14.99
  11   4  -4  386.78   16.47
  11  -4  -3   29.94    4.81
  11  -4  -3   49.95    6.23
  11   4  -3   42.94    5.31
  11   4  -3   30.89    4.40
  11  -4  -2   89.16    8.24
  11  -4  -2   86.21    8.31
  11   4  -2   91.32    7.54
  11   4  -2   95.56    7.99
  11   4  -2   79.73    7.16
  11   4  -1  118.43    8.67
  11  -4  -1  130.11    9.78
  11  -4  -1  122.01    9.81
  11   4  -1  117.23    8.39
  11   4  -1  129.56    9.55
  11   4   0    0.20    0.84
  11  -4   0   -0.13    1.72
  11   4   0    0.90    1.01
  11  -4   0   -0.26    1.83
  11   4   1  137.03    9.43
  11  -4   1  130.61    9.89
  11  -4   1  118.96    9.51
  11   4   1  127.41    9.35
  11  -4   2   79.27    7.58
  11   4   2   76.46    7.06
  11  -4   2  101.50    8.93
  11   4   2   92.66    7.91
  11   4   3   31.71    4.49
  11  -4   3   41.74    5.47
  11  -4   3   33.05    4.87
  11   4   3   32.76    4.82
  11   4   4  359.40   15.74
  11  -4   4  378.76   16.64
  11  -4   4  382.65   17.13
  11   4   4  360.96   15.80
  11   4   5   -0.24    1.52
  11  -4   5    2.56    2.14
  11   4   5    2.66    1.50
  11  -4   5    2.80    1.67
  11   4   6    4.97    2.00
  11  -4   6    4.82    2.04
  11   4   6    4.61    2.13
  11  -4   6    3.92    1.78
  11   4   7   10.62    3.14
  11  -4   7   10.47    3.07
  11   4   7    5.15    2.68
  11  -4   7    6.85    2.55
  11   4   8   57.67    6.31
  11  -4   8   52.95    6.33
  11  -4   8   43.06    5.97
  11   4   8   58.34    6.22
  11   4   9    3.71    2.24
  11  -4   9    1.92    2.19
  11   4   9    4.54    2.43
  11  -4   9    2.82    2.18
  11   4  10   24.55    4.66
  11  -4  10   23.06    4.13
  11   4  10   30.34    4.67
  11   4  11   11.03    2.99
  11  -4  11    6.53    1.95
  11   4  11    5.89    2.20
  11   4  12   18.84    3.99
  11  -4  12   19.55    4.31
  11   4  12   15.78    3.72
  11   4  13    0.58    1.33
  11  -4  13   -1.80    2.16
  11   4  13    1.92    1.59
  11   4  14    0.36    1.05
  11  -4  14    1.41    1.54
  11   4  14   -0.96    0.96
  11   4  15    1.25    1.25
  11  -4  15    3.27    1.82
  11   4  15    4.75    2.53
  11  -4  16   -0.66    1.42
  11   4  16    2.04    2.03
  11  -4  17    1.57    1.57
  11   4  17   -0.83    1.77
  11  -4  18    0.51    1.61
  11   4  18    0.87    1.98
  11  -4  19    1.67    1.12
  11   4  19    3.69    2.46
  11   4  20    1.35    1.89
  11   4  21    5.27    1.51
  11   4  22    7.23    1.86
  11   4  23    3.14    2.41
  11   4  24    3.69    1.96
  11  -5 -22   14.99    3.54
  11  -5 -21   -0.83    1.78
  11  -5 -20   18.01    4.27
  11  -5 -19   10.29    3.22
  11  -5 -18   18.91    4.11
  11  -5 -18   16.23    4.18
  11   5 -18   19.73    4.90
  11  -5 -17    9.36    3.26
  11  -5 -17    5.95    2.80
  11   5 -17   10.34    3.36
  11  -5 -16    2.91    2.64
  11  -5 -16    1.64    1.57
  11   5 -16    2.43    2.23
  11   5 -15   14.57    4.00
  11  -5 -15    7.80    3.05
  11  -5 -15    9.17    3.07
  11   5 -14   25.23    4.60
  11  -5 -14   32.89    5.35
  11  -5 -14   31.86    5.45
  11  -5 -13   28.64    5.10
  11  -5 -13   30.51    5.18
  11   5 -13   33.59    4.90
  11  -5 -12    8.43    2.46
  11   5 -12    8.68    2.66
  11  -5 -12    5.73    2.67
  11  -5 -11    0.43    0.89
  11   5 -11   -1.53    1.98
  11   5 -10    0.61    1.69
  11  -5 -10    1.88    2.35
  11  -5 -10   -0.75    1.41
  11  -5  -9   47.93    6.50
  11  -5  -9   43.95    6.16
  11   5  -9   43.85    5.70
  11  -5  -8  132.02   10.59
  11  -5  -8  134.76   10.39
  11   5  -8  132.42   10.32
  11  -5  -7   25.41    5.25
  11  -5  -7   23.88    4.86
  11   5  -7   26.29    4.47
  11   5  -6   18.96    3.20
  11  -5  -6   15.83    3.70
  11  -5  -6   13.45    4.12
  11   5  -5    4.93    2.54
  11  -5  -5    0.57    1.73
  11   5  -5    3.02    1.99
  11  -5  -5    2.97    1.21
  11   5  -4  150.11    9.91
  11  -5  -4  145.83   11.10
  11  -5  -4  156.15   11.29
  11   5  -4  130.94   10.02
  11   5  -3   26.53    4.30
  11  -5  -3   33.24    5.14
  11  -5  -3   30.18    4.82
  11   5  -3   27.54    4.30
  11   5  -2   40.01    5.46
  11  -5  -2   51.03    6.72
  11  -5  -2   48.39    6.34
  11   5  -2   52.51    6.21
  11   5  -1   89.34    7.75
  11  -5  -1   94.40    8.85
  11  -5  -1   86.01    8.44
  11   5  -1   90.12    7.96
  11   5   0    0.57    1.67
  11  -5   0    1.22    1.02
  11   5   0    1.33    1.51
  11  -5   0    0.08    1.43
  11   5   1   86.00    8.16
  11  -5   1   81.98    7.90
  11   5   1   81.60    7.59
  11  -5   1   83.01    8.34
  11   5   2   48.24    6.25
  11  -5   2   46.59    5.93
  11   5   2   55.23    6.11
  11  -5   2   46.05    6.29
  11   5   3   29.60    4.68
  11  -5   3   27.56    4.71
  11   5   3   29.83    4.47
  11  -5   3   19.14    4.59
  11   5   4  146.14   10.46
  11  -5   4  153.91   10.97
  11   5   4  150.14   10.37
  11  -5   4  150.82   11.38
  11   5   5    3.00    1.55
  11  -5   5    2.74    0.96
  11  -5   5    0.94    1.87
  11   5   5    3.60    1.60
  11   5   6   18.16    3.18
  11  -5   6   14.38    3.28
  11  -5   6   18.14    3.92
  11   5   6   14.94    3.27
  11  -5   7   26.54    4.74
  11   5   7   23.36    4.42
  11   5   7   25.67    4.42
  11  -5   7   27.21    4.59
  11   5   8  119.84    9.73
  11  -5   8  137.75   10.83
  11   5   8  142.46   10.41
  11  -5   8  119.73   10.12
  11   5   9   36.23    5.28
  11  -5   9   34.12    5.48
  11   5   9   41.36    5.70
  11  -5   9   30.13    4.96
  11   5  10    1.34    1.87
  11  -5  10    2.84    2.84
  11  -5  10    0.26    1.59
  11   5  10   -0.38    1.21
  11   5  11    0.25    0.95
  11  -5  11   -0.68    1.58
  11  -5  11    0.25    1.32
  11   5  11    0.87    1.37
  11   5  12    7.00    2.78
  11  -5  12   10.62    2.84
  11  -5  12   12.18    3.58
  11   5  12    2.01    1.51
  11  -5  13   36.70    5.63
  11   5  13   35.45    5.01
  11   5  13   35.19    5.29
  11  -5  13   34.50    5.40
  11   5  14   29.70    5.05
  11   5  14   30.47    5.50
  11  -5  14   17.90    4.73
  11   5  15   19.48    4.41
  11  -5  15   12.89    3.29
  11  -5  16    0.54    1.44
  11   5  16    0.78    1.45
  11  -5  17    7.66    2.39
  11   5  17   12.83    2.88
  11   5  18   25.91    4.94
  11  -5  18    8.40    4.12
  11   5  19   11.37    3.48
  11   5  20    5.48    2.52
  11   5  21    1.45    1.16
  11   5  22   12.96    4.04
  11  -6 -21    2.79    1.50
  11  -6 -20    8.42    2.60
  11  -6 -19    1.17    1.10
  11  -6 -19    1.06    1.84
  11  -6 -18    0.11    1.09
  11  -6 -18   -0.20    1.19
  11   6 -17    1.13    1.85
  11  -6 -17    4.21    2.45
  11  -6 -17    0.08    1.51
  11   6 -16    3.53    1.93
  11  -6 -16   -1.02    1.38
  11  -6 -16   -1.12    2.00
  11   6 -15    4.39    2.37
  11  -6 -15    8.43    2.61
  11  -6 -15    2.23    2.58
  11   6 -14    4.08    1.76
  11  -6 -14    7.65    2.66
  11  -6 -14    3.86    1.92
  11   6 -13    6.95    2.54
  11  -6 -13    6.27    2.65
  11  -6 -13    9.10    3.33
  11   6 -12   -0.29    0.99
  11  -6 -12    1.11    1.68
  11  -6 -12    1.16    1.35
  11   6 -11    0.38    0.87
  11  -6 -11    2.27    2.30
  11  -6 -11    0.58    1.42
  11  -6 -10   22.96    4.62
  11   6 -10   29.43    4.82
  11  -6 -10   26.12    4.71
  11  -6  -9    5.34    2.68
  11   6  -9    4.89    2.10
  11  -6  -9    1.63    2.15
  11  -6  -8   14.18    3.49
  11   6  -8   18.02    4.11
  11  -6  -8   15.46    4.00
  11  -6  -7    2.53    2.08
  11   6  -7    4.37    2.16
  11  -6  -7    2.71    2.43
  11  -6  -6   18.21    4.19
  11   6  -6   13.18    3.48
  11  -6  -6   22.03    4.60
  11  -6  -5    7.61    2.42
  11   6  -5    6.40    2.46
  11  -6  -5    4.44    1.92
  11   6  -4    1.39    1.30
  11  -6  -4    3.84    2.38
  11   6  -4    1.76    1.77
  11  -6  -4    5.45    2.61
  11   6  -3    0.89    1.56
  11  -6  -3    3.36    2.00
  11  -6  -3    2.76    2.01
  11   6  -3    3.56    2.14
  11   6  -2   44.13    5.82
  11   6  -2   33.61    5.26
  11  -6  -2   36.72    5.63
  11  -6  -2   37.66    5.64
  11   6  -1    4.05    2.39
  11  -6  -1    4.62    2.78
  11  -6  -1    2.73    1.92
  11   6  -1   -0.44    1.42
  11   6   0    3.95    1.29
  11  -6   0    1.39    1.79
  11  -6   0    3.06    2.19
  11   6   0    2.29    1.07
  11   6   1    1.80    1.90
  11  -6   1    3.27    2.23
  11  -6   1    1.86    1.75
  11   6   1    2.48    1.65
  11   6   2   44.20    5.84
  11  -6   2   27.79    4.89
  11   6   2   38.65    5.69
  11  -6   2   40.22    6.26
  11  -6   3    1.54    1.12
  11  -6   3   -1.07    1.51
  11   6   3   -0.26    1.07
  11   6   4    4.28    2.49
  11   6   4    2.52    0.95
  11  -6   4    4.78    1.46
  11  -6   4    6.61    2.15
  11   6   5    4.61    2.94
  11   6   5    2.02    1.38
  11  -6   5    8.39    2.92
  11  -6   5    4.31    2.16
  11   6   6   21.27    4.14
  11   6   6   25.62    4.59
  11  -6   6   21.44    4.23
  11  -6   6   22.67    4.72
  11   6   7    5.17    2.36
  11   6   7    1.53    1.16
  11  -6   7    4.50    2.48
  11  -6   7   -0.33    1.13
  11   6   8   16.85    3.66
  11   6   8   10.74    3.20
  11  -6   8   13.36    3.30
  11  -6   8   13.98    3.91
  11   6   9    1.60    1.30
  11   6   9    0.97    1.60
  11  -6   9    1.49    1.40
  11  -6   9    2.62    1.63
  11   6  10   21.84    3.93
  11   6  10   19.64    4.42
  11  -6  10   25.77    4.51
  11  -6  10   24.16    4.82
  11   6  11   -0.80    1.45
  11   6  11    0.14    1.45
  11  -6  11    2.47    1.84
  11  -6  11    3.01    1.45
  11   6  12    3.09    1.31
  11   6  12    1.63    2.06
  11  -6  12   -0.31    1.12
  11  -6  12    1.12    1.09
  11   6  13   10.33    3.30
  11   6  13    4.93    2.98
  11  -6  13    7.43    3.41
  11  -6  13   10.68    3.04
  11   6  14   14.38    3.81
  11   6  14    4.17    2.39
  11  -6  14    8.73    3.22
  11  -6  14    6.46    3.36
  11   6  15    4.46    1.80
  11  -6  15    3.50    2.30
  11  -6  15    1.56    1.47
  11   6  15    1.11    1.73
  11  -6  16    0.72    1.44
  11  -6  16    2.56    2.48
  11   6  16    1.46    1.68
  11  -6  17   -2.35    2.89
  11  -6  17    4.98    3.54
  11   6  17    0.76    1.12
  11  -6  18    0.93    2.50
  11   6  18    0.17    1.87
  11   6  19    5.56    3.11
  11   6  20    8.04    3.14
  11   6  21   -0.53    2.00
  11  -7 -18   10.50    3.09
  11  -7 -18    9.94    3.60
  11   7 -17    2.87    1.82
  11  -7 -17   -0.14    1.20
  11  -7 -17    3.71    2.66
  11   7 -16   -1.80    2.10
  11  -7 -16    1.05    1.56
  11  -7 -16    2.89    1.38
  11   7 -15    2.83    2.16
  11  -7 -15    8.21    3.74
  11  -7 -15   10.08    3.68
  11   7 -14   28.49    5.15
  11  -7 -14   34.09    5.64
  11  -7 -14   17.88    4.01
  11   7 -13   30.96    5.20
  11  -7 -13   26.46    4.82
  11  -7 -13   26.28    4.88
  11   7 -12   10.17    3.12
  11  -7 -12    9.52    4.08
  11  -7 -12   11.18    3.68
  11   7 -11    4.97    2.23
  11  -7 -11    3.53    2.19
  11  -7 -11    7.89    3.52
  11   7 -10    8.10    3.39
  11  -7 -10    2.08    2.20
  11  -7 -10    2.28    2.53
  11   7  -9   16.50    3.75
  11  -7  -9   25.59    4.77
  11  -7  -9   22.82    4.70
  11  -7  -8   46.55    6.51
  11  -7  -8   51.75    6.92
  11   7  -8   46.49    6.45
 -11   7  -7   70.19    8.27
  11  -7  -7   54.56    7.22
  11  -7  -7   64.27    7.68
  11   7  -7   42.38    6.31
  11  -7  -6   15.52    4.02
  11   7  -6   19.20    4.41
 -11   7  -6   14.67    3.40
  11  -7  -6   18.14    4.68
  11  -7  -5    1.00    1.43
  11   7  -5    1.08    1.77
  11  -7  -5   -0.65    1.54
  11   7  -4   25.11    4.89
  11  -7  -4   26.74    5.34
  11  -7  -4   27.10    5.18
  11   7  -3   55.18    6.81
  11   7  -3   56.08    6.94
  11  -7  -3   63.76    7.60
  11  -7  -3   68.10    7.80
  11  -7  -2   10.73    3.22
  11   7  -2    7.66    2.73
  11  -7  -2    9.55    3.69
  11   7  -2    2.10    2.02
  11  -7  -1    0.83    1.87
  11   7  -1    1.37    2.88
  11  -7  -1    1.33    1.33
  11   7  -1    2.95    2.11
  11   7   0    0.46    1.77
  11  -7   0   -1.06    2.08
  11   7   0    1.52    1.93
  11  -7   0    2.59    1.43
  11   7   1    1.59    1.68
  11  -7   1   -0.58    1.99
  11   7   1    2.02    1.22
  11  -7   1    1.56    2.52
  11   7   2   12.34    3.42
  11  -7   2   10.65    3.04
  11   7   2    8.86    2.98
  11  -7   2    7.36    3.24
  11   7   3   45.99    6.36
  11   7   3   50.69    6.43
  11  -7   3   60.71    7.37
  11  -7   3   65.17    7.88
  11  -7   4   24.76    5.17
  11   7   4   21.83    4.55
  11   7   4   31.54    5.36
  11  -7   4   22.35    4.44
  11   7   5    2.70    2.31
  11   7   5    5.00    2.53
  11  -7   5    0.12    1.10
  11  -7   5    0.79    1.45
  11   7   6   19.97    4.39
  11  -7   6   17.99    4.45
  11   7   6   25.17    4.88
  11  -7   6   27.79    5.32
  11   7   7   59.38    7.33
  11   7   7   62.46    7.49
  11  -7   7   50.37    6.83
  11  -7   7   58.54    7.12
  11   7   8   41.35    5.94
  11   7   8   44.87    6.38
  11  -7   8   53.46    6.97
  11  -7   8   35.47    5.83
  11   7   9   14.73    3.84
  11   7   9   16.35    4.00
  11  -7   9   21.69    4.23
  11  -7   9   15.23    3.98
  11   7  10    3.37    1.81
  11   7  10    1.76    1.67
  11  -7  10    5.64    2.88
  11  -7  10    5.27    3.37
  11   7  11   -1.05    1.64
  11   7  11    0.77    1.48
  11  -7  11    4.84    2.71
  11  -7  11    3.58    1.23
  11   7  12   15.45    3.86
  11   7  12    9.08    3.54
  11  -7  12   13.27    4.38
  11  -7  12   16.02    4.43
  11   7  13   29.22    5.42
  11  -7  13   25.66    5.55
  11   7  13   37.20    5.86
  11  -7  13   29.83    5.66
  11   7  14   27.47    5.90
  11  -7  14   27.17    4.91
  11   7  14   30.60    5.33
  11   7  15    9.37    3.23
  11   7  15    7.38    3.88
  11  -7  15    6.97    3.65
  11   7  16    3.30    2.17
  11   7  16    5.10    3.05
  11   7  17    4.16    1.87
  11   7  18    4.69    1.28
  11   8 -15   -2.87    2.68
  11  -8 -15   -0.91    2.20
  11  -8 -15    1.75    1.49
  11   8 -14    4.24    2.63
  11  -8 -14   -2.23    2.63
  11  -8 -14    0.08    1.09
  11  -8 -13    1.46    2.05
  11   8 -13    3.40    1.68
  11  -8 -13    5.95    3.00
  11   8 -12    0.36    1.35
  11  -8 -12    0.71    1.99
  11  -8 -12   -1.09    1.09
  11   8 -11    2.39    1.85
  11  -8 -11    1.38    2.12
  11  -8 -11    0.30    2.13
  11   8 -10    1.02    1.73
  11  -8 -10   -1.63    2.10
  11  -8 -10    0.46    2.23
  11   8  -9    4.53    2.46
  11  -8  -9    3.00    1.78
  11  -8  -9    5.28    2.92
  11   8  -8    1.03    2.33
  11  -8  -8    4.73    2.22
  11  -8  -8    1.85    1.31
  11   8  -7    1.39    2.22
  11  -8  -7   -0.68    2.04
  11  -8  -7   -1.31    2.16
  11   8  -6    0.78    2.43
 -11   8  -6    1.85    1.20
  11  -8  -6   -0.30    1.83
  11  -8  -6    0.19    1.31
  11  -8  -5   -0.11    1.31
  11   8  -5    0.77    1.48
 -11   8  -5    4.57    2.53
  11  -8  -5    1.38    2.54
  11  -8  -4   -0.76    1.99
  11   8  -4   -0.13    1.54
 -11   8  -4   -0.90    2.15
  11  -8  -4    3.92    2.51
  11  -8  -3    2.45    3.04
  11   8  -3    0.69    1.26
 -11   8  -3   -0.26    1.21
  11  -8  -3    3.48    2.29
  11  -8  -2    0.22    1.34
  11   8  -2   -3.15    2.80
 -11   8  -2    1.51    1.58
  11  -8  -2    1.36    2.47
  11  -8  -1    8.11    2.25
  11   8  -1    8.24    2.94
  11   8  -1   16.30    4.13
 -11   8  -1   12.48    3.37
  11  -8  -1   17.90    4.45
  11  -8   0    2.54    1.64
  11   8   0    2.94    2.65
  11   8   0    1.73    1.95
 -11   8   0    2.55    1.84
  11  -8   0    0.04    1.72
  11  -8   1   15.68    3.83
  11   8   1   19.10    4.08
  11   8   1   20.46    4.85
  11  -8   1    9.47    3.49
  11  -8   2    3.22    1.75
  11   8   2   -0.77    1.46
  11   8   2    0.42    1.39
  11  -8   2   -1.82    2.17
  11  -8   3    0.78    1.68
  11   8   3    0.61    0.98
  11   8   3    3.15    1.22
  11  -8   3    3.29    3.24
  11  -8   4    2.72    1.32
  11   8   4   -1.75    1.62
  11   8   4    3.03    1.93
  11  -8   4    2.44    2.22
  11  -8   5    1.62    1.23
  11   8   5    2.64    2.35
  11   8   5    0.09    1.72
  11  -8   5    1.63    2.80
  11  -8   6    4.52    2.30
  11   8   6    5.13    2.76
  11   8   6   -0.12    1.84
  11  -8   6    3.95    2.66
  11  -8   7   -1.12    2.07
  11   8   7    0.68    1.96
  11   8   7    2.38    1.97
  11  -8   7    2.51    3.13
  11  -8   8    0.92    1.33
  11   8   8    3.67    1.96
  11   8   8    4.50    2.20
  11  -8   8   -1.83    3.11
  11  -8   9    4.93    2.18
  11   8   9    5.39    2.55
  11   8   9    5.92    2.65
  11  -8  10   -1.14    2.12
  11   8  10   -1.79    1.42
  11   8  10    0.30    0.82
  11  -8  11    0.14    1.55
  11   8  11    2.48    1.85
  11   8  11    2.29    3.14
  11  -8  12   -0.91    2.04
  11   8  12   -2.71    2.53
  11   8  12    2.38    1.90
  11  -8  13    2.28    2.66
  11   8  13    1.74    1.32
  11   8  13    7.21    2.73
  11  -8  14    0.66    2.16
  11   8  14   -0.55    1.37
  11   8  14   -0.22    2.43
  11   8  15    2.02    1.54
  11   8  15    3.14    2.56
  11   9 -11    1.26    2.34
  11  -9 -11   -4.50    3.38
  11  -9 -11    1.71    2.14
  11   9 -10    3.33    2.71
  11  -9 -10    3.28    2.66
  11  -9 -10    1.41    2.41
  11   9  -9   11.32    3.81
  11  -9  -9   14.05    3.57
  11  -9  -9   12.33    3.37
  11   9  -8    8.21    2.91
  11  -9  -8    3.52    1.46
  11  -9  -8   12.45    3.71
  11   9  -7   22.87    4.89
  11  -9  -7   30.08    6.22
  11  -9  -7   30.16    5.70
  11  -9  -6    2.31    1.30
  11  -9  -6    1.21    1.46
  11   9  -5   10.29    2.69
 -11   9  -5    5.20    3.35
  11  -9  -5   13.52    3.90
  11  -9  -5    4.74    2.31
  11   9  -4    7.55    3.61
 -11   9  -4   -2.87    2.84
  11  -9  -4    4.27    2.52
  11  -9  -4    2.32    2.69
  11   9  -3   77.66    8.70
 -11   9  -3   66.41    8.50
  11  -9  -3   68.25    8.33
  11  -9  -3   65.26    8.14
  11   9  -2   10.41    3.21
 -11   9  -2    4.29    2.48
  11  -9  -2   10.12    3.51
  11  -9  -2    8.76    2.78
  11   9  -1    0.95    1.43
 -11   9  -1    0.40    2.35
  11  -9  -1    2.11    1.38
  11  -9  -1   -0.68    1.99
  11  -9   0   -0.65    1.33
  11   9   0    1.44    2.86
  11   9   0   -0.37    1.51
 -11   9   0    0.78    1.90
  11  -9   0    3.71    2.68
  11  -9   1    3.21    2.39
  11   9   1    5.38    3.14
  11   9   1    2.12    1.96
 -11   9   1   -0.74    1.40
  11  -9   1   -0.30    2.75
  11  -9   2   10.87    3.74
  11   9   2    4.78    2.61
  11   9   2    4.06    1.06
 -11   9   2    9.00    3.01
  11   9   3   59.23    7.66
 -11   9   3   50.53    6.68
  11   9   3   59.45    7.53
  11  -9   3   72.56    8.71
  11  -9   4    3.31    1.39
  11   9   4    3.70    2.53
  11   9   4    4.27    2.09
 -11   9   4   -2.40    2.18
  11  -9   5    0.34    1.15
  11   9   5   10.37    3.58
  11   9   5    9.02    3.35
 -11   9   5    8.46    2.98
  11  -9   6    3.34    1.68
  11   9   6    5.20    2.51
  11   9   6    3.75    2.15
 -11   9   6    7.24    3.47
  11  -9   7   15.78    3.90
  11   9   7   26.84    5.37
  11   9   7   25.15    4.91
  11  -9   8    6.66    3.84
  11   9   8    9.82    4.52
  11   9   8    5.98    2.67
 -11   9   8    6.44    2.70
  11  -9   9   10.64    3.00
  11   9   9   10.32    3.51
  11   9   9    7.48    3.22
 -11   9   9    4.47    2.44
  11  -9  10    3.60    2.95
  11   9  10    2.47    1.79
  11   9  10    0.76    1.82
 -11   9  10    0.15    1.26
  11  -9  11   -0.48    1.59
  11   9  11    1.85    1.79
  11   9  11   -0.01    1.78
 -11   9  11    1.86    1.70
  12   0 -23    1.93    1.88
  12   0 -22    0.87    1.41
  12   0 -21   -0.83    2.18
  12   0 -20   27.01    5.18
  12   0 -19   39.74    6.01
  12   0 -18   35.91    5.64
  12   0 -17   97.57    9.15
  12   0 -16   59.30    7.09
  12   0 -15    2.91    2.06
  12   0 -14  138.97   10.24
  12   0 -13  271.15   14.36
  12   0 -12  109.10    9.26
  12   0 -11  121.29    9.04
  12   0 -11  116.07    9.50
  12   0 -10  152.95   10.22
  12   0 -10  152.89   10.75
  12   0  -9   26.94    4.35
  12   0  -9   27.92    4.58
  12   0  -8   97.77    7.90
  12   0  -8   90.84    8.12
  12   0  -7   12.81    2.92
  12   0  -7   13.31    3.57
  12   0  -6   78.56    7.08
  12   0  -6   79.37    7.61
  12   0  -5  148.34    9.74
  12   0  -5  131.40    9.68
  12   0  -4   76.34    6.98
  12   0  -4   66.70    6.93
  12   0  -4   79.07    7.43
  12   0  -3   11.00    2.73
  12   0  -3   12.71    3.01
  12   0  -3   14.16    3.00
  12   0  -2  263.48   12.99
  12   0  -2  248.18   13.29
  12   0  -2  284.94   13.68
  12   0  -1  533.60   18.66
  12   0  -1  553.23   19.48
  12   0  -1  578.94   19.42
  12   0   0  327.48   14.71
  12   0   0  312.84   14.70
  12   0   0  312.20   14.14
  12   0   1  575.74   19.64
  12   0   1  546.16   19.55
  12   0   1  582.62   18.98
  12   0   2  280.45   13.85
  12   0   2  294.60   14.38
  12   0   2  254.01   12.61
  12   0   3   27.43    4.32
  12   0   3   17.42    3.43
  12   0   4   72.76    6.93
  12   0   4   84.32    7.11
  12   0   5  123.65    9.04
  12   0   5  145.58    9.53
  12   0   6   76.96    7.10
  12   0   6   64.86    6.32
  12   0   7   16.94    3.46
  12   0   7   12.44    3.05
  12   0   8   91.73    7.96
  12   0   8   88.10    7.17
  12   0   9   33.56    4.86
  12   0   9   29.78    4.32
  12   0  10  169.45   10.98
  12   0  10  151.34    9.59
  12   0  11  145.57   10.30
  12   0  12   96.70    8.77
  12   0  13  264.91   14.31
  12   0  14  135.04   10.43
  12   0  15    2.24    1.43
  12   0  16   65.47    7.29
  12   0  17   94.92    9.06
  12   0  18   25.24    4.82
  12   0  19   46.88    6.64
  12   0  20   21.22    4.46
  12   0  21    1.09    0.99
  12   0  22    0.71    1.25
  12   0  23   -1.65    1.48
  12   0  24    7.68    3.73
  12   0  25   21.49    5.15
  12  -1 -25    2.06    2.57
  12  -1 -24    3.81    2.65
  12  -1 -23    2.72    1.84
  12  -1 -22   -1.35    3.00
  12  -1 -21    2.69    2.06
  12  -1 -20    4.10    2.35
  12   1 -19   -0.59    1.05
  12  -1 -19    2.63    2.84
  12   1 -18    2.75    1.89
  12  -1 -18    3.96    2.69
  12   1 -17    6.33    2.46
  12  -1 -17   11.34    3.59
  12   1 -16    3.94    2.59
  12  -1 -16    2.53    1.58
  12   1 -15    5.99    2.30
  12  -1 -15    7.24    2.70
  12   1 -14    7.86    2.46
  12  -1 -14    7.28    2.35
  12  -1 -13    6.74    3.30
  12   1 -13    3.84    2.44
  12  -1 -13    2.48    2.82
  12  -1 -12    2.33    2.19
  12   1 -12    5.45    1.99
  12  -1 -12    8.15    2.65
  12   1 -11   30.74    4.87
  12  -1 -11   17.95    3.73
  12  -1 -11   29.27    4.95
  12   1 -11   15.95    3.72
  12  -1 -10    9.97    2.52
  12   1 -10   13.18    3.30
  12  -1 -10   21.20    3.99
  12   1 -10   12.14    3.07
  12   1 -10   17.40    3.10
  12   1  -9   21.34    3.62
  12  -1  -9   18.72    3.65
  12  -1  -9   16.70    3.50
  12   1  -9   21.30    3.90
  12   1  -9   26.57    4.42
  12  -1  -8   12.28    3.38
  12   1  -8   12.80    3.04
  12  -1  -8    6.60    2.47
  12   1  -8   10.06    2.76
  12   1  -8   11.50    2.73
  12  -1  -7    1.91    1.59
  12   1  -7    2.57    1.14
  12  -1  -7    0.93    1.91
  12   1  -7    2.17    2.11
  12   1  -7    2.81    1.36
  12  -1  -6    6.36    2.04
  12   1  -6    6.87    1.87
  12  -1  -6    3.52    0.81
  12   1  -6    6.67    2.24
  12   1  -6    6.57    2.24
  12   1  -5   20.60    3.56
  12  -1  -5   15.12    3.46
  12  -1  -5   20.83    4.09
  12   1  -5   17.33    3.53
  12   1  -5   22.64    3.94
  12  -1  -4   54.00    6.02
  12   1  -4   35.58    4.60
  12  -1  -4   37.14    5.25
  12   1  -4   47.25    5.83
  12   1  -4   30.03    4.60
  12  -1  -3  111.12    8.70
  12   1  -3   95.26    7.89
  12  -1  -3  101.45    8.59
  12   1  -3   97.84    8.14
  12   1  -3   98.84    7.96
  12  -1  -2   67.07    6.87
  12   1  -2   65.14    6.40
  12  -1  -2   53.51    6.36
  12   1  -2   48.63    5.70
  12   1  -2   66.49    6.53
  12  -1  -1   22.74    4.22
  12   1  -1   24.78    4.14
  12  -1  -1   31.03    4.99
  12   1  -1   20.14    3.59
  12   1  -1   22.29    3.52
  12  -1   0   14.81    3.31
  12  -1   0    6.48    2.33
  12   1   0   10.37    3.20
  12   1   0   13.76    2.92
  12   1   0    8.71    2.31
  12  -1   1   19.59    3.73
  12   1   1   24.29    3.86
  12  -1   1   26.60    4.53
  12   1   1   24.68    4.16
  12   1   1   29.59    4.36
  12  -1   2   62.12    6.58
  12   1   2   69.59    6.68
  12  -1   2   59.13    6.67
  12   1   2   59.43    5.86
  12  -1   3  102.47    8.54
  12   1   3  104.58    8.12
  12  -1   3   88.60    8.04
  12   1   3  108.46    8.19
  12  -1   4   40.16    5.35
  12   1   4   41.59    5.24
  12   1   4   42.23    5.20
  12   1   5   19.90    3.66
  12  -1   5    8.63    2.07
  12   1   5   20.28    3.69
  12   1   6   10.33    2.96
  12  -1   6    7.35    2.47
  12   1   6   11.04    2.50
  12   1   7    0.21    1.25
  12  -1   7    3.91    1.84
  12   1   7    1.66    1.85
  12   1   8   11.10    2.65
  12  -1   8   12.51    2.80
  12   1   8   13.37    3.17
  12  -1   9   28.51    4.40
  12   1   9   24.90    4.03
  12   1   9   20.81    4.10
  12   1  10   11.78    3.05
  12  -1  10   15.20    3.33
  12   1  10   10.81    3.00
  12   1  11   16.75    3.44
  12  -1  11   21.12    4.19
  12   1  11   17.43    3.01
  12   1  12    5.75    1.91
  12  -1  12    5.01    2.56
  12   1  12    3.85    1.80
  12   1  13    1.25    0.84
  12  -1  13    0.27    1.95
  12   1  14    3.64    1.97
  12  -1  14    3.28    1.64
  12   1  15    6.13    2.32
  12  -1  15    4.20    2.62
  12   1  16   -0.39    1.55
  12  -1  16    6.22    2.01
  12   1  17    8.89    3.11
  12  -1  17   16.02    4.54
  12   1  18    2.01    2.11
  12  -1  18   -1.17    1.16
  12   1  19    2.92    2.19
  12  -1  19    1.99    1.57
  12   1  20    2.79    1.79
  12  -1  20    0.79    1.79
  12   1  21    4.07    2.67
  12  -1  21    3.98    2.58
  12   1  22    3.51    2.66
  12  -1  22    2.39    1.16
  12   1  23    0.67    1.08
  12  -1  23    3.11    2.35
  12   1  24    4.13    2.52
  12   1  25    0.82    1.80
  12  -2 -24   17.83    4.56
  12  -2 -23    2.02    2.45
  12  -2 -22   11.00    3.30
  12  -2 -21    8.60    3.00
  12  -2 -20    8.03    2.90
  12  -2 -19   15.98    4.03
  12  -2 -18   32.67    5.72
  12  -2 -17   16.33    3.58
  12  -2 -16   14.96    3.56
  12  -2 -15   15.58    3.90
  12   2 -15   14.66    3.22
  12  -2 -14   37.30    5.73
  12   2 -14   27.34    4.94
  12  -2 -14   36.82    5.72
  12   2 -13   75.75    7.55
  12  -2 -13   65.19    7.42
  12   2 -13   75.75    7.83
  12  -2 -13   66.04    7.36
  12   2 -12   51.21    6.15
  12  -2 -12   50.92    6.54
  12   2 -12   58.60    6.63
  12  -2 -12   64.09    6.98
  12   2 -11   26.87    4.60
  12  -2 -11   27.07    4.83
  12   2 -11   30.98    5.02
  12  -2 -11   29.55    4.79
  12  -2 -10   31.32    5.19
  12  -2 -10   31.03    5.11
  12   2 -10   35.29    5.02
  12   2 -10   39.63    5.56
  12  -2  -9   58.58    6.47
  12   2  -9   57.34    6.09
  12  -2  -9   58.35    6.88
  12   2  -9   69.66    7.31
  12   2  -9   60.12    6.95
  12  -2  -8   81.92    7.89
  12   2  -8   98.94    7.77
  12  -2  -8   85.33    8.32
  12   2  -8   75.78    7.27
  12   2  -8  100.87    8.40
  12  -2  -7   42.70    5.63
  12   2  -7   48.09    5.59
  12  -2  -7   37.00    5.66
  12   2  -7   42.04    5.69
  12   2  -7   49.14    5.76
  12  -2  -6   30.86    4.65
  12   2  -6   28.39    4.45
  12  -2  -6   26.52    4.64
  12   2  -6   29.12    4.38
  12   2  -6   32.50    4.77
  12  -2  -5   65.60    6.87
  12   2  -5   68.08    6.47
  12  -2  -5   67.92    7.20
  12   2  -5   67.61    6.83
  12   2  -5   58.43    6.64
  12  -2  -4  122.18    9.28
  12   2  -4  110.22    8.26
  12  -2  -4  117.00    9.51
  12   2  -4  106.44    8.38
  12   2  -4  116.43    8.91
  12  -2  -3   23.04    4.05
  12   2  -3   25.10    4.18
  12   2  -3   22.40    3.98
  12  -2  -3   19.51    3.75
  12   2  -3   31.02    4.42
  12  -2  -2  157.40   10.44
  12   2  -2  156.70    9.98
  12  -2  -2  151.49   10.59
  12   2  -2  147.57    9.99
  12   2  -2  145.32    9.84
  12  -2  -1  281.68   14.08
  12   2  -1  284.51   13.42
  12  -2  -1  276.28   14.47
  12   2  -1  265.15   13.40
  12   2  -1  289.64   13.82
  12  -2   0  168.58   10.75
  12   2   0  138.25    9.36
  12  -2   0  147.69   10.38
  12   2   0  141.36    9.93
  12   2   0  161.89   10.26
  12  -2   1  263.11   13.58
  12  -2   1  265.71   13.78
  12   2   1  262.45   12.98
  12   2   1  294.17   13.95
  12  -2   2  142.73   10.06
  12  -2   2  151.39   10.73
  12   2   2  149.51    9.82
  12   2   2  142.60    9.91
  12   2   3   23.50    3.82
  12  -2   3   25.47    4.43
  12   2   3   26.65    4.36
  12  -2   3   18.15    3.69
  12  -2   4  125.65    9.64
  12  -2   4  115.73    9.41
  12   2   4  127.55    9.30
  12   2   4  121.58    8.92
  12  -2   5   73.75    7.14
  12  -2   5   74.49    7.33
  12   2   5   70.88    6.84
  12   2   5   84.73    7.45
  12  -2   6   37.14    5.10
  12   2   6   30.95    4.67
  12   2   6   29.73    4.44
  12  -2   7   42.44    5.60
  12   2   7   41.69    5.39
  12   2   7   32.71    4.77
  12  -2   8   90.28    8.40
  12   2   8   82.62    7.37
  12  -2   9   76.42    7.73
  12   2   9   58.18    6.58
  12   2   9   66.63    7.08
  12  -2  10   34.26    5.08
  12   2  10   36.48    5.42
  12   2  10   31.16    4.74
  12  -2  11   29.68    4.93
  12   2  11   28.90    4.68
  12   2  11   25.89    4.47
  12  -2  12   51.26    6.34
  12   2  12   62.48    7.04
  12   2  12   59.02    6.42
  12  -2  13   73.16    7.85
  12   2  13   67.32    7.24
  12   2  13   72.60    7.10
  12  -2  14   25.94    4.84
  12   2  14   38.46    5.49
  12   2  15   11.51    3.00
  12  -2  15   13.08    3.49
  12   2  16   17.14    3.90
  12  -2  16   14.65    3.98
  12   2  17   25.48    4.69
  12  -2  17   21.75    4.75
  12  -2  18   33.40    5.39
  12   2  18   39.99    5.72
  12   2  19    9.28    3.07
  12  -2  19   13.39    3.39
  12   2  20    9.82    3.21
  12  -2  20    9.47    3.70
  12   2  21   10.26    3.37
  12  -2  21    7.35    2.69
  12   2  22    7.93    2.91
  12  -2  22   10.20    3.37
  12   2  23    2.82    1.57
  12   2  24   15.64    4.13
  12  -3 -24    2.88    1.68
  12  -3 -23    7.23    3.08
  12  -3 -22    0.15    1.26
  12  -3 -21    3.63    2.93
  12  -3 -20    1.34    2.33
  12  -3 -19    0.68    2.11
  12  -3 -18    0.69    1.18
  12   3 -18    8.61    2.27
  12  -3 -17   -0.27    1.47
  12   3 -17    3.92    2.48
  12  -3 -16    0.34    1.38
  12   3 -16    0.05    1.22
  12  -3 -15    1.41    1.35
  12  -3 -15   -1.10    1.21
  12   3 -15    0.48    1.26
  12  -3 -14    2.84    1.42
  12  -3 -14    0.88    1.03
  12   3 -14    4.11    2.32
  12  -3 -13   -0.28    2.23
  12  -3 -13    0.83    2.27
  12   3 -13    3.65    1.91
  12  -3 -12   32.27    5.15
  12   3 -12   29.51    4.89
  12  -3 -12   34.77    5.34
  12  -3 -11   15.81    3.58
  12   3 -11   25.09    4.51
  12  -3 -11   25.31    4.79
  12  -3 -10   27.22    4.82
  12  -3 -10   24.63    4.61
  12   3 -10   24.67    4.21
  12  -3  -9   11.00    2.99
  12  -3  -9   17.56    4.01
  12   3  -9   16.69    3.56
  12  -3  -8   16.92    3.78
  12  -3  -8   14.93    3.56
  12   3  -8    4.40    1.99
  12   3  -8   19.71    4.35
  12   3  -7    4.73    2.12
  12  -3  -7    5.76    2.17
  12  -3  -7    8.96    2.71
  12   3  -7    4.25    2.73
  12   3  -7    4.30    1.98
  12   3  -6    3.12    1.64
  12   3  -6    2.85    2.07
  12  -3  -6    4.56    2.15
  12  -3  -6    4.58    1.08
  12   3  -6    4.22    2.33
  12   3  -5   18.79    3.63
  12   3  -5   10.81    2.53
  12  -3  -5   18.67    3.74
  12  -3  -5   15.76    4.14
  12   3  -5   15.23    3.48
  12  -3  -4   98.53    8.57
  12  -3  -4   89.20    8.36
  12   3  -4  100.11    8.01
  12   3  -4   84.78    7.54
  12   3  -4   91.68    8.17
  12  -3  -3  140.97   10.41
  12  -3  -3  177.37   11.87
  12   3  -3  174.11   10.81
  12   3  -3  166.48   10.28
  12   3  -3  190.49   11.67
  12  -3  -2   90.40    8.22
  12  -3  -2   94.06    8.53
  12   3  -2   79.06    7.28
  12   3  -2   69.91    6.71
  12   3  -2   94.34    8.00
  12   3  -1   17.78    3.74
  12   3  -1   11.76    2.76
  12  -3  -1    9.10    2.44
  12  -3  -1   14.17    3.23
  12   3  -1   14.00    3.09
  12   3   0   11.99    3.25
  12   3   0    9.73    2.56
  12  -3   0   13.09    3.46
  12  -3   0    8.04    2.58
  12   3   0   15.01    3.55
  12   3   1   19.95    3.92
  12   3   1   16.46    3.47
  12  -3   1   13.88    3.54
  12  -3   1   16.71    3.60
  12  -3   2   80.23    7.78
  12  -3   2   80.34    7.79
  12   3   2   82.18    7.48
  12   3   2   89.82    7.93
  12  -3   3  148.89   10.37
  12  -3   3  181.08   11.68
  12   3   3  159.03   10.59
  12   3   3  174.56   10.92
  12  -3   4   94.82    8.44
  12  -3   4   84.95    7.94
  12   3   4   81.26    7.49
  12   3   4   94.10    8.05
  12   3   5   14.06    3.60
  12   3   5   13.64    3.17
  12  -3   5   16.67    4.02
  12  -3   5   19.89    4.25
  12   3   6    2.37    0.76
  12   3   6    3.03    1.98
  12  -3   6    4.89    1.56
  12  -3   6    4.50    2.36
  12   3   7    5.98    2.27
  12   3   7    4.62    2.20
  12  -3   7    3.34    1.87
  12  -3   7    6.10    2.33
  12   3   8   11.39    2.92
  12   3   8   11.22    2.74
  12  -3   8   12.72    3.24
  12   3   9   12.92    3.29
  12   3   9   15.77    3.55
  12  -3   9   19.88    3.78
  12   3  10   22.15    4.04
  12  -3  10   23.39    4.37
  12   3  10   25.90    4.57
  12   3  11   31.24    5.30
  12   3  11   19.89    4.30
  12  -3  11   20.46    4.19
  12   3  12   33.78    5.59
  12  -3  12   27.00    4.81
  12   3  12   40.84    5.51
  12   3  13    2.23    1.70
  12   3  13    2.01    1.28
  12  -3  13    3.22    2.15
  12   3  14    2.50    1.59
  12   3  14    3.98    1.95
  12  -3  14   -0.04    1.78
  12   3  15    0.36    1.64
  12  -3  15    0.04    1.12
  12   3  16    1.93    2.16
  12  -3  16    3.17    2.16
  12   3  17    4.55    2.78
  12  -3  17    1.55    1.71
  12   3  18   13.51    3.55
  12  -3  18   10.35    3.72
  12   3  19    0.39    1.33
  12  -3  19    2.63    2.77
  12   3  20    0.26    1.87
  12  -3  20    4.98    2.08
  12   3  21    6.26    2.92
  12  -3  21    3.00    1.29
  12   3  22    9.63    3.51
  12   3  23    7.41    3.32
  12   3  24    3.39    3.28
  12  -4 -23   19.13    4.42
  12  -4 -22   14.00    3.79
  12  -4 -21   12.24    3.89
  12  -4 -20   10.18    3.98
  12  -4 -19    8.96    3.08
  12   4 -19    3.38    1.55
  12  -4 -18    8.72    2.31
  12   4 -18    2.53    2.11
  12  -4 -17    7.33    2.82
  12   4 -17    8.39    2.89
  12  -4 -16    8.87    2.54
  12   4 -16    8.50    2.79
  12  -4 -16   12.22    3.67
  12  -4 -15    7.50    2.53
  12   4 -15    7.21    2.84
  12  -4 -15    7.71    2.15
  12  -4 -14   15.97    3.89
  12  -4 -14   15.83    4.05
  12   4 -14   12.07    3.48
  12  -4 -13   21.85    4.53
  12  -4 -13   21.72    4.39
  12   4 -13   27.99    4.90
  12  -4 -12    1.57    1.78
  12  -4 -12    2.84    2.19
  12   4 -12    4.78    2.05
  12   4 -11    3.23    0.75
  12  -4 -11    4.46    1.87
  12  -4 -11    3.11    1.30
  12   4 -10   17.71    4.00
  12  -4 -10   19.18    4.15
  12  -4 -10   10.79    3.38
  12  -4  -9   42.63    5.99
  12   4  -9   48.98    6.31
  12  -4  -9   43.72    6.03
  12  -4  -8   93.05    8.84
  12   4  -8  101.92    8.96
  12  -4  -8   90.37    8.61
  12  -4  -7  120.21   10.12
  12   4  -7  119.01    9.43
  12  -4  -7  130.35   10.36
  12  -4  -6   28.66    4.83
  12   4  -6   43.11    5.14
  12   4  -6   33.12    5.19
  12  -4  -6   33.87    5.35
  12  -4  -5   78.02    8.13
  12  -4  -5   70.23    7.67
  12   4  -5   84.46    7.57
  12   4  -5   83.33    8.09
  12  -4  -4  187.94   11.97
  12  -4  -4  193.76   12.96
  12   4  -4  167.77   10.68
  12   4  -4  190.24   11.95
  12  -4  -3  118.21    9.65
  12  -4  -3  128.62   10.40
  12   4  -3  123.92    9.06
  12   4  -3  137.92   10.01
  12  -4  -2  144.59   10.57
  12  -4  -2  137.51   10.64
  12   4  -2  142.91    9.94
  12   4  -2  170.23   11.16
  12  -4  -1   67.41    7.01
  12  -4  -1   71.12    7.59
  12   4  -1   80.55    7.62
  12   4  -1   81.45    7.51
  12   4  -1   72.23    7.19
  12  -4   0   25.56    4.64
  12  -4   0   17.38    3.80
  12   4   0   20.28    3.91
  12   4   0   27.00    4.66
  12   4   0   19.47    3.77
  12   4   1   82.82    7.60
  12  -4   1   77.58    7.86
  12  -4   1   69.59    7.73
  12   4   1   75.65    7.59
  12   4   2  148.35   10.35
  12  -4   2  133.87   10.45
  12  -4   2  139.35   10.65
  12   4   2  136.26   10.20
  12   4   3  124.59    9.46
  12  -4   3  137.57   10.30
  12  -4   3  136.51   10.43
  12   4   3  122.55    9.58
  12   4   4  180.34   11.52
  12  -4   4  181.40   11.94
  12  -4   4  153.53   11.35
  12   4   4  179.70   11.56
  12   4   5   94.98    8.41
  12  -4   5  105.38    9.23
  12  -4   5  103.22    9.27
  12   4   5   81.26    7.71
  12   4   6   38.16    5.35
  12  -4   6   35.63    5.03
  12  -4   6   53.09    6.45
  12   4   6   41.21    5.43
  12   4   7  109.21    9.10
  12  -4   7  108.92    9.18
  12  -4   7  110.55    9.54
  12   4   7  117.24    9.45
  12   4   8   89.75    8.14
  12  -4   8   99.51    8.96
  12  -4   8   89.76    8.65
  12   4   8  101.24    8.63
  12   4   9   47.41    6.31
  12  -4   9   41.32    5.90
  12  -4   9   43.49    6.23
  12   4   9   35.65    5.24
  12   4  10   17.04    4.05
  12  -4  10   14.27    3.68
  12   4  10   12.39    3.18
  12  -4  10   16.47    3.74
  12   4  11    7.15    3.00
  12  -4  11    7.60    2.91
  12   4  11    3.68    2.04
  12   4  12    1.93    1.93
  12  -4  12    1.79    1.84
  12   4  12    3.30    1.56
  12   4  13   24.64    4.51
  12  -4  13   16.31    4.01
  12   4  13   18.88    4.20
  12   4  14   11.08    3.00
  12  -4  14   16.65    3.85
  12   4  14   17.75    3.57
  12  -4  15    2.32    1.54
  12   4  15   11.92    3.21
  12  -4  16    6.85    2.82
  12   4  16    4.35    1.93
  12  -4  17    2.77    1.30
  12   4  17    6.40    2.99
  12  -4  18    7.82    3.05
  12   4  18    2.30    1.82
  12  -4  19    6.22    2.56
  12   4  19   -0.14    1.75
  12  -4  20    8.54    3.53
  12   4  20   10.64    3.15
  12   4  21    5.95    2.65
  12   4  22   13.80    4.20
  12   4  23   14.19    4.35
  12  -5 -21    4.38    1.51
  12  -5 -20   -0.80    1.13
  12  -5 -19    1.19    1.12
  12   5 -19   23.25    5.89
  12  -5 -18    3.41    1.90
  12   5 -18    3.24    2.53
  12  -5 -17    8.25    2.63
  12  -5 -17    5.82    3.17
  12   5 -17    2.62    1.82
  12  -5 -16   -0.56    1.23
  12  -5 -16    1.26    1.78
  12   5 -16   -0.11    1.75
  12  -5 -15   -0.41    1.46
  12  -5 -15    0.82    1.51
  12   5 -15    1.41    1.28
  12   5 -14   -0.36    1.11
  12  -5 -14    1.28    2.03
  12  -5 -14   -0.19    1.31
  12   5 -13    5.16    2.59
  12  -5 -13    4.92    1.67
  12   5 -12    6.60    2.67
  12  -5 -12    6.45    2.27
  12  -5 -12    8.51    3.13
  12   5 -11    3.88    2.22
  12  -5 -11    6.72    2.85
  12  -5 -11    7.52    3.55
  12   5 -10   12.32    3.37
  12  -5 -10   20.32    4.49
  12  -5 -10   21.78    4.70
  12   5  -9    6.57    1.35
  12  -5  -9    2.55    2.22
  12  -5  -9    9.24    3.43
  12   5  -8   -0.59    1.66
  12  -5  -8   -0.29    1.11
  12  -5  -8    3.10    1.29
  12   5  -7    3.52    1.76
  12  -5  -7    4.21    2.09
  12  -5  -7    8.52    2.78
  12   5  -6    0.45    1.36
  12  -5  -6    2.12    1.29
  12  -5  -6    1.69    2.39
  12   5  -5   -0.78    1.80
  12  -5  -5   -0.21    2.16
  12   5  -5   -1.28    1.72
  12  -5  -5    1.04    1.46
  12   5  -4    1.99    1.65
  12  -5  -4    2.87    2.85
  12   5  -4    0.96    1.04
  12  -5  -4   -1.18    1.82
  12   5  -3   14.03    3.47
  12  -5  -3   12.52    3.66
  12   5  -3   12.78    2.62
  12  -5  -3    8.13    3.48
  12   5  -2   25.62    4.29
  12   5  -2   22.93    3.81
  12  -5  -2   19.29    4.68
  12  -5  -2   35.65    5.56
  12   5  -1   25.40    4.24
  12  -5  -1   17.42    4.02
  12   5  -1   18.29    3.52
  12  -5  -1   17.31    3.72
  12   5   0   12.88    3.24
  12  -5   0    4.23    1.90
  12   5   0    3.73    1.51
  12  -5   0   10.98    3.07
  12   5   1   21.69    3.90
  12   5   1   25.75    4.29
  12  -5   1   19.13    4.12
  12  -5   1   23.95    4.43
  12   5   2   25.60    4.43
  12  -5   2   24.68    4.42
  12  -5   2   30.05    4.86
  12   5   2   25.75    4.64
  12   5   3   15.55    3.65
  12  -5   3   11.97    3.63
  12   5   3   20.40    3.92
  12  -5   3   14.84    4.09
  12   5   4   -0.20    0.93
  12  -5   4    0.52    1.25
  12   5   4    0.44    0.78
  12  -5   4    0.31    1.33
  12   5   5    0.70    1.85
  12  -5   5    0.42    2.24
  12   5   5    0.77    2.27
  12  -5   5    0.70    1.27
  12   5   6    2.68    1.26
  12  -5   6   -0.47    1.57
  12   5   6    0.29    1.11
  12  -5   6    0.41    2.09
  12   5   7    5.82    2.34
  12  -5   7    8.11    2.98
  12   5   7    3.59    2.06
  12  -5   7    7.16    2.64
  12   5   8    0.88    1.20
  12  -5   8    1.64    0.98
  12   5   8    0.76    0.90
  12  -5   8    2.15    2.40
  12   5   9   10.24    2.94
  12  -5   9   11.14    3.49
  12   5   9    8.31    2.83
  12  -5   9   18.11    4.68
  12   5  10   13.99    3.70
  12  -5  10   20.41    4.41
  12   5  10   12.78    3.28
  12  -5  10   14.53    3.52
  12   5  11    7.57    2.79
  12  -5  11    3.57    1.88
  12   5  11    4.54    2.69
  12  -5  11    8.13    3.69
  12   5  12    4.43    1.98
  12  -5  12    3.23    2.04
  12   5  12    4.96    2.50
  12  -5  12    0.96    1.47
  12   5  13    5.57    2.67
  12  -5  13    8.65    3.11
  12   5  13    3.43    2.47
  12  -5  13    9.89    3.20
  12   5  14    2.75    1.69
  12  -5  14    0.21    1.83
  12   5  14   -1.71    1.70
  12  -5  14    0.48    1.96
  12  -5  15    1.85    1.22
  12   5  15   -0.96    1.32
  12  -5  16    1.14    1.61
  12   5  16    2.52    1.51
  12  -5  17    7.27    2.97
  12   5  17    6.72    2.33
  12  -5  18    1.40    1.37
  12   5  18    5.82    2.39
  12   5  19    4.52    2.55
  12   5  20   -0.62    1.54
  12   5  21    1.03    1.54
  12  -6 -19    9.96    2.89
  12  -6 -18   -1.49    1.65
  12  -6 -18    2.94    2.33
  12   6 -18    3.23    3.16
  12  -6 -17   20.59    4.02
  12  -6 -17   10.12    3.00
  12   6 -17   15.50    3.19
  12   6 -16    6.39    2.65
  12  -6 -16    6.15    2.94
  12  -6 -16   13.79    3.75
  12   6 -15    3.30    2.58
  12  -6 -15    1.76    1.74
  12  -6 -15    3.34    2.19
  12   6 -14   24.46    4.87
  12  -6 -14   20.18    4.56
  12  -6 -14   23.58    4.69
  12  -6 -13   36.47    6.33
  12  -6 -13   39.61    6.06
  12   6 -13   40.23    5.93
  12   6 -12    1.57    1.04
  12  -6 -12    0.41    1.18
  12  -6 -12    1.81    1.67
  12  -6 -11   13.76    3.79
  12   6 -11   22.31    4.31
  12  -6 -11   15.94    4.13
  12  -6 -10   21.52    4.75
  12  -6 -10   31.61    5.61
  12   6 -10   40.47    6.01
  12  -6  -9    9.86    2.59
  12   6  -9   12.56    3.80
  12  -6  -9   13.56    3.11
  12  -6  -8   50.07    7.22
  12  -6  -8   51.57    6.49
  12   6  -8   43.62    5.96
  12  -6  -7   79.15    8.62
  12  -6  -7   78.80    8.55
  12   6  -7   63.15    7.43
  12   6  -6   10.66    3.19
  12  -6  -6   20.78    4.71
  12  -6  -6   22.19    4.43
  12   6  -5   19.68    4.34
  12  -6  -5   20.64    4.17
  12  -6  -5   19.99    4.59
  12  -6  -4   47.94    7.14
  12  -6  -4   46.97    6.39
  12   6  -4   46.29    6.21
  12   6  -3   66.20    7.25
  12  -6  -3   67.68    8.05
  12  -6  -3   68.23    7.88
  12   6  -3   75.78    8.05
  12   6  -2   57.63    6.48
  12  -6  -2   75.01    8.33
  12  -6  -2   57.73    7.37
  12   6  -2   69.15    7.40
  12   6  -1   19.45    4.28
  12  -6  -1   22.86    4.47
  12   6  -1    9.99    3.11
  12  -6  -1   11.18    3.48
  12   6   0   -0.18    1.86
  12  -6   0   -0.08    1.07
  12   6   0    2.60    1.70
  12  -6   0   -0.48    1.70
  12   6   1   15.68    3.98
  12  -6   1   11.26    3.61
  12  -6   1   10.89    3.26
  12   6   1   20.73    4.26
  12   6   2   72.38    8.09
  12   6   2   59.69    7.01
  12  -6   2   63.08    7.69
  12  -6   2   55.83    7.27
  12   6   3   69.41    7.75
  12   6   3   57.75    6.71
  12  -6   3   76.08    8.25
  12   6   4   41.72    5.93
  12   6   4   50.77    6.32
  12  -6   4   43.20    6.44
  12  -6   4   50.79    6.94
  12   6   5   23.59    4.76
  12   6   5   27.07    4.47
  12  -6   5   20.45    4.61
  12  -6   5   29.61    5.51
  12   6   6   16.49    4.70
  12  -6   6   10.91    3.04
  12  -6   6   13.73    3.48
  12   6   7   82.33    8.50
  12  -6   7   68.88    7.77
  12   6   7   84.54    8.54
  12  -6   7   73.85    8.29
  12   6   8   63.57    7.57
  12  -6   8   52.75    6.88
  12   6   8   51.78    6.40
  12  -6   8   58.32    7.55
  12   6   9   10.85    3.84
  12  -6   9   18.58    4.61
  12  -6   9   10.81    2.81
  12   6   9   12.21    3.48
  12   6  10   34.82    5.80
  12   6  10   29.28    5.00
  12  -6  10   19.90    4.56
  12  -6  10   29.01    4.97
  12   6  11   16.67    4.20
  12   6  11   21.43    4.70
  12  -6  11   22.56    5.00
  12  -6  11   19.44    3.96
  12   6  12    1.79    2.47
  12  -6  12    1.17    1.92
  12  -6  12    3.94    1.95
  12   6  12    3.03    1.87
  12   6  13   39.93    6.09
  12  -6  13   42.25    6.64
  12   6  13   45.60    6.30
  12  -6  13   36.70    5.83
  12   6  14   26.34    4.61
  12   6  14   28.79    5.21
  12  -6  14   21.38    4.76
  12  -6  14   29.20    5.38
  12   6  15    5.41    3.24
  12  -6  15    2.54    2.37
  12  -6  15    3.21    2.61
  12   6  15    5.16    2.20
  12  -6  16    6.62    2.64
  12  -6  16    9.06    2.83
  12   6  16   11.29    3.17
  12  -6  17   19.94    4.55
  12   6  17    9.96    3.05
  12  -6  17   20.81    5.18
  12   6  18    1.37    1.75
  12  -6  18    2.13    2.61
  12   6  19   20.35    4.58
  12  -6  19   13.54    4.24
  12   7 -17   -1.06    2.37
  12  -7 -17   -1.19    2.20
  12  -7 -17    2.24    1.73
  12   7 -16   -1.78    2.26
  12  -7 -16   -0.02    1.30
  12  -7 -16    0.59    1.88
  12   7 -15   12.31    3.82
  12  -7 -15   11.09    3.29
  12  -7 -15   10.83    3.58
  12   7 -14    3.09    1.71
  12  -7 -14   -1.63    1.20
  12  -7 -14    1.31    1.98
  12   7 -13   11.73    3.34
  12  -7 -13    9.65    3.49
  12  -7 -13    8.76    3.23
  12   7 -12    7.83    2.72
  12  -7 -12    7.87    3.23
  12  -7 -12    4.03    1.74
  12   7 -11    0.59    0.98
  12  -7 -11    1.34    1.84
  12  -7 -11   -0.96    0.94
  12   7 -10   11.48    3.76
  12  -7 -10    8.99    3.03
  12  -7 -10   12.69    3.76
  12   7  -9   28.38    4.92
  12  -7  -9   21.49    4.47
  12  -7  -9   34.62    5.87
  12  -7  -8    5.01    2.66
  12   7  -8    6.43    2.86
  12  -7  -8    4.06    1.79
  12  -7  -7    9.03    2.81
  12   7  -7    7.04    2.65
  12  -7  -7   12.06    3.68
  12  -7  -6    2.34    1.50
  12   7  -6    2.01    0.96
  12  -7  -6    1.31    1.83
  12  -7  -5    0.49    1.36
  12   7  -5    0.39    1.45
  12  -7  -5    2.26    2.96
  12  -7  -4   17.84    4.56
  12   7  -4   12.88    3.47
  12  -7  -4   15.59    3.92
  12  -7  -3   13.81    3.74
  12   7  -3    9.73    3.15
  12  -7  -3    7.99    1.70
  12  -7  -2   10.28    3.33
  12   7  -2   13.77    4.07
  12  -7  -2    3.65    2.37
  12   7  -2   11.30    3.04
  12  -7  -1   15.18    4.05
  12   7  -1   20.88    4.54
  12  -7  -1   14.57    4.41
  12   7  -1    5.86    2.78
  12   7   0   15.34    4.03
  12  -7   0   11.90    3.49
  12  -7   0    5.68    1.86
  12   7   0    4.47    2.91
  12   7   1   14.46    3.56
  12  -7   1    8.01    3.36
  12  -7   1   15.47    3.68
  12   7   1   19.04    4.04
  12   7   2   13.98    4.07
  12  -7   2   11.77    3.25
  12  -7   2    5.95    2.95
  12   7   2    9.47    3.12
  12   7   3   11.71    3.28
  12  -7   3    8.63    3.26
  12  -7   3    8.98    3.29
  12   7   3    9.50    2.71
  12   7   4   17.08    4.27
  12  -7   4   16.92    4.42
  12  -7   4   19.54    4.57
  12   7   4   15.98    3.86
  12   7   5   -0.78    1.75
  12  -7   5    2.16    1.78
  12  -7   5   -0.43    1.72
  12   7   5    3.45    2.35
  12   7   6    1.12    1.28
  12  -7   6    0.61    1.30
  12  -7   6    3.11    2.62
  12   7   6    1.20    1.16
  12   7   7    8.87    3.12
  12  -7   7   11.56    3.27
  12  -7   7   15.15    4.61
  12   7   7   10.16    3.22
  12   7   8    9.00    3.01
  12  -7   8    3.36    2.80
  12  -7   8    6.36    3.14
  12   7   8    6.08    2.80
  12   7   9   30.73    5.22
  12  -7   9   23.90    5.09
  12   7   9   32.88    5.63
  12  -7   9   26.57    4.77
  12   7  10    4.25    2.65
  12  -7  10    7.07    3.39
  12  -7  10    8.42    2.71
  12   7  10    4.62    2.39
  12   7  11   -0.67    1.73
  12  -7  11   -1.48    2.59
  12  -7  11   -0.45    2.26
  12   7  11    0.62    1.88
  12   7  12    9.30    3.23
  12  -7  12    3.60    1.66
  12  -7  12    7.42    4.43
  12   7  12    6.87    2.80
  12   7  13    8.85    3.88
  12  -7  13    8.87    3.30
  12  -7  13   13.42    4.18
  12   7  13   10.36    2.93
  12   7  14    5.64    3.09
  12  -7  14   -0.92    2.60
  12  -7  14   -0.35    1.79
  12   7  14    0.26    1.97
  12   7  15   17.82    4.71
  12  -7  15   13.44    4.02
  12   7  15    6.01    2.55
  12  -7  16    1.45    2.44
  12   7  16    1.71    2.79
  12   7  17    2.64    2.33
  12   8 -13    8.11    3.99
  12  -8 -13   14.62    4.12
  12  -8 -13   13.46    4.09
  12   8 -12   16.23    4.28
  12  -8 -12   15.85    3.82
  12  -8 -12   17.29    4.17
  12   8 -11    6.23    2.54
  12  -8 -11    1.54    1.91
  12  -8 -11    2.90    1.96
  12   8 -10    4.16    2.40
  12  -8 -10    6.26    2.92
  12  -8 -10    2.28    2.16
  12   8  -9    7.51    2.99
  12  -8  -9   12.90    3.92
  12  -8  -9    4.80    2.48
  12   8  -8    1.93    1.34
  12  -8  -8    7.67    3.03
  12  -8  -8    5.78    2.47
  12   8  -7   30.64    5.43
  12  -8  -7   30.35    5.86
  12  -8  -7   23.20    5.20
  12  -8  -6    9.08    2.88
  12   8  -6    9.42    3.69
  12  -8  -6    9.86    3.95
  12  -8  -5    1.43    1.51
  12   8  -5    1.88    2.33
 -12   8  -5    5.29    2.64
  12  -8  -5    0.95    1.66
  12  -8  -4    3.02    2.18
  12   8  -4    3.38    2.13
 -12   8  -4   11.36    3.67
  12  -8  -4    5.14    2.44
  12  -8  -3   19.40    3.95
  12   8  -3   22.79    5.04
 -12   8  -3   24.86    4.85
  12  -8  -3   33.01    6.04
  12  -8  -2    3.79    2.10
  12   8  -2    5.59    2.44
 -12   8  -2    7.91    3.63
  12  -8  -2    9.50    3.60
  12  -8  -1   -0.78    1.18
  12   8  -1    4.58    2.71
  12  -8  -1    2.27    1.53
  12   8  -1    3.09    2.36
  12  -8   0    0.02    1.70
  12   8   0    3.18    2.56
  12  -8   0    0.49    2.51
  12   8   0    1.91    1.45
  12  -8   1   -0.22    1.69
  12   8   1    4.59    2.75
  12  -8   1   -0.06    2.09
  12   8   1    0.66    0.84
  12  -8   2    2.26    2.03
  12   8   2    7.39    2.96
  12  -8   2    5.19    2.83
  12   8   2    7.08    3.42
  12  -8   3   20.54    4.38
  12   8   3   21.01    4.79
  12  -8   3   17.46    4.58
  12   8   3   27.56    5.07
  12   8   4    3.21    2.04
  12  -8   4    3.49    2.21
  12   8   4    4.14    2.27
  12  -8   4    2.13    1.69
  12   8   5   -1.21    1.66
  12  -8   5    2.28    2.55
  12   8   5    0.04    1.12
  12  -8   5    5.67    3.96
  12   8   6    5.29    2.02
  12  -8   6    6.11    2.44
  12   8   6   12.99    3.72
  12  -8   6   10.06    3.95
  12   8   7   19.77    4.48
  12  -8   7   22.38    4.91
  12   8   7   18.67    4.20
  12  -8   7   16.77    4.43
  12   8   8    5.39    2.12
  12  -8   8    6.36    2.85
  12   8   8    1.71    2.30
  12  -8   8    5.11    2.74
  12   8   9    6.94    2.67
  12  -8   9    7.42    3.59
  12   8   9   10.00    3.77
  12   8  10    5.39    2.14
  12  -8  10    5.61    3.21
  12   8  10    4.31    2.09
  12   8  11    2.64    1.54
  12  -8  11    2.44    2.43
  12   8  11   -0.77    3.12
  12   8  12    8.30    2.89
  12  -8  12    6.05    2.73
  12   8  12   11.21    3.71
  12   8  13    9.91    3.55
  12  -8  13   10.23    3.53
  12   8  13   10.47    3.13
  12   9  -8    0.16    1.57
  12  -9  -8    2.20    2.01
  12  -9  -8    3.64    2.83
  12   9  -7   -0.35    1.09
  12  -9  -7    1.81    2.67
  12  -9  -7    0.19    1.32
  12   9  -6    1.50    1.41
  12  -9  -6    0.12    2.54
  12  -9  -6    4.08    2.68
  12   9  -5    5.58    2.71
  12  -9  -5    2.24    2.59
  12  -9  -5    5.54    3.68
  12   9  -4    2.49    2.46
 -12   9  -4   -0.72    1.18
  12  -9  -4   -0.87    1.95
  12  -9  -4    3.74    2.48
  12   9  -3    8.21    3.66
 -12   9  -3    9.43    3.67
  12  -9  -3    8.66    3.36
  12  -9  -3    9.16    3.47
  12   9  -2    1.87    2.70
 -12   9  -2    0.46    1.05
  12  -9  -2    0.82    2.05
  12  -9  -2    2.31    2.35
  12  -9  -1    0.70    1.28
  12   9  -1    2.38    1.09
 -12   9  -1    5.37    2.59
  12  -9  -1    0.74    2.05
  12  -9   0    0.11    1.09
  12   9   0    3.73    2.46
 -12   9   0    1.24    1.75
  12  -9   0    1.44    2.71
  12  -9   1    3.35    1.49
  12   9   1    1.05    1.27
 -12   9   1    2.62    1.86
  12  -9   1    4.36    2.95
  12   9   1    5.81    2.21
  12  -9   2   -1.37    2.09
  12   9   2   -1.62    2.21
  12   9   2   -0.64    1.75
 -12   9   2    0.05    1.89
  12  -9   2   -1.47    2.11
  12  -9   3    8.54    3.48
  12   9   3    8.74    3.18
  12   9   3   14.39    3.71
 -12   9   3    8.63    2.41
  12  -9   4   -2.07    1.49
  12   9   4    1.07    2.19
  12   9   4    1.45    2.53
 -12   9   4   -2.03    2.30
  12  -9   5    3.40    2.63
  12   9   5    2.52    2.08
  12   9   5    2.00    2.17
 -12   9   5    6.36    3.14
  12  -9   6    3.76    2.66
  12   9   6    3.07    2.89
  12   9   6    0.27    1.70
 -12   9   6    4.67    2.87
  12  -9   7    0.58    1.95
  12   9   7    0.07    2.23
  12   9   7    2.46    2.52
 -12   9   7    1.18    1.11
  12  -9   8    2.07    1.68
  12   9   8    1.94    1.51
  12   9   8    5.60    2.85
 -12   9   8    2.05    2.15
  13   0 -22   10.77    4.71
  13   0 -21    0.91    1.14
  13   0 -20    0.71    1.92
  13   0 -19   -0.33    1.99
  13   0 -18    2.97    3.22
  13   0 -17    1.11    2.24
  13   0 -16   -0.73    1.80
  13   0 -15   -0.07    1.93
  13   0 -14    0.46    1.42
  13   0 -13   -0.03    1.01
  13   0 -12    0.32    1.36
  13   0 -11   -0.01    1.34
  13   0 -11    0.88    1.53
  13   0 -10    0.37    1.08
  13   0 -10    1.35    1.64
  13   0  -9   -0.77    1.54
  13   0  -9   -0.39    1.12
  13   0  -8   -0.52    1.35
  13   0  -8    1.63    1.30
  13   0  -7   -0.20    0.73
  13   0  -7    0.14    0.77
  13   0  -6   -0.41    1.24
  13   0  -6    0.31    1.13
  13   0  -5   -0.53    0.96
  13   0  -5   -1.18    0.89
  13   0  -4   -0.86    1.13
  13   0  -4    1.65    0.75
  13   0  -3   -0.52    1.22
  13   0  -3    1.24    1.88
  13   0  -3    1.51    1.66
  13   0  -2    0.42    0.92
  13   0  -2   -0.51    1.60
  13   0  -2    1.36    0.99
  13   0  -1   -0.50    0.69
  13   0  -1   -0.72    1.54
  13   0  -1    1.43    1.05
  13   0   0   -0.59    1.40
  13   0   0    0.07    1.80
  13   0   0   -0.64    1.61
  13   0   1   -0.50    1.58
  13   0   1   -0.94    1.52
  13   0   1   -0.77    1.06
  13   0   2    0.23    0.83
  13   0   2    0.53    0.86
  13   0   2    2.71    2.54
  13   0   3   -0.16    1.02
  13   0   3    0.01    1.47
  13   0   3    2.38    1.60
  13   0   4    0.14    0.94
  13   0   4   -0.41    0.79
  13   0   5    0.75    1.90
  13   0   5    0.90    1.56
  13   0   6    0.13    1.06
  13   0   6   -1.06    1.10
  13   0   7   -1.18    1.26
  13   0   7   -0.45    1.10
  13   0   8   -0.97    1.33
  13   0   8    0.03    1.38
  13   0   9    0.53    0.92
  13   0   9    1.11    1.35
  13   0  10   -1.01    1.93
  13   0  11   -0.17    2.07
  13   0  12    0.01    1.60
  13   0  13   -0.92    2.31
  13   0  14   -0.55    1.35
  13   0  15   -1.40    1.55
  13   0  16   -0.95    1.86
  13   0  17   -1.67    2.36
  13   0  18    1.02    1.33
  13   0  19   -0.97    0.92
  13   0  20   -1.29    2.28
  13   0  21   -1.09    1.56
  13   0  22   -0.25    2.18
  13   0  23    1.83    2.28
  13   0  24    0.75    1.60
  13  -1 -24    3.21    2.27
  13  -1 -23    2.31    2.34
  13  -1 -22    4.19    1.79
  13  -1 -21   25.58    4.79
  13  -1 -20   49.49    7.05
  13  -1 -19    4.28    2.39
  13  -1 -18    3.82    1.90
  13   1 -17   10.72    3.55
  13  -1 -17    4.48    0.98
  13   1 -16   63.62    7.38
  13  -1 -16   55.60    6.93
  13   1 -15   21.26    4.47
  13  -1 -15   19.29    4.53
  13   1 -14   44.20    6.06
  13  -1 -14   51.30    6.53
  13   1 -13    6.81    2.24
  13  -1 -13    8.98    2.46
  13  -1 -12   22.48    4.55
  13   1 -12   34.49    5.65
  13  -1 -12   35.63    5.93
  13  -1 -11    2.06    1.40
  13  -1 -11    4.96    2.34
  13   1 -11    4.66    2.44
  13  -1 -10   64.89    7.05
  13   1 -10   73.60    7.45
  13  -1 -10   74.53    7.91
  13   1 -10   81.30    8.12
  13   1 -10   82.67    7.87
  13  -1  -9   69.94    7.31
  13   1  -9   72.08    7.00
  13  -1  -9   71.59    7.70
  13   1  -9   61.16    7.38
  13  -1  -8    6.41    2.28
  13   1  -8    4.34    1.90
  13  -1  -8    7.35    2.87
  13   1  -8    3.64    2.02
  13   1  -8    8.52    2.86
  13  -1  -7   17.83    3.80
  13   1  -7   15.24    3.25
  13  -1  -7   14.47    3.82
  13   1  -7   14.84    3.74
  13   1  -7   15.37    3.43
  13  -1  -6   41.40    5.54
  13   1  -6   32.81    4.83
  13  -1  -6   35.21    5.33
  13   1  -6   41.41    5.64
  13   1  -6   32.95    5.19
  13  -1  -5  176.60   11.42
  13   1  -5  181.70   11.31
  13  -1  -5  185.75   12.20
  13   1  -5  169.59   11.51
  13   1  -5  176.19   11.31
  13  -1  -4   19.28    3.62
  13   1  -4   23.46    3.80
  13  -1  -4   22.48    4.25
  13   1  -4   20.64    3.96
  13   1  -4   19.22    3.87
  13  -1  -3   47.86    5.86
  13   1  -3   51.55    6.11
  13  -1  -3   53.95    6.60
  13   1  -3   56.25    6.37
  13   1  -3   57.07    6.25
  13  -1  -2   72.54    7.18
  13   1  -2   77.27    7.37
  13  -1  -2   66.37    7.38
  13   1  -2   81.56    7.70
  13   1  -2   69.64    7.00
  13  -1  -1   39.50    5.22
  13   1  -1   36.98    5.00
  13  -1  -1   31.55    5.03
  13   1  -1   37.01    5.30
  13   1  -1   40.27    5.29
  13  -1   0  661.66   21.85
  13   1   0  622.74   20.98
  13  -1   0  646.64   22.17
  13   1   0  627.16   21.59
  13   1   0  684.54   21.20
  13  -1   1   36.14    5.45
  13   1   1   37.81    4.90
  13   1   1   29.76    5.02
  13  -1   1   28.45    4.23
  13   1   1   34.26    5.15
  13  -1   2   76.08    7.34
  13   1   2   67.49    6.74
  13  -1   2   67.10    7.31
  13   1   2   68.72    7.13
  13   1   2   62.02    6.61
  13  -1   3   38.74    5.35
  13   1   3   48.02    5.72
  13  -1   3   56.87    6.78
  13   1   3   42.53    5.28
  13  -1   4   20.86    4.08
  13   1   4   30.44    4.63
  13  -1   4   26.60    4.65
  13   1   4   28.82    4.52
  13  -1   5  187.96   11.89
  13   1   5  170.52   11.19
  13   1   5  167.36   10.56
  13  -1   6   31.15    4.78
  13   1   6   36.90    5.13
  13   1   6   36.41    5.16
  13   1   7   13.53    3.21
  13  -1   7   12.25    3.37
  13   1   7   16.36    3.32
  13   1   8    8.22    2.53
  13  -1   8    1.50    1.74
  13   1   8    5.92    2.13
  13  -1   9   70.19    7.60
  13   1   9   79.82    7.67
  13   1   9   75.45    6.96
  13  -1  10   78.70    7.91
  13   1  10   75.67    7.56
  13   1  10   69.69    6.71
  13   1  11    1.93    1.07
  13  -1  11    1.69    1.17
  13   1  11    3.57    2.26
  13  -1  12   35.45    5.59
  13   1  12   29.59    5.12
  13   1  12   32.90    4.42
  13   1  13    4.52    1.57
  13  -1  13    3.38    2.30
  13  -1  14   59.85    7.17
  13   1  14   41.13    6.04
  13   1  15   16.82    3.93
  13  -1  15   19.19    4.28
  13  -1  16   49.09    6.49
  13   1  16   45.83    6.38
  13   1  17    8.44    3.04
  13  -1  17    8.68    2.29
  13   1  18   -1.30    2.16
  13  -1  18    2.49    1.86
  13   1  19    0.55    1.67
  13  -1  19   -1.33    2.15
  13  -1  20   55.22    7.39
  13   1  20   39.71    6.24
  13   1  21   24.49    5.27
  13  -1  21   34.47    6.20
  13   1  22    4.83    2.23
  13  -1  22    4.20    1.93
  13   1  23    0.50    1.34
  13  -1  23    3.97    3.33
  13   1  24    5.01    3.28
  13  -1  24   -2.24    2.53
  13  -2 -23    1.18    1.43
  13  -2 -22   -1.42    1.78
  13  -2 -21    3.71    1.01
  13  -2 -20    1.03    1.36
  13  -2 -19   -1.12    1.58
  13  -2 -18    0.95    1.07
  13  -2 -17   26.66    5.18
  13  -2 -16    5.04    2.25
  13  -2 -15    1.00    1.78
  13   2 -15    3.98    2.75
  13  -2 -14    3.65    1.47
  13   2 -14    1.69    1.35
  13  -2 -13    4.32    2.33
  13  -2 -13    5.89    2.25
  13   2 -13    3.81    1.94
  13   2 -12   22.56    4.96
  13  -2 -12   17.01    3.66
  13   2 -12   18.78    4.04
  13  -2 -12   25.55    4.95
  13   2 -11   82.17    8.01
  13  -2 -11   78.02    8.24
  13   2 -11   82.89    8.10
  13  -2 -11   71.25    7.64
  13  -2 -10    7.28    2.82
  13  -2 -10    4.75    1.96
  13   2 -10    1.35    1.76
  13   2 -10    6.13    2.11
  13  -2  -9    9.18    2.81
  13  -2  -9    6.42    3.01
  13   2  -9    7.15    2.34
  13   2  -9    6.68    2.74
  13  -2  -8   29.47    4.73
  13   2  -8   28.91    4.42
  13  -2  -8   26.78    4.78
  13   2  -8   33.14    5.02
  13   2  -8   26.28    4.22
  13  -2  -7   17.17    3.74
  13  -2  -7   13.85    3.36
  13   2  -7    9.42    3.55
  13   2  -7   16.85    3.59
  13   2  -7   19.91    3.82
  13  -2  -6    2.75    1.84
  13  -2  -6   -1.05    2.08
  13   2  -6    0.86    1.46
  13   2  -6    1.50    1.27
  13   2  -6    1.80    1.47
  13  -2  -5   -0.37    1.71
  13  -2  -5    1.34    1.89
  13   2  -5    0.74    1.23
  13   2  -5    0.29    1.11
  13   2  -5    1.04    1.73
  13  -2  -4   12.49    2.73
  13  -2  -4   11.03    2.90
  13   2  -4   13.70    3.49
  13   2  -4    8.95    2.45
  13   2  -4   10.62    2.62
  13  -2  -3   34.52    5.08
  13   2  -3   40.36    5.32
  13  -2  -3   50.52    6.47
  13   2  -3   44.06    5.87
  13   2  -3   51.60    5.94
  13  -2  -2   18.15    3.64
  13   2  -2   21.34    3.96
  13  -2  -2   19.70    4.13
  13   2  -2   24.43    4.20
  13   2  -2   13.60    3.51
  13  -2  -1   15.13    3.60
  13   2  -1   25.79    4.35
  13  -2  -1   21.66    4.07
  13   2  -1   19.13    3.79
  13   2  -1   23.69    4.24
  13  -2   0  304.94   15.26
  13   2   0  282.13   13.72
  13  -2   0  314.31   15.85
  13   2   0  296.52   14.95
  13   2   0  269.82   13.69
  13  -2   1   11.43    3.30
  13   2   1   28.20    4.31
  13  -2   1   22.91    4.43
  13   2   1   22.32    4.51
  13   2   1   24.10    4.18
  13   2   2   15.14    3.49
  13  -2   2   18.90    4.00
  13  -2   2   22.19    4.46
  13   2   2   24.36    3.92
  13  -2   3   47.93    6.11
  13   2   3   45.61    5.62
  13  -2   3   36.99    5.51
  13   2   3   43.02    5.51
  13   2   4    8.74    2.82
  13   2   4    9.68    2.85
  13  -2   4    9.14    2.63
  13  -2   4    7.70    2.55
  13   2   5    0.71    0.95
  13   2   5   -0.67    1.26
  13  -2   5   -0.99    1.18
  13  -2   5   -0.64    1.37
  13   2   6    1.54    2.03
  13   2   6    3.06    1.45
  13  -2   6    0.81    0.82
  13  -2   6    2.37    1.71
  13   2   7   16.08    3.29
  13   2   7   13.16    3.05
  13  -2   7   18.12    3.59
  13  -2   8   29.08    5.11
  13   2   8   33.94    5.05
  13   2   8   30.91    5.03
  13   2   9    6.17    2.04
  13   2   9    5.65    2.08
  13  -2   9    5.62    1.75
  13   2  10    7.37    2.51
  13  -2  10    7.75    3.04
  13   2  10    4.46    1.71
  13  -2  11   86.95    8.83
  13   2  11   81.27    8.24
  13   2  11   77.90    7.69
  13   2  12   20.30    4.41
  13  -2  12   19.11    4.28
  13   2  12   21.93    4.09
  13   2  13    7.20    2.25
  13  -2  13    5.13    2.19
  13   2  14    5.50    2.04
  13  -2  14    2.16    1.51
  13   2  15    2.37    1.03
  13  -2  15    4.58    2.25
  13   2  16   -0.20    1.76
  13  -2  16    3.74    2.43
  13  -2  17   21.66    4.70
  13   2  17   26.81    5.12
  13   2  18    1.65    2.15
  13  -2  18    0.96    2.00
  13   2  19    1.30    1.45
  13  -2  19   -0.82    2.17
  13   2  20    1.03    1.62
  13  -2  20    0.25    1.23
  13   2  21    6.19    2.88
  13  -2  21    3.63    2.60
  13   2  22    2.12    2.52
  13  -2  22    0.78    1.65
  13   2  23    5.76    2.64
  13  -2  23    0.12    2.42
  13  -3 -23    0.63    1.24
  13  -3 -22   26.08    5.57
  13  -3 -21    6.05    3.06
  13  -3 -20   13.49    3.89
  13  -3 -19    4.51    1.89
  13  -3 -18   11.84    3.50
  13   3 -18   10.22    3.58
  13  -3 -17   10.52    3.51
  13   3 -17    6.00    2.70
  13  -3 -16  101.71    9.67
  13   3 -16  101.44    9.53
  13  -3 -15   12.08    3.73
  13   3 -15   17.84    4.04
  13  -3 -14   53.40    6.86
  13  -3 -14   49.04    6.49
  13   3 -14   46.53    6.26
  13  -3 -13   13.39    3.61
  13  -3 -13   21.58    4.34
  13   3 -13   12.74    3.57
  13  -3 -12   82.00    8.54
  13   3 -12   74.68    7.76
  13  -3 -12   67.55    7.90
  13  -3 -11    2.56    2.20
  13  -3 -11    1.61    1.20
  13  -3 -10  182.90   12.48
  13   3 -10  163.89   11.52
  13  -3 -10  169.45   11.98
  13  -3  -9   15.81    3.76
  13  -3  -9   18.35    3.78
  13   3  -9   19.77    4.37
  13  -3  -8   29.35    4.99
  13  -3  -8   27.88    5.48
  13   3  -8   28.45    4.96
  13  -3  -7   16.35    3.86
  13  -3  -7   10.96    2.48
  13   3  -7   11.36    2.79
  13   3  -7   19.78    3.86
  13  -3  -6   38.12    5.78
  13   3  -6   32.25    4.69
  13  -3  -6   38.88    5.95
  13   3  -6   24.89    4.29
  13   3  -6   31.33    4.85
  13   3  -5    6.13    2.31
  13   3  -5    7.36    2.28
  13  -3  -5    5.28    2.14
  13  -3  -5    7.33    2.59
  13   3  -5    3.27    1.22
  13  -3  -4  117.60    9.62
  13   3  -4  134.47    9.67
  13  -3  -4  131.82   10.38
  13   3  -4  130.10    9.88
  13   3  -4  145.19   10.48
  13   3  -3   15.76    3.25
  13   3  -3   14.61    3.36
  13  -3  -3   22.72    4.50
  13  -3  -3   16.32    4.20
  13   3  -3   16.57    3.52
  13   3  -2    3.13    2.38
  13   3  -2    2.83    1.99
  13  -3  -2   -0.41    1.34
  13  -3  -2    1.27    1.17
  13   3  -2    3.54    1.50
  13   3  -1   11.66    3.36
  13   3  -1   11.41    3.07
  13  -3  -1    9.20    2.70
  13  -3  -1    9.72    3.10
  13   3  -1    9.08    2.47
  13  -3   0   48.59    6.17
  13  -3   0   51.50    6.91
  13   3   0   43.00    5.80
  13   3   0   41.86    5.34
  13   3   0   49.47    6.05
  13   3   1   13.27    3.55
  13   3   1   11.26    2.83
  13  -3   1   10.17    3.01
  13  -3   1    6.27    2.00
  13   3   1    8.57    2.29
  13   3   2    0.48    1.50
  13   3   2    1.68    1.79
  13  -3   2    2.36    1.57
  13  -3   2    2.14    1.43
  13   3   3    9.86    2.87
  13   3   3   12.63    3.16
  13  -3   3   15.64    3.29
  13  -3   3   14.68    3.13
  13  -3   4  130.44   10.28
  13  -3   4  138.03   10.79
  13   3   4  147.69   10.57
  13   3   4  122.33    9.46
  13   3   5    3.68    1.78
  13   3   5    6.91    2.18
  13  -3   5    8.85    3.14
  13  -3   5    4.11    3.10
  13  -3   6   36.53    5.26
  13  -3   6   40.42    6.01
  13   3   6   33.87    5.21
  13   3   6   33.70    4.83
  13   3   7   18.87    4.14
  13   3   7   12.33    3.50
  13  -3   7   17.79    3.81
  13  -3   7   16.66    3.72
  13  -3   8   30.09    4.70
  13  -3   8   26.01    4.41
  13   3   8   28.74    4.85
  13   3   8   29.07    5.03
  13   3   9   17.09    3.39
  13  -3   9   17.74    3.71
  13   3   9   27.68    4.86
  13  -3  10  166.41   11.58
  13   3  10  168.01   11.43
  13   3  10  161.04   11.51
  13   3  11    2.67    1.78
  13   3  11    0.43    0.85
  13  -3  11    0.54    2.02
  13  -3  12   75.40    8.25
  13   3  12   79.44    7.79
  13   3  12   81.85    8.30
  13   3  13   10.07    2.57
  13   3  13   18.14    4.30
  13  -3  13   18.85    4.06
  13  -3  14   58.73    7.28
  13   3  14   64.60    7.38
  13   3  15   13.26    3.91
  13  -3  15    8.33    2.93
  13  -3  16  128.44   10.83
  13   3  16  106.24   10.10
  13   3  17    6.79    2.76
  13  -3  17    2.87    1.17
  13   3  18    6.10    3.10
  13  -3  18    4.56    3.16
  13   3  19    6.89    2.77
  13  -3  19    2.69    2.09
  13   3  20    6.27    2.63
  13  -3  20   10.01    3.53
  13   3  21    2.21    1.48
  13  -3  21    8.29    3.08
  13   3  22   20.36    4.17
  13   3  23    1.52    1.87
  13  -4 -21    1.03    1.08
  13  -4 -20    1.81    1.71
  13   4 -20    7.93    3.75
  13  -4 -19    6.86    2.99
  13   4 -19    5.87    2.77
  13  -4 -18    1.90    2.02
  13   4 -18   -3.99    2.45
  13  -4 -17    7.36    2.36
  13   4 -17    4.76    2.62
  13  -4 -16    3.17    2.01
  13   4 -16    2.54    0.94
  13  -4 -15    4.84    2.08
  13   4 -15    6.50    1.64
  13  -4 -14    1.28    1.15
  13  -4 -14    0.28    1.42
  13   4 -14    3.00    1.79
  13  -4 -13    0.02    1.08
  13  -4 -13    0.87    2.12
  13   4 -13   -1.15    1.62
  13  -4 -12    5.22    2.11
  13  -4 -12   -0.15    1.43
  13   4 -12    6.56    2.36
  13  -4 -11   -0.40    1.31
  13  -4 -11   -0.79    1.27
  13   4 -11   -2.36    2.21
  13   4 -10    1.93    1.63
  13  -4 -10    3.52    0.95
  13  -4 -10    2.85    1.57
  13  -4  -9   86.59    8.96
  13   4  -9   88.70    8.50
  13  -4  -9   77.27    8.20
  13   4  -8    1.30    1.13
  13  -4  -8    0.08    1.35
  13  -4  -8    0.56    1.26
  13   4  -7    5.34    2.19
  13  -4  -7    7.67    2.35
  13  -4  -7    5.07    2.56
  13  -4  -6   47.14    6.48
  13   4  -6   51.86    6.33
  13   4  -6   55.01    6.71
  13  -4  -6   60.12    6.93
  13   4  -5    1.00    1.00
  13   4  -5    1.79    1.07
  13  -4  -5    2.52    2.17
  13   4  -4   14.66    3.75
  13   4  -4   11.88    3.08
  13  -4  -4   17.10    3.65
  13  -4  -4   17.36    4.46
  13   4  -3    0.83    1.27
  13   4  -3    3.10    2.03
  13  -4  -3    3.13    2.49
  13  -4  -3    0.28    1.40
  13  -4  -2   71.59    7.62
  13  -4  -2   79.49    8.37
  13   4  -2   70.37    7.20
  13   4  -2   65.29    7.41
  13  -4  -1   36.94    5.37
  13  -4  -1   28.60    4.98
  13   4  -1   41.43    5.35
  13   4  -1   41.73    5.71
  13   4   0    1.28    1.71
  13  -4   0    0.60    0.85
  13   4   0    0.38    1.20
  13  -4   0   -0.46    1.46
  13   4   0    0.64    1.11
  13  -4   1   47.51    6.27
  13  -4   1   43.54    6.31
  13   4   1   38.97    5.52
  13   4   1   37.74    5.48
  13  -4   2   80.27    8.11
  13  -4   2   72.07    8.09
  13   4   2   71.15    7.38
  13   4   2   78.64    7.78
  13   4   3    2.19    1.53
  13  -4   3    3.77    1.72
  13   4   3    1.95    1.83
  13  -4   3    1.67    2.10
  13   4   4   10.65    3.18
  13  -4   4   12.17    3.38
  13   4   4   13.37    3.51
  13  -4   4   12.05    3.58
  13   4   5    0.81    1.19
  13  -4   5    3.96    2.62
  13   4   5    1.87    1.07
  13  -4   5    3.10    1.40
  13   4   6   52.14    6.42
  13  -4   6   50.89    6.63
  13  -4   6   40.49    6.16
  13   4   6   42.74    5.88
  13   4   7    5.26    1.92
  13  -4   7    6.89    2.35
  13   4   7    4.27    1.90
  13  -4   7   11.06    3.44
  13   4   8    0.63    1.77
  13  -4   8    0.18    1.46
  13   4   8    0.04    0.84
  13  -4   8   -0.38    1.79
  13   4   9   82.12    8.24
  13  -4   9   81.20    8.39
  13  -4   9   67.84    7.87
  13   4   9   87.98    8.59
  13   4  10    3.53    2.62
  13  -4  10    3.99    1.73
  13   4  10    2.31    1.02
  13  -4  10    0.86    1.78
  13   4  11   -1.49    1.60
  13  -4  11    2.15    2.20
  13   4  11    0.76    0.97
  13  -4  11    0.37    1.72
  13   4  12    4.25    2.28
  13  -4  12    1.75    2.10
  13   4  12    2.76    1.93
  13   4  13    1.93    1.35
  13  -4  13   -0.77    1.90
  13   4  13    1.06    1.21
  13  -4  14    4.54    2.63
  13   4  14    1.59    1.75
  13  -4  15   17.89    4.26
  13   4  15    6.15    2.73
  13  -4  16    2.34    2.08
  13   4  16    2.76    2.24
  13  -4  17    5.09    2.47
  13   4  17   13.25    3.93
  13  -4  18    1.90    2.45
  13   4  18    1.21    1.29
  13   4  19    6.33    2.60
  13  -4  19    5.52    2.61
  13   4  20    3.63    2.69
  13  -4  20    2.94    3.60
  13   4  21    8.56    3.05
  13  -5 -20    7.13    2.69
  13  -5 -19    5.05    2.51
  13   5 -19    1.64    1.91
  13  -5 -18    2.52    2.05
  13   5 -18    1.35    2.13
  13  -5 -17   15.07    4.13
  13  -5 -17   13.58    4.40
  13   5 -17    8.03    3.46
  13  -5 -16    9.45    3.21
  13  -5 -16    8.44    3.09
  13   5 -16   17.42    4.03
  13  -5 -15    6.67    3.54
  13  -5 -15    7.27    2.95
  13   5 -15    6.94    2.39
  13  -5 -14   11.99    3.70
  13  -5 -14   17.94    4.51
  13   5 -14    8.55    3.45
  13   5 -13    5.27    2.70
  13  -5 -13    3.56    1.58
  13  -5 -13    8.20    3.07
  13   5 -12   10.38    3.38
  13  -5 -12   12.00    3.13
  13  -5 -12    9.51    3.33
  13  -5 -11   38.93    6.01
  13  -5 -11   32.89    5.57
  13   5 -11   34.20    5.28
  13   5 -10   14.25    3.72
  13  -5 -10   10.95    3.20
  13  -5 -10   17.13    4.08
  13   5  -9    3.19    2.41
  13  -5  -9    1.93    1.33
  13  -5  -9    1.69    1.55
  13   5  -8    7.97    2.73
  13  -5  -8    1.07    1.64
  13  -5  -8    4.63    2.80
  13   5  -7   22.38    4.42
  13  -5  -7   17.21    3.89
  13  -5  -7   28.58    5.61
  13  -5  -6   53.93    6.72
  13   5  -6   49.20    6.40
  13  -5  -6   48.13    6.66
  13   5  -5   13.32    3.77
  13  -5  -5   13.70    3.80
  13  -5  -5   17.22    4.20
  13  -5  -4   49.19    6.87
  13   5  -4   52.45    6.15
  13   5  -4   50.29    6.38
  13  -5  -4   39.97    5.88
  13  -5  -3   22.77    4.47
  13  -5  -3   20.69    4.45
  13   5  -3   28.51    4.49
  13   5  -3   34.92    5.42
  13  -5  -2   92.94    9.03
  13   5  -2   79.03    7.72
  13   5  -2   88.09    8.43
  13  -5  -2   83.75    8.59
  13  -5  -1   79.20    8.31
  13  -5  -1   63.74    7.72
  13   5  -1   64.22    7.20
  13   5  -1   55.02    6.56
  13   5   0   10.76    3.34
  13  -5   0    7.32    2.17
  13   5   0   14.33    3.51
  13  -5   0   13.94    4.55
  13   5   1   60.88    6.91
  13  -5   1   51.34    6.52
  13  -5   1   57.95    7.38
  13   5   1   56.31    6.70
  13   5   2   91.20    8.53
  13  -5   2   82.03    8.49
  13  -5   2   87.54    9.18
  13   5   2   78.25    8.27
  13   5   3   39.47    5.66
  13  -5   3   28.44    4.94
  13  -5   3   28.76    4.94
  13   5   3   29.35    5.36
  13   5   4   55.45    6.45
  13  -5   4   50.56    6.66
  13  -5   4   51.78    7.05
  13   5   4   46.80    6.77
  13   5   5    9.50    2.42
  13  -5   5   17.06    3.93
  13   5   5    8.91    2.91
  13  -5   5    9.71    3.01
  13   5   6   30.87    4.91
  13  -5   6   43.79    6.56
  13   5   6   52.52    6.61
  13  -5   6   50.05    6.79
  13   5   7   14.69    3.27
  13   5   7   22.05    4.48
  13  -5   7   22.90    4.70
  13  -5   7   13.65    3.29
  13   5   8    1.98    1.97
  13  -5   8    3.13    1.27
  13   5   8    5.22    2.22
  13  -5   8    2.63    1.60
  13   5   9    1.16    2.76
  13  -5   9    0.46    1.43
  13   5   9    5.11    1.98
  13  -5   9    2.50    1.96
  13   5  10   13.56    3.37
  13  -5  10   15.16    3.40
  13   5  10   10.48    3.32
  13  -5  10   21.50    4.90
  13   5  11   32.36    5.29
  13  -5  11   34.04    5.82
  13  -5  11   30.46    5.51
  13   5  11   38.85    5.89
  13   5  12   14.44    3.83
  13  -5  12    8.41    3.26
  13   5  12    9.91    3.19
  13  -5  12    9.54    3.67
  13   5  13    6.89    3.12
  13  -5  13    3.73    1.73
  13   5  13    7.39    2.45
  13  -5  13   -0.12    1.54
  13   5  14   18.63    4.13
  13  -5  14   14.24    3.92
  13   5  14    8.11    2.66
  13  -5  14   19.68    4.97
  13  -5  15    2.34    1.46
  13   5  15    4.27    2.73
  13  -5  15    2.48    2.23
  13  -5  16    9.69    3.07
  13   5  16    9.15    2.48
  13  -5  17    9.47    3.14
  13   5  17   13.44    3.17
  13  -5  18    1.59    1.16
  13   5  18    3.34    2.30
  13  -5  19    5.49    3.17
  13   5  19    3.39    2.32
  13   5  20    8.91    3.14
  13  -6 -18    1.50    1.79
  13  -6 -18    1.82    2.57
  13   6 -18   -0.77    1.27
  13  -6 -17   -0.81    1.30
  13  -6 -17   -1.04    1.75
  13   6 -17   -0.26    1.80
  13  -6 -16    0.78    2.03
  13  -6 -16   -0.68    1.71
  13   6 -16    1.16    2.38
  13   6 -15    0.62    0.94
  13  -6 -15    3.08    2.46
  13  -6 -15    3.93    2.30
  13   6 -14    0.84    1.69
  13  -6 -14    4.05    2.61
  13  -6 -14    4.25    1.95
  13   6 -13    6.21    3.32
  13  -6 -13    1.03    1.84
  13  -6 -13    7.71    4.12
  13  -6 -12    1.06    1.76
  13   6 -12    0.77    1.85
  13  -6 -12    0.15    1.72
  13  -6 -11    0.08    1.37
  13   6 -11    4.44    2.06
  13  -6 -11    6.99    3.04
  13   6 -10    3.33    1.20
  13  -6 -10    0.87    1.68
  13  -6 -10    1.87    1.32
  13  -6  -9    0.78    1.62
  13  -6  -9    0.30    1.67
  13   6  -8    1.73    1.83
  13  -6  -8    0.65    1.41
  13  -6  -8    2.92    1.97
  13   6  -7    4.00    2.62
  13  -6  -7    2.70    2.73
  13  -6  -7    0.74    1.67
  13   6  -6    1.35    0.99
  13  -6  -6    1.90    1.66
  13  -6  -6    1.67    1.65
  13   6  -5    1.80    1.53
  13  -6  -5    1.19    1.40
  13  -6  -5    2.34    2.39
  13   6  -4   -0.50    1.10
  13  -6  -4   -0.94    0.87
  13  -6  -4    0.55    1.13
  13   6  -3    4.77    2.37
  13  -6  -3    2.84    1.51
  13   6  -3    4.20    2.26
  13  -6  -3    7.30    2.71
  13   6  -2    7.19    1.82
  13  -6  -2    5.37    2.41
  13   6  -2    6.31    2.22
  13  -6  -2    3.12    2.33
  13   6  -1    3.66    2.20
  13  -6  -1    7.78    3.38
  13   6  -1    4.61    2.22
  13  -6  -1    3.89    2.25
  13   6   0    1.68    1.59
  13  -6   0    0.60    0.90
  13   6   0    0.86    1.34
  13  -6   0    1.18    2.08
  13   6   1    4.05    2.12
  13  -6   1    3.42    1.84
  13   6   1    4.30    2.08
  13  -6   1    4.75    2.41
  13   6   2    4.75    3.14
  13  -6   2    5.17    2.38
  13   6   2    3.12    1.52
  13  -6   2    4.05    1.10
  13   6   3    8.24    3.07
  13  -6   3    8.37    3.17
  13   6   3    5.92    2.88
  13  -6   3    6.20    1.15
  13   6   4   -2.20    1.60
  13  -6   4    1.07    2.24
  13   6   4    1.57    1.14
  13  -6   4   -2.17    2.04
  13   6   5   -0.65    0.99
  13  -6   5    2.03    2.16
  13   6   5    0.48    0.96
  13  -6   5    0.49    1.72
  13   6   6    0.44    1.59
  13  -6   6    0.26    2.17
  13   6   6    0.56    0.89
  13  -6   6    2.06    2.54
  13   6   7    3.33    1.55
  13  -6   7    0.67    1.30
  13   6   7    2.02    1.23
  13  -6   7    0.94    1.46
  13   6   8    3.02    1.77
  13  -6   8    2.56    2.01
  13   6   8    0.60    1.08
  13  -6   8   -0.03    1.26
  13   6   9    5.47    3.21
  13  -6   9    0.60    2.75
  13   6   9    0.78    2.14
  13  -6   9    5.42    2.49
  13   6  10    4.51    2.81
  13  -6  10   -0.51    1.81
  13   6  10    2.93    2.35
  13  -6  10    3.46    2.45
  13   6  11    8.38    3.57
  13  -6  11    3.69    2.58
  13   6  11    3.14    1.69
  13  -6  11    2.49    2.18
  13   6  12    0.61    1.61
  13  -6  12    2.89    2.42
  13   6  12    0.07    1.83
  13  -6  12    0.10    2.68
  13   6  13    1.71    1.85
  13  -6  13    4.46    2.15
  13   6  13    5.53    2.57
  13  -6  13    2.24    1.75
  13   6  14    5.20    3.00
  13  -6  14    1.07    1.57
  13   6  14    1.24    2.73
  13  -6  14    1.37    2.32
  13  -6  15    2.20    1.53
  13   6  15    0.52    1.03
  13  -6  15    1.76    2.15
  13  -6  16    0.90    2.11
  13   6  16    2.20    0.99
  13  -6  16   -0.30    2.64
  13  -6  17    1.90    2.21
  13   6  17    0.83    1.41
  13  -6  17    4.19    3.01
  13   6  18    0.90    1.51
  13  -6  18    1.20    2.52
  13   7 -15    5.62    2.71
  13  -7 -15    5.72    3.33
  13  -7 -15    5.51    2.59
  13   7 -14    0.78    1.31
  13  -7 -14   14.51    4.01
  13  -7 -14   11.77    4.11
  13   7 -13   -2.96    2.07
  13  -7 -13    1.96    1.55
  13  -7 -13    4.61    2.69
  13   7 -12    0.22    2.30
  13  -7 -12    2.05    1.58
  13  -7 -12    2.08    1.59
  13   7 -11    3.52    1.51
  13  -7 -11    4.96    3.01
  13  -7 -11    4.82    2.35
  13   7 -10   25.40    5.06
  13  -7 -10   36.82    6.14
  13  -7 -10   36.65    5.94
  13  -7  -9    5.66    3.08
  13   7  -9    8.28    3.73
  13  -7  -9    5.16    2.68
  13  -7  -8   10.03    3.31
  13   7  -8    5.03    2.34
  13  -7  -8    9.05    3.71
  13  -7  -7    3.05    2.13
  13   7  -7    1.58    2.14
  13  -7  -7    1.41    2.79
  13  -7  -6   22.61    4.89
  13  -7  -6   26.65    5.21
  13   7  -6   33.20    5.50
  13  -7  -5    0.47    1.42
  13   7  -5    3.09    1.51
  13  -7  -5    4.45    2.47
  13  -7  -4   12.72    2.91
  13   7  -4   18.62    3.79
  13  -7  -4   12.00    2.86
  13   7  -3    9.66    2.55
  13  -7  -3    7.66    2.43
  13  -7  -3    5.03    2.72
  13   7  -2    7.60    3.13
  13  -7  -2    8.44    2.90
  13  -7  -2   12.02    2.85
  13   7  -1    2.97    2.36
  13  -7  -1    3.71    1.95
  13   7  -1    7.12    2.70
  13  -7  -1   11.36    3.93
  13   7   0    4.69    1.66
  13   7   0    5.57    1.86
  13  -7   0    3.12    1.16
  13   7   1    6.31    2.08
  13  -7   1    7.98    2.42
  13   7   1    5.09    2.41
  13  -7   1    6.47    2.51
  13   7   2    8.34    2.79
  13  -7   2   10.42    3.75
  13  -7   2   18.67    4.41
  13   7   2    9.23    3.07
  13   7   3   12.68    3.34
  13  -7   3    9.91    3.36
  13  -7   3    4.52    2.12
  13   7   3   10.00    3.33
  13   7   4   13.28    3.94
  13  -7   4   21.97    4.80
  13  -7   4   17.76    4.21
  13   7   4    9.52    3.12
  13   7   5    2.96    2.07
  13  -7   5   -0.17    1.40
  13  -7   5    1.97    1.92
  13   7   5    1.73    1.16
  13   7   6   38.36    6.05
  13  -7   6   33.75    5.95
  13  -7   6   21.43    4.75
  13   7   6   22.97    4.36
  13   7   7    4.12    2.10
  13  -7   7    6.10    2.40
  13  -7   7    3.77    2.38
  13   7   7    2.55    1.66
  13   7   8    8.96    2.89
  13  -7   8    9.19    3.13
  13  -7   8    7.11    2.96
  13   7   8    4.01    1.77
  13   7   9    4.42    2.49
  13  -7   9    1.67    1.58
  13  -7   9    3.45    1.90
  13   7   9    0.01    1.62
  13   7  10   35.12    5.93
  13  -7  10   23.39    4.71
  13   7  10   24.29    5.00
  13  -7  10   32.52    5.89
  13   7  11    7.42    3.45
  13  -7  11    7.02    2.72
  13  -7  11    1.73    2.61
  13   7  11    3.59    1.34
  13   7  12    6.30    2.88
  13  -7  12    3.23    1.24
  13  -7  12    2.27    1.75
  13   7  12    5.23    1.90
  13   7  13    1.42    1.67
  13  -7  13    3.45    3.68
  13  -7  13    3.72    2.64
  13   7  13    3.12    1.02
  13   7  14    4.68    3.87
  13  -7  14    8.23    3.19
  13  -7  14    8.26    2.86
  13   7  14    7.68    2.54
  13  -7  15    2.44    1.62
  13  -7  15    4.30    3.30
  13   7  15    2.81    1.80
  13   8 -11    5.95    2.42
  13  -8 -11    2.89    2.66
  13  -8 -11   -0.35    2.06
  13   8 -10    2.05    1.95
  13  -8 -10   -1.09    1.14
  13  -8 -10    0.59    1.32
  13   8  -9   -2.65    2.58
  13  -8  -9    1.78    2.16
  13  -8  -9   -0.70    1.69
  13   8  -8    0.82    2.04
  13  -8  -8   -0.19    1.76
  13  -8  -8    4.79    2.64
  13  -8  -7    3.17    1.57
  13   8  -7    0.30    2.15
  13  -8  -7    4.72    3.21
  13  -8  -6   -0.06    1.61
  13   8  -6   -0.16    1.44
  13  -8  -6    3.79    1.82
  13  -8  -5   -0.77    1.25
  13   8  -5   -0.35    1.28
  13  -8  -4   -1.73    2.49
  13   8  -4    3.29    2.88
 -13   8  -4   -1.02    2.58
  13  -8  -4   -1.38    2.05
  13  -8  -3    0.44    1.46
  13   8  -3    1.31    1.32
  13  -8  -3   -0.41    2.17
  13   8  -2   -2.50    1.25
  13  -8  -2    0.49    2.01
  13  -8  -1   -0.73    2.58
  13   8  -1    2.23    2.08
  13  -8  -1    1.98    2.06
  13  -8   0    1.26    1.50
  13   8   0   -0.44    1.45
  13  -8   0    0.56    1.57
  13   8   0    3.17    2.21
  13  -8   1   -0.68    1.78
  13   8   1    0.19    1.17
  13  -8   1   -1.41    3.21
  13   8   1    0.69    1.89
  13  -8   2    3.48    2.77
  13   8   2    1.55    1.10
  13  -8   2    1.32    1.73
  13   8   2    0.01    0.95
  13  -8   3    4.78    2.97
  13   8   3    1.76    1.46
  13  -8   3    2.47    2.86
  13   8   3   -0.38    1.32
  13  -8   4   -3.91    3.29
  13   8   4    1.73    2.71
  13  -8   4    1.70    2.07
  13   8   4   -0.98    1.33
  13  -8   5    1.35    1.90
  13   8   5   -1.03    1.52
  13  -8   5    5.66    3.04
  13   8   5    3.16    1.96
  13   8   6   -1.52    2.53
  13  -8   6    4.67    2.50
  13  -8   6    3.53    1.76
  13   8   6    3.47    2.08
  13   8   7    2.68    1.56
  13  -8   7    4.76    3.16
  13  -8   7    2.84    1.44
  13   8   7    6.22    2.72
  13   8   8   -0.21    2.17
  13  -8   8   -0.42    1.24
  13  -8   8   -0.26    2.06
  13   8   8    5.31    2.95
  13   8   9    1.85    1.36
  13  -8   9    1.31    2.17
  13  -8   9    2.11    2.70
  13   8   9    1.19    2.11
  13   8  10    1.81    2.07
  13  -8  10    1.97    3.14
  13   8  10   -0.57    1.75
  13   8  11    2.73    1.88
  13  -8  11    2.40    1.50
  13   8  11    3.02    2.18
  13   9  -4   12.71    3.79
  13  -9  -4   11.34    3.44
  13  -9  -3   -0.64    1.36
  13   9  -3    0.53    1.44
 -13   9  -3    1.29    1.57
  13  -9  -3    0.58    2.57
  13  -9  -2    3.09    2.76
  13   9  -2    0.09    1.97
 -13   9  -2    2.13    1.94
  13  -9  -2    3.00    2.56
  13  -9  -1   -0.51    2.09
  13   9  -1    1.57    1.57
 -13   9  -1    1.43    1.39
  13  -9  -1    1.63    1.92
  13  -9   0   13.87    4.36
  13   9   0    8.58    3.73
 -13   9   0    7.59    3.45
  13  -9   0    3.34    1.85
  13  -9   1    1.48    1.08
  13   9   1    2.20    1.74
 -13   9   1    3.74    3.12
  13  -9   1    3.74    2.16
  13  -9   2    3.41    2.09
  13   9   2    1.40    1.27
 -13   9   2    1.21    1.36
  13  -9   2    3.52    2.73
  13   9   2    0.18    1.81
  13  -9   3    4.09    1.88
  13   9   3    3.64    2.01
 -13   9   3    2.13    2.27
  13  -9   3    1.38    2.03
  13   9   3    5.81    2.80
  13   9   4   13.49    4.01
  13   9   4   13.18    3.64
  14   0 -20   13.64    3.01
  14   0 -19    3.14    1.57
  14   0 -18   -0.48    1.69
  14   0 -17    7.16    2.69
  14   0 -16   28.93    5.13
  14   0 -15    6.76    2.63
  14   0 -14   20.67    4.24
  14   0 -13   47.04    6.74
  14   0 -12   63.40    7.47
  14   0 -11   12.42    3.23
  14   0 -10   69.35    7.27
  14   0 -10   61.40    7.46
  14   0  -9    8.24    3.01
  14   0  -9   12.66    3.23
  14   0  -8   18.10    4.00
  14   0  -8   12.65    3.07
  14   0  -7   87.55    8.44
  14   0  -7   85.03    8.93
  14   0  -6  148.48   10.51
  14   0  -6  166.83   12.02
  14   0  -5   69.89    7.30
  14   0  -5   58.16    6.98
  14   0  -4  114.99    9.38
  14   0  -4  103.35    9.32
  14   0  -3   63.27    6.65
  14   0  -3   56.79    6.93
  14   0  -2   29.85    4.91
  14   0  -2   40.11    5.65
  14   0  -1   45.23    5.79
  14   0  -1   49.80    6.43
  14   0   0   94.98    8.58
  14   0   0   91.53    8.56
  14   0   0   97.12    8.62
  14   0   1   46.47    5.88
  14   0   1   51.08    6.45
  14   0   1   51.05    6.41
  14   0   2   36.91    5.04
  14   0   2   40.93    5.51
  14   0   2   34.43    5.21
  14   0   3   53.08    6.52
  14   0   3   58.27    7.36
  14   0   3   63.16    6.75
  14   0   4   92.47    8.42
  14   0   4  108.74    9.33
  14   0   4  110.30    8.86
  14   0   5   65.05    7.24
  14   0   5   60.14    7.00
  14   0   6  160.22   11.31
  14   0   7  100.74    8.97
  14   0   8   14.66    3.43
  14   0   9   10.88    3.13
  14   0  10   82.54    8.15
  14   0  11   12.88    3.25
  14   0  12   66.04    7.62
  14   0  13   45.30    6.51
  14   0  14   17.34    3.76
  14   0  15    4.62    2.52
  14   0  16   32.95    5.80
  14   0  17    3.04    1.80
  14   0  18    1.97    3.00
  14   0  19    6.54    3.64
  14   0  20   13.87    3.79
  14   0  21   16.69    3.96
  14   0  22    5.47    2.38
  14   0  23    6.64    2.39
  14  -1 -22    3.33    2.53
  14  -1 -21    2.50    2.03
  14  -1 -20    4.57    2.80
  14  -1 -19   -1.94    1.74
  14  -1 -18    7.61    2.93
  14  -1 -17    1.27    1.89
  14   1 -16    2.56    2.59
  14  -1 -16    0.76    1.48
  14   1 -15    7.24    2.99
  14  -1 -15    9.23    3.13
  14   1 -14    0.46    1.31
  14  -1 -14    0.59    0.95
  14   1 -13   -0.07    1.21
  14  -1 -13    1.02    2.37
  14   1 -12    1.30    0.92
  14  -1 -12    0.75    1.67
  14  -1 -11    0.31    1.45
  14  -1 -11    2.06    1.21
  14   1 -11   -0.22    1.61
  14  -1 -10    5.46    3.06
  14  -1 -10    6.83    2.43
  14   1 -10    2.64    1.66
  14  -1  -9    9.84    3.01
  14   1  -9    5.65    2.67
  14  -1  -9    7.57    2.89
  14   1  -9    5.88    2.56
  14   1  -9    5.80    2.58
  14  -1  -8    4.48    2.60
  14   1  -8    2.47    1.53
  14  -1  -8    0.63    1.31
  14   1  -8    2.40    1.10
  14   1  -8    1.49    1.76
  14  -1  -7   20.54    4.14
  14   1  -7   16.01    3.70
  14  -1  -7   16.49    3.91
  14   1  -7   17.83    3.57
  14   1  -7   21.36    4.23
  14  -1  -6    4.04    2.31
  14   1  -6    3.98    1.00
  14  -1  -6    1.82    1.56
  14   1  -6    1.95    0.97
  14   1  -6    0.11    1.47
  14  -1  -5   -0.40    1.12
  14   1  -5   -0.38    1.31
  14  -1  -5    2.40    2.09
  14   1  -5    0.39    1.74
  14   1  -5    1.01    2.00
  14  -1  -4    6.00    1.90
  14   1  -4    8.27    1.39
  14  -1  -4    9.70    2.76
  14   1  -4    5.98    2.79
  14   1  -4   10.26    2.84
  14  -1  -3    2.95    1.40
  14  -1  -3    8.53    3.28
  14   1  -3   10.84    3.12
  14   1  -3    7.83    3.01
  14   1  -3    7.26    2.25
  14  -1  -2   36.99    5.22
  14   1  -2   26.26    4.53
  14  -1  -2   31.92    5.29
  14   1  -2   29.55    4.68
  14   1  -2   21.46    4.00
  14  -1  -1   29.03    5.03
  14   1  -1   31.90    5.04
  14  -1  -1   34.28    5.53
  14   1  -1   37.29    5.36
  14   1  -1   33.93    5.19
  14  -1   0   35.23    5.39
  14   1   0   35.11    5.22
  14  -1   0   31.21    4.95
  14   1   0   32.27    4.93
  14   1   0   34.89    5.14
  14  -1   1   31.71    4.72
  14   1   1   32.75    4.92
  14  -1   1   32.16    5.25
  14   1   1   28.63    5.34
  14   1   1   31.81    5.04
  14  -1   2   36.35    5.48
  14   1   2   23.25    4.32
  14  -1   2   27.05    4.66
  14   1   2   33.92    5.18
  14   1   2   22.79    4.11
  14  -1   3   12.66    3.23
  14  -1   3    3.94    1.60
  14   1   3   14.10    3.41
  14   1   3    8.53    3.08
  14   1   3    6.89    2.81
  14   1   4    7.86    2.18
  14  -1   4    8.44    2.52
  14  -1   4   10.83    3.42
  14   1   4    8.59    2.53
  14   1   5   -0.05    0.98
  14  -1   5    0.36    1.22
  14  -1   5    1.85    1.61
  14   1   5    1.27    1.29
  14  -1   6    1.82    0.77
  14   1   6    0.64    1.03
  14   1   7   15.21    3.23
  14  -1   7   16.53    3.75
  14   1   7   25.14    4.37
  14   1   8    1.34    1.85
  14  -1   8    5.89    2.26
  14   1   8    4.34    2.09
  14   1   9    5.88    2.63
  14  -1   9   14.99    3.38
  14   1   9   10.16    2.91
  14   1  10    1.66    1.08
  14  -1  10    3.39    2.11
  14   1  10    2.12    1.37
  14   1  11   -0.01    1.36
  14  -1  11   -1.61    2.14
  14   1  11   -0.91    2.08
  14   1  12   -0.15    1.15
  14  -1  12    1.79    1.49
  14   1  13    1.53    1.68
  14  -1  13    1.37    1.28
  14   1  14    0.44    1.28
  14  -1  14    0.99    1.81
  14   1  15    5.37    2.60
  14  -1  15    5.79    2.41
  14   1  16    3.44    1.44
  14  -1  16    2.46    2.38
  14   1  17   -1.51    1.82
  14  -1  17   -0.70    1.16
  14   1  18    3.26    0.94
  14  -1  18    5.19    3.05
  14   1  19    0.50    1.36
  14  -1  19    1.96    1.49
  14   1  20    2.50    1.29
  14  -1  20    4.36    2.14
  14   1  21   -0.22    1.22
  14  -1  21    0.60    2.48
  14   1  22    2.71    2.33
  14  -1  22    2.40    2.39
  14  -2 -22    1.52    1.68
  14  -2 -21    9.68    3.31
  14  -2 -20   17.21    4.30
  14  -2 -19    2.35    2.86
  14  -2 -18    1.83    1.63
  14  -2 -17    8.37    2.93
  14  -2 -16   40.08    6.25
  14  -2 -15    8.00    2.97
  14  -2 -14   32.83    5.58
  14   2 -14   36.87    5.85
  14  -2 -13   11.23    3.70
  14  -2 -13   14.54    3.63
  14   2 -13   16.96    3.75
  14  -2 -12   31.94    5.40
  14   2 -12   29.60    5.40
  14  -2 -12   26.08    5.23
  14  -2 -11    4.35    1.85
  14  -2 -11    1.91    2.47
  14   2 -11    2.48    1.98
  14  -2 -10   29.95    5.08
  14  -2 -10   25.27    5.23
  14   2 -10   45.10    5.90
  14   2 -10   36.77    5.73
  14  -2  -9   41.48    6.26
  14  -2  -9   55.32    6.96
  14   2  -9   48.32    6.31
  14   2  -9   39.11    5.70
  14  -2  -8   10.88    2.98
  14   2  -8   22.27    4.54
  14  -2  -8   16.14    3.94
  14   2  -8   19.21    3.60
  14   2  -8   11.78    3.22
  14  -2  -7   10.07    3.05
  14  -2  -7   10.88    3.30
  14   2  -7    8.01    2.47
  14   2  -7    8.23    2.35
  14   2  -7   12.07    2.92
  14  -2  -6   46.34    6.48
  14   2  -6   46.27    6.01
  14  -2  -6   43.01    6.24
  14   2  -6   46.38    6.09
  14   2  -6   42.30    5.69
  14  -2  -5   41.77    6.13
  14   2  -5   31.03    5.05
  14  -2  -5   41.40    6.25
  14   2  -5   41.45    6.07
  14   2  -5   36.11    5.48
  14  -2  -4   58.15    6.82
  14   2  -4   57.97    6.66
  14  -2  -4   54.97    6.99
  14   2  -4   62.15    7.12
  14   2  -4   63.91    6.94
  14  -2  -3   13.93    3.60
  14   2  -3   24.45    4.67
  14  -2  -3   17.92    4.09
  14   2  -3   16.51    3.94
  14   2  -3   19.53    3.80
  14  -2  -2    8.62    2.80
  14  -2  -2    7.78    2.81
  14   2  -2    6.06    2.73
  14   2  -2    7.18    2.11
  14   2  -2    7.52    2.79
  14   2  -1    9.51    3.12
  14  -2  -1    3.72    2.11
  14  -2  -1    9.23    2.85
  14   2  -1    7.17    2.68
  14   2  -1   11.96    2.92
  14  -2   0  100.76    8.99
  14   2   0  111.49    9.14
  14  -2   0  124.84   10.34
  14   2   0  117.82    9.73
  14   2   0  126.36    9.90
  14   2   1   10.48    2.92
  14  -2   1    6.26    2.22
  14  -2   1    7.95    2.38
  14   2   1   10.72    3.36
  14   2   1    9.43    3.09
  14   2   2    6.55    2.35
  14  -2   2   10.62    2.78
  14  -2   2    9.95    3.02
  14   2   2   11.41    3.11
  14   2   2    7.96    2.97
  14   2   3   17.91    3.74
  14  -2   3   16.33    3.71
  14  -2   3   18.07    4.04
  14   2   3   19.80    4.28
  14  -2   4   58.95    7.09
  14   2   4   56.76    6.76
  14  -2   4   53.62    6.85
  14   2   4   62.21    7.20
  14  -2   5   36.67    5.60
  14   2   5   34.51    5.20
  14  -2   5   37.95    5.60
  14   2   5   26.14    4.62
  14  -2   6   37.67    5.63
  14   2   6   45.93    5.99
  14  -2   6   49.02    6.64
  14   2   6   40.03    5.60
  14   2   7   13.34    3.32
  14  -2   7    6.52    2.31
  14  -2   7   10.39    3.25
  14   2   7    4.53    2.28
  14   2   8   10.52    2.76
  14  -2   8   13.01    3.38
  14   2   8   12.48    3.76
  14  -2   9   53.34    6.62
  14   2   9   55.49    6.68
  14   2   9   45.02    5.91
  14  -2  10   40.21    5.90
  14   2  10   34.52    5.12
  14   2  10   29.90    5.01
  14   2  11    4.08    1.43
  14  -2  11    0.93    1.08
  14   2  11    4.01    1.41
  14  -2  12   18.17    4.21
  14   2  12   25.40    4.72
  14   2  12   22.82    4.24
  14   2  13   13.23    3.50
  14  -2  13   10.63    3.66
  14  -2  14   35.33    5.75
  14   2  14   38.06    6.01
  14   2  15    5.87    2.44
  14  -2  15    6.35    2.86
  14   2  16   23.10    4.72
  14  -2  16   27.52    5.03
  14   2  17    7.75    3.02
  14  -2  17    3.34    2.32
  14   2  18    1.03    1.01
  14  -2  18    2.76    1.68
  14   2  19   -0.25    1.59
  14  -2  19    4.57    2.68
  14   2  20   13.21    3.66
  14  -2  20   16.30    3.81
  14   2  21    5.56    2.94
  14  -2  21    6.28    3.11
  14   2  22    1.23    1.15
  14  -2  22    7.15    3.62
  14  -3 -21   -1.52    1.67
  14  -3 -20    5.51    2.98
  14  -3 -19   -1.18    2.39
  14  -3 -18    0.23    1.53
  14  -3 -17    1.11    1.54
  14   3 -17    1.70    2.05
  14  -3 -16    7.92    3.26
  14   3 -16   10.91    3.32
  14  -3 -15    4.21    2.49
  14   3 -15   -0.45    1.30
  14  -3 -14    4.20    1.82
  14  -3 -14    4.49    2.05
  14   3 -14    3.01    1.03
  14  -3 -13   -1.20    1.84
  14  -3 -13    2.94    2.59
  14   3 -13    1.17    2.09
  14  -3 -12    3.07    2.24
  14  -3 -12    1.46    2.46
  14   3 -12   -0.13    1.73
  14  -3 -11    5.22    1.96
  14  -3 -11    3.70    2.37
  14   3 -11    2.56    1.37
  14  -3 -10   22.52    4.59
  14   3 -10   23.02    4.33
  14  -3 -10   29.67    5.10
  14  -3  -9   -0.72    1.50
  14  -3  -9    1.97    2.42
  14   3  -9    1.71    1.48
  14  -3  -8    0.35    1.33
  14  -3  -8    0.46    1.68
  14   3  -8   -1.71    2.11
  14  -3  -7    1.13    1.09
  14  -3  -7    3.41    1.67
  14   3  -7    1.80    1.09
  14  -3  -6    7.80    2.68
  14  -3  -6    5.45    2.27
  14   3  -6    2.84    1.63
  14   3  -6    5.74    2.62
  14  -3  -5   12.30    3.59
  14   3  -5   15.15    4.58
  14  -3  -5    5.47    2.67
  14   3  -5   11.34    2.66
  14   3  -5   10.23    3.14
  14   3  -4    1.48    1.03
  14  -3  -4    1.71    2.19
  14  -3  -4   -0.18    1.42
  14   3  -4    3.39    2.42
  14   3  -4    1.15    1.62
  14   3  -3   12.66    3.52
  14   3  -3    5.20    2.38
  14  -3  -3   13.16    3.23
  14  -3  -3   10.06    3.69
  14   3  -3    8.88    3.03
  14  -3  -2   57.99    6.97
  14   3  -2   59.35    6.64
  14  -3  -2   59.74    7.41
  14   3  -2   79.21    7.93
  14   3  -2   77.25    7.59
  14   3  -1    8.91    2.68
  14   3  -1   15.40    3.53
  14  -3  -1   16.98    3.92
  14  -3  -1   16.07    4.14
  14   3  -1   17.39    3.80
  14  -3   0   62.57    7.42
  14  -3   0   57.35    7.22
  14   3   0   72.08    7.27
  14   3   0   62.04    6.87
  14   3   0   60.28    7.19
  14   3   1   11.34    3.24
  14   3   1   12.03    3.55
  14  -3   1   14.03    3.69
  14  -3   1   13.58    3.37
  14   3   1   11.85    3.52
  14  -3   2   63.27    7.14
  14  -3   2   70.51    7.86
  14   3   2   67.39    7.06
  14   3   2   67.62    7.44
  14   3   3   10.57    3.42
  14   3   3    9.77    3.00
  14  -3   3   15.12    3.70
  14  -3   3    9.31    3.33
  14   3   4   -0.60    1.48
  14   3   4    0.42    1.20
  14  -3   4    2.56    0.95
  14  -3   4    0.70    1.41
  14   3   5    7.51    2.82
  14   3   5    7.56    2.98
  14  -3   5    8.56    2.95
  14  -3   5   10.89    3.17
  14   3   6    8.02    2.60
  14   3   6   10.29    2.73
  14  -3   6    6.53    2.80
  14  -3   6    2.69    1.42
  14   3   7    4.40    2.06
  14   3   7    2.61    1.84
  14  -3   7    2.52    1.33
  14  -3   7    5.15    2.36
  14   3   8    1.24    2.12
  14   3   8    1.18    0.80
  14  -3   8   -0.90    1.64
  14  -3   8    0.64    2.13
  14   3   9    3.35    1.75
  14   3   9    3.67    2.52
  14  -3   9    1.85    1.45
  14  -3   9    7.62    2.99
  14   3  10   28.65    4.72
  14  -3  10   23.43    4.52
  14   3  10   26.12    4.77
  14   3  11   -0.01    1.16
  14   3  11    0.94    0.92
  14  -3  11    1.56    1.73
  14   3  12    1.91    1.65
  14   3  12    0.55    0.95
  14  -3  12   -0.96    1.85
  14   3  13    6.35    2.99
  14  -3  13    2.49    1.99
  14   3  14    3.89    1.36
  14  -3  14    2.88    1.84
  14   3  15    2.73    2.24
  14  -3  15    1.69    2.43
  14   3  16    8.45    3.17
  14  -3  16    4.45    2.53
  14   3  17    0.10    1.13
  14  -3  17   -2.01    2.39
  14   3  18    1.52    1.73
  14  -3  18    0.38    1.90
  14   3  19   -0.59    1.53
  14  -3  19   -2.58    1.74
  14   3  20    3.09    1.54
  14  -3  20    3.47    1.66
  14   3  21    0.71    1.96
  14  -3  21   -1.29    2.13
  14  -4 -20   22.74    5.60
  14   4 -20   22.05    5.75
  14  -4 -19    0.75    1.82
  14   4 -19    0.39    1.17
  14  -4 -18    5.44    2.79
  14   4 -18    6.41    2.99
  14  -4 -17   18.97    4.58
  14   4 -17   10.63    3.14
  14  -4 -16   13.80    4.00
  14   4 -16   13.61    4.17
  14  -4 -15    5.54    2.05
  14  -4 -15    9.50    2.69
  14   4 -15    3.94    2.04
  14  -4 -14   19.07    4.49
  14  -4 -14   19.37    4.38
  14   4 -14   23.76    4.49
  14  -4 -13    7.58    2.37
  14   4 -13    1.08    1.18
  14  -4 -12   19.92    4.48
  14  -4 -12   29.97    4.89
  14   4 -12   17.26    3.79
  14  -4 -11   20.88    4.43
  14  -4 -11   28.22    5.84
  14   4 -11   28.76    5.25
  14  -4 -10   19.80    4.68
  14  -4 -10   23.68    4.85
  14   4 -10   21.84    4.68
  14  -4  -9   25.62    4.85
  14   4  -9   28.04    5.33
  14  -4  -9   37.79    6.15
  14   4  -8    9.63    3.19
  14  -4  -8    8.48    3.12
  14  -4  -8   10.38    3.72
  14   4  -7    6.35    2.87
  14  -4  -7    5.82    1.97
  14  -4  -7    6.46    1.97
  14  -4  -6   38.50    6.00
  14   4  -6   47.69    6.53
  14  -4  -6   43.72    6.31
  14   4  -5    8.31    2.88
  14   4  -5    8.59    2.40
  14  -4  -5    7.55    2.83
  14  -4  -5   10.56    3.18
  14  -4  -4   42.56    6.09
  14  -4  -4   37.21    5.99
  14   4  -4   39.92    5.61
  14   4  -4   43.13    6.11
  14  -4  -3   24.98    4.90
  14  -4  -3   29.79    5.54
  14   4  -3   30.99    5.05
  14   4  -3   28.19    5.25
  14   4  -2    8.26    2.82
  14   4  -2    4.84    1.76
  14  -4  -2    7.43    2.36
  14  -4  -2    5.40    1.72
  14   4  -1   20.45    4.33
  14   4  -1   15.21    3.58
  14  -4  -1   17.45    4.15
  14  -4  -1   24.03    4.75
  14  -4   0  231.36   13.98
  14  -4   0  231.10   14.68
  14   4   0  219.28   13.10
  14   4   0  238.52   13.83
  14   4   1   15.56    3.35
  14   4   1   19.49    4.07
  14  -4   1   13.82    3.54
  14  -4   1    9.33    3.17
  14   4   1   12.89    3.78
  14   4   2    8.27    2.51
  14   4   2    9.47    2.86
  14  -4   2    7.01    3.12
  14  -4   2    6.58    2.22
  14  -4   3   32.26    5.25
  14  -4   3   33.84    5.94
  14   4   3   31.65    5.08
  14   4   3   26.72    4.80
  14  -4   4   34.44    5.57
  14  -4   4   25.76    4.79
  14   4   4   43.22    5.88
  14   4   4   39.77    5.61
  14   4   5   11.16    3.29
  14   4   5   10.89    3.06
  14  -4   5   17.43    3.92
  14  -4   5   10.59    3.07
  14  -4   6   42.52    6.17
  14  -4   6   31.04    5.72
  14   4   6   41.51    6.03
  14   4   6   45.75    6.24
  14   4   7   10.31    3.86
  14   4   7    6.73    2.56
  14  -4   7    5.84    2.97
  14  -4   7    5.29    2.77
  14   4   8   13.92    3.61
  14   4   8    9.85    2.83
  14  -4   8   11.60    3.66
  14  -4   8    3.18    1.09
  14  -4   9   34.16    5.77
  14  -4   9   35.95    5.93
  14   4   9   34.66    5.61
  14   4   9   29.12    5.04
  14   4  10   20.51    4.31
  14  -4  10   27.54    5.28
  14  -4  10   14.21    4.11
  14   4  10   27.02    5.11
  14   4  11   21.10    4.13
  14  -4  11   21.36    4.33
  14  -4  11   22.06    4.65
  14   4  11   32.16    5.41
  14   4  12   23.24    5.13
  14  -4  12   20.83    4.68
  14  -4  12   27.62    5.06
  14   4  12   31.87    5.37
  14   4  13    8.79    3.74
  14   4  13   11.30    3.40
  14  -4  13    6.77    3.36
  14  -4  13    5.51    2.94
  14   4  14   21.41    4.89
  14  -4  14   24.72    5.22
  14   4  15    2.00    1.00
  14  -4  15    6.05    2.41
  14   4  16   12.36    4.00
  14  -4  16   19.20    4.64
  14   4  17   20.34    4.80
  14  -4  17   13.97    4.15
  14   4  18    4.66    2.49
  14  -4  18    5.29    3.28
  14   4  19    0.20    1.85
  14  -4  19    6.50    3.93
  14   4  20   21.14    4.59
  14  -4  20   30.59    6.20
  14  -5 -18    2.86    2.49
  14   5 -18   -2.15    3.13
  14  -5 -17    0.24    1.49
  14   5 -17    0.96    2.26
  14  -5 -16   -0.87    1.86
  14   5 -16    3.18    1.75
  14  -5 -16    2.60    1.12
  14  -5 -15   -1.91    2.44
  14   5 -15   -1.27    1.63
  14  -5 -15    0.37    1.03
  14  -5 -14    1.98    1.54
  14  -5 -14    1.36    1.62
  14   5 -14    2.31    1.58
  14  -5 -13    0.61    1.86
  14  -5 -13   -1.14    1.27
  14   5 -13    1.79    1.77
  14  -5 -12    4.68    2.10
  14  -5 -12    4.97    2.15
  14   5 -11    5.24    3.08
  14  -5 -11    4.75    2.57
  14  -5 -11    1.91    1.09
  14   5 -10    6.59    2.86
  14  -5 -10   12.13    3.80
  14  -5 -10    4.60    2.00
  14   5  -9    9.27    2.79
  14  -5  -9    3.50    2.02
  14  -5  -9    6.33    2.54
  14   5  -8    0.86    2.29
  14  -5  -8    1.12    1.17
  14  -5  -8    3.78    2.30
  14   5  -7    2.90    2.43
  14  -5  -7    4.33    2.79
  14  -5  -7    2.36    1.98
  14   5  -6    1.34    1.57
  14  -5  -6    1.42    2.19
  14  -5  -6   -0.84    2.72
  14   5  -5    3.11    2.46
  14  -5  -5   -1.14    1.73
  14  -5  -5    1.66    2.14
  14   5  -4   11.25    3.16
  14  -5  -4    3.08    2.06
  14   5  -4   10.81    2.88
  14  -5  -4   13.05    4.14
  14   5  -3    3.81    1.72
  14  -5  -3    1.71    1.64
  14   5  -3    4.21    2.16
  14  -5  -3    4.72    2.47
  14   5  -2    6.34    2.78
  14  -5  -2    2.54    1.53
  14   5  -2    5.21    1.86
  14  -5  -2    3.65    2.06
  14   5  -1   17.67    4.05
  14  -5  -1   15.41    3.76
  14   5  -1   13.68    3.58
  14  -5  -1   13.01    4.13
  14  -5   0   52.10    6.75
  14  -5   0   48.07    6.82
  14   5   0   46.74    6.50
  14   5   0   40.90    5.73
  14   5   1   22.26    4.68
  14  -5   1   22.33    4.87
  14   5   1   17.28    3.77
  14  -5   1   13.12    2.55
  14   5   2    4.58    2.77
  14  -5   2    2.38    1.89
  14   5   2    5.78    2.62
  14  -5   2    9.26    3.74
  14   5   3    4.16    2.38
  14  -5   3    2.43    1.34
  14   5   3    2.30    1.67
  14  -5   3    1.32    1.13
  14   5   4    8.10    2.23
  14  -5   4    8.96    2.52
  14   5   4    6.87    2.94
  14  -5   4   10.96    3.58
  14   5   5    0.25    1.62
  14  -5   5    1.18    1.05
  14   5   5    1.17    1.05
  14  -5   5   -0.64    2.22
  14   5   6   -0.45    1.48
  14  -5   6    1.24    1.87
  14   5   6    1.24    1.41
  14  -5   6   -1.08    1.25
  14   5   7    5.58    2.40
  14  -5   7    4.61    2.53
  14   5   7    5.33    2.33
  14  -5   7    1.34    2.32
  14   5   8    3.20    1.31
  14  -5   8    3.02    1.56
  14   5   8    2.06    0.97
  14  -5   8    1.52    1.78
  14  -5   9    6.43    2.62
  14   5   9    2.52    1.43
  14  -5   9    3.03    1.91
  14   5  10   10.49    2.55
  14  -5  10    8.07    3.54
  14   5  10   12.37    3.58
  14  -5  10    7.25    2.79
  14   5  11    5.09    2.19
  14  -5  11    3.05    1.17
  14   5  11    4.87    2.66
  14  -5  11    8.35    3.19
  14   5  12    9.78    2.77
  14  -5  12    4.31    2.55
  14   5  12    4.27    2.39
  14  -5  12    5.44    2.25
  14   5  13    3.14    1.66
  14  -5  13    4.93    2.76
  14   5  13    0.43    0.91
  14  -5  13    1.38    1.68
  14  -5  14    4.95    3.07
  14   5  14    6.65    2.56
  14  -5  14    5.11    2.94
  14  -5  15   -0.46    2.02
  14   5  15   -1.27    1.58
  14  -5  15    0.74    1.99
  14  -5  16    1.95    1.63
  14   5  16    2.88    2.09
  14  -5  16    3.27    2.26
  14  -5  17    3.27    2.00
  14   5  17    0.28    1.53
  14  -5  17    2.18    3.59
  14  -5  18    0.16    1.25
  14   5  18    1.81    2.27
  14  -6 -16   13.87    3.36
  14  -6 -16   13.87    4.16
  14   6 -16   13.79    3.77
  14  -6 -15    0.53    1.17
  14  -6 -15    3.33    1.95
  14   6 -15    1.73    1.37
  14  -6 -14    4.16    1.64
  14  -6 -14    4.63    3.06
  14   6 -14    2.75    1.92
  14   6 -13    4.12    1.33
  14  -6 -13    7.42    2.78
  14  -6 -13    4.58    1.46
  14   6 -12   13.53    3.83
  14  -6 -12   12.77    4.14
  14  -6 -12   20.68    4.95
  14   6 -11    4.86    1.83
  14  -6 -11    4.31    2.14
  14  -6 -11    5.81    2.82
  14  -6 -10   49.06    7.24
  14  -6 -10   51.52    7.18
  14   6 -10   37.21    5.87
  14   6  -9   21.07    4.49
  14  -6  -9   16.98    4.36
  14  -6  -9    8.67    3.63
  14   6  -8    7.05    3.10
  14  -6  -8    7.92    2.70
  14  -6  -8    4.35    2.79
  14   6  -7   11.89    3.36
  14  -6  -7   13.10    3.76
  14  -6  -7    7.03    3.67
  14  -6  -6   51.15    7.27
  14  -6  -6   72.19    8.27
  14   6  -6   52.38    7.03
  14   6  -5   -1.16    1.25
  14  -6  -5    1.11    1.62
  14  -6  -5    3.04    3.17
  14  -6  -4   31.04    5.50
  14  -6  -4   34.71    6.08
  14   6  -4   35.50    5.70
  14   6  -3   21.28    4.27
  14  -6  -3   15.78    4.40
  14  -6  -3   16.88    4.71
  14   6  -2   13.69    3.83
  14  -6  -2   13.12    4.38
  14   6  -2   14.07    3.47
  14  -6  -2   15.20    4.35
  14   6  -1   20.33    4.33
  14  -6  -1   13.77    3.62
  14   6  -1   17.59    3.93
  14  -6  -1   18.05    4.56
  14  -6   0  118.35   10.84
  14   6   0  123.28   10.36
  14  -6   0  120.18   10.70
  14   6   0  117.30   10.30
  14   6   1   16.41    4.22
  14  -6   1   13.94    3.42
  14   6   1   14.52    3.47
  14  -6   1   18.53    4.95
  14   6   2   14.15    4.06
  14  -6   2   11.45    3.43
  14   6   2    9.10    3.07
  14  -6   2   13.30    4.02
  14   6   3   18.82    4.63
  14  -6   3   23.20    5.04
  14   6   3   19.19    4.37
  14  -6   3   18.19    4.85
  14   6   4   42.25    6.03
  14  -6   4   30.24    5.20
  14  -6   4   27.08    5.28
  14   6   4   31.33    5.47
  14   6   5    0.44    1.81
  14   6   5   -0.58    1.11
  14  -6   5    0.23    1.58
  14  -6   6   45.57    6.48
  14   6   6   54.61    6.59
  14  -6   6   61.20    8.46
  14   6   6   59.21    7.44
  14   6   7   10.10    3.20
  14  -6   7   11.86    3.61
  14   6   7   13.13    3.70
  14  -6   7   14.87    4.64
  14   6   8    9.55    3.45
  14  -6   8    4.77    1.72
  14   6   8    8.20    3.24
  14  -6   8    8.36    3.75
  14   6   9    7.40    3.34
  14  -6   9   16.47    4.28
  14   6   9    9.09    3.46
  14  -6   9    9.91    3.10
  14  -6  10   42.68    6.61
  14   6  10   39.77    5.97
  14  -6  10   41.53    6.90
  14   6  10   48.79    6.77
  14   6  11    3.58    2.25
  14  -6  11    4.56    1.63
  14   6  11    1.38    1.41
  14  -6  11    1.93    1.34
  14   6  12   13.79    3.91
  14  -6  12   11.39    3.88
  14   6  12   13.75    3.94
  14  -6  12   10.04    3.53
  14   6  13    0.74    1.66
  14  -6  13    6.15    2.86
  14   6  13    4.39    2.26
  14  -6  13    5.75    3.45
  14  -6  14    1.33    1.62
  14   6  14    1.61    1.22
  14  -6  14    0.50    1.72
  14  -6  15    2.49    1.74
  14   6  15    3.81    2.41
  14  -6  15    1.77    2.32
  14  -6  16   17.76    4.96
  14   6  16   13.48    3.80
  14  -6  16   14.62    3.82
  14   7 -13    0.51    2.15
  14  -7 -13    1.63    2.34
  14  -7 -13    1.46    2.49
  14   7 -12    5.15    2.09
  14  -7 -12    3.46    2.40
  14   7 -11   -0.55    2.11
  14  -7 -11   -0.09    1.61
  14  -7 -11    0.32    1.14
  14  -7 -10    0.21    2.43
  14   7 -10    3.94    1.52
  14  -7 -10    5.15    2.45
  14  -7  -9    1.21    2.24
  14   7  -9   -0.62    1.24
  14  -7  -9    3.57    2.56
  14  -7  -8    3.89    2.46
  14   7  -8    1.69    1.10
  14  -7  -7    5.10    2.41
  14   7  -7    4.87    3.28
  14  -7  -7    3.68    3.47
  14   7  -6    9.70    3.35
  14  -7  -6    8.71    3.51
  14  -7  -6    4.45    2.50
  14   7  -5    7.61    2.58
  14  -7  -5   14.85    3.23
  14  -7  -5   10.75    3.68
  14   7  -4    3.44    2.22
  14  -7  -4   -0.38    1.47
  14   7  -3    6.89    2.74
  14  -7  -3    8.49    3.55
  14  -7  -3    7.52    3.34
  14   7  -2    7.14    2.47
  14  -7  -2    9.94    3.35
  14  -7  -2   12.51    3.97
  14   7  -1    1.64    1.77
  14  -7  -1   -1.56    1.18
  14   7  -1    1.56    1.68
  14  -7  -1   -0.04    2.32
  14   7   0   20.80    4.28
  14  -7   0   14.02    3.57
  14   7   0   20.96    4.43
  14  -7   0   30.40    5.70
  14   7   1    1.42    1.26
  14  -7   1    1.29    2.73
  14   7   1   -1.96    2.27
  14  -7   1   -1.91    2.19
  14   7   2    8.16    3.04
  14  -7   2    3.45    1.47
  14   7   2    7.30    2.63
  14  -7   2    3.70    2.28
  14   7   3    7.73    3.30
  14  -7   3    6.75    3.44
  14   7   3    6.69    2.75
  14  -7   3    1.82    2.32
  14   7   4    3.55    2.52
  14  -7   4    2.09    2.32
  14   7   4    2.69    2.25
  14  -7   4   -1.55    2.10
  14   7   5    7.35    2.50
  14  -7   5    5.38    3.12
  14   7   5    6.66    2.32
  14  -7   5   10.67    3.97
  14   7   6    5.45    2.56
  14  -7   6   11.29    3.55
  14   7   6    8.64    2.52
  14  -7   6   11.47    3.82
  14   7   7    3.77    1.29
  14  -7   7    1.77    2.44
  14   7   7    1.76    1.28
  14  -7   7    5.39    3.16
  14   7   8    7.42    3.08
  14  -7   8    1.57    1.74
  14   7   8    8.21    3.39
  14  -7   8    7.97    3.28
  14   7   9    0.18    1.41
  14  -7   9   -2.37    2.58
  14   7   9    0.57    1.12
  14  -7   9   -0.23    2.75
  14   7  10    2.60    1.56
  14  -7  10   -0.47    1.66
  14   7  10    0.53    1.73
  14  -7  10    1.49    2.25
  14   7  11   -0.87    3.11
  14  -7  11    4.73    3.17
  14   7  11    5.17    2.72
  14  -7  11    6.53    3.49
  14   7  12    3.47    1.55
  14  -7  12    4.94    3.04
  14   7  12    2.81    2.10
  14  -7  12    1.03    1.95
  14   7  13    2.27    1.74
  14  -7  13    2.84    2.23
  14   7  13    2.35    2.13
  14  -7  13    3.09    3.03
  14   8  -8    5.56    2.56
  14  -8  -8    4.25    2.08
  14  -8  -8    1.99    1.11
  14  -8  -7   -2.10    1.64
  14   8  -7    0.16    1.05
  14  -8  -7    1.34    1.83
  14  -8  -6    9.19    3.24
  14   8  -6    8.15    3.07
  14  -8  -6    6.31    3.42
  14  -8  -5    0.48    1.46
  14   8  -5   -0.76    2.00
  14  -8  -5   -0.19    2.10
  14  -8  -4   14.98    4.20
  14   8  -4   15.47    3.83
  14  -8  -4   11.06    3.88
  14  -8  -3    1.94    1.58
  14   8  -3    4.93    2.46
  14  -8  -3    3.65    2.56
  14  -8  -2    1.82    1.85
  14   8  -2   -1.31    1.51
  14  -8  -2    1.16    2.19
  14  -8  -1    4.72    2.79
  14   8  -1    3.83    2.68
  14  -8  -1    0.53    2.44
  14  -8   0   -0.82    1.87
  14   8   0    2.12    1.52
  14  -8   0    3.01    2.32
  14  -8   1    2.54    2.47
  14   8   1    2.86    1.31
  14   8   1    7.46    3.17
  14  -8   1    2.60    2.40
  14   8   2   -0.96    1.73
  14  -8   2    5.19    2.73
  14   8   2   -0.46    1.66
  14  -8   2    1.25    1.80
  14   8   3    0.28    1.99
  14  -8   3    2.78    1.50
  14   8   3    1.00    1.93
  14  -8   3    4.21    3.38
  14   8   4    4.12    2.77
  14  -8   4   10.38    3.28
  14   8   4    9.62    3.37
  14  -8   4   11.88    4.33
  14   8   5    0.66    1.32
  14  -8   5   -0.93    1.35
  14  -8   5    1.36    2.75
  14   8   5    2.37    2.51
  14   8   6    2.37    2.33
  14  -8   6   12.47    4.06
  14  -8   6    8.52    3.78
  14   8   6   -1.35    1.84
  14   8   7    4.15    2.53
  14  -8   7    0.59    1.63
  14  -8   7    0.35    1.80
  14   8   7    4.40    2.08
  14   8   8    6.08    2.96
  14  -8   8    4.80    2.36
  14  -8   8    3.46    2.77
  14   8   8    4.25    2.08
  15   0 -20   -6.27    2.52
  15   0 -19    0.33    1.10
  15   0 -18    1.41    1.99
  15   0 -17    6.03    3.86
  15   0 -16    0.24    2.16
  15   0 -15    0.10    1.31
  15   0 -14   -2.31    1.40
  15   0 -13    2.34    1.16
  15   0 -12   -1.40    1.99
  15   0 -11    0.59    2.07
  15   0 -10    1.51    2.39
  15   0 -10   -0.23    1.16
  15   0  -9   -0.86    0.82
  15   0  -9    2.16    2.33
  15   0  -8   -0.31    1.38
  15   0  -8    0.73    1.46
  15   0  -7   -0.14    1.37
  15   0  -7   -0.95    0.90
  15   0  -6   -0.09    1.45
  15   0  -6    0.90    1.16
  15   0  -5   -0.71    1.11
  15   0  -5   -0.50    1.31
  15   0  -4   -0.83    1.46
  15   0  -4    1.16    2.35
  15   0  -3   -0.83    1.51
  15   0  -3    0.41    1.58
  15   0  -2   -0.40    1.45
  15   0  -2    0.01    0.94
  15   0  -1   -0.51    1.14
  15   0  -1   -0.03    1.49
  15   0   0    0.32    1.10
  15   0   0    1.59    1.11
  15   0   1    1.14    1.71
  15   0   1   -1.37    1.92
  15   0   2    0.46    2.46
  15   0   2   -0.61    1.67
  15   0   3    0.69    1.12
  15   0   3    1.77    1.62
  15   0   4   -0.01    1.11
  15   0   4    0.20    0.94
  15   0   5   -0.25    1.33
  15   0   5    0.29    1.30
  15   0   6   -0.23    0.90
  15   0   7   -0.75    0.79
  15   0   8   -0.75    1.79
  15   0   9   -1.22    1.87
  15   0  10   -1.14    1.73
  15   0  11   -0.26    1.12
  15   0  12   -0.36    1.13
  15   0  13   -1.05    1.47
  15   0  14    0.25    1.60
  15   0  15    1.92    1.73
  15   0  16    1.05    2.09
  15   0  17    1.34    1.23
  15   0  18    0.32    1.86
  15   0  19   -0.67    2.20
  15   0  20   -1.26    1.71
  15   0  21    1.73    2.93
  15  -1 -21    4.01    3.64
  15  -1 -20   -2.27    3.95
  15  -1 -19    5.59    2.43
  15  -1 -18    1.91    1.96
  15  -1 -17   22.78    4.90
  15  -1 -16   14.79    4.13
  15  -1 -15    3.19    1.50
  15   1 -14    8.00    2.74
  15  -1 -14    4.64    2.36
  15   1 -13   68.99    8.09
  15  -1 -13   92.94    9.40
  15   1 -12   19.08    3.99
  15  -1 -12   12.91    3.25
  15  -1 -11    1.57    1.17
  15  -1 -11   -0.52    1.45
  15   1 -11    1.91    1.76
  15  -1 -10    7.88    2.60
  15  -1 -10    6.89    3.10
  15   1 -10    3.82    3.02
  15  -1  -9    2.56    2.15
  15   1  -9   -2.23    0.58
  15  -1  -9    6.57    3.14
  15   1  -9    2.97    1.81
  15  -1  -8   18.25    4.20
  15   1  -8   16.28    3.63
  15  -1  -8   17.22    3.68
  15   1  -8   26.96    4.82
  15   1  -8   18.87    4.06
  15  -1  -7   62.19    7.52
  15   1  -7   54.21    6.53
  15  -1  -7   55.62    6.98
  15   1  -7   65.43    7.80
  15   1  -7   49.51    6.50
  15  -1  -6    4.65    2.09
  15   1  -6    3.19    1.59
  15  -1  -6    1.18    1.20
  15   1  -6    1.39    0.91
  15   1  -6    2.16    1.41
  15  -1  -5   14.10    3.77
  15   1  -5   17.05    5.15
  15   1  -5   18.42    3.99
  15  -1  -5   14.27    3.97
  15   1  -5   14.44    3.66
  15  -1  -4   19.99    3.75
  15   1  -4   15.92    3.66
  15  -1  -4   19.36    4.50
  15   1  -4   23.88    4.33
  15   1  -4   22.95    4.10
  15  -1  -3   41.56    6.03
  15   1  -3   52.62    6.46
  15  -1  -3   41.02    5.80
  15   1  -3   40.68    6.26
  15   1  -3   42.61    5.91
  15  -1  -2    5.00    2.42
  15   1  -2    1.60    1.38
  15  -1  -2   -0.78    2.10
  15   1  -2    3.03    2.55
  15   1  -2    1.62    1.77
  15  -1  -1    1.19    1.41
  15  -1  -1   -0.83    1.06
  15   1  -1   -1.04    1.80
  15   1  -1    1.50    1.83
  15   1  -1   -0.99    1.15
  15  -1   0    1.57    1.80
  15  -1   0   -0.68    0.88
  15   1   0    0.07    1.13
  15   1   0   -0.25    1.14
  15   1   0    1.29    1.66
  15  -1   1   -0.31    1.02
  15  -1   1    1.10    1.18
  15   1   1   -0.24    1.45
  15   1   1    1.41    1.37
  15   1   1    0.92    1.60
  15  -1   2    2.00    1.79
  15  -1   2    3.36    1.78
  15   1   2    4.07    2.14
  15   1   2    4.25    2.15
  15   1   2    4.18    2.12
  15  -1   3   48.02    6.44
  15   1   3   45.61    6.23
  15  -1   3   43.31    6.34
  15   1   3   47.43    6.53
  15   1   3   48.62    6.05
  15  -1   4   23.00    4.46
  15  -1   4   16.10    3.55
  15   1   4   21.54    4.22
  15   1   4   22.78    4.45
  15   1   4   17.05    3.82
  15  -1   5   11.88    3.67
  15  -1   5   22.44    4.29
  15   1   5   19.14    4.01
  15   1   5   14.78    3.80
  15   1   6   -0.61    0.86
  15  -1   6    6.00    2.79
  15  -1   6    5.13    2.49
  15   1   6    7.25    2.32
  15  -1   7   64.15    7.45
  15   1   7   76.43    7.98
  15   1   8   18.22    3.91
  15  -1   8   11.10    3.28
  15   1   8   11.47    3.35
  15   1   9    2.64    1.44
  15  -1   9    2.14    1.18
  15   1   9    3.72    1.74
  15   1  10    2.01    1.15
  15   1  10    5.70    2.31
  15   1  11    0.42    1.21
  15  -1  11    0.85    1.53
  15   1  11    3.47    1.40
  15   1  12    5.14    1.70
  15  -1  12   20.46    4.19
  15  -1  13   81.42    8.85
  15   1  13   82.49    8.47
  15   1  14    3.12    1.45
  15  -1  14    2.87    1.86
  15   1  15    3.06    2.26
  15  -1  15    0.24    2.15
  15   1  16    6.65    2.49
  15  -1  16    8.69    3.27
  15   1  17   19.15    4.42
  15  -1  17   20.39    4.35
  15   1  18    3.21    2.69
  15  -1  18    6.07    2.85
  15   1  19    6.07    2.57
  15  -1  19    5.16    2.49
  15   1  20   -1.29    2.27
  15  -1  20    2.68    3.13
  15   1  21   -2.91    2.70
  15  -1  21    0.19    1.71
  15  -2 -20    0.25    1.60
  15  -2 -19    1.93    1.54
  15  -2 -18    0.83    2.19
  15  -2 -17    0.32    2.01
  15  -2 -16    6.80    2.57
  15  -2 -15    3.90    1.51
  15  -2 -14    0.68    1.11
  15  -2 -13   20.01    4.53
  15   2 -13   25.96    4.87
  15  -2 -12    1.85    2.47
  15  -2 -12    1.26    1.52
  15   2 -12    0.94    1.64
  15  -2 -11    0.38    1.74
  15  -2 -11    1.96    2.03
  15   2 -11    6.86    3.01
  15  -2 -10    3.41    2.21
  15  -2 -10   10.61    3.13
  15   2 -10   11.23    3.65
  15  -2  -9    2.68    1.32
  15  -2  -9   -0.10    1.20
  15   2  -9    5.25    2.62
  15   2  -9    2.01    1.57
  15  -2  -8   -1.07    1.59
  15  -2  -8   -0.11    1.32
  15   2  -8   -1.23    1.89
  15   2  -8    3.26    2.29
  15  -2  -7    9.36    2.95
  15   2  -7    4.02    1.94
  15  -2  -7   10.86    2.83
  15   2  -7   10.63    3.24
  15   2  -7   11.91    3.25
  15  -2  -6    0.94    1.30
  15  -2  -6    0.18    1.57
  15   2  -6   -0.41    1.98
  15   2  -6    0.17    1.99
  15   2  -6    1.05    1.05
  15  -2  -5    8.77    2.37
  15  -2  -5    6.11    2.83
  15   2  -5    7.58    2.39
  15   2  -5    6.09    2.92
  15   2  -5    1.15    1.34
  15  -2  -4    3.09    1.97
  15  -2  -4    1.51    2.39
  15   2  -4    1.05    1.83
  15   2  -4    4.08    2.18
  15   2  -4    0.84    1.33
  15  -2  -3    0.21    1.48
  15  -2  -3    1.08    2.20
  15   2  -3    0.67    1.36
  15   2  -3   -0.65    1.31
  15   2  -3    1.63    1.36
  15  -2  -2   -0.26    1.41
  15  -2  -2    2.31    2.01
  15   2  -2    2.23    1.67
  15   2  -2    1.54    0.91
  15   2  -2    0.65    1.58
  15  -2  -1    2.95    1.90
  15  -2  -1    2.95    2.38
  15   2  -1    0.77    1.65
  15   2  -1    3.12    2.31
  15   2  -1    2.45    1.82
  15  -2   0    1.12    1.59
  15  -2   0   -0.91    1.76
  15   2   0    0.74    1.05
  15   2   0    2.97    2.06
  15   2   0    0.14    1.28
  15   2   1    3.63    2.28
  15  -2   1    5.60    2.18
  15  -2   1    3.65    1.55
  15   2   1    1.92    1.62
  15   2   1    2.58    2.21
  15   2   2    0.86    0.99
  15  -2   2    0.40    1.41
  15  -2   2    1.66    2.51
  15   2   2   -0.05    1.24
  15   2   2    1.87    1.74
  15   2   3   -0.31    1.08
  15  -2   3    0.42    0.78
  15  -2   3   -0.11    1.31
  15   2   3    0.54    1.62
  15   2   3    0.56    1.33
  15   2   4    5.82    2.67
  15  -2   4    3.97    1.99
  15  -2   4    1.84    1.90
  15   2   4    3.35    2.19
  15   2   5    9.76    2.45
  15  -2   5   13.60    3.70
  15  -2   5    4.86    2.13
  15   2   5    6.47    2.78
  15   2   6    1.31    1.92
  15  -2   6    0.93    1.56
  15  -2   6    0.67    1.15
  15   2   6    1.15    2.09
  15   2   7   10.80    3.28
  15  -2   7   10.63    3.29
  15  -2   7    5.52    2.03
  15   2   7    7.41    2.24
  15   2   8    1.19    1.85
  15  -2   8   -0.19    1.47
  15  -2   8    3.06    2.11
  15   2   8    1.78    2.41
  15   2   9    3.08    1.61
  15  -2   9    2.07    1.98
  15   2   9    3.62    2.58
  15   2  10    6.65    2.35
  15  -2  10    8.41    2.93
  15   2  10    7.23    2.57
  15   2  11    5.71    2.39
  15  -2  11    5.00    2.68
  15   2  11    2.34    1.61
  15   2  12    1.58    1.55
  15  -2  12    0.66    1.34
  15   2  13   12.70    3.36
  15  -2  13   13.19    4.01
  15   2  14    3.49    1.66
  15  -2  14    8.91    3.06
  15   2  15    7.06    2.48
  15  -2  15    3.49    1.78
  15   2  16   10.42    3.60
  15  -2  16    9.31    3.18
  15   2  17    0.51    1.79
  15  -2  17    2.61    2.02
  15   2  18    1.27    0.97
  15  -2  18   -0.30    1.39
  15   2  19    3.57    2.46
  15  -2  19    2.84    2.86
  15   2  20   -0.62    1.65
  15  -2  20    0.70    1.80
  15  -3 -20    1.71    1.16
  15  -3 -19    2.87    2.24
  15  -3 -18   14.45    4.05
  15  -3 -17   30.23    5.56
  15  -3 -16    5.84    3.02
  15   3 -16   -1.25    2.39
  15  -3 -15    0.08    1.52
  15   3 -15    3.44    1.44
  15  -3 -14    6.59    2.43
  15   3 -14    8.09    2.59
  15  -3 -13    1.54    1.44
  15  -3 -13   -0.01    0.98
  15  -3 -12   37.39    6.76
  15   3 -12   28.37    5.30
  15  -3 -12   31.88    5.93
  15  -3 -11   13.08    3.48
  15  -3 -11    9.33    3.27
  15   3 -11   10.32    2.62
  15  -3 -10    0.03    1.98
  15  -3 -10    0.16    1.54
  15   3 -10    2.91    2.21
  15  -3  -9    9.31    2.72
  15  -3  -9    9.25    3.17
  15   3  -9    4.95    2.08
  15  -3  -8   14.63    3.98
  15  -3  -8   12.89    3.20
  15   3  -8   15.33    3.58
  15  -3  -7   12.22    3.61
  15  -3  -7   15.66    3.81
  15   3  -7   14.59    3.80
  15  -3  -6   20.53    3.93
  15  -3  -6   16.82    3.90
  15   3  -6   17.12    3.77
  15   3  -6   18.03    4.14
  15  -3  -5   15.08    3.88
  15  -3  -5   10.84    3.68
  15   3  -5    8.29    2.95
  15   3  -5   16.45    4.06
  15  -3  -4   13.31    3.42
  15  -3  -4   12.49    3.98
  15   3  -4    8.79    2.39
  15   3  -4   13.10    3.48
  15  -3  -3   54.48    6.93
  15   3  -3   52.88    6.72
  15  -3  -3   47.37    6.63
  15   3  -3   54.84    6.86
  15   3  -3   50.46    6.77
  15   3  -2    9.63    2.55
  15  -3  -2   14.10    3.55
  15  -3  -2   16.81    3.83
  15   3  -2   15.30    3.71
  15   3  -2   15.88    4.29
  15   3  -1   13.77    2.91
  15  -3  -1    9.87    3.37
  15  -3  -1   17.93    4.72
  15   3  -1   14.23    3.31
  15   3  -1   15.54    3.97
  15   3   0   12.52    3.34
  15  -3   0   16.89    3.91
  15  -3   0   17.87    4.48
  15   3   0   25.42    4.59
  15   3   0   22.70    4.25
  15   3   1   18.69    4.24
  15  -3   1   18.89    4.20
  15   3   1   21.48    4.17
  15  -3   1   16.72    4.04
  15   3   1   15.86    3.95
  15   3   2   24.71    4.54
  15   3   2   15.96    3.76
  15  -3   2   16.50    3.73
  15  -3   2   13.67    3.67
  15   3   2   17.17    4.11
  15  -3   3   63.02    7.49
  15  -3   3   51.90    6.80
  15   3   3   62.15    6.98
  15   3   3   50.58    6.35
  15   3   4    9.61    2.43
  15   3   4    7.77    2.86
  15  -3   4    9.60    3.25
  15  -3   4    9.44    2.85
  15   3   5   10.21    2.75
  15   3   5    9.42    3.03
  15  -3   5   11.35    3.73
  15  -3   5   11.08    3.81
  15   3   6   13.40    4.00
  15   3   6   14.37    3.48
  15  -3   6   16.74    3.17
  15  -3   6   18.11    3.40
  15   3   7    8.28    2.80
  15   3   7    8.88    3.00
  15  -3   7   11.87    3.66
  15  -3   7    9.73    3.42
  15   3   8   12.75    3.51
  15   3   8   13.01    3.13
  15  -3   8   13.38    3.97
  15  -3   8   11.50    3.40
  15   3   9    6.99    2.72
  15   3   9    7.81    3.13
  15  -3   9   11.18    3.29
  15  -3   9    6.45    3.10
  15   3  10    0.77    1.99
  15   3  10    0.17    1.86
  15  -3  10    3.00    1.74
  15  -3  10    0.26    1.61
  15   3  11    5.29    2.47
  15   3  11   11.05    3.10
  15  -3  11    5.94    2.98
  15  -3  11    4.50    2.92
  15  -3  12   41.78    6.42
  15   3  12   31.17    5.60
  15   3  12   30.42    5.90
  15   3  13    0.86    1.47
  15  -3  13    0.28    1.20
  15   3  14    8.75    3.17
  15  -3  14   10.79    3.47
  15   3  15    2.93    1.64
  15  -3  15    6.27    2.65
  15   3  16   -0.10    1.94
  15  -3  16    2.08    1.78
  15  -3  17   19.77    4.97
  15   3  17   31.32    5.72
  15   3  18    6.24    2.52
  15  -3  18   16.35    4.90
  15   3  19    2.59    1.94
  15  -3  19   -1.62    2.08
  15   3  20    1.60    2.49
  15  -3  20    1.24    2.31
  15  -4 -18    0.29    1.91
  15   4 -18   -4.91    2.87
  15  -4 -17    4.49    2.47
  15   4 -17    2.62    2.28
  15  -4 -16    4.05    3.23
  15   4 -16    2.63    1.91
  15  -4 -15    5.47    2.71
  15   4 -15   12.24    3.91
  15  -4 -14    8.91    3.50
  15  -4 -14   10.57    3.54
  15   4 -14   11.36    3.54
  15  -4 -13    6.57    2.83
  15  -4 -13   12.82    3.88
  15   4 -13   10.41    2.89
  15  -4 -12    0.46    1.74
  15  -4 -12    3.84    1.74
  15   4 -12    3.19    2.28
  15  -4 -11   16.33    4.31
  15  -4 -11   20.59    4.52
  15   4 -11   14.62    3.89
  15  -4 -10    4.60    1.83
  15  -4 -10   -0.36    2.25
  15   4 -10    8.66    3.46
  15  -4  -9    5.23    2.38
  15  -4  -9    2.54    2.20
  15   4  -9    5.17    2.41
  15  -4  -8   12.06    3.89
  15  -4  -8    9.08    2.91
  15   4  -8    9.79    3.39
  15  -4  -7   16.04    3.85
  15  -4  -7   15.06    3.87
  15   4  -7   19.13    4.07
  15   4  -6    5.59    1.12
  15  -4  -6    8.09    3.07
  15  -4  -6   10.87    2.97
  15   4  -5    9.15    3.28
  15   4  -5    0.50    0.82
  15  -4  -5    7.94    2.41
  15  -4  -5   11.14    3.12
  15   4  -4    3.31    1.88
  15   4  -4    5.93    2.43
  15  -4  -4    1.01    1.24
  15  -4  -4    3.93    3.24
  15   4  -3    1.79    2.02
  15   4  -3    1.62    0.92
  15  -4  -3    1.16    2.02
  15  -4  -3   -1.52    1.31
  15   4  -2    2.31    1.65
  15   4  -2   -1.10    0.99
  15  -4  -2   -0.51    1.51
  15  -4  -2    1.75    2.97
  15   4  -1    6.08    2.96
  15   4  -1    2.80    0.89
  15  -4  -1    5.60    2.47
  15  -4  -1    7.40    3.46
  15   4   0    9.12    3.18
  15   4   0   10.01    2.90
  15  -4   0    4.24    1.72
  15  -4   0   10.30    3.19
  15   4   1    7.23    2.77
  15   4   1    2.40    1.87
  15  -4   1    8.54    3.57
  15  -4   1    5.22    2.53
  15   4   2   -0.27    1.60
  15   4   2    0.56    1.11
  15  -4   2   -0.32    0.90
  15  -4   2    1.72    2.01
  15   4   3    1.62    1.06
  15   4   3    2.28    2.94
  15  -4   3    4.26    2.24
  15  -4   3    2.47    1.85
  15   4   4    2.44    1.55
  15   4   4    4.13    1.96
  15  -4   4    1.38    1.52
  15  -4   4    0.15    1.26
  15   4   5   11.88    3.36
  15   4   5    2.64    1.96
  15  -4   5   11.56    3.78
  15  -4   5    7.31    2.99
  15   4   6   16.28    4.06
  15   4   6   12.82    3.49
  15  -4   6    7.23    2.65
  15  -4   6    8.42    3.35
  15   4   7   10.48    3.51
  15   4   7   20.56    3.95
  15  -4   7   16.55    4.43
  15  -4   7   19.95    5.07
  15   4   8   15.25    4.05
  15   4   8   15.21    3.90
  15  -4   8   18.93    4.84
  15  -4   8   14.54    3.99
  15   4   9   15.46    4.14
  15   4   9   11.45    3.10
  15  -4   9   12.33    3.89
  15  -4   9    7.78    3.31
  15   4  10    1.80    2.13
  15   4  10    3.47    0.91
  15  -4  10    2.29    1.08
  15  -4  10    5.67    2.47
  15   4  11   19.49    4.46
  15   4  11   17.31    4.12
  15  -4  11   23.66    4.84
  15  -4  11   22.90    5.00
  15   4  12    2.29    2.27
  15   4  12    1.45    2.26
  15  -4  12    5.18    1.97
  15  -4  12    5.19    2.69
  15   4  13    7.06    3.04
  15  -4  13   12.82    3.89
  15  -4  13    9.43    2.96
  15   4  14   15.64    3.79
  15  -4  14    9.81    2.94
  15  -4  14   14.51    4.68
  15   4  15   10.82    3.40
  15  -4  15    8.47    4.26
  15   4  16    2.73    2.45
  15  -4  16    2.29    2.61
  15   4  17    3.18    2.48
  15  -4  17    5.05    2.22
  15   4  18    3.29    2.27
  15  -4  18    0.21    1.92
  15  -5 -16    1.04    1.14
  15   5 -16    5.28    2.76
  15  -5 -15    4.53    3.17
  15  -5 -15    4.94    3.13
  15   5 -15    5.05    1.43
  15  -5 -14    2.98    2.10
  15  -5 -14    7.58    3.14
  15   5 -14   11.39    4.09
  15  -5 -13   13.51    4.35
  15  -5 -13   14.76    3.30
  15   5 -13   15.49    3.90
  15  -5 -12    4.09    1.94
  15  -5 -12    7.46    2.84
  15   5 -12    3.17    2.40
  15  -5 -11    4.46    2.09
  15  -5 -11    4.85    2.76
  15   5 -11    6.35    2.71
  15  -5 -10    9.86    3.80
  15  -5 -10   15.57    4.36
  15   5 -10    9.80    2.31
  15  -5  -9   37.89    6.14
  15  -5  -9   39.46    6.40
  15   5  -9   33.26    5.64
  15   5  -8    0.33    1.89
  15  -5  -8    3.10    2.46
  15  -5  -8    1.88    1.64
  15   5  -7    5.70    2.70
  15  -5  -7    6.87    2.30
  15  -5  -7    8.61    3.18
  15   5  -6    9.45    3.34
  15  -5  -6   16.55    4.40
  15  -5  -6   10.42    2.92
  15   5  -5    2.16    2.43
  15  -5  -5    1.61    1.65
  15  -5  -5    2.33    2.24
  15   5  -4    6.57    2.71
  15  -5  -4    8.59    2.10
  15  -5  -4    4.86    2.66
  15  -5  -3   28.02    5.35
  15   5  -3   33.95    5.27
  15   5  -3   33.54    5.27
  15  -5  -3   28.32    5.58
  15   5  -2   -1.06    2.00
  15   5  -2    1.09    1.23
  15  -5  -2    0.21    2.60
  15  -5  -2    1.35    2.00
  15  -5  -1   29.64    5.32
  15   5  -1   26.95    5.10
  15  -5  -1   29.60    5.82
  15   5  -1   28.25    5.13
  15  -5   0   22.12    4.18
  15  -5   0   23.76    5.04
  15   5   0   37.44    6.07
  15   5   0   32.77    5.59
  15   5   1   31.71    4.91
  15  -5   1   26.50    5.05
  15  -5   1   34.19    5.49
  15   5   1   33.01    5.33
  15   5   2    2.64    1.99
  15  -5   2   -1.03    1.94
  15   5   2    1.57    1.36
  15  -5   2    4.61    2.59
  15  -5   3   35.00    6.04
  15  -5   3   35.98    5.98
  15   5   3   44.02    6.33
  15   5   3   36.18    5.85
  15   5   4    5.36    3.13
  15  -5   4    4.24    1.41
  15   5   4    8.84    2.85
  15  -5   4    6.80    2.72
  15   5   5    1.50    1.08
  15  -5   5   -1.76    2.16
  15   5   5    0.17    0.92
  15  -5   5   -1.62    2.65
  15   5   6   10.68    3.27
  15  -5   6    9.23    3.61
  15   5   6   10.36    3.57
  15  -5   6    7.86    2.67
  15   5   7    4.75    2.12
  15  -5   7    9.03    3.41
  15   5   7   13.46    3.67
  15  -5   7   17.29    4.55
  15   5   8    0.32    1.28
  15   5   8    1.86    1.99
  15  -5   8   -0.23    1.87
  15  -5   9   33.59    6.04
  15  -5   9   43.26    6.44
  15   5   9   40.12    6.09
  15   5   9   37.83    6.16
  15   5  10    9.08    3.02
  15   5  10    6.91    2.43
  15  -5  10    9.16    3.78
  15   5  11    3.49    1.55
  15  -5  11    5.79    3.25
  15   5  11    3.65    1.93
  15  -5  11    4.29    1.44
  15   5  12    6.36    1.73
  15  -5  12    4.02    2.14
  15   5  12    2.44    1.66
  15  -5  12    4.74    2.66
  15   5  13   12.94    4.01
  15  -5  13   17.54    4.34
  15   5  13   15.61    4.00
  15  -5  13   18.46    4.90
  15  -5  14    6.87    2.66
  15   5  14    4.19    2.45
  15  -5  14    5.06    3.29
  15  -5  15    5.78    3.00
  15   5  15    4.50    1.99
  15  -5  15    5.30    3.19
  15  -5  16    2.08    1.37
  15   5  16    5.57    1.76
  15  -5  16    7.36    3.79
  15  -6 -14   -0.56    2.28
  15  -6 -14    1.27    2.22
  15   6 -14    1.32    2.22
  15  -6 -13   -2.80    3.35
  15  -6 -13    0.25    2.11
  15   6 -13    2.04    1.97
  15   6 -12   -1.93    1.99
  15  -6 -12    2.54    1.36
  15  -6 -12   -0.19    2.57
  15   6 -11    4.69    1.90
  15  -6 -11    4.93    1.43
  15  -6 -11    0.48    1.58
  15   6 -10    6.11    2.62
  15  -6 -10    5.24    2.70
  15  -6 -10    6.94    3.10
  15   6  -9    2.37    1.97
  15  -6  -9    1.83    1.32
  15  -6  -9    1.02    1.77
  15   6  -8   -0.07    1.65
  15  -6  -8    1.13    2.04
  15  -6  -8   -0.68    2.03
  15   6  -7   -1.11    1.33
  15  -6  -7    2.65    2.16
  15  -6  -7    1.29    1.71
  15   6  -6    4.71    2.34
  15  -6  -6    6.04    3.04
  15  -6  -6    0.77    1.95
  15  -6  -5    0.58    1.61
  15  -6  -5    2.02    1.74
  15   6  -4    9.77    3.01
  15  -6  -4    6.96    2.54
  15  -6  -4   12.05    3.92
  15   6  -3    6.97    2.41
  15  -6  -3    0.64    1.74
  15  -6  -3    0.77    2.83
  15   6  -2    7.00    2.43
  15  -6  -2   10.18    3.39
  15  -6  -2   10.93    3.44
  15   6  -1   13.17    3.03
  15  -6  -1   17.54    4.26
  15   6  -1    7.11    2.41
  15  -6  -1   11.28    3.85
  15   6   0   19.04    4.67
  15  -6   0    8.19    2.62
  15   6   0   18.51    3.93
  15  -6   0   17.33    4.55
  15   6   1   11.58    4.25
  15  -6   1   10.88    3.55
  15   6   1   11.98    3.86
  15  -6   1    5.31    2.20
  15   6   2   11.09    3.59
  15  -6   2   12.02    3.69
  15   6   2    7.18    2.67
  15  -6   2   10.57    3.38
  15   6   3    0.38    2.04
  15  -6   3    1.18    1.15
  15   6   3    1.91    1.73
  15  -6   3    0.21    1.91
  15   6   4   16.11    4.26
  15  -6   4   14.97    4.03
  15   6   4    8.69    2.66
  15  -6   4   11.08    3.82
  15   6   5    3.95    2.29
  15  -6   5    1.69    1.79
  15   6   5    2.04    2.19
  15  -6   5    2.37    2.26
  15   6   6    4.90    2.98
  15  -6   6   -1.64    1.69
  15   6   6    2.47    2.32
  15   6   7    2.47    2.30
  15  -6   7    3.35    2.10
  15   6   7    0.93    0.97
  15  -6   7   -0.19    2.08
  15   6   8    4.62    2.27
  15  -6   8    1.40    2.16
  15   6   8   -0.17    0.90
  15  -6   8    2.56    2.34
  15   6   9    6.66    4.04
  15  -6   9    0.39    1.26
  15   6   9    2.40    1.71
  15  -6   9   -0.89    3.11
  15   6  10    5.85    2.67
  15  -6  10    5.69    3.08
  15   6  10    6.18    2.52
  15  -6  10    4.74    2.41
  15   6  11   -1.20    1.93
  15  -6  11    4.45    2.51
  15   6  11    3.74    2.25
  15  -6  11    1.69    1.35
  15   6  12    6.03    3.31
  15  -6  12    0.51    2.41
  15   6  12    0.88    1.17
  15  -6  12    2.01    1.74
  15   6  13    2.90    2.76
  15  -6  13    0.21    2.09
  15   6  13   -2.11    2.04
  15  -6  13    1.36    2.45
  15  -6  14    1.12    2.54
  15   6  14    1.69    1.67
  15  -6  14    0.22    2.66
  15  -7 -10    6.41    2.83
  15   7 -10   11.78    3.55
  15  -7 -10    8.53    3.31
  15   7  -9   14.32    3.90
  15  -7  -9   12.21    3.86
  15  -7  -9    6.76    1.82
  15   7  -8    0.87    1.17
  15  -7  -8   -0.70    1.98
  15  -7  -8    2.95    2.14
  15   7  -7   13.53    3.15
  15  -7  -7    4.47    2.23
  15  -7  -7   10.81    3.89
  15   7  -6    0.83    1.70
  15  -7  -6    3.97    2.19
  15  -7  -6   -0.45    1.62
  15   7  -5    3.16    1.61
  15  -7  -5    2.21    2.73
  15  -7  -5    5.92    3.49
  15   7  -4    6.48    2.93
  15  -7  -4    5.99    2.47
  15  -7  -4    4.73    1.88
  15   7  -3   13.46    3.25
  15  -7  -3    9.04    2.94
  15  -7  -3   11.52    4.03
  15   7  -2    3.57    2.05
  15  -7  -2    1.12    1.40
  15  -7  -2    2.98    2.22
  15   7  -1   10.31    3.48
  15  -7  -1    9.45    3.05
  15  -7  -1    8.06    3.37
  15   7   0    7.59    3.14
  15  -7   0    6.80    2.17
  15   7   0    7.84    3.04
  15  -7   0    8.92    2.93
  15   7   1   13.36    3.70
  15  -7   1   10.15    3.25
  15   7   1   11.44    3.75
  15  -7   1    8.44    3.49
  15   7   2   -0.90    1.56
  15  -7   2    0.61    1.44
  15   7   2    2.94    1.99
  15  -7   2    3.22    2.45
  15   7   3   13.35    4.27
  15  -7   3   10.78    3.73
  15   7   3    2.88    1.73
  15  -7   3    5.42    3.64
  15   7   4    5.87    2.73
  15  -7   4    8.28    3.62
  15   7   4    8.21    3.22
  15  -7   4   -0.20    1.39
  15   7   5    3.87    2.80
  15  -7   5    4.94    2.79
  15   7   5    3.44    2.57
  15  -7   5    3.92    2.08
  15   7   6    5.73    2.88
  15  -7   6    4.62    2.67
  15   7   6   -0.27    1.28
  15  -7   6    2.62    2.79
  15   7   7   11.73    3.54
  15  -7   7    8.74    4.25
  15   7   7    5.72    2.00
  15  -7   7   13.88    4.82
  15   7   8    1.54    2.08
  15  -7   8   -2.51    3.12
  15   7   8    1.60    1.56
  15  -7   8   -0.72    2.52
  15   7   9   16.39    5.17
  15  -7   9    7.70    3.10
  15   7   9    9.33    3.08
  15  -7   9   12.43    3.69
  15   7  10    5.91    3.33
  15  -7  10    6.67    3.19
  15   7  10    7.67    3.11
  15  -7  10    7.62    3.46
  15   8  -3    2.35    3.19
  15  -8  -3    3.05    2.17
  15  -8  -2    7.68    3.50
  15   8  -2   10.22    2.95
  15  -8  -2    2.58    1.93
  15   8  -1    0.98    1.57
  15  -8  -1    6.20    3.38
  15  -8  -1    6.76    3.32
  15   8   0    4.67    2.23
  15  -8   0    3.73    2.47
  15  -8   0    7.38    4.04
  15   8   1    3.14    2.55
  15  -8   1    5.53    3.02
  15  -8   1    1.82    2.57
  15   8   2   10.92    3.91
  15  -8   2    6.01    2.56
  15   8   2    2.98    1.97
  15  -8   2   10.31    3.15
  15   8   3    3.05    2.28
  15   8   3   -0.61    1.70
  15  -8   3    0.74    3.44
  16   0 -18   23.96    4.92
  16   0 -17   34.20    6.28
  16   0 -16    2.24    2.15
  16   0 -15    6.20    2.26
  16   0 -14    3.59    1.65
  16   0 -12    2.36    1.55
  16   0 -11   17.58    4.46
  16   0 -10   10.03    3.79
  16   0  -9   14.94    3.95
  16   0  -9   12.55    3.83
  16   0  -8    9.91    3.30
  16   0  -8    9.44    2.73
  16   0  -7   80.20    8.29
  16   0  -7   73.83    8.27
  16   0  -6    5.77    2.50
  16   0  -6    7.77    2.54
  16   0  -5    6.04    2.89
  16   0  -5    4.52    2.32
  16   0  -4   19.54    4.00
  16   0  -4   24.93    4.91
  16   0  -3   62.72    7.48
  16   0  -3   55.85    7.33
  16   0  -2   81.24    8.43
  16   0  -2   58.11    7.49
  16   0  -1   15.57    3.94
  16   0  -1    8.58    2.54
  16   0   0    3.89    2.43
  16   0   0    4.58    3.45
  16   0   1   11.46    3.24
  16   0   1   11.91    3.44
  16   0   2   76.57    8.02
  16   0   2   74.87    8.47
  16   0   3   53.78    6.74
  16   0   3   52.84    6.94
  16   0   4   22.89    4.94
  16   0   4   21.26    4.59
  16   0   5   -0.22    1.85
  16   0   5    4.09    2.51
  16   0   6    7.36    2.65
  16   0   6   12.31    3.27
  16   0   7   73.64    8.28
  16   0   8   10.71    3.80
  16   0   9   13.37    3.52
  16   0  10    7.99    3.48
  16   0  11   12.00    3.01
  16   0  12    4.86    1.63
  16   0  13   87.15    9.21
  16   0  14    1.45    2.31
  16   0  15    8.87    2.88
  16   0  16    4.69    2.66
  16   0  17   27.61    5.49
  16   0  18   14.11    4.32
  16   0  19   37.41    6.07
  16  -1 -19    3.29    2.97
  16  -1 -18    0.61    1.97
  16  -1 -17    1.57    1.46
  16  -1 -16    0.09    1.35
  16  -1 -15    1.56    1.47
  16  -1 -14   16.08    4.17
  16   1 -13    2.95    2.22
  16  -1 -13    2.48    1.51
  16   1 -12   -1.01    2.11
  16  -1 -12    1.36    1.66
  16  -1 -11    1.99    1.38
  16   1 -11    0.80    1.79
  16  -1 -10    2.03    2.21
  16  -1 -10    2.47    2.99
  16   1 -10    6.33    3.17
  16  -1  -9    0.78    1.65
  16  -1  -9    2.24    1.83
  16   1  -9    0.35    2.33
  16  -1  -8   -0.74    1.37
  16   1  -8    0.12    1.54
  16  -1  -8    0.08    1.71
  16   1  -8    2.33    1.85
  16  -1  -7   -1.63    1.90
  16   1  -7   -0.38    1.57
  16  -1  -7    2.35    2.53
  16   1  -7    1.35    2.10
  16  -1  -6    3.06    0.93
  16   1  -6    4.81    2.12
  16  -1  -6    2.68    2.25
  16   1  -6    0.45    1.91
  16   1  -6    5.53    2.51
  16  -1  -5    5.20    1.97
  16   1  -5    4.06    2.30
  16  -1  -5    6.79    2.28
  16   1  -5   10.60    3.20
  16   1  -5   11.89    3.19
  16  -1  -4    0.18    1.16
  16   1  -4    0.83    1.79
  16  -1  -4    0.71    1.85
  16   1  -4   -1.06    1.95
  16   1  -4   -2.54    2.34
  16  -1  -3   14.88    3.81
  16   1  -3   19.84    4.58
  16  -1  -3   20.44    4.41
  16   1  -3   17.66    4.56
  16   1  -3    8.75    3.33
  16  -1  -2    2.14    2.31
  16   1  -2    0.50    0.93
  16  -1  -2   -1.53    1.55
  16   1  -2    1.35    2.61
  16   1  -2    0.60    1.60
  16  -1  -1    9.26    2.66
  16   1  -1    5.75    3.06
  16  -1  -1    3.83    2.43
  16   1  -1    3.51    2.69
  16   1  -1    3.24    1.68
  16  -1   0    0.73    0.82
  16  -1   0    3.09    1.48
  16   1   0    0.25    0.90
  16   1   0    1.04    1.69
  16   1   0    2.15    1.63
  16  -1   1    0.67    1.13
  16  -1   1    0.23    1.00
  16   1   1    2.99    1.39
  16   1   1   -0.36    1.41
  16   1   1   -0.35    1.06
  16  -1   2   -0.13    0.82
  16  -1   2    3.10    1.25
  16   1   2    1.67    1.32
  16   1   2    1.82    1.97
  16   1   2   -1.12    1.67
  16  -1   3   13.52    3.36
  16  -1   3   16.89    4.13
  16   1   3   12.44    3.01
  16   1   3   12.93    3.45
  16   1   3   12.04    3.05
  16  -1   4    2.46    1.84
  16  -1   4   -0.71    1.64
  16   1   4    1.50    2.74
  16   1   4    1.48    1.07
  16   1   4    3.02    2.06
  16  -1   5    7.68    2.30
  16  -1   5    9.41    3.47
  16   1   5   10.38    3.39
  16   1   5   15.41    3.58
  16   1   5    4.95    2.06
  16  -1   6    4.76    2.12
  16  -1   6    2.15    1.91
  16   1   6    2.04    0.93
  16   1   6    4.91    2.45
  16  -1   7    1.61    1.91
  16  -1   7   -0.85    1.48
  16   1   7    0.73    1.62
  16   1   7    1.51    2.29
  16  -1   8   -0.04    0.93
  16  -1   8   -0.18    2.08
  16   1   8    1.88    2.17
  16   1   8   -0.57    1.33
  16  -1   9    4.23    2.84
  16   1   9    1.61    1.32
  16   1   9    3.85    1.71
  16   1  10   -0.07    0.98
  16  -1  10    0.95    1.05
  16   1  10   -0.54    1.84
  16   1  11   -0.80    2.06
  16  -1  11   -0.06    1.96
  16   1  12    0.09    1.47
  16  -1  12    0.67    1.63
  16   1  13    3.30    1.93
  16  -1  13    2.09    1.80
  16   1  14    7.59    2.77
  16  -1  14    6.22    2.40
  16   1  15    5.52    2.96
  16  -1  15    8.43    3.56
  16   1  16    1.29    2.44
  16  -1  16    2.93    2.39
  16   1  17    5.57    2.17
  16  -1  17    4.65    2.37
  16   1  18    4.67    3.03
  16  -1  18   -0.15    2.16
  16   1  19    2.80    2.46
  16  -1  19   -2.09    1.98
  16  -2 -19    1.22    2.65
  16  -2 -18    3.67    2.31
  16  -2 -17   38.07    5.97
  16  -2 -16    2.66    2.04
  16  -2 -15    2.06    3.17
  16  -2 -14    6.11    2.73
  16  -2 -13   41.02    6.67
  16  -2 -12    1.08    2.61
  16  -2 -12    7.08    2.34
  16  -2 -11   12.88    3.85
  16  -2 -11    8.65    3.51
  16   2 -11   10.11    2.99
  16  -2 -10    0.15    2.17
  16  -2 -10    6.70    2.74
  16   2 -10    5.89    2.84
  16  -2  -9    6.98    3.06
  16  -2  -9    6.69    2.62
  16   2  -9    7.56    2.82
  16  -2  -8    6.53    2.52
  16  -2  -8    1.29    1.40
  16   2  -8    7.42    3.51
  16   2  -8    2.23    1.43
  16  -2  -7   45.93    6.57
  16  -2  -7   38.92    6.31
  16   2  -7   29.74    5.68
  16   2  -7   34.69    5.23
  16  -2  -6    5.62    2.97
  16   2  -6    4.47    2.39
  16  -2  -6    0.25    1.79
  16   2  -6    3.59    2.40
  16   2  -6    9.24    3.06
  16  -2  -5    5.13    2.36
  16  -2  -5    3.93    2.00
  16   2  -5    1.89    1.72
  16   2  -5    9.86    3.20
  16   2  -5    5.17    2.25
  16  -2  -4    2.49    1.67
  16  -2  -4    1.26    1.75
  16   2  -4    5.18    2.08
  16   2  -4    2.35    1.46
  16   2  -4    4.30    2.05
  16  -2  -3   44.63    6.55
  16   2  -3   50.11    6.71
  16  -2  -3   48.55    6.91
  16   2  -3   46.13    6.53
  16   2  -3   34.11    5.48
  16  -2  -2    4.42    2.36
  16  -2  -2    3.25    2.26
  16   2  -2    2.95    1.66
  16   2  -2    4.23    1.97
  16   2  -2    1.35    1.07
  16  -2  -1    6.84    3.02
  16  -2  -1    5.62    2.53
  16   2  -1    3.62    2.34
  16   2  -1    5.89    2.97
  16   2  -1    5.35    2.46
  16  -2   0    0.07    0.91
  16  -2   0    0.66    1.41
  16   2   0   -0.90    1.03
  16   2   0   -0.39    1.41
  16   2   0    2.08    2.04
  16  -2   1    6.69    2.34
  16  -2   1    7.38    3.06
  16   2   1    5.85    3.29
  16   2   1    3.64    2.34
  16   2   1    4.41    2.38
  16  -2   2    6.58    2.66
  16  -2   2    1.90    1.43
  16   2   2    5.65    2.70
  16   2   2    5.68    1.81
  16   2   2    3.07    2.05
  16  -2   3   38.19    5.87
  16   2   3   49.90    6.73
  16  -2   3   50.54    6.78
  16   2   3   45.14    6.46
  16   2   3   43.19    6.12
  16   2   4    8.64    3.45
  16  -2   4    5.84    2.34
  16  -2   4    5.40    3.14
  16   2   4    3.84    1.71
  16   2   4    2.37    1.32
  16   2   5    7.70    2.31
  16  -2   5    8.57    3.00
  16  -2   5    5.80    2.64
  16   2   5    4.42    2.02
  16   2   6    3.48    0.96
  16  -2   6    3.27    2.58
  16  -2   6    2.93    2.08
  16   2   6    2.27    1.41
  16  -2   7   37.93    5.88
  16   2   7   36.30    5.68
  16  -2   7   29.15    5.35
  16   2   7   33.08    5.15
  16   2   8    1.38    1.74
  16  -2   8    5.50    2.42
  16  -2   8    3.82    2.26
  16   2   8    0.16    1.64
  16   2   9   10.65    3.00
  16  -2   9    6.30    2.75
  16  -2   9    4.66    2.35
  16   2   9    6.41    3.21
  16   2  10    3.27    2.19
  16  -2  10    2.67    1.84
  16  -2  10   -0.53    2.35
  16   2  10    4.10    2.09
  16   2  11   11.08    3.11
  16  -2  11    9.77    2.74
  16   2  11   12.66    4.01
  16   2  12   12.80    3.55
  16  -2  12   12.02    3.29
  16  -2  13   45.53    6.61
  16   2  13   36.74    5.64
  16   2  14    5.04    2.70
  16  -2  14    1.45    2.34
  16   2  15    0.37    2.24
  16  -2  15    0.95    2.13
  16   2  16    2.06    2.16
  16  -2  16    1.13    1.18
  16   2  17   18.21    4.33
  16  -2  17   30.48    4.97
  16   2  18    8.49    3.52
  16  -2  18    2.57    1.55
  16   2  19    3.11    1.42
  16  -2  19    0.56    1.46
  16  -3 -18    0.91    2.25
  16  -3 -17   -0.59    2.20
  16  -3 -16   -0.82    2.03
  16  -3 -15   -0.95    2.21
  16   3 -15   -0.70    1.62
  16  -3 -14    1.05    1.95
  16   3 -14   -3.23    2.93
  16  -3 -13    3.18    2.79
  16   3 -13    3.03    2.28
  16  -3 -12   -2.45    1.74
  16  -3 -12    0.74    2.38
  16   3 -12    0.01    1.94
  16  -3 -11   10.05    3.78
  16  -3 -11    4.42    1.98
  16   3 -11    4.27    2.58
  16  -3 -10    0.54    1.25
  16  -3 -10    1.60    2.47
  16   3 -10   -0.49    1.76
  16  -3  -9    1.69    1.78
  16  -3  -9    5.83    3.21
  16   3  -9    5.81    3.01
  16  -3  -8    2.47    1.57
  16  -3  -8    0.48    2.59
  16   3  -8    3.59    1.92
  16  -3  -7    4.99    2.06
  16  -3  -7    1.86    1.79
  16   3  -7    5.43    2.30
  16  -3  -6    1.85    2.72
  16  -3  -6   -0.22    1.37
  16   3  -6   -0.68    1.51
  16  -3  -5    0.45    1.47
  16  -3  -5    1.28    2.32
  16   3  -5    0.68    1.55
  16   3  -5    1.84    2.59
  16  -3  -4    1.91    1.90
  16  -3  -4    2.85    2.04
  16   3  -4    1.45    1.67
  16   3  -4   -2.68    1.91
  16  -3  -3    1.88    1.46
  16  -3  -3    1.66    2.64
  16   3  -3   -5.21    2.18
  16   3  -3    1.56    2.14
  16   3  -3   -0.55    1.09
  16  -3  -2    0.26    1.43
  16  -3  -2   -0.26    0.93
  16   3  -2   -0.19    1.60
  16   3  -2    1.31    1.71
  16   3  -2   -0.83    1.13
  16   3  -1    0.91    1.78
  16  -3  -1    0.33    0.99
  16  -3  -1    4.05    3.31
  16   3  -1    0.98    1.37
  16   3  -1    1.70    1.40
  16   3   0    0.10    0.89
  16  -3   0    0.42    1.74
  16  -3   0    0.80    1.53
  16   3   0   -2.10    1.50
  16   3   0    0.70    1.61
  16   3   1    0.92    1.50
  16  -3   1    1.45    1.10
  16  -3   1    1.75    1.79
  16   3   1    0.21    2.19
  16   3   1   -0.29    1.43
  16   3   2   -0.01    1.00
  16  -3   2    1.76    1.47
  16  -3   2    2.51    2.06
  16   3   2    0.83    1.38
  16   3   2    1.05    1.71
  16   3   3    0.56    1.49
  16  -3   3    0.83    1.25
  16  -3   3    0.01    1.67
  16   3   3    0.21    1.74
  16   3   3    1.01    1.83
  16   3   4    0.76    1.99
  16  -3   4   -0.21    1.41
  16  -3   4    2.37    1.27
  16   3   4   -0.07    1.46
  16   3   4    1.64    1.44
  16   3   5    4.55    2.33
  16  -3   5    2.29    2.07
  16  -3   5    0.35    1.94
  16   3   5    0.29    1.61
  16   3   6    0.15    1.64
  16  -3   6   -0.26    1.02
  16  -3   6   -1.03    2.15
  16   3   6   -0.12    1.24
  16   3   7    2.51    1.45
  16  -3   7    2.79    1.74
  16  -3   7    4.15    3.11
  16   3   7    2.06    2.84
  16   3   8    1.30    1.29
  16  -3   8    1.30    1.05
  16  -3   8    2.86    2.48
  16   3   8    3.87    2.97
  16   3   9    0.01    1.44
  16  -3   9    0.85    1.73
  16  -3   9    1.87    1.36
  16   3   9    0.94    1.96
  16   3  10    3.80    2.63
  16  -3  10   -0.55    1.88
  16  -3  10    1.51    1.87
  16   3  10    3.29    2.28
  16   3  11    5.38    2.44
  16  -3  11    7.58    3.07
  16  -3  11    5.76    3.47
  16   3  11    4.47    1.71
  16   3  12    0.18    1.32
  16  -3  12   -0.87    1.50
  16  -3  12    0.02    1.56
  16   3  13    2.66    1.56
  16  -3  13    1.74    2.37
  16   3  14    1.88    1.74
  16  -3  14    3.33    2.02
  16   3  15   -0.66    0.94
  16  -3  15    4.22    1.88
  16   3  16    0.59    1.46
  16  -3  16    0.33    2.33
  16   3  17    1.72    1.59
  16  -3  17   -0.47    2.70
  16   3  18   -1.41    2.01
  16  -3  18    1.92    2.49
  16  -4 -16    3.06    1.36
  16   4 -16    4.48    2.63
  16  -4 -15    5.15    2.40
  16   4 -15    4.17    2.79
  16  -4 -14    7.17    2.42
  16   4 -14    1.27    1.47
  16  -4 -13   47.21    7.08
  16  -4 -13   38.02    6.81
  16   4 -13   31.82    5.91
  16  -4 -12    7.24    3.18
  16  -4 -12    7.49    3.57
  16   4 -12    4.07    2.82
  16  -4 -11   11.52    3.64
  16  -4 -11    8.28    2.58
  16   4 -11    7.44    2.90
  16  -4 -10    6.18    3.06
  16  -4 -10    1.27    2.01
  16   4 -10    6.26    3.27
  16  -4  -9   15.48    4.10
  16  -4  -9   23.34    4.73
  16   4  -9   22.11    4.40
  16  -4  -8   -0.63    1.40
  16  -4  -8    1.65    1.32
  16   4  -8    0.66    1.94
  16  -4  -7   21.89    4.50
  16  -4  -7   23.61    4.82
  16   4  -7   20.22    4.39
  16  -4  -6    5.61    2.78
  16   4  -6    2.49    0.98
  16  -4  -5   14.82    3.89
  16  -4  -5    5.30    2.24
  16   4  -5   14.96    3.67
  16  -4  -4    4.02    2.53
  16  -4  -4    4.49    2.52
  16   4  -4    1.95    1.89
  16   4  -4    4.22    2.06
  16  -4  -3   40.86    6.52
  16   4  -3   35.19    5.64
  16  -4  -3   41.64    6.81
  16   4  -3   42.72    6.42
  16   4  -2    5.46    2.15
  16   4  -2    4.09    2.02
  16  -4  -2    4.07    2.30
  16  -4  -2    2.73    1.56
  16   4  -1    5.69    2.56
  16   4  -1   11.08    3.35
  16  -4  -1    6.47    2.97
  16  -4  -1    8.13    3.23
  16   4   0    0.66    1.70
  16   4   0    0.90    2.04
  16  -4   0    0.90    1.92
  16  -4   0    1.49    1.08
  16   4   1    8.18    3.18
  16   4   1   10.09    3.33
  16  -4   1    4.06    2.16
  16  -4   1   10.68    3.95
  16   4   2    9.33    3.31
  16   4   2    5.06    2.00
  16  -4   2   10.53    3.65
  16  -4   2    6.91    2.70
  16  -4   3   43.10    6.27
  16  -4   3   42.90    6.32
  16   4   3   45.11    5.99
  16   4   3   42.44    6.55
  16   4   4    8.56    2.88
  16   4   4    6.19    2.73
  16  -4   4    5.20    1.73
  16  -4   4    3.71    2.18
  16   4   5   11.84    3.67
  16   4   5   14.13    3.97
  16  -4   5   11.86    3.23
  16  -4   5   15.42    4.25
  16   4   6   -0.34    1.43
  16  -4   6    1.47    1.06
  16  -4   6   -0.85    2.31
  16   4   7   25.67    4.83
  16   4   7   17.81    4.29
  16  -4   7   27.93    5.33
  16  -4   7   21.93    4.56
  16   4   8    3.66    2.14
  16   4   8    2.13    0.77
  16  -4   8    0.89    2.45
  16  -4   8    0.43    1.41
  16   4   9   14.90    4.54
  16   4   9   20.41    4.32
  16  -4   9   16.40    3.92
  16   4  10    4.86    2.93
  16   4  10    8.71    2.97
  16  -4  10    5.17    2.19
  16  -4  10    4.41    2.17
  16   4  11   14.14    4.43
  16   4  11    9.54    2.78
  16  -4  11    6.79    2.37
  16  -4  11    8.77    4.02
  16   4  12    7.22    2.47
  16   4  12    5.09    2.34
  16  -4  12    9.66    3.93
  16  -4  12    7.75    3.40
  16  -4  13   43.26    6.89
  16  -4  13   35.14    6.43
  16   4  13   33.62    5.83
  16   4  14    4.76    1.99
  16  -4  14    3.04    2.71
  16  -4  14   -0.33    2.66
  16   4  15    3.15    2.48
  16  -4  15    6.68    3.39
  16  -4  15    2.19    2.48
  16   4  16    4.99    2.05
  16  -4  16    6.60    3.88
  16  -4  16    5.19    2.93
  16  -5 -14   13.18    4.18
  16  -5 -14   10.47    3.09
  16   5 -14    6.74    2.88
  16  -5 -13    0.25    1.17
  16  -5 -13    0.76    1.56
  16   5 -13    1.85    2.01
  16  -5 -12    0.55    1.50
  16  -5 -12    3.06    1.67
  16   5 -12    2.81    2.05
  16  -5 -11    3.56    2.44
  16  -5 -11    5.40    3.04
  16   5 -11    3.62    1.42
  16  -5 -10    4.06    2.60
  16  -5 -10    3.95    1.20
  16   5 -10    2.97    2.01
  16  -5  -9    1.18    2.33
  16  -5  -9    0.90    2.32
  16   5  -9    3.77    1.54
  16  -5  -8    0.02    1.80
  16  -5  -8    1.87    1.30
  16   5  -8    1.98    1.64
  16   5  -7   -0.60    2.04
  16  -5  -7    1.43    1.93
  16  -5  -7    3.21    2.54
  16   5  -6    2.93    2.04
  16  -5  -6    2.14    1.37
  16  -5  -6    1.28    1.12
  16   5  -5   12.71    3.47
  16  -5  -5   10.63    3.52
  16  -5  -5    8.39    3.23
  16   5  -4    1.93    1.90
  16  -5  -4    3.23    1.74
  16  -5  -4    3.96    1.93
  16   5  -3    5.69    2.50
  16  -5  -3    1.09    1.35
  16  -5  -3    4.55    2.31
  16   5  -2   -0.31    1.15
  16   5  -2    2.48    1.40
  16  -5  -2    0.26    1.48
  16  -5  -2    1.86    2.22
  16   5  -1    2.41    1.10
  16  -5  -1    6.50    2.60
  16  -5  -1    5.87    2.55
  16   5   0    0.94    2.15
  16   5   0    0.63    1.06
  16  -5   0    1.24    1.75
  16  -5   0   -1.48    1.85
  16   5   1    4.48    1.71
  16   5   1   10.87    3.73
  16  -5   1    8.38    3.31
  16  -5   1    8.89    3.62
  16   5   2    0.31    0.99
  16   5   2    4.30    3.31
  16  -5   2   -0.06    1.24
  16  -5   2   -0.39    1.88
  16   5   3    4.02    2.39
  16   5   3    3.70    1.38
  16  -5   3    4.23    2.22
  16  -5   3    3.37    2.61
  16   5   4    0.32    1.72
  16   5   4    1.49    2.11
  16  -5   4    1.39    1.14
  16  -5   4    6.39    3.81
  16   5   5    9.91    2.65
  16   5   5    8.96    3.41
  16  -5   5   15.58    3.63
  16  -5   5   12.22    3.46
  16   5   6    1.13    1.88
  16   5   6    2.55    2.21
  16  -5   6    2.72    2.24
  16  -5   6    1.86    1.80
  16   5   7    0.09    1.27
  16  -5   7    0.34    1.51
  16   5   7    1.42    2.21
  16  -5   7    0.13    2.05
  16   5   8   -2.04    2.27
  16  -5   8   -1.32    2.49
  16   5   8   -0.79    1.51
  16  -5   8    0.57    1.31
  16   5   9   -0.92    1.73
  16   5   9    0.27    0.95
  16  -5   9    0.89    1.89
  16  -5   9   -0.85    2.23
  16   5  10    4.11    1.70
  16  -5  10    7.65    2.65
  16   5  10    9.00    3.18
  16  -5  10    8.56    3.70
  16   5  11    1.82    1.65
  16   5  11    3.23    2.69
  16  -5  11    5.10    2.17
  16  -5  11    5.77    1.38
  16   5  12    2.61    2.53
  16  -5  12    2.62    1.97
  16   5  12    4.02    2.50
  16  -5  12    3.27    2.18
  16   5  13    1.67    1.54
  16  -5  13    2.67    3.65
  16  -5  13   -0.73    1.53
  16   5  14    6.85    2.78
  16  -5  14    2.37    2.46
  16  -6 -11    2.37    1.76
  16  -6 -11    2.54    2.23
  16   6 -11    4.04    2.17
  16   6 -10    9.13    2.87
  16  -6 -10    4.78    1.87
  16  -6 -10   11.28    4.20
  16   6  -9   22.49    4.47
  16  -6  -9   16.78    4.59
  16  -6  -9   16.88    4.64
  16   6  -8    2.88    1.74
  16  -6  -8    3.46    2.74
  16  -6  -8    2.95    1.57
  16   6  -7   20.21    4.44
  16  -6  -7   28.77    5.34
  16  -6  -7   17.65    5.08
  16   6  -6    4.16    2.56
  16  -6  -6    1.70    2.17
  16  -6  -6   -3.67    2.91
  16   6  -5   -0.54    1.46
  16  -6  -5   -0.60    2.04
  16   6  -4    3.62    1.45
  16  -6  -4    4.68    2.11
  16  -6  -4    8.01    3.25
  16   6  -3   30.83    5.42
  16  -6  -3   25.94    5.11
  16  -6  -3   27.66    5.52
  16   6  -2   21.36    4.55
  16  -6  -2   22.28    5.11
  16  -6  -2   32.21    6.08
  16   6  -1   27.49    5.37
  16  -6  -1   19.98    4.37
  16   6  -1   18.21    4.78
  16  -6  -1   18.76    3.86
  16   6   0    0.61    1.94
  16  -6   0    3.31    2.76
  16   6   0   -2.57    2.67
  16  -6   0    2.03    2.56
  16   6   1   17.12    4.36
  16  -6   1   23.10    4.92
  16   6   1   15.29    3.98
  16  -6   1   18.58    4.96
  16   6   2   24.20    4.30
  16  -6   2   20.85    4.95
  16   6   2   14.65    3.82
  16  -6   2   25.50    5.09
  16  -6   3   21.27    4.66
  16   6   3   16.94    4.39
  16  -6   3   28.52    5.96
  16   6   3   32.00    5.85
  16   6   4    7.23    2.64
  16  -6   4    6.06    2.65
  16   6   4    7.16    3.00
  16  -6   4    2.98    2.33
  16   6   5    1.73    2.09
  16  -6   5    5.12    2.72
  16   6   5    3.55    2.33
  16  -6   5    2.33    2.35
  16   6   6    1.62    2.08
  16  -6   6    0.55    2.01
  16   6   6    0.69    0.95
  16  -6   6    0.63    1.31
  16   6   7   14.22    4.47
  16  -6   7   19.79    4.96
  16  -6   7   18.30    4.88
  16   6   8   -3.21    3.12
  16  -6   8    4.34    3.44
  16   6   8    1.39    2.84
  16  -6   8   -0.88    1.83
  16   6   9   17.30    4.80
  16  -6   9   20.56    4.51
  16   6   9   16.43    4.58
  16  -6   9   20.69    5.00
  16   6  10    9.28    3.21
  16  -6  10   11.05    3.98
  16   6  10    4.41    2.15
  16  -6  10    5.94    2.56
  16   6  11    1.46    2.10
  16  -6  11    2.43    1.76
  16   6  11    9.59    2.74
  16  -6  11    7.03    2.79
  16   7  -6    1.10    1.69
  16  -7  -6   -1.43    1.42
  16   7  -5   10.47    2.61
  16  -7  -5    8.23    3.56
  16  -7  -5   12.05    3.98
  16   7  -4    1.35    1.74
  16  -7  -4   -0.05    1.83
  16  -7  -4   -0.62    2.12
  16   7  -3    4.62    2.20
  16  -7  -3    4.84    2.59
  16  -7  -3    7.87    2.99
  16   7  -2    1.51    2.18
  16  -7  -2   -1.04    1.60
  16  -7  -2    1.75    1.79
  16   7  -1    1.58    1.66
  16  -7  -1   -1.11    1.66
  16  -7  -1    1.34    2.15
  16   7   0    1.17    2.12
  16  -7   0    1.29    1.89
  16  -7   0   -2.45    1.96
  16   7   1    0.81    1.83
  16  -7   1    0.26    1.40
  16   7   1    2.55    2.61
  16  -7   1   -2.96    1.84
  16   7   2    0.31    1.67
  16  -7   2   -0.37    2.10
  16   7   2    1.63    1.70
  16  -7   2   -1.47    2.71
  16   7   3    6.90    2.25
  16  -7   3    6.34    2.39
  16   7   3    0.28    1.86
  16  -7   3    3.22    2.12
  16   7   4   -0.90    1.81
  16  -7   4    1.77    2.30
  16   7   4    2.07    2.12
  16  -7   4    4.10    3.17
  16   7   5    5.80    2.74
  16  -7   5   14.14    4.48
  16   7   5    5.59    2.48
  16  -7   5   10.70    4.30
  16   7   6   -0.65    2.21
  16  -7   6    4.65    3.66
  16   7   6    3.35    2.97
  16  -7   6    5.57    3.14
  17   0 -17    4.85    3.45
  17   0 -16   -2.01    1.90
  17   0 -15   -0.09    2.13
  17   0 -14   -0.13    1.54
  17   0 -13    2.44    2.26
  17   0 -12   -1.48    1.28
  17   0 -11   -2.05    1.70
  17   0 -10    0.64    1.35
  17   0  -9   -0.26    1.75
  17   0  -8   -0.15    1.61
  17   0  -8    2.82    3.49
  17   0  -7    1.14    1.26
  17   0  -7    0.25    1.64
  17   0  -6    0.27    1.43
  17   0  -6   -0.78    1.25
  17   0  -5    0.07    1.80
  17   0  -5    0.47    1.74
  17   0  -4    0.43    1.82
  17   0  -4   -0.52    1.29
  17   0  -3   -1.63    1.69
  17   0  -3    0.10    1.32
  17   0  -2    0.85    1.45
  17   0  -2    1.25    2.09
  17   0  -1   -0.19    1.62
  17   0  -1    1.01    1.27
  17   0   0   -0.45    0.94
  17   0   0    2.28    1.83
  17   0   1   -1.13    1.58
  17   0   1    1.96    1.86
  17   0   2    0.60    0.92
  17   0   2   -0.69    1.85
  17   0   3   -0.50    1.58
  17   0   3   -0.37    1.56
  17   0   4    2.42    2.51
  17   0   4    1.53    1.11
  17   0   5    0.35    2.17
  17   0   5    1.10    2.38
  17   0   6    0.35    1.54
  17   0   6   -0.49    1.51
  17   0   7   -0.80    1.54
  17   0   7    0.28    1.42
  17   0   8   -0.99    0.98
  17   0   9   -0.75    1.86
  17   0  10    0.12    1.18
  17   0  11   -0.71    1.22
  17   0  12    1.00    1.70
  17   0  13    0.78    2.21
  17   0  14    0.63    1.11
  17   0  15    0.50    1.41
  17   0  16   -0.35    1.86
  17   0  17    1.23    2.44
  17  -1 -17   27.41    5.38
  17  -1 -16   11.02    3.46
  17  -1 -15    2.01    1.21
  17  -1 -14    8.30    3.19
  17  -1 -13    7.11    3.18
  17   1 -12   15.76    5.43
  17  -1 -12    4.98    2.59
  17  -1 -11   30.28    5.41
  17   1 -11   20.38    4.76
  17  -1 -10   19.51    5.35
  17  -1 -10   23.16    5.15
  17  -1  -9   12.75    3.19
  17  -1  -9    6.85    2.88
  17   1  -9    7.58    3.88
  17  -1  -8   14.99    4.04
  17  -1  -8   15.24    4.23
  17   1  -8    8.78    3.03
  17  -1  -7    5.46    0.97
  17   1  -7    1.68    1.63
  17  -1  -7    1.49    2.08
  17   1  -7    2.18    2.08
  17  -1  -6    9.01    3.29
  17   1  -6    6.98    1.95
  17  -1  -6   11.02    4.00
  17   1  -6    9.34    3.64
  17  -1  -5   10.14    3.05
  17   1  -5    9.39    2.69
  17  -1  -5    6.24    2.66
  17   1  -5   13.88    4.47
  17  -1  -4   32.04    5.76
  17   1  -4   31.22    5.18
  17  -1  -4   22.60    5.12
  17   1  -4   29.85    5.46
  17  -1  -3   41.38    6.04
  17   1  -3   32.36    5.61
  17   1  -3   33.86    6.10
  17  -1  -3   24.21    5.02
  17   1  -3   33.35    5.67
  17  -1  -2   21.33    4.74
  17  -1  -2   25.18    5.54
  17   1  -2   22.86    4.85
  17   1  -2   21.32    5.29
  17   1  -2   10.92    3.17
  17  -1  -1   10.48    3.12
  17   1  -1    8.65    3.28
  17  -1  -1    7.77    3.15
  17   1  -1   11.99    3.75
  17   1  -1   11.01    3.22
  17  -1   0   32.65    5.63
  17   1   0   46.29    6.58
  17  -1   0   31.52    5.86
  17   1   0   31.04    5.57
  17   1   0   35.75    5.33
  17  -1   1   12.59    3.77
  17   1   1    7.81    2.30
  17  -1   1    2.51    1.39
  17   1   1   14.00    3.99
  17   1   1    7.87    2.58
  17  -1   2   23.80    5.03
  17  -1   2   22.55    4.80
  17   1   2   21.04    4.61
  17   1   2   21.50    4.59
  17   1   2   22.78    4.92
  17   1   3   31.63    5.30
  17  -1   3   25.35    4.88
  17  -1   3   28.32    5.46
  17   1   3   34.90    5.85
  17   1   3   21.23    4.72
  17   1   4   38.56    6.08
  17  -1   4   28.85    4.78
  17  -1   4   44.32    6.60
  17   1   4   33.52    5.89
  17   1   4   27.56    4.97
  17  -1   5    0.96    1.37
  17  -1   5   10.46    3.83
  17   1   5   12.60    3.40
  17   1   5    6.89    2.21
  17   1   5   10.67    2.98
  17  -1   6    8.18    3.24
  17  -1   6    7.96    3.30
  17   1   6   11.30    3.13
  17   1   6    9.51    2.99
  17   1   6    9.36    2.78
  17  -1   7    3.72    2.33
  17  -1   7    2.02    1.06
  17   1   7    2.97    1.31
  17   1   7    3.71    1.98
  17  -1   8    8.47    2.59
  17  -1   8    5.82    2.79
  17   1   8    9.92    2.92
  17   1   8    5.11    1.89
  17  -1   9    3.50    2.83
  17  -1   9    9.76    3.44
  17   1   9    9.18    3.68
  17   1   9    9.26    3.08
  17  -1  10   13.73    4.08
  17   1  10   14.85    3.95
  17   1  11   29.78    5.35
  17  -1  11   27.52    5.07
  17  -1  12   12.79    2.94
  17   1  12    9.80    3.60
  17  -1  13    3.28    2.13
  17   1  13    7.08    3.21
  17  -1  14   10.08    3.21
  17   1  14    6.34    2.28
  17  -1  15    1.61    2.26
  17   1  15    4.46    2.37
  17  -1  16    6.21    3.07
  17   1  16   15.15    4.23
  17  -1  17   32.12    5.94
  17   1  17   32.81    6.08
  17  -2 -17    3.61    2.24
  17  -2 -16   -0.54    1.58
  17  -2 -15    1.21    1.00
  17  -2 -14    3.64    1.35
  17  -2 -13    0.11    1.53
  17  -2 -12    0.30    2.25
  17  -2 -11    7.15    4.41
  17  -2 -11   -0.77    1.79
  17  -2 -10    1.99    2.33
  17  -2 -10    1.51    2.46
  17   2 -10    4.78    2.84
  17  -2  -9    9.19    3.74
  17  -2  -9    3.15    1.64
  17   2  -9    5.34    2.53
  17  -2  -8    1.83    1.68
  17  -2  -8    2.61    1.69
  17   2  -8    1.13    1.08
  17  -2  -7    3.89    2.59
  17  -2  -7    5.25    2.87
  17   2  -7   -4.10    1.98
  17   2  -7    5.36    2.94
  17  -2  -6    1.64    2.08
  17   2  -6    1.97    1.33
  17  -2  -6    3.68    2.42
  17   2  -6    0.25    1.42
  17   2  -6    3.92    2.49
  17  -2  -5    1.68    1.93
  17   2  -5    1.09    2.01
  17  -2  -5    1.68    1.37
  17   2  -5   -0.05    1.13
  17  -2  -4    2.52    2.21
  17   2  -4    2.41    1.34
  17  -2  -4   -0.09    1.59
  17   2  -4   -0.26    1.95
  17   2  -4    1.47    2.08
  17  -2  -3   -1.89    2.37
  17  -2  -3    0.07    1.81
  17   2  -3    0.19    1.71
  17   2  -3   -0.77    1.72
  17   2  -3   -0.69    1.31
  17  -2  -2   -0.27    1.21
  17  -2  -2    1.23    2.12
  17   2  -2    2.62    2.34
  17   2  -2    1.68    0.97
  17   2  -2   -0.80    1.28
  17  -2  -1   -0.01    1.24
  17  -2  -1    2.04    1.91
  17   2  -1    0.46    1.31
  17   2  -1    0.79    1.83
  17   2  -1    3.52    2.15
  17  -2   0   -0.46    1.23
  17  -2   0   -0.63    1.78
  17   2   0    0.03    1.72
  17   2   0    1.33    0.89
  17   2   0   -0.68    1.05
  17  -2   1    3.62    2.64
  17  -2   1    2.44    2.46
  17   2   1    3.71    3.14
  17   2   1    2.02    2.06
  17   2   1   -0.31    1.34
  17  -2   2    1.80    2.00
  17  -2   2   -0.17    1.47
  17   2   2   -0.44    1.37
  17   2   2    2.90    1.99
  17   2   2    2.52    1.94
  17  -2   3    0.43    1.54
  17  -2   3   -0.28    1.28
  17   2   3    1.70    2.35
  17   2   3    1.52    1.90
  17   2   3   -0.81    1.53
  17  -2   4    1.92    1.57
  17  -2   4    0.70    0.97
  17   2   4    4.91    3.10
  17   2   4    0.31    1.42
  17   2   4    1.45    2.07
  17  -2   5   -0.09    2.32
  17  -2   5    1.62    1.83
  17   2   5    4.25    2.47
  17   2   5    1.44    1.36
  17   2   5   -0.10    1.04
  17   2   6    4.80    2.33
  17  -2   6    6.41    3.07
  17  -2   6    4.83    1.35
  17   2   6    2.90    2.45
  17   2   7    3.15    2.30
  17  -2   7    4.42    2.01
  17  -2   7    4.82    2.97
  17   2   7    2.18    1.34
  17   2   8    5.48    2.45
  17  -2   8    3.98    1.16
  17   2   8    6.06    2.03
  17   2   9    3.85    1.74
  17  -2   9    5.76    2.70
  17  -2   9    5.38    1.96
  17   2   9    4.25    2.72
  17   2  10   -0.42    1.06
  17  -2  10   -0.02    2.31
  17  -2  10    2.63    2.45
  17   2  10    0.24    1.82
  17   2  11    2.42    1.87
  17  -2  11    1.95    1.54
  17  -2  11   -1.61    2.67
  17   2  12    0.30    1.17
  17  -2  12   -0.57    1.83
  17   2  13    8.11    3.94
  17  -2  13    0.71    1.00
  17   2  14    2.54    2.53
  17  -2  14    2.02    1.15
  17   2  15    1.02    1.78
  17  -2  15    1.75    1.79
  17   2  16    3.01    1.96
  17  -2  16   -1.02    2.26
  17   2  17   10.78    4.07
  17  -2  17    0.21    2.85
  17  -3 -15   10.53    3.76
  17  -3 -14    3.64    2.73
  17   3 -14    2.72    3.13
  17  -3 -13    3.98    1.95
  17   3 -13    3.58    2.49
  17  -3 -12    4.53    3.48
  17  -3 -12    0.64    1.86
  17   3 -12    1.48    2.22
  17  -3 -11    8.09    3.02
  17  -3 -11    8.77    3.50
  17   3 -11   10.76    3.86
  17  -3 -10   17.09    4.33
  17  -3 -10   16.49    4.37
  17   3 -10   13.12    3.25
  17  -3  -9    6.41    2.98
  17  -3  -9    6.27    3.27
  17   3  -9    7.28    3.13
  17  -3  -8    0.41    0.92
  17  -3  -8    0.26    1.80
  17   3  -8    0.01    1.50
  17  -3  -7   12.37    3.65
  17  -3  -7   11.99    3.90
  17   3  -7    7.43    2.91
  17  -3  -6    0.75    1.29
  17  -3  -6    2.22    1.99
  17   3  -6    1.04    2.16
  17  -3  -5   26.65    5.25
  17  -3  -5   22.99    5.55
  17   3  -5   26.87    5.04
  17  -3  -4   21.35    4.48
  17  -3  -4   21.82    4.86
  17   3  -4   18.17    4.65
  17   3  -4   21.51    4.42
  17  -3  -3    1.15    1.59
  17  -3  -3    1.59    1.02
  17   3  -3    3.75    2.22
  17   3  -3    0.91    1.17
  17  -3  -2   16.08    4.08
  17  -3  -2   25.38    4.86
  17   3  -2   22.98    4.69
  17   3  -2   23.94    4.86
  17  -3  -1   57.64    7.59
  17   3  -1   64.32    7.65
  17  -3  -1   70.86    8.36
  17   3  -1   60.01    8.62
  17   3  -1   68.11    7.94
  17  -3   0    0.28    1.72
  17  -3   0    0.44    1.07
  17   3   0    0.06    1.86
  17   3   0    2.65    1.62
  17   3   0    3.15    2.00
  17  -3   1   58.72    7.58
  17   3   1   49.60    6.40
  17  -3   1   61.55    8.11
  17   3   1   61.28    7.58
  17   3   1   65.30    7.54
  17  -3   2   29.06    5.15
  17   3   2   32.45    5.99
  17  -3   2   23.84    5.22
  17   3   2   29.31    5.57
  17   3   2   20.23    4.49
  17   3   3    3.60    2.46
  17  -3   3    5.65    2.37
  17  -3   3    0.53    1.69
  17   3   3    1.96    1.53
  17   3   3    1.73    1.89
  17  -3   4   12.84    3.50
  17   3   4   27.69    5.15
  17  -3   4   24.20    4.72
  17   3   4   19.42    5.36
  17   3   4   18.97    4.53
  17   3   5   23.97    4.70
  17  -3   5   26.19    5.15
  17  -3   5   29.53    5.82
  17   3   5   20.48    4.75
  17   3   5   30.17    5.34
  17   3   6   -1.15    2.01
  17  -3   6    1.54    1.77
  17  -3   6    0.70    1.85
  17   3   6    3.45    2.38
  17   3   7    6.10    2.64
  17  -3   7    6.63    2.42
  17  -3   7   11.31    3.51
  17   3   7    6.19    2.25
  17   3   8    4.07    1.98
  17  -3   8    3.29    2.38
  17  -3   8    2.85    2.63
  17   3   8   -0.96    1.40
  17   3   9    4.93    1.88
  17  -3   9    6.95    3.28
  17  -3   9    2.62    2.11
  17   3   9    4.69    3.12
  17   3  10   18.08    4.18
  17  -3  10   12.82    3.27
  17  -3  10   19.30    4.73
  17   3  10   12.74    3.98
  17   3  11    6.14    3.20
  17  -3  11    2.76    1.54
  17  -3  11    6.24    3.10
  17   3  12    1.22    1.94
  17  -3  12    2.99    2.14
  17  -3  12    0.68    1.34
  17   3  13    0.79    1.62
  17  -3  13    6.85    3.09
  17  -3  13    6.37    4.21
  17   3  14    4.95    1.59
  17  -3  14    3.34    2.63
  17  -3  14    8.27    2.67
  17   3  15   12.93    3.86
  17  -3  15   13.94    4.20
  17  -3  15   13.67    4.04
  17  -4 -14    6.61    2.96
  17   4 -14   14.01    3.82
  17  -4 -13    8.73    3.46
  17  -4 -13   14.70    4.56
  17   4 -13    7.80    3.02
  17  -4 -12    3.89    2.19
  17  -4 -12    3.97    2.97
  17   4 -12    6.03    2.43
  17  -4 -11    1.21    1.88
  17  -4 -11    2.09    1.67
  17   4 -11    4.90    2.29
  17  -4 -10   -1.38    2.04
  17  -4 -10   -0.31    2.24
  17   4 -10    3.23    1.29
  17  -4  -9   -1.15    1.54
  17  -4  -9   -0.32    2.34
  17   4  -9    3.10    2.21
  17  -4  -8    2.92    1.53
  17  -4  -8    1.71    2.80
  17   4  -8    7.29    3.57
  17  -4  -7    3.35    2.44
  17  -4  -7    0.28    1.69
  17   4  -7    3.46    2.25
  17  -4  -6   11.74    3.93
  17  -4  -6    8.57    3.87
  17   4  -6    7.34    2.78
  17  -4  -5   14.35    3.45
  17  -4  -5   13.35    3.62
  17   4  -5   11.25    3.31
  17  -4  -4    5.77    2.48
  17  -4  -4    2.08    2.01
  17   4  -4    0.24    1.47
  17  -4  -3    3.54    2.24
  17  -4  -3   -0.12    2.17
  17   4  -3   -0.44    2.61
  17   4  -3    0.03    1.29
  17   4  -2    2.61    2.23
  17  -4  -2    4.50    2.17
  17  -4  -2    6.08    1.58
  17   4  -2    7.63    2.41
  17   4  -1   10.73    3.39
  17  -4  -1   10.23    3.68
  17  -4  -1    7.79    3.09
  17   4  -1   18.59    4.14
  17   4   0    6.27    3.16
  17  -4   0    7.52    3.34
  17  -4   0    3.91    2.64
  17   4   0    4.34    1.79
  17   4   1   12.39    3.42
  17  -4   1    9.90    2.88
  17  -4   1   10.75    3.86
  17   4   1   10.70    3.83
  17   4   2    5.37    2.52
  17  -4   2    6.43    3.08
  17  -4   2    6.42    1.92
  17   4   2    9.97    3.18
  17   4   3    2.27    1.72
  17  -4   3    2.94    1.47
  17  -4   3    1.21    1.52
  17   4   3    4.61    2.33
  17   4   4    1.10    1.72
  17   4   4    2.24    0.97
  17  -4   4    3.18    1.99
  17  -4   4    6.35    3.14
  17   4   5   16.17    4.08
  17   4   5   12.01    3.87
  17  -4   5   12.05    3.38
  17  -4   5   17.92    3.97
  17   4   6    7.98    2.68
  17   4   6    4.85    1.95
  17  -4   6    9.13    3.15
  17  -4   6   13.32    4.17
  17   4   7   -0.82    1.98
  17   4   7    2.75    1.52
  17  -4   7    0.27    1.54
  17  -4   7    2.76    2.31
  17   4   8    1.88    1.66
  17   4   8    7.72    3.24
  17  -4   8    3.11    1.93
  17  -4   8    4.34    1.88
  17   4   9   -0.35    1.41
  17  -4   9    0.77    2.27
  17  -4   9    0.60    1.35
  17   4   9   -0.98    1.88
  17   4  10    0.24    1.85
  17  -4  10    1.24    2.80
  17  -4  10   -0.49    2.03
  17   4  10   -0.48    1.81
  17   4  11    2.71    1.78
  17  -4  11    6.81    2.93
  17  -4  11    2.76    2.40
  17   4  11    5.42    3.42
  17   4  12    5.90    2.62
  17  -4  12    6.03    3.20
  17  -4  12    8.07    3.61
  17   4  13   10.60    3.25
  17  -4  13   16.96    4.50
  17  -4  13    8.98    2.98
  17   4  14    4.11    2.12
  17  -4  14    7.11    3.11
  17  -4  14    8.43    3.02
  17  -5 -11    7.61    3.19
  17  -5 -11    7.57    2.85
  17   5 -11    9.68    3.85
  17  -5 -10   16.59    4.15
  17  -5 -10   21.96    5.38
  17   5 -10   21.10    4.70
  17  -5  -9   -0.10    1.65
  17  -5  -9    0.71    1.88
  17   5  -9    3.81    3.66
  17  -5  -8    3.74    1.98
  17  -5  -8    2.45    1.41
  17   5  -8    2.52    2.64
  17  -5  -7   15.17    4.85
  17  -5  -7    9.78    3.78
  17   5  -7   12.13    3.43
  17  -5  -6   17.11    4.47
  17  -5  -6   19.17    5.12
  17   5  -6   18.78    4.33
  17  -5  -5    7.57    3.15
  17  -5  -5   10.17    3.45
  17   5  -5    5.74    2.76
  17   5  -4    1.15    1.15
  17  -5  -4    1.39    1.19
  17  -5  -4    2.36    1.29
  17   5  -3    9.65    3.62
  17  -5  -3    5.13    2.87
  17  -5  -3    4.27    2.73
  17   5  -2    3.54    2.36
  17  -5  -2    1.15    1.51
  17  -5  -2    3.42    2.53
  17   5  -1    6.03    3.01
  17   5  -1    3.36    2.16
  17  -5  -1    5.76    2.61
  17   5   0    7.43    3.35
  17   5   0    9.20    3.03
  17  -5   0    8.24    2.93
  17   5   1   10.29    3.22
  17   5   1    6.89    3.15
  17  -5   1    8.23    2.59
  17  -5   1    6.95    2.87
  17   5   2    2.41    2.44
  17   5   2    3.92    2.32
  17  -5   2    3.38    1.12
  17  -5   2    9.88    2.62
  17   5   3    5.31    2.00
  17   5   3    5.16    2.79
  17  -5   3    9.45    3.30
  17  -5   3    6.70    3.21
  17   5   4    3.45    2.58
  17   5   4    1.59    1.72
  17  -5   4    4.20    2.65
  17  -5   4    8.50    3.36
  17   5   5    6.76    3.07
  17   5   5   10.16    2.86
  17  -5   5    1.18    1.22
  17  -5   5    0.71    1.35
  17   5   6   23.88    5.22
  17  -5   6   17.33    4.22
  17  -5   6   35.13    6.37
  17   5   6   30.69    5.73
  17   5   7    6.91    2.71
  17   5   7    7.12    2.62
  17  -5   7    9.12    3.08
  17  -5   7    7.39    3.27
  17   5   8    2.67    1.37
  17   5   8    1.60    1.56
  17  -5   8    3.92    2.71
  17  -5   8    8.92    3.54
  17   5   9    2.43    2.08
  17   5   9    0.38    1.28
  17  -5   9    0.44    2.23
  17  -5   9    0.78    2.24
  17   5  10   10.72    3.97
  17   5  10   16.57    4.24
  17  -5  10   12.74    4.43
  17   5  11    6.11    1.62
  17   5  11   11.26    3.32
  17  -5  11   11.25    3.42
  17  -5  11    4.19    2.98
  17   6  -7    0.51    2.26
  17  -6  -7    0.46    1.50
  17  -6  -7    1.85    1.73
  17   6  -6    1.74    2.29
  17  -6  -6    5.07    2.90
  17  -6  -6    5.25    2.67
  17   6  -5    4.42    2.20
  17  -6  -5    3.34    1.64
  17  -6  -5    1.35    2.09
  17   6  -4    1.30    1.65
  17  -6  -4    0.89    1.39
  17  -6  -4    2.96    2.27
  17   6  -3    3.33    1.71
  17  -6  -3    8.89    2.82
  17  -6  -3    6.39    3.95
  17   6  -2    3.26    2.38
  17  -6  -2    1.47    1.59
  17  -6  -2    2.40    2.22
  17   6  -1    1.34    1.66
  17  -6  -1    2.42    1.87
  17  -6  -1    0.57    1.68
  17   6   0    2.24    1.98
  17   6   0    3.40    2.58
  17  -6   0    3.42    2.64
  17  -6   0   -0.72    1.64
  17   6   1   -1.16    1.32
  17  -6   1    0.82    2.61
  17   6   1    0.85    2.25
  17  -6   1   -3.17    2.62
  17   6   2    4.30    1.57
  17  -6   2    0.09    2.37
  17   6   2    1.43    1.93
  17  -6   2   -0.27    2.10
  17   6   3    4.61    1.61
  17  -6   3    1.19    1.80
  17   6   3    1.70    1.10
  17  -6   3    4.88    2.76
  17   6   4    3.06    2.37
  17  -6   4    4.66    2.34
  17   6   4   -0.04    2.05
  17  -6   4    5.37    3.15
  17   6   5    1.19    1.52
  17  -6   5    1.09    1.70
  17   6   5    2.38    2.50
  17  -6   5    5.93    3.27
  17   6   6    3.69    2.44
  17  -6   6    3.76    2.43
  17   6   6    2.80    1.82
  17  -6   6    5.90    3.58
  17   6   7    0.74    1.73
  17  -6   7    1.49    1.63
  17   6   7    1.45    2.21
  17  -6   7    0.46    2.80
  18   0 -15  152.02   13.20
  18   0 -14    1.93    1.16
  18   0 -13   13.03    4.19
  18   0 -12   15.53    4.97
  18   0 -11  144.01   12.71
  18   0 -10   10.91    3.77
  18   0  -9    9.15    3.49
  18   0  -8   16.44    5.76
  18   0  -8   11.16    3.17
  18   0  -7    3.12    1.78
  18   0  -7    2.78    3.02
  18   0  -6    2.40    2.12
  18   0  -6    3.10    1.38
  18   0  -5   65.64    8.15
  18   0  -5   62.89    8.34
  18   0  -4   63.42    8.27
  18   0  -4   63.28    8.01
  18   0  -3   62.59    7.95
  18   0  -3   53.33    7.46
  18   0  -2   20.06    4.19
  18   0  -2   21.92    4.68
  18   0  -1   23.79    4.99
  18   0  -1   31.67    5.87
  18   0   0    9.15    2.26
  18   0   0   14.81    3.89
  18   0   1   20.15    3.95
  18   0   1   23.12    4.87
  18   0   2   22.18    4.75
  18   0   2   23.98    4.99
  18   0   3   52.85    7.18
  18   0   3   45.34    7.02
  18   0   4   54.75    7.54
  18   0   4   59.89    7.75
  18   0   5   62.00    8.00
  18   0   5   66.59    8.38
  18   0   6   -0.78    1.81
  18   0   6    2.85    2.47
  18   0   7    5.22    2.82
  18   0   7    4.06    3.06
  18   0   8   13.18    3.74
  18   0   8    9.60    3.23
  18   0   9   29.86    5.12
  18   0   9   30.54    5.60
  18   0  10   21.52    5.30
  18   0  11  169.27   13.19
  18   0  12   21.58    5.43
  18   0  13    7.47    2.64
  18   0  14    1.84    1.52
  18   0  15  171.67   13.46
  18  -1 -15    8.22    3.15
  18  -1 -14   -2.03    1.87
  18  -1 -13    4.08    2.42
  18  -1 -12    1.60    1.42
  18  -1 -11    2.38    1.46
  18   1 -11   -6.65    2.66
  18  -1 -10   23.31    5.72
  18   1 -10   32.22    6.26
  18  -1  -9    3.20    2.73
  18  -1  -9    1.55    1.57
  18   1  -9    0.49    1.87
  18  -1  -8    1.80    2.15
  18  -1  -8    0.47    1.51
  18   1  -8    4.47    2.85
  18  -1  -7    2.26    1.52
  18  -1  -7    3.61    2.12
  18   1  -7    4.39    3.30
  18  -1  -6    3.82    1.71
  18   1  -6   12.83    3.99
  18  -1  -6   15.13    4.29
  18   1  -6    9.82    4.14
  18  -1  -5    1.04    1.96
  18   1  -5    0.37    1.04
  18  -1  -5    1.51    2.12
  18   1  -5    2.50    1.89
  18  -1  -4    0.47    1.48
  18   1  -4    0.46    1.90
  18  -1  -4   -0.84    1.75
  18   1  -4   -0.56    2.21
  18  -1  -3    4.15    0.96
  18   1  -3   -0.92    2.14
  18  -1  -3   -0.90    2.45
  18   1  -3    0.80    2.38
  18  -1  -2   -0.41    1.55
  18   1  -2    3.56    2.70
  18  -1  -2    0.19    1.93
  18   1  -2    1.51    2.05
  18  -1  -1    1.26    1.12
  18   1  -1    1.76    1.11
  18  -1  -1    0.91    1.14
  18   1  -1    1.98    2.31
  18  -1   0    0.33    2.18
  18   1   0    2.94    2.35
  18  -1   0   -1.26    1.26
  18   1   0   -0.35    1.90
  18  -1   1    1.99    1.41
  18   1   1    1.30    1.69
  18  -1   1    0.63    2.09
  18   1   1    1.14    1.85
  18  -1   2    0.90    1.94
  18   1   2    0.80    1.35
  18  -1   2    4.85    2.87
  18   1   2   -0.18    1.26
  18  -1   3   -0.67    1.23
  18   1   3   -0.17    1.29
  18  -1   3    1.06    1.53
  18   1   3    1.35    2.18
  18  -1   4    2.28    1.39
  18  -1   4   -1.45    2.64
  18   1   4    1.07    1.92
  18   1   4    5.10    3.24
  18  -1   5    1.35    1.56
  18  -1   5    0.49    1.36
  18   1   5    2.92    2.19
  18   1   5   -2.68    2.44
  18  -1   6    3.39    1.39
  18  -1   6   15.96    4.33
  18   1   6   15.14    3.83
  18   1   6   16.03    4.22
  18  -1   7    3.43    1.10
  18  -1   7    4.83    2.23
  18   1   7    3.25    2.85
  18   1   7    1.47    0.91
  18  -1   8    3.22    1.02
  18  -1   8    2.47    2.64
  18   1   8    3.86    2.31
  18   1   8    3.30    1.14
  18  -1   9    5.27    1.70
  18  -1   9    2.41    2.35
  18   1   9    1.52    2.38
  18  -1  10   17.11    4.61
  18  -1  10   29.13    5.35
  18   1  10   27.98    5.43
  18  -1  11    0.89    1.41
  18  -1  11   -1.03    2.57
  18   1  11    0.45    1.36
  18  -1  12    5.28    3.08
  18   1  12   -0.79    2.17
  18  -1  13   -0.86    2.14
  18   1  13    2.41    1.59
  18  -1  14    1.50    1.62
  18   1  14    3.67    2.71
  18  -1  15    9.14    3.29
  18   1  15   19.40    4.70
  18  -2 -14    6.95    2.48
  18  -2 -13    3.00    1.83
  18  -2 -12   -0.64    1.30
  18  -2 -11   16.80    4.30
  18  -2 -10    9.97    2.77
  18  -2 -10   20.04    4.88
  18  -2  -9    2.44    2.10
  18  -2  -9    0.84    2.31
  18  -2  -8    1.64    0.98
  18  -2  -8   -0.13    1.39
  18   2  -8    1.29    2.17
  18  -2  -7   -0.97    2.56
  18  -2  -7    1.62    2.37
  18   2  -7    2.27    1.23
  18  -2  -6   10.76    3.54
  18  -2  -6   14.80    4.02
  18   2  -6    6.89    1.49
  18  -2  -5   27.81    5.45
  18   2  -5   34.15    7.24
  18   2  -5   28.58    5.41
  18  -2  -5   17.52    4.29
  18   2  -5   33.41    6.04
  18  -2  -4   24.91    4.74
  18   2  -4   14.40    4.16
  18  -2  -4   11.94    4.32
  18   2  -4   17.75    4.13
  18   2  -4   17.45    4.42
  18  -2  -3    3.91    2.14
  18   2  -3    6.08    3.03
  18  -2  -3    6.37    3.09
  18   2  -3    7.55    2.56
  18   2  -3    7.69    2.88
  18  -2  -2    7.51    3.00
  18   2  -2    5.94    3.06
  18  -2  -2    8.45    2.72
  18   2  -2    7.97    3.18
  18   2  -2    6.35    3.37
  18  -2  -1   31.32    5.40
  18  -2  -1   36.78    6.28
  18   2  -1   31.34    5.79
  18   2  -1   40.83    6.16
  18  -2   0   27.31    5.32
  18  -2   0   22.54    5.37
  18   2   0   27.80    5.53
  18   2   0   22.32    4.67
  18   2   0   15.10    3.49
  18  -2   1   41.12    6.29
  18   2   1   32.91    5.72
  18  -2   1   34.99    6.14
  18   2   1   30.50    5.80
  18   2   1   35.42    5.66
  18  -2   2    7.96    2.78
  18   2   2    4.78    3.02
  18   2   2    5.24    2.44
  18   2   2    4.83    2.07
  18  -2   3    4.80    2.06
  18  -2   3    8.02    4.05
  18   2   3    9.54    3.68
  18   2   3    7.19    2.92
  18   2   3    7.52    2.03
  18  -2   4   23.23    5.02
  18  -2   4   22.36    4.88
  18   2   4   19.68    4.51
  18   2   4   17.74    4.33
  18   2   4   12.50    3.30
  18  -2   5   29.24    5.48
  18   2   5   40.59    6.16
  18  -2   5   24.52    5.38
  18   2   5   28.96    5.80
  18   2   5   31.65    5.61
  18  -2   6   11.79    3.24
  18  -2   6   16.87    4.55
  18   2   6   10.12    3.30
  18   2   6   12.41    3.48
  18   2   6    9.16    3.30
  18  -2   7    1.08    1.87
  18  -2   7    3.09    1.88
  18   2   7   -0.80    2.55
  18   2   7   -0.56    1.77
  18   2   7    1.59    1.58
  18  -2   8   -3.40    3.19
  18  -2   8   -0.26    1.34
  18   2   8   -1.01    1.74
  18   2   8   -1.15    1.74
  18  -2   9   -0.35    1.45
  18  -2   9    0.54    2.49
  18   2   9    1.91    3.28
  18   2   9   -0.92    1.73
  18   2  10    8.90    2.56
  18  -2  10   19.11    3.87
  18  -2  10   22.81    4.71
  18   2  11    9.99    3.33
  18  -2  11   17.03    4.51
  18  -2  11   24.18    5.01
  18   2  12   -0.73    1.29
  18  -2  12    0.80    2.46
  18  -2  12   -0.14    1.41
  18   2  13    4.56    2.99
  18  -2  13    9.78    3.27
  18  -2  13    7.57    2.57
  18   2  14    9.88    3.26
  18  -2  14    8.06    3.18
  18  -3 -13    2.66    2.15
  18   3 -13   13.22    4.04
  18  -3 -12    6.54    3.37
  18   3 -12    7.87    3.10
  18  -3 -11   -0.62    1.22
  18  -3 -11    0.47    2.05
  18   3 -11   -1.13    2.17
  18  -3 -10    3.38    2.46
  18  -3 -10    3.65    2.34
  18   3 -10    4.65    2.39
  18  -3  -9    0.55    1.16
  18  -3  -9   -0.19    1.08
  18   3  -9    3.33    1.56
  18  -3  -8    1.50    2.79
  18  -3  -8    0.96    1.26
  18   3  -8   -1.03    1.01
  18  -3  -7    0.45    1.33
  18  -3  -7    0.31    1.09
  18   3  -7    1.07    1.65
  18  -3  -6   15.29    4.11
  18  -3  -6   20.59    4.91
  18   3  -6   18.53    3.96
  18  -3  -5    0.89    2.39
  18  -3  -5    0.54    2.00
  18   3  -5    1.57    2.78
  18  -3  -4    7.25    3.49
  18  -3  -4    5.61    2.70
  18   3  -4    8.22    4.17
  18   3  -4    5.62    2.50
  18  -3  -3    0.39    1.58
  18  -3  -3   -1.78    2.32
  18   3  -3   -0.72    1.17
  18   3  -3    4.17    2.51
  18  -3  -2    3.98    2.49
  18  -3  -2    0.91    2.57
  18   3  -2    4.60    2.50
  18   3  -2    1.61    1.38
  18  -3  -1    0.20    1.30
  18  -3  -1   -0.95    2.25
  18   3  -1   -0.78    1.31
  18   3  -1    1.80    1.88
  18  -3   0    3.51    2.02
  18  -3   0    5.11    2.23
  18   3   0    1.59    1.50
  18   3   0   -0.76    1.51
  18  -3   1    2.30    1.54
  18  -3   1    2.18    2.52
  18   3   1    1.63    2.90
  18   3   1   -0.42    2.41
  18   3   1   -1.45    1.77
  18  -3   2    0.32    1.45
  18  -3   2    0.70    1.58
  18   3   2   -0.23    2.66
  18   3   2   -1.65    1.92
  18   3   2    0.60    1.74
  18  -3   3   -1.45    1.10
  18  -3   3   -0.94    1.23
  18   3   3    1.18    1.58
  18   3   3    0.01    2.18
  18   3   3    2.95    2.52
  18   3   4    3.59    1.48
  18  -3   4   14.14    3.70
  18  -3   4    5.44    3.39
  18   3   4    5.51    3.09
  18   3   4    5.73    2.92
  18   3   5   -1.18    1.75
  18  -3   5    2.07    2.29
  18  -3   5    0.07    1.29
  18   3   5    1.20    1.82
  18   3   5    4.54    2.85
  18   3   6   19.90    4.50
  18  -3   6   33.79    5.81
  18  -3   6   26.56    5.07
  18   3   6   15.42    3.93
  18   3   6   26.92    5.68
  18   3   7    0.80    2.39
  18  -3   7    7.97    3.47
  18  -3   7    0.69    2.22
  18   3   7   -0.23    3.13
  18   3   8    3.12    2.90
  18  -3   8    0.18    1.50
  18  -3   8    1.77    2.16
  18   3   8   -2.37    1.89
  18   3   9    3.44    2.49
  18  -3   9    1.32    2.84
  18  -3   9    2.74    2.14
  18   3   9    1.52    1.58
  18   3  10    2.95    2.13
  18  -3  10    1.29    1.13
  18  -3  10    1.33    1.83
  18   3  10    1.17    1.50
  18   3  11   -1.61    2.15
  18  -3  11    1.87    2.46
  18  -3  11   -0.08    1.41
  18   3  12    6.26    2.73
  18  -3  12    7.04    2.54
  18  -3  12   10.40    4.38
  18   3  13   10.12    2.99
  18  -3  13    4.15    3.32
  18  -3  13    4.95    3.68
  18  -4 -11    7.65    3.56
  18  -4 -11   11.89    3.37
  18   4 -11   11.86    3.83
  18  -4 -10   13.10    4.10
  18  -4 -10   11.84    3.77
  18   4 -10   13.57    3.44
  18  -4  -9    3.50    1.61
  18  -4  -9    2.56    1.56
  18  -4  -8    4.48    3.10
  18  -4  -8    0.14    2.68
  18   4  -8    2.50    1.35
  18  -4  -7   19.95    4.67
  18  -4  -7   18.04    4.40
  18   4  -7   11.05    3.60
  18  -4  -6   25.76    5.30
  18  -4  -6   21.85    5.06
  18   4  -6   35.48    5.72
  18  -4  -5   25.29    5.32
  18  -4  -5   23.02    5.09
  18   4  -5   26.03    5.16
  18  -4  -4    0.69    1.44
  18  -4  -4    0.43    2.20
  18   4  -4   -0.62    1.15
  18  -4  -3    1.94    2.32
  18  -4  -3    1.42    1.37
  18   4  -3   -1.08    1.28
  18  -4  -2    4.89    2.62
  18  -4  -2    2.40    1.72
  18   4  -2   -0.93    1.81
  18   4  -2    0.68    1.01
  18  -4  -1   26.94    5.28
  18  -4  -1   20.05    4.98
  18   4  -1   24.26    5.05
  18   4  -1   33.28    5.83
  18   4   0   22.73    4.67
  18  -4   0   33.49    5.29
  18  -4   0   33.87    5.74
  18   4   0   26.97    4.97
  18   4   1   26.05    4.88
  18  -4   1   28.23    5.36
  18  -4   1   29.01    6.18
  18   4   1   23.88    5.00
  18   4   2    0.67    1.40
  18  -4   2    5.07    2.94
  18  -4   2    1.71    1.56
  18   4   2    0.36    1.91
  18   4   3    1.30    2.07
  18  -4   3    0.58    1.44
  18  -4   3    1.26    2.75
  18   4   3    0.09    1.17
  18   4   4    1.29    1.91
  18  -4   4    1.88    1.96
  18  -4   4    1.85    1.68
  18   4   4   -0.97    1.98
  18   4   5   28.05    4.89
  18  -4   5   30.18    5.94
  18  -4   5   26.71    6.02
  18   4   5   39.94    6.38
  18   4   6   27.17    5.03
  18  -4   6   34.48    5.92
  18  -4   6   35.65    6.28
  18   4   6   33.58    5.70
  18   4   7   11.27    3.59
  18  -4   7   24.48    4.74
  18  -4   7   17.20    4.73
  18   4   7   21.96    4.94
  18   4   8    0.39    0.97
  18  -4   8    1.07    1.87
  18  -4   8    4.88    2.72
  18   4   8    0.10    1.50
  18   4   9    8.42    3.24
  18  -4   9    1.81    2.25
  18  -4   9   -0.13    1.79
  18   4   9    6.39    2.64
  18   4  10   15.46    4.06
  18  -4  10   14.14    4.60
  18  -4  10    9.70    3.68
  18   4  10   13.92    4.02
  18   4  11   12.44    3.63
  18  -4  11   10.56    3.08
  18  -4  11    5.01    2.07
  18  -5  -7   -0.55    1.91
  18  -5  -7   -0.75    1.82
  18   5  -7   -1.66    1.48
  18  -5  -6    2.43    1.85
  18  -5  -6   -0.34    2.33
  18   5  -6    6.29    2.25
  18  -5  -5    1.89    2.28
  18  -5  -5   -0.75    2.25
  18   5  -5   -1.20    2.56
  18  -5  -4    8.02    3.47
  18  -5  -4    4.27    2.39
  18   5  -4    2.40    1.24
  18  -5  -3    0.51    2.07
  18  -5  -3   -0.59    1.57
  18   5  -3    0.41    2.14
  18  -5  -2    0.53    1.23
  18  -5  -2    0.12    2.31
  18   5  -2   -2.23    1.92
  18   5  -1    0.79    2.34
  18  -5  -1    1.96    2.49
  18  -5  -1    2.33    1.34
  18   5  -1    1.70    1.07
  18   5   0   -0.18    1.42
  18   5   0    0.51    2.25
  18  -5   0    1.15    2.36
  18  -5   0    0.82    1.91
  18   5   1    1.87    1.78
  18   5   1    0.63    1.26
  18  -5   1    3.06    2.14
  18  -5   1    3.24    2.85
  18   5   2   -0.87    2.20
  18   5   2    1.46    1.74
  18  -5   2   -0.29    1.68
  18  -5   2    3.77    3.21
  18   5   3    0.80    1.75
  18   5   3   -0.47    1.08
  18  -5   3    0.91    1.48
  18  -5   3    2.39    2.84
  18   5   4    4.92    2.20
  18   5   4    4.31    3.03
  18  -5   4    3.70    2.11
  18  -5   4    2.03    2.39
  18   5   5    0.89    1.89
  18   5   5    1.43    2.46
  18  -5   5   -2.87    3.06
  18  -5   5   -2.73    2.70
  18   5   6    3.04    2.36
  18   5   6    4.79    2.24
  18  -5   6    2.80    1.28
  18  -5   6    2.15    2.04
  18   5   7    0.43    1.66
  18   5   7    1.38    0.96
  18  -5   7   -0.67    1.25
  19   0 -12   -1.35    3.40
  19   0 -11    3.13    2.70
  19   0 -10    0.90    2.00
  19   0  -9   -1.07    1.50
  19   0  -8   -0.54    1.86
  19   0  -7   -1.36    2.09
  19   0  -7   -0.63    2.50
  19   0  -6    1.99    1.98
  19   0  -6    0.28    2.55
  19   0  -5   -1.10    1.90
  19   0  -5   -1.76    1.23
  19   0  -4    4.65    2.21
  19   0  -4   -0.22    2.19
  19   0  -3   -0.16    1.66
  19   0  -3    2.12    3.39
  19   0  -2   -0.57    2.22
  19   0  -2    0.42    1.57
  19   0  -1    0.08    1.17
  19   0  -1   -0.26    1.62
  19   0   0    1.44    2.01
  19   0   0   -1.04    1.30
  19   0   1    2.92    2.88
  19   0   1   -0.47    1.71
  19   0   2    2.83    2.25
  19   0   2   -0.03    1.85
  19   0   3    0.11    1.09
  19   0   3    0.39    0.96
  19   0   4   -0.03    1.76
  19   0   4   -2.12    2.77
  19   0   5    0.14    1.35
  19   0   5   -0.53    1.45
  19   0   6   -0.83    1.33
  19   0   6    1.42    2.91
  19   0   7   -1.72    2.56
  19   0   7   -1.23    2.30
  19   0   8    1.73    1.54
  19   0   8   -1.71    1.78
  19   0   9   -1.13    1.67
  19   0   9    2.72    1.99
  19   0  10   -0.22    1.52
  19   0  10   -1.01    1.97
  19   0  11    2.42    2.20
  19   0  11   -1.52    2.31
  19   0  12   -1.59    1.32
  19  -1 -12    6.22    2.27
  19  -1 -11   20.60    5.24
  19  -1 -10   22.07    5.34
  19  -1  -9    2.66    1.71
  19   1  -9    7.19    3.17
  19  -1  -8    0.87    1.68
  19   1  -8    2.04    1.55
  19  -1  -7    8.07    3.10
  19  -1  -7   10.40    3.58
  19   1  -7   10.41    3.65
  19  -1  -6   19.89    4.63
  19   1  -6   25.02    5.55
  19  -1  -6   19.38    4.80
  19   1  -6    4.96    3.48
  19  -1  -5   29.15    5.53
  19   1  -5   22.77    5.19
  19  -1  -5   23.12    5.68
  19   1  -5   19.84    4.80
  19  -1  -4   12.21    3.32
  19   1  -4    9.32    3.30
  19  -1  -4   12.56    4.04
  19   1  -4   10.45    4.19
  19  -1  -3    5.29    2.37
  19   1  -3    4.11    2.20
  19  -1  -3    2.79    2.57
  19   1  -3    5.17    2.28
  19  -1  -2   46.47    7.05
  19   1  -2   17.38    4.26
  19   1  -2   38.32    6.72
  19  -1  -2   28.53    5.78
  19  -1  -1   18.02    4.24
  19   1  -1   18.43    4.39
  19  -1  -1   24.40    5.75
  19   1  -1   19.53    5.18
  19  -1   0    3.55    2.65
  19   1   0    2.75    2.59
  19  -1   0    0.51    2.05
  19   1   0    3.47    2.50
  19  -1   1   11.95    3.34
  19   1   1   19.22    4.28
  19  -1   1   19.59    4.91
  19   1   1   19.97    5.32
  19  -1   2   27.87    5.51
  19  -1   2   43.55    6.99
  19   1   2   30.27    5.28
  19   1   2   28.29    5.47
  19  -1   3    9.02    3.14
  19   1   3    3.70    2.16
  19  -1   3    6.10    3.14
  19   1   3    4.46    2.47
  19  -1   4   13.87    4.30
  19   1   4    5.70    2.47
  19  -1   4   12.26    3.60
  19   1   4   13.04    4.54
  19  -1   5   26.92    5.28
  19   1   5   17.46    4.05
  19  -1   5   18.87    5.09
  19   1   5   20.03    4.12
  19  -1   6   15.85    4.50
  19   1   6   17.84    4.50
  19  -1   6   14.80    3.47
  19   1   6   13.38    3.48
  19  -1   7   17.67    4.56
  19  -1   7   16.63    4.52
  19   1   7   18.53    4.69
  19   1   7   13.72    3.75
  19  -1   8   11.31    3.49
  19  -1   8    6.33    3.00
  19   1   8    5.11    3.13
  19   1   8    5.80    2.80
  19  -1   9   10.95    3.36
  19  -1   9    2.53    2.50
  19   1   9   12.11    4.23
  19   1   9    5.84    3.08
  19   1  10   28.94    5.83
  19  -1  10   18.30    4.72
  19  -1  10   29.77    5.86
  19  -1  11   23.45    5.53
  19  -1  11   26.45    5.45
  19   1  11   22.86    5.09
  19  -1  12    6.33    2.56
  19  -1  12    3.41    3.22
  19   1  12    1.98    1.18
  19  -2 -11    5.10    3.25
  19  -2 -10    1.20    1.11
  19  -2  -9    4.82    3.25
  19  -2  -9    5.07    2.88
  19  -2  -8    1.69    2.42
  19  -2  -8   -1.56    1.28
  19  -2  -7    1.96    1.77
  19  -2  -7    4.05    2.77
  19  -2  -6    4.33    1.84
  19  -2  -6    8.71    4.43
  19   2  -6   11.95    4.38
  19  -2  -5    9.85    3.25
  19  -2  -5   11.98    4.11
  19   2  -5   11.16    3.79
  19  -2  -4    3.46    1.60
  19   2  -4    0.63    1.57
  19  -2  -4    4.07    2.29
  19   2  -4    3.66    1.83
  19  -2  -3    5.48    2.90
  19   2  -3    6.01    3.12
  19  -2  -3    3.40    2.45
  19   2  -3    4.73    3.59
  19   2  -3    0.16    2.01
  19  -2  -2    2.79    1.26
  19   2  -2    1.60    1.16
  19  -2  -2    3.00    1.56
  19   2  -2    6.53    2.70
  19   2  -2    3.57    1.48
  19  -2  -1    5.05    2.60
  19   2  -1    3.30    1.52
  19  -2  -1    8.24    3.19
  19   2  -1    2.51    2.59
  19   2  -1   -0.01    1.87
  19  -2   0    3.55    2.52
  19  -2   0    5.68    3.33
  19   2   0    5.23    3.43
  19   2   0    1.47    1.58
  19   2   0    4.21    2.40
  19  -2   1    1.22    1.25
  19   2   1    1.63    2.37
  19   2   1    1.60    1.83
  19   2   1    3.69    2.83
  19  -2   2    0.80    2.25
  19  -2   2    0.41    1.50
  19   2   2    0.61    1.45
  19   2   2    2.40    1.32
  19   2   2    5.65    2.76
  19  -2   3    8.81    2.95
  19  -2   3    2.75    1.91
  19   2   3    6.28    3.52
  19   2   3    6.69    2.99
  19   2   3    2.63    3.33
  19  -2   4   10.52    3.52
  19  -2   4    1.25    2.17
  19   2   4    5.00    3.49
  19   2   4    3.43    2.65
  19   2   4    4.16    2.64
  19  -2   5    9.16    3.00
  19  -2   5   17.13    4.81
  19   2   5    9.83    3.63
  19   2   5   14.12    4.59
  19   2   5    7.61    3.50
  19  -2   6    6.95    2.58
  19  -2   6   11.70    3.51
  19   2   6    9.10    4.00
  19   2   6    8.08    3.75
  19   2   6   15.50    4.62
  19  -2   7    5.04    2.45
  19  -2   7    9.25    3.57
  19   2   7    1.88    1.95
  19   2   7    1.58    1.42
  19   2   7    3.58    2.25
  19  -2   8   -1.00    1.70
  19  -2   8    4.12    3.39
  19   2   8   -0.48    2.68
  19   2   8   -3.30    3.26
  19   2   8    4.39    2.57
  19  -2   9    2.46    2.38
  19  -2   9    1.74    1.46
  19   2   9   -0.44    2.63
  19   2   9    0.98    1.66
  19  -2  10    1.39    1.69
  19  -2  10    0.21    1.64
  19   2  10    0.43    1.48
  19  -2  11    0.70    2.21
  19  -2  11    5.15    3.51
  19   2  11    1.56    1.02
  19  -3  -9    7.12    2.49
  19  -3  -9    3.67    2.09
  19   3  -9    0.35    2.04
  19  -3  -8   12.24    3.57
  19  -3  -8   19.72    4.90
  19   3  -8   15.73    4.03
  19  -3  -7    3.27    1.50
  19  -3  -7    1.23    1.22
  19   3  -7    3.25    3.15
  19  -3  -6    3.26    2.84
  19   3  -6   -1.94    1.61
  19  -3  -5    0.11    1.47
  19   3  -5   -1.32    2.29
  19  -3  -4    3.33    2.84
  19  -3  -4    1.77    2.50
  19   3  -4    1.96    2.15
  19  -3  -3    3.17    2.01
  19  -3  -3    1.84    1.35
  19   3  -3    4.25    1.83
  19   3  -3    3.16    2.97
  19  -3  -2   14.86    4.42
  19  -3  -2   12.73    3.69
  19   3  -2   10.99    3.72
  19   3  -2    9.95    3.81
  19  -3  -1    1.89    1.49
  19  -3  -1    3.28    1.49
  19   3  -1    2.93    2.44
  19   3  -1    2.94    1.33
  19  -3   0    6.74    3.27
  19  -3   0   -1.79    2.44
  19   3   0    0.96    1.92
  19   3   0    3.49    2.71
  19  -3   1    2.45    1.34
  19  -3   1    2.86    2.63
  19   3   1    3.63    2.64
  19   3   1    0.75    1.98
  19  -3   2    6.41    2.37
  19  -3   2    9.29    2.96
  19   3   2    8.52    2.76
  19   3   2    4.96    2.95
  19  -3   3    9.57    2.92
  19  -3   3    5.83    2.99
  19   3   3    5.14    3.57
  19   3   3    3.24    2.02
  19   3   3   -1.41    2.56
  19  -3   4    5.45    1.98
  19  -3   4    3.23    2.38
  19   3   4    0.85    2.17
  19   3   4    0.53    1.89
  19   3   4    0.42    1.17
  19  -3   5    8.28    2.87
  19  -3   5   10.54    3.09
  19   3   5    9.32    3.20
  19   3   5    5.13    2.44
  19   3   5    5.32    2.92
  19  -3   6    7.40    3.40
  19  -3   6    3.87    2.41
  19   3   6    1.49    1.92
  19   3   6    2.51    2.23
  19   3   6    6.75    3.45
  19   3   7    3.66    2.68
  19  -3   7    2.28    3.25
  19  -3   7    3.10    2.71
  19   3   7    4.24    2.15
  19   3   7    2.96    1.72
  19   3   8   14.38    4.36
  19  -3   8   15.50    4.36
  19  -3   8   15.98    4.55
  19   3   8    7.75    2.63
  19   3   8   20.67    5.00
  19   3   9    6.07    3.08
  19  -3   9    7.99    2.91
  19  -3   9    8.94    4.08
  19   3   9    7.49    4.01
  19  -4  -6    2.47    1.49
  19  -4  -6    3.32    2.23
  19   4  -6   -0.77    1.89
  19  -4  -5    0.77    1.56
  19  -4  -5   -1.15    2.57
  19   4  -5    0.65    1.55
  19  -4  -4    2.30    1.47
  19  -4  -4    1.75    1.97
  19   4  -4    5.44    2.87
  19  -4  -3    0.96    1.26
  19  -4  -3    1.04    1.60
  19   4  -3    1.54    1.41
  19  -4  -2    3.62    2.49
  19  -4  -2    8.12    3.94
  19   4  -2    5.84    2.68
  19  -4  -1    0.22    1.41
  19  -4  -1    1.81    2.45
  19   4  -1   -0.32    2.70
  19   4  -1   -0.86    1.17
  19  -4   0    4.67    3.15
  19  -4   0    2.12    2.40
  19   4   0    5.11    3.35
  19   4   0    0.20    1.85
  19  -4   1    0.43    1.48
  19  -4   1    1.37    1.18
  19   4   1    2.99    2.17
  19   4   1    2.65    2.30
  19  -4   2   -0.72    1.90
  19  -4   2    2.44    2.46
  19   4   2    2.07    1.28
  19   4   2    3.42    2.50
  19  -4   3    7.02    2.47
  19  -4   3    3.78    1.50
  19   4   3    3.41    1.54
  19   4   4    5.55    2.06
  19  -4   4    7.78    3.55
  19  -4   4    5.29    3.78
  19   4   4    5.64    3.33
  19   4   5   -0.57    1.75
  19  -4   5    1.90    1.78
  19  -4   5   -0.40    1.43
  19   4   5    2.34    1.91
  19   4   6    1.93    2.81
  19  -4   6   -1.38    2.69
  19  -4   6    2.03    2.35
  19   4   6    1.09    2.34
  20   0  -8   56.18    8.66
  20   0  -7   -0.30    2.61
  20   0  -6    1.32    1.94
  20   0  -6    1.01    2.48
  20   0  -5   36.41    6.52
  20   0  -5   29.03    5.79
  20   0  -4   79.32    9.45
  20   0  -4   89.05   10.35
  20   0  -3    2.42    3.10
  20   0  -3    1.18    2.02
  20   0  -2  112.58   11.17
  20   0  -2  121.61   11.97
  20   0  -1    5.62    2.91
  20   0  -1    5.97    3.10
  20   0   0    2.01    2.00
  20   0   0    0.70    2.30
  20   0   1    6.85    3.28
  20   0   1    1.59    2.54
  20   0   2  115.96   10.97
  20   0   2  104.79   10.62
  20   0   3    2.96    3.18
  20   0   3   -0.99    1.43
  20   0   4  103.00   10.53
  20   0   4   99.70   10.53
  20   0   5   21.12    4.66
  20   0   5   23.76    5.38
  20   0   6   -0.04    2.16
  20   0   6   -2.62    2.65
  20   0   7   -2.44    2.62
  20   0   7    1.04    1.31
  20   0   8   73.69    8.70
  20   0   8   84.62    9.75
  20  -1  -7    0.15    1.52
  20  -1  -7   -0.01    1.79
  20  -1  -6    0.45    1.98
  20  -1  -6   -1.43    2.49
  20   1  -6    5.81    3.91
  20  -1  -5    0.64    1.51
  20   1  -5    7.46    3.30
  20  -1  -5    1.07    2.23
  20   1  -5    5.10    3.41
  20  -1  -4   -1.07    2.05
  20   1  -4    0.42    1.59
  20  -1  -4   -1.19    2.23
  20   1  -4   -0.11    1.57
  20  -1  -3   10.75    3.34
  20   1  -3    7.05    2.75
  20  -1  -3    7.73    3.50
  20   1  -3    4.57    1.66
  20  -1  -2    0.98    1.52
  20   1  -2    2.69    2.06
  20  -1  -2    6.98    3.11
  20   1  -2    2.50    3.01
  20  -1  -1    7.06    3.15
  20   1  -1    4.78    2.33
  20  -1  -1    1.58    2.60
  20   1  -1    7.33    3.58
  20  -1   0   -0.95    1.92
  20   1   0    0.39    2.05
  20  -1   0   -1.60    2.55
  20   1   0    0.12    1.37
  20  -1   1    2.45    1.05
  20   1   1    1.87    1.05
  20  -1   1   -0.64    2.14
  20   1   1   -1.19    1.34
  20  -1   2    1.73    1.42
  20   1   2    3.70    2.21
  20  -1   2    1.22    1.54
  20   1   2    4.00    3.14
  20  -1   3   10.38    3.53
  20   1   3    9.24    3.65
  20  -1   3   16.07    4.40
  20   1   3    8.65    3.11
  20  -1   4    0.56    2.05
  20   1   4   -0.55    1.83
  20  -1   4   -0.36    1.42
  20   1   4   -0.41    2.35
  20  -1   5    4.54    3.02
  20   1   5    5.72    2.68
  20  -1   5    3.33    2.85
  20   1   5    0.87    1.55
  20  -1   6    0.59    2.19
  20   1   6   -0.72    1.94
  20  -1   6    1.35    1.96
  20   1   6   -1.28    1.58
  20  -1   7   -1.22    1.20
  20   1   7    1.07    2.10
  20  -1   7   -0.16    1.18
  20   1   7    2.23    3.08
  20  -2  -6    6.57    3.30
  20  -2  -6    6.92    3.38
  20  -2  -5   -1.50    1.57
  20  -2  -5   -1.24    2.57
  20  -2  -4   13.99    3.97
  20  -2  -4    8.90    3.94
  20   2  -3    1.35    1.53
  20  -2  -3   -1.23    1.35
  20  -2  -2   32.63    6.08
  20   2  -2   33.30    6.36
  20  -2  -2   45.03    7.84
  20   2  -2   44.58    6.98
  20  -2  -1    6.46    3.34
  20   2  -1    1.90    1.49
  20  -2  -1    4.08    2.05
  20   2  -1    4.61    3.08
  20   2  -1    2.81    2.99
  20  -2   0    0.96    1.32
  20   2   0   -1.95    2.41
  20  -2   0   -0.05    2.39
  20   2   0   -2.02    2.70
  20   2   0    0.29    2.75
  20  -2   1    2.69    2.26
  20   2   1    1.94    2.21
  20  -2   1    0.23    1.19
  20   2   1   -0.97    2.18
  20   2   1    2.64    3.16
  20  -2   2   39.52    6.91
  20   2   2   33.53    6.17
  20  -2   2   49.79    7.76
  20   2   2   39.14    7.34
  20   2   2   34.60    6.14
  20  -2   3   -0.90    2.45
  20  -2   3    1.13    2.25
  20   2   3    3.25    2.30
  20   2   3   -0.54    2.21
  20   2   3   -0.14    2.00
  20  -2   4   13.11    3.62
  20  -2   4    7.13    2.92
  20   2   4   14.00    4.44
  20   2   4    8.34    3.13
  20   2   4    5.64    3.21
  20  -2   5    0.73    2.45
  20  -2   5    1.43    1.63
  20   2   5    4.29    3.22
  20   2   5    0.64    1.25
  20   2   5    1.18    1.86
  20  -2   6    9.32    3.11
  20  -2   6    7.05    3.13
  20   2   6    7.78    3.59
  20   2   6    3.69    2.02
  20   2   6    3.60    3.43
  20  -3  -1   -1.74    2.64
  20  -3  -1    0.59    1.71
  20   3  -1   -0.45    1.49
  20   3  -1    1.78    1.53
  20  -3   0    0.63    2.84
  20  -3   0    0.04    1.98
  20   3   0   -4.15    3.14
  20   3   0    0.24    2.34
  20  -3   1    0.87    1.61
  20  -3   1    3.72    3.13
  20   3   1    2.51    2.30
  20   3   1   -0.16    2.15
   0   0   0    0.00    0.00
TITL 006_260K_SulfamerazineF1_ in Pna2(1)
REM Pna2(1) (#33, found as Pbn2(1) in ba-c setting)
CELL 0.68890  14.491358   8.206940  21.933177  90.0000  90.0000  90.0000
ZERR    8.00   0.000137   0.000084   0.000311   0.0000   0.0000   0.0000
LATT -1
SYMM -x,-y, z+1/2
SYMM  x+1/2,-y+1/2, z
SYMM -x+1/2, y+1/2, z+1/2
SFAC C H N O S
UNIT 88.00 96.00 32.00 16.00 8.00
TREF
HKLF 4
END
_computing_structure_solution     'SHELXT 2014/5 (Sheldrick, 2014)'
;
_shelx_hkl_checksum              33226
loop_
_space_group_symop_operation_xyz
'x, y, z'
'-x, -y, z+1/2'
'x+1/2, -y+1/2, z'
'-x+1/2, y+1/2, z+1/2'
loop_
_atom_site_label
_atom_site_type_symbol
_atom_site_fract_x
_atom_site_fract_y
_atom_site_fract_z
_atom_site_U_iso_or_equiv
_atom_site_adp_type
_atom_site_occupancy
_atom_site_site_symmetry_order
_atom_site_calc_flag
_atom_site_refinement_flags_posn
_atom_site_refinement_flags_adp
_atom_site_refinement_flags_occupancy
_atom_site_disorder_assembly
_atom_site_disorder_group
S1 S 0.64646(6) 0.49558(10) 0.34437(5) 0.03568(19) Uani 1 1 d . . . . .
S2 S 0.57781(6) 0.49541(10) 0.65250(5) 0.03460(19) Uani 1 1 d . . . . .
O1 O 0.68980(19) 0.3712(3) 0.30888(13) 0.0465(6) Uani 1 1 d . . . . .
O2 O 0.54939(17) 0.5225(3) 0.33785(15) 0.0462(6) Uani 1 1 d . . . . .
O3 O 0.67510(17) 0.4681(3) 0.65876(14) 0.0444(6) Uani 1 1 d . . . . .
O4 O 0.53545(18) 0.6227(3) 0.68693(13) 0.0457(6) Uani 1 1 d . . . . .
N1 N 0.8429(3) 1.1159(4) 0.3124(2) 0.0545(10) Uani 1 1 d . . . . .
N2 N 0.6558(2) 0.4494(4) 0.41730(16) 0.0402(7) Uani 1 1 d . . . . .
N3 N 0.8148(2) 0.4098(4) 0.41765(16) 0.0416(7) Uani 1 1 d . . . . .
N4 N 0.7282(2) 0.4289(5) 0.50954(16) 0.0563(9) Uani 1 1 d . . . . .
N5 N 0.3806(3) -0.1198(4) 0.6958(2) 0.0674(12) Uani 1 1 d . . . . .
H5A H 0.3243 -0.1185 0.7081 0.088 Uiso 1 1 calc R U . . .
H5B H 0.4080 -0.2112 0.6894 0.088 Uiso 1 1 calc R U . . .
N6 N 0.5682(2) 0.5369(4) 0.57925(16) 0.0423(7) Uani 1 1 d . . . . .
N7 N 0.4097(2) 0.5853(4) 0.57991(16) 0.0436(7) Uani 1 1 d . . . . .
N8 N 0.4964(2) 0.5661(5) 0.48753(17) 0.0556(9) Uani 1 1 d . . . . .
C1 C 0.7055(2) 0.6778(4) 0.33420(18) 0.0329(7) Uani 1 1 d . . . . .
C2 C 0.7951(2) 0.6800(4) 0.31074(17) 0.0344(7) Uani 1 1 d . . . . .
H2 H 0.8240 0.5829 0.3001 0.045 Uiso 1 1 calc R U . . .
C3 C 0.8405(2) 0.8253(4) 0.30344(18) 0.0341(7) Uani 1 1 d . . . . .
H3 H 0.9004 0.8262 0.2882 0.044 Uiso 1 1 calc R U . . .
C4 C 0.7973(2) 0.9729(4) 0.31887(17) 0.0365(8) Uani 1 1 d . . . . .
C5 C 0.7073(2) 0.9689(4) 0.3426(2) 0.0415(8) Uani 1 1 d . . . . .
H5 H 0.6780 1.0656 0.3533 0.054 Uiso 1 1 calc R U . . .
C6 C 0.6623(2) 0.8231(4) 0.3501(2) 0.0400(8) Uani 1 1 d . . . . .
H6 H 0.6027 0.8214 0.3658 0.052 Uiso 1 1 calc R U . . .
C7 C 0.7371(2) 0.4284(4) 0.44917(17) 0.0382(8) Uani 1 1 d . . . . .
C8 C 0.8062(3) 0.4031(8) 0.5407(3) 0.0765(16) Uani 1 1 d . . . . .
H8 H 0.8038 0.3997 0.5830 0.099 Uiso 1 1 calc R U . . .
C9 C 0.8893(3) 0.3817(7) 0.5126(2) 0.0707(14) Uani 1 1 d . . . . .
H9 H 0.9426 0.3630 0.5352 0.092 Uiso 1 1 calc R U . . .
C10 C 0.8924(3) 0.3884(5) 0.4500(2) 0.0505(10) Uani 1 1 d . . . . .
C11 C 0.9793(3) 0.3711(7) 0.4143(3) 0.0682(13) Uani 1 1 d . . . . .
H11A H 0.9867 0.2596 0.4020 0.089 Uiso 1 1 calc R U . . .
H11B H 1.0308 0.4031 0.4391 0.089 Uiso 1 1 calc R U . . .
H11C H 0.9764 0.4394 0.3788 0.089 Uiso 1 1 calc R U . . .
C12 C 0.5190(2) 0.3151(4) 0.66571(16) 0.0342(7) Uani 1 1 d . . . . .
C13 C 0.5638(2) 0.1680(4) 0.6555(2) 0.0451(9) Uani 1 1 d . . . . .
H13 H 0.6245 0.1670 0.6419 0.059 Uiso 1 1 calc R U . . .
C14 C 0.5179(3) 0.0237(4) 0.6656(2) 0.0508(11) Uani 1 1 d . . . . .
H14 H 0.5481 -0.0746 0.6587 0.066 Uiso 1 1 calc R U . . .
C15 C 0.4264(3) 0.0228(4) 0.68630(19) 0.0426(9) Uani 1 1 d . . . . .
C16 C 0.3824(2) 0.1715(4) 0.69652(18) 0.0397(8) Uani 1 1 d . . . . .
H16 H 0.3217 0.1729 0.7104 0.052 Uiso 1 1 calc R U . . .
C17 C 0.4280(2) 0.3168(4) 0.68627(19) 0.0358(8) Uani 1 1 d . . . . .
H17 H 0.3981 0.4154 0.6931 0.047 Uiso 1 1 calc R U . . .
C18 C 0.4865(2) 0.5642(4) 0.54820(17) 0.0379(8) Uani 1 1 d . . . . .
C19 C 0.4188(3) 0.5984(8) 0.4567(2) 0.0752(17) Uani 1 1 d . . . . .
H19 H 0.4213 0.6027 0.4143 0.098 Uiso 1 1 calc R U . . .
C20 C 0.3361(3) 0.6253(8) 0.4850(3) 0.0761(16) Uani 1 1 d . . . . .
H20 H 0.2835 0.6501 0.4625 0.099 Uiso 1 1 calc R U . . .
C21 C 0.3328(3) 0.6147(5) 0.5477(2) 0.0511(10) Uani 1 1 d . . . . .
C22 C 0.2459(3) 0.6351(7) 0.5834(3) 0.0727(14) Uani 1 1 d . . . . .
H22A H 0.2488 0.7345 0.6064 0.095 Uiso 1 1 calc R U . . .
H22B H 0.2386 0.5447 0.6108 0.095 Uiso 1 1 calc R U . . .
H22C H 0.1943 0.6392 0.5560 0.095 Uiso 1 1 calc R U . . .
H1N1 H 0.891(3) 1.115(5) 0.292(2) 0.055(13) Uiso 1 1 d . . . . .
H2N1 H 0.811(3) 1.197(6) 0.315(2) 0.057(13) Uiso 1 1 d . . . . .
H1N2 H 0.615(3) 0.473(5) 0.436(2) 0.035(11) Uiso 1 1 d . . . . .
H1N6 H 0.621(3) 0.503(5) 0.558(2) 0.059(14) Uiso 1 1 d . . . . .
loop_
_atom_site_aniso_label
_atom_site_aniso_U_11
_atom_site_aniso_U_22
_atom_site_aniso_U_33
_atom_site_aniso_U_23
_atom_site_aniso_U_13
_atom_site_aniso_U_12
S1 0.0330(4) 0.0384(4) 0.0356(5) 0.0031(4) -0.0014(4) -0.0022(3)
S2 0.0318(4) 0.0380(4) 0.0340(5) 0.0038(4) -0.0017(4) -0.0022(3)
O1 0.0557(16) 0.0381(12) 0.0457(16) -0.0064(12) 0.0026(13) -0.0019(11)
O2 0.0341(12) 0.0570(15) 0.0475(17) 0.0083(14) -0.0077(13) -0.0074(11)
O3 0.0333(12) 0.0564(15) 0.0433(16) 0.0087(13) -0.0056(12) -0.0023(10)
O4 0.0516(16) 0.0354(12) 0.0500(16) -0.0039(11) -0.0008(13) -0.0029(11)
N1 0.0476(19) 0.0404(17) 0.076(3) -0.0093(18) 0.021(2) -0.0050(15)
N2 0.0286(14) 0.0534(18) 0.0388(19) 0.0104(15) -0.0003(14) 0.0015(13)
N3 0.0325(14) 0.0461(16) 0.046(2) 0.0047(14) 0.0010(14) 0.0036(12)
N4 0.0402(17) 0.091(3) 0.038(2) 0.0071(19) -0.0008(15) 0.0149(18)
N5 0.057(2) 0.0402(16) 0.105(3) -0.0068(19) 0.022(2) -0.0101(15)
N6 0.0308(14) 0.0613(19) 0.0349(19) 0.0112(15) 0.0038(13) 0.0033(13)
N7 0.0356(16) 0.0500(17) 0.045(2) 0.0043(15) 0.0042(14) 0.0054(13)
N8 0.0412(17) 0.085(3) 0.041(2) 0.0077(18) -0.0033(16) 0.0144(17)
C1 0.0318(16) 0.0352(14) 0.0316(19) 0.0033(14) 0.0004(14) 0.0005(12)
C2 0.0339(16) 0.0371(16) 0.0323(18) -0.0005(14) 0.0002(14) 0.0050(12)
C3 0.0283(15) 0.0436(18) 0.030(2) -0.0022(15) 0.0031(14) 0.0000(12)
C4 0.0375(17) 0.0365(16) 0.036(2) -0.0016(13) 0.0007(15) -0.0024(12)
C5 0.0406(18) 0.0378(16) 0.046(2) -0.0036(17) 0.0091(19) 0.0047(13)
C6 0.0334(15) 0.0401(16) 0.047(2) -0.0016(17) 0.0092(16) 0.0043(12)
C7 0.0324(17) 0.0412(17) 0.041(2) 0.0077(15) 0.0009(15) 0.0028(13)
C8 0.053(3) 0.131(5) 0.046(3) 0.007(3) -0.006(2) 0.027(3)
C9 0.041(2) 0.116(4) 0.056(3) 0.001(3) -0.011(2) 0.020(2)
C10 0.0345(18) 0.057(2) 0.060(3) -0.001(2) -0.0006(18) 0.0085(16)
C11 0.038(2) 0.087(3) 0.079(4) -0.005(3) 0.006(2) 0.011(2)
C12 0.0336(15) 0.0355(15) 0.0335(19) -0.0008(13) 0.0025(14) 0.0001(12)
C13 0.0358(18) 0.0397(17) 0.060(3) 0.0011(19) 0.009(2) 0.0032(13)
C14 0.043(2) 0.0359(17) 0.074(3) -0.0031(18) 0.008(2) 0.0050(14)
C15 0.042(2) 0.0369(17) 0.049(2) -0.0033(15) 0.0033(17) -0.0032(13)
C16 0.0349(17) 0.0419(17) 0.042(2) -0.0045(15) 0.0066(15) -0.0026(13)
C17 0.0353(17) 0.0360(16) 0.036(2) -0.0029(14) 0.0029(15) 0.0026(12)
C18 0.0344(17) 0.0441(17) 0.035(2) 0.0037(15) -0.0010(15) 0.0015(14)
C19 0.050(3) 0.136(5) 0.040(3) 0.001(3) -0.011(2) 0.026(3)
C20 0.047(2) 0.120(5) 0.061(3) -0.006(3) -0.015(2) 0.032(3)
C21 0.0377(19) 0.059(2) 0.056(3) -0.003(2) -0.0036(18) 0.0090(17)
C22 0.038(2) 0.094(4) 0.086(4) -0.004(3) 0.004(2) 0.011(2)
loop_
_atom_type_symbol
_atom_type_description
_atom_type_scat_dispersion_real
_atom_type_scat_dispersion_imag
_atom_type_scat_source
C C 0.0033 0.0016 'International Tables Vol C Tables 4.2.6.8 and 6.1.1.4'
H H 0.0000 0.0000 'International Tables Vol C Tables 4.2.6.8 and 6.1.1.4'
N N 0.0061 0.0033 'International Tables Vol C Tables 4.2.6.8 and 6.1.1.4'
O O 0.0106 0.0060 'International Tables Vol C Tables 4.2.6.8 and 6.1.1.4'
S S 0.1246 0.1234 'International Tables Vol C Tables 4.2.6.8 and 6.1.1.4'
loop_
_geom_angle_atom_site_label_1
_geom_angle_atom_site_label_2
_geom_angle_atom_site_label_3
_geom_angle
_geom_angle_site_symmetry_1
_geom_angle_site_symmetry_3
O1 S1 O2 119.21(17) . .
O1 S1 N2 109.17(18) . .
O2 S1 N2 102.29(17) . .
O1 S1 C1 109.17(18) . .
O2 S1 C1 109.77(15) . .
N2 S1 C1 106.37(19) . .
O4 S2 O3 119.11(18) . .
O4 S2 N6 109.12(17) . .
O3 S2 N6 102.07(17) . .
O4 S2 C12 108.96(17) . .
O3 S2 C12 109.54(16) . .
N6 S2 C12 107.33(18) . .
C4 N1 H1N1 118(3) . .
C4 N1 H2N1 115(3) . .
H1N1 N1 H2N1 121(4) . .
C7 N2 S1 126.1(3) . .
C7 N2 H1N2 115(4) . .
S1 N2 H1N2 114(4) . .
C7 N3 C10 116.8(3) . .
C7 N4 C8 115.2(4) . .
C15 N5 H5A 120.0 . .
C15 N5 H5B 120.0 . .
H5A N5 H5B 120.0 . .
C18 N6 S2 125.9(3) . .
C18 N6 H1N6 120(3) . .
S2 N6 H1N6 110(3) . .
C18 N7 C21 116.4(3) . .
C19 N8 C18 114.5(4) . .
C6 C1 C2 120.0(3) . .
C6 C1 S1 118.9(3) . .
C2 C1 S1 121.1(2) . .
C3 C2 C1 120.0(3) . .
C3 C2 H2 120.0 . .
C1 C2 H2 120.0 . .
C2 C3 C4 120.5(3) . .
C2 C3 H3 119.7 . .
C4 C3 H3 119.7 . .
N1 C4 C3 120.3(3) . .
N1 C4 C5 120.8(3) . .
C3 C4 C5 118.9(3) . .
C6 C5 C4 120.4(3) . .
C6 C5 H5 119.8 . .
C4 C5 H5 119.8 . .
C5 C6 C1 120.2(3) . .
C5 C6 H6 119.9 . .
C1 C6 H6 119.9 . .
N3 C7 N4 126.8(3) . .
N3 C7 N2 118.3(3) . .
N4 C7 N2 114.9(3) . .
N4 C8 C9 122.4(5) . .
N4 C8 H8 118.8 . .
C9 C8 H8 118.8 . .
C8 C9 C10 118.3(4) . .
C8 C9 H9 120.8 . .
C10 C9 H9 120.8 . .
N3 C10 C9 120.4(4) . .
N3 C10 C11 116.3(4) . .
C9 C10 C11 123.3(4) . .
C10 C11 H11A 109.5 . .
C10 C11 H11B 109.5 . .
H11A C11 H11B 109.5 . .
C10 C11 H11C 109.5 . .
H11A C11 H11C 109.5 . .
H11B C11 H11C 109.5 . .
C13 C12 C17 120.2(3) . .
C13 C12 S2 119.1(3) . .
C17 C12 S2 120.8(2) . .
C14 C13 C12 119.8(3) . .
C14 C13 H13 120.1 . .
C12 C13 H13 120.1 . .
C13 C14 C15 120.9(3) . .
C13 C14 H14 119.5 . .
C15 C14 H14 119.5 . .
N5 C15 C16 120.3(4) . .
N5 C15 C14 121.0(3) . .
C16 C15 C14 118.7(3) . .
C17 C16 C15 120.6(3) . .
C17 C16 H16 119.7 . .
C15 C16 H16 119.7 . .
C16 C17 C12 119.8(3) . .
C16 C17 H17 120.1 . .
C12 C17 H17 120.1 . .
N7 C18 N8 127.6(4) . .
N7 C18 N6 118.8(3) . .
N8 C18 N6 113.6(3) . .
N8 C19 C20 122.6(5) . .
N8 C19 H19 118.7 . .
C20 C19 H19 118.7 . .
C19 C20 C21 118.2(4) . .
C19 C20 H20 120.9 . .
C21 C20 H20 120.9 . .
N7 C21 C20 120.6(4) . .
N7 C21 C22 116.5(4) . .
C20 C21 C22 123.0(4) . .
C21 C22 H22A 109.5 . .
C21 C22 H22B 109.5 . .
H22A C22 H22B 109.5 . .
C21 C22 H22C 109.5 . .
H22A C22 H22C 109.5 . .
H22B C22 H22C 109.5 . .
loop_
_geom_bond_atom_site_label_1
_geom_bond_atom_site_label_2
_geom_bond_distance
_geom_bond_site_symmetry_2
S1 O1 1.429(3) .
S1 O2 1.431(2) .
S1 N2 1.649(4) .
S1 C1 1.737(3) .
S2 O4 1.428(3) .
S2 O3 1.434(2) .
S2 N6 1.648(4) .
S2 C12 1.732(3) .
N1 C4 1.354(5) .
N1 H1N1 0.83(5) .
N1 H2N1 0.81(5) .
N2 C7 1.381(5) .
N2 H1N2 0.74(4) .
N3 C7 1.330(4) .
N3 C10 1.341(5) .
N4 C7 1.331(5) .
N4 C8 1.338(6) .
N5 C15 1.361(5) .
N5 H5A 0.8600 .
N5 H5B 0.8600 .
N6 C18 1.384(5) .
N6 H1N6 0.93(5) .
N7 C18 1.324(4) .
N7 C21 1.340(5) .
N8 C19 1.338(5) .
N8 C18 1.338(5) .
C1 C6 1.391(5) .
C1 C2 1.396(4) .
C2 C3 1.372(5) .
C2 H2 0.9300 .
C3 C4 1.404(5) .
C3 H3 0.9300 .
C4 C5 1.405(5) .
C5 C6 1.373(5) .
C5 H5 0.9300 .
C6 H6 0.9300 .
C8 C9 1.364(7) .
C8 H8 0.9300 .
C9 C10 1.375(7) .
C9 H9 0.9300 .
C10 C11 1.489(6) .
C11 H11A 0.9600 .
C11 H11B 0.9600 .
C11 H11C 0.9600 .
C12 C13 1.389(5) .
C12 C17 1.393(4) .
C13 C14 1.376(5) .
C13 H13 0.9300 .
C14 C15 1.401(5) .
C14 H14 0.9300 .
C15 C16 1.395(5) .
C16 C17 1.382(5) .
C16 H16 0.9300 .
C17 H17 0.9300 .
C19 C20 1.368(7) .
C19 H19 0.9300 .
C20 C21 1.380(7) .
C20 H20 0.9300 .
C21 C22 1.493(6) .
C22 H22A 0.9600 .
C22 H22B 0.9600 .
C22 H22C 0.9600 .
loop_
_geom_hbond_atom_site_label_D
_geom_hbond_atom_site_label_H
_geom_hbond_atom_site_label_A
_geom_hbond_distance_DH
_geom_hbond_distance_HA
_geom_hbond_distance_DA
_geom_hbond_angle_DHA
_geom_hbond_site_symmetry_A
N5 H5B O4 0.86 2.30 3.088(5) 153.2 1_545
N1 H1N1 O4 0.83(5) 2.55(5) 3.268(5) 147(4) 4_654
N1 H2N1 O1 0.81(5) 2.27(5) 3.053(5) 162(4) 1_565
N2 H1N2 N8 0.74(4) 2.20(4) 2.937(5) 175(4) .
N6 H1N6 N4 0.93(5) 1.99(5) 2.916(5) 177(5) .
loop_
_geom_torsion_atom_site_label_1
_geom_torsion_atom_site_label_2
_geom_torsion_atom_site_label_3
_geom_torsion_atom_site_label_4
_geom_torsion
_geom_torsion_site_symmetry_1
_geom_torsion_site_symmetry_2
_geom_torsion_site_symmetry_3
_geom_torsion_site_symmetry_4
O1 S1 N2 C7 60.0(4) . . . .
O2 S1 N2 C7 -172.8(3) . . . .
C1 S1 N2 C7 -57.7(4) . . . .
O4 S2 N6 C18 -57.0(4) . . . .
O3 S2 N6 C18 176.1(3) . . . .
C12 S2 N6 C18 61.0(4) . . . .
O1 S1 C1 C6 162.3(3) . . . .
O2 S1 C1 C6 29.9(4) . . . .
N2 S1 C1 C6 -80.0(3) . . . .
O1 S1 C1 C2 -17.9(4) . . . .
O2 S1 C1 C2 -150.3(3) . . . .
N2 S1 C1 C2 99.7(3) . . . .
C6 C1 C2 C3 0.1(5) . . . .
S1 C1 C2 C3 -179.6(3) . . . .
C1 C2 C3 C4 -0.6(5) . . . .
C2 C3 C4 N1 179.1(4) . . . .
C2 C3 C4 C5 0.8(6) . . . .
N1 C4 C5 C6 -178.8(4) . . . .
C3 C4 C5 C6 -0.5(6) . . . .
C4 C5 C6 C1 0.0(6) . . . .
C2 C1 C6 C5 0.2(6) . . . .
S1 C1 C6 C5 180.0(4) . . . .
C10 N3 C7 N4 0.3(6) . . . .
C10 N3 C7 N2 -179.5(3) . . . .
C8 N4 C7 N3 -2.0(7) . . . .
C8 N4 C7 N2 177.8(4) . . . .
S1 N2 C7 N3 -14.9(5) . . . .
S1 N2 C7 N4 165.2(3) . . . .
C7 N4 C8 C9 1.5(8) . . . .
N4 C8 C9 C10 0.6(10) . . . .
C7 N3 C10 C9 1.9(6) . . . .
C7 N3 C10 C11 -178.8(4) . . . .
C8 C9 C10 N3 -2.3(8) . . . .
C8 C9 C10 C11 178.4(5) . . . .
O4 S2 C12 C13 -157.6(3) . . . .
O3 S2 C12 C13 -25.7(4) . . . .
N6 S2 C12 C13 84.3(3) . . . .
O4 S2 C12 C17 22.4(4) . . . .
O3 S2 C12 C17 154.3(3) . . . .
N6 S2 C12 C17 -95.6(3) . . . .
C17 C12 C13 C14 0.1(6) . . . .
S2 C12 C13 C14 -179.8(4) . . . .
C12 C13 C14 C15 -0.1(7) . . . .
C13 C14 C15 N5 179.3(5) . . . .
C13 C14 C15 C16 0.0(7) . . . .
N5 C15 C16 C17 -179.2(4) . . . .
C14 C15 C16 C17 0.2(6) . . . .
C15 C16 C17 C12 -0.2(6) . . . .
C13 C12 C17 C16 0.0(6) . . . .
S2 C12 C17 C16 180.0(3) . . . .
C21 N7 C18 N8 -1.2(6) . . . .
C21 N7 C18 N6 178.6(4) . . . .
C19 N8 C18 N7 2.2(7) . . . .
C19 N8 C18 N6 -177.6(4) . . . .
S2 N6 C18 N7 11.6(5) . . . .
S2 N6 C18 N8 -168.6(3) . . . .
C18 N8 C19 C20 -0.7(8) . . . .
N8 C19 C20 C21 -1.6(10) . . . .
C18 N7 C21 C20 -1.4(6) . . . .
C18 N7 C21 C22 178.8(4) . . . .
C19 C20 C21 N7 2.7(9) . . . .
C19 C20 C21 C22 -177.5(6) . . . .
