#------------------------------------------------------------------------------
#$Date: 2018-01-13 08:36:49 +0200 (Sat, 13 Jan 2018) $
#$Revision: 205191 $
#$URL: file:///home/coder/svn-repositories/cod/cif/1/54/86/1548683.cif $
#------------------------------------------------------------------------------
#
# This file is available in the Crystallography Open Database (COD),
# http://www.crystallography.net/. The original data for this entry
# were provided by IUCr Journals, http://journals.iucr.org/.
#
# The file may be used within the scientific community so long as
# proper attribution is given to the journal article from which the
# data were obtained.
#
data_1548683
loop_
_publ_author_name
'Balakumaran, K.'
'Mosesbabu, J.'
'Anireddy, Jayashree'
'Chakkaravarthi, G.'
_publ_section_title
;
 (<i>E</i>)-5-{4-[2-(5-Ethylpyridin-2-yl)ethoxy]benzylidene}thiazolidine-2,4-dione
;
_journal_coeditor_code           ZQ4025
_journal_issue                   1
_journal_name_full               IUCrData
_journal_page_first              x171839
_journal_paper_doi               10.1107/S2414314617018399
_journal_volume                  3
_journal_year                    2018
_chemical_formula_iupac          'C19 H18 N2 O3 S'
_chemical_formula_moiety         'C19 H18 N2 O3 S'
_chemical_formula_sum            'C19 H18 N2 O3 S'
_chemical_formula_weight         354.41
_chemical_name_systematic
;
(<i>E</i>)-5-{4-[2-(5-Ethylpyridin-2-yl)ethoxy]benzylidene}thiazolidine-
2,4-dione
;
_space_group_crystal_system      monoclinic
_space_group_IT_number           14
_space_group_name_Hall           '-P 2ybc'
_space_group_name_H-M_alt        'P 1 21/c 1'
_symmetry_space_group_name_Hall  '-P 2ybc'
_symmetry_space_group_name_H-M   'P 1 21/c 1'
_atom_sites_solution_hydrogens   mixed
_audit_creation_method           SHELXL-2016/6
_cell_angle_alpha                90
_cell_angle_beta                 110.442(2)
_cell_angle_gamma                90
_cell_formula_units_Z            4
_cell_length_a                   7.6756(2)
_cell_length_b                   13.6762(3)
_cell_length_c                   17.6561(4)
_cell_measurement_reflns_used    2884
_cell_measurement_temperature    295(2)
_cell_measurement_theta_max      71.7
_cell_measurement_theta_min      3.2
_cell_volume                     1736.70(7)
_computing_cell_refinement
;
SAINT (Bruker, 2004)
;
_computing_data_collection
;
APEX2 (Bruker, 2004)
;
_computing_data_reduction
;
SAINT (Bruker, 2004)
;
_computing_molecular_graphics
;
PLATON (Spek, 2009)
;
_computing_publication_material
;
<i>SHELXL2016/6</i> (Sheldrick, 2015 and PLATON (Spek, 2009)
;
_computing_structure_refinement
;
<i>SHELXL2016/6</i> (Sheldrick, 2015)
;
_computing_structure_solution
;
<i>SHELXS2016/6</i> (Sheldrick, 2008)
;
_diffrn_ambient_temperature      295(2)
_diffrn_measured_fraction_theta_full 0.998
_diffrn_measured_fraction_theta_max 0.972
_diffrn_measurement_device_type  'Bruker APEX2 CCD Diffractometer'
_diffrn_measurement_method       '\w and \f scans'
_diffrn_radiation_type           CuK\a
_diffrn_radiation_wavelength     1.54184
_diffrn_reflns_av_R_equivalents  0.0133
_diffrn_reflns_limit_h_max       4
_diffrn_reflns_limit_h_min       -9
_diffrn_reflns_limit_k_max       16
_diffrn_reflns_limit_k_min       -16
_diffrn_reflns_limit_l_max       21
_diffrn_reflns_limit_l_min       -19
_diffrn_reflns_number            6076
_diffrn_reflns_theta_full        67.684
_diffrn_reflns_theta_max         71.720
_diffrn_reflns_theta_min         4.194
_exptl_absorpt_coefficient_mu    1.831
_exptl_absorpt_correction_T_max  0.6677
_exptl_absorpt_correction_T_min  0.5136
_exptl_absorpt_correction_type   multi-scan
_exptl_absorpt_process_details
;
(SADABS; Bruker, 2004)
;
_exptl_crystal_colour            colourless
_exptl_crystal_density_diffrn    1.355
_exptl_crystal_description       needle
_exptl_crystal_F_000             744
_exptl_crystal_size_max          0.320
_exptl_crystal_size_mid          0.280
_exptl_crystal_size_min          0.240
_refine_diff_density_max         0.186
_refine_diff_density_min         -0.222
_refine_ls_extinction_method     none
_refine_ls_goodness_of_fit_ref   1.045
_refine_ls_hydrogen_treatment    mixed
_refine_ls_matrix_type           full
_refine_ls_number_parameters     231
_refine_ls_number_reflns         3314
_refine_ls_number_restraints     1
_refine_ls_restrained_S_all      1.045
_refine_ls_R_factor_all          0.0461
_refine_ls_R_factor_gt           0.0404
_refine_ls_shift/su_max          0.000
_refine_ls_shift/su_mean         0.000
_refine_ls_structure_factor_coef Fsqd
_refine_ls_weighting_details
'w=1/[\s^2^(Fo^2^)+(0.0648P)^2^+0.3059P] where P=(Fo^2^+2Fc^2^)/3'
_refine_ls_weighting_scheme      calc
_refine_ls_wR_factor_gt          0.1092
_refine_ls_wR_factor_ref         0.1152
_reflns_number_gt                2894
_reflns_number_total             3314
_reflns_threshold_expression     'I > 2\s(I)'
_cod_data_source_file            zq4025sup1.cif
_cod_data_source_block           I
_cod_database_code               1548683
_shelx_space_group_comment
;
The symmetry employed for this shelxl refinement is uniquely defined
by the following loop, which should always be used as a source of
symmetry information in preference to the above space-group names.
They are only intended as comments.
;
_shelx_estimated_absorpt_t_min   0.592
_shelx_estimated_absorpt_t_max   0.668
_shelx_hkl_file
;
   0   0  -2 183611. 558.265   3
   0   0  -2 183668. 762.948   1
   0   0  -3 154.681 33.1484   1
   0   0  -3 206.328 27.2067   3
   0   0  -4 42293.3 392.133   3
   0   0  -4 43223.9 528.951   1
   0   0  -5 3.45581 18.5260   3
   0   0  -5 23.9627 34.9456   1
   0   0  -6 109094. 1051.10   1
   0   0  -6 109052. 791.660   3
   0   0  -7 21.3961 29.7049   3
   0   0  -8 69898.5 752.191   3
   0   0  -9 9.31790 30.3552   3
   0   0 -10 19655.8 464.671   3
   0   0 -11 29.8768 35.4269   3
   0   0 -12 209.652 66.1470   3
   0   0 -13 36.4526 33.1103   3
   0   0 -14 6232.53 256.326  15
   0   0  14 6463.54 257.935   9
   0   0 -15-8.60638 29.5170  15
   0   0  15-11.7134 38.5424   9
   0   0  16 8380.26 292.493   9
   0   0 -16 8001.88 291.520  15
   0   0 -17 20.6001 26.0694  15
   0   0  17 43.2362 33.1627   9
   0   0 -18-19.9833 34.6567  15
   0   0  18 5.07337 25.4045   9
   0   0 -19-17.2939 26.8306  15
   0   1   0 71.7619 9.96408   2
   0  -1  -1 53585.9 268.116   5
   0  -1  -2 69879.8 383.580   5
   0   1  -2 70540.0 368.183   3
   0   1  -3 133155. 618.780   3
   0  -1  -3 133203. 762.043   1
   0  -1  -4 6181.77 155.867   3
   0   1  -4 6340.97 153.800   3
   0  -1  -4 6277.15 160.988   5
   0  -1  -4 6575.78 201.100   1
   0   1  -5 4074.53 139.480   3
   0  -1  -5 3961.67 139.401   3
   0  -1  -5 3965.74 180.971   1
   0   1  -6 3977.14 152.828   3
   0  -1  -6 3832.09 151.659   3
   0  -1  -6 4102.66 202.327   1
   0   1  -7 37459.4 511.574   3
   0  -1  -7 36437.0 508.479   3
   0  -1  -8 10609.4 300.829   3
   0   1  -8 10940.5 299.193   3
   0   1  -9 1556.72 122.350   3
   0  -1  -9 1700.45 131.671   3
   0  -1 -10 42517.0 686.587   3
   0   1 -10 42163.2 673.283   3
   0   1 -11 18.1116 31.6547   3
   0  -1 -11 12.7183 33.3601   3
   0  -1 -12 640.849 95.2007   3
   0   1 -12 649.410 103.214   3
   0  -1 -13 4806.95 265.199   3
   0  -1  14 153.874 51.6137   9
   0  -1 -14 137.940 40.1627  15
   0   1 -14 123.250 37.5614  15
   0   1  14 118.273 42.2105   9
   0  -1 -15 557.496 80.9979  15
   0   1  15 552.580 77.9748   9
   0  -1  15 509.175 75.5686   9
   0   1 -15 555.202 83.5710  15
   0  -1  16 1770.03 136.381   9
   0   1  16 1807.54 135.482   9
   0  -1 -16 1730.61 137.810  15
   0   1 -16 1779.81 138.545  15
   0   1  17 30.6884 26.8304   9
   0  -1  17 61.5357 29.4375   9
   0   1 -17 71.1959 35.4066  15
   0  -1 -17 60.1874 35.6062  15
   0   1 -18 1639.38 119.536  15
   0  -1 -18 1572.46 119.217  15
   0  -1  18 1673.95 116.454   9
   0   1 -19 413.020 56.9197  15
   0  -1  19 352.971 49.6371   9
   0  -2   0 30468.1 266.053   2
   0  -2   0 31569.1 247.808   5
   0   2  -1 1503.14 69.6595   2
   0  -2  -1 1650.65 61.5858   5
   0  -2  -2 84018.7 485.911   5
   0  -2  -3 50976.1 427.495   5
   0  -2  -4 4104.47 137.851   5
   0  -2  -4 4380.69 162.495   1
   0  -2  -5 11274.9 295.872   1
   0  -2  -5 11154.1 250.071   5
   0  -2  -6 11219.2 270.556   3
   0  -2  -6 11265.2 275.550   5
   0  -2  -6 11690.7 338.018   1
   0   2  -6 11042.6 261.653   3
   0   2  -7 596.149 68.4922   3
   0  -2  -7 596.636 70.9082   3
   0   2  -8 69090.1 764.921   3
   0  -2  -8 68536.8 776.175   3
   0  -2  -9 24581.1 500.111   3
   0  -2 -10 94.4792 46.9112   3
   0  -2 -11 11898.7 395.987   3
   0  -2 -12 2578.25 191.989   3
   0  -2  13 3932.25 195.959   9
   0  -2 -13 3649.47 237.201   3
   0   2 -13 3837.19 193.796  15
   0  -2 -13 3735.16 193.157  15
   0  -2 -14 12519.3 364.620  15
   0   2 -14 12676.1 365.415  15
   0  -2  14 12523.7 359.583   9
   0   2  14 12536.5 352.960   9
   0   2 -15 4247.65 215.959  15
   0  -2  15 4702.61 223.582   9
   0  -2 -15 4438.85 220.764  15
   0   2  15 4716.51 218.416   9
   0   2 -16 1947.18 144.992  15
   0   2  16 2088.77 143.619   9
   0  -2  16 2149.15 149.669   9
   0  -2 -16 1830.32 141.349  15
   0  -2  17 446.586 68.4847   9
   0   2 -17 375.859 66.4948  15
   0  -2 -17 274.196 56.7284  15
   0   2 -18 13.4080 25.8550  15
   0  -2  18 21.7444 24.5597   9
   0  -2  19 1483.56 94.2681   9
   0   2 -19 1510.15 100.410  15
   0  -3   0 245.956 32.7595   2
   0  -3   0 128.302 25.1018   5
   0   3  -1 10843.7 213.893   2
   0  -3  -1 10770.9 187.445   5
   0  -3  -2 57871.2 461.670   5
   0  -3  -3 4546.90 142.769   5
   0  -3  -4 139777. 859.230   5
   0  -3   4 134539. 1082.64   1
   0  -3   5 4063.57 204.130   1
   0  -3  -5 4250.61 179.032   1
   0  -3  -5 4160.57 163.606   5
   0  -3  -6 96026.5 842.226   5
   0  -3  -6 98722.4 972.719   1
   0  -3  -7 18756.4 397.872   3
   0  -3  -7 23301.4 451.606   5
   0  -3  -8 96.8135 41.4815   3
   0  -3  -9 2077.33 149.230   3
   0  -3 -10 84.6455 41.9399   3
   0  -3 -11 5179.32 266.720   3
   0  -3 -12 12060.0 422.332   3
   0  -3 -13 26993.6 526.048  15
   0   3 -13 26960.0 516.843  15
   0   3  13 26532.5 499.107   9
   0  -3  13 27223.7 522.830   9
   0   3 -14 26845.6 533.449  15
   0   3  14 28025.5 527.185   9
   0  -3 -14 26986.1 542.926  15
   0  -3  14 27653.4 539.771   9
   0   3 -15 261.418 57.6867  15
   0  -3  15 309.771 63.6804   9
   0  -3 -15 284.398 56.8442  15
   0   3  15 358.965 64.2683   9
   0   3 -16 318.336 60.2484  15
   0  -3 -16 288.891 60.1363  15
   0  -3  16 275.516 59.2223   9
   0   3 -17 42.4726 32.7255  15
   0  -3  17 43.5973 37.0161   9
   0  -3  18 174.527 45.1950   9
   0   3 -18 172.622 41.7974  15
   0   3 -19 321.092 46.8591  15
   0  -3  19 364.683 46.6304   9
   0   4   0 1680.06 49.8261   4
   0  -4   0 1727.20 86.1175   5
   0  -4  -1 5086.15 144.448   2
   0  -4   1 5152.52 145.111   5
   0   4   1 5504.58 115.087   4
   0  -4  -1 5164.68 150.974   5
   0  -4  -2 16688.9 281.194   5
   0   4  -2 16734.2 329.234   2
   0  -4  -3 1262.99 84.8202   5
   0  -4   3 1122.42 97.6153   1
   0   4  -3 1308.43 102.906   2
   0  -4  -4 13155.0 285.003   5
   0  -4   4 12166.2 343.342   1
   0  -4  -5 4610.07 188.824   1
   0  -4  -5 4253.55 175.613   5
   0  -4  -6 109.359 35.7309   1
   0  -4  -6 152.873 44.9999   5
   0  -4  -7 11093.5 324.769   5
   0  -4  -8 1026.17 108.691   5
   0  -4  -8 970.467 103.584   3
   0  -4  -9 1916.71 151.115   3
   0  -4 -10 690.314 100.753   3
   0  -4 -11 4404.44 251.851   3
   0  -4 -12 6263.03 309.711   3
   0  -4 -13 8163.60 294.183  15
   0  -4  13 7775.04 286.052   9
   0   4  13 8130.27 277.499   9
   0  -4  14-24.5435 34.1413   9
   0  -4 -14 14.6973 30.6745  15
   0   4 -14 31.4292 35.8807  15
   0  -4  15 318.927 65.6545   9
   0   4 -15 284.926 61.7932  15
   0   4 -16 522.527 76.2207  15
   0  -4  16 594.551 82.5132   9
   0   4 -17 12279.6 334.059  15
   0  -4  17 12413.2 334.930   9
   0  -4  18 30.8568 25.5530   9
   0   4 -18 62.9526 31.3014  15
   0  -4  19 203.078 37.5179   9
   0   4 -19 216.861 38.7056  15
   0  -5   0-0.77699 21.1024   5
   0  -5   1 134301. 841.548   5
   0   5   1 136154. 594.970   4
   0  -5  -1 135682. 876.443   5
   0   5   2 14634.2 240.165   4
   0  -5   2 14233.0 279.751   5
   0  -5  -2 14790.3 277.524   2
   0  -5  -2 14441.4 293.489   5
   0  -5  -3 27247.6 423.951   5
   0   5  -3 27380.8 495.513   2
   0  -5   3 26600.7 492.085   1
   0  -5  -4 5775.23 207.430   5
   0  -5   4 5402.38 242.688   1
   0   5  -4 6137.04 259.056   2
   0  -5  -5 26667.2 470.879   5
   0  -5  -6 85168.1 892.625   5
   0  -5  -7 109903. 1066.25   5
   0  -5  -8 1736.96 145.450   5
   0  -5  -8 1533.48 136.453   3
   0  -5  -9 24219.9 563.644   3
   0  -5 -10 1159.18 128.488   3
   0  -5 -11 458.692 87.2588   3
   0  -5  12 1546.61 125.711   9
   0   5 -12 1439.65 123.423  16
   0  -5  13 33700.9 599.937   9
   0  -5  14 11653.7 357.680   9
   0   5 -14 11821.7 357.178  15
   0  -5  15 14157.9 389.427   9
   0   5 -15 14081.1 386.984  15
   0   5 -16 85.7738 34.0014  15
   0  -5  16 87.3723 43.0523   9
   0   5 -17 325.090 56.4194  15
   0  -5  17 341.233 62.6875   9
   0  -5  18 214.063 43.1329   9
   0   5 -18 211.398 42.7352  15
   0  -5  19 64.2986 26.9976   9
   0   5 -19 73.4902 24.5819  15
   0  -6   0 129280. 928.135   5
   0  -6  -1 18587.3 360.171   5
   0  -6   1 18523.5 351.930   5
   0  -6  -2 174197. 1125.59   5
   0  -6   2 173929. 1082.24   5
   0   6  -3 9093.27 302.941   2
   0  -6   3 9430.67 259.559   5
   0  -6  -3 10036.7 282.175   5
   0   6   3 9523.27 225.436   4
   0  -6  -4 5164.60 210.964   5
   0   6   4 4827.14 181.192   4
   0  -6  -5 2442.35 153.798   5
   0  -6  -6 51887.9 737.613   5
   0  -6  -7 2837.30 182.737   5
   0  -6  -8 43833.3 749.516   5
   0  -6  -9 3079.72 210.116   5
   0  -6  -9 2590.52 192.753   3
   0  -6 -10 1998.93 173.243   3
   0  -6 -11 8573.60 366.120   3
   0   6  11 8582.60 370.685   4
   0  -6  11 7938.65 279.152   9
   0   6 -12 2641.18 166.530  16
   0  -6  12 2725.55 170.306   9
   0  -6  13 263.285 58.6684   9
   0  -6  14 4875.63 232.502   9
   0  -6  15 345.307 67.6189   9
   0   6 -15 336.637 64.1804  15
   0   6 -16 367.452 64.7660  15
   0  -6  16 427.836 69.9988   9
   0   6 -17 791.722 81.7130  15
   0  -6  17 787.387 82.9013   9
   0   6 -18 0.91198 24.4497  15
   0  -6  18 49.9269 27.3673   9
   0  -7   0-39.4272 28.7003   5
   0  -7  -1 6729.94 235.433   5
   0  -7   1 6857.27 234.848   5
   0  -7   2 9046.64 273.609   5
   0  -7  -2 8952.62 278.462   5
   0  -7  -3 567.863 77.4706   5
   0  -7   3 664.605 78.6486   5
   0  -7   4 6798.56 246.645   5
   0  -7  -4 6740.37 259.996   5
   0  -7   5 262.147 58.5424   5
   0  -7  -5 290.892 61.4412   5
   0  -7  -6 8332.57 313.971   5
   0   7   6 8051.13 280.079   4
   0   7   7 1149.01 114.305   4
   0  -7  -7 1100.91 121.746   5
   0  -7  -8 455.584 84.3541   5
   0   7   8 339.991 67.7035   4
   0  -7  -9 688.970 103.358   3
   0   7   9 762.251 106.617   4
   0  -7  -9 666.701 102.941   5
   0   7  10 3046.57 214.255   4
   0  -7 -10 2647.32 204.876   3
   0   7 -11 30.5374 29.6351  16
   0  -7  11 12.2875 35.7189   9
   0  -7  12 7950.78 295.987   9
   0   7 -12 8072.79 292.459  16
   0  -7  13 667.759 90.0646   9
   0  -7  14 76.9042 41.5702   9
   0   7 -15 1313.59 115.344  15
   0  -7  15 1218.70 115.326   9
   0  -7  16 87.4198 31.3306   9
   0   7 -16 118.521 39.6549  15
   0  -7  17 1879.00 118.072   9
   0   7 -17 1772.61 113.088  15
   0   7 -18 2269.99 106.269  15
   0  -7  18 2301.03 109.286   9
   0  -8   0 184954. 1343.86   5
   0  -8   1 6655.35 252.833   5
   0  -8  -1 6390.15 249.172   5
   0  -8  -2 65.9639 38.9123   5
   0  -8   2-14.3475 38.0637   5
   0  -8  -3 123.871 41.8348   5
   0  -8   3 89.6240 35.8376   5
   0  -8  -4 300.857 62.9036   5
   0  -8   4 296.313 60.8772   5
   0  -8   5 1249.81 118.151   5
   0  -8  -5 1248.11 125.432   5
   0  -8   6 2126.35 157.915   5
   0  -8  -6 1889.00 159.679   5
   0  -8  -7 5635.95 283.649   5
   0  -8   7 5908.32 269.474   5
   0  -8  -8 4707.58 267.278   5
   0  -8   8 4607.81 246.330   5
   0  -8   9 64.2866 34.7657   5
   0  -8  -9-8.41122 37.5811   3
   0  -8  -9-11.3335 41.9765   5
   0  -8   9 36.4062 33.7815   9
   0  -8  10 30154.9 560.391   9
   0   8  10 30545.8 519.185  11
   0  -8  11 1418.34 128.818   9
   0   8  11 1465.63 117.010  11
   0   8 -12 20.8247 27.7280  16
   0  -8  12 38.7281 28.5414   9
   0  -8  13 283.076 62.9330   9
   0  -8  14 159.830 49.0790   9
   0  -8  15 438.720 69.0021   9
   0   8 -15 435.315 66.0452  15
   0   8 -16 1561.68 109.695  15
   0  -8  16 1439.25 109.323   9
   0  -8  17 3.31389 23.3718   9
   0   8 -17 46.5205 26.6373  15
   0  -9   0-8.17373 31.6226   5
   0  -9   1 489.135 77.0024   5
   0  -9  -1 471.870 76.3699   5
   0  -9  -2 15254.2 423.724   5
   0  -9   2 15375.4 417.220   5
   0  -9   3 3789.45 209.161   5
   0  -9  -3 3776.78 216.054   5
   0  -9   4 20537.4 497.813   5
   0  -9  -4 20195.5 510.514   5
   0  -9   5 2894.93 191.062   5
   0  -9  -5 3252.77 212.159   5
   0  -9   6 6632.62 291.337   5
   0  -9  -6 6232.00 299.597   5
   0  -9  -7 2552.22 196.732   5
   0  -9   7 2475.06 184.028   5
   0  -9   8 9263.35 306.284   9
   0  -9   9 3190.57 185.446   9
   0  -9  10 13440.1 383.418   9
   0  -9  11 1046.08 110.860   9
   0  -9  12 214.665 53.9131   9
   0  -9  13 40.1409 30.5376   9
   0  -9  14 24.3530 30.0955   9
   0  -9  15 81.6826 36.7848   9
   0   9 -15 106.574 38.9002  15
   0  -9  16 2488.61 129.983   9
   0   9 -16 2527.12 125.655  15
   0  -9  17 43.3644 19.8877   9
   0 -10   0 13128.3 405.791   5
   0 -10   1 1045.24 116.705   5
   0 -10  -1 961.788 115.253   5
   0 -10   2 324.732 68.0822   5
   0 -10  -2 344.346 69.5853   5
   0 -10   3 647.485 95.5855   5
   0 -10  -3 728.778 100.498   5
   0 -10  -4 1254.32 135.932   5
   0 -10   4 1422.26 138.688   5
   0 -10  -5 1265.86 137.620   5
   0 -10   5 1236.70 129.039   5
   0  10   6 13800.3 348.870   8
   0  10  -6 14099.9 374.813   8
   0 -10   6 14794.9 382.429   9
   0  10   7 5906.67 231.464   8
   0 -10   7 5578.42 241.139   9
   0  10   8 1142.08 105.172   8
   0 -10   8 1371.59 124.210   9
   0 -10   9 537.476 81.8010   9
   0 -10  10-26.2691 43.0281   9
   0 -10  11 385.734 70.6309   9
   0 -10  12 1260.67 117.031   9
   0 -10  13 450.420 71.0685   9
   0 -10  14 6463.42 235.265   9
   0  10 -15 663.142 67.1533  15
   0 -10  15 745.628 76.2645   9
   0  10 -16 272.435 37.0017  15
   0 -10  16 362.042 46.9457   9
   0 -11   0 133.331 45.5381   5
   0  11   0-31.4035 35.4293   8
   0 -11   1 12395.4 412.401   5
   0  11   1 12372.2 333.587   8
   0  11  -1 12070.7 332.495   8
   0 -11  -1 13276.7 433.264   5
   0  11   2-68.2731 31.9532   8
   0  11  -2-20.4506 33.0352   8
   0  11  -3 1831.04 134.150   8
   0  11   3 1552.65 118.022   8
   0  11   4 27920.3 499.321   8
   0  11  -4 26792.2 515.093   8
   0  11  -5 12913.7 364.301   8
   0  11   5 13291.0 347.427   8
   0  11   6 9155.57 290.403   8
   0 -11   6 8808.72 306.633   9
   0  11   7 36073.7 572.528   8
   0 -11   7 35712.2 623.448   9
   0  11   8 4903.46 211.797   8
   0 -11   8 4480.08 223.653   9
   0 -11   9 5957.06 256.716   9
   0 -11  10 66.0519 32.2549   9
   0 -11  11 897.611 101.643   9
   0 -11  12 5124.63 220.453   9
   0 -11  13 7671.78 254.472   9
   0 -11  14 75.7236 27.6762   9
   0  11 -15 581.289 54.8032  15
   0 -11  15 609.123 58.4952   9
   0  12   0 153.415 42.5956   8
   0  12  -1 834.267 91.2515   8
   0  12   1 929.346 98.6895   8
   0  12  -2 3428.22 185.288   8
   0  12   2 3719.93 188.723   8
   0  12   3 2491.81 154.657   8
   0  12  -3 2847.57 171.260   8
   0  12   4 34.9704 32.1551   8
   0  12  -4 171.954 50.0944   8
   0  12   5 52.4966 38.0178   8
   0 -12   5-5.38112 28.3926   9
   0 -12   6 2452.12 165.997   9
   0  12   6 2370.69 147.566   8
   0 -12   7 3801.98 203.094   9
   0  12   7 4006.25 188.124   8
   0 -12   8 927.574 103.075   9
   0 -12   9 38.4711 32.5375   9
   0 -12  10-19.9292 36.3292   9
   0 -12  11 386.772 61.8653   9
   0 -12  12 655.530 77.6214   9
   0 -12  13 81.7263 32.8986   9
   0 -12  14 61.6719 26.5656   9
   0  13   0 5.08096 26.0813   8
   0  13   1 803.644 90.0099   8
   0  13  -1 682.907 86.6579   8
   0  13  -2 44.5232 33.0937   8
   0  13   2-0.63127 24.1908   8
   0  13   3 1468.23 117.877   8
   0  13  -3 1405.57 121.666   8
   0  13   4 12568.5 335.505   8
   0 -13   4 12248.4 355.361   9
   0  13  -4 12235.4 351.521   8
   0  13   5 326.103 57.6763   8
   0 -13   5 165.379 51.7997   9
   0  13   6 2363.82 141.420   8
   0 -13   6 2431.58 160.404   9
   0 -13   7 13383.8 364.345   9
   0 -13   8 224.839 57.1454   9
   0 -13   9 1082.95 101.908   9
   0 -13  10 144.211 45.0861   9
   0 -13  11 234.444 47.2461   9
   0 -13  12-33.3160 25.7614   9
   0  14   0 149.856 40.4339   8
   0  14   1 22.7592 25.6528   8
   0  14  -1 84.4275 38.2457   8
   0  14   2 1390.45 110.112   8
   0  14  -2 1265.14 108.044   8
   0 -14   3 5078.24 219.965   9
   0  14   3 5279.15 208.489   8
   0 -14   4 593.496 78.2212   9
   0  14   4 591.609 69.6333   8
   0 -14   5 268.488 57.9087   9
   0 -14   6 935.149 94.0524   9
   0 -14   7 1651.33 119.662   9
   0 -14   8 94.2610 36.7611   9
   0 -14   9 1183.42 94.2827   9
   0 -14  10 12.3434 21.8647   9
   0 -14  11 1941.61 97.8186   9
   0  15   0-4.24452 27.9272   8
   0  15  -1 502.263 63.3361   8
   0  15   1 482.395 60.7097   8
   0 -15   2 621.441 71.1442   9
   0  15   2 682.586 70.8004   8
   0 -15   3 7.09047 23.3809   9
   0 -15   4 236.164 47.6141   9
   0 -15   5 610.296 69.9306   9
   0 -15   6 150.942 42.8891   9
   0 -15   7 368.279 50.4858   9
   0 -15   8 76.6661 27.7073   9
   0 -15   9 67.4026 22.7042   9
   0 -16   0 2512.03 115.706   9
   0 -16   1 1249.48 82.9649   9
   0 -16  -1 1180.54 77.8971   9
   0 -16   2 180.482 39.4000   9
   0 -16   3 1857.81 100.238   9
   0 -16   4 834.430 66.4542   9
   0 -16   5 609.627 55.6536   9
  -1   0  19 5555.24 195.728   9
   1   0 -18-27.5298 30.1318  15
  -1   0  18-4.20153 26.4530   9
  -1   0  17 199.007 48.6991   9
   1   0 -17 143.521 42.6826  15
  -1   0  17 78.4432 35.1751  11
   1   0 -16 63.5811 34.3464  15
  -1   0  16-46.7247 43.3079   9
  -1   0  16-12.4523 27.5627  11
   1   0 -15 14688.8 388.258  15
  -1   0  15 14196.8 398.709   9
   1   0 -14-10.7813 25.3670  15
  -1   0  14 0.31069 28.3386   9
  -1   0  13 12312.9 434.882   4
   1   0 -12-27.6581 35.5081   3
   1   0 -11 104070. 1061.29   3
   1   0 -10-7.77882 25.9569   3
   1   0  -9 987.973 91.6095   3
   1   0  -8 59.5763 27.0153   3
   1   0  -7 196000. 1086.48   3
   1   0  -6 50.2641 24.7902   3
   1   0  -6-41.4326 42.9734   1
   1   0  -5 5328.26 141.715   3
   1   0  -4 8.33863 12.7724   3
  -1   0   3 65547.9 461.789   4
   1   0  -3 64237.5 390.711   5
   1   0  -3 65528.5 345.702   3
  -1   0   2 153.212 21.7777   4
   1   0  -2 60.3679 11.9881   5
  -1   0   1 908.330 42.8745   4
  -1   0   0 629.419 34.9715   4
  -1   0   0 725.818 38.3619   6
  -1   0  -1 195226. 642.234   4
  -1   0  -1 193997. 793.219   2
   1   0   1 193020. 793.450   2
  -1   0  -2-4.13617 17.1645   2
  -1   0  -2 16.7688 14.1723   3
  -1   0  -3 54701.7 438.480   3
   1   0   4 31.9862 28.6751   1
  -1   0  -4 31.8405 21.3266   3
  -1   0  -5 955.531 76.3883   3
   1   0   5 859.229 88.1216   1
  -1   0  -6 184.156 42.3283   3
   1   0   6 20.2733 30.5004   1
  -1   0  -7 107582. 931.697   3
  -1   0  -8 6.33638 29.6827   3
  -1   0  -9 133723. 1188.17   3
  -1   0 -10 1.67534 32.7545   3
  -1   0 -11 6422.21 294.118   3
  -1   0 -12-10.4356 45.4656   3
  -1   0 -13 11709.9 346.341  15
  -1   0 -14-23.3079 34.9938  15
  -1   0 -15 1765.16 140.891  15
  -1   0 -16-9.65177 35.2301  15
  -1   0 -17 1274.81 114.733  15
  -1   0 -18-18.3330 33.2233  15
  -1   0 -19 42.0669 27.6479  15
   1   1 -19 215.558 39.5828  15
  -1  -1  19 182.109 41.8503   9
  -1  -1  18 986.954 95.3541   9
   1   1 -18 989.778 90.8073  15
  -1   1  18 785.835 85.4324   9
  -1  -1  17 1993.18 144.654   9
  -1  -1  17 2060.06 132.706  11
   1   1 -17 2163.40 142.591  15
  -1   1  17 2071.27 144.076   9
   1  -1 -17 2119.54 141.828  15
  -1   1  17 2242.59 138.267  11
  -1   1  16 3773.82 187.213  11
   1  -1 -16 3549.18 190.200  15
   1   1 -16 3522.34 188.179  15
  -1   1  16 3681.37 200.837   9
  -1  -1  16 3507.99 196.727   9
  -1   1  15 2656.56 174.403   9
   1  -1 -15 2851.55 172.006  15
   1   1 -15 2720.51 169.126  15
  -1   1  15 2836.61 166.427  11
  -1  -1  15 2778.81 179.324   9
  -1   1  14 2062.34 151.445   9
   1  -1 -14 2048.06 143.666  15
  -1   1  14 1913.23 135.852  11
  -1  -1  14 2084.83 152.634   9
   1   1 -14 1968.41 139.176  15
  -1   1  13 33225.7 728.291   4
   1  -1 -12 2582.00 180.950   3
  -1  -1  12 2903.88 199.370   4
   1  -1 -11 9225.83 326.629   3
   1   1 -11 9375.61 319.549   3
   1  -1 -10 5786.08 242.597   3
   1   1 -10 5840.49 234.664   3
   1  -1  -9 22243.6 442.395   3
   1   1  -9 21721.3 422.604   3
   1   1  -8 10748.2 272.947   3
   1  -1  -8 10532.7 282.496   3
   1  -1  -7 3727.59 154.768   3
   1   1  -7 3569.74 145.532   3
   1   1  -6 549.508 53.5233   3
   1   1  -6 580.067 84.4256   1
   1  -1  -6 533.140 55.9553   3
   1  -1  -5 4968.95 144.895   3
   1  -1  -5 4987.13 156.342   5
   1   1  -5 4930.22 137.126   3
   1   1  -5 4829.46 211.024   1
   1  -1  -4 2118.20 91.2385   5
   1   1  -4 1996.82 122.121   1
   1   1  -3 1012.93 43.2082   3
  -1  -1   3 1089.40 54.8941   4
  -1   1   3 1136.46 67.0348   4
   1  -1  -3 1055.30 56.8516   5
  -1  -1   2 78694.8 390.028   4
  -1   1   2 79272.6 477.816   4
   1  -1  -2 77770.9 408.913   5
   1  -1  -1 21811.3 192.519   5
  -1   1   1 21817.4 227.924   4
  -1   1   1 21979.6 186.294   6
  -1  -1   1 22047.8 186.889   4
  -1  -1   0 7723.76 112.968   4
  -1   1   0 7691.33 127.050   4
  -1   1  -1 129.925 18.1738   4
  -1  -1  -1 137.088 20.0237   6
  -1   1  -2 204245. 777.278   3
  -1  -1  -2 206545. 792.065   2
  -1  -1  -2 205865. 751.624   3
  -1   1  -2 204473. 1042.66   2
  -1  -1  -2 206120. 732.824   6
  -1   1  -3 927.767 60.0389   3
  -1  -1  -3 946.790 60.4470   3
   1   1   3 974.954 70.2746   1
  -1  -1  -4 79072.7 605.727   3
   1  -1   4 79840.3 796.698   1
   1   1   4 78521.6 691.181   1
   1  -1   5 18438.1 416.479   1
   1   1   5 18374.0 370.386   1
  -1  -1  -5 17909.3 318.414   3
  -1   1  -5 18291.7 324.958   3
  -1  -1  -6 5958.79 202.889   3
  -1   1  -6 6078.66 205.797   3
  -1  -1  -7 14685.8 347.473   3
  -1   1  -7 14453.6 341.868   3
  -1   1  -8 2976.12 168.294   3
  -1  -1  -8 3008.16 170.420   3
  -1   1  -9 5258.33 236.284   3
  -1  -1  -9 5663.69 246.170   3
  -1   1 -10 770.379 100.529   3
  -1  -1 -10 828.357 104.313   3
  -1   1 -11 57917.8 885.437   3
  -1  -1 -11 57176.4 885.742   3
  -1  -1 -12 22165.7 573.933   3
  -1  -1 -13 2017.26 145.835  15
  -1   1 -13 2143.74 149.059  15
  -1  -1 -14 13502.2 386.443  15
  -1   1 -14 13469.2 383.397  15
  -1   1 -15 66.4657 35.2299  15
  -1  -1 -15 34.5614 32.3345  15
  -1  -1 -16 138.894 43.2307  15
  -1   1 -16 269.125 55.3791  15
  -1   1 -17 2580.91 160.742  15
  -1  -1 -17 2661.41 164.483  15
  -1  -1 -18-7.06881 26.6905  15
  -1   1 -18-24.1029 34.5906  15
  -1   1 -19 1037.71 84.1000  15
   1   2 -19 393.390 48.0583  15
  -1  -2  19 325.486 51.7426   9
  -1  -2  18 1421.28 113.326   9
   1   2 -18 1232.33 98.5555  15
  -1  -2  17 2692.93 151.293  11
  -1  -2  17 2642.26 164.898   9
   1   2 -17 2640.96 155.961  15
  -1   2  17 2637.55 161.840   9
  -1   2  17 2735.62 150.548  11
  -1   2  16 301.895 58.9544  11
  -1   2  16 246.395 56.7454   9
   1   2 -16 165.891 55.0659  15
  -1  -2  16 265.963 58.5705   9
   1  -2 -16 317.459 58.7231  15
   1  -2 -15 2295.93 154.996  15
   1   2 -15 2567.30 160.617  15
  -1   2  15 2686.91 162.226  11
  -1   2  15 2465.80 166.691   9
  -1  -2  15 2167.44 157.281   9
  -1  -2  14 424.401 72.8669   9
   1   2 -14 401.635 66.3464  15
  -1   2  14 391.388 67.9363   9
  -1   2  14 357.671 61.6793  11
   1  -2 -14 403.531 66.5916  15
  -1  -2  13 13791.6 373.147   9
  -1   2  13 13869.9 479.625   4
  -1   2  13 14134.8 377.949   9
   1  -2 -12 9978.23 363.731   3
  -1   2  12 8923.66 376.334   4
   1  -2 -11 1382.91 131.731   3
   1  -2 -10 11321.3 347.541   3
   1  -2  -9 3488.90 180.241   3
   1  -2  -8 42320.4 580.108   3
   1  -2  -7 2817.36 149.484   5
   1  -2  -7 2982.72 144.863   3
   1  -2  -6 12907.5 289.182   5
   1  -2  -6 12934.3 275.758   3
   1  -2  -5 112624. 780.979   5
   1   2  -5 112881. 1030.37   1
   1  -2  -4 14722.8 258.166   5
  -1  -2   4 15293.8 217.501   4
   1   2  -4 15617.4 342.836   1
   1  -2  -3 6438.83 154.464   5
   1   2  -3 6770.72 200.849   1
  -1  -2   3 6991.32 121.037   4
  -1   2   3 6414.04 164.803   4
  -1   2   2 535461. 1347.51   4
   1   2  -2 539425. 1502.66   1
  -1   2   1 43676.9 352.952   4
   1  -2  -1 43733.1 341.675   5
   1   2  -1 43530.2 335.622   1
   1   2   0 20646.9 146.310   1
  -1   2   0 20968.1 227.789   4
  -1  -2   0 20933.2 170.255   5
   1  -2   0 21324.1 236.219   5
  -1   2  -1 70424.2 411.302   4
  -1   2  -1 71125.9 621.520   2
  -1  -2  -1 71460.5 380.203   5
  -1   2  -2 39969.5 503.024   2
  -1  -2  -2 40116.9 331.214   6
  -1  -2  -2 40590.8 341.296   5
  -1  -2  -3 54231.7 459.077   5
  -1  -2  -3 54835.5 405.292   6
  -1   2  -3 54980.8 642.557   2
  -1  -2  -4 62593.7 562.712   3
  -1  -2  -4 62423.3 546.258   5
  -1  -2  -4 61378.2 466.147   6
  -1  -2  -5 17149.5 261.738   6
   1  -2   5 17280.4 424.351   1
  -1  -2  -5 16929.0 321.744   3
  -1   2  -6 381.611 59.3323   3
  -1  -2  -6 387.351 57.4890   3
  -1  -2  -7 85474.9 846.711   3
  -1   2  -7 83137.0 841.832   3
  -1  -2  -8 87377.0 924.995   3
  -1   2  -8 88016.7 929.264   3
  -1  -2  -9 1769.09 144.295   3
  -1  -2 -10 768.647 103.890   3
  -1  -2 -11 11295.7 396.142   3
  -1  -2 -12 18668.2 534.251   3
  -1   2 -13 688.388 89.0454  15
  -1  -2 -13 569.854 80.0191  15
  -1   2 -14 4230.08 216.125  15
  -1  -2 -14 4367.30 219.862  15
  -1  -2 -15 16828.4 434.413  15
  -1   2 -15 16277.6 426.823  15
  -1   2 -16 1056.99 108.136  15
  -1  -2 -16 1070.13 109.207  15
  -1  -2 -17 365.515 64.1731  15
  -1   2 -17 422.328 69.8487  15
  -1   2 -18 7411.91 247.069  15
  -1   2 -19 482.386 57.9823  15
  -1  -3  19 606.984 66.5898   9
  -1  -3  18 2623.62 150.636   9
   1   3 -18 2553.84 136.854  15
  -1   3  17 46.1051 26.8186  11
  -1  -3  17 44.9924 34.9185   9
   1   3 -17 60.0732 31.9307  15
  -1   3  16 11756.8 349.565   9
  -1   3  16 11876.6 325.398  11
   1   3 -16 12147.9 343.291  15
  -1  -3  16 11466.4 352.878   9
  -1   3  15 4821.62 214.405  11
   1  -3 -15 4544.02 217.786  15
  -1   3  15 4732.68 227.751   9
  -1  -3  15 4538.01 227.827   9
   1   3 -15 4981.43 224.640  15
  -1   3  14 2844.53 177.374   9
   1  -3 -14 2877.13 172.102  15
   1   3 -14 3085.00 175.211  15
  -1  -3  14 2826.60 177.297   9
  -1   3  14 2907.31 168.116  11
  -1   3  13 38.7468 29.6837   9
  -1  -3  13 46.3904 30.9134   9
   1  -3 -13 41.9084 28.2427  15
   1   3 -13 22.7614 28.1400  15
  -1   3  13 89.0488 43.3690  11
   1  -3 -12 12943.8 421.232   3
  -1   3  12 12410.7 448.165   4
  -1   3  11 22388.9 578.706   4
   1  -3 -11 23906.4 549.135   3
   1  -3 -10 4251.29 220.253   3
   1  -3  -9 58.3973 28.0463   3
   1  -3  -8 13745.4 365.570   5
   1  -3  -8 13621.2 349.102   3
   1  -3  -7 26387.0 452.823   3
   1  -3  -7 27162.4 479.104   5
   1  -3  -6 24593.8 427.709   5
  -1  -3   5 24998.4 288.337   4
   1  -3  -5 24954.8 395.440   5
   1  -3  -4 45460.3 493.347   5
  -1  -3   4 45850.1 325.120   4
  -1   3   3 19433.7 302.366   4
   1  -3  -3 19090.0 298.362   5
  -1  -3   3 19366.0 164.252   4
   1  -3  -2 51.4616 25.0562   5
  -1   3   2 72.7413 22.5490   4
  -1   3   1 44861.0 383.185   4
   1  -3  -1 44549.7 408.783   5
  -1  -3   1 44173.8 316.638   5
  -1   3   0 129191. 603.088   4
   1  -3   0 130490. 686.706   5
  -1  -3  -1 9571.26 166.776   5
  -1   3  -1 9203.12 156.368   4
  -1  -3  -2 217648. 889.924   5
  -1   3  -2 219235. 1284.92   2
  -1  -3  -3 24542.5 331.736   5
  -1   3  -3 24752.2 462.380   2
  -1  -3  -4 42114.7 476.036   5
  -1   3  -4 44584.7 677.766   2
  -1  -3  -5 79545.1 545.356   6
  -1  -3  -5 79651.8 720.800   5
  -1  -3  -5 79224.3 731.756   3
  -1  -3  -6 75.8304 34.5248   3
  -1  -3  -7 3568.98 181.960   3
  -1  -3  -8 36503.5 612.325   3
  -1  -3  -9 949.888 109.689   3
  -1  -3 -10 7476.07 316.027   3
  -1  -3 -11 10849.2 397.541   3
  -1  -3 -12 45.6043 32.5728   3
  -1   3 -13 16099.2 415.155  16
  -1   3 -13 15442.5 403.049  15
  -1  -3 -13 16084.7 414.790  15
   1  -3  13 15849.8 389.358   9
  -1  -3 -14 272.100 70.4080  15
  -1   3 -14 265.811 61.9613  15
   1  -3  14 364.484 66.8824   9
  -1   3 -15 6601.30 269.848  15
  -1  -3 -15 6836.23 275.302  15
   1  -3  15 6837.65 257.150   9
  -1  -3 -16 2154.92 153.310  15
  -1   3 -16 2255.67 156.511  15
  -1   3 -17 190.660 50.7576  15
  -1   3 -18 15.8186 26.3887  15
  -1   3 -19 15.9697 23.8390  15
  -1  -4  19 627.625 64.7490   9
   1   4 -18 1486.27 100.436  15
  -1  -4  18 1601.69 116.321   9
  -1  -4  17 449.675 70.9068   9
  -1   4  17 429.503 59.9187  11
   1   4 -17 436.775 63.3367  15
   1   4 -16 7458.42 266.179  15
  -1  -4  16 7196.42 277.727   9
  -1   4  16 7072.85 248.884  11
  -1  -4  15 424.036 73.4142   9
  -1   4  15 446.159 68.2550  11
   1   4 -15 571.890 79.8899  15
  -1   4  14 3774.61 191.903  11
   1   4 -14 3924.23 198.654  15
  -1  -4  14 3757.55 207.833   9
  -1   4  14 3694.66 201.301   9
  -1   4  13 2028.20 146.976   9
  -1   4  13 1959.29 137.002  11
  -1  -4  13 1885.84 144.545   9
   1  -4 -13 2115.95 147.136  15
  -1   4  12 468.527 91.7374   4
   1  -4 -12 468.088 83.7284   3
  -1   4  11 348.803 82.1819   4
   1  -4 -11 301.583 70.8166   3
  -1   4  10 21778.8 553.578   4
   1  -4 -10 22155.4 518.428   3
   1  -4  -9 24465.0 540.695   5
  -1   4   9 25291.8 562.736   4
   1  -4  -9 24889.4 522.598   3
   1  -4  -8 3117.41 175.852   3
   1  -4  -8 3295.72 189.638   5
   1  -4  -7 23617.2 472.214   5
  -1   4   6 5508.14 217.868   4
   1  -4  -6 5629.84 218.800   5
   1  -4  -5 161.614 41.8972   5
  -1   4   5 145.076 41.6897   4
   1  -4  -4 33347.7 462.550   5
  -1   4   4 32099.5 445.468   4
  -1   4   3 9026.53 217.584   4
   1  -4  -3 8794.90 224.963   5
  -1   4   2 5095.78 149.994   4
  -1  -4   2 4968.68 132.304   5
   1  -4  -2 5267.60 166.577   5
   1   4  -1 266.506 32.1494   2
  -1  -4   1 199.493 29.6541   5
  -1   4   1 232.945 31.5119   4
   1  -4  -1 210.810 38.3793   5
  -1  -4   0 70426.4 505.688   5
  -1   4   0 71342.4 473.089   4
   1  -4   0 72318.1 590.682   5
   1  -4   0 71032.8 730.585   2
  -1   4  -1 8876.50 162.594   4
   1  -4   1 8823.61 266.924   2
   1  -4   1 9275.13 213.381   5
  -1   4  -2 10283.3 299.030   2
  -1  -4  -2 9582.82 210.406   5
  -1  -4  -3 25527.6 368.628   5
  -1   4  -3 26279.7 513.176   2
  -1  -4  -4 34688.6 468.574   5
  -1  -4  -5 10864.2 282.278   5
  -1  -4  -6 31165.1 523.301   3
  -1  -4  -6 30715.3 511.569   5
  -1  -4  -7 5573.29 238.469   3
  -1  -4  -8-4.63370 31.5829   3
  -1  -4  -9 4110.73 228.573   3
  -1  -4 -10 4826.79 257.637   3
  -1  -4 -11 72.1353 39.8341   3
   1  -4  12 7047.76 256.580   9
  -1  -4 -12 7594.84 280.649  15
  -1   4 -12 7479.95 275.813  16
   1  -4  13 4933.60 222.836   9
  -1   4 -13 4728.22 228.316  16
  -1  -4 -13 4779.67 230.418  15
   1  -4  14 3536.03 188.854   9
  -1  -4 -14 3385.14 196.222  15
  -1   4 -14 3600.21 200.851  15
  -1   4 -15 4651.71 225.902  15
   1  -4  15 4790.93 217.551   9
  -1   4 -16 11335.4 339.367  15
   1  -4  16 11642.1 326.829   9
  -1   4 -17 311.058 57.4103  15
  -1   4 -18 3595.91 163.688  15
  -1   4 -19-14.7048 22.3638  15
  -1  -5  19 470.138 54.0673   9
   1   5 -18 274.846 43.7023  15
  -1  -5  18 262.666 52.2939   9
  -1   5  17 3664.83 160.104  11
   1   5 -17 3859.85 174.521  15
  -1  -5  17 3477.49 180.612   9
   1   5 -16 845.944 90.2625  15
  -1  -5  16 893.348 101.838   9
  -1   5  16 803.542 85.5435  11
   1   5 -15 1160.09 109.434  15
  -1   5  15 1337.53 114.318  11
  -1  -5  15 1227.00 119.018   9
   1   5 -14 10933.5 331.924  15
  -1  -5  14 10074.5 339.069   9
  -1   5  14 10979.8 323.654  11
  -1   5  13 682.570 84.8186  11
  -1  -5  13 687.669 89.6478   9
  -1  -5  12 7474.59 277.861   9
   1  -5 -12 7812.16 344.876   3
  -1   5  12 7616.55 263.367  11
  -1   5  11 5400.88 289.283   4
   1  -5 -11 5612.13 282.250   3
  -1   5  10 34.5402 36.0624   4
   1  -5 -10-7.92680 28.0876   3
   1  -5  -9 4149.92 227.127   3
  -1   5   9 4234.75 236.793   4
   1  -5  -9 4389.37 239.446   5
  -1   5   8 14716.1 415.556   4
   1  -5  -8 13939.8 405.201   5
  -1   5   7 7.31435 30.4902   4
   1  -5  -7 34.0546 38.8323   5
   1  -5  -6 152970. 1205.62   5
  -1   5   6 157149. 1187.16   4
   1  -5  -5 2532.58 148.968   5
  -1   5   5 2140.43 130.865   4
   1  -5  -4 3506.89 165.049   5
  -1   5   4 3357.32 151.178   4
  -1   5   3 13095.6 271.948   4
   1  -5  -3 13261.5 304.470   5
  -1  -5   3 12891.1 251.657   5
  -1   5   2 7708.42 196.433   4
   1  -5  -2 7887.73 265.089   2
  -1  -5   2 7741.03 188.659   5
   1  -5  -1 38081.2 485.313   5
  -1   5   1 36926.7 392.300   4
   1  -5  -1 38092.8 578.292   2
   1  -5   0 23710.1 459.938   2
   1  -5   0 23974.4 382.962   5
  -1  -5   0 23532.5 334.969   5
  -1   5   0 23364.6 286.075   4
  -1  -5  -1 944.676 71.6078   5
   1  -5   1 932.346 78.7795   5
  -1   5  -1 1014.10 56.7930   4
  -1  -5  -2 5120.25 169.702   5
   1  -5   2 4975.96 178.976   5
  -1  -5  -3 1263.88 91.8755   5
  -1  -5  -4 10823.0 281.936   5
  -1  -5  -5 30966.2 507.473   5
  -1  -5  -6 7090.62 260.158   5
  -1  -5  -7 20752.1 472.641   5
  -1  -5  -7 20794.3 479.982   3
  -1  -5  -8 3306.30 202.700   3
  -1  -5  -9-6.98838 32.1333   3
  -1  -5 -10 2606.45 196.322   3
  -1  -5 -11 5198.36 285.357   3
   1  -5  12 269.014 52.9528   9
  -1  -5 -12 425.210 70.1560  15
  -1   5 -12 421.351 68.9873  16
   1  -5  13 108.405 50.9171   9
  -1   5 -13 96.0371 49.1514  16
   1  -5  14 573.072 80.9404   9
  -1   5 -14 500.570 79.1675  15
  -1   5 -15 3591.90 198.898  15
   1  -5  15 3808.07 193.859   9
  -1   5 -16 152.315 44.6991  15
   1  -5  16 168.125 42.1138   9
   1  -5  17 65.7765 26.0385   9
  -1   5 -17 63.1008 33.2786  15
  -1   5 -18 174.107 42.1213  15
  -1   5 -19 237.439 35.9440  15
  -1  -6  19 3099.89 118.224   9
  -1  -6  18 698.484 72.0469   9
   1   6 -17-19.3812 21.6355  15
  -1  -6  17-1.95199 29.0914   9
   1   6 -16 0.32643 24.0883  15
  -1  -6  16 32.2466 37.0171   9
  -1   6  16-18.1779 22.6108  11
   1   6 -15 695.107 84.5087  15
  -1  -6  15 695.332 90.0080   9
  -1   6  15 656.394 79.4831  11
  -1  -6  14 1023.55 111.836   9
  -1   6  14 869.282 94.1790  11
  -1  -6  13 21256.2 487.306   9
  -1   6  13 21338.8 452.834  11
  -1  -6  12 3382.75 192.243   9
  -1   6  12 3198.93 173.081  11
  -1   6  11 2221.78 188.660   4
   1  -6 -11 1891.13 169.417   3
  -1  -6  11 1973.01 141.603   9
  -1   6  10 5522.93 284.427   4
   1  -6 -10 5533.48 281.564   3
   1  -6 -10 5269.57 282.402   5
   1  -6  -9 18117.2 491.000   3
   1  -6  -9 17363.4 494.069   5
  -1   6   9 18329.1 496.679   4
  -1   6   8 4642.69 238.922   4
   1  -6  -8 4269.14 235.121   5
  -1   6   7 1688.08 137.837   4
   1  -6  -7 1627.96 140.980   5
  -1   6   6 1789.58 131.106   4
   1  -6  -6 1602.96 133.544   5
  -1   6   5 13686.6 337.457   4
   1  -6  -5 13036.2 356.207   5
  -1  -6   4 9479.89 249.443   5
  -1   6   4 9020.76 254.364   4
   1  -6  -4 9719.69 294.341   5
  -1   6   3 4739.71 172.871   4
   1  -6  -3 4720.90 199.368   5
  -1  -6   3 4565.16 168.518   5
  -1   6   2 137991. 849.460   4
  -1  -6   2 135275. 897.462   5
   1  -6  -1 5998.77 216.090   5
  -1  -6   1 6006.14 188.505   5
   1  -6  -1 5805.72 241.055   2
   1  -6   0 1819.82 119.000   5
  -1  -6   0 2018.67 109.892   5
   1  -6   1 5027.60 195.256   5
  -1  -6  -1 4898.53 176.875   5
   1  -6   2 7217.87 236.988   5
  -1  -6  -2 7068.34 221.236   5
  -1  -6  -3 6070.01 214.290   5
   1  -6   3 6455.72 230.152   5
  -1  -6  -4 19040.8 402.939   5
  -1  -6  -5 15695.1 385.011   5
  -1  -6  -6 30765.3 565.517   5
  -1  -6  -7 35.4872 36.5183   5
  -1  -6  -8 14392.2 441.548   3
  -1  -6  -9 4288.16 249.784   3
  -1  -6 -10 2599.66 200.900   3
  -1   6 -11 7086.08 266.556  16
   1  -6  11 6993.20 260.850   9
   1  -6  12 1660.43 130.592   9
  -1   6 -12 1935.05 146.402  16
   1  -6  13 205.550 52.9089   9
  -1   6 -13 137.688 49.3525  16
   1  -6  14 518.126 77.1357   9
   1  -6  15 2929.37 168.103   9
  -1   6 -15 2805.42 170.450  15
  -1   6 -16 888.453 93.9528  15
   1  -6  16 797.856 83.6204   9
  -1   6 -17 907.785 87.3434  15
   1  -6  17 879.791 77.6618   9
  -1  -6 -18 756.332 64.4287  14
  -1   6 -18 822.926 72.5930  15
  -1  -7  18 1235.81 86.3481   9
   1   7 -17 1535.83 96.0862  15
  -1  -7  17 1908.29 122.022   9
  -1  -7  16 551.099 74.7326   9
   1   7 -16 618.357 70.7378  15
  -1   7  16 589.614 66.3298  11
  -1  -7  15 931.807 101.874   9
   1   7 -15 963.787 96.1807  15
  -1   7  15 846.527 85.9835  11
  -1   7  14 156.218 42.5931  11
  -1  -7  14 135.037 53.7656   9
  -1  -7  13 13645.6 392.781   9
  -1   7  13 13282.9 360.312  11
  -1  -7  12 7461.83 288.204   9
  -1   7  12 7360.62 268.470  11
  -1  -7  11 11708.9 350.598   9
  -1   7  11 11708.0 333.309  11
   1  -7 -10 1707.73 165.237   5
   1  -7 -10 1776.77 168.191   3
  -1   7  10 1671.98 157.167   4
  -1   7   9 12006.9 405.730   4
   1  -7  -9 12067.5 425.827   5
   1  -7  -8 4060.93 240.927   5
  -1   7   8 5479.67 261.209   4
   1  -7  -7 1176.67 129.292   5
  -1   7   7 1129.34 112.671   4
   1  -7  -6 731.237 95.6839   5
  -1  -7   6 952.896 92.0473   5
  -1  -7   5 7874.59 255.237   5
  -1   7   5 7503.86 255.931   4
   1  -7  -5 7603.44 291.293   5
  -1  -7   4 7662.50 243.977   5
   1  -7  -4 7960.02 286.830   5
   1  -7  -3 7212.01 266.266   5
  -1  -7   3 7404.88 235.461   5
  -1  -7   2 254.027 44.7236   5
   1  -7  -2 221.563 49.7295   5
  -1  -7   1 14059.4 320.617   5
   1  -7  -1 15088.7 371.081   5
  -1  -7   0 2780.62 143.854   5
   1  -7   0 2639.10 155.979   5
   1  -7   1 12033.5 331.577   5
  -1  -7  -1 12489.0 309.015   5
   1  -7   2 43120.0 629.227   5
  -1  -7  -2 44924.7 606.116   5
  -1  -7  -3 8934.09 283.844   5
   1  -7   3 8671.89 287.980   5
  -1  -7  -4 455.608 68.5311   5
   1  -7   4 384.602 64.8809   5
   1  -7   5 9126.08 312.865   5
  -1  -7  -5 9399.62 317.094   5
  -1  -7  -6 6797.18 282.955   5
  -1  -7  -7 740.855 99.7644   5
  -1  -7  -8 21749.0 562.393   3
  -1  -7  -8 21348.8 547.124   5
  -1  -7  -9 929.282 123.615   3
  -1   7 -10 589.117 80.0342  16
   1  -7  10 345.694 61.6823   9
  -1   7 -11 8811.45 301.300  16
   1  -7  11 8849.93 302.911   9
  -1   7 -12 1788.49 141.880  16
   1  -7  12 1654.17 134.561   9
  -1   7 -13 5089.12 237.744  16
   1  -7  13 5159.57 233.547   9
   1  -7  14 617.386 79.7068   9
  -1   7 -15 68.0694 34.0065  15
   1  -7  15 67.8171 30.9491   9
   1  -7  16 1023.71 90.1016   9
  -1   7 -16 1228.22 104.798  15
   1  -7  17 3760.82 146.158   9
  -1   7 -17 4090.20 167.063  15
  -1  -7 -17 4007.76 148.722  14
  -1   7 -18 486.643 51.1107  15
  -1  -8  17 2441.29 127.771   9
  -1  -8  16 36.1896 25.5620   9
   1   8 -16 4.55604 22.3395  15
  -1  -8  15 151.102 51.7355   9
   1   8 -15 219.302 42.7734  15
  -1   8  15 110.474 32.8407  11
  -1   8  14-2.07815 28.1621  11
  -1  -8  14-35.0502 33.2410   9
  -1  -8  13 1062.81 111.703   9
  -1   8  13 1009.04 101.484  11
  -1   8  12 850.172 93.3566  11
  -1  -8  12 808.415 96.8678   9
  -1  -8  11 9832.73 328.437   9
  -1   8  11 9166.68 302.184  11
  -1  -8  10 34899.3 603.410   9
  -1   8  10 34095.7 573.553  11
  -1  -8   9 5654.66 236.253   9
  -1   8   9 5318.31 221.404  11
   1  -8  -9 5294.43 293.288   5
   1  -8  -8 201.410 60.5691   5
   1  -8  -7 15098.1 464.800   5
   1  -8  -6 1306.59 133.624   5
   1  -8  -5 3921.04 222.863   5
  -1  -8   4 3460.50 179.879   5
   1  -8  -4 2798.28 183.314   5
   1  -8  -3 36071.0 637.858   5
  -1  -8   3 36958.6 569.479   5
  -1  -8   2 1309.29 108.196   5
   1  -8  -2 1470.04 128.686   5
   1  -8  -1 263.460 56.9114   5
  -1  -8   1 137.616 37.6482   5
   1  -8   0 11527.8 349.213   5
  -1  -8   0 12107.2 326.783   5
   1  -8   1 56658.2 771.737   5
  -1  -8  -1 59093.2 735.043   5
  -1  -8  -2 3943.84 198.227   5
   1  -8   2 3910.75 207.175   5
   1  -8   3 4074.52 213.442   5
  -1  -8  -3 4213.72 210.942   5
   1  -8   4 4280.87 223.694   5
  -1  -8  -4 3926.19 209.351   5
   1  -8   5 1189.33 121.034   5
  -1  -8  -5 1321.29 126.488   5
   1  -8   6 1490.20 140.182   5
  -1  -8  -6 1991.91 162.450   5
   1  -8   7 21571.5 539.733   5
  -1  -8  -7 22688.5 564.261   5
  -1  -8  -8 6003.83 300.433   5
  -1  -8  -8 5477.13 290.301   3
   1  -8   8 6091.73 294.105   5
   1  -8   9 21881.2 466.083   9
  -1   8  -9 21718.1 442.736  16
  -1   8 -10 17328.3 410.614  16
   1  -8  10 16920.5 417.976   9
  -1   8 -11 59.6182 36.2084  16
   1  -8  11 44.6911 29.4762   9
   1  -8  12 1534.29 131.470   9
  -1   8 -12 1411.85 125.037  16
   1  -8  13 63.9022 33.5820   9
  -1   8 -13 72.8684 37.9000  16
   1  -8  14 107.718 40.2208   9
   1  -8  15 2775.02 153.660   9
  -1   8 -15 2659.01 154.693  15
  -1   8 -16 222.894 48.0353  15
   1  -8  16 331.463 53.0879   9
  -1   8 -17 294.132 46.3491  15
   1  -8  17 131.626 30.6103   9
  -1  -9  17 2600.77 116.609   9
  -1  -9  16 131.370 38.3458   9
   1   9 -15 165.842 36.4681  15
  -1  -9  15 99.4572 40.3855   9
  -1  -9  14 750.122 93.6562   9
  -1  -9  13 1129.79 114.679   9
  -1   9  13 1006.08 97.4357  11
  -1   9  12 8.23656 27.6225  11
  -1  -9  12-20.4251 35.8948   9
  -1  -9  11 3563.51 199.311   9
  -1   9  11 3526.51 189.937  11
  -1   9  10 6457.12 255.600  11
  -1  -9  10 6569.02 267.651   9
  -1  -9   9 10876.9 337.656   9
  -1   9   9 11012.6 330.070  11
  -1  -9   8 28834.9 535.686   9
  -1   9   8 28108.1 519.647  11
   1  -9  -7 181.705 62.6207   5
   1  -9  -6 844.378 115.843   5
   1  -9  -5 1437.91 144.277   5
   1  -9  -4 1483.86 144.770   5
   1  -9  -3 160.117 52.8868   5
   1  -9  -2 648.587 92.6475   5
   1  -9  -1 7449.41 300.722   5
  -1  -9   1 7785.05 279.009   5
  -1  -9   0 5931.83 248.023   5
   1  -9   0 6092.85 271.770   5
  -1  -9  -1 5051.66 231.397   5
   1  -9   1 5138.59 253.122   5
  -1  -9  -2 521.005 78.3930   5
   1  -9   2 413.342 76.2780   5
  -1  -9  -3 34177.8 631.971   5
   1  -9   3 34512.2 659.687   5
   1  -9   4 240.746 55.9031   5
  -1  -9  -4 242.436 57.4473   5
   1  -9   5 12350.2 407.994   5
  -1  -9  -5 12621.4 408.109   5
  -1  -9  -6 465.869 87.2633   5
   1  -9   6 657.750 97.3228   5
   1  -9   7 1875.15 167.691   5
  -1  -9  -7 2037.13 178.124   5
   1  -9   7 1849.25 133.845   9
   1  -9   8-14.3020 30.1741   9
   1  -9   9 7433.74 280.740   9
  -1   9  -9 7493.04 263.801  16
   1  -9  10 10519.9 336.240   9
  -1   9 -10 11138.1 329.740  16
   1  -9  11 15814.7 413.796   9
  -1   9 -11 16648.0 411.319  16
  -1   9 -12 668.362 86.7775  16
   1  -9  12 623.561 83.3954   9
  -1   9 -13 362.474 59.8930  16
   1  -9  13 143.832 44.6793   9
   1  -9  14 99.5033 35.0568   9
  -1   9 -15-16.8733 29.3071  15
   1  -9  15 31.5798 27.4448   9
  -1   9 -16 760.527 70.6194  15
   1  -9  16 801.070 67.7927   9
  -1 -10  16 756.062 66.3340   9
  -1  10  15 17.4146 19.5359   8
  -1 -10  15 53.8569 30.9024   9
  -1 -10  14 39.0031 28.5917   9
  -1  10  14 41.7134 28.7575   8
  -1 -10  13 574.292 79.3503   9
  -1 -10  12 136.949 47.7738   9
  -1 -10  11 660.350 88.9112   9
  -1 -10  10 123.400 45.1228   9
  -1 -10   9 11374.8 351.615   9
  -1 -10   8 19.8509 31.8724   9
  -1 -10   7 12906.7 361.694   9
  -1 -10   6 5259.58 227.728   9
  -1  10   6 5283.15 225.690   8
   1 -10  -5 38934.9 765.213   5
  -1  10   5 36581.2 581.720   8
   1 -10  -4 187.530 61.1901   5
   1 -10  -3 200.303 54.7872   5
   1 -10  -2 112.262 49.4276   5
   1 -10  -1 1494.86 141.933   5
   1 -10   0 2640.94 190.037   5
   1 -10   1 719.753 102.668   5
   1 -10   2 529.036 86.6547   5
  -1 -10  -3 625.160 95.7142   5
   1 -10   3 530.627 90.0955   5
  -1 -10  -4 12803.6 417.923   5
   1 -10   4 12945.7 426.211   5
  -1  10  -5 3598.57 188.245   8
  -1 -10  -5 4235.45 247.247   5
  -1  10  -6 1317.49 117.926   8
   1 -10   7 62.8199 40.7786   9
   1 -10   8 27765.0 546.618   9
   1 -10   9 28.0500 33.0434   9
   1 -10  10 1179.98 115.371   9
   1 -10  11 811.175 94.7338   9
  -1  10 -11 661.162 80.6578  16
   1 -10  12 566.944 81.9387   9
  -1  10 -12 546.270 72.9378  16
   1 -10  13 241.913 52.3264   9
   1 -10  14 1523.09 108.991   9
  -1  10 -15 364.351 50.7234  15
   1 -10  15 449.616 57.1864   9
  -1  10 -16 68.0752 24.9359  15
  -1 -11  15 2440.17 114.627   9
  -1  11  14 362.810 44.9015   8
  -1 -11  14 420.469 60.5040   9
   1  11 -14 349.398 44.3603  15
  -1  11  13-10.5088 25.6053   8
  -1 -11  13 79.8356 41.1219   9
  -1  11  12 1024.42 94.8004   8
  -1 -11  12 975.515 99.0105   9
  -1 -11  11 3930.31 199.772   9
  -1  11  11 3928.61 187.795   8
  -1  11  10 59.9277 26.4820   8
  -1 -11  10 142.396 43.7832   9
  -1  11   9 4863.19 219.281   8
  -1 -11   9 4842.67 228.268   9
  -1 -11   8 131.008 38.1601   9
  -1  11   8 70.5996 29.6540   8
  -1  11   7 12017.3 347.265   8
  -1 -11   7 11721.2 352.129   9
  -1  11   6 25882.7 506.637   8
  -1 -11   6 25164.5 509.648   9
  -1  11   5 532.850 76.3588   8
  -1 -11   5 577.377 81.2737   9
  -1  11   4 17345.6 412.739   8
   1  11  -4 17043.4 400.921   8
   1  11  -3 1171.64 102.335   8
  -1  11   3 1353.57 115.321   8
  -1  11   2 3514.51 184.759   8
  -1  11   1 432.595 65.2870   8
  -1  11   0 4887.91 217.908   8
  -1  11  -1 3202.32 176.443   8
  -1  11  -2 12028.5 342.987   8
  -1  11  -3 596.449 80.7685   8
  -1  11  -4 10101.9 323.846   8
  -1  11  -5 41272.7 660.411   8
  -1  11  -6 409.994 76.1374   8
   1 -11   6 398.484 71.5276   9
   1 -11   7 888.044 102.245   9
   1 -11   8 87.4337 44.5745   9
   1 -11   9 90.0464 48.1101   9
   1 -11  10 375.273 65.2823   9
   1 -11  11 1632.74 128.714   9
   1 -11  12 243.587 50.3480   9
   1 -11  13 3363.96 161.023   9
  -1  11 -14 825.066 74.2918  15
   1 -11  14 940.982 77.3430   9
  -1  11 -15 473.309 48.7416  15
  -1 -12  14 953.846 71.0189   9
  -1 -12  13 21.4399 24.4614   9
  -1  12  13 69.0064 26.5379   8
  -1 -12  12 405.016 60.9157   9
  -1  12  12 414.699 53.8148   8
  -1 -12  11 963.723 95.4099   9
  -1  12  11 1116.64 92.4600   8
  -1 -12  10 3880.42 193.073   9
  -1  12  10 3860.18 178.475   8
  -1  12   9 455.666 66.3133   8
  -1 -12   9 617.134 81.2916   9
  -1  12   8 429.048 69.2090   8
  -1 -12   8 317.850 64.4077   9
  -1 -12   7 1519.33 128.335   9
  -1  12   7 1515.56 125.033   8
  -1 -12   6 6158.22 253.319   9
  -1  12   6 6210.91 248.856   8
  -1  12   5 11838.7 344.965   8
  -1 -12   5 11970.0 349.972   9
  -1 -12   4 1130.70 107.990   9
  -1  12   4 1144.14 110.173   8
  -1  12   3 9.73655 30.7570   8
   1  12  -3 41.1528 26.8392   8
  -1  12   2 6547.92 258.651   8
  -1  12   1 1405.88 120.708   8
  -1  12   0 949.909 101.502   8
  -1  12  -1 551.483 78.9017   8
  -1  12  -2 1842.33 141.911   8
  -1  12  -3 1890.99 142.582   8
  -1  12  -4 7112.27 279.346   8
  -1  12  -5 6591.36 267.715   8
   1 -12   6 20310.5 467.982   9
   1 -12   7 955.470 105.490   9
   1 -12   8 1223.19 114.449   9
   1 -12   9 2178.20 148.980   9
   1 -12  10-12.8507 32.8846   9
   1 -12  11 296.971 55.7310   9
   1 -12  12 1260.13 97.9691   9
   1 -12  13 59.2996 26.6240   9
  -1 -13  12 1863.15 103.759   9
  -1  13  12 1836.20 85.6663   8
  -1 -13  11 38.7600 28.3818   9
  -1  13  11 12.7794 19.1928   8
  -1  13  10 207.925 42.0663   8
  -1 -13  10 239.235 49.7686   9
  -1 -13   9 111.385 38.8529   9
  -1  13   9 79.1726 30.4226   8
  -1 -13   8 946.000 95.5620   9
  -1  13   8 922.061 89.8984   8
  -1  13   7 2716.25 156.457   8
  -1 -13   7 2707.85 161.952   9
  -1 -13   6 8197.14 281.096   9
  -1  13   6 8101.61 273.592   8
  -1 -13   5 1696.29 130.961   9
  -1  13   5 1642.72 128.333   8
  -1  13   4 2941.68 171.978   8
  -1 -13   4 3166.00 175.479   9
  -1 -13   3 9835.67 307.060   9
  -1  13   3 9051.36 300.908   8
  -1  13   2 4.80073 28.2463   8
  -1  13   1 91.2704 46.4357   8
  -1  13   0 4003.95 203.851   8
  -1  13  -1 22.0609 30.3111   8
  -1  13  -2 1401.49 122.346   8
  -1  13  -3 2960.20 175.843   8
  -1  13  -4 57.7292 40.6748   8
   1 -13   5 4200.68 210.471   9
   1 -13   6 38.2529 34.7802   9
   1 -13   7 1983.25 143.635   9
   1 -13   8 2265.99 148.743   9
   1 -13   9 525.954 71.8398   9
   1 -13  10 2198.36 131.111   9
   1 -13  11 64.9007 29.2080   9
   1 -13  12 10.4027 20.4652   9
  -1  14  10 634.249 54.0508   8
  -1 -14  10 584.796 60.2496   9
  -1 -14   9 684.289 70.1266   9
  -1  14   9 701.047 63.8937   8
  -1  14   8 6.16302 21.1182   8
  -1 -14   8 28.4960 29.5768   9
  -1  14   7 30.5841 24.9135   8
  -1 -14   7 103.274 37.8607   9
  -1 -14   6-27.6903 32.5554   9
  -1  14   6 37.9415 31.8864   8
  -1  14   5 634.514 75.7327   8
  -1 -14   5 543.057 71.0875   9
  -1 -14   4 2017.34 132.307   9
  -1  14   4 2116.36 137.987   8
  -1 -14   3 64.6655 30.6848   9
  -1  14   3 144.692 43.4673   8
  -1 -14   2 365.955 55.7381   9
  -1  14   2 374.505 63.8990   8
  -1  14   1 129.371 41.8552   8
  -1  14   0 850.217 91.9246   8
  -1  14  -1 36.7060 26.5152   8
  -1  14  -2 16.5399 31.0832   8
  -1  14  -3 5944.45 237.312   8
   1 -14   4 6047.58 240.150   9
   1 -14   5 3372.30 178.775   9
   1 -14   6 1352.42 111.350   9
   1 -14   7 571.689 73.7516   9
   1 -14   8-1.94531 29.3034   9
   1 -14   9 1980.38 116.720   9
   1 -14  10 599.266 61.1766   9
  -1 -15   8 1684.24 89.1603   9
  -1  15   7 412.803 48.9493   8
  -1 -15   7 359.752 46.9864   9
  -1  15   6 563.939 60.6528   8
  -1 -15   6 450.501 53.8209   9
  -1 -15   5 1759.88 105.628   9
  -1  15   5 1804.70 108.351   8
  -1  15   4 114.260 32.4726   8
  -1 -15   4 120.948 37.5245   9
  -1  15   3 589.877 67.7312   8
  -1 -15   3 505.798 59.5794   9
  -1  15   2 1144.40 93.9422   8
  -1  15   1 163.562 40.9395   8
  -1  15   0 1592.87 113.019   8
  -1  15  -1 2047.24 128.812   8
   1 -15   2 182.051 44.3842   9
  -1  15  -2 86.8254 31.3769   8
   1 -15   3 70.8233 38.3175   9
   1 -15   4 26.8871 28.3447   9
   1 -15   5 1.01152 27.4079   9
   1 -15   6 633.720 69.0466   9
   1 -15   7 69.7534 26.2222   9
   1 -15   8 142.097 34.1354   9
  -1  16   4 17.7224 19.5179   8
  -1  16   3 92.1988 28.3094   8
  -1  16   2 244.124 38.8548   8
  -1  16   1 694.716 64.2889   8
   1 -16   0 1404.69 93.0932   9
   1 -16   1 2106.17 112.795   9
   1 -16   2 87.3169 32.0468   9
   1 -16   3-18.9981 21.4304   9
   1 -16   4 689.231 63.6222   9
   1 -16   5 81.7878 26.3962   9
  -2   0  19 17.5965 21.3021  11
  -2   0  18 34.7085 24.4019  11
  -2   0  18 56.7368 33.7450   9
  -2   0  17 35.7164 35.5475   9
  -2   0  17 11.1124 29.4401  11
  -2   0  16 565.527 78.5839  11
  -2   0  16 695.481 94.6665   9
  -2   0  15-3.60141 29.5491   9
  -2   0  14 207.130 50.2492   9
  -2   0  13 4.77454 33.8526   9
  -2   0  13 12.2775 39.4761   4
  -2   0  12 137.868 57.0144   4
  -2   0  11-16.1127 32.5853   4
  -2   0  10 93284.9 1061.88   4
  -2   0   9 14.9205 28.9502   4
  -2   0   8 10923.1 323.705   4
  -2   0   7 53.6262 28.8977   4
  -2   0   6 15584.3 331.803   4
   2   0  -6 16331.4 249.467   3
   2   0  -5 6.86683 11.0626   3
  -2   0   5-16.0830 25.9568   4
   2   0  -4 22102.0 201.468   3
  -2   0   4 22526.5 344.209   4
  -2   0   3 71.6723 26.8296   4
   2   0  -3 125.150 18.0854   5
  -2   0   2 22828.8 307.051   4
   2   0  -2 22785.9 178.391   5
  -2   0   1 16.3345 16.2755   4
  -2   0   0 324733. 1114.16   4
  -2   0   0 321827. 1166.58   6
  -2   0  -1 77.0290 25.8431   4
  -2   0  -1 114.260 30.3968   6
  -2   0  -1 75.1573 17.0790   3
   2   0   1 63.4162 25.7325   2
  -2   0  -2 8852.66 193.689   7
  -2   0  -2 8911.53 208.845   6
  -2   0  -2 8530.84 173.571   3
  -2   0  -3 53.3544 31.3413   7
  -2   0  -3 17.6555 25.1917   3
  -2   0  -3 61.6236 31.2499   2
  -2   0  -4 179.952 42.5474   7
  -2   0  -4 121.214 32.2756   3
  -2   0  -5 49.3085 32.1181   2
   2   0   5 44.0151 36.5756   1
  -2   0  -5 49.3515 27.5729   3
  -2   0  -6 5370.77 207.071   3
  -2   0  -7 26.8960 29.8599   3
  -2   0  -8 2602.75 166.960   3
  -2   0  -9-9.05565 36.8923   3
  -2   0 -10 57158.9 868.376   3
  -2   0 -11 14.8302 33.8456   3
  -2   0 -12 1138.70 136.692   3
  -2   0 -13 25.5382 30.2361  15
  -2   0 -14 1181.74 115.095  15
  -2   0 -15-3.14678 31.8149  15
  -2   0 -16 4640.62 219.929  15
  -2   0 -17 14.7878 41.3285  15
  -2   0 -18 5839.32 208.910  15
  -2   0 -19 2.26669 21.0495  14
  -2  -1  19 1067.83 89.2733   9
  -2  -1  19 1046.43 78.5439  11
  -2   1  19 929.867 74.1713  11
  -2   1  18 13.0613 25.7501  11
  -2  -1  18 9.47471 23.3441  11
  -2   1  18 42.8922 31.6954   9
  -2  -1  18 29.3598 32.5299   9
  -2   1  17-18.9033 28.5511  11
  -2  -1  17-0.76112 30.8355  11
  -2   1  17 15.2149 34.1015   9
  -2  -1  17-22.1931 35.5744   9
  -2  -1  16 17032.5 434.952   9
  -2   1  16 16943.1 432.713   9
  -2   1  16 16977.3 410.209  11
  -2   1  15 5734.99 258.037   9
  -2  -1  15 5545.62 253.513   9
  -2   1  15 5778.69 245.606  11
  -2  -1  14 15624.5 417.925   9
  -2   1  14 15353.3 413.920   9
  -2   1  13 3764.47 200.370   9
  -2   1  13 3398.27 234.318   4
  -2  -1  13 4047.15 206.792   9
  -2   1  12 126.919 53.4175   4
  -2  -1  11 24.9774 35.2642   4
  -2   1  11 7.41181 30.0703   4
  -2  -1  10 29.6130 27.2962   4
  -2   1  10 75.3053 43.4326   4
  -2   1   9 8370.96 310.305   4
  -2  -1   9 9399.51 305.701   4
  -2  -1   8 1399.63 110.733   4
  -2   1   8 1326.93 118.266   4
  -2  -1   7 26856.0 448.815   4
  -2   1   7 26584.5 484.022   4
  -2  -1   6 422.440 54.1390   4
  -2   1   6 456.233 64.2655   4
   2  -1  -6 550.104 51.0654   3
   2  -1  -6 370.426 50.5508   5
  -2   1   5 598.116 66.4706   4
  -2  -1   5 532.395 56.8713   4
   2  -1  -5 599.292 47.2735   3
   2  -1  -5 603.224 55.0760   5
  -2   1   4 2591.45 123.529   4
  -2  -1   4 2566.83 111.887   4
   2  -1  -4 2516.34 98.6806   5
   2  -1  -3 3135.10 98.1648   5
  -2  -1   3 3193.18 115.353   4
  -2   1   2 16213.5 275.461   4
  -2  -1   2 16131.9 245.957   4
   2  -1  -2 16108.5 199.091   5
  -2   1   1 241915. 1017.72   4
  -2  -1   1 240096. 928.768   4
   2  -1  -1 241027. 737.490   5
  -2  -1   0 932651. 1141.83   3
  -2   1   0 946102. 1989.23   4
   2  -1   1 267170. 1395.72   2
  -2   1  -1 266243. 1080.91   6
  -2  -1  -1 266276. 809.869   3
  -2  -1  -1 266378. 1096.62   6
  -2   1  -1 263421. 1060.70   4
   2  -1   2 3533.00 165.495   2
  -2  -1  -2 3494.78 132.320   6
  -2  -1  -2 3573.83 127.015   7
  -2  -1  -2 3573.07 111.876   3
  -2   1  -2 3532.68 121.744   7
  -2  -1  -3 320.925 45.2167   7
  -2   1  -3 295.420 43.2567   7
  -2  -1  -3 259.351 42.3424   6
  -2   1  -3 392.589 64.7098   2
  -2  -1  -3 244.503 37.9735   3
  -2   1  -3 293.930 41.5012   3
  -2   1  -4 23622.7 371.492   3
  -2  -1  -4 22607.4 365.082   6
  -2  -1  -4 23658.0 363.644   3
   2   1   4 24161.6 427.442   1
  -2   1  -4 25132.9 508.348   2
  -2  -1  -4 23612.0 430.799   2
  -2   1  -5 3727.67 161.268   3
  -2  -1  -5 3616.95 152.984   6
   2   1   5 4052.40 191.922   1
  -2  -1  -5 3579.38 156.364   3
  -2  -1  -6 17789.8 360.039   6
  -2   1  -6 18983.8 391.599   3
   2   1   6 17874.8 429.922   1
  -2  -1  -6 18056.7 380.073   3
  -2   1  -7 2297.07 148.051   3
  -2  -1  -7 2395.79 150.668   3
  -2  -1  -8 244.315 57.2052   3
  -2   1  -8 109.798 48.1346   3
  -2  -1  -9 5.48174 32.1070   3
  -2  -1  -9 71.6699 39.2134   6
  -2   1  -9 22.9924 33.4775   3
  -2   1 -10 16685.7 475.833   3
  -2  -1 -10 16293.7 468.393   3
  -2  -1 -11 2136.61 178.663   3
  -2  -1 -12 2961.31 217.142   3
  -2  -1 -13 578.461 81.2516  15
  -2   1 -13 506.610 76.4592  15
  -2  -1 -14 1275.98 122.289  15
  -2   1 -14 1316.58 120.047  15
  -2   1 -15 216.436 53.2709  15
  -2  -1 -15 244.111 61.1799  15
  -2   1 -16-11.2399 34.4775  15
  -2  -1 -16 20.5217 31.7857  15
  -2  -1 -17 14.1029 31.4511  15
  -2   1 -17-25.6750 28.4717  15
  -2   1 -18 695.657 75.8532  15
  -2  -1 -18 716.534 75.1521  15
  -2   1 -18 832.653 79.1589  14
  -2   1 -19 623.170 60.6835  15
  -2  -1 -19 705.002 64.4518  14
  -2  -2  19 514.105 55.7259  11
  -2   2  19 482.149 52.1106  11
  -2  -2  19 480.886 60.6162   9
  -2  -2  18 926.210 85.3741  11
  -2   2  18 1049.02 89.9588  11
  -2  -2  18 962.543 93.6463   9
  -2   2  17 1955.59 132.942  11
  -2  -2  17 2403.84 158.382   9
  -2   2  17 2125.04 147.449   9
  -2  -2  16 307.591 63.6180   9
  -2   2  16 299.416 64.6512   9
  -2   2  16 375.560 62.6735  11
  -2   2  15 47.4327 28.6513  11
  -2   2  15 60.2172 39.5688   9
  -2  -2  15 61.9864 36.7390   9
  -2   2  14 1535.13 128.684  11
  -2   2  14 1344.96 125.698   9
  -2  -2  14 1500.43 132.150   9
  -2  -2  13 344.316 65.0744   9
  -2   2  13 287.920 61.5234   9
  -2   2  13 209.196 49.8851  11
  -2   2  12 5933.39 303.930   4
  -2   2  11 239.086 66.0388   4
  -2   2  10 623.200 97.7679   4
  -2   2   9 3435.08 202.846   4
  -2  -2   9 3951.48 188.450   4
  -2  -2   8 6816.68 231.129   4
   2  -2  -8 6994.40 224.929   3
  -2   2   7 6148.85 241.982   4
  -2  -2   7 6518.17 207.810   4
   2  -2  -7 6968.09 209.426   3
   2  -2  -7 6455.73 224.707   5
  -2  -2   6 52216.3 545.479   4
   2  -2  -6 51968.2 580.860   5
  -2  -2   5 2094.96 103.445   4
  -2   2   5 1818.90 115.475   4
   2  -2  -5 2005.99 107.312   5
   2   2  -5 1824.44 139.574   1
  -2  -2   4 39417.0 403.320   4
   2  -2  -4 39095.4 428.948   5
  -2   2   4 38809.7 495.928   4
  -2  -2   3 259643. 962.229   4
   2  -2  -3 258745. 1024.07   5
  -2   2   3 256616. 1220.71   4
  -2  -2   2 847011. 1682.73   4
   2  -2  -2 845542. 1744.80   5
  -2   2   1 322404. 1079.59   6
  -2  -2   1 325302. 1019.45   4
   2  -2  -1 322146. 1053.47   5
  -2   2   0 112029. 670.837   6
   2  -2   0 111001. 619.492   5
  -2   2   0 110586. 708.557   4
  -2  -2   0 112242. 622.555   4
   2  -2   0 113176. 972.052   2
  -2  -2   0 110631. 461.552   3
   2   2   1 26829.3 298.344   2
  -2   2  -1 25108.9 336.364   4
  -2  -2  -1 25310.7 274.700   3
  -2  -2  -1 26691.1 328.188   7
   2  -2   1 26415.7 471.322   2
  -2  -2  -2 532.796 53.4345   7
  -2   2  -2 578.623 50.1170   7
  -2  -2  -2 491.833 45.2309   3
  -2   2  -2 568.582 54.0183   4
   2  -2   2 453.766 66.9347   2
  -2  -2  -3 3585.81 141.253   7
  -2  -2  -3 3485.58 137.225   6
   2   2   3 4010.77 140.030   1
  -2  -2  -3 3337.44 126.645   3
  -2   2  -3 3567.56 129.102   7
  -2   2  -3 3668.54 190.537   2
  -2  -2  -4 5808.19 184.003   3
  -2  -2  -4 5942.58 186.108   6
  -2  -2  -4 6235.71 199.375   2
  -2  -2  -5 72412.1 752.041   2
  -2  -2  -5 73410.8 677.176   6
  -2  -2  -5 73243.2 713.078   3
  -2  -2  -6 6352.55 229.422   3
  -2  -2  -6 5742.94 200.161   6
  -2  -2  -7 35306.7 519.699   6
  -2  -2  -7 36122.0 590.960   3
  -2  -2  -8 3424.84 170.468   6
  -2  -2  -8 3504.98 197.996   3
  -2  -2  -9 418.343 77.6888   3
  -2  -2 -10 884.318 112.266   3
  -2  -2 -11 12267.3 429.112   3
  -2   2 -12 8161.82 282.484  16
  -2  -2 -12 8337.96 291.406  15
  -2   2 -12 8167.50 285.919  15
  -2   2 -13 16418.0 416.789  16
  -2  -2 -13 16710.6 424.305  15
  -2   2 -13 16659.4 421.227  15
  -2  -2 -14 12408.3 370.339  15
  -2   2 -14 12574.5 372.656  15
  -2  -2 -15 1406.35 127.348  15
  -2   2 -15 1478.97 130.291  15
  -2   2 -16 4161.73 206.088  15
  -2  -2 -16 3939.62 202.246  15
  -2  -2 -17 100.494 33.2365  15
  -2   2 -17 161.848 46.6518  15
  -2   2 -18 3.00286 26.6073  15
  -2   2 -19 1356.81 85.4798  15
  -2  -2 -19 1298.82 85.3333  14
  -2  -3  19 1634.82 104.817   9
  -2   3  19 1551.50 88.9815  11
  -2  -3  19 1487.64 89.9674  11
  -2  -3  18 159.519 38.0579  11
  -2  -3  18 90.2947 39.7991   9
  -2   3  18 148.669 38.1105  11
  -2  -3  17 1555.74 127.402   9
  -2   3  17 1678.61 121.238  11
  -2   3  16 109.142 43.6812  11
  -2  -3  16 130.978 43.3040   9
  -2   3  15 2571.02 171.216   9
  -2  -3  15 2704.63 176.687   9
  -2   3  15 2696.31 167.114  11
  -2   3  14 11522.5 359.812   9
  -2  -3  14 11419.3 357.588   9
  -2   3  14 11343.4 342.516  11
  -2   3  13 13761.8 370.335  11
  -2  -3  13 14354.9 390.223   9
  -2   3  13 14076.0 389.402   9
  -2   3  12 1177.65 145.256   4
  -2   3  11 4997.00 275.483   4
  -2   3  10 796.873 107.322   4
  -2   3   9 3252.85 202.603   4
   2  -3  -9 3431.30 178.997   3
   2  -3  -8 258.756 53.7462   3
  -2   3   8 151.874 44.4448   4
   2  -3  -8 203.144 51.1683   5
  -2   3   7 12559.0 353.939   4
   2  -3  -7 11962.9 320.203   5
  -2   3   6 1002.21 97.4621   4
   2  -3  -6 971.627 88.8338   5
  -2   3   5 1223.33 99.5640   4
   2   3  -5 1345.79 118.026   1
  -2  -3   5 1285.54 75.3188   4
   2   3  -4 69.4180 40.6252   1
   2  -3  -4 37.5284 21.1684   5
  -2  -3   4 45.3306 17.5941   4
  -2   3   4 75.2119 33.3925   4
  -2   3   3 5225.94 183.130   4
   2  -3  -3 5134.30 162.993   5
   2   3  -3 5613.54 198.125   1
  -2  -3   3 5355.72 127.673   4
   2   3  -2 182100. 975.720   1
  -2   3   2 178086. 1006.81   4
   2  -3  -2 180094. 925.993   5
  -2  -3   2 178922. 719.716   4
  -2   3   2 183511. 747.463   6
   2   3  -1 15.1618 18.0473   1
  -2   3   1 26.5460 15.0061   6
  -2  -3   1 64.1160 17.9129   4
   2  -3  -1 23.7863 22.2868   5
  -2   3   0 3483.37 133.664   4
  -2  -3   0 3455.76 77.1351   5
   2  -3   0 3524.20 184.142   2
   2  -3   0 3525.73 129.175   5
   2   3   0 3421.68 86.9271   2
  -2  -3  -1 543.855 50.3282   7
  -2   3  -1 458.714 50.0407   4
  -2  -3  -1 444.483 34.9179   5
   2  -3   1 467.464 71.3816   2
  -2  -3  -2 19545.5 312.343   7
  -2   3  -2 19839.2 275.154   7
  -2   3  -2 19087.3 312.093   4
  -2  -3  -3 201.720 42.2209   7
  -2   3  -3 223.617 37.8032   7
  -2  -3  -3 131.428 29.9274   3
  -2  -3  -4 33210.4 462.733   3
  -2  -3  -5 13404.9 288.986   6
  -2  -3  -5 13469.8 319.491   3
  -2  -3  -6 59588.6 631.969   6
  -2  -3  -6 60257.9 727.225   3
  -2  -3  -7 18656.6 434.068   3
  -2  -3  -8 17697.3 450.033   3
  -2  -3  -9 43302.5 747.475   3
  -2  -3 -10 12.6378 34.9475   3
  -2  -3 -11 4149.23 254.064   3
  -2   3 -12 20017.2 451.103  15
  -2   3 -12 19712.5 448.085  16
  -2  -3 -12 20250.0 457.040  15
  -2   3 -13 10380.4 336.050  16
  -2  -3 -13 10338.2 335.445  15
  -2   3 -13 10692.3 339.105  15
  -2  -3 -14 646.720 87.0933  15
  -2   3 -14 722.606 94.2175  15
  -2   3 -15 45.8357 35.0530  15
  -2  -3 -15 85.9915 44.0508  15
  -2   3 -16 196.292 55.9418  15
  -2   3 -17 688.198 78.7517  15
  -2   3 -18 66.2886 30.8768  15
  -2  -3 -18 86.4889 36.1256  14
  -2  -3 -19 383.027 46.3827  14
  -2   3 -19 309.054 40.0398  15
  -2  -4  19 301.484 41.8369  11
  -2  -4  19 277.766 45.1348   9
  -2   4  19 305.492 39.3642  11
  -2  -4  18 523.341 70.3399   9
  -2   4  18 625.572 67.0093  11
  -2   4  17 1117.29 97.0464  11
  -2  -4  17 1043.54 104.419   9
  -2   4  16 62.5385 31.1916  11
  -2  -4  16 52.7138 39.6974   9
  -2  -4  15 2452.81 168.282   9
  -2   4  15 2415.03 158.268  11
  -2   4  14 4831.88 224.563  11
  -2  -4  14 4919.89 236.079   9
  -2   4  13 43.5383 29.8170  11
  -2   4  13 31.4311 28.1528   9
  -2  -4  13 83.2010 40.4895   9
  -2  -4  12 370.456 59.6991  13
  -2   4  12 389.540 66.6261   9
  -2  -4  12 317.287 63.5442   9
  -2   4  12 354.521 61.4739  11
  -2   4  11 6271.06 313.461   4
  -2   4  10 8711.30 355.189   4
   2  -4  -9 22961.6 487.799   3
   2  -4  -9 22305.8 518.827   5
  -2   4   8 11472.6 367.976   4
   2  -4  -8 11540.3 329.215   3
   2  -4  -8 11002.4 343.697   5
  -2   4   7 27935.4 541.422   4
   2  -4  -7 27876.4 521.589   5
   2  -4  -6 104.093 42.5659   5
  -2   4   6 83.0472 41.4590   4
  -2   4   5 3824.36 180.340   4
   2  -4  -5 3660.62 169.622   5
  -2   4   4 29485.8 475.146   4
   2  -4  -4 31067.6 463.008   5
  -2   4   3 63743.4 663.019   4
   2  -4  -3 64946.9 638.656   5
  -2   4   2 15513.8 310.127   4
   2  -4  -2 15759.0 306.931   5
   2  -4  -1 85149.9 697.825   5
  -2   4   1 85078.1 696.089   4
  -2   4   1 87149.9 577.240   6
   2  -4  -1 85059.7 958.044   2
  -2  -4   0 61157.3 501.739   7
  -2   4   0 59721.1 567.223   4
   2  -4   0 60392.0 590.627   5
   2  -4   1 4437.91 163.171   5
  -2  -4  -1 4714.78 146.692   7
  -2  -4  -1 4595.20 125.836   5
  -2   4  -1 4202.87 148.147   4
  -2  -4  -2 14593.5 278.819   7
  -2   4  -2 14331.1 276.462   4
  -2  -4  -2 14662.6 249.596   5
  -2  -4  -3 420.292 48.9977   5
  -2  -4  -4 1177.82 95.5313   3
  -2  -4  -5 13457.1 339.909   3
  -2  -4  -6 171264. 1283.39   3
  -2  -4  -7 18922.7 454.382   3
  -2  -4  -8 3270.55 200.346   3
  -2  -4  -9 756.566 103.942   3
  -2  -4 -10 234.160 64.7913   3
  -2  -4 -11 8794.68 372.413   3
  -2   4 -12 29.9325 32.2244  16
  -2  -4 -12-0.30733 33.4268  15
  -2   4 -13 53761.8 771.778  16
  -2  -4 -13 55924.4 786.015  15
  -2   4 -13 54452.9 772.932  15
  -2   4 -14 322.028 67.5763  16
  -2  -4 -14 214.068 53.9921  15
  -2   4 -14 186.366 50.6238  15
  -2   4 -15 8149.86 294.053  15
  -2   4 -16 74.1693 39.3888  15
  -2   4 -17 1516.22 113.556  15
  -2  -4 -18 27.2188 24.1552  14
  -2   4 -18 38.5569 29.2253  15
  -2  -5  19 262.495 41.7734   9
  -2   5  18 421.117 53.3490  11
  -2  -5  18 446.798 60.0372   9
  -2  -5  17 4180.98 195.018   9
  -2   5  17 4505.31 185.754  11
  -2  -5  16 3432.89 188.717   9
  -2   5  16 3443.15 176.644  11
  -2  -5  15 2948.68 180.835   9
  -2   5  15 2991.40 175.003  11
  -2  -5  14 5442.93 248.610   9
  -2   5  14 5894.90 248.248  11
  -2  -5  13 9800.38 330.179   9
  -2   5  13 9290.01 310.151  11
  -2   5  12 543.687 75.6257  11
  -2  -5  12 405.760 66.9852   9
  -2  -5  12 448.471 64.1451  13
  -2   5  11 6582.87 320.709   4
  -2   5  10 6584.55 310.350   4
   2  -5  -9 2340.66 166.742   3
   2  -5  -9 2167.22 168.785   5
  -2   5   9 2126.13 172.339   4
   2  -5  -8 18305.6 465.180   5
  -2   5   8 17144.3 458.877   4
  -2   5   7 7662.49 292.472   4
   2  -5  -7 7706.83 288.344   5
  -2   5   6 29571.8 548.109   4
   2  -5  -6 29136.5 537.242   5
   2  -5  -5 397.965 63.6222   5
  -2   5   5 512.535 71.9673   4
   2  -5  -4 336.560 58.3543   5
  -2   5   4 330.556 56.8544   4
  -2   5   3 979.700 87.6878   4
   2  -5  -3 809.012 81.2497   5
  -2   5   2 36419.5 491.976   4
   2  -5  -2 36770.8 520.243   5
   2  -5  -1 41046.9 538.290   5
  -2   5   1 40063.0 497.939   4
  -2  -5   0 992.606 65.6110   7
  -2   5   0 985.344 77.5160   4
   2  -5   0 925.255 83.6990   5
  -2  -5  -1 8500.91 202.466   7
   2  -5   1 8002.89 242.365   5
  -2   5  -1 8032.10 213.596   4
  -2  -5  -1 8052.96 192.621   5
   2  -5   2 16804.9 354.576   5
  -2  -5  -2 16723.9 298.094   5
  -2   5  -2 16099.7 300.211   4
  -2  -5  -3 28062.7 413.732   5
  -2  -5  -4 16.0890 22.9204   5
  -2  -5  -5 6332.24 243.702   3
  -2  -5  -6 2078.33 151.039   3
  -2  -5  -7 14.9642 32.2215   3
  -2  -5  -8 4090.15 231.890   3
  -2  -5  -9 10402.2 384.066   3
  -2  -5 -10 133.547 66.1380   3
  -2   5 -11 1941.71 140.725  16
  -2   5 -12 2764.44 173.317  16
  -2   5 -13 79.2259 44.1773  16
  -2   5 -14 234.829 61.6447  15
  -2   5 -14 179.417 62.9888  16
  -2   5 -15 1302.22 117.415  15
  -2   5 -16 1130.23 103.522  15
  -2   5 -17 3896.47 173.536  15
  -2  -5 -17 3953.72 175.465  14
  -2   5 -18 13.0771 21.8046  15
  -2  -5 -18 3.99009 18.3182  14
  -2   6  18 55.7152 22.5744  11
  -2  -6  18 76.5754 31.2159   9
  -2   6  17 434.178 57.7919  11
  -2  -6  17 337.472 59.5796   9
  -2  -6  16 1644.66 128.426   9
  -2   6  16 1817.97 126.951  11
  -2  -6  15 4332.86 215.361   9
  -2   6  15 4031.95 197.883  11
  -2  -6  14 6242.79 264.100   9
  -2   6  14 5955.90 246.984  11
  -2  -6  13 13592.4 391.284   9
  -2   6  13 13483.3 374.175  11
  -2   6  12 17712.8 424.743  11
  -2  -6  12 18616.1 448.138   9
  -2  -6  11 605.380 82.0659   9
  -2   6  11 634.061 78.7602  11
   2  -6 -10-33.1809 39.4677   5
  -2   6  10 29.9836 39.0245   4
   2  -6  -9 11227.9 378.262   3
  -2   6   9 11234.0 398.022   4
   2  -6  -9 11264.4 398.979   5
   2  -6  -8-4.10068 29.9069   5
  -2   6   8 4.05470 34.5507   4
  -2   6   7 16720.2 445.830   4
   2  -6  -7 16393.7 446.955   5
  -2   6   6 2413.01 161.956   4
   2  -6  -6 2208.27 159.472   5
  -2   6   5 9317.98 304.526   4
   2  -6  -5 8571.05 297.229   5
  -2   6   4 41545.0 605.466   4
   2  -6  -4 40788.4 625.969   5
   2  -6  -3 649.231 81.0490   5
  -2   6   3 608.627 70.8876   4
  -2   6   2 62585.8 674.969   4
   2  -6  -2 64453.7 748.090   5
  -2   6   1 100172. 817.384   4
   2  -6  -1 101477. 931.338   5
  -2   6   0 95.4502 29.1236   4
   2  -6   0 67.4236 34.3709   5
   2  -6   1 8288.02 268.632   5
   2  -6   2 167.145 43.5402   5
   2  -6   3 2169.13 143.868   5
  -2  -6  -3 2260.79 129.850   5
  -2  -6  -4 1416.90 110.482   5
  -2  -6  -5 1744.09 131.415   5
  -2  -6  -6 1482.17 132.714   3
  -2  -6  -7 494.296 83.1861   3
  -2  -6  -8 1631.94 151.710   3
  -2  -6  -9 1108.29 131.057   3
  -2   6 -10 240.549 55.5831  16
  -2   6 -11 2268.48 154.775  16
  -2   6 -12 12087.3 362.646  16
  -2   6 -13 2422.80 165.784  16
  -2   6 -14 328.087 65.6168  15
  -2   6 -14 198.013 55.6292  16
  -2   6 -15 91.8624 40.1254  15
  -2   6 -16 772.048 84.9208  15
  -2  -6 -16 737.191 80.7949  14
  -2   6 -17 61.0785 30.4096  15
  -2  -6 -17 49.9953 27.3527  14
  -2   6 -18 498.928 50.5635  15
  -2  -7  18 516.098 55.0349   9
  -2  -7  17 149.479 38.0065   9
  -2   7  17 157.726 35.2504  11
  -2   7  16 5879.26 211.873  11
  -2  -7  16 5750.57 225.993   9
  -2  -7  15 1973.94 142.573   9
  -2   7  15 1818.79 130.505  11
  -2  -7  14 4819.98 229.841   9
  -2   7  14 4912.47 220.223  11
  -2  -7  13 2852.21 179.306   9
  -2   7  13 2765.84 171.564  11
  -2  -7  12 1579.54 135.051   9
  -2   7  12 1460.44 126.388  11
  -2   7  11 596.416 82.3474  11
  -2  -7  11 645.146 86.5731   9
  -2  -7  10 3651.31 190.845   9
  -2   7  10 3223.31 177.655  11
  -2   7   9 21348.1 557.832   4
   2  -7  -9 20892.0 559.516   5
   2  -7  -8 46100.4 814.415   5
  -2   7   8 47382.5 803.831   4
  -2   7   7 16259.9 454.627   4
   2  -7  -7 15551.3 458.599   5
   2  -7  -6 1904.35 157.506   5
  -2   7   6 1985.73 152.358   4
  -2   7   5 11474.2 344.321   4
   2  -7  -5 10890.3 356.889   5
  -2   7   4 14775.2 373.388   4
   2  -7  -4 14274.0 396.271   5
  -2   7   3-32.2135 26.7304   4
   2  -7  -3 58.8661 35.5654   5
   2  -7  -2 28939.7 538.245   5
   2  -7  -1 14838.9 386.303   5
   2  -7   0 49370.6 703.954   5
   2  -7   1 16324.7 406.832   5
   2  -7   2 1869.00 138.756   5
   2  -7   3 7240.34 283.048   5
   2  -7   4 1213.11 119.509   5
   2  -7   5 4401.51 231.118   5
  -2  -7  -6 19985.1 508.196   3
  -2  -7  -7 13895.0 442.681   3
  -2  -7  -8 4950.69 271.837   3
  -2   7  -9 6014.64 237.526  16
   2  -7   9 6097.78 234.211   9
  -2   7 -10 1897.09 138.423  16
   2  -7  10 1910.36 135.218   9
   2  -7  11 349.400 64.0414   9
  -2   7 -11 387.247 68.5036  16
   2  -7  12 1700.83 129.103   9
  -2   7 -12 1338.87 123.923  16
   2  -7  13 975.012 97.3082   9
  -2   7 -13 1070.04 111.489  16
  -2   7 -14-54.8504 48.0049  15
  -2   7 -14-45.5217 44.6088  16
  -2  -7 -15 549.605 69.6227  14
  -2   7 -15 486.755 73.0398  15
  -2  -7 -16 32.7320 19.5695  14
  -2   7 -16 30.9665 26.1717  15
  -2   7 -17 1455.39 93.3355  15
  -2  -7 -17 1213.17 73.4871  14
  -2  -8  17-28.7189 28.4247   9
  -2   8  16 248.241 44.1664  11
  -2  -8  16 270.747 53.8535   9
  -2   8  15 179.954 46.4849  11
  -2  -8  15 203.286 47.7689   9
  -2   8  14 1059.92 100.975  11
  -2  -8  14 1119.76 109.441   9
  -2   8  13 361.011 67.8584  11
  -2  -8  13 325.604 59.3269   9
  -2  -8  12 43.1381 33.4681   9
  -2   8  12 97.6044 40.7385  11
  -2  -8  11 465.756 72.0201   9
  -2   8  11 481.263 74.7104  11
  -2  -8  10 14047.0 381.361   9
  -2   8  10 13669.0 375.930  11
  -2  -8   9 2426.85 157.464   9
  -2   8   9 2310.84 151.853  11
   2  -8  -8 2406.09 192.930   5
   2  -8  -7 5101.40 274.738   5
   2  -8  -6 15877.0 469.835   5
   2  -8  -5 2399.33 178.665   5
   2  -8  -4 8653.77 329.593   5
   2  -8  -3 4121.18 223.983   5
   2  -8  -2 1865.23 148.914   5
   2  -8  -1 11699.1 369.784   5
   2  -8   0 29099.0 582.195   5
   2  -8   1 992.428 110.577   5
   2  -8   2 9043.35 328.660   5
   2  -8   3 54.1703 40.6300   5
   2  -8   4 7000.99 300.638   5
   2  -8   5 28.3642 48.4435   5
   2  -8   6 3335.10 216.465   5
  -2  -8  -6 3165.44 212.835   3
  -2  -8  -7 7692.80 342.213   3
   2  -8   7 7837.83 336.573   5
  -2   8  -8 617.980 79.1355  16
   2  -8   8 595.701 77.6897   9
   2  -8   9 2793.40 166.375   9
  -2   8  -9 2542.52 158.311  16
  -2   8 -10 838.912 95.4806  16
   2  -8  10 848.244 94.8350   9
  -2   8 -11 8.35884 31.0739  16
   2  -8  11 136.456 51.3147   9
   2  -8  12 2906.73 170.565   9
  -2   8 -12 2685.30 170.781  16
  -2   8 -13 1307.98 119.145  16
   2  -8  13 1440.82 115.262   9
   2  -8  14 436.676 60.2663   9
  -2   8 -14 432.661 68.2222  16
  -2   8 -14 498.151 71.9335  15
  -2   8 -15 1902.08 127.194  15
  -2   8 -16 2384.25 124.742  15
  -2   8 -17 648.291 56.1498  15
  -2  -9  17 0.38941 17.3795   9
  -2  -9  16 2062.19 115.924   9
  -2  -9  15 895.532 86.1174   9
  -2  -9  14 544.180 76.7648   9
  -2   9  14 571.330 73.2117  11
  -2  -9  13 2409.08 157.454   9
  -2   9  13 2346.50 150.110  11
  -2   9  12 112.519 40.6564  11
  -2  -9  12 43.9464 34.1456   9
  -2   9  11 68.4221 39.6895  11
  -2  -9  11 97.5496 38.5516   9
  -2   9  10 238.519 54.5015  11
  -2  -9  10 355.310 62.5205   9
  -2  -9   9 9243.21 309.147   9
  -2   9   9 8986.67 306.287  11
  -2   9   8 64.2855 32.6435  11
  -2  -9   8 37.6697 29.3246   9
  -2   9   7 92.6270 40.7224  11
  -2  -9   7 64.8181 24.6450   9
   2  -9  -6 172.111 65.2274   5
   2  -9  -5 4091.73 247.265   5
   2  -9  -4 4805.70 259.183   5
   2  -9  -3 3485.82 216.715   5
   2  -9  -2 8864.06 341.962   5
   2  -9  -1 2757.80 191.988   5
   2  -9   0 69800.7 959.594   5
   2  -9   1-3.63161 46.8747   5
   2  -9   2 12186.7 401.700   5
   2  -9   3 2127.96 173.723   5
   2  -9   4 23483.4 575.007   5
   2  -9   5 13860.3 451.837   5
  -2  -9  -6 33500.4 709.950   3
  -2   9  -6 31542.9 527.488  16
  -2   9  -6 32592.7 560.758   8
  -2   9  -7 2178.76 144.067  16
   2  -9   7 2328.40 151.796   9
   2  -9   8 5447.80 236.175   9
  -2   9  -8 5416.05 227.556  16
  -2   9  -9 559.222 78.0101  16
   2  -9   9 569.261 81.5682   9
  -2   9 -10 23447.7 486.698  16
   2  -9  10 23555.1 490.795   9
  -2   9 -11 413.919 72.3511  16
   2  -9  11 432.731 71.9951   9
  -2   9 -12 4018.97 200.243  16
   2  -9  12 4204.49 198.179   9
   2  -9  13-15.5110 32.7924   9
  -2   9 -13-27.9778 39.2325  16
   2  -9  14 2605.71 135.256   9
  -2   9 -14 2826.23 155.045  15
  -2   9 -15 30.8515 29.7754  15
  -2   9 -16 111.497 27.8964  15
  -2 -10  16 2126.62 100.094   9
  -2  10  15 329.326 46.8871   8
  -2 -10  15 369.401 51.8395   9
  -2  10  14 213.814 45.9600   8
  -2 -10  14 106.469 40.2001   9
  -2 -10  13 74.8677 38.4827   9
  -2 -10  12 1275.96 114.587   9
  -2 -10  11 42.8334 33.0173   9
  -2 -10  10 249.995 59.6000   9
  -2 -10   9 102.909 38.9435   9
  -2 -10   8 1107.19 108.817   9
  -2 -10   7 4219.99 204.334   9
  -2  10   7 3901.41 203.475   8
  -2  10   6 77.6777 46.6457   8
  -2 -10   6 45.2134 36.2649   9
  -2  10   5 72.4381 32.3072   8
  -2  10   4 4159.59 199.241   8
   2 -10  -3 4478.05 258.854   5
   2 -10  -2 64.9006 46.6183   5
   2 -10  -1 2820.32 204.458   5
   2 -10   0 319.084 73.6531   5
   2 -10   1 889.956 122.078   5
   2 -10   2 206.059 72.9727   5
  -2  10  -3 67.4595 37.4717   8
  -2  10  -4 26773.7 478.379  16
  -2  10  -4 28786.3 530.856   8
  -2  10  -5 22944.7 452.674  16
  -2  10  -5 23992.4 493.681   8
  -2  10  -6 5303.69 220.375  16
  -2  10  -6 5263.68 235.784   8
   2 -10   7 788.781 97.3428   9
  -2  10  -7 771.980 88.5314  16
   2 -10   8 17826.4 432.783   9
  -2  10  -8 17466.6 407.982  16
   2 -10   9 97.8024 39.3343   9
  -2  10  -9 81.0684 43.4803  16
   2 -10  10 588.155 81.5784   9
  -2  10 -10 561.349 77.5349  16
   2 -10  11 351.511 62.7981   9
  -2  10 -11 290.256 55.4648  16
   2 -10  12 1497.47 114.283   9
  -2  10 -12 1428.32 113.379  16
  -2  10 -13 4729.28 190.724  16
   2 -10  13 4755.01 186.059   9
  -2  10 -14 265.588 47.8267  15
   2 -10  14 200.980 39.0330   9
  -2  10 -15 852.307 69.8523  15
  -2 -11  14 2969.65 133.695   9
  -2  11  14 2848.41 127.511   8
  -2 -11  13 1122.97 92.4953   9
  -2  11  13 1189.43 91.9822   8
  -2  11  12 51.6036 33.0359   8
  -2 -11  12 34.0100 30.8173   9
  -2  11  11 64.2642 30.5102   8
  -2 -11  11 36.6828 30.5627   9
  -2  11  10 274.859 56.0062   8
  -2 -11  10 355.080 58.4979   9
  -2 -11   9 2939.40 172.317   9
  -2  11   9 2877.41 172.701   8
  -2 -11   8 973.322 101.033   9
  -2  11   8 972.810 103.828   8
  -2 -11   7 865.044 95.4319   9
  -2  11   7 857.626 98.7744   8
  -2 -11   6 1882.60 135.243   9
  -2  11   6 1659.26 134.358   8
  -2  11   5 151.921 47.7547   8
  -2  11   4 1513.89 127.007   8
  -2  11   3 59.5252 26.2870   8
  -2  11   2 3776.49 195.751   8
  -2  11   1 18.8941 30.8618   8
  -2  11   0 300.589 58.1594   8
  -2  11  -1 8447.61 294.456   8
  -2  11  -2 6371.05 256.981   8
  -2  11  -3 20282.9 460.822   8
  -2  11  -4 5475.17 241.355   8
  -2  11  -5 68.5672 40.3930   8
   2 -11   6 5375.20 238.933   9
  -2  11-710 0.00000 97.8554  16
   2 -11   7 991.515 108.045   9
  -2  11  -8 3093.17 166.760  16
   2 -11   8 2775.27 170.954   9
   2 -11   9 3228.59 179.702   9
  -2  11  -9 3327.74 171.389  16
  -2  11 -10 48.2094 36.4580  16
   2 -11  10 33.5096 31.5334   9
   2 -11  11-17.7041 32.6948   9
  -2  11 -11 1.81155 25.2325  16
  -2  11 -12 1347.10 97.0577  16
   2 -11  12 1141.96 93.5106   9
   2 -11  13 133.155 34.0788   9
  -2  11 -14 629.175 58.9833  15
  -2 -12  13 1716.32 97.1602   9
  -2  12  13 2019.22 103.430   8
  -2 -12  12 3054.84 143.215   9
  -2  12  12 3169.06 143.882   8
  -2  12  11-13.6097 27.6126   8
  -2 -12  11 3.02101 26.1913   9
  -2  12  10 103.733 35.7518   8
  -2 -12  10 116.780 38.7217   9
  -2 -12   9 8438.23 273.909   9
  -2  12   9 8671.60 282.167   8
  -2  12   8 1003.71 99.9982   8
  -2 -12   8 1042.86 99.0430   9
  -2  12   7 15704.4 398.617   8
  -2 -12   7 16521.4 393.196   9
  -2  12   6 5293.58 233.526   8
  -2 -12   6 5592.87 227.899   9
  -2  12   5 1805.52 140.269   8
  -2  12   4 367.284 68.6571   8
  -2  12   3 305.007 64.1081   8
  -2  12   2 524.136 77.4967   8
  -2  12   1 2049.85 149.077   8
  -2  12   0 880.886 99.6433   8
  -2  12  -1 218.227 57.0822   8
  -2  12  -2 2777.30 174.912   8
  -2  12  -3 63.6098 44.5244   8
  -2  12  -4 96.0913 48.2948   8
  -2  12  -5 1264.12 119.959   8
   2 -12   6 1656.76 133.777   9
   2 -12   7 5160.20 229.560   9
   2 -12   8 1346.56 116.510   9
   2 -12   9 328.596 58.3991   9
   2 -12  10 316.211 54.9079   9
   2 -12  11 2037.40 120.408   9
   2 -12  12 80.3580 26.8566   9
  -2  12 -13 1852.64 95.9813  15
  -2  13  12 752.291 59.2391   8
  -2 -13  11 643.103 62.1777   9
  -2  13  11 763.039 68.7196   8
  -2 -13  10 3279.03 145.089   9
  -2  13  10 3531.66 156.706   8
  -2 -13   9 1463.48 105.132   9
  -2  13   9 1425.42 107.885   8
  -2  13   8 3391.22 169.175   8
  -2 -13   8 2944.78 151.378   9
  -2 -13   7 9677.65 278.114   9
  -2  13   7 10024.3 299.449   8
  -2  13   6 6812.27 253.382   8
  -2  13   5 2368.68 152.767   8
  -2  13   4 1769.09 133.681   8
  -2  13   3 746.228 89.7956   8
  -2  13   2 84.1330 41.6481   8
  -2  13   1 2357.24 159.144   8
  -2  13   0-17.8053 33.9665   8
  -2  13  -1 2661.78 167.807   8
  -2  13  -2 274.108 58.6411   8
  -2  13  -3 2918.93 173.892   8
  -2  13  -4 2651.46 165.722   8
   2 -13   5 195.114 55.0573   9
   2 -13   6 1316.94 114.993   9
   2 -13   7 991.007 100.026   9
   2 -13   8 390.069 60.4121   9
   2 -13   9 1609.56 110.563   9
   2 -13  10 277.096 47.5277   9
   2 -13  11 439.332 51.3155   9
  -2  14  10 9.45166 22.4465   8
  -2  14   9 152.740 36.2320   8
  -2  14   8 176.630 40.3832   8
  -2  14   7 4845.97 189.843   8
  -2  14   6-6.28263 27.4013   8
  -2  14   5 302.672 58.8342   8
  -2  14   4 3706.00 181.442   8
  -2  14   3 5021.79 214.191   8
  -2  14   2 33.2710 29.7442   8
  -2  14   1 1628.41 125.375   8
  -2  14   0 68.2927 42.4840   8
  -2  14  -1 14.2264 28.2913   8
  -2  14  -2 672.961 82.5975   8
  -2  14  -3 1010.53 99.6359   8
   2 -14   4 170.623 50.1983   9
   2 -14   5 2168.04 136.658   9
   2 -14   6 2787.56 150.231   9
   2 -14   7 1958.88 121.536   9
   2 -14   8 655.780 67.8703   9
   2 -14   9 536.098 57.4060   9
  -2  15   8 1451.74 80.3574   8
  -2  15   7 189.403 37.6399   8
  -2  15   6 1524.57 95.8815   8
  -2  15   5 636.048 66.5926   8
  -2  15   4 338.049 52.1141   8
  -2  15   3 2954.47 147.821   8
  -2  15   2 773.840 78.2980   8
  -2  15   1 730.191 77.9040   8
  -2  15   0 230.007 51.3562   8
  -2  15  -1 84.8670 33.5007   8
   2 -15   2 2882.97 148.866   9
  -2  15  -2 2685.29 143.647   8
   2 -15   3 1382.87 102.949   9
   2 -15   4 2061.48 121.778   9
   2 -15   5 32.8087 30.8562   9
   2 -15   6 4000.07 153.657   9
   2 -15   7 30.9402 21.3603   9
  -2  16   4 1325.85 78.1644   8
  -2  16   3 26.0350 22.7862   8
  -2  16   2 213.768 38.2600   8
  -2  16   1 525.950 57.1183   8
   2 -16   0 11.6863 19.8480   9
   2 -16   1-4.78831 22.0503   9
   2 -16   2 2499.15 115.508   9
   2 -16   3 28.2242 21.6569   9
   2 -16   4-20.6262 21.0812   9
  -3   0  19 1373.95 89.9208  11
  -3   0  18 45.0818 28.7003  11
  -3   0  18-13.7600 32.0069   9
  -3   0  17 4650.28 205.712  11
  -3   0  17 4766.05 214.708   9
  -3   0  16 31.6575 34.2080  11
  -3   0  16 41.8098 39.4413   9
  -3   0  15 11122.3 353.065   9
  -3   0  14-14.6305 32.2437   9
  -3   0  13 29512.4 563.763   9
  -3   0  12-157.381 54.9919   4
  -3   0  11 15560.7 467.888   4
  -3   0  10 23.1617 34.2151   4
  -3   0   9 12144.0 381.583   4
  -3   0   8 9.38914 31.0087   4
  -3   0   7 8856.07 295.310   4
  -3   0   6 42.2092 35.4186   4
  -3   0   5 12208.9 312.214   4
  -3   0   4-3.24911 24.6625   4
  -3   0   3 133172. 943.882   4
  -3   0   2 3.12716 24.3227   4
  -3   0   1 140773. 932.314   4
   3   0   0-0.08987 17.8227   2
  -3   0   0-32.8045 28.8648   4
   3   0   1 35647.4 571.020   2
  -3   0  -1 35119.0 500.599   6
  -3   0  -1 35092.2 475.666   4
  -3   0  -2 14.7640 25.5084   7
  -3   0  -2 25.9519 24.6185   6
  -3   0  -3 27067.0 437.705   7
  -3   0  -3 26523.7 453.082   6
  -3   0  -3 26949.8 388.121   3
  -3   0  -4 41.7821 43.7475   7
  -3   0  -4-15.3038 35.1116   6
  -3   0  -4 46.5376 26.8861   3
  -3   0  -5 6836.63 232.910   3
  -3   0  -5 7032.63 256.942   6
  -3   0  -6 13.4409 29.5007   6
  -3   0  -6 1.68919 25.5778   3
  -3   0  -7 10159.7 327.565   3
  -3   0  -7 9656.42 325.750   6
  -3   0  -8 145.957 47.9384   6
  -3   0  -8 33.3477 34.1802   3
  -3   0  -9 74832.9 994.129   3
  -3   0  -9 68861.1 941.861   6
  -3   0 -10 36.4018 38.5025   6
  -3   0 -10 68.5266 53.0097   3
  -3   0 -11 13345.4 432.697   6
  -3   0 -12-18.2620 40.1289  15
  -3   0 -13 34762.1 605.861  15
  -3   0 -14 58.5148 31.7666  15
  -3   0 -15 9369.39 306.417  15
  -3   0 -16 12.0045 27.0548  15
  -3   0 -16-21.1671 37.9845  14
  -3   0 -17 8139.55 252.692  14
  -3   0 -17 7572.48 236.637  15
  -3   0 -18 61.2609 28.7793  14
  -3  -1  19 1711.48 99.4694  11
  -3   1  19 1630.30 96.2986  11
  -3  -1  18 2799.82 145.979  11
  -3  -1  18 2799.66 151.165   9
  -3   1  18 2888.87 147.173  11
  -3   1  17-3.99863 32.8828  11
  -3  -1  17 13.5403 34.8384  11
  -3   1  17 50.4854 38.0443   9
  -3  -1  17 3.59350 30.4491   9
  -3   1  16 256.551 56.6167  11
  -3  -1  16 287.624 65.6862   9
  -3   1  16 337.144 70.1381   9
  -3   1  15 680.727 90.1619  11
  -3  -1  15 624.048 88.1355   9
  -3   1  15 588.189 85.4124   9
  -3   1  14-4.76645 43.7978  11
  -3  -1  14 14.8668 32.2677   9
  -3   1  14 37.5430 28.2036   9
  -3  -1  13-34.5386 39.1011   9
  -3   1  13 37.7295 34.9034   9
  -3   1  12 1717.21 165.401   4
  -3   1  11 2555.54 196.245   4
  -3   1  10 131.616 46.9173   4
  -3  -1  10 99.9194 40.1020   4
  -3   1   9 446.214 76.9587   4
  -3  -1   9 507.635 79.7161   4
  -3   1   8 952.197 108.000   4
  -3  -1   8 1164.72 110.482   4
  -3   1   7 34769.6 602.905   4
  -3  -1   7 34751.4 560.828   4
  -3   1   6 9920.72 308.580   4
  -3  -1   6 10299.9 287.274   4
  -3   1   5 5145.34 210.550   4
  -3  -1   5 5436.32 198.705   4
  -3   1   4 29.5893 31.0432   4
  -3  -1   4 30.9761 27.4341   4
  -3   1   3 12319.8 298.799   4
  -3  -1   3 11948.3 274.163   4
  -3   1   2 1754.51 112.284   4
  -3  -1   2 1655.83 100.799   4
   3  -1  -1 356.771 35.0343   5
  -3   1   1 411.235 59.3675   4
  -3   1   0 15599.7 320.204   4
   3  -1   0 16036.7 226.357   5
  -3   1   0 15403.7 320.639   6
   3  -1   0 16205.5 412.786   2
   3   1   0 15855.7 359.955   2
  -3  -1   0 15782.6 306.418   4
   3   1   1 13498.6 325.722   2
  -3   1  -1 13268.3 302.433   6
   3  -1   1 13347.0 372.996   2
  -3   1  -1 13392.9 302.134   4
  -3  -1  -2 5092.14 145.537   3
  -3  -1  -2 5292.57 189.390   7
  -3   1  -2 5258.10 184.244   7
  -3   1  -2 5675.44 205.315   6
  -3  -1  -2 5427.63 200.058   6
  -3   1  -3 13454.8 304.889   7
  -3  -1  -3 12940.4 308.056   7
  -3   1  -3 13504.8 331.474   6
  -3  -1  -3 13441.8 324.321   6
  -3  -1  -3 13249.7 266.535   3
  -3  -1  -4 628.637 81.0581   7
  -3   1  -4 506.643 74.1131   7
  -3   1  -4 533.185 72.0373   6
  -3  -1  -4 542.030 60.9136   3
  -3   1  -5 6931.11 258.809   6
  -3  -1  -5 7065.13 253.776   6
  -3  -1  -5 7439.79 241.205   3
  -3   1  -6 1057.50 107.956   6
  -3  -1  -6 1101.24 106.516   6
  -3  -1  -6 1058.65 100.334   3
  -3  -1  -7 55153.1 758.792   3
  -3  -1  -7 54674.8 756.272   6
  -3  -1  -8 7757.18 302.043   3
  -3  -1  -8 7868.14 299.202   6
  -3  -1  -9 8233.25 328.788   3
  -3   1  -9 7466.90 318.777   6
  -3  -1  -9 8112.01 313.299   6
  -3  -1 -10 5050.30 270.335   3
  -3   1 -10 4924.03 266.731   6
  -3   1 -11 1433.11 149.871   6
  -3   1 -12 1982.36 141.378  16
  -3  -1 -12 1920.12 142.565  15
  -3   1 -12 2061.92 145.776  15
  -3  -1 -13 1632.84 133.098  15
  -3   1 -13 1661.42 134.883  15
  -3  -1 -14 4022.01 205.441  15
  -3   1 -14 3789.90 201.610  15
  -3   1 -15 529.608 77.0426  15
  -3  -1 -15 625.199 79.8973  15
  -3  -1 -16 902.590 91.7768  15
  -3   1 -16 914.122 92.9561  15
  -3   1 -16 885.531 92.1753  14
  -3  -1 -16 958.223 100.855  14
  -3   1 -17 39.9628 24.4822  15
  -3   1 -17 7.86248 22.6909  14
  -3  -1 -17 57.0529 34.7114  14
  -3   1 -18 285.288 40.1498  14
  -3   1 -18 281.581 41.4978  15
  -3  -1 -18 293.233 45.2408  14
  -3  -2  19 712.987 64.0313  11
  -3  -2  19 585.048 63.2494   9
  -3   2  19 620.645 59.9783  11
  -3   2  18-12.0095 28.1018  11
  -3  -2  18-12.9897 30.4133  11
  -3  -2  18 2.38195 25.2121   9
  -3   2  17 169.851 46.7424  11
  -3  -2  17 201.770 52.0217  11
  -3  -2  17 138.052 39.8209   9
  -3   2  16 154.971 45.7138  11
  -3   2  16 201.671 56.0309   9
  -3  -2  16 105.175 40.2722   9
  -3  -2  15 5014.55 237.787   9
  -3   2  15 5281.83 243.481   9
  -3   2  15 5044.30 229.816  11
  -3   2  14 8301.37 299.843  11
  -3   2  14 8828.47 316.321   9
  -3  -2  14 8682.27 312.318   9
  -3   2  13 27170.1 528.272  11
  -3  -2  13 27416.9 544.944   9
  -3   2  13 27542.3 546.961   9
  -3  -2  12 7766.40 269.403  13
  -3   2  12 6873.30 336.734   4
  -3  -2  12 7485.35 274.042   9
  -3   2  12 7657.61 280.540   9
  -3   2  12 7700.85 274.013  11
  -3   2  11 6789.65 323.873   4
  -3   2  10 1100.28 126.661   4
  -3   2   9 9097.76 348.891   4
  -3   2   8 4012.02 223.327   4
  -3   2   7 34.4326 28.3172   4
  -3  -2   7 104.919 32.1356   4
  -3   2   6 883.615 97.4503   4
  -3  -2   6 874.455 81.3470   4
  -3   2   5 2207.07 144.348   4
   3  -2  -5 2548.43 121.557   5
  -3  -2   5 2350.84 125.550   4
  -3   2   4 4182.64 189.687   4
  -3  -2   4 4039.87 158.084   4
   3  -2  -4 4031.79 142.758   5
  -3  -2   3 75.2702 26.8314   4
   3  -2  -3 71.3071 21.7725   5
  -3   2   2 21855.3 403.306   4
   3  -2  -2 21673.7 301.402   5
  -3  -2   2 22019.4 347.001   4
   3  -2  -1 31014.2 361.367   5
  -3   2   1 30248.2 463.654   4
  -3   2   1 30123.3 426.494   6
  -3  -2   1 30604.2 412.882   4
  -3   2   0 1505.58 99.9759   6
   3  -2   0 1527.24 82.5603   5
  -3   2   0 1468.26 102.635   4
   3   2   0 1523.01 100.615   2
  -3  -2   0 1508.59 93.8740   4
  -3   2  -1 10462.4 271.711   4
  -3  -2  -1 10688.9 261.249   7
  -3   2  -1 10808.9 273.966   6
  -3  -2  -2 43335.1 546.370   7
  -3   2  -2 41811.3 507.868   7
  -3   2  -2 41838.8 563.055   6
  -3  -2  -2 41635.0 426.356   3
  -3   2  -2 41158.9 545.455   4
  -3  -2  -3 8930.55 260.565   7
  -3   2  -3 8823.63 244.666   7
  -3   2  -3 8980.86 275.125   6
  -3  -2  -3 8578.08 219.579   3
  -3  -2  -4 62322.6 724.221   7
  -3  -2  -4 60440.5 643.505   3
  -3   2  -4 60648.7 685.640   7
  -3  -2  -5 12930.9 342.368   6
  -3  -2  -5 12806.5 320.979   3
  -3  -2  -6 16282.2 393.666   6
  -3  -2  -6 15797.6 384.145   3
  -3  -2  -7 12731.7 361.713   6
  -3  -2  -7 12874.0 373.278   3
  -3  -2  -8 1744.63 138.447   6
  -3  -2  -8 1821.60 150.593   3
  -3  -2  -9 199.358 54.0097   3
  -3  -2 -10 808.422 110.714   3
  -3   2 -11 30131.4 530.523  16
  -3  -2 -11 31145.2 542.979  15
  -3   2 -11 31200.8 546.203  15
  -3   2 -12 259.650 61.3518  16
  -3  -2 -12 323.899 62.3753  15
  -3   2 -12 399.114 67.3362  15
  -3   2 -13 11804.7 355.426  15
  -3   2 -13 11419.6 346.508  16
  -3  -2 -13 11705.9 353.155  15
  -3  -2 -14 2971.82 176.164  15
  -3   2 -14 3036.02 180.630  15
  -3  -2 -15 5156.91 225.086  15
  -3   2 -15 4860.97 220.483  15
  -3   2 -15 5387.66 228.729  14
  -3  -2 -16 79.8200 42.8305  14
  -3   2 -16 141.215 41.5254  15
  -3   2 -16 83.5457 30.3862  14
  -3   2 -17 853.487 81.9470  15
  -3  -2 -17 846.868 86.1089  14
  -3  -2 -18 1434.98 93.5494  14
  -3   2 -18 1321.31 84.3443  15
  -3   3  19 273.902 40.6818  11
  -3  -3  19 306.912 44.5410  11
  -3  -3  19 216.575 40.1773   9
  -3   3  18 16.5800 22.7222  11
  -3  -3  18 27.2972 29.9608  11
  -3  -3  18 8.76687 26.6033   9
  -3  -3  17 530.066 73.3702   9
  -3   3  17 577.227 74.1007  11
  -3   3  16-1.85251 32.4574  11
  -3  -3  16 45.3531 32.1309   9
  -3   3  15 2860.54 173.415  11
  -3  -3  15 3224.84 190.294   9
  -3   3  14 2325.98 158.320  11
  -3   3  14 2399.25 167.764   9
  -3  -3  14 2326.76 162.554   9
  -3   3  13 7488.22 281.710  11
  -3   3  13 8266.44 302.567   9
  -3  -3  13 7534.55 274.842  13
  -3  -3  13 7703.55 288.655   9
  -3   3  12 2849.23 174.412   9
  -3  -3  12 3097.36 172.523  13
  -3   3  12 2999.51 173.968  11
  -3  -3  12 3085.80 177.700   9
  -3   3  11 2772.31 212.550   4
  -3   3  10 7181.76 329.950   4
  -3   3   9 30200.1 655.051   4
  -3   3   8 1440.34 137.941   4
  -3   3   7 11409.5 368.073   4
   3  -3  -7 12323.7 326.047   5
  -3   3   6 10015.0 329.744   4
   3  -3  -6 10471.1 285.192   5
  -3   3   5 36369.6 598.196   4
   3  -3  -5 36217.4 501.830   5
  -3   3   4 1321.14 112.542   4
  -3  -3   4 1347.91 87.5183   4
   3  -3  -4 1249.11 89.7822   5
  -3   3   3 11993.1 315.985   4
  -3  -3   3 12025.3 249.025   4
   3  -3  -3 12116.3 263.438   5
  -3   3   2 3165.39 160.285   4
   3  -3  -2 3426.53 139.226   5
  -3  -3   2 3419.82 133.490   4
  -3   3   1 6123.14 192.615   6
   3  -3  -1 5911.53 180.947   5
  -3   3   1 5968.62 214.021   4
  -3  -3   1 6010.74 179.170   4
   3  -3   0 90553.3 711.792   5
  -3   3   0 90132.7 765.809   6
  -3   3  -1 253.704 47.9855   4
  -3  -3  -1 350.294 51.8865   7
  -3   3  -1 290.538 48.9265   6
   3  -3   1 310.603 44.1850   5
  -3  -3  -2 30085.9 463.266   7
  -3   3  -2 30699.8 432.344   7
  -3   3  -2 28952.5 483.550   6
  -3   3  -2 29351.5 471.454   4
  -3  -3  -3 2960.76 155.296   7
  -3   3  -3 2895.96 141.086   7
  -3  -3  -3 2878.14 133.350   3
  -3   3  -4 2920.93 147.568   7
  -3  -3  -4 2531.42 136.899   3
  -3  -3  -5 28172.5 490.748   3
  -3  -3  -6 4971.47 222.544   3
  -3  -3  -7 2414.35 165.533   3
  -3  -3  -8 7387.75 302.198   3
  -3  -3  -9 8433.57 343.497   3
  -3  -3 -10 6868.97 321.475   3
  -3   3 -11 45.1368 28.6377  16
  -3   3 -11 115.242 37.0616  15
  -3   3 -12 8886.61 306.482  16
  -3  -3 -12 9629.55 314.512  15
  -3   3 -12 9002.40 306.416  15
  -3   3 -13 1648.46 136.478  16
  -3  -3 -13 1487.79 126.733  15
  -3   3 -13 1829.10 141.522  15
  -3  -3 -14 715.417 88.2262  15
  -3   3 -14 704.597 91.4061  15
  -3   3 -15 231.352 54.2160  15
  -3   3 -16 1348.01 108.081  15
  -3  -3 -16 1763.83 134.211  14
  -3   3 -17 52.0482 31.6995  15
  -3  -3 -17 52.9179 30.9120  14
  -3   3 -18 2882.81 118.563  15
  -3  -3 -18 3045.51 130.112  14
  -3   4  19 51.3439 23.0369  11
  -3  -4  19 25.8903 21.1709  11
  -3  -4  19 31.8252 22.7622   9
  -3   4  18 7.68939 24.3802  11
  -3  -4  18 8.73196 24.2451  11
  -3  -4  18-11.5646 28.0373   9
  -3   4  17 488.133 65.8716  11
  -3  -4  17 408.758 63.5629   9
  -3   4  16 95.7954 41.1648  11
  -3  -4  16 111.431 46.5148   9
  -3  -4  15 7026.04 274.565   9
  -3   4  15 6341.18 254.857  11
  -3  -4  14 4762.30 229.283   9
  -3   4  14 5151.74 235.276  11
  -3  -4  13 1825.53 142.687   9
  -3  -4  13 1733.19 132.964  13
  -3   4  13 1610.19 132.785  11
  -3  -4  12 3311.80 187.429   9
  -3  -4  12 3509.71 184.627  13
  -3   4  12 3552.30 191.603  11
  -3   4  11 1789.87 173.492   4
  -3   4  10 6487.69 320.537   4
  -3   4   9 4924.75 271.011   4
   3  -4  -9 5025.95 245.385   5
  -3   4   8 9683.55 363.799   4
   3  -4  -8 9953.30 330.781   5
  -3   4   7 1242.18 126.650   4
   3  -4  -7 1393.92 122.780   5
  -3   4   6 41926.3 692.762   4
   3  -4  -6 43141.0 624.907   5
  -3   4   5 4388.69 215.298   4
   3  -4  -5 4097.53 185.911   5
  -3   4   4 94714.4 956.573   4
   3  -4  -4 92607.8 839.522   5
  -3   4   3 7387.08 257.438   4
   3  -4  -3 7084.82 226.182   5
  -3   4   2 17016.0 379.044   4
   3  -4  -2 15967.3 336.490   5
  -3   4   1 2255.58 118.273   6
   3  -4  -1 2052.89 120.606   5
  -3   4   1 2329.86 138.639   4
  -3  -4   0 22177.8 379.930   7
   3  -4   0 22401.8 392.685   5
  -3   4   0 22733.7 392.766   6
  -3   4   0 23111.8 426.284   4
  -3  -4  -1 7130.56 223.606   7
  -3   4  -1 7003.74 199.533   7
  -3   4  -1 7213.78 239.140   4
   3  -4   1 7001.64 223.696   5
  -3  -4  -2 600.125 70.6456   7
  -3   4  -2 568.874 63.4330   7
   3  -4   2 511.003 64.6874   5
  -3   4  -2 540.469 69.4590   4
  -3  -4  -3 1775.11 127.770   7
  -3  -4  -3 1612.31 104.067   3
  -3  -4  -4 423.428 58.5177   3
  -3  -4  -5 83.5522 38.0614   3
  -3  -4  -6 1657.29 133.583   3
  -3  -4  -7 5296.42 251.454   3
  -3  -4  -8 11930.6 396.960   3
  -3  -4  -9 219.713 61.2001   3
  -3   4 -10 1341.12 110.982  16
  -3  -4 -10 1425.30 149.974   3
  -3   4 -11 110.386 42.6919  16
  -3  -4 -11 162.761 49.1913  15
  -3  -4 -12 924.533 100.964  15
  -3   4 -12 1017.11 104.862  15
  -3   4 -12 1098.29 111.593  16
  -3   4 -13 490.269 79.5443  16
  -3   4 -13 628.949 86.4050  15
  -3   4 -14 1624.87 132.209  16
  -3   4 -14 1657.29 130.794  15
  -3   4 -15 41.1259 31.0925  15
  -3  -4 -15 30.6999 28.3166  14
  -3   4 -16 20.2957 25.7598  15
  -3  -4 -16-14.1879 27.8204  14
  -3   4 -17 137.691 35.8469  15
  -3  -4 -17 78.9895 32.8917  14
  -3  -4 -18 391.193 44.1515  14
  -3  -5  18 1677.52 103.027   9
  -3   5  18 1931.27 105.684  11
  -3  -5  17 1297.96 103.185   9
  -3   5  17 1462.08 106.050  11
  -3  -5  16 2982.37 168.814   9
  -3   5  16 3374.88 173.859  11
  -3  -5  15 1943.58 144.427   9
  -3   5  15 1735.05 132.703  11
  -3  -5  14 10500.1 337.199   9
  -3   5  14 10170.0 326.301  11
  -3  -5  13 2685.97 164.517  13
  -3  -5  13 2390.66 162.056   9
  -3   5  13 2287.10 157.796  11
  -3   5  12 201.922 50.8440  11
  -3  -5  12 316.226 64.3936   9
  -3  -5  12 236.106 55.0062  13
  -3   5  11 495.671 73.7272  11
  -3  -5  11 464.969 68.3563   9
  -3  -5  11 463.589 70.6099  13
  -3   5  10 26759.7 657.467   4
  -3   5   9 1890.22 171.863   4
   3  -5  -9 1800.46 155.171   5
  -3   5   8 5812.53 288.506   4
   3  -5  -8 5909.89 267.709   5
  -3   5   7 5711.34 274.247   4
   3  -5  -7 5720.52 254.525   5
  -3   5   6 7477.80 301.529   4
   3  -5  -6 8100.28 289.314   5
  -3   5   5 8649.97 313.590   4
   3  -5  -5 8618.98 288.036   5
  -3   5   4 20425.2 460.265   4
   3  -5  -4 19826.6 424.787   5
  -3   5   3 19136.8 432.688   4
   3  -5  -3 18391.1 398.942   5
   3  -5  -2 11673.1 312.189   5
  -3   5   2 12431.4 337.757   4
  -3  -5   1 45600.3 540.621   7
   3  -5  -1 44702.8 611.292   5
   3  -5   0 82846.3 825.229   5
  -3  -5   0 81977.5 742.223   7
  -3   5   0 81898.4 764.973   6
  -3   5   0 84407.7 835.285   4
  -3  -5  -1 927.524 84.8801   7
  -3   5  -1 759.373 78.7157   6
   3  -5   1 754.332 83.8948   5
  -3   5  -1 783.438 81.9409   4
  -3  -5  -2 14212.1 334.656   7
  -3   5  -2 14685.8 348.118   4
   3  -5   3 7442.79 264.757   5
  -3  -5  -4 23449.6 458.156   3
  -3  -5  -5-45.1254 29.6959   3
  -3  -5  -6 213.213 54.8437   3
  -3  -5  -7 4214.67 230.450   3
  -3  -5  -8 46.9660 48.7283   3
  -3  -5  -9 594.963 98.2721   3
  -3   5 -10 9306.82 299.964  16
  -3   5 -11 610.198 82.6523  16
  -3   5 -12 660.004 90.1106  16
  -3   5 -13 1086.23 111.844  16
  -3   5 -13 1132.37 111.787  15
  -3   5 -14 1013.56 105.659  16
  -3   5 -14 1108.84 109.795  15
  -3  -5 -14 1096.96 112.568  14
  -3   5 -15 58.2645 30.2236  15
  -3  -5 -15 45.3668 35.0391  14
  -3   5 -16 8575.46 253.542  15
  -3  -5 -16 9136.29 269.381  14
  -3   5 -17 2195.60 112.347  15
  -3  -5 -17 2341.94 118.723  14
  -3   6  18 113.058 35.1732  11
  -3  -6  18 65.7191 27.5747   9
  -3   6  17 64.0897 29.5616  11
  -3  -6  17 44.1081 23.6990   9
  -3   6  16 147.360 44.4719  11
  -3  -6  16 52.3640 33.2960   9
  -3   6  15 168.778 51.2948  11
  -3  -6  15 158.255 50.1697   9
  -3  -6  14 2005.89 144.959   9
  -3   6  14 1931.49 142.577  11
  -3  -6  13 8962.74 309.770   9
  -3  -6  13 8598.78 287.886  13
  -3   6  13 8730.96 303.418  11
  -3  -6  12 18216.5 438.698   9
  -3  -6  12 18086.0 420.557  13
  -3   6  12 17800.1 434.271  11
  -3  -6  11 25848.5 514.888   9
  -3  -6  11 26038.9 500.075  13
  -3   6  11 26660.7 523.855  11
   3  -6 -10 330.655 75.3753   5
  -3  -6  10 509.128 73.2599   9
  -3  -6  10 455.771 65.6642  13
  -3   6  10 611.308 81.7004  11
   3  -6  -9 549.438 95.7249   5
  -3   6   9 597.879 98.7302   4
  -3   6   8 2297.97 184.077   4
   3  -6  -8 2050.71 169.084   5
  -3   6   7 1220.64 131.329   4
   3  -6  -7 1445.20 138.017   5
  -3   6   6 23776.7 552.526   4
   3  -6  -6 23361.2 522.407   5
  -3   6   5 3902.87 214.204   4
   3  -6  -5 3772.54 205.334   5
   3  -6  -4 1612.06 131.937   5
  -3   6   4 1799.60 142.257   4
  -3   6   3 20095.3 453.707   4
   3  -6  -3 19535.5 440.281   5
  -3   6   2 1785.65 132.472   4
   3  -6  -2 1586.18 124.726   5
   3  -6  -1 1441.03 122.368   5
  -3   6   1 1426.83 115.830   4
  -3   6   0 568.209 70.7686   4
   3  -6   0 553.318 78.4062   5
  -3   6  -1 870.972 88.6872   4
   3  -6   1 804.788 94.0992   5
   3  -6   2 1018.42 104.396   5
   3  -6   3 7143.50 278.107   5
   3  -6   4 3551.84 199.986   5
  -3  -6  -5 3687.43 202.787   3
  -3  -6  -6 11690.3 378.578   3
  -3  -6  -7 25124.5 578.498   3
  -3  -6  -8 17163.5 496.880   3
  -3  -6  -9 6644.68 261.426  14
  -3   6  -9 6414.45 248.063  16
  -3   6 -10 54.2857 41.1640  16
  -3  -6 -10-10.3455 35.3884  14
  -3   6 -11 2688.29 169.336  16
  -3  -6 -11 2763.31 175.814  14
  -3   6 -12 198.202 56.2658  16
  -3  -6 -12 230.289 57.4306  14
  -3   6 -13 2346.50 159.888  16
  -3  -6 -13 2320.80 158.267  14
  -3   6 -13 2240.34 154.202  15
  -3   6 -14 445.965 70.6847  16
  -3   6 -14 429.679 66.1300  15
  -3  -6 -14 409.082 65.6734  14
  -3   6 -15 4377.35 191.423  15
  -3  -6 -15 4472.32 191.902  14
  -3   6 -16 463.339 57.5410  15
  -3  -6 -16 461.193 57.8104  14
  -3  -6 -17 532.130 50.4890  14
  -3   6 -17 466.982 50.5469  15
  -3   7  17 266.681 45.3875  11
  -3  -7  17 121.350 33.4331   9
  -3  -7  16 1107.78 93.3744   9
  -3   7  16 1272.94 99.1635  11
  -3  -7  15 1696.69 125.133   9
  -3   7  15 1978.50 134.545  11
  -3  -7  14 3308.52 182.522   9
  -3   7  14 3409.29 183.481  11
  -3  -7  13 628.315 81.8708   9
  -3  -7  13 706.780 85.1431  13
  -3   7  13 692.054 90.9477  11
  -3  -7  12 1974.03 145.711   9
  -3  -7  12 2102.46 143.978  13
  -3   7  12 2017.02 146.728  11
  -3  -7  11 553.759 78.3330   9
  -3  -7  11 600.508 80.9696  13
  -3   7  11 686.478 91.8720  11
  -3  -7  10 12662.0 354.013   9
  -3  -7  10 12683.2 348.263  13
  -3   7  10 12845.4 362.093  11
  -3   7   9-25.6657 36.5863  11
  -3  -7   9-22.6403 28.3925  13
  -3   7   8 4904.97 269.802   4
   3  -7  -8 1305.94 143.368   5
  -3   7   7 10516.1 383.735   4
   3  -7  -7 10506.2 383.319   5
  -3   7   6 979.817 115.906   4
   3  -7  -6 1139.26 126.697   5
  -3   7   5 402.927 77.7050   4
   3  -7  -5 325.839 69.4607   5
   3  -7  -4 252.537 56.5771   5
  -3   7   4 185.518 47.0533   4
  -3   7   3 3226.98 186.915   4
   3  -7  -3 3109.65 189.505   5
  -3   7   2 3651.31 192.645   4
   3  -7  -2 3588.01 201.657   5
   3  -7  -1 491.123 77.0538   5
   3  -7   0 554.738 84.2121   5
   3  -7   1 4967.25 238.275   5
   3  -7   2 11353.7 365.117   5
   3  -7   3 6950.45 290.389   5
   3  -7   4 10603.8 363.207   5
   3  -7   5 86.3144 40.9075   5
   3  -7   6 9367.73 359.817   5
   3  -7   7 4990.29 269.975   5
  -3  -7  -7 5553.56 280.573   3
  -3   7  -8 2118.39 144.721  16
  -3   7  -9 2034.59 145.383  16
  -3   7 -10 282.280 60.0094  16
  -3   7 -11 404.653 72.3100  16
  -3  -7 -11 491.890 72.7401  14
  -3   7 -12 1648.38 135.089  16
  -3  -7 -12 1840.01 137.744  14
  -3   7 -13 62.7920 42.7505  16
  -3   7 -13 121.881 43.9841  15
  -3  -7 -13 71.8804 31.7546  14
  -3   7 -14 207.891 50.0309  16
  -3   7 -14 201.774 48.5888  15
  -3  -7 -14 246.149 47.8721  14
  -3   7 -15 2503.80 137.474  15
  -3  -7 -15 2750.13 134.906  14
  -3  -7 -16 1.60974 17.4423  14
  -3   7 -16 11.3424 19.3391  15
  -3  -8  17 1523.83 83.7507   9
  -3   8  16 4.05776 26.4897  11
  -3  -8  16 2.81166 24.9243   9
  -3  -8  15 720.981 79.2410   9
  -3   8  15 713.356 77.3460  11
  -3   8  14-3.70044 32.1437  11
  -3  -8  14-7.85008 30.9894   9
  -3  -8  13 4107.13 200.183   9
  -3   8  13 4204.46 205.801  11
  -3  -8  12 1255.17 116.527   9
  -3  -8  12 1255.13 109.257  13
  -3   8  12 1151.31 112.756  11
  -3   8  11 49.7267 31.2078  11
  -3  -8  11 9.03935 26.1168   9
  -3  -8  11 62.7566 39.0992  13
  -3   8  10 448.811 70.8082  11
  -3  -8  10 402.841 68.0084   9
  -3  -8  10 447.427 70.1255  13
  -3   8   9 547.720 78.7346  11
  -3  -8   9 655.693 81.9503  13
  -3  -8   8 8417.73 281.758  13
  -3   8   8 8706.86 293.445  11
  -3   8   7 18112.9 500.884   4
   3  -8  -7 18506.1 528.166   5
  -3  -8   7 17668.3 406.350  13
  -3   8   7 18544.8 416.013  11
   3  -8  -6 1221.12 135.212   5
   3  -8  -5 663.756 99.4766   5
   3  -8  -4 1042.94 118.732   5
   3  -8  -3 234.127 64.0829   5
   3  -8  -2 895.087 108.545   5
   3  -8  -1 8630.00 332.497   5
   3  -8   0 5194.73 258.790   5
   3  -8   1 1012.01 115.343   5
   3  -8   2 8672.13 337.179   5
   3  -8   3 25229.4 583.515   5
   3  -8   4 1732.85 158.467   5
   3  -8   5 2515.18 192.658   5
  -3   8  -6 7457.03 263.858  16
  -3   8  -7 1127.68 109.322  16
  -3   8  -8 1070.03 107.236  16
  -3   8  -9 8191.39 290.170  16
  -3   8 -10 251.883 63.3289  16
  -3   8 -11 4457.56 216.572  16
  -3   8 -12 493.173 76.8128  16
  -3   8 -13 1422.20 118.582  16
  -3   8 -13 1486.54 118.347  15
  -3   8 -14-56.6933 36.5369  16
  -3   8 -14 17.4698 28.5558  15
  -3   8 -15-21.2346 25.4093  15
  -3   9  16 295.768 42.6112   8
  -3  -9  16 318.477 41.7688   9
  -3  -9  15 597.727 65.2035   9
  -3  -9  14 511.306 64.9324   9
  -3   9  14 462.436 65.4809  11
  -3   9  13 14.9197 31.8362  11
  -3  -9  13-0.24636 24.3077   9
  -3   9  12 510.940 76.5643  11
  -3  -9  12 607.698 80.2475   9
  -3  -9  11 3344.50 182.456   9
  -3  -9  11 3857.50 185.988  13
  -3   9  11 3771.11 199.190  11
  -3  -9  10 606.475 79.3272   9
  -3  -9  10 591.584 75.2181  13
  -3   9  10 609.428 81.7730  11
  -3  -9   9 15450.9 384.983  13
  -3   9   9 14661.2 393.722  11
  -3  -9   8 7818.50 277.745  13
  -3   9   8 7940.51 287.485  11
  -3  -9   7 21151.8 454.807  13
  -3   9   7 21269.4 464.904  11
  -3  -9   6 12763.2 351.984  13
  -3   9   6 12449.4 350.148  11
  -3  -9   5 6472.41 250.127  13
  -3   9   5 6887.64 258.080   8
   3  -9  -4 670.442 102.432   5
   3  -9  -3 8.83856 33.8686   5
   3  -9  -2 1139.49 128.915   5
   3  -9  -1 17865.5 500.676   5
   3  -9   0 3805.36 235.279   5
   3  -9   1 13018.6 430.965   5
   3  -9   2 8719.42 353.213   5
   3  -9   3 14097.7 452.598   5
  -3   9  -4 1905.22 134.201  16
  -3   9  -4 1812.67 132.094   8
  -3   9  -5 5579.80 230.904  16
  -3   9  -5 5059.15 221.584   8
  -3   9  -6 81.5685 39.3994  16
  -3   9  -6-13.2071 31.9988   8
  -3   9  -7 7050.82 266.196  16
   3  -9   7 7363.13 265.474   9
  -3   9  -8 86.7089 47.4675  16
  -3   9  -9 18.7550 33.1416  16
  -3   9 -10 1229.74 114.252  16
  -3   9 -11 6229.71 247.232  16
  -3   9 -12 69.8862 40.0917  16
  -3   9 -13 376.409 59.9227  16
  -3   9 -13 435.996 61.4715  15
  -3   9 -14 19.1813 23.0874  15
  -3   9 -15 1439.59 84.0659  15
  -3 -10  15 334.993 40.9531   9
  -3  10  15 418.491 48.8705   8
  -3  10  14 412.958 56.0293   8
  -3 -10  14 503.495 58.6149   9
  -3 -10  13 837.339 80.7782   9
  -3  10  13 796.559 82.1042   8
  -3 -10  12 787.139 83.7964   9
  -3  10  12 881.661 91.9285   8
  -3 -10  11 5814.85 227.091   9
  -3 -10  10 46.7281 30.6917  13
  -3 -10   9 1408.65 116.473  13
  -3  10   9 1137.74 111.420   8
  -3  10   8 1925.41 143.276   8
  -3 -10   8 1905.70 138.017  13
  -3  10   7 501.361 75.1185   8
  -3 -10   7 404.180 63.3098  13
  -3 -10   6 5416.40 234.919  13
  -3  10   6 5706.80 243.649   8
  -3  10   5 206.926 49.5931   8
  -3 -10   5 256.103 56.4768  13
  -3  10   4 107.132 41.6567   8
  -3  10   3 399.678 66.9515   8
  -3  10   2 6397.77 240.644  16
  -3  10   2 6723.24 256.232   8
  -3  10   1 3164.65 168.908  16
  -3  10   1 3024.86 171.872   8
  -3  10   0 1382.97 117.484   8
  -3  10   0 1326.35 110.704  16
  -3  10  -1 6.99118 30.8541   8
  -3  10  -1-5.94503 27.2172  16
  -3  10  -2 6542.78 247.082  16
  -3  10  -2 6963.61 262.817   8
  -3  10  -3 820.605 89.7811  16
  -3  10  -3 915.490 97.9702   8
  -3  10  -4 11186.7 329.149  16
  -3  10  -4 11415.0 338.404   8
  -3  10  -5 13523.1 364.575  16
  -3  10  -5 13806.5 376.984   8
   3 -10   6 1090.56 105.922   9
  -3  10  -6 1137.24 109.043  16
  -3  10  -7 128.104 43.2282  16
   3 -10   7 43.0170 30.9095   9
  -3  10  -8 729.406 87.7555  16
   3 -10   8 645.389 80.3942   9
   3 -10   9 928.664 94.3169   9
  -3  10  -9 930.229 96.1688  16
  -3  10 -10 389.840 63.2811  16
  -3  10 -11 7424.44 254.819  16
  -3  10 -12 368.072 59.0941  16
  -3  10 -13 1605.94 104.324  16
  -3  10 -13 1506.32 100.749  15
  -3  10 -14 277.021 40.0791  15
  -3  11  14 19.7428 20.8189   8
  -3  11  13 31.1380 26.6274   8
  -3  11  12 4242.75 180.255   8
  -3  11  11 620.811 75.9734   8
  -3  11  10 5923.66 236.301   8
  -3  11   9 2592.56 160.817   8
  -3 -11   8 1271.44 107.678  13
  -3  11   8 1079.93 107.533   8
  -3 -11   7 9790.78 303.702  13
  -3  11   7 9140.63 307.929   8
  -3 -11   6 10239.9 319.596  13
  -3  11   6 9605.32 316.984   8
  -3 -11   5 20919.4 460.670  13
  -3  11   5 20825.1 464.456   8
  -3  11   4 3542.80 179.973  16
  -3  11   4 3714.37 197.130   8
  -3  11   3 655.251 78.2251  16
  -3  11   3 663.399 86.8900   8
  -3  11   2 153.439 45.5401   8
  -3  11   2 86.9370 34.5588  16
  -3  11   1 38.4359 35.2535   8
  -3  11   1 69.0189 37.7018  16
  -3  11   0 4223.38 197.210  16
  -3  11   0 4366.59 213.631   8
  -3  11  -1 93.1620 30.4497   8
  -3  11  -1 152.191 49.4157  16
  -3  11  -2 10676.7 315.674  16
  -3  11  -2 10401.3 329.062   8
  -3  11  -3 136.729 43.3219  16
  -3  11  -3 165.440 50.9475   8
  -3  11  -4 3841.97 192.219  16
  -3  11  -4 3681.95 196.990   8
  -3  11  -5 6362.77 246.556  16
  -3  11  -5 6529.42 261.397   8
   3 -11   6 563.216 83.2677   9
  -3  11  -6 606.214 80.9280  16
   3 -11   7 1749.19 131.693   9
  -3  11  -7 1678.16 126.454  16
  -3  11  -8 13121.1 340.129  16
   3 -11   8 12969.0 340.413   9
  -3  11  -9 670.808 78.0781  16
   3 -11   9 765.867 80.8446   9
   3 -11  10 1956.15 121.746   9
  -3  11 -10 1741.24 119.688  16
  -3  11 -11 12.2480 26.4300  16
  -3  11 -12 303.307 46.7243  16
  -3  11 -13 633.382 56.8168  15
  -3  12  13 468.099 49.4743   8
  -3  12  12 336.816 49.6480   8
  -3  12  11 135.441 40.1362   8
  -3  12  10 484.806 65.3482   8
  -3  12   9 1270.01 108.129   8
  -3  12   8 344.710 60.1473   8
  -3  12   7-15.1352 35.9278   8
  -3 -12   7-2.64744 21.0440  13
  -3 -12   6 1276.71 107.744  13
  -3  12   6 992.193 102.311   8
  -3 -12   5 1014.77 100.571  13
  -3  12   5 1113.60 109.750   8
  -3 -12   4 2730.70 165.999  13
  -3  12   4 2477.75 161.106   8
  -3  12   3-50.1026 39.5296   8
  -3  12   2 602.768 85.2868   8
  -3  12   1 105.626 43.5315   8
  -3  12   0 2665.31 168.753   8
  -3  12  -1 137.470 35.8526  16
  -3  12  -1-18.8006 37.9296   8
  -3  12  -2 127.885 41.2828  16
  -3  12  -2 104.679 47.1579   8
  -3  12  -3 4125.51 191.050  16
  -3  12  -3 4320.17 212.272   8
  -3  12  -4 426.338 66.2991  16
  -3  12  -4 490.637 74.8432   8
  -3  12  -5 1056.17 97.0265  16
   3 -12   5 1205.35 112.440   9
   3 -12   6 749.069 88.1440   9
  -3  12  -6 825.788 84.1389  16
  -3  12  -7 4456.71 190.894  16
   3 -12   7 4160.44 192.140   9
  -3  12  -8 623.767 72.3044  16
   3 -12   8 509.489 66.7180   9
  -3  12  -9 13.6966 24.8099  16
   3 -12   9 21.1744 23.2003   9
  -3  12 -10 11.8232 24.4166  16
   3 -12  10 41.1567 27.5294   9
  -3  12 -11 407.469 47.5638  16
  -3  13  11 828.090 66.9594   8
  -3  13  10 2026.53 113.037   8
  -3  13   9 176.450 42.5422   8
  -3  13   8 1062.02 94.5539   8
  -3  13   7 30.7832 34.3499   8
  -3  13   6 2808.83 161.758   8
  -3  13   5-5.46076 29.2286   8
  -3 -13   5 19.2196 23.7980  13
  -3  13   4-27.7702 37.3069   8
  -3 -13   4-12.2748 29.3780  13
  -3 -13   3 1086.10 100.944  13
  -3  13   3 904.402 96.2756   8
  -3  13   2 55.1807 37.6680   8
  -3  13   1 114.477 41.3261   8
  -3  13   0 195.986 48.1965   8
  -3  13  -1 38.5129 36.6211   8
  -3  13  -2 584.193 80.0978   8
  -3  13  -3 5621.84 230.830   8
   3 -13   4 3832.30 185.982   9
   3 -13   5 1069.42 98.2994   9
   3 -13   6 2397.79 139.685   9
   3 -13   7 80.9042 32.8282   9
   3 -13   8 28.6680 25.1160   9
   3 -13   9 430.403 50.5763   9
  -3  14   9 3326.42 130.016   8
  -3  14   8 2175.76 115.172   8
  -3  14   7 43.3275 30.6806   8
  -3  14   6 4872.54 188.797   8
  -3  14   5 86.5260 40.0970   8
  -3 -14   4 1054.78 83.1000  13
  -3  14   4 963.756 90.8771   8
  -3  14   3 93.7064 39.9958   8
  -3 -14   3 81.8988 29.0121  13
  -3 -14   2 2872.42 149.109  13
  -3  14   2 2660.93 151.351   8
  -3 -14   1 1140.71 95.9005  13
  -3  14   1 1057.48 96.6695   8
  -3  14   0 4075.50 186.898   8
  -3  14  -1 981.316 93.7313   8
  -3  14  -2 507.945 70.1263   8
   3 -14   3 979.875 91.8023   9
   3 -14   4 5335.48 199.076   9
   3 -14   5 709.498 74.8152   9
   3 -14   6 6174.97 194.654   9
   3 -14   7 1254.31 82.5016   9
  -3  15   7 2941.80 113.400   8
  -3  15   6 653.708 60.7473   8
  -3  15   5 43.2004 26.1203   8
  -3  15   4 39.7106 23.1430   8
  -3  15   3 1077.05 84.4404   8
  -3  15   2 745.666 72.6250   8
  -3 -15   1 1454.15 89.5435  13
  -3  15   1 1476.24 100.131   8
  -3 -15   0 238.591 38.5941  13
  -3  15   0 104.391 33.4464   8
  -3  15  -1 221.604 43.5677   8
  -3 -15  -1 176.177 38.3446  13
   3 -15   2 267.803 46.2213   9
   3 -15   3 1205.70 87.1419   9
   3 -15   4 6479.17 185.187   9
   3 -15   5 75.2950 27.2264   9
  -4   0  19 1.81613 18.5735  11
  -4   0  18 27.8990 25.3176  11
  -4   0  17-11.3039 31.7262  11
  -4   0  16 17548.8 403.822  11
  -4   0  16 16681.0 395.774   9
  -4   0  15 29.6837 33.4430  11
  -4   0  15 31.8135 37.2188   9
  -4   0  14 6660.45 265.127  11
  -4   0  14 6672.71 267.932   9
  -4   0  13-19.9257 35.2414   9
  -4   0  12 50.3337 33.5573   9
  -4   0  11-141.521 54.7629   4
  -4   0  10 3542.44 225.441   4
  -4   0   9-53.4891 49.7997   4
  -4   0   8 4683.79 243.162   4
  -4   0   7 243.642 52.0422   4
  -4   0   6 63001.6 833.536   4
  -4   0   5-6.98510 27.6832   4
  -4   0   4 2937.44 170.828   4
  -4   0   3 27.2334 31.9739   4
  -4   0   2 1146.02 104.579   4
  -4   0   1-3.92911 27.1989   4
  -4   0   0 31789.9 536.034   4
  -4   0  -1 9.78093 32.1225   4
  -4   0  -1-14.0412 46.5264   7
  -4   0  -2 51912.4 693.110   7
  -4   0  -2 53019.9 736.225   6
  -4   0  -3 14.5745 36.8166   7
  -4   0  -3-8.49540 35.3121   6
  -4   0  -4 21939.0 484.153   7
  -4   0  -4 23618.8 520.468   6
  -4   0  -5 13.2185 32.0393   6
  -4   0  -6 6418.24 287.267   6
  -4   0  -7 44.7342 50.3934   6
  -4   0  -8-9.86394 37.8934   6
  -4   0  -9-62.2199 42.2475   6
  -4   0 -10 46883.9 729.632  14
  -4   0 -11-6.76176 31.9383  14
  -4   0 -12 4717.00 236.612  14
  -4   0 -13-14.5179 37.8507  14
  -4   0 -14 483.355 68.1363  15
  -4   0 -14 585.721 84.5822  14
  -4   0 -15-0.66532 27.9309  15
  -4   0 -15-8.94652 29.8772  14
  -4   0 -16 1661.12 112.491  14
  -4   0 -17-2.24532 18.6586  14
  -4   1  19 1030.30 69.9503  10
  -4   1  19 1081.05 71.0936  11
  -4  -1  19 1058.71 70.7776  11
  -4   1  18 61.3033 33.6026  11
  -4  -1  18 106.867 36.1019  11
  -4   1  17 3235.72 161.453  11
  -4  -1  17 3276.77 163.221  11
  -4  -1  17 3184.22 161.543   9
  -4   1  16 6994.48 254.806  11
  -4  -1  16 6976.42 254.556  11
  -4  -1  16 6352.25 244.132   9
  -4   1  15 143.299 46.7090  11
  -4   1  15 51.4244 35.8963   9
  -4  -1  15 68.0447 39.1132   9
  -4   1  14 2912.38 175.927  11
  -4   1  14 2939.43 178.922   9
  -4  -1  14 2886.43 175.477   9
  -4   1  13 2167.47 152.583  11
  -4   1  13 2175.38 153.279   9
  -4  -1  13 2240.52 154.631   9
  -4   1  12 1681.53 132.045  11
  -4  -1  12 1787.76 135.315   9
  -4   1  12 1719.94 132.683   9
  -4   1  11 1368.96 150.731   4
  -4   1  11 1249.38 110.719   9
  -4  -1  11 1380.49 117.343  13
  -4   1  10 2684.07 203.725   4
  -4   1   9 2192.39 177.161   4
  -4  -1   9 2254.06 168.095   4
  -4   1   8 2566.52 186.314   4
  -4  -1   8 3230.67 195.302   4
  -4   1   7 15.6711 34.3943   4
  -4  -1   7 50.8225 34.4115   4
  -4   1   6 6628.25 278.628   4
  -4  -1   6 6916.98 266.569   4
  -4  -1   5 299.264 58.3536   4
  -4   1   5 287.482 60.5530   4
  -4   1   4 60.3803 38.2221   4
  -4  -1   4-3.52185 30.2373   4
  -4   1   3 21.3747 33.2373   4
  -4  -1   3-0.48471 25.4074   4
  -4   1   2 11498.7 330.416   4
  -4  -1   2 11083.0 307.711   4
  -4   1   1 2917.23 166.610   4
  -4  -1   1 3146.99 166.073   4
  -4   1   0 25800.5 491.563   4
  -4  -1   0 25701.6 474.700   4
  -4   1  -1 7485.38 271.444   6
  -4   1  -1 7583.20 270.607   4
  -4  -1  -2 1243.38 109.910   7
  -4   1  -2 1342.25 115.032   7
  -4   1  -2 1338.11 120.091   6
  -4  -1  -3 516.428 81.6814   7
  -4   1  -3 361.716 64.2361   7
  -4   1  -3 512.989 77.9015   6
  -4  -1  -4 916.735 105.620   7
  -4   1  -4 1338.08 124.168   7
  -4   1  -4 974.189 109.451   6
  -4  -1  -4 1028.33 111.517   6
  -4   1  -5 143.470 51.1537   6
  -4  -1  -5 137.479 45.1632   6
  -4   1  -6 15.1580 33.3142   6
  -4  -1  -6 122.346 51.3464   6
  -4   1  -7 2167.97 177.221   6
  -4  -1  -7 2564.37 171.538   3
  -4  -1  -7 2279.53 176.055   6
  -4   1  -8 1256.91 137.705   6
  -4  -1  -8 1213.61 132.798   6
  -4   1  -9 1504.22 156.700   6
  -4  -1  -9 1678.70 158.832   6
  -4   1 -10 1843.72 141.884  14
  -4  -1 -10 1585.71 137.632  14
  -4   1 -11 1084.53 113.596  14
  -4  -1 -11 1274.44 126.989  14
  -4   1 -12 549.566 81.3458  14
  -4  -1 -12 557.326 87.0096  14
  -4   1 -13 164.533 43.1303  15
  -4   1 -13 198.813 51.9912  14
  -4  -1 -13 320.895 66.6922  14
  -4  -1 -14 205.780 43.8160  15
  -4   1 -14 312.417 56.4357  15
  -4   1 -14 265.614 55.2409  14
  -4  -1 -14 226.619 55.2571  14
  -4  -1 -15 1729.23 130.792  14
  -4  -1 -15 1670.50 112.456  15
  -4   1 -15 1629.50 113.527  15
  -4   1 -15 1762.54 124.491  14
  -4   1 -16 1157.06 88.8426  14
  -4   1 -16 1122.65 85.1735  15
  -4  -1 -16 1156.57 97.9709  14
  -4  -1 -17 386.013 50.0859  14
  -4   1 -17 287.584 37.1682  14
  -4   2  19 185.779 31.1684  11
  -4  -2  19 122.600 25.6795  11
  -4   2  19 138.802 28.8210  10
  -4   2  18 394.426 53.4643  11
  -4  -2  18 372.730 52.2895  11
  -4   2  17 213.722 47.3005  11
  -4  -2  17 149.341 41.7061  11
  -4  -2  17 128.806 39.0328   9
  -4   2  16 1303.09 110.938  11
  -4  -2  16 1232.90 108.036  11
  -4  -2  16 1225.71 108.268   9
  -4   2  15 676.183 85.2576  11
  -4  -2  15 747.002 91.0571   9
  -4   2  14 5028.15 230.047  11
  -4  -2  14 4913.16 227.442   9
  -4   2  13 1364.40 121.618  11
  -4   2  13 1380.42 128.050   9
  -4  -2  13 1383.18 122.741   9
  -4   2  12 6999.43 266.674  11
  -4  -2  12 7263.31 271.048   9
  -4   2  12 7315.49 277.026   9
  -4  -2  12 7193.32 272.627  13
  -4   2  11 762.991 89.0058  11
  -4  -2  11 697.254 80.4090   9
  -4   2  11 887.177 93.4048   9
  -4  -2  11 628.402 81.3592  13
  -4   2  10 3523.48 240.576   4
  -4   2   9 2082.92 179.487   4
  -4   2   8 2173.47 177.052   4
  -4   2   7-21.4027 41.3773   4
  -4  -2   6 12630.0 344.915   4
  -4   2   6 11614.8 377.838   4
  -4  -2   5 342.823 60.0286   4
  -4   2   5 309.210 64.4219   4
  -4   2   4 35000.5 620.007   4
  -4  -2   4 36288.3 552.693   4
  -4   2   3 16547.2 416.870   4
  -4  -2   3 16396.3 366.979   4
  -4   2   2 13175.3 363.402   4
  -4  -2   2 12852.4 323.595   4
  -4   2   1 1920.85 140.081   4
  -4  -2   1 2054.71 132.082   4
  -4   2   0 18465.3 413.583   6
  -4   2   0 19556.2 435.294   4
  -4  -2  -1 1771.40 129.385   7
  -4   2  -1 1641.84 122.802   7
  -4   2  -1 1714.84 131.749   6
  -4   2  -1 1800.06 134.625   4
  -4  -2  -2 3583.78 186.596   7
  -4   2  -2 3254.91 174.379   7
  -4   2  -2 3380.31 189.156   6
  -4   2  -3 2327.58 151.024   7
  -4   2  -3 2274.34 159.146   6
  -4  -2  -4 33370.8 610.775   7
  -4   2  -4 34496.9 639.260   6
  -4   2  -5 21996.3 531.723   6
  -4   2  -6 24777.5 584.906   6
  -4   2  -7 11835.0 417.686   6
  -4   2  -8 2994.14 216.143   6
  -4   2  -9 4076.60 257.334   6
  -4  -2  -9 3980.54 212.619  14
  -4   2 -10 1184.60 104.767  16
  -4   2 -10 1213.34 111.372  14
  -4  -2 -10 1187.75 123.304  14
  -4   2 -11 8227.09 280.480  16
  -4   2 -11 8610.65 301.326  14
  -4  -2 -11 7983.46 312.789  14
  -4   2 -12 18714.4 426.926  16
  -4   2 -12 19298.1 448.830  14
  -4   2 -13 12053.9 337.165  15
  -4   2 -13 12368.6 351.223  14
  -4  -2 -13 11434.8 370.664  14
  -4   2 -14 682.916 79.7075  15
  -4   2 -14 773.290 89.8335  14
  -4  -2 -14 810.292 97.5060  14
  -4   2 -15 47.1167 24.7461  15
  -4  -2 -15 81.1858 39.8094  14
  -4   2 -16 1293.87 89.6609  15
  -4  -2 -16 1444.83 107.375  14
  -4  -2 -17 15.5674 22.1628  14
  -4   3  18-20.3303 25.5363  11
  -4  -3  18-16.1711 23.7249  11
  -4  -3  18 11.4993 21.5984   9
  -4  -3  17 798.460 81.7303  11
  -4  -3  17 734.437 77.0461   9
  -4   3  17 822.852 80.7340  11
  -4   3  16 415.809 64.8286  11
  -4  -3  16 386.456 64.8672   9
  -4   3  15 158.190 43.8177  11
  -4  -3  15 111.559 42.3450   9
  -4   3  14 911.264 100.911  11
  -4  -3  14 924.677 101.185   9
  -4   3  13 1645.98 132.381  11
  -4  -3  13 1404.29 124.629  13
  -4  -3  13 1774.42 136.867   9
  -4   3  12 3589.63 193.570  11
  -4  -3  12 3508.90 188.005   9
  -4  -3  12 3679.70 195.274  13
  -4   3  11 5659.79 237.056  11
  -4  -3  11 5425.56 232.117  13
  -4   3  10 318.310 73.7501   4
  -4   3   9 9397.06 385.486   4
  -4   3   8 394.910 76.9139   4
  -4   3   7 9436.50 362.455   4
  -4   3   6 155.384 52.2485   4
  -4   3   5 65.9370 42.2785   4
  -4   3   4 23320.4 519.306   4
  -4   3   3 176824. 1400.19   4
  -4   3   2 201183. 1461.38   4
  -4  -3   2 199983. 1237.15   4
  -4   3   1 267382. 1650.98   4
  -4  -3   0 6177.44 237.615   7
  -4   3   0 6376.74 243.141   6
  -4   3   0 6488.19 259.323   4
  -4  -3  -1 9681.43 301.790   7
  -4   3  -1 8992.92 277.583   7
  -4   3  -1 9420.37 305.680   6
  -4   3  -1 9745.96 315.998   4
  -4  -3  -2 202.593 54.6403   7
  -4   3  -2 133.858 50.1180   7
  -4   3  -2 168.473 50.1295   6
  -4  -3  -3 5933.88 251.994   7
  -4   3  -3 5872.37 236.035   7
  -4   3  -3 5360.89 250.219   6
  -4  -3  -4 491.527 85.6025   7
  -4   3  -4 615.834 91.1941   7
  -4   3  -4 451.622 80.0199   6
  -4   3  -5 21576.7 539.971   6
  -4   3  -6 100.086 51.5782   6
  -4   3  -7 908.868 120.629   6
  -4   3  -8 30.8456 47.1086   6
  -4   3  -9 13124.9 336.933  16
  -4  -3  -9 11798.0 368.175  14
  -4   3 -10 985.422 99.1051  16
  -4  -3 -10 721.931 96.9842  14
  -4   3 -11 4152.06 202.585  16
  -4  -3 -11 3770.36 215.743  14
  -4   3 -12 176.908 50.1951  16
  -4   3 -12 274.319 62.6226  15
  -4  -3 -12 153.719 51.5061  14
  -4   3 -13 4275.29 205.018  16
  -4   3 -13 4242.86 199.800  15
  -4  -3 -13 3848.17 213.699  14
  -4   3 -14 1315.65 106.606  15
  -4  -3 -14 1245.86 117.432  14
  -4   3 -15 94.2900 34.3269  15
  -4  -3 -15 104.122 43.5011  14
  -4  -3 -16 267.210 48.5178  14
  -4   3 -16 217.690 37.4593  15
  -4  -3 -17 543.096 56.3860  14
  -4  -4  18 734.778 65.8427  11
  -4  -4  18 754.604 62.6511   9
  -4   4  18 735.251 64.5559  11
  -4   4  17 12.6350 25.9629  11
  -4  -4  17-18.8738 25.8501   9
  -4   4  16 79.2507 37.9551  11
  -4  -4  16 76.8237 30.3625   9
  -4  -4  15 3537.32 182.989   9
  -4   4  15 3576.61 185.220  11
  -4  -4  14 3567.44 189.913   9
  -4   4  14 3573.73 192.401  11
  -4  -4  13 3179.27 181.144   9
  -4  -4  13 3323.93 186.163  13
  -4   4  13 3268.07 186.218  11
  -4   4  12 121.417 48.1548  11
  -4  -4  12 153.283 51.6631  13
  -4  -4  12 55.2425 30.3414   9
  -4   4  11-41.0763 39.9253  11
  -4  -4  11-3.45242 30.2824  13
  -4   4  10 396.528 64.3245  11
  -4  -4  10 563.422 78.0396  13
  -4   4   9 5564.58 300.444   4
  -4   4   8 253.733 68.1768   4
  -4   4   7 14573.2 460.421   4
  -4   4   6 1327.48 137.929   4
  -4   4   5 5570.22 270.830   4
  -4   4   4 9937.60 350.227   4
  -4   4   3 46648.8 737.459   4
  -4   4   2 77.1105 48.5675   4
  -4   4   1 657.165 89.9509   4
  -4   4   0 180.282 48.0221   4
  -4  -4   0 123.718 39.3362   7
  -4   4   0 205.707 48.0277   6
  -4   4  -1 64.1153 40.6914   4
  -4  -4  -1-3.15026 35.9923   7
  -4   4  -1 38.3781 27.8824   7
  -4   4  -1 25.1243 27.7703   6
  -4   4  -2 337.750 59.9201   7
  -4   4  -2 296.450 61.1307   6
   4  -4   2 287.099 54.3479   5
  -4  -4  -3 51.6755 49.0810   7
  -4   4  -3 1.24448 32.1910   6
   4  -4   3 10.0197 27.2047   5
  -4   4  -4 7045.42 304.345   6
  -4   4  -5 761.010 106.408   6
  -4   4  -6 926.051 118.831   6
  -4   4  -7 643.547 100.838   6
  -4   4  -8 614.110 104.988   6
  -4  -4  -8 759.688 92.7171  14
  -4   4  -9 8939.41 287.630  16
  -4  -4  -9 8874.83 319.359  14
  -4   4 -10 1629.79 125.964  16
  -4  -4 -10 1451.17 134.139  14
  -4   4 -11 439.426 70.8025  16
  -4  -4 -11 322.203 66.7234  14
  -4   4 -12 622.215 83.0942  16
  -4   4 -12 646.693 79.2942  15
  -4  -4 -12 697.158 94.5279  14
  -4   4 -13 2274.88 151.248  16
  -4   4 -13 2352.32 149.285  15
  -4  -4 -13 2257.05 159.048  14
  -4   4 -14 579.794 72.3492  15
  -4  -4 -14 805.887 94.2731  14
  -4   4 -15 1128.91 88.6890  15
  -4  -4 -15 1113.09 100.192  14
  -4   4 -16 1444.40 87.0167  15
  -4  -4 -16 1856.87 113.012  14
  -4  -4 -17 756.150 60.2892  14
  -4   5  18 139.909 28.0416  11
  -4  -5  18 119.495 26.4728  11
  -4   5  18 137.745 29.7149  10
  -4  -5  17 1314.93 88.7052   9
  -4   5  17 1371.09 95.1190  11
  -4   5  16-23.7686 33.2728  11
  -4  -5  16 15.7244 23.9993   9
  -4   5  15 16.5867 36.3052  11
  -4  -5  15-39.1963 38.6279   9
  -4   5  14 93.0175 42.9465  11
  -4  -5  14 98.9195 39.6518   9
  -4   5  13 316.836 72.8303  11
  -4  -5  13 324.310 63.6401   9
  -4  -5  13 203.170 54.9109  13
  -4  -5  12 14857.0 392.019  13
  -4   5  12 15830.8 403.967  11
  -4   5  11 72.8936 29.7853  11
  -4  -5  11 50.5351 32.0553  13
  -4  -5  10 1306.54 115.960  13
  -4   5  10 1448.85 119.141  11
  -4  -5   9 1608.71 125.513  13
  -4   5   9 1662.22 127.232  11
  -4   5   8 178.348 58.9830   4
  -4   5   7 19.9220 25.5463   4
  -4   5   6 952.136 121.256   4
  -4   5   5 2011.87 166.548   4
  -4   5   4 11473.2 385.358   4
  -4   5   3 7836.43 312.452   4
  -4   5   2 17649.0 455.483   4
  -4  -5   1 38748.5 600.483   7
   4  -5  -1 39890.3 610.634   5
  -4   5   1 40468.1 677.255   4
  -4   5   0 111.559 48.9052   4
  -4  -5   0 12.5149 41.8159   7
   4  -5   0 101.414 39.0864   5
  -4   5  -1 444.198 75.2832   4
  -4  -5  -1 271.769 61.8295   7
  -4   5  -1 328.081 62.8751   6
   4  -5   1 303.973 57.4724   5
  -4  -5  -2 202.266 60.5937   7
  -4   5  -2 270.786 61.8214   6
   4  -5   2 268.170 58.7213   5
  -4   5  -3 6709.46 291.450   6
   4  -5   3 7026.45 277.364   5
  -4   5  -4 998.153 117.416   6
   4  -5   4 1270.62 122.826   5
  -4   5  -5 24.5747 35.2209   6
   4  -5   5 27.2752 35.2582   5
  -4   5  -6 6314.83 310.825   6
  -4   5  -7 12225.1 445.082   6
  -4   5  -8 881.920 92.7286  16
  -4  -5  -8 806.971 96.1842  14
  -4   5  -9 9677.30 305.704  16
  -4  -5  -9 9508.23 326.989  14
  -4   5 -10 24.2144 29.2772  16
  -4  -5 -10-12.8705 39.3273  14
  -4   5 -11 687.826 88.2611  16
  -4   5 -11 716.100 85.2474  15
  -4  -5 -11 562.964 84.4524  14
  -4   5 -12 3850.47 199.161  16
  -4   5 -12 3826.13 190.640  15
  -4  -5 -12 3543.72 198.677  14
  -4   5 -13 3916.72 196.994  16
  -4   5 -13 3553.54 176.886  15
  -4  -5 -13 3852.09 202.642  14
  -4   5 -14 454.175 65.4922  16
  -4   5 -14 482.942 63.9917  15
  -4  -5 -14 444.581 68.0102  14
  -4   5 -15-17.4607 21.1974  15
  -4  -5 -15-2.75345 24.1058  14
  -4   5 -16 241.786 37.2749  15
  -4  -5 -16 297.685 45.8865  14
  -4   6  17 304.130 45.2914  11
  -4   6  17 344.162 46.4941  10
  -4  -6  17 311.762 41.7666   9
  -4   6  16 341.358 53.1260  11
  -4  -6  16 304.335 47.8293   9
  -4   6  15 79.0789 38.5846  11
  -4  -6  15-10.4084 28.0979   9
  -4  -6  14 4137.53 191.904   9
  -4   6  14 4734.51 211.628  11
  -4  -6  13 3843.06 193.765  13
  -4   6  13 3703.65 192.906  11
  -4  -6  12 4524.78 215.396  13
  -4   6  12 4678.45 220.416  11
  -4  -6  11 2945.76 175.872  13
  -4   6  11 2998.02 175.440  11
  -4   6  10 133.725 43.2364  11
  -4  -6  10 134.712 43.4147  13
  -4  -6   9 14940.1 384.749  13
  -4   6   9 15501.0 385.070  11
  -4  -6   8 2604.84 159.274  13
  -4   6   8 2537.95 151.732  11
  -4   6   7 13915.3 462.439   4
  -4   6   6 4995.13 269.855   4
  -4   6   5 14490.0 451.228   4
  -4   6   4 15355.6 454.208   4
  -4   6   3 3053.81 199.716   4
  -4   6   2 1296.83 127.452   4
   4  -6  -2 1172.49 114.449   5
  -4   6   1 219.239 52.9483   4
   4  -6  -1 202.368 53.4121   5
   4  -6   0 16783.2 431.455   5
  -4   6   0 17269.7 448.356   4
  -4   6  -1 292.116 59.4298   4
   4  -6   1 218.962 52.9223   5
   4  -6   2 221.245 58.9786   5
  -4   6  -3 3989.98 228.261   6
   4  -6   3 3974.20 219.830   5
  -4   6  -4 6958.12 310.803   6
   4  -6   4 7675.43 310.199   5
  -4   6  -5 148.496 48.6009   6
   4  -6   5 127.955 44.7829   5
  -4   6  -6 1217.93 141.463   6
   4  -6   6 1318.74 139.646   5
  -4   6  -7-14.0854 28.1645  16
  -4  -6  -7 47.8912 25.8827  14
  -4   6  -8 1090.13 107.241  16
  -4  -6  -8 1166.07 112.582  14
  -4   6  -9 293.661 59.4946  16
  -4  -6  -9 443.420 72.3399  14
  -4   6 -10 40.2606 40.4079  16
  -4  -6 -10 29.4740 32.1160  14
  -4   6 -11 5478.53 237.369  16
  -4   6 -11 5954.60 239.192  15
  -4  -6 -11 5548.12 244.388  14
  -4   6 -12 5211.86 228.299  16
  -4   6 -12 5134.47 217.200  15
  -4  -6 -12 5170.62 230.968  14
  -4   6 -13 3140.69 172.711  16
  -4   6 -13 3168.87 162.243  15
  -4  -6 -13 3434.05 179.141  14
  -4   6 -14 307.455 52.2929  16
  -4   6 -14 327.398 52.5582  15
  -4  -6 -14 363.790 56.2129  14
  -4   6 -15 682.350 61.2597  15
  -4  -6 -15 742.909 70.3724  14
  -4   7  17 56.0260 22.9215  11
  -4   7  16 4316.85 153.241  10
  -4   7  16 4315.47 164.185  11
  -4   7  15 331.849 57.7045  11
  -4   7  15 282.897 48.5892  10
  -4  -7  15 344.833 49.7118   9
  -4   7  14 443.299 69.9453  11
  -4   7  14 495.953 67.2457  10
  -4   7  13 87.6582 40.1492  11
  -4  -7  13 48.1954 28.3721  13
  -4   7  12 14.7635 25.8010  11
  -4  -7  12-41.5886 39.3192  13
  -4   7  11 181.794 54.2733  11
  -4  -7  11 208.770 51.2595  13
  -4   7  10 155.401 48.9726  11
  -4  -7  10 61.5277 32.3415  13
  -4  -7   9 1900.44 141.574  13
  -4   7   9 1707.30 132.117  11
  -4  -7   8 4727.53 218.869  13
  -4   7   8 4323.23 203.782  11
  -4   7   7 37.0907 28.6005  11
  -4  -7   7 40.1053 31.0916  13
  -4  -7   6 29.6229 26.3160  13
  -4   7   6 25.9956 36.1503   4
  -4   7   5 86.4964 38.5651   4
  -4   7   4 348.948 70.1924   4
  -4   7   3 1876.23 158.525   4
   4  -7  -3 1639.97 142.924   5
   4  -7  -2 11019.8 367.731   5
  -4   7   2 11519.4 378.071   4
   4  -7  -1 4646.75 237.731   5
  -4   7   1 4990.88 245.699   4
   4  -7   0 143.284 46.9829   5
   4  -7   1 857.224 106.840   5
   4  -7   2 50.5693 40.3678   5
   4  -7   3 9326.13 350.702   5
   4  -7   4 11587.4 399.058   5
  -4   7  -5 6086.73 302.480   6
  -4   7  -5 6855.76 254.945  16
   4  -7   5 6378.51 301.729   5
  -4   7  -6 558.129 78.6977  16
  -4   7  -7 1125.12 109.443  16
  -4   7  -8 521.113 75.4500  16
  -4  -7  -8 462.726 72.6453  14
  -4   7  -9 4886.44 224.538  16
  -4  -7  -9 5025.28 228.442  14
  -4   7 -10 0.65654 32.2113  16
  -4  -7 -10 18.4661 27.1062  14
  -4   7 -11 3271.96 182.613  16
  -4  -7 -11 3371.24 183.275  14
  -4   7 -12 168.719 50.1717  16
  -4   7 -12 137.749 42.2025  15
  -4  -7 -12 121.280 41.9374  14
  -4   7 -13 3578.35 176.702  16
  -4   7 -13 3649.09 165.761  15
  -4  -7 -13 3957.92 175.692  14
  -4   7 -14 613.925 69.1441  16
  -4   7 -14 638.570 65.5483  15
  -4  -7 -14 705.301 68.8999  14
  -4  -7 -15 466.968 48.0974  14
  -4   8  16 5773.72 168.132   8
  -4   8  15 1179.09 90.8963  11
  -4   8  14 600.050 74.5978  11
  -4   8  13 90.5652 40.7977  11
  -4  -8  13 70.9125 29.4771  13
  -4   8  12 165.454 54.8615  11
  -4  -8  12 47.1887 33.7337  13
  -4   8  11 324.359 60.0182  11
  -4  -8  11 296.856 61.8649  13
  -4  -8  10 998.786 103.820  13
  -4   8  10 1029.20 105.676  11
  -4   8   9 376.154 66.8562  11
  -4  -8   9 356.031 64.9964  13
  -4  -8   8 17117.1 419.457  13
  -4   8   8 18118.5 425.113  11
  -4  -8   7 5509.79 239.565  13
  -4   8   7 5988.88 240.212  11
  -4  -8   6 3888.99 199.599  13
  -4   8   6 3833.40 188.529  11
  -4  -8   5 5566.50 237.667  13
  -4   8   5 5179.79 213.442  11
  -4   8   5 5461.31 225.618   8
   4  -8  -4 11208.5 394.013   5
   4  -8  -3 17.9828 32.7688   5
   4  -8  -2 9315.76 355.834   5
   4  -8  -1-67.9785 54.5910   5
   4  -8   0 17105.5 488.405   5
   4  -8   1 129.281 44.1468   5
  -4   8  -2 15650.7 380.069  16
   4  -8   2 15133.8 459.447   5
  -4   8  -3 13912.3 363.388  16
  -4   8  -4 13942.2 368.523  16
  -4   8  -5 6626.77 258.280  16
  -4   8  -6 19824.6 450.069  16
  -4   8  -7 2248.71 154.976  16
  -4   8  -8 2943.01 179.175  16
  -4   8  -9 27.8782 36.9555  16
  -4   8 -10 12913.2 356.812  16
  -4   8 -11 3566.96 186.366  16
  -4   8 -12 2370.56 146.038  16
  -4   8 -12 2525.22 139.984  15
  -4   8 -13 251.459 51.6528  16
  -4   8 -13 177.332 32.9713  15
  -4   8 -14 229.612 37.5026  15
  -4   9  15 37.8192 25.7214   8
  -4   9  14 1726.01 108.252   8
  -4  -9  13 41.2999 23.3071  13
  -4  -9  12 49.2195 32.1438  13
  -4   9  12 81.6096 36.0869  11
  -4   9  11 348.627 66.8115  11
  -4  -9  11 353.395 62.7107  13
  -4  -9  10 1414.33 119.645  13
  -4   9  10 1227.58 112.656  11
  -4   9   9-19.6482 30.4662  11
  -4  -9   9-5.13641 30.3153  13
  -4  -9   8 2618.54 165.976  13
  -4   9   8 2311.18 154.388  11
  -4   9   8 2500.90 160.522   8
  -4   9   7 85.6628 45.1867   8
  -4  -9   7 26.9325 34.0958  13
  -4   9   6 183.359 49.9457   8
  -4  -9   6 83.7101 30.4628  13
  -4   9   5 15.7786 30.9589   8
  -4  -9   5 37.5607 31.5060  13
  -4   9   4 670.254 84.0001   8
  -4   9   3 1257.70 110.665   8
  -4   9   2 4941.60 218.018  16
  -4   9   2 5105.91 217.648   8
  -4   9   1 3647.97 189.446  16
  -4   9   1 3946.49 191.251   8
  -4   9   0 28294.3 522.025  16
  -4   9   0 28651.1 510.875   8
  -4   9  -1 44.9617 27.7746   8
  -4   9  -1 149.359 47.4479  16
  -4   9  -2 422.457 67.9488  16
  -4   9  -2 557.110 73.6784   8
  -4   9  -3 542.364 80.3750  16
  -4   9  -4 123.292 47.9820  16
  -4   9  -5 14561.4 388.179  16
  -4   9  -6 2657.57 167.061  16
  -4   9  -7 1691.75 132.365  16
  -4   9  -8 640.461 83.2887  16
  -4   9  -9 168.608 51.0487  16
  -4   9 -10 42.1038 41.6046  16
  -4   9 -11 0.86595 28.1742  16
  -4   9 -12 642.533 76.2756  16
  -4   9 -12 460.082 57.3114  15
  -4   9 -13 96.9202 37.0963  16
  -4   9 -13 86.0380 22.2426  15
  -4  10  14 179.569 33.8421   8
  -4  10  13 364.119 52.1440   8
  -4 -10  12 849.413 76.7636  13
  -4  10  12 887.273 84.1343   8
  -4 -10  11 491.317 64.8349  13
  -4  10  11 487.613 70.0812   8
  -4 -10  10 3026.30 162.751  13
  -4  10  10 3143.48 171.157   8
  -4 -10   9 2091.89 141.580  13
  -4  10   9 2313.79 151.003   8
  -4  10   8 375.191 65.6819   8
  -4 -10   8 421.740 69.6945  13
  -4  10   7 297.320 60.7051   8
  -4 -10   7 233.287 53.7062  13
  -4  10   6 253.748 61.4730   8
  -4 -10   6 297.051 65.3600  13
  -4  10   5 43.2470 31.5377   8
  -4 -10   5 21.4887 26.3793  13
  -4  10   4 411.456 68.6316   8
  -4 -10   4 398.460 69.3728  13
  -4  10   3 2621.84 162.336  16
  -4  10   3 2677.32 162.961   8
  -4  10   2 308.274 61.4271   8
  -4  10   2 338.008 65.1713  16
  -4  10   1 1232.33 112.492  16
  -4  10   1 1511.64 122.070   8
  -4  10   0 1088.88 106.233  16
  -4  10   0 863.930 94.9880   8
  -4  10  -1 2139.59 148.693  16
  -4  10  -1 2515.09 156.717   8
  -4  10  -2 3981.82 201.049  16
  -4  10  -2 4103.95 199.803   8
  -4  10  -3 5054.42 226.641  16
  -4  10  -3 5273.87 226.116   8
  -4  10  -4 1709.27 134.341  16
  -4  10  -4 1984.48 138.947   8
  -4  10  -5 7187.79 269.630  16
  -4  10  -6 1383.77 119.956  16
  -4  10  -7 195.011 53.3092  16
  -4  10  -8 25.7072 32.6776  16
  -4  10  -9 61.4943 42.0940  16
  -4  10 -10 1490.71 112.486  16
  -4  10 -11 157.026 39.8558  16
  -4  10 -11 156.779 37.4502  15
  -4  10 -12 537.560 60.4717  16
  -4  10 -12 444.912 48.3045  15
  -4  11  13 923.510 68.2367   8
  -4  11  12 2464.69 123.453   8
  -4  11  11 108.727 37.0273   8
  -4 -11  11 54.8538 21.2971  13
  -4  11  10 382.511 60.6659   8
  -4 -11  10 424.728 58.0399  13
  -4  11   9 299.352 57.0533   8
  -4 -11   9 477.821 66.8154  13
  -4  11   8 14.0588 33.1507   8
  -4 -11   8-16.6606 30.1565  13
  -4 -11   7 705.706 84.9026  13
  -4  11   7 691.010 83.3733   8
  -4  11   6 1207.13 108.082  16
  -4 -11   6 1126.76 109.281  13
  -4  11   6 1142.44 106.747   8
  -4  11   5 321.109 67.1566   8
  -4  11   5 323.559 59.0934  16
  -4 -11   5 397.425 65.3378  13
  -4  11   4-16.4941 30.8648   8
  -4  11   4 8.43297 27.2469  16
  -4 -11   4-45.2892 39.9653  13
  -4  11   3 2425.66 153.926  16
  -4  11   3 2760.54 167.393   8
  -4  11   2 5925.11 239.877  16
  -4  11   2 5805.82 241.725   8
  -4  11   1 468.359 71.8400  16
  -4  11   1 599.076 80.7795   8
  -4  11   0 1809.58 134.561  16
  -4  11   0 1884.41 137.396   8
  -4  11  -1 3657.71 189.922  16
  -4  11  -1 3496.51 187.087   8
  -4  11  -2 3756.53 193.835  16
  -4  11  -2 3974.44 196.917   8
  -4  11  -3 2648.01 163.322  16
  -4  11  -3 2892.10 166.585   8
  -4  11  -4 34.3543 32.4003  16
  -4  11  -4 34.3072 28.8847   8
  -4  11  -5 1531.28 122.310  16
  -4  11  -6 1948.25 134.992  16
  -4  11  -7 1812.25 127.089  16
  -4  11  -8 259.812 53.5317  16
  -4  11  -9 6862.20 226.474  16
  -4  11 -10 85.3736 31.3903  16
  -4  11 -11 1677.42 98.6232  16
  -4  12  12 454.091 47.3044   8
  -4  12  11 58.2088 29.3953   8
  -4  12  10 637.803 58.0971  16
  -4 -12  10 620.262 57.7201  13
  -4  12  10 617.827 65.9988   8
  -4  12   9 2775.89 128.493  16
  -4 -12   9 2852.76 135.320  13
  -4  12   9 2473.54 134.498   8
  -4  12   8 20.5626 26.9326   8
  -4  12   8-24.4264 30.7017  16
  -4 -12   8 46.1535 29.9323  13
  -4  12   7 2755.04 142.061  16
  -4 -12   7 2759.21 150.359  13
  -4  12   7 2459.13 144.634   8
  -4  12   6 62.6855 31.8123   8
  -4  12   6 0.29403 25.0694  16
  -4 -12   6 15.2771 25.2475  13
  -4  12   5 296.143 57.0984   8
  -4  12   5 352.577 56.9387  16
  -4 -12   5 351.231 63.0368  13
  -4  12   4 99.9713 38.0200   8
  -4  12   4 107.455 43.5829  16
  -4 -12   4 93.4460 36.2732  13
  -4  12   3-22.6421 33.3804   8
  -4  12   3 25.5068 27.0178  16
  -4 -12   3-28.6731 37.3607  13
  -4  12   2 1394.94 112.337  16
  -4  12   2 1342.34 116.001   8
  -4  12   1 754.395 85.4186  16
  -4  12   1 671.807 83.4965   8
  -4  12   0 153.587 48.7860  16
  -4  12   0 153.707 39.3570   8
  -4  12  -1 656.700 80.7348  16
  -4  12  -1 697.426 83.5870   8
  -4  12  -2 469.005 68.6738  16
  -4  12  -2 498.981 73.2761   8
  -4  12  -3 254.060 54.0788  16
  -4  12  -3 293.323 55.9227   8
  -4  12  -4 2463.90 145.480  16
   4 -12   4 2421.44 140.632   9
  -4  12  -5 486.691 66.4111  16
   4 -12   5 507.523 64.4814   9
  -4  12  -6 2395.61 136.171  16
  -4  12  -7 0.33027 23.1059  16
  -4  12  -8 833.200 75.9082  16
  -4  12  -9 236.246 40.5415  16
  -4  12 -10 48.3975 21.7548  16
  -4  13  10 514.331 51.4197   8
  -4  13   9 1071.13 78.2624   8
  -4  13   8 352.088 51.9401   8
  -4 -13   8 292.324 42.8319  13
  -4 -13   7 610.783 62.4879  13
  -4  13   7 548.311 66.3304   8
  -4  13   6 330.747 52.1171   8
  -4 -13   6 453.783 60.2543  13
  -4  13   5 623.258 64.2607  16
  -4 -13   5 697.803 74.8553  13
  -4  13   5 561.855 70.3064   8
  -4  13   4 577.590 64.7130  16
  -4 -13   4 568.052 70.5107  13
  -4  13   4 615.521 73.4021   8
  -4  13   3 3296.54 151.202  16
  -4 -13   3 3282.69 167.580  13
  -4  13   3 3286.80 165.066   8
  -4  13   2 517.303 63.7299  16
  -4  13   2 494.461 67.3704   8
  -4 -13   2 483.595 70.0321  13
  -4  13   1 434.444 58.9989  16
  -4  13   1 500.516 68.6571   8
  -4  13   0 105.142 44.9737  16
  -4  13   0-8.44579 27.3411   8
  -4  13  -1 3852.87 168.235  16
  -4  13  -1 3358.63 165.884   8
  -4  13  -2 1131.50 93.0981  16
  -4  13  -2 1158.61 99.1251   8
  -4  13  -3 3514.81 156.663  16
   4 -13   3 3206.11 152.301   9
  -4  13  -4 472.417 60.1087  16
   4 -13   4 481.121 60.6423   9
  -4  13  -5 547.707 62.5633  16
   4 -13   5 498.610 56.7834   9
  -4  13  -6 6728.83 194.656  16
  -4  13  -7 867.373 67.9841  16
  -4  13  -8 487.172 47.3855  16
  -4  14   8 2370.41 100.044   8
  -4  14   7 5638.29 166.253   8
  -4  14   6 85.6817 29.1530   8
  -4 -14   6 81.2351 25.4022  13
  -4 -14   5 2646.16 117.748  13
  -4  14   5 2481.67 122.522   8
  -4 -14   4 1079.04 80.6074  13
  -4  14   4 1006.48 81.8679   8
  -4 -14   3 52.7262 27.4176  13
  -4  14   3 42.9731 26.5083   8
  -4 -14   2 637.514 67.9619  13
  -4  14   2 602.458 66.4941   8
  -4 -14   1 425.425 58.5479  13
  -4  14   1 264.344 45.2817   8
  -4 -14   0 209.508 44.2456  13
  -4  14   0 188.673 41.0592   8
  -4  14  -1 1159.94 90.3497   8
   4 -14   2 37.7918 24.7959   9
   4 -14   3 1343.90 85.5279   9
   4 -14   4 429.007 48.5681   9
  -4  15   3 1142.01 71.3403   8
  -4  15   2 794.718 61.2080   8
  -4  15   1 796.015 61.4162   8
  -4 -15   1 950.503 64.8204  13
   4 -15   0 90.3351 24.0310   9
  -4 -15   0 157.662 32.4447  13
  -4 -15  -1-26.5487 20.5589  13
  -4 -15  -2 47.2876 23.7838  13
  -5   0  18-8.89315 19.9560  11
  -5   0  17 50.8772 23.5051  11
  -5   0  17 70.1167 27.7056  10
  -5   0  16-32.4378 34.8568  11
  -5   0  16 38.5464 26.3969  10
  -5   0  15 115.264 37.2958  11
  -5   0  14-6.57425 31.2456  11
  -5   0  13 2127.52 145.348  11
  -5   0  12-8.35132 29.5933  11
  -5   0  11 19.7009 33.0547  11
  -5   0  10-18.1902 34.8697  13
  -5   0   9 443.228 90.8351   4
  -5   0   9 489.304 74.1962  13
  -5   0   8 6.85343 27.1400   4
  -5   0   7 11194.5 396.724   4
  -5   0   6-19.0547 38.2456   4
  -5   0   5 797.434 103.099   4
  -5   0   4-34.0468 31.9015   4
  -5   0   3 271.237 63.1732   4
  -5   0   2-23.4288 28.2230   4
  -5   0   1 21055.7 504.217   4
  -5   0  -1 704.781 97.1726   7
  -5   0  -2-24.2802 45.5178   7
  -5   0  -3 34587.2 666.161   7
  -5   0  -4 51.3847 63.9526   7
  -5   0  -6 76.0205 51.3255   6
  -5   0  -7 12562.2 350.412  10
  -5   0  -7 12379.8 362.960  14
  -5   0  -8-34.9792 40.8003  14
  -5   0  -9 6198.54 268.428  14
  -5   0 -10-3.96025 29.2398  14
  -5   0 -11 11631.6 364.264  14
  -5   0 -12 43.5889 30.1740  14
  -5   0 -13 4597.06 212.930  14
  -5   0 -14 8.40272 24.2032  14
  -5   0 -15 56.0442 24.7033  14
  -5   1  18 54.0589 18.7022  11
  -5  -1  18 105.776 27.7574  11
  -5   1  18 55.0503 17.9340  10
  -5   1  17 274.844 44.4892  11
  -5  -1  17 314.221 47.7623  11
  -5  -1  17 379.821 48.8923  10
  -5   1  17 333.696 50.1376  10
  -5   1  16 55.2428 31.2757  11
  -5  -1  16-0.62293 24.5609  11
  -5  -1  16 48.7757 27.1289  10
  -5   1  15 5048.61 209.567  11
  -5  -1  15 5079.94 210.788  11
  -5   1  14 1071.60 102.392  11
  -5  -1  14 1101.95 104.912  11
  -5   1  13 5557.85 234.673  11
  -5  -1  13 5557.22 233.664  11
  -5   1  12 121.116 39.7261  11
  -5   1  11 490.866 70.7563  11
  -5  -1  11 518.494 76.6258  13
  -5   1  10 825.883 86.5631  11
  -5  -1  10 955.322 101.627  13
  -5  -1   9 1275.30 111.067  13
  -5   1   8 153.106 58.6814   4
  -5   1   7 5750.16 293.195   4
  -5  -1   7 5954.25 280.063   4
  -5   1   6 1541.32 150.064   4
  -5  -1   6 1545.58 138.927   4
  -5   1   5 3991.77 233.741   4
  -5  -1   5 3768.25 213.704   4
  -5   1   4 2592.46 185.583   4
  -5  -1   4 2776.79 179.900   4
  -5   1   3 4812.22 248.902   4
  -5  -1   3 4915.79 239.467   4
  -5   1   2 11174.9 375.186   4
  -5  -1   2 11172.7 359.236   4
  -5   1   1 174.319 59.7389   4
  -5  -1   1 287.348 62.2837   4
  -5  -1   0 4942.67 242.705   7
  -5   1   0 5285.71 259.585   4
  -5  -1  -1 3006.70 190.123   7
  -5   1  -1 3269.83 198.120   7
  -5  -1  -2 3712.10 216.363   7
  -5   1  -2 3688.19 215.524   7
  -5  -1  -3 925.060 115.546   7
  -5   1  -3 806.739 108.769   7
  -5  -1  -4 5238.36 270.362   7
  -5   1  -4 5164.35 266.791   7
  -5   1  -4 4563.70 259.745   6
  -5   1  -5 2351.10 191.178   6
  -5   1  -6 5131.76 286.996   6
  -5  -1  -7 4716.18 216.116  10
  -5   1  -7 4647.62 218.957  10
  -5   1  -7 4807.64 221.867  14
  -5  -1  -7 4296.39 218.832  14
  -5   1  -8 43.6966 32.9278  14
  -5  -1  -8 81.1778 40.6967  14
  -5   1  -9 3258.40 191.492  14
  -5  -1  -9 2897.12 186.382  14
  -5   1 -10 2487.75 168.205  14
  -5  -1 -10 2307.76 167.295  14
  -5   1 -11 3680.38 200.756  14
  -5  -1 -11 3364.60 201.344  14
  -5   1 -12 4368.27 211.989  14
  -5  -1 -12 3949.60 211.441  14
  -5   1 -13 2713.12 157.494  14
  -5  -1 -13 2531.24 161.110  14
  -5   1 -14 53.9580 30.1505  14
  -5  -1 -14 93.3787 35.1696  14
  -5   1 -15 3043.00 131.696  14
  -5  -1 -15 3035.81 144.972  14
  -5  -1 -16 130.734 28.7950  14
  -5   2  18 87.4053 23.8402  11
  -5  -2  18 124.168 26.6957  11
  -5   2  18 90.1341 26.0762  10
  -5  -2  17 291.192 44.5127  11
  -5   2  17 306.086 48.5967  10
  -5   2  17 391.423 51.4405  11
  -5  -2  16 1550.51 108.034  11
  -5   2  16 1523.90 114.223  10
  -5   2  16 1631.14 110.658  11
  -5   2  15 154.110 41.5200  11
  -5  -2  15 188.100 49.7135  11
  -5   2  14 3834.24 188.491  11
  -5   2  13 308.023 60.8167  11
  -5   2  12 2713.53 163.640  11
  -5  -2  12 2810.03 173.700  13
  -5   2  11 2843.16 165.576  11
  -5  -2  11 3028.54 176.305  13
  -5   2  10 1068.78 102.065  11
  -5  -2  10 974.562 102.034  13
  -5  -2   9 5617.69 233.766  13
  -5   2   8 9863.63 400.753   4
  -5   2   7 4268.74 258.788   4
  -5   2   6 1651.37 159.332   4
  -5   2   5 1710.09 156.280   4
  -5   2   4 349.960 73.9516   4
  -5  -2   4 422.790 70.6255   4
  -5   2   3 12655.9 409.191   4
  -5  -2   3 12891.2 376.173   4
  -5   2   2 3327.82 211.740   4
  -5  -2   2 3620.16 199.702   4
  -5   2   1 2659.37 186.954   4
  -5  -2   0 3544.51 206.457   7
  -5   2   0 3470.10 213.915   4
  -5  -2  -1 3437.96 205.619   7
  -5   2  -1 3689.21 208.813   7
  -5  -2  -2 11502.8 380.834   7
  -5   2  -2 11942.9 380.532   7
  -5  -2  -3 493.201 90.8393   7
  -5   2  -3 456.402 84.8454   7
  -5   2  -3 474.186 86.4301   6
  -5  -2  -4 278.222 72.8552   7
  -5   2  -4 297.350 76.3466   7
  -5   2  -4 209.279 57.8627   6
  -5   2  -5 4472.10 263.853   6
  -5   2  -6 1698.07 166.730   6
  -5   2  -7 8.86486 24.3391  14
  -5  -2  -7-24.7637 29.9189  14
  -5   2  -8 7479.33 285.365  10
  -5  -2  -8 7041.86 290.077  14
  -5   2  -9 320.930 57.8536  14
  -5  -2  -9 240.425 57.1547  14
  -5   2 -10 124.739 38.8194  14
  -5  -2 -10 100.622 39.4009  14
  -5   2 -11 511.255 73.0004  14
  -5  -2 -11 460.853 77.6512  14
  -5   2 -12 553.998 73.7229  14
  -5  -2 -12 424.160 72.8995  14
  -5  -2 -13 98.0058 42.5701  14
  -5  -2 -14 2237.86 141.586  14
  -5  -2 -15 444.921 58.7978  14
  -5  -2 -16 1279.89 78.8675  14
  -5  -3  17 838.546 70.3971  11
  -5   3  17 762.370 71.4337  10
  -5   3  17 776.366 66.0861  11
  -5   3  16 33.7920 32.6108  11
  -5  -3  16-28.0643 30.9442  11
  -5   3  16 48.8923 34.2546  10
  -5   3  15 142.408 41.4123  11
  -5  -3  15 144.653 47.2457  11
  -5   3  14 12440.4 334.717  11
  -5   3  13 2063.01 142.137  11
  -5  -3  12 1686.45 136.262  13
  -5   3  12 1747.19 132.541  11
  -5  -3  11 4069.52 207.057  13
  -5   3  11 4079.79 198.986  11
  -5  -3  10 7121.01 269.771  13
  -5   3  10 7392.91 261.525  11
  -5  -3   9 1406.37 119.552  13
  -5  -3   8 4568.34 206.456  13
  -5   3   7 24.4184 43.5392   4
  -5   3   6 1213.34 141.236   4
  -5   3   5 6448.67 311.032   4
  -5   3   4 16475.7 485.016   4
  -5   3   3 7825.20 329.410   4
  -5   3   2 7729.42 325.505   4
  -5  -3   1 9340.83 331.675   7
  -5   3   1 9710.58 362.240   4
  -5   3   0 298.064 72.3908   4
  -5  -3   0 354.607 72.7111   7
  -5   3   0 345.308 71.2403   7
  -5  -3  -1 137.893 55.9177   7
  -5   3  -1 149.568 45.5825   7
  -5  -3  -2 684.204 101.197   7
  -5   3  -2 811.377 103.654   7
  -5   3  -2 843.336 110.412   6
  -5  -3  -3 214.102 64.9166   7
  -5   3  -3 354.715 76.1537   7
  -5   3  -3 256.552 63.5661   6
  -5   3  -4 4048.36 233.302   7
  -5   3  -4 3656.56 236.677   6
  -5   3  -5 145.329 55.1215   6
  -5   3  -6 7479.72 273.867  10
  -5  -3  -6 7129.50 279.611  14
  -5   3  -7 3883.95 203.826  10
  -5  -3  -7 3709.00 207.460  14
  -5  -3  -8 3779.94 212.774  14
  -5  -3  -9 161.157 48.6393  14
  -5  -3 -10 70.6853 33.7860  14
  -5  -3 -11 1036.28 112.004  14
  -5  -3 -12 480.213 77.6426  14
  -5  -3 -13 193.571 49.9160  14
  -5  -3 -14 648.648 76.0946  14
  -5  -3 -15 1509.32 101.384  14
  -5  -4  17 739.426 61.9422  11
  -5   4  17 804.161 69.7003  10
  -5   4  17 831.489 65.3943  11
  -5  -4  16 1742.06 107.228  11
  -5   4  16 1992.25 121.739  10
  -5   4  16 1727.62 107.157  11
  -5   4  15 33.0295 28.2646  11
  -5   4  15 49.5966 32.3165  10
  -5   4  14 21806.8 432.925  11
  -5  -4  13 2352.56 155.149  13
  -5   4  13 2457.74 152.918  11
  -5  -4  12 737.012 90.6475  13
  -5   4  12 801.160 91.1756  11
  -5   4  11 40.9137 25.4648  11
  -5  -4  11 86.1984 34.5551  13
  -5  -4  10 1761.13 137.833  13
  -5   4  10 1739.40 127.780  11
  -5  -4   9 2134.55 150.071  13
  -5   4   8 2583.84 168.758  10
  -5  -4   8 2705.64 162.820  13
  -5   4   7 1183.88 112.010  10
  -5   4   7 1161.84 141.775   4
  -5  -4   7 1275.42 110.602  13
  -5   4   6 7674.26 351.515   4
  -5   4   5 4387.26 261.408   4
  -5   4   4 1599.25 155.825   4
  -5   4   3 1871.02 165.497   4
  -5   4   2 100.382 40.8190   4
  -5  -4   2 129.408 51.6000   7
  -5  -4   1 2946.29 191.049   7
  -5   4   1 3051.57 207.488   4
  -5   4   0 25630.1 535.286   7
  -5   4   0 25819.7 596.490   4
  -5  -4  -1-9.78910 35.4614   7
  -5   4  -1-9.85959 41.8813   7
  -5  -4  -2 680.067 99.9322   7
  -5   4  -2 631.501 94.0455   6
  -5  -4  -3 512.874 94.4895   7
  -5   4  -3 486.415 86.3887   6
  -5   4  -4 9.36726 28.0182   6
  -5   4  -5 640.389 85.7905  10
  -5   4  -5 606.847 102.148   6
  -5  -4  -5 581.004 79.4608  14
  -5   4  -6 2026.05 149.159  10
  -5   4  -6 2337.55 146.422  16
  -5  -4  -6 2010.02 151.188  14
  -5   4  -7 1307.14 123.010  10
  -5   4  -7 1499.35 118.325  16
  -5  -4  -7 1455.66 134.086  14
  -5   4  -8 1825.65 130.518  16
  -5  -4  -8 1553.22 137.959  14
  -5   4  -9 1430.73 118.398  16
  -5  -4  -9 1256.95 125.856  14
  -5   4 -10 7546.34 265.475  16
  -5  -4 -10 7097.49 289.293  14
  -5   4 -11 1562.28 121.171  16
  -5  -4 -11 1512.52 132.861  14
  -5   4 -12 1428.02 111.056  16
  -5  -4 -12 1615.97 132.663  14
  -5  -4 -13 259.263 55.5868  14
  -5  -4 -14 420.745 60.2439  14
  -5  -4 -15 627.300 63.3831  14
  -5  -5  17 312.773 38.1260  11
  -5   5  17 384.097 44.9426  10
  -5   5  17 377.365 42.8922  11
  -5   5  16 25.9257 23.3152  11
  -5  -5  16 42.8542 26.3540  11
  -5   5  16 7.96823 20.9983  10
  -5   5  15 167.264 42.4373  11
  -5   5  15 184.116 42.8382  10
  -5   5  14 14.9714 27.2713  11
  -5   5  14 34.0527 33.2393  10
  -5   5  13 2432.56 159.986  10
  -5  -5  13 2099.14 144.724  13
  -5   5  13 2390.17 147.241  11
  -5   5  12 5307.61 240.762  10
  -5  -5  12 5295.00 232.244  13
  -5   5  12 5485.25 226.586  11
  -5   5  11 9403.74 325.321  10
  -5  -5  11 9342.34 311.487  13
  -5   5  11 9680.25 301.813  11
  -5   5  10 2445.28 167.885  10
  -5  -5  10 2473.37 162.381  13
  -5   5  10 2550.01 155.312  11
  -5   5   9 121.750 39.8396  11
  -5   5   9 26.5023 28.5011  10
  -5  -5   9 117.719 41.0730  13
  -5   5   8 3352.97 193.085  10
  -5  -5   8 3629.44 192.486  13
  -5   5   7 698.192 88.0830  10
  -5  -5   7 705.624 86.8169  13
  -5   5   6 5652.50 238.625  10
  -5  -5   6 5851.56 235.742  13
  -5   5   5 6990.77 332.987   4
  -5   5   4 11214.5 411.334   4
  -5  -5   3 4423.69 229.542   7
  -5   5   3 4288.53 251.768   4
  -5   5   2-3.05804 43.6716   4
  -5  -5   2 33.8641 36.0444   7
  -5  -5   1 4500.90 234.710   7
  -5   5   1 4565.60 255.155   4
  -5   5   0 347.226 79.7870   4
  -5  -5   0 302.326 65.8709   7
  -5  -5  -1 2303.59 172.891   7
  -5  -5  -2 6606.16 296.453   7
  -5   5  -2 6182.37 293.012   6
  -5   5  -3 355.071 81.2173   6
  -5   5  -4 8197.04 278.358  10
  -5   5  -4 7262.05 337.204   6
  -5  -5  -4 8038.36 288.081  14
  -5   5  -5 508.947 78.3833  10
  -5   5  -5 536.219 73.1542  16
  -5  -5  -5 455.694 71.7540  14
  -5   5  -6 1958.62 144.576  10
  -5   5  -6 2132.91 144.668  16
  -5  -5  -6 1935.29 148.449  14
  -5   5  -7 17085.3 419.643  10
  -5   5  -7 18505.6 417.489  16
  -5  -5  -7 17428.7 445.807  14
  -5   5  -8 7856.37 274.809  16
  -5  -5  -8 7731.66 300.146  14
  -5   5  -9 2231.47 147.457  16
  -5  -5  -9 2072.23 156.119  14
  -5   5 -10 582.529 77.2963  16
  -5  -5 -10 446.790 76.1849  14
  -5   5 -11 191.373 48.6293  16
  -5  -5 -11 153.384 44.3378  14
  -5   5 -12 145.648 39.7955  16
  -5  -5 -12 139.190 44.5383  14
  -5   5 -13 484.407 64.3004  16
  -5  -5 -13 573.727 72.4410  14
  -5  -5 -14 1000.03 83.2762  14
  -5  -5 -15 200.424 34.3341  14
  -5   6  16 291.933 42.7198  11
  -5  -6  16 307.703 43.3835  11
  -5   6  16 319.144 44.1555  10
  -5   6  15 340.844 49.6859  11
  -5   6  15 355.366 52.9009  10
  -5   6  14 2222.14 135.356  10
  -5   6  14 1941.73 122.791  11
  -5   6  13 48.2150 27.2567  11
  -5   6  13 95.6806 33.8050  10
  -5  -6  13 147.185 48.1002  13
  -5   6  12 892.951 97.6149  10
  -5  -6  12 885.946 96.9068  13
  -5   6  12 1020.66 98.0661  11
  -5   6  11 29.7184 25.8302  11
  -5   6  11 47.5160 33.3494  10
  -5  -6  11-20.8980 39.6364  13
  -5   6  10 101.415 35.4940  11
  -5   6  10 115.888 41.3621  10
  -5  -6  10 72.4355 36.0854  13
  -5   6   9 1852.73 142.445  10
  -5  -6   9 2189.89 153.601  13
  -5   6   9 2303.68 146.060  11
  -5   6   8 1.23553 27.0438  10
  -5  -6   8 8.91952 30.5158  13
  -5   6   7 184.720 53.4829  10
  -5  -6   7 89.0895 39.6401  13
  -5   6   6 914.064 97.0222  10
  -5  -6   6 871.547 95.7228  13
  -5   6   5 897.920 95.5227  10
  -5  -6   5 926.601 98.4308  13
  -5   6   4 104.973 36.2760  10
  -5  -6   4 120.392 45.8688  13
  -5   6   3 4693.54 265.025   4
  -5   6   2 78.4470 52.7807   4
  -5   6   1 7100.84 319.744   4
  -5   6   0 22177.8 559.986   4
  -5   6  -2 4960.51 213.636  10
  -5   6  -2 5342.11 221.283  16
  -5  -6  -2 4964.38 214.082  12
  -5   6  -3 994.423 100.416  10
  -5   6  -3 878.369 91.6300  16
  -5   6  -4 4406.43 205.221  10
  -5   6  -4 4690.09 212.157  16
  -5  -6  -4 4654.39 219.237  14
  -5   6  -5 164.821 48.9273  10
  -5   6  -5 216.462 55.9016  16
  -5  -6  -5 211.759 53.9163  14
  -5   6  -6 408.098 74.4773  10
  -5   6  -6 344.004 66.0635  16
  -5  -6  -6 253.586 57.0574  14
  -5   6  -7 242.131 59.8181  16
  -5  -6  -7 183.458 52.9967  14
  -5   6  -8 1405.26 120.997  16
  -5  -6  -8 1342.34 123.665  14
  -5   6  -9 664.275 84.8044  16
  -5  -6  -9 562.985 80.7345  14
  -5   6 -10 625.952 79.3261  16
  -5  -6 -10 629.388 83.3398  14
  -5   6 -11 599.272 77.8153  16
  -5  -6 -11 749.989 87.6624  14
  -5   6 -12 40.9450 32.3074  16
  -5  -6 -12 55.4202 29.3387  14
  -5   6 -13-9.47745 23.5140  16
  -5  -6 -13-36.0760 26.0187  14
  -5  -6 -14 523.865 55.7968  14
  -5   7  15 832.551 67.3566  10
  -5   7  15 825.948 69.7165  11
  -5   7  15 820.962 65.2009   8
  -5   7  14 76.1325 34.5129  11
  -5   7  14 28.9782 22.2187  10
  -5   7  13 246.403 49.6608  11
  -5   7  13 351.137 55.6971  10
  -5  -7  13 259.026 52.4518  13
  -5   7  12 2311.07 143.925  10
  -5  -7  12 2025.38 137.020  13
  -5   7  12 1993.65 130.286  11
  -5   7  11 45.2421 27.4157  11
  -5   7  11 32.4914 28.4716  10
  -5  -7  11 11.3764 31.2080  13
  -5   7  10 6169.55 249.776  10
  -5  -7  10 5883.50 244.882  13
  -5   7  10 6297.16 240.191  11
  -5   7   9 1127.43 111.119  10
  -5  -7   9 1171.04 114.018  13
  -5   7   9 1127.17 104.713  11
  -5   7   8 6205.65 252.828  10
  -5  -7   8 5787.68 247.632  13
  -5   7   7 13499.9 370.059  10
  -5  -7   7 14392.7 387.323  13
  -5   7   6 446.748 71.0628  10
  -5  -7   6 584.475 84.9547  13
  -5   7   5 73.5361 33.7162  10
  -5  -7   5 177.935 46.4942  13
  -5   7   4 380.827 64.9953  10
  -5  -7   4 481.773 72.3654  13
  -5  -7   3 2135.83 150.220  13
  -5   7   1 1196.86 107.767  16
  -5   7   0 3349.53 180.866  16
  -5   7  -1 171.405 44.4382  16
  -5   7  -2 1567.27 125.246  16
  -5   7  -3 3326.90 183.177  16
  -5   7  -4 3248.43 181.511  16
  -5   7  -5 1220.34 115.531  16
  -5   7  -6 4791.23 221.988  16
  -5  -7  -6 4847.83 224.366  14
  -5   7  -7 4984.99 224.277  16
  -5  -7  -7 5288.03 234.359  14
  -5   7  -8 15.5720 35.0475  16
  -5  -7  -8 36.2865 29.8757  14
  -5   7  -9 816.292 92.3353  16
  -5  -7  -9 874.662 94.8198  14
  -5   7 -10 36.5678 33.4291  16
  -5  -7 -10-5.50691 25.3143  14
  -5   7 -11 336.687 59.3046  16
  -5  -7 -11 377.131 60.9426  14
  -5   7 -12 190.663 44.0612  16
  -5  -7 -12 122.249 36.9187  14
  -5   7 -13 4084.27 156.119  16
  -5  -7 -13 4218.85 151.137  14
  -5   8  14 300.796 43.7786   8
  -5   8  13 617.415 63.0742  10
  -5  -8  13 661.162 72.8737  13
  -5   8  13 545.666 64.3904  11
  -5   8  13 658.101 66.8832   8
  -5   8  12 1133.91 91.7882  10
  -5  -8  12 1231.85 102.817  13
  -5   8  12 1092.79 91.8823  11
  -5   8  12 1120.65 93.0423   8
  -5   8  11 460.853 64.5110  11
  -5   8  11 654.494 73.6933  10
  -5  -8  11 579.740 77.4745  13
  -5   8  11 671.333 76.9127   8
  -5   8  10-14.5698 28.7797  11
  -5   8  10 44.9543 33.6532   8
  -5   8  10 16.3135 28.2624  10
  -5  -8  10-23.4475 33.5184  13
  -5  -8   9 4621.33 217.467  13
  -5   8   9 5233.18 215.567  11
  -5   8   9 4789.20 209.245   8
  -5  -8   8 2350.70 158.365  13
  -5   8   8 2385.19 149.844   8
  -5  -8   7 10962.0 340.367  13
  -5   8   7 11809.0 328.300   8
  -5  -8   6 4275.39 214.145  13
  -5  -8   5-35.6474 39.8542  13
  -5  -8   4 144.335 47.4821  13
  -5  -8   3-18.2452 30.7619  13
  -5   8   2 85.8032 32.2462  16
  -5   8   1 6662.06 259.982  16
  -5   8   0 7445.19 275.289  16
  -5   8  -1 3720.31 194.248  16
  -5   8  -2 10979.5 333.767  16
  -5   8  -3 25459.0 510.454  16
  -5   8  -4 3917.93 202.717  16
  -5   8  -5 1163.85 113.757  16
  -5   8  -6 372.365 67.1410  16
  -5   8  -7 280.553 61.1022  16
  -5   8  -8 34.0351 32.7260  16
  -5   8  -9 3191.54 170.060  16
  -5   8 -10 385.744 63.1709  16
  -5   8 -11 1407.69 106.150  16
  -5   8 -12 2059.28 116.925  16
  -5  -9  13 2230.74 113.112  13
  -5   9  13 2101.08 105.614   8
  -5  -9  12 727.972 73.1251  13
  -5   9  12 743.328 71.0318   8
  -5  -9  11 594.982 73.0573  13
  -5   9  11 519.499 64.3124   8
  -5  -9  10 1230.27 106.445  13
  -5   9  10 1236.90 101.455   8
  -5  -9   9 1635.61 127.045  13
  -5   9   9 1670.87 118.971   8
  -5  -9   8 3987.20 199.999  13
  -5   9   8 4179.90 192.887   8
  -5  -9   7 8133.16 289.360  13
  -5   9   7 8102.56 269.259   8
  -5   9   6 42.1364 36.8259   8
  -5  -9   6 33.0053 28.6795  13
  -5  -9   5 2406.98 161.849  13
  -5   9   5 2252.70 142.872   8
  -5   9   4-27.7984 36.1532  16
  -5  -9   4-30.6656 43.7804  13
  -5   9   3 1042.76 106.759  16
  -5  -9   3 1148.67 113.918  13
  -5   9   2 81.5467 35.5109  16
  -5   9   1 2284.96 154.854  16
  -5   9   0 695.889 86.3478  16
  -5   9  -1 2328.39 157.204  16
  -5   9  -2 173.837 51.1016  16
  -5   9  -3 1975.86 145.560  16
  -5   9  -4 66.7609 40.6884  16
  -5   9  -5 2555.34 161.685  16
  -5   9  -6 612.695 82.3782  16
  -5   9  -7 1520.27 123.767  16
  -5   9  -8 18.4953 32.0866  16
  -5   9  -9 1962.27 128.475  16
  -5   9 -10 57.2400 34.7993  16
  -5   9 -11 293.479 46.2624  16
  -5   9 -12 11.2334 20.5076  16
  -5  10  12 202.480 33.9585   8
  -5 -10  12 248.694 41.3842  13
  -5 -10  11 2506.20 129.765  13
  -5  10  11 2258.99 117.993   8
  -5  10  10 144.497 35.7457   8
  -5 -10  10 169.893 43.5951  13
  -5  10   9 441.768 61.8640   8
  -5 -10   9 521.733 70.6910  13
  -5  10   8 419.108 61.9024   8
  -5 -10   8 374.782 63.2045  13
  -5 -10   7 1117.71 105.323  13
  -5  10   7 1063.85 96.3271   8
  -5  10   6 5834.46 234.592  16
  -5 -10   6 5881.39 241.745  13
  -5  10   6 5903.07 225.945   8
  -5  10   5 2127.07 144.922  16
  -5 -10   5 2202.41 152.127  13
  -5  10   5 2388.33 146.536   8
  -5  10   4 1103.75 106.215  16
  -5 -10   4 1081.47 110.146  13
  -5  10   4 996.591 95.5578   8
  -5  10   3 231.171 54.4184  16
  -5 -10   3 189.755 52.6960  13
  -5  10   2 664.400 85.0076  16
  -5 -10   2 843.662 99.1442  13
  -5  10   1 633.219 84.6271  16
  -5  10   0 160.090 48.6280  16
  -5  10  -1 448.600 70.3076  16
  -5  10  -2 1544.13 127.419  16
  -5  10  -3 13.9226 32.0261  16
  -5  10  -4 142.580 50.8446  16
  -5  10  -5 1836.82 134.066  16
  -5  10  -6 135.047 46.6764  16
  -5  10  -7 134.438 45.1410  16
  -5  10  -8 584.782 70.6431  16
  -5  10  -9 79.0559 34.8405  16
  -5  10 -10 636.697 66.7494  16
  -5  10 -11 720.556 62.0388  16
  -5  11  11 151.925 29.0775   8
  -5  11  11 159.198 32.2234  16
  -5 -11  11 196.219 35.9387  13
  -5  11  10 314.574 49.4356   8
  -5  11  10 380.325 50.6412  16
  -5 -11  10 372.513 48.6985  13
  -5  11   9-16.1090 27.3949   8
  -5  11   9 36.3826 26.2586  16
  -5 -11   9 17.1823 23.2410  13
  -5  11   8 76.4293 29.6035   8
  -5  11   8 29.1257 28.6896  16
  -5 -11   8 2.12594 29.6297  13
  -5  11   7 227.190 45.2977   8
  -5  11   7 161.883 38.7042  16
  -5 -11   7 178.456 41.6223  13
  -5  11   6 34.4285 25.4243   8
  -5  11   6 6.24604 27.5474  16
  -5  11   5 1966.13 131.785  16
  -5 -11   5 1881.76 134.007  13
  -5  11   5 1799.26 121.631   8
  -5  11   4 237.272 48.0255   8
  -5  11   4 321.787 58.2974  16
  -5 -11   4 303.077 59.6758  13
  -5  11   3 59.4265 35.8415   8
  -5  11   3 11.3060 30.4129  16
  -5 -11   3-30.7406 40.7052  13
  -5  11   2 1545.93 122.634  16
  -5 -11   2 1707.05 131.962  13
  -5  11   2 1735.63 121.052   8
  -5  11   1 1495.80 119.615  16
  -5  11   0 690.019 83.5320  16
  -5  11  -1-8.33948 29.7957  16
  -5  11  -2 84.6025 40.7002  16
  -5  11  -3 89.2372 41.6683  16
  -5  11  -4 1757.60 126.334  16
  -5  11  -5 117.697 40.0752  16
  -5  11  -6 455.465 64.7054  16
  -5  11  -7 178.597 42.5685  16
  -5  11  -8 488.469 60.9767  16
  -5  11  -9 49.7709 26.6419  16
  -5  11 -10 236.438 35.4782  16
  -5  12   9 2956.47 117.165  16
  -5 -12   9 2811.39 119.361  13
  -5  12   9 2717.04 113.707   8
  -5  12   8 750.332 65.8910  16
  -5 -12   8 823.905 71.6383  13
  -5  12   8 762.420 65.6021   8
  -5  12   7 890.007 75.7016  16
  -5 -12   7 850.368 77.9508  13
  -5  12   7 790.016 70.5131   8
  -5  12   6 63.1651 27.2227   8
  -5  12   6 59.4013 25.8315  16
  -5 -12   6 123.135 38.6307  13
  -5  12   5 182.830 40.6363   8
  -5  12   5 181.557 40.6683  16
  -5 -12   5 154.202 42.0093  13
  -5  12   4 230.427 44.3771   8
  -5  12   4 183.783 45.3283  16
  -5 -12   4 234.985 51.7117  13
  -5  12   3 434.783 62.7351  16
  -5  12   3 487.570 61.9575   8
  -5 -12   3 448.148 67.3906  13
  -5  12   2 2014.54 126.867  16
  -5 -12   2 2021.26 136.096  13
  -5  12   2 1928.70 117.996   8
  -5  12   1 44.1351 31.0776  16
  -5 -12   1 1.20826 28.8519  13
  -5  12   1 91.8449 31.6697   8
  -5  12   0 1602.46 115.236  16
  -5 -12   0 1687.70 123.542  13
  -5  12  -1 433.391 64.8067  16
  -5  12  -2 74.5153 32.9107  16
  -5  12  -3 960.333 86.9760  16
  -5  12  -4 45.8253 34.5458  16
  -5  12  -5 2002.87 116.508  16
  -5  12  -6 61.5255 32.0901  16
  -5  12  -7 50.0080 24.5883  16
  -5  12  -8 2902.32 114.816  16
  -5 -13   7 104.996 29.4085  13
  -5  13   7-2.31550 17.7748   8
  -5  13   6 404.730 45.7825  16
  -5 -13   6 389.366 48.4868  13
  -5  13   6 312.158 42.6696   8
  -5  13   5 109.794 29.3351  16
  -5 -13   5 84.8107 29.1942  13
  -5  13   5 63.5540 24.1804   8
  -5  13   4 951.360 73.8560  16
  -5 -13   4 1143.46 86.9695  13
  -5  13   4 977.640 74.5938   8
  -5  13   3 1236.53 86.9277  16
  -5 -13   3 1151.54 90.6203  13
  -5  13   3 1164.83 81.5506   8
  -5  13   2 758.750 70.2922  16
  -5 -13   2 885.976 80.4698  13
  -5  13   2 706.853 64.5451   8
  -5  13   1 1596.94 101.354  16
  -5 -13   1 1486.79 103.909  13
  -5  13   1 1359.46 88.1996   8
  -5  13   0 528.891 60.2883  16
  -5 -13   0 620.327 69.3216  13
  -5  13  -1 0.16930 23.9584  16
  -5 -13  -1 29.2610 26.3505  13
  -5  13  -2 3152.89 135.929  16
  -5 -13  -2 3185.46 146.043  13
  -5  13  -3 447.394 53.7307  16
  -5  13  -4 2787.04 118.602  16
  -5  13  -5 2434.57 105.610  16
  -5 -14   3 794.921 61.0491  13
  -5 -14   2 137.677 30.7228  13
  -5 -14   1 459.024 50.3677  13
  -5 -14   0 1138.46 75.7487  13
  -5 -14  -1 2341.12 105.334  13
  -5 -14  -2 2225.22 99.5380  13
  -6   0  16 3757.31 137.906  10
  -6   0  16 3695.34 128.199  11
  -6   0  15 46.2465 22.4127  11
  -6   0  15 30.2998 28.1598  10
  -6   0  14 1130.41 97.8320  10
  -6   0  14 1290.40 94.8577  11
  -6   0  13 43.6937 30.5212  10
  -6   0  12 45.2898 25.9169  10
  -6   0  11-23.7676 29.6456  10
  -6   0  10 2240.24 161.624  10
  -6   0   9-27.3254 29.8439  10
  -6   0   8 65.1135 39.7458  10
  -6   0   7-9.37772 27.3052  10
  -6   0   6 1611.56 132.761  10
  -6   0   5-42.8271 48.3191   4
  -6   0   5 12.0567 26.0138  10
  -6   0   4 11178.1 407.728   4
  -6   0   4 11537.5 330.867  12
  -6   0   3-16.4781 42.7627   4
  -6   0   2 1620.56 154.674   4
  -6   0   1-66.6297 63.6463   7
  -6   0   0 2071.17 177.034   7
  -6   0  -1 30.9934 49.0164   7
  -6   0  -2 13379.2 450.565   7
  -6   0  -2 13515.6 361.433  10
  -6   0  -2 13498.6 365.976  12
  -6   0  -3 85.7592 62.7443   7
  -6   0  -3-74.2428 52.6315  10
  -6   0  -4 14666.0 385.785  10
  -6   0  -5 3.33845 39.6831  10
  -6   0  -5 102.833 43.9040  14
  -6   0  -6 3831.49 204.791  10
  -6   0  -6 3351.80 196.778  14
  -6   0  -7 110.327 61.7705  10
  -6   0  -7-21.1284 26.1825  14
  -6   0  -8 155.647 50.7980  14
  -6   0  -9-6.56443 26.2135  14
  -6   0 -10 13416.7 377.154  14
  -6   0 -11 32.7666 28.4987  14
  -6   0 -12 2102.88 134.029  14
  -6   0 -13-4.95260 25.5350  14
  -6   1  16 1036.28 77.9529  10
  -6   1  16 941.572 65.9945  11
  -6  -1  16 1017.18 68.2020  11
  -6   1  15 33.0902 27.2294  11
  -6  -1  15 13.9961 22.9794  11
  -6  -1  15 60.6289 32.0810  10
  -6   1  15 20.0625 22.8654  10
  -6   1  14 65.3346 29.2767  11
  -6  -1  14-3.07440 30.7800  11
  -6  -1  14 31.6830 39.5205  10
  -6   1  14 66.7449 36.9253  10
  -6  -1  13 653.102 78.3032  10
  -6   1  13 634.490 81.3846  10
  -6  -1  12 2017.79 140.711  10
  -6   1  12 1919.80 143.261  10
  -6  -1  11 1171.68 109.986  10
  -6   1  11 1054.19 110.113  10
  -6  -1  10 2558.13 164.906  10
  -6   1  10 2175.60 160.268  10
  -6  -1  10 2309.10 151.173  13
  -6  -1   9 1746.17 136.837  10
  -6   1   9 1585.50 137.074  10
  -6  -1   9 1978.19 140.439  13
  -6  -1   8 138.920 46.7788  10
  -6   1   8 130.796 43.0948  10
  -6  -1   8 169.644 41.8158  13
  -6  -1   7 207.882 47.7922  10
  -6   1   7 155.636 47.1898  10
  -6  -1   6 17627.9 415.039  10
  -6   1   6 18208.5 442.969  10
  -6   1   5 706.538 90.1524  10
  -6  -1   5 558.676 74.8825  10
  -6   1   4 2170.87 149.377  10
  -6   1   4 2218.84 191.108   4
  -6  -1   4 2249.55 179.772   4
  -6   1   4 2398.14 152.436  12
  -6  -1   4 2348.14 154.632  12
  -6   1   3 5160.10 281.580   4
  -6  -1   3 5414.61 276.775   4
  -6   1   2 1012.24 126.096   4
  -6  -1   1 532.565 95.2012   7
  -6   1   1 519.575 87.6515   7
  -6  -1   0 1284.41 141.385   7
  -6   1   0 1101.10 127.241   7
  -6  -1  -1 324.687 78.0315   7
  -6   1  -1 304.036 76.9751   7
  -6  -1  -2 1792.71 169.456   7
  -6   1  -2 1755.96 165.824   7
  -6  -1  -2 1668.58 124.652  10
  -6   1  -2 2064.82 144.482  10
  -6   1  -2 1981.88 139.921  12
  -6  -1  -2 1815.94 137.349  12
  -6  -1  -3 358.853 95.9568   7
  -6   1  -3 294.068 83.1969   7
  -6  -1  -3 225.425 47.8364  10
  -6   1  -3 283.264 56.4644  10
  -6   1  -3 272.128 55.3972  12
  -6  -1  -4 10077.5 313.589  10
  -6   1  -4 9990.34 324.066  10
  -6  -1  -5 1915.12 142.233  10
  -6   1  -5 1689.90 139.473  10
  -6  -1  -5 1595.60 138.750  14
  -6  -1  -6 3338.90 186.852  10
  -6   1  -6 3146.20 187.792  10
  -6   1  -6 3008.23 185.169  14
  -6  -1  -6 2896.94 186.575  14
  -6   1  -7 278.066 77.2070  10
  -6   1  -7 236.585 58.2301  14
  -6  -1  -7 312.264 63.4373  14
  -6   1  -8 139.384 44.5612  14
  -6  -1  -8 83.0673 38.7343  14
  -6   1  -9 31.9892 32.8575  14
  -6  -1  -9 18.3764 42.5797  14
  -6   1 -10 9028.29 299.637  14
  -6  -1 -10 8204.36 299.946  14
  -6   1 -11 293.225 57.2096  14
  -6  -1 -11 195.383 50.9235  14
  -6   1 -12 1203.67 97.0639  14
  -6  -1 -12 1132.03 101.758  14
  -6  -1 -13 2432.47 132.680  14
  -6   2  16 5134.00 169.808  10
  -6   2  16 4731.68 139.994  11
  -6  -2  16 4662.13 137.399  11
  -6   2  15 131.206 33.8347  11
  -6  -2  15 122.362 31.3192  11
  -6   2  15 148.339 40.0212  10
  -6   2  14 440.477 66.5518  10
  -6   2  14 640.395 67.1484  11
  -6   2  13 809.667 93.1329  10
  -6   2  12 169.699 54.8745  10
  -6   2  11-3.76087 29.2438  10
  -6  -2  11 12.8564 27.7236  13
  -6   2  10 17.6682 31.3874  10
  -6  -2  10 64.7904 32.8649  13
  -6   2   9 730.406 97.0003  10
  -6  -2   9 841.721 92.5722  13
  -6   2   8 53.5971 40.6222  10
  -6  -2   8 65.5508 33.5455  13
  -6   2   7 177.763 56.2622  10
  -6  -2   7 220.524 47.4382  13
  -6   2   6 1479.88 130.368  10
  -6   2   5 31.1034 31.2111  10
  -6  -2   5 181.266 62.6578  12
  -6   2   4 93.3399 39.5778  10
  -6  -2   4 78.9857 40.3739  12
  -6   2   3 6965.43 267.411  10
  -6   2   3 6677.40 324.564   4
  -6  -2   3 6677.58 256.266  12
  -6  -2   2 3643.20 232.514   7
  -6   2   2 3733.63 243.129   4
  -6  -2   2 3778.77 192.974  12
  -6  -2   1 2420.42 191.519   7
  -6   2   1 2894.29 205.037   7
  -6   2   1 2661.50 206.270   4
  -6  -2   0 832.343 116.730   7
  -6   2   0 932.901 97.4279  10
  -6   2   0 944.222 118.595   7
  -6  -2   0 982.933 100.522  12
  -6  -2  -1 981.997 125.555   7
  -6   2  -1 1021.82 125.639   7
  -6   2  -1 1196.79 111.296  10
  -6  -2  -1 1073.68 107.520  12
  -6  -2  -2 15.2466 45.6007   7
  -6   2  -2-18.9030 47.6762   7
  -6  -2  -2-15.7027 34.5895  10
  -6   2  -2 95.3276 44.6389  10
  -6   2  -2 56.2761 42.1885  12
  -6  -2  -2-15.8006 42.9144  12
  -6  -2  -3 1702.46 170.359   7
  -6   2  -3 1511.35 159.007   7
  -6  -2  -3 1643.93 122.028  10
  -6   2  -3 1395.41 119.389  10
  -6   2  -3 1648.11 126.779  12
  -6  -2  -4 744.002 88.6886  10
  -6   2  -4 738.927 91.5387  10
  -6   2  -4 801.793 87.2936  12
  -6  -2  -5 392.906 74.0095  10
  -6   2  -5 343.062 71.1241  10
  -6  -2  -5 282.622 63.8222  14
  -6  -2  -6 192.038 58.5164  10
  -6   2  -6 314.098 74.1638  10
  -6  -2  -6 212.420 52.6735  14
  -6   2  -7 7871.63 297.153  10
  -6  -2  -7 8029.69 312.599  14
  -6   2  -8 211.457 51.3905  14
  -6  -2  -8 84.1677 42.5952  14
  -6   2  -9 3519.17 184.612  14
  -6  -2  -9 3069.75 190.115  14
  -6   2 -10 3191.72 168.535  14
  -6  -2 -10 2991.01 182.542  14
  -6  -2 -11 232.842 55.8747  14
  -6  -2 -12 45.1612 28.4215  14
  -6  -2 -13 470.289 60.6426  14
  -6   3  16 21.0617 23.0047  10
  -6   3  15 266.783 40.4342  11
  -6  -3  15 254.196 39.5366  11
  -6   3  15 328.024 53.9865  10
  -6   3  14 3374.44 170.436  10
  -6   3  14 3591.89 148.949  11
  -6   3  13 1668.43 129.476  10
  -6   3  12 1717.71 135.665  10
  -6   3  11 39.0541 37.7948  10
  -6  -3  11 57.5836 39.1175  13
  -6   3  10 182.612 54.1855  10
  -6  -3  10 148.739 45.8687  13
  -6   3   9 798.883 99.4428  10
  -6  -3   9 956.475 98.8033  13
  -6   3   8 27.6583 36.1478  10
  -6  -3   8 35.5586 27.4657  13
  -6   3   7 3416.94 198.714  10
  -6  -3   7 3732.93 190.659  13
  -6   3   6 21.4765 28.7232  10
  -6  -3   6 11.8956 31.6421  13
  -6   3   5 2167.24 155.414  10
  -6   3   4 5464.70 243.351  10
  -6  -3   4 5652.16 239.340  12
  -6   3   3 15717.3 404.832  10
  -6  -3   3 14648.9 462.907   7
  -6   3   3 15575.4 365.578  12
  -6  -3   3 15371.3 389.931  12
  -6  -3   2-1.92205 41.1258   7
  -6  -3   2-31.5591 38.7711  12
  -6  -3   1 6552.82 313.210   7
  -6   3   1 6933.98 265.219  10
  -6   3   1 6833.25 311.912   7
  -6  -3   1 6657.93 259.629  12
  -6  -3   0 220.574 67.3156   7
  -6   3   0 292.701 73.6533   7
  -6   3   0 164.493 37.7232  10
  -6  -3   0 160.214 41.0198  12
  -6  -3  -1-16.4710 44.4419   7
  -6   3  -1-33.1217 51.1648   7
  -6   3  -1-4.48710 34.6844  10
  -6  -3  -1-44.4543 46.7102  12
  -6  -3  -2 183.527 77.7543   7
  -6   3  -2 226.898 72.5679   7
  -6   3  -2 165.757 46.8725  10
  -6  -3  -2 36.9036 28.5554  12
  -6  -3  -3 637.159 110.543   7
  -6   3  -3 583.355 103.896   7
  -6   3  -3 352.642 60.8452  10
  -6   3  -4-28.1868 54.9230  10
  -6   3  -5-14.9820 43.7119  10
  -6  -3  -5 7.22356 31.2276  14
  -6   3  -6 186.782 66.4541  10
  -6  -3  -6 89.3299 41.7853  14
  -6   3  -7 115.027 58.1950  10
  -6  -3  -7 11.8876 32.7284  14
  -6  -3  -8 5701.36 261.978  14
  -6  -3  -9 865.173 103.761  14
  -6  -3 -10 143.550 45.9862  14
  -6  -3 -11 193.743 53.4822  14
  -6  -3 -12 517.015 69.4765  14
  -6  -3 -13 23.9754 26.2114  14
  -6   4  16-13.4600 17.2195  10
  -6   4  15 328.010 41.8688  11
  -6   4  15 369.365 53.2054  10
  -6   4  14 116.326 34.7125  11
  -6   4  14 92.8450 37.7231  10
  -6   4  13 893.215 96.2354  10
  -6   4  12 813.345 94.9495  10
  -6  -4  12 941.743 96.8782  13
  -6   4  11 150.637 53.7261  10
  -6  -4  11 94.3081 38.0718  13
  -6   4  10 10.8686 29.6914  10
  -6  -4  10-25.6952 41.0739  13
  -6   4   9-16.1210 33.6151  10
  -6  -4   9-6.11591 27.7436  13
  -6   4   8 381.521 71.4241  10
  -6  -4   8 468.359 74.3007  13
  -6   4   7 5268.98 246.954  10
  -6  -4   7 5439.23 230.637  13
  -6   4   6 1858.34 147.704  10
  -6  -4   6 1998.59 141.022  13
  -6   4   5 3832.24 208.812  10
  -6  -4   5 4168.56 196.603  13
  -6   4   4 1563.03 134.126  10
  -6  -4   4 1498.04 148.630   7
  -6  -4   4 1423.62 113.952  13
  -6  -4   4 1574.42 129.789  12
  -6   4   3 8214.14 294.708  10
  -6  -4   3 8331.08 288.817  12
  -6  -4   2 14218.1 452.471   7
  -6   4   2 15635.9 403.274  10
  -6   4   2 15921.9 468.170   7
  -6   4   2 15670.5 369.551  16
  -6  -4   2 14620.2 385.013  12
  -6  -4   1 20898.9 551.685   7
  -6   4   1 21509.3 469.503  10
  -6   4   1 21527.0 543.389   7
  -6   4   1 21483.6 430.478  16
  -6  -4   1 21561.3 468.086  12
  -6  -4   0 4693.69 264.526   7
  -6   4   0 4694.35 221.718  10
  -6  -4   0 4552.00 217.570  12
  -6  -4  -1 38.9968 45.0033   7
  -6   4  -1 25.0428 40.3896  10
  -6  -4  -1 93.8700 32.3874  12
  -6  -4  -2 13.6113 52.9060   7
  -6   4  -2 22.4467 31.8364  10
  -6  -4  -2-6.11260 38.9579  12
  -6   4  -3 733.098 90.1036  10
  -6  -4  -3 684.529 89.1375  12
  -6   4  -4 106.512 45.0692  10
  -6   4  -5-19.6109 38.4226  10
  -6  -4  -5-15.2160 36.7239  14
  -6   4  -6 22.0707 40.3965  10
  -6  -4  -6 10.2375 31.2723  14
  -6   4  -7 3929.61 208.981  10
  -6  -4  -7 3967.11 217.280  14
  -6  -4  -8 33.1340 32.7140  14
  -6  -4  -9 2540.17 169.137  14
  -6  -4 -10 81.1171 38.3826  14
  -6  -4 -11 64.0680 37.6717  14
  -6  -4 -12 208.638 43.0907  14
  -6   5  15 156.105 34.3529  10
  -6   5  14 69.9291 25.1216  11
  -6   5  14 85.6911 34.1239  10
  -6   5  13 39.7798 35.2845  10
  -6   5  12 2028.17 140.219  10
  -6  -5  12 2129.68 136.913  13
  -6   5  11 301.995 56.9894  10
  -6  -5  11 268.214 58.0784  13
  -6   5  10 66.0085 31.0332  10
  -6  -5  10 60.9566 32.5098  13
  -6   5   9 3822.74 207.163  10
  -6  -5   9 3754.89 195.528  13
  -6   5   8 47.4607 40.1180  10
  -6  -5   8 23.9248 33.9591  13
  -6   5   7 6633.16 274.092  10
  -6  -5   7 6998.04 266.272  13
  -6   5   6 1586.11 135.681  10
  -6  -5   6 1631.49 128.839  13
  -6   5   5 1508.06 133.729  10
  -6  -5   5 1490.91 122.873  13
  -6   5   4 21943.4 487.312  10
  -6  -5   4 22788.4 467.866  13
  -6  -5   4 21696.5 462.701  12
  -6   5   3 17166.1 426.807  10
  -6  -5   3 17562.4 405.949  13
  -6  -5   3 17520.2 416.624  12
  -6  -5   2 5349.69 274.221   7
  -6   5   2 6155.93 254.147  10
  -6   5   2 5728.78 231.948  16
  -6  -5   2 6000.56 247.003  12
  -6  -5   1 4428.47 249.318   7
  -6   5   1 4864.35 225.612  10
  -6   5   1 5017.80 217.912  16
  -6  -5   1 5037.87 226.506  12
  -6  -5   0 92.1137 47.4314   7
  -6   5   0 206.121 49.8452  10
  -6   5   0 265.553 54.6328  16
  -6  -5   0 230.797 54.8835  12
  -6  -5  -1 23.0676 41.4518   7
  -6   5  -1 18.5077 33.1263  10
  -6   5  -1-32.7025 31.3650  16
  -6  -5  -1-6.95078 33.0895  12
  -6   5  -2 214.598 50.7284  10
  -6   5  -2 161.459 45.6019  16
  -6  -5  -2 133.583 47.9792  12
  -6   5  -3 4672.08 225.825  10
  -6   5  -3 4669.74 208.320  16
  -6  -5  -3 4340.74 219.600  12
  -6   5  -4 95.7718 44.9915  10
  -6   5  -4 187.350 52.8624  16
  -6   5  -5 1270.35 122.201  10
  -6   5  -5 1423.80 116.230  16
  -6   5  -6 667.308 93.6301  10
  -6   5  -6 832.795 90.1935  16
  -6   5  -7 1863.56 129.545  16
  -6  -5  -7 1780.30 145.946  14
  -6   5  -8 66.4787 37.1029  16
  -6  -5  -8 10.0056 31.2881  14
  -6   5  -9 44.3818 26.8081  16
  -6  -5  -9 34.1889 33.3384  14
  -6   5 -10 250.056 46.7323  16
  -6  -5 -10 246.534 53.5574  14
  -6  -5 -11 4284.15 188.081  14
  -6   6  14 797.344 68.0931  10
  -6   6  13 230.118 44.6201  10
  -6   6  12 96.9072 35.5091  10
  -6  -6  12 76.8443 38.5641  13
  -6   6  11 594.181 79.1122  10
  -6  -6  11 595.779 75.2622  13
  -6   6  10 1478.31 123.019  10
  -6  -6  10 1611.63 126.844  13
  -6   6   9 430.848 71.5393  10
  -6  -6   9 522.297 76.7357  13
  -6   6   8 38.1840 42.3206  10
  -6  -6   8 5.59432 30.2319  13
  -6   6   7 586.846 85.4848  10
  -6  -6   7 574.813 81.6278  13
  -6   6   6 7399.09 283.347  10
  -6  -6   6 7512.40 278.244  13
  -6   6   5 1384.03 123.057  10
  -6  -6   5 1308.14 118.076  13
  -6   6   4 16.3599 37.1047  10
  -6  -6   4 117.654 41.8386  13
  -6   6   3 5377.16 238.200  10
  -6   6   3 5555.84 235.360  16
  -6  -6   3 5346.92 231.981  13
  -6  -6   3 5887.41 238.277  12
  -6   6   2 7216.49 272.847  10
  -6   6   2 7716.64 276.705  16
  -6  -6   2 7246.46 267.655  13
  -6  -6   2 7490.77 269.643  12
  -6   6   1 4064.66 205.346  10
  -6   6   1 4408.61 209.317  16
  -6  -6   1 4034.45 198.742  13
  -6  -6   1 4372.56 208.999  12
  -6   6   0 6184.72 252.032  10
  -6   6   0 5825.27 238.489  16
  -6  -6   0 5998.16 245.456  12
  -6   6  -1 3229.59 185.169  10
  -6   6  -1 3110.32 174.945  16
  -6  -6  -1 3387.43 187.917  12
  -6   6  -2 4125.38 209.108  10
  -6   6  -2 4143.27 200.982  16
  -6  -6  -2 3949.24 202.802  12
  -6   6  -3 7744.17 284.328  10
  -6   6  -3 7736.89 274.918  16
  -6  -6  -3 7570.83 283.374  12
  -6   6  -4 3302.00 186.533  10
  -6   6  -4 3388.64 183.439  16
  -6  -6  -4 3381.45 190.715  12
  -6   6  -5 4750.59 221.983  10
  -6   6  -5 5179.01 223.126  16
  -6  -6  -5 4521.45 219.594  12
  -6   6  -6 4643.43 217.934  10
  -6   6  -6 4997.06 216.363  16
  -6   6  -7 3867.95 185.783  16
  -6   6  -8 443.160 66.3961  16
  -6   6  -9 5606.03 207.971  16
  -6   6 -10 587.422 67.2631  16
  -6   6 -11 3.62958 20.5764  16
  -6  -6 -12 450.173 52.1763  12
  -6   7  13 21.4509 19.6505  10
  -6   7  12 187.800 39.8900  10
  -6  -7  12 280.122 52.2912  13
  -6   7  11 708.616 77.6435  10
  -6  -7  11 687.549 80.2532  13
  -6   7  10 102.357 38.9768  10
  -6  -7  10 84.0778 36.9086  13
  -6   7   9 1654.75 126.008  10
  -6  -7   9 1753.45 132.566  13
  -6   7   8 1090.71 104.860  10
  -6  -7   8 1010.04 102.449  13
  -6   7   7 146.030 46.8077  10
  -6  -7   7 256.003 60.4802  13
  -6   7   6 2587.84 162.153  10
  -6  -7   6 2760.82 169.586  13
  -6   7   5 421.779 69.1293  10
  -6  -7   5 639.278 86.7989  13
  -6   7   4 1347.71 117.105  10
  -6   7   4 1209.29 113.162  16
  -6  -7   4 1270.03 116.140  13
  -6   7   3 578.333 77.4538  10
  -6   7   3 706.234 87.3861  16
  -6  -7   3 665.297 85.0355  13
  -6   7   2 339.989 61.5530  10
  -6   7   2 338.738 63.0256  16
  -6  -7   2 293.994 58.8394  13
  -6   7   1 43.9214 29.8784  10
  -6   7   1 1.03811 29.5253  16
  -6  -7   1 11.5082 24.7237  13
  -6   7   0 98.6922 49.9574  10
  -6   7   0 29.3145 34.2499  16
  -6  -7   0 38.9937 32.7496  13
  -6   7  -1 741.880 87.8090  10
  -6   7  -1 868.067 96.8581  16
  -6   7  -2 7555.13 272.762  10
  -6   7  -2 7652.41 276.712  16
  -6  -7  -2 7931.54 276.330  12
  -6   7  -3 6243.91 247.009  10
  -6   7  -3 6467.91 252.691  16
  -6  -7  -3 6235.30 246.476  12
  -6   7  -4 38.8970 37.3380  16
  -6  -7  -4-48.5772 42.3580  12
  -6   7  -5 3619.31 185.558  10
  -6   7  -5 3686.94 188.586  16
  -6  -7  -5 3617.77 186.609  12
  -6   7  -6 1496.64 119.708  16
  -6  -7  -6 1570.50 122.128  12
  -6   7  -7 1589.55 118.013  16
  -6  -7  -7 1503.56 115.530  12
  -6   7  -8 22.6255 24.6048  16
  -6  -7  -8-48.9486 33.3483  12
  -6   7  -9 107.389 33.5285  16
  -6  -7  -9 94.5588 33.8149  12
  -6   7 -10 2465.62 126.965  16
  -6  -7 -10 2722.15 131.056  12
  -6   7 -11 364.368 45.9433  16
  -6  -7 -11 435.348 49.4583  12
  -6   8  12 271.520 38.0896  10
  -6  -8  12 279.552 47.3520  13
  -6   8  11-17.2830 22.6457  10
  -6  -8  11 22.8519 27.6762  13
  -6   8  10 1722.55 110.295  10
  -6  -8  10 1583.41 116.598  13
  -6   8   9 263.886 48.2206  10
  -6  -8   9 314.272 58.6991  13
  -6   8   8 4063.30 182.076  10
  -6  -8   8 4394.27 202.638  13
  -6   8   7 111.642 36.4407  10
  -6  -8   7 178.395 51.9574  13
  -6   8   6 66.1905 30.1177  10
  -6  -8   6-2.53958 27.3973  13
  -6   8   5 559.717 72.6175  10
  -6   8   5 516.797 74.5281  16
  -6  -8   5 428.983 69.0799  13
  -6   8   4 780.892 91.0352  16
  -6  -8   4 702.265 88.3015  13
  -6   8   3 96.2976 45.2740  16
  -6  -8   3 89.7371 38.8571  13
  -6   8   2 105.216 38.7079  16
  -6  -8   2 85.7582 33.4448  13
  -6   8   1 3089.27 178.625  16
  -6  -8   1 3232.42 183.074  13
  -6   8   0 6032.56 245.721  16
  -6  -8   0 5652.54 238.214  13
  -6   8  -1 2306.74 152.784  16
  -6   8  -2 975.986 103.567  16
  -6   8  -3 1463.90 122.456  16
  -6   8  -4 1304.54 114.839  16
  -6   8  -5 31.3622 34.0719  16
  -6   8  -6 234.032 49.9437  16
  -6   8  -7 81.2243 36.6199  16
  -6   8  -8 175.232 44.8921  16
  -6   8  -9 58.8256 28.8499  16
  -6   8 -10 455.958 54.4224  16
  -6   9  12 675.856 58.7645  16
  -6  -9  12 617.480 56.8026  13
  -6  -9  11 479.259 57.2516  13
  -6  -9  10 673.524 72.4495  13
  -6  -9   9 21.1466 24.9977  13
  -6   9   8 202.549 48.7928  16
  -6  -9   8 138.657 40.8783  13
  -6   9   7 579.329 77.1193  16
  -6  -9   7 663.880 81.4141  13
  -6   9   6 139.947 43.3750  16
  -6  -9   6 129.741 43.3332  13
  -6   9   5 16.5186 29.1432  16
  -6  -9   5 24.1281 29.0145  13
  -6   9   4 230.657 53.9361  16
  -6  -9   4 150.198 42.5523  13
  -6   9   3-34.0422 34.1090  16
  -6  -9   3-1.36134 31.9451  13
  -6   9   2 2.19215 30.4170  16
  -6  -9   2 20.7215 30.3657  13
  -6   9   1 795.964 92.9594  16
  -6  -9   1 629.560 82.1682  13
  -6   9   0 1835.43 134.677  16
  -6  -9   0 1738.07 130.539  13
  -6   9  -1 24.6189 36.5423  16
  -6  -9  -1 26.8511 34.0879  13
  -6   9  -2 63.4035 42.0884  16
  -6   9  -3 8.42070 34.7093  16
  -6   9  -4 371.251 62.4547  16
  -6   9  -5 1002.05 96.6245  16
  -6   9  -6 8.82290 28.0776  16
  -6   9  -7 343.085 55.2213  16
  -6   9  -8 1122.65 87.6337  16
  -6   9  -9 57.6468 29.3546  16
  -6   9 -10 3273.73 120.180  16
  -6  10  11 397.157 45.2350  16
  -6 -10  11 372.091 42.2466  13
  -6  10  10 2436.78 114.078  16
  -6 -10  10 2285.91 113.899  13
  -6  10   9 533.012 59.3428  16
  -6 -10   9 512.502 61.2849  13
  -6  10   8 175.108 38.8586  16
  -6 -10   8 222.092 45.9295  13
  -6  10   7 15.8815 24.2341  16
  -6 -10   7 52.4862 32.0925  13
  -6  10   6 203.471 46.6173  16
  -6 -10   6 179.195 44.5977  13
  -6  10   5 668.230 79.7926  16
  -6 -10   5 688.177 79.1724  13
  -6  10   4 797.463 87.1801  16
  -6 -10   4 749.137 85.0799  13
  -6  10   3 218.125 48.2625  16
  -6 -10   3 229.369 50.5285  13
  -6  10   2 3022.76 162.993  16
  -6 -10   2 2804.96 161.732  13
  -6  10   1 291.453 58.5100  16
  -6 -10   1 253.031 55.3450  13
  -6  10   0 2304.92 144.112  16
  -6 -10   0 2195.38 141.687  13
  -6  10  -1 563.934 75.1917  16
  -6 -10  -1 451.966 65.6423  13
  -6  10  -2 521.260 70.8538  16
  -6 -10  -2 577.531 71.3979  13
  -6  10  -3 1273.49 105.332  16
  -6  10  -4 233.918 49.7594  16
  -6  10  -5 1027.16 88.4243  16
  -6  10  -6 1884.03 114.273  16
  -6  10  -7 425.696 54.3075  16
  -6  10  -8 337.822 46.3197  16
  -6  11   9 204.950 33.5216  16
  -6 -11   9 213.549 37.1176  13
  -6  11   8 29.5692 23.5880  16
  -6 -11   8 17.6055 21.6362  13
  -6  11   7 54.2164 27.2422  16
  -6 -11   7 43.8956 26.4453  13
  -6  11   6 125.221 33.5590  16
  -6 -11   6 86.4427 31.1362  13
  -6  11   5 122.403 37.8483  16
  -6 -11   5 117.731 36.8900  13
  -6  11   4-33.6453 31.4884  16
  -6 -11   4 11.7397 22.8319  13
  -6  11   3 3551.34 161.689  16
  -6 -11   3 3351.44 162.005  13
  -6  11   2 111.557 40.4930  16
  -6 -11   2 52.8984 34.4137  13
  -6  11   1 42.5901 30.4081  16
  -6 -11   1 43.2737 26.7247  13
  -6  11   0 706.867 76.9258  16
  -6 -11   0 632.180 72.8195  13
  -6  11  -1 144.513 40.4935  16
  -6 -11  -1 132.591 38.6527  13
  -6  11  -2 324.165 53.9496  16
  -6 -11  -2 280.936 47.0690  13
  -6  11  -3 2473.08 132.124  16
  -6 -11  -3 2330.38 124.088  13
  -6  11  -4 1016.55 83.5123  16
  -6 -11  -4 874.189 72.8075  13
  -6  11  -5 3913.24 151.481  16
  -6 -11  -5 3416.00 128.518  13
  -6  11  -6 198.819 37.7806  16
  -6  11  -7 186.647 34.4991  16
  -6 -12   7 501.471 49.0050  13
  -6  12   6 1000.33 69.2729  16
  -6 -12   6 1001.48 72.4531  13
  -6  12   5 694.605 62.1135  16
  -6 -12   5 627.739 64.0945  13
  -6  12   4 698.895 65.0492  16
  -6 -12   4 765.806 69.5878  13
  -6  12   3 2343.83 117.745  16
  -6 -12   3 2200.09 116.434  13
  -6  12   2 1207.95 86.5785  16
  -6 -12   2 1166.57 86.4194  13
  -6  12   1-8.53537 25.0661  16
  -6 -12   1 6.45631 23.3942  13
  -6  12   0 732.312 68.3171  16
  -6 -12   0 710.418 67.2462  13
  -6  12  -1 2299.48 116.220  16
  -6 -12  -1 2246.20 114.712  13
  -6  12  -2 852.187 70.4716  16
  -6 -12  -2 653.786 60.2936  13
  -6  12  -3 316.374 44.5127  16
  -6 -12  -3 260.369 37.5470  13
  -6  12  -4 58.6058 25.5172  16
  -6 -13   2-10.1957 18.8333  13
  -6 -13   1 219.548 34.0895  13
  -7   0  14-60.5257 23.8941  10
  -7   0  13 60.0846 25.1863  10
  -7   0  12 17.5488 31.9887  10
  -7   0  11 1623.70 118.935  10
  -7   0  10-6.89448 27.2397  10
  -7   0   9 3714.22 193.300  10
  -7   0   8 8.99073 35.8857  10
  -7   0   7 2273.52 155.831  10
  -7   0   6-28.7498 40.8700  10
  -7   0   5 58.5836 27.8624  10
  -7   0   4-10.7883 40.1405  10
  -7   0   3 1178.42 113.647  10
  -7   0   3 1234.70 117.405  12
  -7   0   2-25.9209 34.2189  10
  -7   0   2-21.5871 34.1539  12
  -7   0   1 15937.7 407.004  10
  -7   0   1 15678.0 406.352  12
  -7   0   0 9.22191 34.5797  10
  -7   0   0-0.40093 31.8176  12
  -7   0  -1 2154.07 153.364  10
  -7   0  -1 2428.74 163.065  12
  -7   0  -2-64.0682 54.9466  10
  -7   0  -2-5.57112 33.8800  12
  -7   0  -3 646.205 90.7406  10
  -7   0  -3 592.674 84.2864  12
  -7   0  -4-49.7008 51.0311  10
  -7   0  -4-20.8820 36.6397  12
  -7   0  -5 3426.91 192.806  10
  -7   0  -5 3121.52 185.223  12
  -7   0  -6 87.2719 55.5432  10
  -7   0  -6-8.73158 35.4931  12
  -7   0  -7 370.090 60.8625  12
  -7   0  -8-44.3812 39.0401  12
  -7   0  -9 27.3840 28.3967  12
  -7   0 -10-21.3550 23.4767  12
  -7   0 -11 124.958 30.4632  12
  -7   1  14 663.477 59.8170  10
  -7   1  13 282.784 47.5422  10
  -7  -1  12 3.61941 16.6568  10
  -7   1  12-7.37962 26.7416  10
  -7  -1  11 665.915 74.9451  10
  -7   1  11 571.966 75.7684  10
  -7  -1  10 391.111 61.0312  10
  -7   1  10 382.631 66.7274  10
  -7  -1   9 774.476 86.6477  10
  -7   1   9 676.953 87.6533  10
  -7  -1   8 2820.88 165.656  10
  -7   1   8 2853.38 175.555  10
  -7  -1   7 347.648 60.3517  10
  -7   1   7 494.526 79.3047  10
  -7  -1   6 1802.18 134.943  10
  -7   1   6 1888.91 146.075  10
  -7  -1   5 2891.40 170.005  10
  -7   1   5 2621.51 170.895  10
  -7  -1   4 1075.95 107.013  10
  -7   1   4 1027.29 106.914  10
  -7  -1   3 284.878 61.4281  10
  -7   1   3 340.494 64.6455  10
  -7   1   3 307.750 64.6431  12
  -7  -1   3 387.262 71.5354  12
  -7  -1   2 432.579 70.1545  10
  -7   1   2 373.367 66.0300  10
  -7  -1   2 518.677 84.4165  12
  -7   1   2 448.149 73.4362  12
  -7  -1   1 1511.31 124.874  10
  -7   1   1 1489.90 131.396  10
  -7   1   1 1525.89 128.359  12
  -7  -1   1 1619.66 135.849  12
  -7  -1   0 832.079 96.1389  10
  -7   1   0 771.971 97.0037  10
  -7   1   0 776.939 90.7604  12
  -7  -1   0 718.641 95.8111  12
  -7  -1  -1-33.4968 48.4009  10
  -7   1  -1 8.82257 43.7599  10
  -7   1  -1 55.5008 36.9302  12
  -7  -1  -1-20.2679 33.2986  12
  -7  -1  -2 1652.82 133.413  10
  -7   1  -2 1545.23 135.360  10
  -7   1  -2 1796.22 137.214  12
  -7  -1  -2 1665.15 138.457  12
  -7  -1  -3 2807.10 172.548  10
  -7   1  -3 2919.35 182.186  10
  -7   1  -3 2911.80 174.519  12
  -7  -1  -3 2859.70 181.918  12
  -7  -1  -4 13.8702 48.4986  10
  -7   1  -4 3.26542 43.5476  10
  -7   1  -4-4.68434 28.2786  12
  -7  -1  -4-43.9470 44.0867  12
  -7  -1  -5 236.007 62.6981  10
  -7   1  -5 265.665 74.5947  10
  -7   1  -5 112.811 38.1687  12
  -7  -1  -5 123.465 49.4498  12
  -7   1  -6 234.134 52.1116  12
  -7  -1  -6 155.943 48.4585  12
  -7   1  -7 719.629 85.3695  12
  -7  -1  -7 727.235 89.6838  12
  -7   1  -8 442.751 66.7123  12
  -7  -1  -8 373.200 62.4933  12
  -7   1  -9 949.834 87.1980  12
  -7  -1  -9 842.817 88.3249  12
  -7   1 -10 1212.61 87.8615  12
  -7  -1 -10 1155.43 94.5814  12
  -7  -1 -11 148.820 35.2885  12
  -7   2  14 467.710 53.6362  10
  -7   2  13 2.52662 24.9542  10
  -7   2  12 238.749 50.6947  10
  -7   2  11 67.0646 33.5705  10
  -7   2  10 65.4780 39.7437  10
  -7   2   9 1385.42 123.131  10
  -7   2   8 81.1269 41.6188  10
  -7   2   7 1335.71 125.220  10
  -7   2   6 200.176 51.4837  10
  -7   2   5 1231.37 118.599  10
  -7   2   4 1263.17 121.388  10
  -7   2   3 404.268 70.3317  10
  -7  -2   3 549.048 83.6040  12
  -7   2   2 329.229 64.9444  10
  -7   2   2 403.699 69.4067  12
  -7  -2   2 421.150 74.6441  12
  -7   2   1 1596.43 135.524  10
  -7   2   1 1708.58 132.926  12
  -7  -2   1 1552.74 132.654  12
  -7  -2   0 1456.46 118.400  10
  -7   2   0 1606.17 138.443  10
  -7   2   0 1529.58 123.021  12
  -7  -2   0 1368.98 124.243  12
  -7  -2  -1 35.7595 34.9984  10
  -7   2  -1 139.688 58.8485  10
  -7   2  -1 81.0262 42.4543  12
  -7  -2  -1 15.0713 35.4052  12
  -7  -2  -2 950.488 98.4582  10
  -7   2  -2 905.525 102.907  10
  -7   2  -2 1124.18 105.965  12
  -7  -2  -2 938.491 105.540  12
  -7  -2  -3 73.7634 38.9355  10
  -7   2  -3 95.6837 48.6570  10
  -7   2  -3 88.8258 38.0731  12
  -7  -2  -3 85.4514 41.0301  12
  -7  -2  -4 740.099 92.5034  10
  -7   2  -4 743.588 97.0594  10
  -7   2  -4 626.251 83.3144  12
  -7  -2  -4 596.548 86.4722  12
  -7   2  -5 2005.85 150.330  10
  -7   2  -5 1968.08 135.998  12
  -7  -2  -5 1787.23 142.916  12
  -7   2  -6 2900.31 178.420  10
  -7   2  -6 2739.44 157.034  12
  -7  -2  -6 2405.55 162.173  12
  -7   2  -7-22.9945 25.5321  12
  -7  -2  -7-17.9517 35.0929  12
  -7  -2  -8 764.082 88.1261  12
  -7  -2  -9 373.907 66.7525  12
  -7  -2 -10 38.6317 26.6308  12
  -7  -2 -11 519.177 59.1318  12
  -7   3  14 9526.81 223.073  10
  -7   3  13 599.769 67.5042  10
  -7   3  12 1438.45 108.343  10
  -7   3  11 203.889 47.4251  10
  -7   3  10 133.648 46.7485  10
  -7   3   9 353.356 66.3907  10
  -7  -3   9 407.511 62.6241  13
  -7   3   8 2017.75 149.751  10
  -7  -3   8 2285.87 139.271  13
  -7   3   7 187.305 54.3013  10
  -7   3   6 575.306 82.7388  10
  -7   3   5 425.532 72.9075  10
  -7   3   4 397.386 70.9346  10
  -7   3   3 3623.30 201.204  10
  -7  -3   3 3238.24 190.012  12
  -7   3   2 122.340 47.4761  10
  -7  -3   2 14.8232 37.2541  12
  -7   3   1 429.899 73.3373  10
  -7  -3   1 522.151 80.8729  12
  -7   3   0 68.6153 42.0064  10
  -7  -3   0 61.4379 31.8439  12
  -7   3  -1 207.263 60.3300  10
  -7  -3  -1 62.6488 39.7142  12
  -7   3  -2-55.8558 53.6786  10
  -7  -3  -2-13.7978 30.7170  12
  -7   3  -3-37.3479 52.4398  10
  -7  -3  -3 15.7996 32.8981  12
  -7   3  -4 485.708 83.6805  10
  -7  -3  -4 412.868 73.2258  12
  -7   3  -5 1506.66 132.475  10
  -7  -3  -5 1294.90 121.453  12
  -7   3  -6 5492.04 240.068  10
  -7  -3  -6 4785.86 228.560  12
  -7  -3  -7 58.9329 33.5648  12
  -7  -3  -8 4015.54 194.452  12
  -7  -3  -9 585.095 73.8836  12
  -7  -3 -10-8.53735 27.1345  12
  -7  -3 -11 129.237 32.3319  12
  -7   4  14 192.922 35.9293  10
  -7   4  13 150.944 36.9037  10
  -7   4  12 829.111 81.6693  10
  -7   4  11 429.623 66.5588  10
  -7   4  10 264.382 55.9706  10
  -7  -4  10 284.421 50.7374  13
  -7   4   9 10.1589 31.0168  10
  -7  -4   9-10.4870 29.0775  13
  -7   4   8 217.552 53.8906  10
  -7  -4   8 163.711 45.8780  13
  -7   4   7 20.1355 32.2495  10
  -7  -4   7-2.24285 23.7770  13
  -7   4   6-8.85889 42.2884  10
  -7   4   5-1.40617 36.5139  10
  -7   4   4 1264.23 120.437  10
  -7   4   3 45.9777 32.4841  10
  -7  -4   3 80.2587 54.5256  12
  -7   4   2 217.754 57.7478  10
  -7  -4   2 242.070 61.5270  12
  -7   4   1 307.250 65.8717  10
  -7  -4   1 432.645 75.3381  12
  -7   4   0 1240.58 120.672  10
  -7  -4   0 1122.77 113.807  12
  -7   4  -1 714.827 96.5618  10
  -7  -4  -1 823.787 100.041  12
  -7   4  -2 2892.68 179.472  10
  -7  -4  -2 3159.21 186.900  12
  -7   4  -3 328.520 72.0776  10
  -7  -4  -3 370.276 68.8051  12
  -7   4  -4 1737.33 142.398  10
  -7  -4  -4 1905.98 144.277  12
  -7   4  -5 568.858 89.9865  10
  -7  -4  -5 527.327 78.9578  12
  -7   4  -6 287.364 72.2649  10
  -7  -4  -6 143.153 42.0358  12
  -7  -4  -7 23.9311 44.1866  12
  -7  -4  -8 2924.34 161.133  12
  -7  -4  -9 105.849 41.0545  12
  -7  -4 -10-1.70851 25.0275  12
  -7  -4 -11 92.0791 27.1330  12
  -7   5  13 571.194 56.7829  10
  -7   5  12-6.39134 25.4290  10
  -7   5  11 12.5341 22.9603  10
  -7   5  10 1253.44 108.761  10
  -7  -5  10 1225.50 97.4338  13
  -7   5   9 783.515 86.3363  10
  -7  -5   9 753.865 80.8615  13
  -7   5   8 1223.57 111.482  10
  -7  -5   8 1163.93 101.194  13
  -7   5   7 285.355 57.0543  10
  -7  -5   7 244.660 51.0446  13
  -7   5   6-15.2292 41.0174  10
  -7   5   6 15.7646 28.2421  16
  -7  -5   6 8.90068 23.0486  13
  -7   5   5 78.7333 38.7903  10
  -7   5   5-37.7634 39.7482  16
  -7   5   4 3663.06 196.692  10
  -7   5   4 4017.73 188.497  16
  -7   5   3 2514.55 164.628  10
  -7   5   3 2397.39 146.455  16
  -7  -5   3 2731.24 168.133  12
  -7   5   2 162.835 51.6992  10
  -7   5   2 93.0989 37.5729  16
  -7  -5   2 240.033 61.1720  12
  -7   5   1 1256.90 119.824  10
  -7  -5   1 1244.84 116.688  12
  -7   5   0 4577.31 222.916  10
  -7  -5   0 4430.69 215.146  12
  -7   5  -1 655.820 89.4200  10
  -7  -5  -1 641.091 87.5198  12
  -7   5  -2-48.7633 53.0358  10
  -7  -5  -2 76.1292 46.0407  12
  -7   5  -3 313.334 68.8844  10
  -7  -5  -3 238.545 56.7474  12
  -7   5  -4 921.301 106.272  10
  -7  -5  -4 778.831 90.1755  12
  -7   5  -5 157.417 58.0420  10
  -7  -5  -5 53.5889 31.7556  12
  -7  -5  -6 2072.68 140.069  12
  -7  -5  -7 321.263 56.0331  12
  -7  -5  -8 1538.65 111.604  12
  -7  -5  -9-58.1567 35.9185  12
  -7  -5 -10 768.307 67.0456  12
  -7   6  12 686.179 62.5367  10
  -7   6  12 639.906 55.0487  16
  -7   6  11-15.0831 27.2523  10
  -7  -6  11-8.96646 27.2881  13
  -7   6  10 3936.61 170.618  10
  -7  -6  10 4044.59 168.601  13
  -7   6   9 2123.53 132.557  10
  -7  -6   9 2126.91 128.563  13
  -7   6   8 3662.11 179.602  10
  -7   6   8 3665.25 168.574  16
  -7  -6   8 3847.65 177.088  13
  -7   6   7 923.839 95.8332  10
  -7   6   7 673.621 77.4270  16
  -7  -6   7 842.213 87.7693  13
  -7   6   6 2457.30 154.757  10
  -7   6   6 2349.57 143.244  16
  -7  -6   6 2619.72 150.709  13
  -7   6   5 559.679 78.9001  10
  -7   6   5 528.030 70.6691  16
  -7  -6   5 617.866 74.9349  13
  -7   6   4 987.115 101.688  10
  -7   6   4 914.695 92.3717  16
  -7  -6   4 1160.83 100.898  13
  -7   6   3 1989.91 142.317  10
  -7   6   3 2145.96 139.009  16
  -7   6   2 1559.48 126.496  10
  -7   6   2 1578.22 119.993  16
  -7  -6   2 1587.59 124.418  12
  -7   6   1 5816.78 242.037  10
  -7   6   1 6189.00 233.789  16
  -7  -6   1 6216.50 242.005  12
  -7   6   0 2470.16 162.625  10
  -7   6   0 2746.50 155.254  16
  -7  -6   0 2869.42 167.184  12
  -7   6  -1 2128.38 146.690  10
  -7   6  -1 2508.46 148.949  16
  -7  -6  -1 2502.33 155.769  12
  -7   6  -2 3759.67 193.019  10
  -7   6  -2 3888.06 182.132  16
  -7  -6  -2 3512.11 183.084  12
  -7   6  -3 533.247 78.0643  10
  -7   6  -3 509.424 66.8423  16
  -7  -6  -3 579.080 80.1950  12
  -7   6  -4 2947.48 165.886  10
  -7   6  -4 2932.39 150.328  16
  -7  -6  -4 3019.99 166.444  12
  -7   6  -5 1124.03 104.067  10
  -7   6  -5 1034.45 87.8778  16
  -7  -6  -5 877.087 88.7092  12
  -7  -6  -6 122.422 37.5784  12
  -7  -6  -7 1024.93 88.9744  12
  -7  -6  -8 754.684 71.9848  12
  -7  -6  -9 106.198 30.8107  12
  -7   7  11 47.6635 20.3112  10
  -7   7  11 74.7335 26.3250  16
  -7  -7  11 18.3480 20.9604  13
  -7   7  10 720.268 67.3392  10
  -7   7  10 706.243 65.7510  16
  -7  -7  10 779.902 72.7367  13
  -7   7   9 91.7088 31.7533  10
  -7   7   9 86.4602 32.6269  16
  -7  -7   9 58.5139 26.5339  13
  -7   7   8 7.46694 26.9599  10
  -7   7   8 59.9738 34.4779  16
  -7  -7   8 6.03492 24.4890  13
  -7   7   7 52.2707 35.5088  16
  -7  -7   7-15.2578 31.7641  13
  -7   7   6 2065.97 132.655  10
  -7   7   6 1854.82 124.208  16
  -7  -7   6 1698.85 119.780  13
  -7   7   5 866.501 89.3120  10
  -7   7   5 915.726 88.8927  16
  -7  -7   5 719.091 80.4261  13
  -7   7   4 38.0340 36.3889  10
  -7   7   4 59.7290 33.4345  16
  -7  -7   4 69.0020 34.7422  13
  -7   7   3 5.37684 27.9981  10
  -7   7   3 29.5611 26.7117  16
  -7  -7   3 21.6259 23.6939  13
  -7   7   2 1352.09 113.881  10
  -7   7   2 1319.53 110.221  16
  -7   7   1 872.650 93.9961  10
  -7   7   1 908.003 94.1554  16
  -7  -7   1 1005.64 94.9782  12
  -7   7   0-54.6308 46.9417  10
  -7   7   0 26.7710 33.2516  16
  -7  -7   0-3.22693 33.3961  12
  -7   7  -1-91.6805 51.3299  10
  -7   7  -1-17.9792 33.6593  16
  -7   7  -2 1292.26 109.894  10
  -7   7  -2 1129.60 100.955  16
  -7  -7  -2 1326.40 106.727  12
  -7   7  -3 4964.28 202.702  10
  -7   7  -3 4984.34 199.109  16
  -7  -7  -3 5046.02 200.287  12
  -7   7  -4 1114.58 102.451  10
  -7   7  -4 971.233 86.8980  16
  -7  -7  -4 1034.06 90.4190  12
  -7   7  -5 259.534 48.5176  16
  -7  -7  -5 261.365 45.1964  12
  -7   7  -6 131.771 37.1802  16
  -7  -7  -6 143.246 38.9260  12
  -7   7  -7 107.608 28.6507  16
  -7  -7  -7 97.2054 29.5324  12
  -7  -7  -8 208.070 36.9406  12
  -7   8  10 305.643 41.1013  16
  -7  -8  10 300.776 44.4434  13
  -7   8   9 179.035 34.7761  10
  -7   8   9 228.684 43.4734  16
  -7  -8   9 160.147 35.6659  13
  -7   8   8 4389.74 158.798  10
  -7   8   8 4054.78 160.849  16
  -7  -8   8 4366.83 169.941  13
  -7   8   7 6149.89 196.715  10
  -7   8   7 5678.69 198.244  16
  -7  -8   7 5800.47 203.116  13
  -7   8   6 617.257 68.5043  10
  -7   8   6 485.083 62.7044  16
  -7  -8   6 551.714 68.9141  13
  -7   8   5 369.764 56.5739  10
  -7   8   5 242.282 45.1713  16
  -7  -8   5 316.599 55.7532  13
  -7   8   4 49.1876 31.9285  16
  -7  -8   4 96.8967 36.0824  13
  -7   8   3 616.726 70.9040  10
  -7   8   3 446.909 62.2340  16
  -7  -8   3 613.421 70.6805  13
  -7   8   2 131.424 30.3970  10
  -7   8   2 188.851 45.7291  16
  -7  -8   2 158.969 38.4733  13
  -7   8   1 3040.92 152.753  10
  -7   8   1 2840.29 153.591  16
  -7  -8   1 2700.19 141.440  13
  -7   8   0 85.6763 36.0622  10
  -7   8   0 137.479 40.2335  16
  -7   8  -1 2145.81 132.275  16
  -7   8  -2 690.204 74.9335  16
  -7   8  -3 94.1453 33.4973  16
  -7   8  -4 124.233 36.8985  16
  -7   8  -5 181.983 40.1421  16
  -7   8  -6 255.932 41.4928  16
  -7   8  -7 397.651 45.3698  16
  -7   9   9-1.48268 18.3740  16
  -7  -9   9 4.42035 19.7513  13
  -7   9   8-24.1821 22.0274  16
  -7  -9   8-2.09152 20.1213  13
  -7   9   7 1.78911 20.9431  16
  -7  -9   7 45.2229 29.5235  13
  -7   9   6 39.9504 27.5658  16
  -7  -9   6 9.93141 21.8839  13
  -7   9   5 136.248 38.3597  16
  -7  -9   5 108.339 30.8757  13
  -7   9   4-32.4517 26.5298  16
  -7  -9   4-39.4037 28.5440  13
  -7   9   3 48.6111 29.9392  16
  -7  -9   3 29.5206 22.7340  13
  -7   9   2 8.53030 24.1677  16
  -7  -9   2 4.61158 19.3140  13
  -7   9   1 53.6408 30.3072  16
  -7  -9   1 52.8358 27.1631  13
  -7   9   0 137.065 38.9187  16
  -7  -9   0 124.919 32.9008  13
  -7   9  -1 17.9988 27.2476  16
  -7   9  -2 79.2048 34.9953  16
  -7   9  -3 794.857 74.2580  16
  -7   9  -4 60.2835 28.1335  16
  -7   9  -5 134.594 32.8831  16
  -7   9  -6 61.3045 22.7528  16
  -7  10   7 243.498 36.1419  16
  -7 -10   7 225.668 36.2528  13
  -7  10   6 165.842 34.4472  16
  -7 -10   6 144.494 32.2319  13
  -7  10   5 206.925 39.0101  16
  -7 -10   5 147.625 33.5912  13
  -7  10   4 104.178 30.4955  16
  -7 -10   4 45.2355 28.8546  13
  -7  10   3 23.7129 25.2409  16
  -7 -10   3 1.34970 22.1725  13
  -7  10   2 2.25869 24.2038  16
  -7 -10   2 1.56148 19.3827  13
  -7  10   1 884.666 76.6306  16
  -7 -10   1 784.245 66.2081  13
  -7  10   0 302.144 48.9284  16
  -7 -10   0 247.311 38.6702  13
  -7  10  -1 72.7585 30.1597  16
  -7  10  -2 274.916 45.0270  16
  -7  10  -3 74.9990 29.1348  16
  -7  10  -4 13.6954 21.7093  16
  -7  11   4 231.420 35.2491  16
  -7  11   3 842.269 63.2623  16
  -7 -11   3 793.436 59.0472  13
  -7  11   2 2090.04 98.7605  16
  -7  11   1 121.021 27.7817  16
  -7  11   0-12.5792 20.8360  16
  -7  11  -1 110.744 25.9442  16
  -8   0  11 26.6654 19.8552  10
  -8   0  10 96.3824 30.2996  10
  -8   0   9 8.46521 20.8192  10
  -8   0   8 256.012 46.4419  10
  -8   0   7 10.5403 27.2006  10
  -8   0   6 2722.83 152.984  10
  -8   0   5 0.82837 27.2410  10
  -8   0   4 173.774 50.5479  10
  -8   0   3 22.8541 33.9786  10
  -8   0   2 1100.90 105.271  10
  -8   0   1-36.4262 48.5132  10
  -8   0   1 20.3104 41.6725  12
  -8   0   0-77.3729 54.3192  10
  -8   0   0 68.2560 42.3481  12
  -8   0  -1-2.66443 38.2014  10
  -8   0  -1 0.59944 29.1884  12
  -8   0  -2-38.2249 40.0665  10
  -8   0  -2-5.13113 26.7798  12
  -8   0  -3 30.2513 40.6398  10
  -8   0  -3 44.4723 35.1023  12
  -8   0  -4 739.670 87.5045  10
  -8   0  -4 690.193 77.9074  12
  -8   0  -5-6.78339 22.6886  12
  -8   0  -6 796.218 78.5423  12
  -8   0  -7 39.1566 29.3631  12
  -8   0  -8 2267.64 107.337  12
  -8   1  11 1.41080 22.0943  10
  -8   1  10 765.864 71.6080  10
  -8   1   9 510.711 63.9945  10
  -8   1   8 65.0884 34.5343  10
  -8  -1   7 1034.38 87.0261  10
  -8   1   7 1163.68 100.742  10
  -8  -1   6 1606.19 112.934  10
  -8   1   6 1515.62 118.649  10
  -8  -1   5 49.0390 37.4894  10
  -8   1   5-23.1459 33.3428  10
  -8  -1   4 1720.51 122.347  10
  -8   1   4 1788.72 131.631  10
  -8  -1   3 93.0624 44.2810  10
  -8   1   3 45.2564 38.0052  10
  -8  -1   2 52.8964 40.5057  10
  -8   1   2 209.950 58.8558  10
  -8  -1   1-1.50311 41.9937  10
  -8   1   1 78.8297 40.1196  10
  -8  -1   1 52.5264 38.6480  12
  -8  -1   0 6.55732 37.1354  10
  -8   1   0-57.8876 53.7683  10
  -8   1   0 19.0090 30.5672  12
  -8  -1   0 40.1527 36.4133  12
  -8  -1  -1 527.216 74.6308  10
  -8   1  -1 504.226 75.1656  10
  -8   1  -1 438.339 66.8623  12
  -8  -1  -1 506.513 74.9986  12
  -8  -1  -2 781.072 88.3037  10
  -8   1  -2 902.824 96.5461  10
  -8   1  -2 789.715 86.7070  12
  -8  -1  -2 680.355 86.3667  12
  -8  -1  -3 619.932 78.8866  10
  -8   1  -3 612.808 84.1151  10
  -8   1  -3 628.069 75.8678  12
  -8  -1  -3 450.284 70.2818  12
  -8   1  -4 2243.92 143.830  10
  -8   1  -4 2205.35 132.247  12
  -8  -1  -4 2277.57 142.542  12
  -8   1  -5 353.179 56.3079  12
  -8  -1  -5 355.854 59.5401  12
  -8   1  -6 360.413 52.8470  12
  -8  -1  -6 231.572 45.5314  12
  -8   1  -7 144.461 31.1370  12
  -8  -1  -7 129.361 32.5197  12
  -8  -1  -8 205.271 38.1389  12
  -8   2  11 118.689 30.7082  10
  -8   2  10 0.36183 25.1074  10
  -8   2   9-14.4002 30.6779  10
  -8   2   8 219.031 47.3325  10
  -8   2   7 41.3288 29.0499  10
  -8   2   6 101.493 38.5864  10
  -8   2   5 20.1644 34.0437  10
  -8   2   4 84.1353 43.3176  10
  -8   2   3 4205.48 205.265  10
  -8   2   2 83.9417 48.4867  10
  -8   2   1-104.809 65.1764  10
  -8  -2   1 42.1088 43.4263  12
  -8   2   0 281.681 55.8431  10
  -8  -2   0 289.432 62.0606  12
  -8   2  -1 319.160 64.7341  10
  -8   2  -1 421.142 64.7905  12
  -8  -2  -1 433.232 72.7426  12
  -8   2  -2-50.1364 46.7585  10
  -8   2  -2 39.2564 30.9164  12
  -8  -2  -2 58.4027 43.5945  12
  -8   2  -3 532.653 79.3832  10
  -8   2  -3 446.280 58.7487  12
  -8  -2  -3 477.835 71.2328  12
  -8   2  -4 170.572 56.4686  10
  -8   2  -4 132.125 37.1465  12
  -8  -2  -4 158.670 46.8242  12
  -8  -2  -5 90.3656 36.5331  12
  -8  -2  -6 77.3458 31.5585  12
  -8  -2  -7 1759.37 108.921  12
  -8  -2  -8 57.5935 26.6943  12
  -8   3  11 91.8265 29.3490  10
  -8   3  10 2.15480 24.0833  10
  -8   3   9 740.411 75.5042  10
  -8   3   8 35.2879 28.6119  10
  -8   3   7 3683.82 176.958  10
  -8   3   6 247.428 53.6157  10
  -8   3   5 1843.69 132.255  10
  -8   3   4 320.146 61.7176  10
  -8   3   3 535.345 77.7523  10
  -8   3   2 1501.87 124.214  10
  -8   3   1-116.742 69.0886  10
  -8  -3   1 79.5114 50.8823  12
  -8   3   0 93.0533 45.2219  10
  -8  -3   0 242.801 59.1130  12
  -8   3  -1 689.901 87.7388  10
  -8  -3  -1 700.143 87.2249  12
  -8   3  -2 800.416 91.7469  10
  -8  -3  -2 788.588 90.9056  12
  -8   3  -3 75.7502 47.2272  10
  -8  -3  -3 90.0134 41.9619  12
  -8   3  -4 304.147 63.8723  10
  -8  -3  -4 181.425 44.1198  12
  -8  -3  -5 199.368 46.3335  12
  -8  -3  -6 256.555 50.2259  12
  -8  -3  -7 1411.90 96.7655  12
  -8  -3  -8 1431.81 86.8795  12
  -8   4  11 79.4557 25.3382  10
  -8   4  10 9.70360 23.8319  10
  -8   4   9 2.38890 22.0922  10
  -8   4   8 43.9437 26.9251  10
  -8   4   7 40.6265 29.6614  10
  -8   4   6-41.6938 36.2896  10
  -8   4   5 717.445 84.7829  10
  -8   4   4 352.733 64.0690  10
  -8   4   3 3163.24 173.480  10
  -8   4   2 1121.65 106.680  10
  -8   4   1-50.0691 58.0228  10
  -8  -4   1 48.0767 42.8194  12
  -8   4   0 363.790 66.6144  10
  -8  -4   0 427.678 68.8758  12
  -8   4  -1 1027.81 102.158  10
  -8  -4  -1 985.676 98.0009  12
  -8   4  -2 974.200 99.1101  10
  -8  -4  -2 1001.18 96.5957  12
  -8   4  -3 2955.14 160.827  10
  -8  -4  -3 2722.88 151.197  12
  -8   4  -4 297.929 64.8240  10
  -8  -4  -4 193.248 47.4849  12
  -8  -4  -5 663.342 72.3643  12
  -8  -4  -6-23.5948 28.1944  12
  -8  -4  -7 2025.47 107.636  12
  -8  -4  -8 1183.83 74.0163  12
  -8   5  10 81.9291 28.3186  10
  -8   5   9 194.805 41.6373  10
  -8   5   8 39.1568 29.2923  10
  -8   5   7 3771.90 165.529  10
  -8   5   6 393.118 60.3980  10
  -8   5   5 406.061 65.7657  10
  -8   5   4 402.137 64.9414  10
  -8   5   3 352.153 62.3773  10
  -8   5   2 176.931 47.5631  10
  -8   5   1 798.444 87.5733  10
  -8   5   0 2158.51 138.510  10
  -8  -5   0 2369.99 139.391  12
  -8   5  -1 1471.13 115.927  10
  -8  -5  -1 1282.20 103.695  12
  -8   5  -2 739.624 84.2166  10
  -8  -5  -2 704.334 77.3208  12
  -8   5  -3 1097.51 96.3638  10
  -8  -5  -3 966.197 86.3852  12
  -8   5  -4 1233.79 97.6485  10
  -8  -5  -4 1265.84 96.0243  12
  -8  -5  -5 372.675 55.7593  12
  -8  -5  -6 2548.24 119.727  12
  -8  -5  -7 520.969 52.5658  12
  -8   6   9 389.419 46.3128  10
  -8   6   8 53.8421 32.2315  10
  -8   6   7 102.821 33.9491  10
  -8   6   6 32.4503 27.4247  10
  -8   6   5 838.779 80.2155  10
  -8   6   4 3016.39 149.062  10
  -8   6   3 9708.82 270.529  10
  -8   6   2-29.3450 40.8052  10
  -8   6   1 3393.82 162.347  10
  -8   6   0-53.1054 39.8952  10
  -8   6  -1 111.418 42.9954  10
  -8  -6  -1 116.488 40.0924  12
  -8   6  -2 212.749 49.0246  10
  -8  -6  -2 310.499 50.9137  12
  -8   6  -3 267.335 51.6484  10
  -8  -6  -3 19.4309 27.6012  12
  -8  -6  -4 21.4455 24.9297  12
  -8  -6  -5 4.92763 18.9895  12
  -8   7   7 93.5325 29.5547  10
  -8   7   6 2487.84 115.471  10
  -8   7   5 211.704 40.9706  10
  -8   7   4 484.614 56.4338  10
  -8   7   3 102.205 36.5590  10
  -8   7   2-4.40456 32.3127  10
  -8   7   1 423.449 55.4861  10
  -8   7   0 45.3219 28.7492  10
  -8   7  -1 948.534 78.0978  10
  -8   7  -2 211.885 46.2867  10
  -8  -7  -3 246.885 37.2831  12
  -8   8   4 29.1443 20.1075  16
  -8   8   3 253.693 35.3799  10
  -8   8   3 257.946 33.4972  16
  -8   8   2-15.2768 25.1588  10
  -8   8   1 663.135 55.3645  10
  -8   8   1 856.171 63.0008  16
  -9   0   5 2781.23 117.747  10
  -9   0   4-51.4909 31.9073  10
  -9   0   3 31.4793 27.4094  10
  -9   0   2 28.6226 25.5277  10
  -9   0   1 289.867 47.3318  10
  -9   0   0 43.2438 30.9013  10
  -9   0  -1 202.490 42.3317  10
  -9   1   6-29.2892 32.7026  10
  -9   1   5 79.0305 25.9199  10
  -9   1   4 39.8987 25.4735  10
  -9   1   3 95.2367 28.9609  10
  -9   1   2 10.1295 28.0120  10
  -9   1   1 1360.25 94.3048  10
  -9   1   0 166.765 40.9187  10
  -9   1  -1 101.070 38.7987  10
  -9   2   6 173.662 35.7850  10
  -9   2   5 89.0114 26.1585  10
  -9   2   4-7.88177 28.4230  10
  -9   2   3 118.465 31.9251  10
  -9   2   2 56.6553 30.6321  10
  -9   2   1 308.478 51.0623  10
  -9   2   0 474.613 60.9387  10
  -9   2  -1 416.595 58.4583  10
  -9   2  -2 218.213 44.6929  10
  -9   3   6 78.3939 25.1892  10
  -9   3   5 75.4452 29.6107  10
  -9   3   4 488.280 57.8677  10
  -9   3   3 29.0136 31.6157  10
  -9   3   2-35.3880 34.4734  10
  -9   3   1 422.475 57.7071  10
  -9   3   0 422.629 56.8275  10
  -9   3  -1 42.4598 37.1589  10
  -9   4   5 643.234 58.2296  10
  -9   4   4 293.917 45.0595  10
  -9   4   3 490.505 55.8897  10
  -9   4   2 405.906 53.1442  10
  -9   4   1 250.151 45.1977  10
  -9   4   0 96.1680 35.3123  10
  -9   4  -1 23.9723 27.3271  10
  -9   5   3 352.051 44.3414  10
  -9   5   2 476.278 50.7083  10
  -9   5   1 329.757 45.5347  10
   0   0   0    0.00    0.00   0
;
_shelx_hkl_checksum              8048
_shelx_res_file
;
TITL EDRL120 in  P21/c
    shelx.res
    created by SHELXL-2016/6 at 15:15:54 on 14-Sep-2017
CELL  1.54184   7.6756  13.6762  17.6561   90.000  110.442   90.000
ZERR     4.00   0.0002   0.0003   0.0004    0.000    0.002    0.000
LATT   1
SYMM  - X, 1/2 + Y, 1/2 - Z
SFAC  C    H    N    O    S
UNIT  76 72 8 12 4
MERG   2
DFIX  0.860 0.010 N2 H2
FMAP   2
PLAN   20
SIZE  0.24 0.28   0.32
ACTA
BOND   $H
HTAB C12 S1
HTAB N2 N1_$1
HTAB C7 O2_$2
EQIV $1  x+1,-y+1/2,+z+1/2
EQIV $2  x-1,-y+1/2,+z-1/2
L.S. 7
TEMP  22.00
WGHT    0.064800    0.305900
FVAR       5.06202
C1    1    0.221215    0.887042    0.360534    11.00000    0.08561    0.06384 =
         0.04905    0.01186    0.01015    0.01041
AFIX 137
H1A   2    0.119617    0.845372    0.359311    11.00000   -1.50000
H1B   2    0.203120    0.909732    0.306865    11.00000   -1.50000
H1C   2    0.226556    0.942020    0.395081    11.00000   -1.50000
AFIX   0
C2    1    0.400565    0.830581    0.392447    11.00000    0.06697    0.06613 =
         0.04662    0.01247    0.02447    0.00208
AFIX  23
H2A   2    0.501190    0.871525    0.389495    11.00000   -1.20000
H2B   2    0.392555    0.774043    0.358220    11.00000   -1.20000
AFIX   0
C3    1    0.445623    0.796646    0.478621    11.00000    0.04373    0.04693 =
         0.04321    0.00765    0.01679    0.00479
C4    1    0.541423    0.853964    0.544350    11.00000    0.05406    0.03781 =
         0.05711    0.00608    0.01514   -0.00333
AFIX  43
H4    2    0.584151    0.915343    0.536308    11.00000   -1.20000
AFIX   0
C5    1    0.574173    0.820757    0.621900    11.00000    0.05301    0.03989 =
         0.04577   -0.00320    0.00510    0.00128
AFIX  43
H5    2    0.638544    0.859367    0.666206    11.00000   -1.20000
AFIX   0
C6    1    0.509893    0.729191    0.632833    11.00000    0.04723    0.03810 =
         0.03777    0.00230    0.01104    0.00929
C7    1    0.387877    0.706100    0.495436    11.00000    0.04940    0.04425 =
         0.03703   -0.00082    0.01208   -0.00217
AFIX  43
H7    2    0.323915    0.666059    0.452054    11.00000   -1.20000
AFIX   0
C8    1    0.544423    0.686558    0.715606    11.00000    0.07032    0.04913 =
         0.03652    0.00370    0.01604    0.01443
AFIX  23
H8A   2    0.602405    0.735354    0.756531    11.00000   -1.20000
H8B   2    0.426978    0.667993    0.720636    11.00000   -1.20000
AFIX   0
C9    1    0.668145    0.598753    0.728689    11.00000    0.06090    0.05114 =
         0.03631    0.00871    0.01490    0.01253
AFIX  23
H9A   2    0.605655    0.547305    0.691233    11.00000   -1.20000
H9B   2    0.781431    0.615675    0.719115    11.00000   -1.20000
AFIX   0
C10   1    0.795530    0.476411    0.829018    11.00000    0.04479    0.03784 =
         0.03719    0.00244    0.01135    0.00178
C11   1    0.840085    0.447839    0.908916    11.00000    0.05584    0.04178 =
         0.03585    0.00035    0.01732    0.00605
AFIX  43
H11   2    0.814895    0.489596    0.945378    11.00000   -1.20000
AFIX   0
C12   1    0.921043    0.358526    0.934854    11.00000    0.05437    0.04339 =
         0.03685    0.00706    0.01675    0.00448
AFIX  43
H12   2    0.950844    0.340781    0.988757    11.00000   -1.20000
AFIX   0
C13   1    0.959150    0.294011    0.881188    11.00000    0.04526    0.03831 =
         0.04020    0.00240    0.01380   -0.00016
C14   1    0.916093    0.325349    0.801741    11.00000    0.06912    0.04717 =
         0.03865   -0.00282    0.01716    0.01130
AFIX  43
H14   2    0.941577    0.283999    0.765103    11.00000   -1.20000
AFIX   0
C15   1    0.837153    0.415269    0.775204    11.00000    0.07018    0.05065 =
         0.03310    0.00389    0.01524    0.01253
AFIX  43
H15   2    0.812238    0.434561    0.721943    11.00000   -1.20000
AFIX   0
C16   1    1.040066    0.197426    0.902312    11.00000    0.05451    0.03849 =
         0.04462   -0.00042    0.01942    0.00167
AFIX  43
H16   2    1.042094    0.160700    0.858298    11.00000   -1.20000
AFIX   0
C17   1    1.112361    0.151385    0.973452    11.00000    0.04627    0.03527 =
         0.04423   -0.00074    0.01612   -0.00076
C18   1    1.243137    0.077667    1.114098    11.00000    0.06751    0.05110 =
         0.04374   -0.00045    0.01184    0.01241
C19   1    1.190805    0.051517    0.976758    11.00000    0.05471    0.03565 =
         0.04420    0.00050    0.01777    0.00104
N1    3    0.417968    0.672298    0.570017    11.00000    0.05234    0.03709 =
         0.03928    0.00141    0.01443   -0.00029
N2    3    1.258007    0.017797    1.054777    11.00000    0.06382    0.03850 =
         0.04313    0.00180    0.01569    0.01051
H2    2    1.309680   -0.038886    1.066208    11.00000    0.07627
O1    4    0.711842    0.565513    0.809906    11.00000    0.06828    0.04474 =
         0.03527    0.00636    0.01640    0.01530
O2    4    1.195505    0.005107    0.918973    11.00000    0.10344    0.04405 =
         0.04655    0.00168    0.02940    0.01699
O3    4    1.293829    0.060299    1.184888    11.00000    0.12604    0.08046 =
         0.03950    0.00281    0.01401    0.03895
S1    5    1.136590    0.190656    1.070871    11.00000    0.06937    0.04449 =
         0.04352   -0.00351    0.01459    0.01282
HKLF 4  1.0  1.00  0.00  0.00  0.00 -1.00  0.00 -1.00  0.00 -1.00
REM  EDRL120 in  P21/c
REM R1 =  0.0404 for    2894 Fo > 4sig(Fo)  and  0.0461 for all    3314 data
REM    231 parameters refined using      1 restraints
END
WGHT      0.0648      0.3059
REM Highest difference peak  0.186,  deepest hole -0.222,  1-sigma level  0.051
Q1    1   1.1489  0.1035  0.9773  11.00000  0.05    0.19
Q2    1   0.3569  0.6201  0.5786  11.00000  0.05    0.17
Q3    1   0.8770  0.4571  0.8086  11.00000  0.05    0.16
Q4    1   0.8627  0.3206  0.9779  11.00000  0.05    0.15
Q5    1   0.7160  0.5744  0.6908  11.00000  0.05    0.15
Q6    1   0.8190  0.6545  0.7490  11.00000  0.05    0.15
Q7    1   1.0388  0.1462  1.0598  11.00000  0.05    0.14
Q8    1   0.5941  0.7654  0.6283  11.00000  0.05    0.14
Q9    1   0.8912  0.3149  0.9025  11.00000  0.05    0.14
Q10   1   0.7409  0.7095  0.6416  11.00000  0.05    0.14
Q11   1   0.8061  0.3542  0.7874  11.00000  0.05    0.14
Q12   1   0.8287  0.3945  0.9143  11.00000  0.05    0.14
Q13   1   1.1348 -0.0065  0.9378  11.00000  0.05    0.13
Q14   1   0.7548  0.2425  0.8990  11.00000  0.05    0.13
Q15   1   1.1094  0.1620  1.0191  11.00000  0.05    0.13
Q16   1   0.8622  0.4711  0.8707  11.00000  0.05    0.13
Q17   1  -0.0242  0.9418  0.2862  11.00000  0.05    0.13
Q18   1   0.8322  0.8047  0.6781  11.00000  0.05    0.13
Q19   1   0.5010  0.8037  0.3777  11.00000  0.05    0.13
Q20   1   0.3945  0.7595  0.4856  11.00000  0.05    0.13
;
_shelx_res_checksum              40908
loop_
_space_group_symop_operation_xyz
'x, y, z'
'-x, y+1/2, -z+1/2'
'-x, -y, -z'
'x, -y-1/2, z-1/2'
loop_
_atom_site_type_symbol
_atom_site_label
_atom_site_fract_x
_atom_site_fract_y
_atom_site_fract_z
_atom_site_U_iso_or_equiv
_atom_site_adp_type
_atom_site_calc_flag
_atom_site_occupancy
C C1 0.2212(3) 0.88704(17) 0.36053(12) 0.0697(6) Uani d 1
H H1A 0.119617 0.845372 0.359311 0.105 Uiso calc 1
H H1B 0.203120 0.909732 0.306865 0.105 Uiso calc 1
H H1C 0.226556 0.942020 0.395081 0.105 Uiso calc 1
C C2 0.4006(3) 0.83058(16) 0.39245(11) 0.0587(5) Uani d 1
H H2A 0.501190 0.871525 0.389495 0.070 Uiso calc 1
H H2B 0.392555 0.774043 0.358220 0.070 Uiso calc 1
C C3 0.4456(2) 0.79665(12) 0.47862(10) 0.0442(4) Uani d 1
C C4 0.5414(2) 0.85396(13) 0.54435(11) 0.0508(4) Uani d 1
H H4 0.584151 0.915343 0.536308 0.061 Uiso calc 1
C C5 0.5742(2) 0.82076(12) 0.62190(11) 0.0494(4) Uani d 1
H H5 0.638544 0.859367 0.666206 0.059 Uiso calc 1
C C6 0.5099(2) 0.72919(12) 0.63283(9) 0.0420(3) Uani d 1
C C7 0.3879(2) 0.70610(12) 0.49544(10) 0.0444(4) Uani d 1
H H7 0.323915 0.666059 0.452054 0.053 Uiso calc 1
C C8 0.5444(3) 0.68656(13) 0.71561(10) 0.0527(4) Uani d 1
H H8A 0.602405 0.735354 0.756531 0.063 Uiso calc 1
H H8B 0.426978 0.667993 0.720636 0.063 Uiso calc 1
C C9 0.6681(3) 0.59875(13) 0.72869(10) 0.0500(4) Uani d 1
H H9A 0.605655 0.547305 0.691233 0.060 Uiso calc 1
H H9B 0.781431 0.615675 0.719115 0.060 Uiso calc 1
C C10 0.7955(2) 0.47641(11) 0.82902(9) 0.0407(3) Uani d 1
C C11 0.8401(2) 0.44784(12) 0.90892(9) 0.0441(4) Uani d 1
H H11 0.814895 0.489596 0.945378 0.053 Uiso calc 1
C C12 0.9210(2) 0.35853(12) 0.93485(9) 0.0447(4) Uani d 1
H H12 0.950844 0.340781 0.988757 0.054 Uiso calc 1
C C13 0.9592(2) 0.29401(11) 0.88119(10) 0.0416(3) Uani d 1
C C14 0.9161(3) 0.32535(13) 0.80174(10) 0.0521(4) Uani d 1
H H14 0.941577 0.283999 0.765103 0.063 Uiso calc 1
C C15 0.8372(3) 0.41527(13) 0.77520(10) 0.0521(4) Uani d 1
H H15 0.812238 0.434561 0.721943 0.062 Uiso calc 1
C C16 1.0401(2) 0.19743(11) 0.90231(10) 0.0453(4) Uani d 1
H H16 1.042094 0.160700 0.858298 0.054 Uiso calc 1
C C17 1.1124(2) 0.15138(11) 0.97345(10) 0.0418(3) Uani d 1
C C18 1.2431(3) 0.07767(14) 1.11410(11) 0.0561(4) Uani d 1
C C19 1.1908(2) 0.05152(12) 0.97676(10) 0.0447(4) Uani d 1
N N1 0.41797(19) 0.67230(10) 0.57002(8) 0.0433(3) Uani d 1
N N2 1.2580(2) 0.01780(10) 1.05478(9) 0.0493(3) Uani d 1
H H2 1.310(3) -0.0389(10) 1.0662(14) 0.076(7) Uiso d 1
O O1 0.71184(17) 0.56551(9) 0.80991(6) 0.0499(3) Uani d 1
O O2 1.1955(2) 0.00511(9) 0.91897(8) 0.0638(4) Uani d 1
O O3 1.2938(3) 0.06030(13) 1.18489(8) 0.0859(6) Uani d 1
S S1 1.13659(7) 0.19066(3) 1.07087(3) 0.05382(16) Uani d 1
loop_
_atom_site_aniso_label
_atom_site_aniso_U_11
_atom_site_aniso_U_22
_atom_site_aniso_U_33
_atom_site_aniso_U_12
_atom_site_aniso_U_13
_atom_site_aniso_U_23
C1 0.0856(15) 0.0638(12) 0.0490(10) 0.0104(11) 0.0101(10) 0.0119(9)
C2 0.0670(11) 0.0661(12) 0.0466(10) 0.0021(9) 0.0245(9) 0.0125(9)
C3 0.0437(8) 0.0469(9) 0.0432(8) 0.0048(7) 0.0168(7) 0.0076(7)
C4 0.0541(10) 0.0378(8) 0.0571(10) -0.0033(7) 0.0151(8) 0.0061(7)
C5 0.0530(9) 0.0399(8) 0.0458(9) 0.0013(7) 0.0051(7) -0.0032(7)
C6 0.0472(8) 0.0381(8) 0.0378(8) 0.0093(6) 0.0110(6) 0.0023(6)
C7 0.0494(9) 0.0443(8) 0.0370(8) -0.0022(7) 0.0121(7) -0.0008(6)
C8 0.0703(11) 0.0491(10) 0.0365(8) 0.0144(8) 0.0160(8) 0.0037(7)
C9 0.0609(10) 0.0511(10) 0.0363(8) 0.0125(8) 0.0149(7) 0.0087(7)
C10 0.0448(8) 0.0378(8) 0.0372(8) 0.0018(6) 0.0113(6) 0.0024(6)
C11 0.0558(9) 0.0418(8) 0.0359(7) 0.0060(7) 0.0173(7) 0.0004(6)
C12 0.0544(9) 0.0434(8) 0.0369(7) 0.0045(7) 0.0168(7) 0.0071(6)
C13 0.0453(8) 0.0383(8) 0.0402(8) -0.0002(6) 0.0138(6) 0.0024(6)
C14 0.0691(11) 0.0472(9) 0.0386(8) 0.0113(8) 0.0172(8) -0.0028(7)
C15 0.0702(11) 0.0507(10) 0.0331(8) 0.0125(8) 0.0152(7) 0.0039(7)
C16 0.0545(9) 0.0385(8) 0.0446(9) 0.0017(7) 0.0194(7) -0.0004(7)
C17 0.0463(8) 0.0353(8) 0.0442(8) -0.0008(6) 0.0161(7) -0.0007(6)
C18 0.0675(11) 0.0511(10) 0.0437(9) 0.0124(8) 0.0118(8) -0.0005(8)
C19 0.0547(9) 0.0357(8) 0.0442(8) 0.0010(7) 0.0178(7) 0.0005(7)
N1 0.0523(8) 0.0371(7) 0.0393(7) -0.0003(5) 0.0144(6) 0.0014(5)
N2 0.0638(9) 0.0385(7) 0.0431(7) 0.0105(6) 0.0157(6) 0.0018(6)
O1 0.0683(8) 0.0447(6) 0.0353(6) 0.0153(5) 0.0164(5) 0.0064(5)
O2 0.1034(11) 0.0441(7) 0.0466(7) 0.0170(7) 0.0294(7) 0.0017(6)
O3 0.1260(14) 0.0805(11) 0.0395(7) 0.0390(10) 0.0140(8) 0.0028(7)
S1 0.0694(3) 0.0445(3) 0.0435(2) 0.01282(19) 0.0146(2) -0.00351(17)
loop_
_atom_type_symbol
_atom_type_description
_atom_type_scat_dispersion_real
_atom_type_scat_dispersion_imag
_atom_type_scat_source
C C 0.0181 0.0091 'International Tables Vol C Tables 4.2.6.8 and 6.1.1.4'
H H 0.0000 0.0000 'International Tables Vol C Tables 4.2.6.8 and 6.1.1.4'
N N 0.0311 0.0180 'International Tables Vol C Tables 4.2.6.8 and 6.1.1.4'
O O 0.0492 0.0322 'International Tables Vol C Tables 4.2.6.8 and 6.1.1.4'
S S 0.3331 0.5567 'International Tables Vol C Tables 4.2.6.8 and 6.1.1.4'
loop_
_geom_angle_atom_site_label_1
_geom_angle_atom_site_label_2
_geom_angle_atom_site_label_3
_geom_angle
C2 C1 H1A 109.5
C2 C1 H1B 109.5
H1A C1 H1B 109.5
C2 C1 H1C 109.5
H1A C1 H1C 109.5
H1B C1 H1C 109.5
C1 C2 C3 113.09(16)
C1 C2 H2A 109.0
C3 C2 H2A 109.0
C1 C2 H2B 109.0
C3 C2 H2B 109.0
H2A C2 H2B 107.8
C4 C3 C7 116.41(15)
C4 C3 C2 122.65(16)
C7 C3 C2 120.92(16)
C5 C4 C3 120.41(16)
C5 C4 H4 119.8
C3 C4 H4 119.8
C4 C5 C6 119.07(16)
C4 C5 H5 120.5
C6 C5 H5 120.5
N1 C6 C5 121.44(15)
N1 C6 C8 116.24(15)
C5 C6 C8 122.30(15)
N1 C7 C3 124.28(16)
N1 C7 H7 117.9
C3 C7 H7 117.9
C9 C8 C6 110.28(14)
C9 C8 H8A 109.6
C6 C8 H8A 109.6
C9 C8 H8B 109.6
C6 C8 H8B 109.6
H8A C8 H8B 108.1
O1 C9 C8 108.90(14)
O1 C9 H9A 109.9
C8 C9 H9A 109.9
O1 C9 H9B 109.9
C8 C9 H9B 109.9
H9A C9 H9B 108.3
O1 C10 C15 124.86(14)
O1 C10 C11 115.53(14)
C15 C10 C11 119.61(15)
C12 C11 C10 120.77(15)
C12 C11 H11 119.6
C10 C11 H11 119.6
C11 C12 C13 120.81(14)
C11 C12 H12 119.6
C13 C12 H12 119.6
C14 C13 C12 117.16(15)
C14 C13 C16 117.96(15)
C12 C13 C16 124.88(15)
C15 C14 C13 122.60(16)
C15 C14 H14 118.7
C13 C14 H14 118.7
C14 C15 C10 119.01(15)
C14 C15 H15 120.5
C10 C15 H15 120.5
C17 C16 C13 131.94(16)
C17 C16 H16 114.0
C13 C16 H16 114.0
C16 C17 C19 119.89(15)
C16 C17 S1 130.14(13)
C19 C17 S1 109.96(11)
O3 C18 N2 126.78(18)
O3 C18 S1 123.41(15)
N2 C18 S1 109.81(13)
O2 C19 N2 123.91(15)
O2 C19 C17 125.37(15)
N2 C19 C17 110.72(14)
C6 N1 C7 118.38(14)
C18 N2 C19 117.78(14)
C18 N2 H2 121.0(16)
C19 N2 H2 121.2(16)
C10 O1 C9 117.26(13)
C17 S1 C18 91.72(8)
loop_
_geom_bond_atom_site_label_1
_geom_bond_atom_site_label_2
_geom_bond_distance
C1 C2 1.506(3)
C1 H1A 0.9600
C1 H1B 0.9600
C1 H1C 0.9600
C2 C3 1.511(2)
C2 H2A 0.9700
C2 H2B 0.9700
C3 C4 1.381(2)
C3 C7 1.382(2)
C4 C5 1.380(2)
C4 H4 0.9300
C5 C6 1.384(2)
C5 H5 0.9300
C6 N1 1.337(2)
C6 C8 1.508(2)
C7 N1 1.337(2)
C7 H7 0.9300
C8 C9 1.498(2)
C8 H8A 0.9700
C8 H8B 0.9700
C9 O1 1.4281(19)
C9 H9A 0.9700
C9 H9B 0.9700
C10 O1 1.3638(19)
C10 C15 1.384(2)
C10 C11 1.387(2)
C11 C12 1.374(2)
C11 H11 0.9300
C12 C13 1.398(2)
C12 H12 0.9300
C13 C14 1.392(2)
C13 C16 1.452(2)
C14 C15 1.379(2)
C14 H14 0.9300
C15 H15 0.9300
C16 C17 1.340(2)
C16 H16 0.9300
C17 C19 1.486(2)
C17 S1 1.7488(16)
C18 O3 1.196(2)
C18 N2 1.365(2)
C18 S1 1.7897(19)
C19 O2 1.213(2)
C19 N2 1.371(2)
N2 H2 0.862(10)
loop_
_geom_hbond_atom_site_label_D
_geom_hbond_atom_site_label_H
_geom_hbond_atom_site_label_A
_geom_hbond_site_symmetry_A
_geom_hbond_distance_DH
_geom_hbond_distance_HA
_geom_hbond_distance_DA
_geom_hbond_angle_DHA
_geom_hbond_publ_flag
C12 H12 S1 . 0.93 2.63 3.3166(16) 131 y
C16 H16 O2 . 0.93 2.49 2.861(2) 104 y
N2 H2 N1 4_666 0.862(10) 1.996(11) 2.8474(19) 169(2) y
C7 H7 O2 4_465 0.93 2.53 3.310(2) 142 y

_cod_database_fobs_code 1548683
