#------------------------------------------------------------------------------
#$Date: 2018-01-03 10:00:29 +0200 (Wed, 03 Jan 2018) $
#$Revision: 204684 $
#$URL: file:///home/coder/svn-repositories/cod/cif/1/54/85/1548580.cif $
#------------------------------------------------------------------------------
#
# This file is available in the Crystallography Open Database (COD),
# http://www.crystallography.net/
#
# All data on this site have been placed in the public domain by the
# contributors.
#
data_1548580
loop_
_publ_author_name
'W. Robert Scheidt'
'Beisong Cheng'
'Allen G. Oliver'
'John A. Goodwin'
_publ_section_title
;
 Solid-state Porphyrin Interactions with Oppositely Charged Peripheral
 Groups
;
_journal_name_full               'Journal of Porphyrins and Phthalocyanines'
_journal_page_first              1256
_journal_page_last               1261
_journal_paper_doi               10.1142/S1088424615501084
_journal_volume                  19
_journal_year                    2015
_chemical_formula_moiety         'C44 H24 N4 O12 S2, C44 H36 N8, 8.72(H2 O)'
_chemical_formula_sum            'C44 H38.72 N6 O10.36 S2'
_chemical_formula_weight         881.41
_space_group_crystal_system      monoclinic
_space_group_IT_number           14
_space_group_name_Hall           '-P 2ybc'
_space_group_name_H-M_alt        'P 1 21/c 1'
_symmetry_space_group_name_Hall  '-P 2ybc'
_symmetry_space_group_name_H-M   'P 1 21/c 1'
_atom_sites_solution_hydrogens   geom
_atom_sites_solution_primary     direct
_atom_sites_solution_secondary   difmap
_cell_angle_alpha                90
_cell_angle_beta                 91.980(10)
_cell_angle_gamma                90
_cell_formula_units_Z            4
_cell_length_a                   8.506(2)
_cell_length_b                   16.426(3)
_cell_length_c                   29.288(3)
_cell_measurement_temperature    293(2)
_cell_volume                     4089.7(13)
_computing_cell_refinement       'SET4 routine'
_computing_data_collection       'SDP (Frenz, 1978)'
_computing_data_reduction        'SDP (Frenz, 1978)'
_computing_molecular_graphics    ORTEP
_computing_publication_material  'SHELXL93_CIFTAB (Sheldrick, 1993)'
_computing_structure_refinement  'SHELXL-2014/7 (Sheldrick, 2014)'
_computing_structure_solution    'SHELXS-86 (Sheldrick, 1990)'
_diffrn_ambient_temperature      293(2)
_diffrn_measured_fraction_theta_full 0.992
_diffrn_measured_fraction_theta_max 0.992
_diffrn_measurement_device       'Enraf-Nonius CAD4 diffractometer'
_diffrn_measurement_method       '\q/2\q scan'
_diffrn_radiation_monochromator  graphite
_diffrn_radiation_probe          x-ray
_diffrn_radiation_type           CuK\a
_diffrn_radiation_wavelength     1.54184
_diffrn_reflns_av_unetI/netI     0.0592
_diffrn_reflns_Laue_measured_fraction_full 0.992
_diffrn_reflns_Laue_measured_fraction_max 0.992
_diffrn_reflns_number            8592
_diffrn_reflns_point_group_measured_fraction_full 0.992
_diffrn_reflns_point_group_measured_fraction_max 0.992
_diffrn_reflns_theta_full        67.684
_diffrn_reflns_theta_max         77.053
_diffrn_reflns_theta_min         3.019
_diffrn_source                   'fine-focus sealed tube'
_exptl_absorpt_coefficient_mu    1.771
_exptl_absorpt_correction_type   none
_exptl_crystal_colour            blue
_exptl_crystal_density_diffrn    1.432
_exptl_crystal_description       plate
_exptl_crystal_F_000             1838
_exptl_crystal_size_max          0.450
_exptl_crystal_size_mid          0.330
_exptl_crystal_size_min          0.060
_refine_diff_density_max         0.756
_refine_diff_density_min         -0.858
_refine_diff_density_rms         0.105
_refine_ls_extinction_coef       .
_refine_ls_extinction_method     none
_refine_ls_goodness_of_fit_ref   1.913
_refine_ls_hydrogen_treatment    constr
_refine_ls_matrix_type           full
_refine_ls_number_parameters     573
_refine_ls_number_reflns         8592
_refine_ls_number_restraints     0
_refine_ls_restrained_S_all      1.913
_refine_ls_R_factor_all          0.1368
_refine_ls_R_factor_gt           0.1107
_refine_ls_shift/su_max          0.001
_refine_ls_shift/su_mean         0.000
_refine_ls_structure_factor_coef Fsqd
_refine_ls_weighting_details
'w=1/[\s^2^(Fo^2^)+(0.1000P)^2^] where P=(Fo^2^+2Fc^2^)/3'
_refine_ls_weighting_scheme      calc
_refine_ls_wR_factor_gt          0.3006
_refine_ls_wR_factor_ref         0.3331
_reflns_Friedel_coverage         0.000
_reflns_Friedel_fraction_full    .
_reflns_Friedel_fraction_max     .
_reflns_number_gt                5477
_reflns_number_total             8592
_reflns_threshold_expression     'I > 2\s(I)'
_cod_data_source_file            NIHMS809760-supplement-cif_file.cif
_cod_data_source_block           dimer_rev
_cod_database_code               1548580
_shelx_space_group_comment
;
The symmetry employed for this shelxl refinement is uniquely defined
by the following loop, which should always be used as a source of
symmetry information in preference to the above space-group names.
They are only intended as comments.
;
_shelx_estimated_absorpt_t_min   0.503
_shelx_estimated_absorpt_t_max   0.901
_shelx_res_file
;

    dimer_rev.res created by SHELXL-2014/7


TITL   DIMER
CELL  1.54184  8.506   16.426  29.288   90.00   91.98   90.00
ZERR        4  0.002    0.003   0.003     0.0    0.01     0.0
LATT 1
SYMM -X, 0.5+Y, 0.5-Z
SFAC   C    H   N  O  S
UNIT   176 154.88  24 41.44 8

L.S.  5
TEMP  20
SIZE 0.45 0.33 0.06
REM   Blue Plate

BOND $H
CONF
ACTA
FMAP  -2
PLAN  -20
EQIV $3 X+1, Y-1, Z
RTAB BOND OW1 OW2
RTAB BOND OW1 OW3
RTAB BOND OW2 OW4
RTAB BOND OW2 O13_$3
RTAB BOND OW3 O22
RTAB BOND OW3 OW4
RTAB BOND OW3 OW5
RTAB BOND OW4 OW5

WGHT    0.100000
FVAR       9.86542   0.84469   0.62943   0.88636
S(1)  5    0.223971    1.035001    0.591327    11.00000    0.11599    0.03495 =
         0.08925    0.00272    0.03095    0.00967
S(2)  5    0.278584    0.320830    0.798744    11.00000    0.09731    0.17591 =
         0.04950    0.03745    0.02432    0.01821
O11   4    0.092262    1.060282    0.561878    11.00000    0.10672    0.04381 =
         0.14434    0.00853    0.02266    0.01732
O12   4    0.359474    1.083479    0.584420    11.00000    0.09986    0.04872 =
         0.17000   -0.00426    0.01056   -0.00555
O13   4    0.175079    1.024734    0.637540    11.00000    0.25153    0.06101 =
         0.08794   -0.00661    0.06464    0.03018
O21   4    0.122679    0.296666    0.799931    11.00000    0.08700    0.28892 =
         0.07773    0.06866    0.01134   -0.01981
O22   4    0.396089    0.269583    0.812373    11.00000    0.11917    0.29315 =
         0.11132    0.12571    0.01671    0.02941
O23   4    0.314518    0.394441    0.827743    11.00000    0.30118    0.24306 =
         0.06816   -0.03643    0.07084   -0.06152
N(1)  3    0.489930    0.610657    0.467284    11.00000    0.07756    0.03514 =
         0.03616    0.00316    0.00694   -0.00053
N(2)  3    0.411364    0.552647    0.557277    11.00000    0.07624    0.03410 =
         0.03831    0.00410    0.01401    0.00078
N(3)  3    0.089413    0.447225    0.442993    11.00000    0.07663    0.03781 =
         0.04041   -0.00076    0.01283    0.00570
N(4)  3   -0.007732    0.610068    0.465834    11.00000    0.07374    0.03350 =
         0.03926   -0.00283    0.00874    0.00648
N14   3    0.183882    0.631027    0.255365    11.00000    0.07928    0.07908 =
         0.04828    0.00859    0.01130    0.01231
N24   3   -0.223957    0.933265    0.569204    11.00000    0.08013    0.04178 =
         0.06405   -0.00415    0.02603    0.00761
C(A1  1    0.534513    0.625949    0.423674    11.00000    0.06884    0.03797 =
         0.03365    0.00110    0.00684   -0.00283
C(A2  1    0.438670    0.682922    0.485194    11.00000    0.06871    0.03244 =
         0.04272    0.00217    0.00417    0.00119
C(A3  1    0.365271    0.631933    0.561529    11.00000    0.07110    0.03886 =
         0.03791    0.00318    0.01045    0.00239
C(A4  1    0.372689    0.512721    0.596368    11.00000    0.07539    0.04154 =
         0.03542    0.00525    0.01366    0.00001
C(A5  1    0.135443    0.367409    0.439705    11.00000    0.07033    0.03671 =
         0.04383   -0.00297    0.01536    0.00706
C(A6  1    0.126659    0.485507    0.403351    11.00000    0.07079    0.04260 =
         0.03965   -0.00091    0.01188    0.00424
C(A7  1    0.037901    0.625113    0.422695    11.00000    0.06854    0.03911 =
         0.03621   -0.00147    0.00767    0.00419
C(A8  1   -0.059454    0.681845    0.483583    11.00000    0.06567    0.03526 =
         0.04159   -0.00111    0.00668    0.00080
C(B1  1    0.507801    0.710940    0.413500    11.00000    0.07376    0.03843 =
         0.03908    0.00768    0.00640   -0.00388
AFIX  43
H(B1  2    0.525263    0.736904    0.385916    11.00000   -1.20000
AFIX   0
C(B2  1    0.453102    0.745388    0.451284    11.00000    0.07626    0.03409 =
         0.04845    0.00754    0.00638   -0.00052
AFIX  43
H(B2  2    0.428758    0.800154    0.454906    11.00000   -1.20000
AFIX   0
C(B3  1    0.289460    0.641514    0.604096    11.00000    0.07915    0.04174 =
         0.05128    0.00257    0.02292    0.00573
AFIX  43
H(B3  2    0.245857    0.689296    0.615060    11.00000   -1.20000
AFIX   0
C(B4  1    0.292716    0.568709    0.625421    11.00000    0.07425    0.04611 =
         0.04788    0.00204    0.01862    0.00454
AFIX  43
H(B4  2    0.251093    0.556898    0.653612    11.00000   -1.20000
AFIX   0
C(B5  1    0.210151    0.356465    0.397022    11.00000    0.08306    0.03998 =
         0.04790   -0.00153    0.02329    0.01088
AFIX  43
H(B5  2    0.253805    0.308366    0.386505    11.00000   -1.20000
AFIX   0
C(B6  1    0.205807    0.428339    0.374865    11.00000    0.08617    0.04573 =
         0.05024    0.00072    0.02764    0.01252
AFIX  43
H(B6  2    0.246461    0.439031    0.346410    11.00000   -1.20000
AFIX   0
C(B7  1    0.016285    0.710023    0.412448    11.00000    0.07725    0.04154 =
         0.03740    0.00133    0.00580    0.00185
AFIX  43
H(B7  2    0.039323    0.735883    0.385234    11.00000   -1.20000
AFIX   0
C(B8  1   -0.043728    0.745286    0.449702    11.00000    0.07186    0.03328 =
         0.04211   -0.00300    0.00781    0.00483
AFIX  43
H(B8  2   -0.069947    0.799892    0.452969    11.00000   -1.20000
AFIX   0
C(M1  1    0.384039    0.694251    0.529242    11.00000    0.06625    0.03293 =
         0.04249    0.00090    0.00606   -0.00049
C(M2  1    0.404904    0.431187    0.606792    11.00000    0.06269    0.04101 =
         0.03624    0.00432    0.00902    0.00002
C(M3  1    0.098165    0.566914    0.392501    11.00000    0.06899    0.04023 =
         0.04318    0.00096    0.01252    0.00297
C(M4  1   -0.116576    0.693259    0.527564    11.00000    0.06503    0.03782 =
         0.03755   -0.00195    0.00537   -0.00061
C11   1    0.345972    0.778488    0.544185    11.00000    0.06063    0.03519 =
         0.04483   -0.00131    0.00979   -0.00192
C12   1    0.242560    0.828078    0.518754    11.00000    0.06057    0.04486 =
         0.05088    0.00288    0.00322    0.00307
AFIX  43
H12   2    0.196707    0.808243    0.491697    11.00000   -1.20000
AFIX   0
C13   1    0.206893    0.905565    0.532767    11.00000    0.07332    0.04265 =
         0.06332    0.01020    0.00867    0.00626
AFIX  43
H13   2    0.137935    0.937654    0.515229    11.00000   -1.20000
AFIX   0
C14   1    0.272955    0.935275    0.572487    11.00000    0.07500    0.03610 =
         0.06295    0.00642    0.01951    0.00228
C15   1    0.379370    0.889123    0.598341    11.00000    0.07930    0.04317 =
         0.04768   -0.00597    0.01461   -0.00418
AFIX  43
H15   2    0.426616    0.910280    0.624881    11.00000   -1.20000
AFIX   0
C16   1    0.414445    0.810710    0.584005    11.00000    0.07153    0.04226 =
         0.04460    0.00138    0.01056    0.00795
AFIX  43
H16   2    0.484997    0.779241    0.601370    11.00000   -1.20000
AFIX   0
C21   1    0.371626    0.403028    0.653589    11.00000    0.06980    0.04781 =
         0.03555    0.00654    0.01042    0.00349
C22   1    0.433375    0.444796    0.691669    11.00000    0.08134    0.06332 =
         0.04707   -0.00633    0.00879    0.00345
AFIX  43
H22   2    0.495072    0.490667    0.687213    11.00000   -1.20000
AFIX   0
C23   1    0.405738    0.420162    0.735631    11.00000    0.08473    0.09182 =
         0.03663   -0.00406    0.00502    0.01166
AFIX  43
H23   2    0.448379    0.448791    0.760499    11.00000   -1.20000
AFIX   0
C24   1    0.313844    0.352388    0.742100    11.00000    0.06960    0.10048 =
         0.04212    0.01862    0.00985    0.01916
C25   1    0.251177    0.309806    0.705791    11.00000    0.07713    0.07225 =
         0.05443    0.02307    0.01353    0.00455
AFIX  43
H25   2    0.190024    0.263897    0.710681    11.00000   -1.20000
AFIX   0
C26   1    0.278974    0.335223    0.661438    11.00000    0.06949    0.05819 =
         0.04665    0.01057    0.00842   -0.00289
AFIX  43
H26   2    0.234989    0.306463    0.636807    11.00000   -1.20000
AFIX   0
C31   1    0.126143    0.591932    0.344942    11.00000    0.06559    0.04574 =
         0.04096    0.00173    0.00842    0.00817
C32   1    0.058901    0.548199    0.308219    11.00000    0.07736    0.06055 =
         0.04490   -0.00484    0.00710   -0.00177
AFIX  43
H32   2   -0.007898    0.504659    0.313556    11.00000   -1.20000
AFIX   0
C33   1    0.092020    0.569882    0.264032    11.00000    0.08726    0.07663 =
         0.04554   -0.00488    0.01101    0.00230
AFIX  43
H33   2    0.047649    0.540097    0.239851    11.00000   -1.20000
AFIX   0
C35   1    0.247482    0.676055    0.289485    11.00000    0.07941    0.06627 =
         0.05691    0.01140    0.01456    0.00307
AFIX  43
H35   2    0.310761    0.720318    0.282723    11.00000   -1.20000
AFIX   0
C36   1    0.220304    0.657598    0.334258    11.00000    0.06508    0.05717 =
         0.05194    0.00257    0.00414   -0.00036
AFIX  43
H36   2    0.265326    0.689333    0.357529    11.00000   -1.20000
AFIX   0
C37   1    0.222480    0.648362    0.206872    11.00000    0.11718    0.14150 =
         0.05009    0.01550    0.02037    0.00948
AFIX 137
H37A  2    0.334177    0.654674    0.204709    11.00000   -1.50000
H37B  2    0.170773    0.697561    0.196983    11.00000   -1.50000
H37C  2    0.187258    0.603975    0.187806    11.00000   -1.50000
AFIX   0
C41   1   -0.154836    0.777642    0.541666    11.00000    0.06088    0.04133 =
         0.04860    0.00050    0.01449    0.00303
C42   1   -0.086332    0.810704    0.581394    11.00000    0.07320    0.04672 =
         0.04664   -0.00964    0.00763    0.00609
AFIX  43
H42   2   -0.016029    0.780022    0.599298    11.00000   -1.20000
AFIX   0
C43   1   -0.123060    0.888872    0.594032    11.00000    0.08351    0.05239 =
         0.05665   -0.01665    0.01998   -0.00359
AFIX  43
H43   2   -0.076327    0.910898    0.620418    11.00000   -1.20000
AFIX   0
C45   1   -0.289518    0.904553    0.531048    11.00000    0.06845    0.04693 =
         0.06632    0.00007    0.01325    0.00865
AFIX  43
H45   2   -0.358901    0.937117    0.513945    11.00000   -1.20000
AFIX   0
C46   1   -0.256701    0.826943    0.516135    11.00000    0.05958    0.04936 =
         0.05372   -0.00012    0.01031    0.00565
AFIX  43
H46   2   -0.302870    0.807717    0.488980    11.00000   -1.20000
AFIX   0
C47   1   -0.265180    1.015756    0.585766    11.00000    0.12478    0.05867 =
         0.11373   -0.01982    0.04152    0.00509
AFIX 137
H47A  2   -0.183272    1.053342    0.578536    11.00000   -1.50000
H47B  2   -0.276483    1.014268    0.618256    11.00000   -1.50000
H47C  2   -0.362429    1.032978    0.571213    11.00000   -1.50000
AFIX   0
OW1   4    0.933839    0.141871    0.775709    21.00000    0.25433    0.11454 =
         0.19083    0.03273   -0.01482    0.01783
OW2   4    0.947068    0.132102    0.676480    11.00000    0.40767    0.19980 =
         0.18401   -0.06388    0.06595    0.08995
OW3   4    0.593993    0.159872    0.761434    31.00000    0.22134    0.13013 =
         0.12628    0.03659    0.04015    0.01077
OW4   4    0.585416    0.140047    0.667665    11.00000    0.40120    0.14776 =
         0.22326   -0.04701   -0.08177    0.08415
OW5   4    0.319838    0.081029    0.740420    41.00000    0.30066    0.33099 =
         0.35075    0.18003    0.00293   -0.00329

HKLF 4

REM    DIMER
REM R1 =  0.1107 for    5477 Fo > 4sig(Fo)  and  0.1368 for all    8592 data
REM    573 parameters refined using      0 restraints

END

WGHT      0.2000      0.0000

REM Highest difference peak  0.756,  deepest hole -0.858,  1-sigma level  0.105
Q1    1   0.2989  0.3698  0.8097  11.00000  0.05   -0.86
Q2    1   0.3400  1.0398  0.6389  11.00000  0.05    0.76
Q3    1   0.7689  0.0754  0.7009  11.00000  0.05    0.70
Q4    1   0.2622  0.2581  0.7892  11.00000  0.05    0.64
Q5    1   0.2815  0.2087  0.7873  11.00000  0.05    0.61
Q6    1   1.0823  0.1434  0.7690  11.00000  0.05    0.56
Q7    1  -0.3371  1.0809  0.5939  11.00000  0.05    0.54
Q8    1   0.2581  0.9905  0.6009  11.00000  0.05   -0.51
Q9    1   0.3139  0.3077  0.7844  11.00000  0.05   -0.49
Q10   1   0.3897  0.1209  0.7788  11.00000  0.05    0.49
Q11   1   0.3645  0.3314  0.8237  11.00000  0.05    0.47
Q12   1   0.1439  0.4209  0.4183  11.00000  0.05   -0.47
Q13   1   0.5005  0.6688  0.4502  11.00000  0.05   -0.46
Q14   1   0.3981  0.3830  0.8382  11.00000  0.05   -0.45
Q15   1   0.1478  0.3885  0.8090  11.00000  0.05    0.45
Q16   1   0.2389  1.0814  0.6075  11.00000  0.05   -0.44
Q17   1   0.8924  0.1265  0.7715  11.00000  0.05    0.44
Q18   1   0.9031  0.0556  0.6870  11.00000  0.05    0.44
Q19   1   0.3163  0.2849  0.8122  11.00000  0.05   -0.43
Q20   1   0.4994  1.0642  0.6807  11.00000  0.05    0.43
;
_shelx_res_checksum              42856
_shelx_hkl_file
;
   1   0   0    7549     504
   2   0   0 1767789   64064
   3   0   0   33004    1786
   4   0   0    3018     740
   5   0   0    1972     783
   6   0   0  408976   21041
   7   0   0    1035     904
   8   0   0   49038    3232
   9   0   0    2651     986
  10   0   0    2208     674
   1   1   0  647840   23528
   2   1   0  797058   29077
   3   1   0   39403    2038
   4   1   0  236514   10430
   5   1   0    6037     931
   6   1   0  104814    5451
   7   1   0   10682    1441
   8   1   0    3763    1326
   9   1   0     772     734
  10   1   0     876     570
   0   2   0   32314    1512
   1   2   0  104634    4525
   2   2   0  183784    7713
   3   2   0   38827    2021
   4   2   0  124885    5708
   5   2   0   14577    1293
   6   2   0   15519    1479
   7   2   0   23259    2038
   8   2   0    2054    1079
   9   2   0    3073    1030
  10   2   0    4634     767
   1   3   0   81435    3632
   2   3   0 1184742   44957
   3   3   0    7362     772
   4   3   0  109520    5105
   5   3   0    4667     833
   6   3   0    7631    1079
   7   3   0     849     729
   8   3   0   16921    1567
   9   3   0     153     208
  10   3   0    2728     723
   0   4   0 5472634  204145
   1   4   0   32468    1638
   2   4   0  142174    6190
   3   4   0   78455    3676
   4   4   0   19047    1419
   5   4   0    5390     876
   6   4   0    3709     986
   7   4   0     586     619
   8   4   0    1950     904
   9   4   0     520     542
  10   4   0    1934     663
   1   5   0  978257   36028
   2   5   0   29038    1616
   3   5   0   36850    2021
   4   5   0  321104   14500
   5   5   0    5034     898
   6   5   0  201576   10025
   7   5   0    5790    1150
   8   5   0    2881    1019
   9   5   0     285     323
  10   5   0     718     520
   0   6   0  115381    5160
   1   6   0   29438    1616
   2   6   0  752978   31076
   3   6   0    3802     718
   4   6   0  217276   10118
   5   6   0    1742     833
   6   6   0   29181    2235
   7   6   0    1682     948
   8   6   0     257     323
   9   6   0     115     153
  10   6   0    1961     619
   1   7   0  285421   12101
   2   7   0  762745   32692
   3   7   0  130659    5987
   4   7   0   16527    1348
   5   7   0   18176    1523
   6   7   0    7209    1320
   7   7   0     345     416
   8   7   0    9329    1391
   9   7   0     471     482
  10   7   0     159     208
   0   8   0 1439443   64771
   1   8   0     882     564
   2   8   0  305810   13470
   3   8   0   16554    1342
   4   8   0    4645     833
   5   8   0   17973    1698
   6   8   0  367957   19540
   7   8   0     340     411
   8   8   0    3144    1013
   9   8   0     427     438
   1   9   0   23407    1561
   2   9   0  143324    6612
   3   9   0   30671    1956
   4   9   0   84656    4508
   5   9   0     964     734
   6   9   0    4755    1063
   7   9   0     477     493
   8   9   0     718     679
   9   9   0     871     548
   0  10   0   35102    2049
   1  10   0   32073    1950
   2  10   0   60230    3254
   3  10   0    6338     926
   4  10   0   52144    3254
   5  10   0     537     570
   6  10   0   51591    3320
   7  10   0    4349    1112
   8  10   0   28545    2005
   9  10   0     323     334
   1  11   0   25133    1715
   2  11   0  225060   11367
   3  11   0   27455    1983
   4  11   0    7713    1348
   5  11   0     449     504
   6  11   0   56023    3221
   7  11   0    1950     887
   8  11   0    8102     975
   9  11   0     422     405
   0  12   0   45511    2673
   1  12   0   29405    1999
   2  12   0  125494    6689
   3  12   0   26130    2136
   4  12   0    1435     772
   5  12   0    2005     970
   6  12   0   12829    1337
   7  12   0    4662     876
   8  12   0     931     553
   1  13   0   32259    2350
   2  13   0   11065    1419
   3  13   0    3583    1096
   4  13   0  137759    7505
   5  13   0    1254     931
   6  13   0    8551    1156
   7  13   0     372     400
   8  13   0   11914    1041
   0  14   0   13333    1501
   1  14   0     378     427
   2  14   0     427     477
   3  14   0    3572     981
   4  14   0   47165    2832
   5  14   0     970     822
   6  14   0    8129    1052
   7  14   0     230     263
   1  15   0    2317     986
   2  15   0   42158    2942
   3  15   0    4421     981
   4  15   0   61889    3599
   5  15   0    1895     893
   6  15   0     186     230
   7  15   0    1243     488
   0  16   0   55623    3216
   1  16   0     603     597
   2  16   0  128501    6387
   3  16   0    1276     833
   4  16   0   10397    1282
   5  16   0    5319     827
   6  16   0   22312    1660
   1  17   0    7894    1211
   2  17   0   23922    1873
   4  17   0    3002     674
   5  17   0    2558     668
   6  17   0     340     367
   0  18   0    4580     805
   1  18   0     142     186
   2  18   0   10622    1052
   3  18   0    3254     740
   4  18   0    2060     668
   5  18   0    3007     608
   1  19   0    9055     931
   2  19   0     493     411
   3  19   0    8009     800
   4  19   0    8819     904
   0  20   0    4399     614
   1  20   0     214     247
   2  20   0   12429    1041
 -10   1   1     378     362
  -9   1   1     356     416
  -8   1   1   36576    2613
  -7   1   1    5308    1243
  -6   1   1   17617    1523
  -5   1   1     701     614
  -4   1   1   49055    2558
  -3   1   1   51317    2514
  -2   1   1   18959    1107
  -1   1   1   56861    2580
   0   1   1   62361    2788
   1   1   1     203     219
   2   1   1 9706054 1007892
   3   1   1   15163    1074
   4   1   1  142957    6568
   5   1   1    8124    1035
   6   1   1   82848    4465
   7   1   1   11942    1495
   8   1   1   16198    1736
   9   1   1    1972     975
  10   1   1     937     597
 -10   2   1      77     104
  -9   2   1    1052     827
  -8   2   1    5538    1320
  -7   2   1    3566    1161
  -6   2   1   62421    3528
  -5   2   1    5111     920
  -4   2   1  324840   14182
  -3   2   1    8151     783
  -2   2   1  456316   17644
  -1   2   1  261050   10441
   0   2   1 3038396  113623
   1   2   1  362391   13985
   2   2   1   92286    4136
   3   2   1    5122     707
   4   2   1   33191    1939
   5   2   1    7121    1030
   6   2   1    2739     953
   7   2   1   13147    1611
   8   2   1    2624    1096
   9   2   1     471     515
  10   2   1     318     351
 -10   3   1    1485     690
  -9   3   1     274     334
  -8   3   1    3161     997
  -7   3   1   18077    1824
  -6   3   1   22257    1742
  -5   3   1   24755    1687
  -4   3   1 1066145   48365
  -3   3   1    1616     581
  -2   3   1   23955    1353
  -1   3   1 1649367   59726
   0   3   1  938476   34407
   1   3   1  585337   21419
   2   3   1    4180     624
   3   3   1  118389    5385
   4   3   1   17360    1348
   5   3   1     685     619
   6   3   1  185745    9499
   7   3   1     871     778
   8   3   1     822     696
   9   3   1    1271     833
  10   3   1    3533     734
 -10   4   1    2416     657
  -9   4   1     148     203
  -8   4   1   22169    1846
  -7   4   1    3561    1183
  -6   4   1    4262     948
  -5   4   1   23325    1643
  -4   4   1  174181    8025
  -3   4   1    4300     641
  -2   4   1 2833309  104573
  -1   4   1  294964   11882
   0   4   1 1934274   72993
   1   4   1  282200   11416
   2   4   1 1302736   47817
   3   4   1    1479     597
   4   4   1  322950   14401
   5   4   1   12890    1183
   6   4   1     553     531
   7   4   1     603     646
   8   4   1    3254    1019
   9   4   1     581     542
  10   4   1    3013     690
 -10   5   1     663     537
  -9   5   1     778     663
  -8   5   1    1983     898
  -7   5   1    8693    1254
  -6   5   1   19677    1753
  -5   5   1    2635     756
  -4   5   1    8754     997
  -3   5   1   24180    1501
  -2   5   1  105160    4782
  -1   5   1   38230    1923
   0   5   1   31317    1627
   1   5   1  190264    8036
   2   5   1   47181    2350
   3   5   1   37918    2065
   4   5   1   99819    4804
   5   5   1    3177     789
   6   5   1    2618    1063
   7   5   1     263     329
   8   5   1     838     794
   9   5   1     164     214
  10   5   1    1600     608
 -10   6   1     630     498
  -9   6   1     723     641
  -8   6   1     455     509
  -7   6   1     696     701
  -6   6   1     959     827
  -5   6   1    1895     816
  -4   6   1  123401    5872
  -3   6   1   19956    1386
  -2   6   1  534102   22153
  -1   6   1  303279   12572
   0   6   1   93492    4240
   1   6   1  217977    9236
   2   6   1  247476   10605
   3   6   1   24421    1567
   4   6   1  201330    9422
   5   6   1   49581    2892
   6   6   1   84645    4706
   7   6   1   11520    1441
   8   6   1    1249     948
   9   6   1     718     553
  10   6   1     263     290
 -10   7   1    2854     718
  -9   7   1     372     405
  -8   7   1     624     608
  -7   7   1     794     712
  -6   7   1     657     668
  -5   7   1    4788     915
  -4   7   1  218268   10830
  -3   7   1   62152    3172
  -2   7   1  420961   17979
  -1   7   1   11734     959
   0   7   1  299620   12659
   1   7   1    1654     542
   2   7   1  190423    8436
   3   7   1   20887    1479
   4   7   1  425250   21123
   5   7   1     953     674
   6   7   1   43243    2914
   7   7   1    3018    1205
   8   7   1     833     794
   9   7   1    1079     734
  10   7   1    1320     729
  -9   8   1     794     624
  -8   8   1   26513    2120
  -7   8   1     844     750
  -6   8   1   73377    4311
  -5   8   1     181     236
  -4   8   1    3659     822
  -3   8   1    4333     783
  -2   8   1  392931   17239
  -1   8   1   12265    1030
   0   8   1  981648   42558
   1   8   1   82634    3911
   2   8   1    2224     663
   3   8   1  133639    6557
   4   8   1  166551    8354
   5   8   1   30945    2290
   6   8   1   55875    3506
   7   8   1     646     641
   8   8   1     811     745
   9   8   1     351     378
  -9   9   1     471     444
  -8   9   1     887     729
  -7   9   1   13793    1397
  -6   9   1   30156    2240
  -5   9   1    2690    1008
  -4   9   1  241028   12386
  -3   9   1     740     619
  -2   9   1  329990   14894
  -1   9   1   16395    1265
   0   9   1   23703    1572
   1   9   1    2651     701
   2   9   1   37973    2230
   3   9   1    2744     685
   4   9   1  166047    8315
   5   9   1    2947    1024
   6   9   1     296     367
   7   9   1     296     356
   8   9   1   49597    3122
   9   9   1     192     230
  -9  10   1     186     208
  -8  10   1     444     471
  -7  10   1     619     619
  -6  10   1  168632    8721
  -5  10   1   11838    1468
  -4  10   1   29866    2230
  -3  10   1   11690    1167
  -2  10   1  277155   13552
  -1  10   1     236     274
   0  10   1  262671   12325
   1  10   1   21517    1490
   2  10   1   66935    3544
   3  10   1   25182    1775
   4  10   1    5166    1090
   5  10   1     405     471
   6  10   1    7088    1265
   7  10   1    2635    1090
   8  10   1    9022    1079
   9  10   1     126     159
  -9  11   1     405     411
  -8  11   1    1112     592
  -7  11   1     389     444
  -6  11   1   27658    2043
  -5  11   1   22837    1873
  -4  11   1    3451    1074
  -3  11   1   92051    4870
  -2  11   1   11969    1200
  -1  11   1  118411    5790
   0  11   1   42722    2465
   1  11   1   17496    1380
   2  11   1   15311    1337
   3  11   1   13635    1326
   4  11   1   39819    2816
   5  11   1    1194     942
   6  11   1    3714     959
   7  11   1     553     542
   8  11   1     181     230
  -8  12   1     362     367
  -7  12   1    1068     789
  -6  12   1     367     394
  -5  12   1    2892    1112
  -4  12   1    1660    1052
  -3  12   1     542     559
  -2  12   1    4530    1008
  -1  12   1     433     460
   0  12   1    2575     789
   1  12   1    6124     937
   2  12   1   15612    1539
   3  12   1   39096    2755
   4  12   1    3950    1030
   5  12   1    5566    1161
   6  12   1     263     323
   7  12   1     405     433
   8  12   1    2153     690
  -8  13   1     115     153
  -7  13   1     340     367
  -6  13   1    3243     986
  -5  13   1    8655    1145
  -4  13   1    1320     975
  -3  13   1   18521    1802
  -2  13   1  202080   10660
  -1  13   1   32867    2383
   0  13   1    4421     986
   1  13   1    5182    1052
   2  13   1   21134    1912
   3  13   1    6453    1156
   4  13   1    4191    1096
   5  13   1     307     367
   6  13   1   14741    1550
   7  13   1     542     520
   8  13   1    7242     876
  -7  14   1    1090     575
  -6  14   1   15826    1408
  -5  14   1    9471    1309
  -4  14   1    7236    1068
  -3  14   1     186     247
  -2  14   1    2920     953
  -1  14   1    1704    1002
   0  14   1    1189     844
   1  14   1    1090     789
   2  14   1   18252    1638
   3  14   1    1698     898
   4  14   1    5007     997
   5  14   1     175     230
   6  14   1    8206    1013
   7  14   1     137     175
  -7  15   1    2273     515
  -6  15   1     855     635
  -5  15   1   12692    1331
  -4  15   1    8042    1222
  -3  15   1   10501    1243
  -2  15   1  104234    5911
  -1  15   1    4930    1107
   0  15   1  213266   11564
   1  15   1   15426    1660
   2  15   1   27669    2230
   3  15   1    3237     860
   4  15   1    6886    1150
   5  15   1    1063     723
   6  15   1    1611     646
   7  15   1     307     312
  -6  16   1    8940     909
  -5  16   1    3681     701
  -4  16   1   23177    1857
  -3  16   1    1233     750
  -2  16   1    2054     909
  -1  16   1    3309    1145
   0  16   1   39813    2547
   1  16   1    5292     948
   2  16   1   25023    1906
   3  16   1   12785    1402
   4  16   1   12747    1359
   5  16   1    7006     866
   6  16   1    9838     992
  -6  17   1    2575     690
  -5  17   1    4191     718
  -4  17   1     920     575
  -2  17   1   11662    1375
  -1  17   1    5051    1041
   0  17   1   29816    2175
   1  17   1   13777    1424
   2  17   1    3626     970
   4  17   1   18198    1402
   5  17   1    2071     635
   6  17   1    1972     696
  -5  18   1     383     345
  -4  18   1    1156     597
  -3  18   1    3254     756
  -2  18   1    1495     838
  -1  18   1    5582     876
   0  18   1    1643     679
   1  18   1    3939     811
   2  18   1     208     257
   3  18   1    6415     937
   4  18   1    3210     690
   5  18   1    1906     603
  -4  19   1      88     115
  -3  19   1    2153     515
  -2  19   1     389     378
  -1  19   1     531     493
   0  19   1     345     329
   1  19   1    3895     668
   2  19   1    1035     509
   3  19   1     186     208
   4  19   1   17343    1337
  -2  20   1    4514     657
  -1  20   1    7324     745
   0  20   1    8381     816
   1  20   1    6782     712
   2  20   1   20827    1501
 -10   0   2    8354     937
  -9   0   2    1468     893
  -8   0   2   20197    1994
  -7   0   2   13919    1654
  -6   0   2  129722    6590
  -5   0   2    9384    1041
  -4   0   2   75540    3643
  -3   0   2  134346    5982
  -2   0   2 2483895   98219
  -1   0   2   64793    2898
   0   0   2  805215   30835
   1   0   2    7631     531
   2   0   2 9928436  964305
   3   0   2    9510     882
   4   0   2   83133    3971
   5   0   2   17234    1430
   6   0   2   65894    3676
   7   0   2   11794    1523
   8   0   2    1923    1287
   9   0   2     482     531
  10   0   2     657     526
 -10   1   2     740     603
  -9   1   2     488     526
  -8   1   2    3051    1227
  -7   1   2   16762    1742
  -6   1   2    2777     898
  -5   1   2    1895     767
  -4   1   2  186687    8370
  -3   1   2   42426    2164
  -2   1   2  548410   20591
  -1   1   2  154001    6437
   0   1   2   41939    1950
   1   1   2   43615    2016
   2   1   2 7774591  459137
   3   1   2   17721    1194
   4   1   2  413440   17880
   5   1   2    8639    1096
   6   1   2   31115    2142
   7   1   2    2202    1123
   8   1   2    4563    1260
   9   1   2     455     498
  10   1   2    1271     614
 -10   2   2    2996     668
  -9   2   2    1194     876
  -8   2   2   14347    1660
  -7   2   2    1134     920
  -6   2   2    4262     915
  -5   2   2     433     455
  -4   2   2   35787    2032
  -3   2   2    6382     707
  -2   2   2 3252019  118109
  -1   2   2  876143   31788
   0   2   2   21682    1079
   1   2   2  631028   22980
   2   2   2  253994   10408
   3   2   2    2684     635
   4   2   2  201730    9055
   5   2   2    2438     761
   6   2   2   37354    2410
   7   2   2    4081    1216
   8   2   2     296     367
   9   2   2     252     312
  10   2   2    4344     800
 -10   3   2     537     466
  -9   3   2    1019     800
  -8   3   2   16806    1654
  -7   3   2    1884    1156
  -6   3   2     531     559
  -5   3   2    1671     674
  -4   3   2  343668   15119
  -3   3   2   27373    1561
  -2   3   2    3889     614
  -1   3   2  454064   17266
   0   3   2  592667   21802
   1   3   2  337412   13289
   2   3   2 1390070   50725
   3   3   2   23013    1408
   4   3   2  127099    5872
   5   3   2   11580    1128
   6   3   2   13832    1424
   7   3   2   13837    1687
   8   3   2    4897    1074
   9   3   2    1057     740
  10   3   2     170     214
 -10   4   2    1430     679
  -9   4   2     351     400
  -8   4   2   20164    1693
  -7   4   2    1189     871
  -6   4   2    6634    1068
  -5   4   2    5062     871
  -4   4   2   87088    4223
  -3   4   2   34023    1873
  -2   4   2  236520    9893
  -1   4   2  259708   10583
   0   4   2  924228   33908
   1   4   2   88479    3971
   2   4   2  886223   33749
   3   4   2   49778    2520
   4   4   2    6973     887
   5   4   2     482     498
   6   4   2   23539    1857
   7   4   2    4853    1183
   8   4   2     827     712
   9   4   2    1835    1041
  10   4   2    4234     750
 -10   5   2     356     372
  -9   5   2     438     482
  -8   5   2    1359     800
  -7   5   2    3599    1024
  -6   5   2   10430    1304
  -5   5   2    1446     690
  -4   5   2  479772   21720
  -3   5   2    6091     772
  -2   5   2  148484    6519
  -1   5   2   89717    4076
   0   5   2  867620   32166
   1   5   2   29893    1589
   2   5   2   84119    3845
   3   5   2   46546    2427
   4   5   2  100651    4853
   5   5   2     838     701
   6   5   2    3528    1079
   7   5   2     827     789
   8   5   2     208     274
   9   5   2     482     504
  10   5   2     663     509
 -10   6   2     394     367
  -9   6   2     241     296
  -8   6   2     909     794
  -7   6   2    1775     904
  -6   6   2   22542    1912
  -5   6   2    8984    1063
  -4   6   2  250768   11597
  -3   6   2   40931    2240
  -2   6   2  541514   22492
  -1   6   2   29170    1611
   0   6   2  532075   21342
   1   6   2    1928     520
   2   6   2   59183    2892
   3   6   2    2492     635
   4   6   2   60235    3232
   5   6   2    7225     975
   6   6   2    8540    1315
   7   6   2    2388    1145
   8   6   2    3791     981
   9   6   2     372     416
  10   6   2     515     422
 -10   7   2     115     153
  -9   7   2     405     427
  -8   7   2   17902    1813
  -7   7   2    2328    1117
  -6   7   2   58280    3566
  -5   7   2    9028    1090
  -4   7   2    9296    1013
  -3   7   2  118537    5489
  -2   7   2 1507681   69170
  -1   7   2   31356    1753
   0   7   2    7006     789
   1   7   2   33700    1852
   2   7   2  140180    6387
   3   7   2    1364     679
   4   7   2   68918    3670
   5   7   2   18910    1583
   6   7   2   26261    2120
   7   7   2   10079    1457
   8   7   2   31564    2339
   9   7   2     712     531
  10   7   2    2898     679
  -9   8   2     279     318
  -8   8   2    5341    1172
  -7   8   2   10589    1353
  -6   8   2   73048    4284
  -5   8   2   17327    1616
  -4   8   2  184962    9230
  -3   8   2     362     383
  -2   8   2  185104    8376
  -1   8   2   94828    4404
   0   8   2   99052    4738
   1   8   2     159     197
   2   8   2   36609    2093
   3   8   2   37064    2186
   4   8   2    7948    1008
   5   8   2     750     646
   6   8   2    4903    1189
   7   8   2    1611     920
   8   8   2   22690    1912
   9   8   2     690     493
  -9   9   2     307     329
  -8   9   2    9789    1413
  -7   9   2    1211     767
  -6   9   2   48348    2980
  -5   9   2    1008     827
  -4   9   2  559399   29992
  -3   9   2    5100     816
  -2   9   2  116751    5511
  -1   9   2   13054    1123
   0   9   2  123730    5675
   1   9   2  169925    7784
   2   9   2   39600    2306
   3   9   2   85565    4382
   4   9   2   19726    1600
   5   9   2   22427    1972
   6   9   2     992     723
   7   9   2    2914     937
   9   9   2     186     230
  -9  10   2     701     509
  -8  10   2    7329     937
  -7  10   2     553     570
  -6  10   2  114976    6190
  -5  10   2    6793    1172
  -4  10   2   14456    1506
  -3  10   2   62311    3435
  -2  10   2    4119     783
  -1  10   2   55809    2969
   0  10   2  189755    9050
   1  10   2   17995    1331
   2  10   2  118986    5867
   3  10   2    6601     931
   4  10   2   27833    2147
   5  10   2    9575    1446
   6  10   2   12906    1561
   7  10   2     488     520
   8  10   2    3583     794
   9  10   2      99     131
  -9  11   2     137     175
  -8  11   2    3331     718
  -7  11   2    3057    1041
  -6  11   2   92407    4771
  -5  11   2   12221    1391
  -4  11   2  402473   22060
  -3  11   2     526     526
  -2  11   2  102552    5248
  -1  11   2   15749    1309
   0  11   2    9384    1008
   1  11   2     405     427
   2  11   2   84656    4432
   3  11   2   38088    2602
   4  11   2  198531   10518
   5  11   2    1452    1035
   6  11   2    8677    1189
   7  11   2     312     362
   8  11   2     236     268
   9  11   2    1917     696
  -8  12   2     970     542
  -7  12   2     153     197
  -6  12   2     537     548
  -5  12   2    3736    1101
  -4  12   2   86836    4804
  -3  12   2   54253    3424
  -2  12   2     789     674
  -1  12   2   39414    2438
   0  12   2   77852    4103
   1  12   2   82717    4333
   2  12   2   16308    1561
   3  12   2   59885    3692
   4  12   2   14522    1479
   5  12   2    9060    1331
   6  12   2    8162    1101
   7  12   2     542     526
   8  12   2   13750    1260
  -8  13   2     542     438
  -7  13   2     142     186
  -6  13   2    1967     876
  -5  13   2    5746    1002
  -4  13   2   23807    2021
  -3  13   2    1293     882
  -2  13   2   44579    2985
  -1  13   2    4601    1046
   0  13   2   60252    3659
   1  13   2    5883    1123
   2  13   2  295495   16006
   3  13   2    2104     893
   4  13   2   28310    2284
   5  13   2    1364     794
   6  13   2    3939     920
   7  13   2     340     340
   8  13   2    2525     630
  -7  14   2     783     504
  -6  14   2   13339    1265
  -5  14   2   11756    1413
  -4  14   2    1643     822
  -3  14   2   39797    2816
  -2  14   2  147564    7768
  -1  14   2   45806    3079
   0  14   2   76992    4552
   1  14   2   20186    1862
   2  14   2    4404     981
   3  14   2    9636    1342
   4  14   2   80383    4240
   5  14   2     186     247
   6  14   2   53695    3183
   7  14   2     186     225
  -7  15   2     614     427
  -6  15   2     192     236
  -5  15   2     460     444
  -4  15   2    6930    1156
  -3  15   2     570     531
  -2  15   2   49088    3265
  -1  15   2    1928     981
   0  15   2    2410     964
   1  15   2    4837    1145
   2  15   2   25741    2136
   3  15   2     488     520
   4  15   2  103587    5461
   5  15   2     394     422
   6  15   2    5133     778
   7  15   2    1441     542
  -6  16   2   22837    1660
  -5  16   2    1490     630
  -4  16   2    4262     942
  -3  16   2   17223    1632
  -2  16   2   10468    1183
  -1  16   2   16050    1490
   0  16   2   47433    2870
   1  16   2   14747    1424
   2  16   2  114718    5768
   3  16   2    6146    1145
   4  16   2    8200    1112
   5  16   2    1068     586
   6  16   2     466     394
  -6  17   2     416     411
  -5  17   2     115     148
  -4  17   2    8184     937
  -2  17   2    3566     937
  -1  17   2     904     679
   0  17   2   28803    2109
   1  17   2    3736     937
   2  17   2   59917    3435
   3  17   2    1961     685
   4  17   2     427     438
   5  17   2     860     614
   6  17   2     170     219
  -5  18   2     225     257
  -4  18   2    2306     608
  -3  18   2    4360     772
  -2  18   2     570     460
  -1  18   2    3352     767
   0  18   2    1161     630
   1  18   2   14588    1260
   2  18   2    2569     707
   3  18   2    4859     750
   4  18   2     247     274
   5  18   2     115     153
  -4  19   2    1999     668
  -3  19   2    1402     509
  -2  19   2   15278    1211
  -1  19   2    1813     597
   0  19   2   13865    1172
   1  19   2     909     515
   2  19   2   16258    1331
   3  19   2     740     449
   4  19   2    6469     778
  -2  20   2    1539     548
  -1  20   2     153     186
   0  20   2    1474     477
   1  20   2    1485     509
   2  20   2    1052     531
 -10   1   3    2114     641
  -9   1   3    2481     915
  -8   1   3    8776    1386
  -7   1   3    7696    1342
  -6   1   3   35480    2317
  -5   1   3    1895     783
  -4   1   3   13963    1139
  -3   1   3   36855    1934
  -2   1   3    4864     575
  -1   1   3  803490   29153
   0   1   3   25642    1233
   1   1   3  298744   11805
   2   1   3 2069392   75234
   3   1   3   28102    1611
   4   1   3   10956    1090
   5   1   3     477     504
   6   1   3   20865    1715
   7   1   3    1205     920
   8   1   3    3276    1161
   9   1   3    2082    1123
  10   1   3    1222     701
 -10   2   3    1945     652
  -9   2   3     219     279
  -8   2   3    9050    1375
  -7   2   3     400     466
  -6   2   3   48419    2887
  -5   2   3    3188     718
  -4   2   3   19836    1380
  -3   2   3   60109    2892
  -2   2   3  242869    9986
  -1   2   3  154006    6469
   0   2   3   27318    1326
   1   2   3   86836    3840
   2   2   3 5921916  275561
   3   2   3   18225    1216
   4   2   3  361214   15820
   5   2   3    1265     712
   6   2   3    1528     937
   7   2   3    1057     860
   8   2   3     553     603
   9   2   3     477     509
  10   2   3     411     422
 -10   3   3     362     383
  -9   3   3     131     175
  -8   3   3   29077    2120
  -7   3   3    5297    1172
  -6   3   3     367     422
  -5   3   3   19162    1435
  -4   3   3  337664   14894
  -3   3   3    3161     586
  -2   3   3 5204621  242546
  -1   3   3    8655     663
   0   3   3  358787   14122
   1   3   3   17173    1008
   2   3   3  185723    7877
   3   3   3  119955    5472
   4   3   3   45713    2607
   5   3   3    8053    1008
   6   3   3     592     608
   7   3   3    2728    1211
   8   3   3    7362    1249
   9   3   3    1211     811
  10   3   3    2503     734
 -10   4   3     367     372
  -9   4   3    1128     800
  -8   4   3    7083    1189
  -7   4   3    8288    1375
  -6   4   3   13421    1348
  -5   4   3    6141     882
  -4   4   3   36132    2104
  -3   4   3   28912    1671
  -2   4   3 1902009   70019
  -1   4   3    1528     449
   0   4   3 1457394   53377
   1   4   3   58132    2690
   2   4   3  651981   25576
   3   4   3    1572     652
   4   4   3   77359    3840
   5   4   3   26940    1830
   6   4   3     690     690
   7   4   3   29022    2164
   8   4   3    3380    1107
  10   4   3     575     493
 -10   5   3     367     356
  -9   5   3     104     142
  -8   5   3    6776    1167
  -7   5   3    3079     992
  -6   5   3     378     438
  -5   5   3   16176    1337
  -4   5   3  105488    5051
  -3   5   3   16812    1205
  -2   5   3   69816    3265
  -1   5   3   59435    2783
   0   5   3   95557    4322
   1   5   3  164984    7072
   2   5   3      66      93
   3   5   3  112681    5144
   4   5   3  226512   10408
   5   5   3    6798     926
   6   5   3   95212    5144
   7   5   3    2399    1063
   8   5   3    1769     931
   9   5   3    1013     761
  10   5   3    6661     767
 -10   6   3     186     214
  -9   6   3     909     696
  -8   6   3     537     509
  -7   6   3    1627     942
  -6   6   3   52352    3254
  -5   6   3     592     575
  -4   6   3  145121    6820
  -3   6   3     433     411
  -2   6   3  139917    6283
  -1   6   3  376793   15486
   0   6   3 1157292   45023
   1   6   3    1589     509
   2   6   3    7549     783
   3   6   3   18203    1331
   4   6   3   90364    4580
   5   6   3    3835     876
   6   6   3   82979    4634
   7   6   3     290     356
   8   6   3    5642    1107
   9   6   3     422     449
  10   6   3    1775     657
 -10   7   3     394     411
  -9   7   3     783     570
  -8   7   3    5960    1194
  -7   7   3    6256    1222
  -6   7   3    5538    1189
  -5   7   3     307     362
  -4   7   3    1079     756
  -3   7   3     981     581
  -2   7   3  145285    6612
  -1   7   3   99200    4508
   0   7   3  468154   19496
   1   7   3   35053    1923
   2   7   3   49811    2586
   3   7   3    5434     844
   4   7   3   17957    1391
   5   7   3     504     526
   6   7   3    2213    1101
   7   7   3    2586    1139
   8   7   3    1643     959
   9   7   3    1117     668
  10   7   3    3654     718
  -9   8   3     247     296
  -8   8   3    3950    1090
  -7   8   3    1205     964
  -6   8   3   20931    1939
  -5   8   3    7264    1172
  -4   8   3   38707    2377
  -3   8   3  106885    5259
  -2   8   3  141210    6404
  -1   8   3  131788    6059
   0   8   3 3011473  178909
   1   8   3     509     449
   2   8   3  105214    4936
   3   8   3     822     537
   4   8   3   58542    3270
   5   8   3     537     520
   6   8   3     652     657
   7   8   3     855     718
   8   8   3    1331     844
   9   8   3     389     411
  -9   9   3     148     186
  -8   9   3     548     542
  -7   9   3     252     318
  -6   9   3   66803    3791
  -5   9   3    1572    1002
  -4   9   3  136674    6935
  -3   9   3   21079    1517
  -2   9   3   22432    1512
  -1   9   3  143554    6524
   0   9   3  236268   10545
   1   9   3   50484    2695
   2   9   3   33771    2027
   3   9   3     405     389
   4   9   3   69383    3845
   5   9   3    1632     981
   6   9   3     263     334
   7   9   3     405     460
   8   9   3    8792    1090
   9   9   3    2443     597
  -9  10   3    1079     488
  -8  10   3     564     482
  -7  10   3     750     696
  -6  10   3   28041    2257
  -5  10   3   21994    1956
  -4  10   3   29214    2208
  -3  10   3   41577    2520
  -2  10   3  747226   39200
  -1  10   3   16691    1276
   0  10   3    6968     833
   1  10   3    1846     603
   2  10   3  162223    7981
   3  10   3   54768    3106
   4  10   3   16384    1627
   5  10   3   25248    2131
   6  10   3   24629    2213
   7  10   3    1249     898
   8  10   3    1145     624
   9  10   3     783     504
  -9  11   3     312     345
  -8  11   3   19310    1556
  -7  11   3     482     493
  -6  11   3   12753    1446
  -5  11   3    6678    1085
  -4  11   3   20712    1912
  -3  11   3    1605     827
  -2  11   3  284704   14369
  -1  11   3   29017    1912
   0  11   3   29219    1890
   1  11   3    3851     756
   2  11   3    2723     767
   3  11   3   20904    1791
   4  11   3   56872    3621
   5  11   3   26042    2021
   6  11   3     170     225
   7  11   3    1813     882
   8  11   3     153     197
   9  11   3     318     362
  -8  12   3    2345     696
  -7  12   3      99     137
  -6  12   3    3928     931
  -5  12   3    1364     860
  -4  12   3    2607    1002
  -3  12   3    4328    1057
  -2  12   3    2049     800
  -1  12   3    7357    1019
   0  12   3   12791    1249
   1  12   3   10496    1134
   2  12   3  226084   11679
   3  12   3    3402    1041
   4  12   3   43593    2816
   5  12   3    1758     915
   6  12   3    1178     772
   7  12   3     438     422
   8  12   3    4070     707
  -8  13   3     723     460
  -7  13   3     493     427
  -6  13   3    1693     953
  -5  13   3    9992    1227
  -4  13   3    2794    1008
  -3  13   3   23823    1890
  -2  13   3    2394     964
  -1  13   3   20455    1824
   0  13   3  282019   15009
   1  13   3   29433    2246
   2  13   3     482     504
   3  13   3   65094    3807
   4  13   3    6820    1326
   5  13   3   14538    1419
   6  13   3    1906     931
   7  13   3     279     323
   8  13   3    4662     663
  -7  14   3     619     466
  -6  14   3   10364    1156
  -5  14   3     866     685
  -4  14   3    1402     931
  -3  14   3    4426    1013
  -2  14   3    5708    1068
  -1  14   3     312     367
   0  14   3    1375     997
   1  14   3   23161    2010
   2  14   3   20109    1786
   3  14   3     592     597
   4  14   3   32583    2251
   5  14   3     745     679
   6  14   3    2284     805
   7  14   3     236     268
  -7  15   3     214     241
  -6  15   3    4875     772
  -5  15   3     608     564
  -4  15   3   55880    3347
  -3  15   3   21358    1753
  -2  15   3   75513    4508
  -1  15   3   38208    2755
   0  15   3    1117     778
   1  15   3   43517    2980
   2  15   3   13887    1556
   3  15   3   20055    1671
   4  15   3    2520    1030
   6  15   3    6212     838
   7  15   3     219     247
  -6  16   3     225     247
  -5  16   3     148     192
  -4  16   3   23752    1857
  -3  16   3    4612     986
  -2  16   3   13454    1348
  -1  16   3    5084     992
   0  16   3   46431    2827
   1  16   3    1145     827
   2  16   3     668     652
   3  16   3     345     389
   4  16   3    7401    1068
   5  16   3    1983     619
   6  16   3   26004    1758
  -6  17   3   12692    1074
  -5  17   3     197     236
  -4  17   3   16247    1315
  -3  17   3    5423     849
  -2  17   3   28452    2071
  -1  17   3   19112    1687
   0  17   3    4158     986
   1  17   3   22624    1830
   2  17   3    6584    1046
   3  17   3    5708     926
   4  17   3    6102     833
   5  17   3     378     351
   6  17   3    4678     734
  -5  18   3    1446     559
  -4  18   3      93     126
  -3  18   3     318     323
  -2  18   3      93     126
  -1  18   3     422     405
   0  18   3    6557     926
   1  18   3     597     471
   2  18   3     827     635
   3  18   3     285     318
   4  18   3   25637    1802
   5  18   3     121     153
  -4  19   3     915     592
  -3  19   3     274     290
  -2  19   3     668     482
  -1  19   3    2635     624
   0  19   3    7773     871
   1  19   3    2942     630
   2  19   3     920     537
   3  19   3     931     449
   4  19   3   13081    1096
  -2  20   3      88     115
  -1  20   3     137     170
   0  20   3   32424    2104
   1  20   3     581     449
   2  20   3   27346    1862
 -10   0   4    9121     948
  -9   0   4     756     718
  -8   0   4    2783    1139
  -7   0   4    1501     920
  -6   0   4  117195    6015
  -5   0   4   14900    1282
  -4   0   4  163609    7412
  -3   0   4   94664    4300
  -2   0   4 1022628   37184
  -1   0   4 1717271   62141
   0   0   4   30978    1468
   1   0   4 1273056   46097
   2   0   4 2763608  100339
   3   0   4    7072     838
   4   0   4    1621     767
   5   0   4   19452    1495
   6   0   4  113732    5894
   7   0   4   23873    2125
   8   0   4   11772    1424
   9   0   4     455     498
  10   0   4     175     219
 -10   1   4     104     142
  -9   1   4    1063     783
  -8   1   4   56959    3550
  -7   1   4    4465    1200
  -6   1   4  156241    7866
  -5   1   4   26825    1808
  -4   1   4   20307    1386
  -3   1   4   50605    2498
  -2   1   4 1390826   50572
  -1   1   4    5018     482
   0   1   4  182721    7653
   1   1   4    2098     438
   2   1   4 1335258   48666
   3   1   4    8480     855
   4   1   4  920361   40860
   5   1   4    8748    1041
   6   1   4    1419     849
   7   1   4    2553    1172
   8   1   4   10304    1348
   9   1   4    1128     816
  10   1   4     170     219
 -10   2   4    1112     652
  -9   2   4     394     455
  -8   2   4   11065    1435
  -7   2   4     433     504
  -6   2   4   43610    2690
  -5   2   4     340     378
  -4   2   4     630     531
  -3   2   4   22350    1353
  -2   2   4 2345840   85242
  -1   2   4   50747    2339
   0   2   4 5200141  194313
   1   2   4    1698     449
   2   2   4  332729   13426
   3   2   4   15650    1150
   4   2   4  125713    5796
   5   2   4    7132     986
   6   2   4    8858    1178
   7   2   4    1824    1128
   8   2   4     608     603
   9   2   4    2816     904
  10   2   4    1117     701
 -10   3   4     192     236
  -9   3   4    2339     893
  -8   3   4    3933    1063
  -7   3   4   10014    1441
  -6   3   4  220196   11241
  -5   3   4    1452     849
  -4   3   4   62832    3194
  -3   3   4    1123     509
  -2   3   4  638057   24541
  -1   3   4  387639   15141
   0   3   4 2386437   94549
   1   3   4  118657    5155
   2   3   4  966589   37370
   3   3   4   25423    1534
   4   3   4  169246    7729
   5   3   4     581     575
   6   3   4     646     592
   7   3   4   11011    1517
   8   3   4    4886    1156
   9   3   4     498     531
  10   3   4     197     247
 -10   4   4     394     383
  -9   4   4     389     433
  -8   4   4     553     531
  -7   4   4     438     493
  -6   4   4   14254    1380
  -5   4   4     203     247
  -4   4   4   49959    2706
  -3   4   4   48984    2503
  -2   4   4  171672    7395
  -1   4   4   84031    3813
   0   4   4  522149   20131
   1   4   4   11854     844
   2   4   4   10211     915
   3   4   4   12451    1068
   4   4   4  173738    8069
   5   4   4    9849    1117
   6   4   4   33163    2410
   7   4   4     986     789
   8   4   4    1013     866
   9   4   4     723     652
  10   4   4    1008     690
 -10   5   4     630     444
  -9   5   4     822     685
  -8   5   4    3550    1046
  -7   5   4    8009    1183
  -6   5   4     411     460
  -5   5   4   22673    1654
  -4   5   4    7866     964
  -3   5   4   44322    2339
  -2   5   4  223269    9537
  -1   5   4   43801    2164
   0   5   4  103248    4651
   1   5   4   33015    1736
   2   5   4   72522    3424
   3   5   4    5253     756
   4   5   4     515     493
   5   5   4    6497     942
   6   5   4   13185    1611
   7   5   4    3594    1090
   8   5   4    6847    1183
   9   5   4     893     723
  10   5   4    1353     564
 -10   6   4    1895     575
  -9   6   4     334     372
  -8   6   4    1227     772
  -7   6   4     274     345
  -6   6   4   18970    1758
  -5   6   4    2635     778
  -4   6   4   61057    3248
  -3   6   4   14210    1134
  -2   6   4  175879    7768
  -1   6   4   41424    2120
   0   6   4  207613    8885
   1   6   4    3188     592
   2   6   4   42273    2219
   3   6   4  151919    6979
   4   6   4   24245    1649
   5   6   4   23561    1769
   6   6   4    8255    1391
   7   6   4     389     460
   8   6   4    2372    1035
   9   6   4     564     548
  10   6   4     110     142
 -10   7   4    4673     723
  -9   7   4     411     427
  -8   7   4    1589     970
  -7   7   4    1934    1041
  -6   7   4   28491    2213
  -5   7   4    1375     750
  -4   7   4  114242    5708
  -3   7   4   24097    1616
  -2   7   4  601513   25911
  -1   7   4  187608    8217
   0   7   4  407245   17108
   1   7   4    6606     745
   2   7   4  435253   18762
   3   7   4    3002     718
   4   7   4    1057     761
   5   7   4    9384    1156
   6   7   4     427     477
   7   7   4     674     674
   8   7   4     992     833
  10   7   4    3446     679
  -9   8   4     203     247
  -8   8   4   30638    2191
  -7   8   4     493     531
  -6   8   4   78509    4536
  -5   8   4     274     329
  -4   8   4   17255    1419
  -3   8   4     455     449
  -2   8   4   20789    1446
  -1   8   4   71733    3484
   0   8   4   90775    4344
   1   8   4  106151    4897
   2   8   4   23248    1567
   3   8   4    5193     778
   4   8   4   18094    1479
   5   8   4    9959    1304
   6   8   4     761     734
   7   8   4    4136     992
   8   8   4     400     460
   9   8   4     690     477
  -9   9   4     668     498
  -7   9   4    4289     975
  -6   9   4   82881    4514
  -5   9   4   33481    2449
  -4   9   4   60564    3429
  -3   9   4   88244    4514
  -2   9   4   90429    4503
  -1   9   4  116630    5429
   0   9   4   79008    3867
   1   9   4   60630    3128
   2   9   4  376590   18126
   3   9   4     608     542
   4   9   4  102914    5385
   5   9   4    1490     909
   6   9   4    2060    1107
   7   9   4     953     827
   8   9   4     230     285
   9   9   4     225     263
  -9  10   4     181     208
  -8  10   4    5237     871
  -7  10   4     734     668
  -6  10   4   14555    1594
  -5  10   4    6316    1233
  -4  10   4   12632    1419
  -3  10   4     471     471
  -2  10   4  164316    8085
  -1  10   4   11115    1052
   0  10   4   21572    1495
   1  10   4   15409    1249
   2  10   4   24826    1704
   3  10   4   10660    1134
   4  10   4  126337    6754
   5  10   4   15985    1687
   6  10   4    3610    1035
   7  10   4     641     641
   8  10   4     186     236
   9  10   4     142     181
  -9  11   4     811     624
  -8  11   4     898     657
  -7  11   4     575     559
  -6  11   4   14341    1452
  -5  11   4    1589     860
  -4  11   4  395571   21731
  -3  11   4   28858    2147
  -2  11   4    6650     959
  -1  11   4   23539    1665
   0  11   4   43560    2525
   1  11   4   16132    1337
   2  11   4   59397    3320
   3  11   4     488     509
   4  11   4  230001   12155
   5  11   4    5785    1211
   6  11   4    6327    1150
   7  11   4     351     405
   8  11   4     362     389
  -8  12   4    2498     603
  -7  12   4     208     263
  -6  12   4   13026    1337
  -5  12   4    4727    1057
  -4  12   4  161746    8398
  -3  12   4     718     663
  -2  12   4   41046    2755
  -1  12   4    3741     860
   0  12   4   19978    1578
   1  12   4    4634     866
   2  12   4  119791    6442
   3  12   4    7592    1205
   4  12   4   17524    1720
   5  12   4    6743    1320
   6  12   4   12802    1435
   7  12   4     592     498
   8  12   4     192     236
  -8  13   4    4229     652
  -7  13   4    1145     592
  -6  13   4    5001    1046
  -5  13   4     411     460
  -4  13   4    3955    1101
  -3  13   4    4240     975
  -2  13   4     509     542
  -1  13   4     860     718
   0  13   4   56559    3528
   1  13   4   30167    2284
   2  13   4    4114    1085
   3  13   4    9877    1282
   4  13   4     657     608
   5  13   4    3407     893
   6  13   4    2772     898
   8  13   4     887     526
  -7  14   4     931     646
  -6  14   4   12243    1178
  -5  14   4     822     740
  -4  14   4    5850    1041
  -3  14   4   14955    1654
  -2  14   4  111426    6009
  -1  14   4    6886    1112
   0  14   4   73585    4404
   1  14   4   32013    2295
   2  14   4    6371    1057
   3  14   4   36001    2651
   4  14   4   43232    2684
   5  14   4   15261    1528
   6  14   4   18165    1485
   7  14   4     816     548
  -7  15   4     197     225
  -6  15   4     334     356
  -5  15   4    2060     778
  -4  15   4    5231    1128
  -3  15   4    1238     904
  -2  15   4    8179    1260
  -1  15   4    5823    1139
   0  15   4    5018    1134
   1  15   4    2503     992
   2  15   4   10435    1408
   3  15   4     356     383
   4  15   4   12084    1380
   5  15   4     701     624
   6  15   4   20865    1578
   7  15   4      66      88
  -6  16   4     175     219
  -5  16   4     778     520
  -4  16   4    9154    1183
  -3  16   4    1123     778
  -2  16   4   21358    1720
  -1  16   4    3232     909
   0  16   4   31619    2186
   1  16   4   18318    1594
   2  16   4   23571    1769
   3  16   4   21764    1830
   4  16   4     657     603
   5  16   4    3867     805
   6  16   4     192     230
  -6  17   4    2405     679
  -5  17   4    1271     575
  -4  17   4   17672    1342
  -3  17   4    5987     893
  -2  17   4   11268    1331
  -1  17   4    3391     959
   0  17   4     422     444
   1  17   4    1008     800
   2  17   4    3314     931
   3  17   4     964     608
   4  17   4    4667     811
   5  17   4    1512     553
   6  17   4     904     581
  -5  18   4    1282     657
  -4  18   4   11027    1024
  -3  18   4     296     329
  -2  18   4    9367     997
  -1  18   4     104     137
   0  18   4   12977    1205
   1  18   4    2038     723
   2  18   4    4130     740
   3  18   4     630     482
   4  18   4    2246     608
   5  18   4     564     498
  -4  19   4    3709     674
  -3  19   4    3517     586
  -2  19   4   24859    1780
  -1  19   4    2498     619
   0  19   4     340     362
   1  19   4    4097     690
   2  19   4    8272     898
   3  19   4    1649     471
   4  19   4    3478     723
  -2  20   4    2005     630
  -1  20   4     323     323
   0  20   4    2065     526
   1  20   4     975     498
   2  20   4     126     164
 -10   1   5     438     411
  -9   1   5    3259    1024
  -8   1   5    3873    1249
  -7   1   5   12769    1561
  -6   1   5    8277    1090
  -5   1   5   37064    2208
  -4   1   5   72927    3561
  -3   1   5   59600    2876
  -2   1   5    4601     586
  -1   1   5   54894    2503
   0   1   5   14002     800
   1   1   5  159018    6694
   2   1   5  280683   11476
   3   1   5    2032     641
   4   1   5  173217    7916
   5   1   5   25253    1742
   6   1   5   12402    1380
   7   1   5    8644    1539
   8   1   5    2421    1337
   9   1   5     570     597
  10   1   5    2454     761
 -10   2   5     663     509
  -9   2   5     351     411
  -8   2   5    2021    1194
  -7   2   5     345     405
  -6   2   5    1446     794
  -5   2   5   14232    1194
  -4   2   5  521256   22854
  -3   2   5   88518    4070
  -2   2   5  403711   16039
  -1   2   5   46294    2169
   0   2   5  370685   14577
   1   2   5    2153     455
   2   2   5  273863   11274
   3   2   5   17666    1200
   4   2   5 1029952   47389
   5   2   5    2405     794
   6   2   5   71865    4032
   7   2   5     449     526
   8   2   5   28178    2109
   9   2   5    1046     789
  10   2   5     920     608
 -10   3   5    1802     619
  -9   3   5    1145     734
  -8   3   5    2909    1276
  -7   3   5    2690    1090
  -6   3   5     449     504
  -5   3   5   12955    1161
  -4   3   5  335796   14922
  -3   3   5   24377    1468
  -2   3   5 1242364   45593
  -1   3   5  123823    5363
   0   3   5  998295   36675
   1   3   5   17968    1057
   2   3   5  665797   25916
   3   3   5     318     340
   4   3   5  783544   35727
   5   3   5     833     608
   6   3   5    1424    1063
   7   3   5    1057     937
   8   3   5    3457    1041
  10   3   5     427     422
 -10   4   5     876     608
  -8   4   5     449     504
  -7   4   5   22509    1824
  -6   4   5   23774    1945
  -5   4   5    2175     690
  -4   4   5  626635   28463
  -3   4   5    3785     657
  -2   4   5   20833    1271
  -1   4   5  959462   35086
   0   4   5  121714    5352
   1   4   5  512256   20005
   2   4   5  649977   26004
   3   4   5   30222    1764
   4   4   5    7833    1024
   5   4   5   25538    1797
   6   4   5     394     460
   7   4   5    1309    1068
   8   4   5     997     783
   9   4   5     740     685
  10   4   5    2531     597
 -10   5   5    3352     597
  -9   5   5    1364     685
  -8   5   5   25428    1939
  -7   5   5    2547     975
  -6   5   5   11493    1342
  -5   5   5    3013     772
  -4   5   5   57682    3062
  -3   5   5    5648     756
  -2   5   5      82     115
  -1   5   5  215315    9082
   0   5   5   11504     860
   1   5   5   48019    2377
   2   5   5   81709    3780
   3   5   5   29537    1775
   4   5   5    8020    1035
   5   5   5   20800    1632
   6   5   5   72834    4185
   7   5   5    6053    1200
   8   5   5   30353    2169
   9   5   5     219     279
  10   5   5    2449     663
 -10   6   5    6415     756
  -9   6   5     241     296
  -8   6   5   41419    2591
  -7   6   5     805     707
  -6   6   5    5341    1128
  -5   6   5    8814    1063
  -4   6   5   10655    1030
  -3   6   5   77414    3763
  -2   6   5  777272   32741
  -1   6   5   44837    2262
   0   6   5   39381    2049
   1   6   5   26562    1534
   2   6   5   78279    3698
   3   6   5   18554    1359
   4   6   5   66902    3544
   5   6   5     405     455
   6   6   5   38258    2701
   7   6   5     488     548
   8   6   5    7450    1249
   9   6   5     219     274
  10   6   5      93     126
 -10   7   5    2427     690
  -9   7   5     142     186
  -8   7   5   13591    1545
  -7   7   5    3155    1128
  -6   7   5     970     789
  -5   7   5    3084     827
  -4   7   5  260256   12933
  -3   7   5     575     460
  -2   7   5   85483    4059
  -1   7   5   70325    3446
   0   7   5  126140    5681
   1   7   5    1117     537
   2   7   5  158471    7198
   3   7   5   52457    2810
   4   7   5   38017    2328
   5   7   5     575     581
   6   7   5   12550    1572
   7   7   5    2076    1079
   8   7   5    8228    1364
   9   7   5     427     438
  -9   8   5     225     263
  -8   8   5    2323     876
  -7   8   5     772     750
  -6   8   5    4108    1041
  -5   8   5    4371    1063
  -4   8   5    1128     816
  -3   8   5   36691    2169
  -2   8   5   20515    1441
  -1   8   5   68271    3363
   0   8   5  329420   14286
   1   8   5    9981     948
   2   8   5   77534    3824
   3   8   5    2991     701
   4   8   5  122092    6196
   5   8   5     356     416
   6   8   5     586     619
   7   8   5     959     838
   8   8   5     257     312
   9   8   5     153     197
  -9   9   5     761     553
  -8   9   5    9521    1107
  -7   9   5     334     394
  -6   9   5   39074    2777
  -5   9   5    1348     860
  -4   9   5   20219    1632
  -3   9   5   16286    1348
  -2   9   5   17201    1309
  -1   9   5    1276     614
   0   9   5  114631    5352
   1   9   5   14790    1211
   2   9   5  256865   12413
   3   9   5    3845     800
   4   9   5   59802    3435
   5   9   5   11328    1430
   6   9   5   42509    2947
   7   9   5    6984    1085
   8   9   5     471     493
   9   9   5     340     329
  -9  10   5     192     225
  -8  10   5    3391     761
  -7  10   5     597     592
  -6  10   5    9477    1375
  -5  10   5   22854    2005
  -4  10   5    4514    1057
  -3  10   5   49175    2865
  -2  10   5  311704   15387
  -1  10   5   45549    2553
   0  10   5   47828    2624
   1  10   5   63714    3336
   2  10   5   27220    1835
   3  10   5   77030    4130
   4  10   5   24234    2005
   5  10   5    3856    1008
   6  10   5   57250    3561
   7  10   5    1605     876
   8  10   5    4749     833
   9  10   5    1101     537
  -9  11   5    1019     701
  -8  11   5     597     455
  -7  11   5     334     389
  -6  11   5    1172     805
  -5  11   5    1189     761
  -4  11   5    2410    1096
  -3  11   5   14522    1452
  -2  11   5  448011   23089
  -1  11   5    2597     783
   0  11   5   64053    3418
   1  11   5   26075    1791
   2  11   5    9795    1128
   3  11   5     389     433
   4  11   5   76017    4547
   5  11   5     488     531
   6  11   5    2602     909
   7  11   5     164     214
   8  11   5     115     153
  -8  12   5     389     367
  -7  12   5     520     504
  -6  12   5   50254    3095
  -5  12   5     362     416
  -4  12   5    8819    1211
  -3  12   5     570     570
  -2  12   5    3336     964
  -1  12   5    7439    1046
   0  12   5    2027     811
   1  12   5   13158    1391
   2  12   5  352027   18762
   3  12   5   12451    1490
   4  12   5     203     268
   5  12   5     455     493
   6  12   5    4766    1139
   7  12   5     383     389
   8  12   5    5012     663
  -8  13   5     750     498
  -7  13   5    1572     679
  -6  13   5   14916    1463
  -5  13   5    6804    1052
  -4  13   5    9427    1353
  -3  13   5    5982    1046
  -2  13   5  114253    6316
  -1  13   5     197     252
   0  13   5  389430   21205
   1  13   5    6190    1150
   2  13   5   16001    1758
   3  13   5   25089    1988
   4  13   5    7680    1348
   5  13   5    8003    1156
   6  13   5    9696    1205
   7  13   5     164     208
   8  13   5     208     241
  -7  14   5     208     241
  -6  14   5   13278    1260
  -5  14   5     898     729
  -4  14   5    7138    1090
  -3  14   5    6190    1150
  -2  14   5   44075    2859
  -1  14   5   11120    1249
   0  14   5   13733    1435
   1  14   5     427     471
   2  14   5   37376    2553
   3  14   5    1320     849
   4  14   5   48173    2870
   5  14   5    2695    1002
   6  14   5    1616     718
   7  14   5     871     515
  -7  15   5    1468     526
  -6  15   5    4821     761
  -5  15   5    3440     789
  -4  15   5   31136    2213
  -3  15   5     520     537
  -2  15   5   45888    2810
  -1  15   5    1819     942
   0  15   5   71268    4322
   1  15   5     811     690
   2  15   5   60580    3418
   3  15   5   13300    1391
   4  15   5    1474     876
   5  15   5    4607     805
   6  15   5   13448    1178
   7  15   5     367     372
  -6  16   5    1013     531
  -5  16   5     729     586
  -4  16   5    9734    1216
  -3  16   5    2054     942
  -2  16   5    1950     876
  -1  16   5     296     329
   0  16   5    1430     816
   1  16   5     241     296
   2  16   5   37562    2394
   3  16   5     657     614
   4  16   5    5199     882
   6  16   5    2049     498
  -6  17   5   14007    1096
  -5  17   5    1901     614
  -4  17   5     685     537
  -3  17   5     833     575
  -2  17   5   14122    1463
  -1  17   5     367     416
   0  17   5     614     564
   1  17   5    1884     838
   2  17   5   28359    2065
   3  17   5     378     372
   4  17   5    3259     745
   5  17   5     668     449
  -5  18   5    1824     679
  -4  18   5    2668     619
  -3  18   5   11241    1052
  -2  18   5    5549     833
  -1  18   5   11662    1096
   0  18   5   33552    2114
   1  18   5    8628     981
   2  18   5    2514     663
   3  18   5    2690     597
   4  18   5   21873    1550
   5  18   5    1802     668
  -4  19   5    9553     920
  -3  19   5     296     307
  -2  19   5     268     290
  -1  19   5      99     131
   0  19   5    4360     690
   1  19   5     175     214
   2  19   5     838     526
   3  19   5    1550     477
   4  19   5    5067     712
  -2  20   5     197     236
  -1  20   5   10534     953
   0  20   5    5040     685
   1  20   5   12375    1024
   2  20   5    1956     624
 -10   0   6     175     219
  -9   0   6    3374     953
  -8   0   6   25226    1934
  -7   0   6   47285    3073
  -6   0   6  283247   14549
  -5   0   6   17557    1326
  -4   0   6   33169    1928
  -3   0   6  139944    6272
  -2   0   6   19616    1150
  -1   0   6  826382   30046
   0   0   6 4853389  182683
   1   0   6  413243   15985
   2   0   6   91870    4163
   3   0   6   42164    2219
   4   0   6  101309    4793
   5   0   6     586     597
   6   0   6  146934    7516
   7   0   6    5078    1337
   8   0   6   14243    1561
   9   0   6     323     389
  10   0   6   10950    1123
 -10   1   6    1243     614
  -9   1   6     734     624
  -8   1   6  105450    5319
  -7   1   6    6524    1227
  -6   1   6     438     471
  -5   1   6   15765    1265
  -4   1   6  119134    5500
  -3   1   6    3939     635
  -2   1   6 2611382   94856
  -1   1   6   16132     953
   0   1   6  974833   35957
   1   1   6    8967     696
   2   1   6  174203    7428
   3   1   6     345     356
   4   1   6  520813   23018
   5   1   6    5757     975
   6   1   6    3259    1085
   7   1   6    1857    1216
   8   1   6    1320     926
   9   1   6     252     318
  10   1   6     400     422
 -10   2   6     225     263
  -9   2   6     482     520
  -8   2   6     668     674
  -7   2   6     433     488
  -6   2   6    4191     849
  -5   2   6    4645     800
  -4   2   6   42268    2339
  -3   2   6   23067    1408
  -2   2   6 1522077   55442
  -1   2   6   46146    2180
   0   2   6 2058929   75683
   1   2   6   13076     866
   2   2   6  683562   26420
   3   2   6   21112    1375
   4   2   6  214165    9734
   5   2   6    3385     876
   6   2   6  386642   20476
   7   2   6   11580    1621
   8   2   6   15240    1545
   9   2   6     296     362
  10   2   6     641     515
 -10   3   6    7483     898
  -9   3   6     115     159
  -8   3   6    1348     838
  -7   3   6     811     712
  -6   3   6   36357    2388
  -5   3   6    4191     778
  -4   3   6   91268    4399
  -3   3   6   81725    3824
  -2   3   6  461043   18532
  -1   3   6  245701   10090
   0   3   6  285805   11684
   1   3   6  214236    8918
   2   3   6     126     170
   3   3   6    5692     778
   4   3   6   32309    2027
   5   3   6   10337    1139
   6   3   6   27023    2158
   7   3   6    6486    1265
   8   3   6   13333    1479
   9   3   6     351     405
  10   3   6    1156     592
 -10   4   6     372     340
  -9   4   6    2416     707
  -8   4   6     986     838
  -7   4   6    3122    1024
  -6   4   6     334     389
  -5   4   6    4174     783
  -4   4   6    2794     772
  -3   4   6    9942     893
  -2   4   6   94335    4245
  -1   4   6  146447    6327
   0   4   6   40334    2005
   1   4   6   49411    2383
   2   4   6  231037    9838
   3   4   6   10715     975
   4   4   6  366385   16620
   5   4   6    1830     778
   6   4   6   13487    1643
   7   4   6     236     312
   8   4   6   22339    1830
   9   4   6     444     477
  10   4   6     110     148
 -10   5   6     833     509
  -9   5   6     186     236
  -8   5   6     175     230
  -7   5   6     449     504
  -6   5   6   20115    1824
  -5   5   6    8885    1008
  -4   5   6   59424    3161
  -3   5   6    1868     575
  -2   5   6  135825    6080
  -1   5   6  343011   14106
   0   5   6     268     274
   1   5   6   79863    3648
   2   5   6   13361    1013
   3   5   6   67663    3342
   4   5   6    8721    1013
   5   5   6   29531    2005
   6   5   6   32057    2421
   7   5   6    3961    1156
   8   5   6    5763    1112
   9   5   6     307     356
  10   5   6     685     509
 -10   6   6    1134     575
  -9   6   6     192     241
  -8   6   6    1008     822
  -7   6   6     219     285
  -6   6   6   27548    2164
  -5   6   6    5023     898
  -4   6   6    8162     931
  -3   6   6   47784    2558
  -2   6   6  180322    7981
  -1   6   6   26250    1561
   0   6   6  438129   18148
   1   6   6   54270    2668
   2   6   6   72599    3489
   3   6   6     559     504
   4   6   6   37688    2273
   5   6   6     942     767
   6   6   6   41796    2854
   7   6   6     296     372
   8   6   6    2240    1052
   9   6   6     383     411
  10   6   6    3478     789
 -10   7   6    5922     750
  -9   7   6     340     372
  -8   7   6   31788    2334
  -7   7   6     471     515
  -6   7   6   68989    4065
  -5   7   6    5478     953
  -4   7   6   80618    4213
  -3   7   6   22005    1545
  -2   7   6   15486    1189
  -1   7   6   20657    1408
   0   7   6  511292   21594
   1   7   6   24289    1506
   2   7   6  129257    5878
   3   7   6   32659    2010
   4   7   6   18696    1490
   5   7   6    1348     926
   6   7   6   22733    2043
   7   7   6    4640    1057
   8   7   6     964     750
   9   7   6     548     455
  -9   8   6     263     301
  -8   8   6     329     389
  -7   8   6    3352     953
  -6   8   6   24503    1945
  -5   8   6    9060    1260
  -4   8   6   58482    3287
  -3   8   6   33563    2060
  -2   8   6  172730    7954
  -1   8   6    7905     866
   0   8   6   81506    3917
   1   8   6   16231    1238
   2   8   6    4974     794
   3   8   6   49318    2766
   4   8   6   75327    4076
   5   8   6    1435     887
   6   8   6    2624    1046
   7   8   6    1337     975
   8   8   6     548     531
   9   8   6     515     471
  -9   9   6     372     378
  -8   9   6     389     427
  -7   9   6     827     668
  -6   9   6     164     225
  -5   9   6     575     570
  -4   9   6    1594     701
  -3   9   6    4574     794
  -2   9   6  162645    7877
  -1   9   6    3106     701
   0   9   6   32446    1999
   1   9   6   20756    1512
   2   9   6   42969    2460
   3   9   6   56664    3166
   4   9   6    1002     701
   5   9   6   30512    2399
   6   9   6     477     526
   7   9   6     329     394
   8   9   6    1967     729
   9   9   6     159     197
  -9  10   6      82     110
  -8  10   6     778     652
  -7  10   6     882     740
  -6  10   6     257     329
  -5  10   6     383     444
  -4  10   6    2438     970
  -3  10   6   47997    2832
  -2  10   6   13859    1238
  -1  10   6   16741    1315
   0  10   6  135661    6491
   1  10   6   16812    1326
   2  10   6  102848    5199
   3  10   6     592     564
   4  10   6     263     318
   5  10   6     827     767
   6  10   6    3539     997
   7  10   6     460     493
   8  10   6     729     608
   9  10   6     137     175
  -9  11   6    2898     635
  -8  11   6     624     548
  -7  11   6     460     493
  -6  11   6   61561    3413
  -5  11   6    1287     970
  -4  11   6     148     203
  -3  11   6     975     707
  -2  11   6  117227    5971
  -1  11   6   13635    1238
   0  11   6   11279    1156
   1  11   6    2125     734
   2  11   6    3287     849
   3  11   6   25620    2038
   4  11   6   14916    1654
   5  11   6    1375     931
   6  11   6   22377    1791
   7  11   6     411     455
   8  11   6    8447     915
  -8  12   6     400     389
  -7  12   6     871     679
  -6  12   6    1758     915
  -5  12   6     329     383
  -4  12   6   55809    3522
  -3  12   6   14254    1550
  -2  12   6   84168    4771
  -1  12   6   29849    2202
   0  12   6  346248   17507
   1  12   6    3440     964
   2  12   6  302485   16116
   3  12   6   11745    1506
   4  12   6   49438    3100
   5  12   6    1397     970
   6  12   6    1485     915
   7  12   6     630     504
   8  12   6     778     482
  -8  13   6    4015     603
  -7  13   6     329     362
  -6  13   6    2838     849
  -5  13   6     553     564
  -4  13   6   49345    3254
  -3  13   6     537     559
  -2  13   6  158975    8546
  -1  13   6    1178     893
   0  13   6   12824    1474
   1  13   6     378     438
   2  13   6   35820    2624
   3  13   6     340     400
   4  13   6   12939    1517
   5  13   6    3320     898
   6  13   6     219     274
   7  13   6     794     526
   8  13   6     252     296
  -7  14   6    1216     592
  -6  14   6     153     203
  -5  14   6   16428    1567
  -4  14   6   10430    1161
  -3  14   6   20137    1934
  -2  14   6   22448    2021
  -1  14   6   52117    3226
   0  14   6  125559    6738
   1  14   6   18592    1660
   2  14   6    4782    1128
   3  14   6     783     729
   4  14   6    2284     882
   5  14   6    2093     904
   6  14   6     526     493
   7  14   6      82     115
  -7  15   6     794     477
  -6  15   6     307     340
  -5  15   6    3007     750
  -4  15   6   23615    1906
  -3  15   6    4278     942
  -2  15   6   45231    2772
  -1  15   6     296     362
   0  15   6   50408    3320
   1  15   6    4634    1074
   2  15   6   10112    1211
   3  15   6     323     378
   4  15   6    1002     729
   5  15   6    1342     652
   6  15   6    5034     745
   7  15   6     214     257
  -6  16   6    6102     707
  -5  16   6    5670     827
  -4  16   6   19244    1523
  -3  16   6    3035     909
  -2  16   6     838     652
  -1  16   6     416     466
   0  16   6   21753    1753
   1  16   6    9170    1189
   2  16   6    3818    1030
   3  16   6     351     394
   4  16   6    2832     833
   5  16   6     219     263
   6  16   6     121     153
  -5  17   6    2881     586
  -4  17   6    2142     663
  -3  17   6    8211     986
  -2  17   6   42739    2668
  -1  17   6    9165    1216
   0  17   6   25659    1945
   1  17   6    3752     948
   2  17   6     920     646
   3  17   6    4377     816
   4  17   6    5390     783
   5  17   6    1112     477
  -5  18   6    4645     729
  -4  18   6    7264     778
  -3  18   6     559     433
  -2  18   6   20548    1495
  -1  18   6    1254     630
   0  18   6   15870    1320
   1  18   6    1337     603
   2  18   6    7477     909
   3  18   6    1945     542
   4  18   6   12123    1024
  -4  19   6    7417     772
  -3  19   6    1791     493
  -2  19   6     296     312
  -1  19   6   12364    1068
   0  19   6    1731     575
   1  19   6   16160    1238
   2  19   6    2224     564
   3  19   6    6004     718
  -2  20   6    2180     646
  -1  20   6     285     290
   0  20   6    6541     740
   1  20   6     937     504
   2  20   6    1967     707
 -10   1   7     257     290
  -9   1   7     608     592
  -8   1   7     866     783
  -7   1   7    4590    1156
  -6   1   7    3939     898
  -5   1   7     778     619
  -4   1   7   40306    2246
  -3   1   7   20893    1309
  -2   1   7 1398988   50967
  -1   1   7  577109   21687
   0   1   7  133354    5801
   1   1   7  450197   17469
   2   1   7  888408   33744
   3   1   7   33678    1884
   4   1   7   75617    3763
   5   1   7     449     498
   6   1   7   15130    1578
   7   1   7     630     685
   8   1   7    1178     860
  10   1   7    1802     575
 -10   2   7     772     493
  -9   2   7     197     252
  -8   2   7     641     630
  -7   2   7    8425    1309
  -6   2   7   35935    2339
  -5   2   7   10337    1024
  -4   2   7  406587   18044
  -3   2   7    3079     570
  -2   2   7 3149198  124151
  -1   2   7  584691   22158
   0   2   7 1591685   58548
   1   2   7  103598    4590
   2   2   7  805571   31268
   3   2   7   71646    3440
   4   2   7 1129716   54445
   5   2   7    1096     838
   6   2   7   72840    4196
   7   2   7    1123     986
   8   2   7    1008     915
   9   2   7     493     537
  10   2   7    1775     635
 -10   3   7    2618     663
  -8   3   7   11098    1298
  -7   3   7   13662    1457
  -6   3   7   10523    1282
  -5   3   7   23577    1660
  -4   3   7  125499    5845
  -3   3   7    9230     871
  -2   3   7   28167    1561
  -1   3   7   34889    1769
   0   3   7   10337     778
   1   3   7   10742     816
   2   3   7  470898   19134
   3   3   7   28934    1720
   4   3   7  348138   15722
   5   3   7    8447    1057
   6   3   7   75343    4306
   7   3   7   10277    1441
   8   3   7   40690    2646
   9   3   7     405     455
  10   3   7   10068     926
 -10   4   7      88     121
  -9   4   7     811     701
  -8   4   7   22043    1769
  -7   4   7    9844    1287
  -6   4   7     838     723
  -5   4   7   26058    1786
  -4   4   7  505064   23029
  -3   4   7    1567     592
  -2   4   7  211667    9071
  -1   4   7      66      88
   0   4   7   10381     805
   1   4   7   19759    1211
   2   4   7   92160    4202
   3   4   7    9334     953
   4   4   7   68803    3561
   5   4   7     416     466
   6   4   7  237227   11876
   7   4   7    1501    1117
   8   4   7   12501    1386
   9   4   7    2301     975
  10   4   7    3095     657
 -10   5   7     241     268
  -9   5   7     263     312
  -8   5   7     433     455
  -7   5   7     378     444
  -6   5   7   86611    4766
  -5   5   7     186     241
  -4   5   7   87406    4388
  -3   5   7     455     422
  -2   5   7  660932   27521
  -1   5   7     104     142
   0   5   7    6628     696
   1   5   7    1594     526
   2   5   7    7779     811
   3   5   7    1085     592
   4   5   7   23314    1627
   5   5   7   16165    1441
   6   5   7    2805    1391
   7   5   7    8020    1424
   8   5   7   47499    2996
   9   5   7     471     482
  10   5   7      82     110
 -10   6   7   10682    1008
  -9   6   7     789     635
  -8   6   7     866     778
  -7   6   7     756     685
  -6   6   7     290     351
  -5   6   7     586     553
  -4   6   7    1276     789
  -3   6   7    2542     663
  -2   6   7 1194980   53059
  -1   6   7   51580    2569
   0   6   7   51514    2575
   1   6   7   47691    2427
   2   6   7   32062    1862
   3   6   7   35924    2120
   4   6   7   59353    3254
   5   6   7   32911    2197
   6   6   7     696     674
   7   6   7     778     756
   8   6   7    7675    1287
   9   6   7     274     323
  10   6   7    8348     827
  -9   7   7    1200     630
  -8   7   7    5533    1309
  -7   7   7    1046     783
  -6   7   7    5188    1107
  -5   7   7     334     389
  -4   7   7   52292    2958
  -3   7   7    2021     679
  -2   7   7  304895   13404
  -1   7   7  103352    4744
   0   7   7 1255686   55842
   1   7   7     400     383
   2   7   7   20526    1424
   3   7   7    1134     575
   4   7   7   65390    3577
   5   7   7    4793    1063
   6   7   7    3100    1139
   7   7   7    1435    1002
   8   7   7     318     383
   9   7   7     110     142
  -9   8   7     635     526
  -8   8   7     603     597
  -7   8   7     509     553
  -6   8   7   77759    4262
  -5   8   7     794     701
  -4   8   7   10649    1139
  -3   8   7    2766     652
  -2   8   7     230     268
  -1   8   7     690     531
   0   8   7   57184    2942
   1   8   7   16746    1271
   2   8   7  133223    6185
   3   8   7   34714    2142
   4   8   7   61353    3451
   5   8   7   20887    1884
   6   8   7   35590    2438
   7   8   7     575     559
   9   8   7     372     378
  -9   9   7     290     318
  -8   9   7   13919    1293
  -7   9   7     783     707
  -6   9   7     526     570
  -5   9   7     531     542
  -4   9   7   56713    3292
  -3   9   7   35530    2208
  -2   9   7   34018    2076
  -1   9   7   17124    1282
   0   9   7  124869    5823
   1   9   7     208     252
   2   9   7     756     597
   3   9   7   17924    1446
   4   9   7   70566    4108
   5   9   7    7998    1293
   6   9   7   11860    1572
   7   9   7     498     526
   8   9   7     449     477
   9   9   7     378     329
  -9  10   7    1956     537
  -8  10   7     334     367
  -7  10   7     750     630
  -6  10   7    3385     926
  -5  10   7     356     411
  -4  10   7   25012    2021
  -3  10   7   14029    1326
  -2  10   7  114708    5746
  -1  10   7   55886    3024
   0  10   7   20356    1485
   1  10   7    5746     855
   2  10   7     970     723
   3  10   7    4541     887
   4  10   7   43248    2931
   5  10   7    2295     970
   6  10   7     800     740
   7  10   7     696     635
   8  10   7    5325     822
   9  10   7     570     498
  -8  11   7     296     323
  -7  11   7    2438     876
  -6  11   7   12331    1287
  -5  11   7   10934    1413
  -4  11   7   15196    1632
  -3  11   7   20471    1808
  -2  11   7   61281    3451
  -1  11   7   21090    1621
   0  11   7  329864   16231
   1  11   7    1841     729
   2  11   7  380321   19682
   3  11   7    2158    1008
   4  11   7  318070   17453
   5  11   7     427     477
   6  11   7    5856    1063
   8  11   7    2985     729
  -8  12   7    1424     553
  -7  12   7    1643     624
  -6  12   7     696     663
  -5  12   7     816     745
  -4  12   7     652     646
  -3  12   7    9893    1359
  -2  12   7    1912     866
  -1  12   7    8042    1183
   0  12   7  106617    5790
   1  12   7    6393    1074
   2  12   7   26135    2114
   3  12   7   13344    1539
   4  12   7   58340    3714
   5  12   7    1167     904
   6  12   7     115     159
   7  12   7     356     389
   8  12   7     559     394
  -8  13   7     186     225
  -7  13   7     992     586
  -6  13   7    4799     959
  -5  13   7    6119     986
  -4  13   7   13465    1567
  -3  13   7   34566    2394
  -2  13   7   44344    3018
  -1  13   7   46272    3068
   0  13   7     855     745
   1  13   7   31925    2427
   2  13   7  211004   11285
   3  13   7   11290    1359
   4  13   7    2438     882
   5  13   7    1369     712
   6  13   7   24941    1928
   7  13   7     624     531
   8  13   7    4788     718
  -7  14   7     822     498
  -6  14   7     400     383
  -5  14   7     564     559
  -4  14   7   11367    1238
  -3  14   7     608     564
  -2  14   7    4262    1249
  -1  14   7    1649    1052
   0  14   7  289732   15809
   1  14   7     449     498
   2  14   7  102388    5812
   3  14   7    3090     959
   4  14   7   67340    3665
   5  14   7     548     515
   6  14   7    3687     767
   7  14   7     175     208
  -7  15   7      82     115
  -6  15   7     203     241
  -5  15   7    3703     789
  -4  15   7     241     301
  -3  15   7   10835    1238
  -2  15   7    1238     959
  -1  15   7    8995    1331
   0  15   7   16209    1698
   1  15   7   23632    2082
   2  15   7   15820    1468
   3  15   7    7264    1090
   4  15   7   17995    1605
   5  15   7     268     318
   6  15   7   10720    1090
   7  15   7    2991     696
  -6  16   7    3687     581
  -5  16   7    1534     624
  -4  16   7   16083    1369
  -3  16   7    7340    1030
  -2  16   7    6376    1117
  -1  16   7    8480    1134
   0  16   7   41884    2613
   1  16   7   11142    1233
   2  16   7   19836    1775
   3  16   7    2964     920
   4  16   7    9652    1035
   5  16   7    2136     581
   6  16   7    1775     515
  -5  17   7    7384     750
  -4  17   7    5078     756
  -3  17   7    4859     811
  -2  17   7    1457     756
  -1  17   7    3621     893
   0  17   7    2903     915
   1  17   7    4618     981
   2  17   7    2328     827
   3  17   7    1348     592
   4  17   7    2733     624
   5  17   7    1298     482
  -5  18   7    3966     630
  -4  18   7      82     110
  -3  18   7     592     493
  -2  18   7     542     444
  -1  18   7     372     389
   0  18   7    6634     876
   1  18   7    5264     800
   2  18   7   26820    1868
   3  18   7    3292     614
   4  18   7    3396     570
  -3  19   7    2268     509
  -2  19   7   16176    1271
  -1  19   7     203     247
   0  19   7    1895     581
   1  19   7    3637     685
   2  19   7    2602     526
   3  19   7     334     329
  -2  20   7    3835     641
  -1  20   7      60      82
   0  20   7    3528     586
   1  20   7    1424     635
 -10   0   8    1216     597
  -9   0   8     186     241
  -8   0   8     860     696
  -7   0   8    1117     794
  -6   0   8  110993    5796
  -5   0   8   15157    1271
  -4   0   8  306117   13591
  -3   0   8   93157    4300
  -2   0   8  372290   15081
  -1   0   8  168216    7127
   0   0   8 3774864  144228
   1   0   8   33602    1709
   2   0   8 2194299   83905
   3   0   8     323     323
   4   0   8  298574   13394
   5   0   8    7773    1068
   6   0   8    1808    1096
   7   0   8     564     630
   8   0   8   10890    1397
   9   0   8     121     170
  10   0   8    3374     635
 -10   1   8     427     400
  -9   1   8    1041     789
  -8   1   8    1008     860
  -7   1   8     931     811
  -6   1   8  155880    7937
  -5   1   8    7822     942
  -4   1   8    7549     866
  -3   1   8   13947    1024
  -2   1   8  671417   26250
  -1   1   8  462802   18050
   0   1   8  339762   13761
   1   1   8  133584    5785
   2   1   8    6793     761
   3   1   8   12276    1030
   4   1   8    2821     860
   5   1   8    6064    1013
   6   1   8    7193    1386
   7   1   8   14774    1561
   8   1   8    9373    1331
   9   1   8     290     356
  10   1   8     838     624
 -10   2   8     800     515
  -9   2   8    1320     789
  -8   2   8    1260     833
  -7   2   8   16642    1720
  -6   2   8   17201    1517
  -5   2   8   16034    1309
  -4   2   8  316958   14199
  -3   2   8   63621    3111
  -2   2   8  132582    5850
  -1   2   8  291589   11876
   0   2   8  231738    9712
   1   2   8  112675    4979
   2   2   8  321411   13328
   3   2   8   31257    1813
   4   2   8   25522    1786
   5   2   8    2914     855
   6   2   8  107488    5730
   7   2   8     285     367
   8   2   8    4936    1183
   9   2   8     449     488
  10   2   8     301     323
 -10   3   8    1397     482
  -9   3   8     268     318
  -8   3   8    2065     931
  -7   3   8     389     455
  -6   3   8    7149    1167
  -5   3   8    3583     729
  -4   3   8    3100     712
  -3   3   8    6179     740
  -2   3   8  545414   22109
  -1   3   8    9658     772
   0   3   8   39912    2005
   1   3   8   46414    2273
   2   3   8     646     471
   3   3   8   12468    1063
   4   3   8   14122    1282
   5   3   8     422     433
   6   3   8  205257   10994
   7   3   8     389     471
   8   3   8   91728    4793
   9   3   8     170     219
  10   3   8     537     460
 -10   4   8     400     394
  -9   4   8     449     466
  -8   4   8   17157    1550
  -7   4   8     646     592
  -6   4   8   18296    1704
  -5   4   8   18455    1452
  -4   4   8   85275    4234
  -3   4   8   69876    3413
  -2   4   8   93048    4240
  -1   4   8  175200    7532
   0   4   8  170905    7406
   1   4   8   13070     964
   2   4   8   96685    4410
   3   4   8   57085    2920
   4   4   8   33749    2076
   5   4   8     181     241
   6   4   8   36456    2651
   7   4   8     400     471
   8   4   8    1189     970
   9   4   8     121     164
  10   4   8      71      93
 -10   5   8    1934     581
  -9   5   8     329     372
  -8   5   8    4788    1035
  -7   5   8     761     657
  -6   5   8   83555    4656
  -5   5   8    3413     811
  -4   5   8   86935    4415
  -3   5   8   27757    1709
  -2   5   8  479389   20208
  -1   5   8    2054     515
   0   5   8 2359940  102996
   1   5   8     159     192
   2   5   8   24393    1512
   3   5   8   55135    2876
   4   5   8   91125    4634
   5   5   8    1583    1085
   6   5   8     329     405
   7   5   8    8348    1424
   8   5   8    8337    1479
   9   5   8     707     619
  10   5   8    3741     767
 -10   6   8    8283     898
  -9   6   8    2230     657
  -8   6   8    3769    1112
  -7   6   8    3281    1123
  -6   6   8   46633    3057
  -5   6   8    7905    1041
  -4   6   8   11093    1063
  -3   6   8   34516    2043
  -2   6   8    4700     718
  -1   6   8   30731    1747
   0   6   8  150391    6732
   1   6   8   36505    1994
   2   6   8   56987    2898
   3   6   8    3254     745
   4   6   8    4163     849
   5   6   8    4612    1002
   6   6   8   30205    2405
   7   6   8     635     641
   8   6   8   13662    1589
   9   6   8     268     318
  -9   7   8    4465     756
  -8   7   8   70928    4081
  -7   7   8     531     570
  -6   7   8     488     526
  -5   7   8    2109     876
  -4   7   8    7297     931
  -3   7   8   33448    2021
  -2   7   8   33744    1994
  -1   7   8    7735     827
   0   7   8  223176    9827
   1   7   8    9028     904
   2   7   8     668     537
   3   7   8   21813    1534
   4   7   8   32867    2136
   5   7   8   19392    1791
   6   7   8    8557    1282
   7   7   8    9148    1293
   8   7   8    9159    1331
   9   7   8     876     603
  -9   8   8     279     312
  -8   8   8    2460     904
  -7   8   8     641     624
  -6   8   8   16346    1578
  -5   8   8   11925    1391
  -4   8   8   25861    1852
  -3   8   8    4514     767
  -2   8   8   45664    2558
  -1   8   8   13026    1123
   0   8   8    1309     597
   1   8   8   21402    1501
   2   8   8  122371    5916
   3   8   8    2290     723
   4   8   8   15163    1446
   5   8   8     175     236
   6   8   8    7729    1331
   7   8   8    1490     838
   8   8   8    3709     866
   9   8   8     126     164
  -9   9   8     247     257
  -8   9   8   14007    1282
  -7   9   8    1435     783
  -6   9   8    6322    1243
  -5   9   8     685     668
  -4   9   8   65877    3873
  -3   9   8   12424    1194
  -2   9   8    8699     964
  -1   9   8   80690    4037
   0   9   8  187964    8962
   1   9   8   14549    1183
   2   9   8    1041     597
   3   9   8    8315    1046
   4   9   8     362     411
   5   9   8    1320     887
   6   9   8    1380     975
   7   9   8     416     471
   8   9   8     351     389
   9   9   8     121     159
  -9  10   8      66      93
  -8  10   8    2920     663
  -7  10   8     471     498
  -6  10   8     794     734
  -5  10   8   19967    1720
  -4  10   8    8436    1276
  -3  10   8   29920    2054
  -2  10   8  104491    5308
  -1  10   8   73914    3835
   0  10   8  139353    6650
   1  10   8   22224    1589
   2  10   8   19145    1534
   3  10   8    2996     997
   4  10   8    6245    1243
   5  10   8    1041     723
   6  10   8   29416    2104
   7  10   8     219     279
   8  10   8     493     411
   9  10   8    3424     723
  -8  11   8    3150     679
  -7  11   8     860     657
  -6  11   8     603     603
  -5  11   8    2169    1030
  -4  11   8  351753   19430
  -3  11   8    3155     970
  -2  11   8   17661    1512
  -1  11   8    9186    1041
   0  11   8    1063     652
   1  11   8    1446     707
   2  11   8  127696    6804
   3  11   8   14380    1528
   4  11   8    7390    1287
   5  11   8    4678    1123
   6  11   8     416     438
   7  11   8     203     257
   8  11   8    3511     668
  -8  12   8     389     367
  -7  12   8    1369     641
  -6  12   8    2717    1008
  -5  12   8   14593    1402
  -4  12   8   26639    2197
  -3  12   8   70802    4262
  -2  12   8  140996    7538
  -1  12   8   45012    2925
   0  12   8  116466    6278
   1  12   8   18137    1698
   2  12   8     619     614
   3  12   8   33859    2564
   4  12   8    3720    1085
   5  12   8   12188    1320
   6  12   8     285     345
   7  12   8     192     236
   8  12   8     800     520
  -8  13   8    5056     772
  -7  13   8    1112     581
  -6  13   8   39989    2624
  -5  13   8     422     471
  -4  13   8   25746    1923
  -3  13   8     959     712
  -2  13   8   33689    2443
  -1  13   8    1802    1079
   0  13   8   96324    5456
   1  13   8     981     800
   2  13   8  465283   26743
   3  13   8    1211     915
   4  13   8   72144    3900
   5  13   8     723     635
   6  13   8    1895     789
   7  13   8     186     230
  -7  14   8     274     301
  -6  14   8     290     329
  -5  14   8    3478     898
  -4  14   8    8233    1128
  -3  14   8    6919    1101
  -2  14   8     909     772
  -1  14   8    7773    1139
   0  14   8    2925    1030
   1  14   8    5341    1057
   2  14   8     997     833
   3  14   8   18411    1589
   4  14   8   15996    1457
   5  14   8     597     570
   6  14   8    1030     729
   7  14   8     131     164
  -7  15   8     175     219
  -6  15   8    5368     761
  -5  15   8     252     296
  -4  15   8     329     383
  -3  15   8    2618     849
  -2  15   8   82760    4360
  -1  15   8     279     340
   0  15   8   17946    1775
   1  15   8   27105    2016
   2  15   8   20235    1704
   3  15   8    3068     876
   4  15   8    2295     876
   5  15   8     674     520
   6  15   8    3539     718
  -6  16   8    7138     794
  -5  16   8    2377     553
  -4  16   8    2180     729
  -3  16   8    5774    1096
  -2  16   8   10107    1298
  -1  16   8   11526    1276
   0  16   8   11701    1276
   1  16   8   14538    1419
   2  16   8   54598    3259
   3  16   8    4629     942
   4  16   8    5155     800
   5  16   8     334     345
   6  16   8     394     367
  -5  17   8     635     394
  -4  17   8    5823     761
  -3  17   8     729     592
  -1  17   8    3144     811
   0  17   8    8918    1178
   1  17   8     247     301
   2  17   8   14418    1271
   3  17   8     805     646
   4  17   8     186     230
   5  17   8     477     405
  -4  18   8     351     301
  -3  18   8     882     509
  -2  18   8     192     236
  -1  18   8    8179     942
   0  18   8    6541     844
   1  18   8   11038    1096
   2  18   8     197     241
   3  18   8     723     553
   4  18   8      60      82
  -3  19   8     301     301
  -2  19   8    3095     575
  -1  19   8     334     334
   0  19   8     548     466
   1  19   8     203     236
   2  19   8    5675     685
   3  19   8     126     164
  -1  20   8    1830     685
   0  20   8    3561     668
   1  20   8     433     427
 -10   1   9    1485     592
  -8   1   9    1906     866
  -7   1   9     433     482
  -6   1   9   15628    1583
  -5   1   9     794     646
  -4   1   9  137813    6360
  -3   1   9    6239     745
  -2   1   9  193228    8272
  -1   1   9     268     268
   0   1   9  163499    7077
   1   1   9   52572    2503
   2   1   9   62695    2980
   3   1   9    2618     679
   4   1   9  126677    5949
   5   1   9    8354    1128
   6   1   9   40838    2777
   7   1   9     668     707
   8   1   9   17989    1693
   9   1   9     745     624
  10   1   9     296     318
 -10   2   9    2777     564
  -9   2   9    1161     668
  -8   2   9     433     488
  -7   2   9   16817    1550
  -6   2   9   22755    1852
  -5   2   9   50945    2892
  -4   2   9  181817    8414
  -3   2   9     329     334
  -2   2   9   34725    1841
  -1   2   9   14089     959
   0   2   9    8014     712
   1   2   9     356     340
   2   2   9  129854    5807
   3   2   9    1090     597
   4   2   9   68967    3544
   5   2   9    1632     844
   6   2   9  177961    9006
   7   2   9    8129    1304
   8   2   9     827     816
   9   2   9     285     345
  10   2   9    1331     581
 -10   3   9     641     488
  -9   3   9     334     378
  -8   3   9    1539     833
  -7   3   9     444     504
  -6   3   9   81528    4503
  -5   3   9     564     537
  -4   3   9     603     493
  -3   3   9   76203    3665
  -2   3   9  110402    5034
  -1   3   9  146184    6371
   0   3   9  111744    5034
   1   3   9   45078    2240
   2   3   9  518808   21484
   3   3   9   11471    1041
   4   3   9    3446     904
   5   3   9   17179    1517
   6   3   9   45773    3057
   7   3   9    5215    1369
   8   3   9   47154    2887
   9   3   9     531     488
  10   3   9      82     110
 -10   4   9    1172     575
  -9   4   9     312     356
  -8   4   9    2054     937
  -7   4   9    1002     860
  -6   4   9     329     383
  -5   4   9   12594    1194
  -4   4   9    1961     603
  -3   4   9   10655     981
  -2   4   9  567928   23681
  -1   4   9   32829    1780
   0   4   9 1389424   55185
   1   4   9    5034     657
   2   4   9   69087    3320
   3   4   9   10830    1030
   4   4   9   92325    4684
   5   4   9     323     372
   6   4   9   17053    1808
   7   4   9    1485    1013
   8   4   9   60087    3654
   9   4   9     121     164
  10   4   9    5609     827
 -10   5   9     170     208
  -9   5   9     405     422
  -8   5   9    1320     849
  -7   5   9    7236    1326
  -6   5   9  109356    5839
  -5   5   9   10381    1161
  -4   5   9  815470   43089
  -3   5   9     498     427
  -2   5   9  859994   37003
  -1   5   9  111974    5007
   0   5   9   62344    3013
   1   5   9   14829    1090
   2   5   9    6508     800
   3   5   9    6113     844
   4   5   9    5177     882
   5   5   9    1501     822
   6   5   9    2175    1134
   7   5   9    7423    1397
   8   5   9    8129    1348
  10   5   9    5281     745
 -10   6   9    6573     838
  -9   6   9     504     493
  -8   6   9   16220    1638
  -7   6   9   15157    1627
  -6   6   9    1632     959
  -5   6   9    8151    1090
  -4   6   9   19441    1468
  -3   6   9  112604    5314
  -2   6   9  180897    8146
  -1   6   9   54237    2733
   0   6   9  805199   34325
   1   6   9   18740    1287
   2   6   9    5544     816
   3   6   9   42366    2438
   4   6   9   73546    3928
   5   6   9    1939     926
   6   6   9   10923    1490
   7   6   9    3358    1090
   8   6   9    2684     975
   9   6   9     531     449
  -9   7   9    1512     597
  -8   7   9   22657    1983
  -7   7   9     488     488
  -6   7   9    1008     740
  -5   7   9    1709     794
  -4   7   9   33004    2125
  -3   7   9    6650     838
  -2   7   9  356453   15853
  -1   7   9     367     351
   0   7   9  176849    7970
   1   7   9     301     318
   2   7   9   11788    1085
   3   7   9    6754     855
   4   7   9    4963     904
   5   7   9    4716    1090
   6   7   9     641     668
   7   7   9     383     427
   8   7   9    4273    1008
   9   7   9     455     427
  -9   8   9     948     553
  -7   8   9    7828    1090
  -6   8   9   65198    3714
  -5   8   9   10983    1391
  -4   8   9   12216    1216
  -3   8   9   26201    1764
  -2   8   9   56302    3007
  -1   8   9  104420    4941
   0   8   9   21561    1512
   1   8   9   16784    1326
   2   8   9   24284    1643
   3   8   9   10014    1068
   4   8   9   33267    2240
   5   8   9     537     570
   6   8   9     257     323
   7   8   9     307     378
   8   8   9     745     570
   9   8   9     964     603
  -9   9   9     121     153
  -8   9   9    1945     767
  -7   9   9    2071     926
  -6   9   9    3128    1057
  -5   9   9    1013     756
  -4   9   9     542     542
  -3   9   9    1435     833
  -2   9   9   96455    4870
  -1   9   9   71383    3654
   0   9   9   25248    1660
   1   9   9    2936     641
   2   9   9   48540    2777
   3   9   9     268     323
   4   9   9    2087     959
   5   9   9    2953    1024
   6   9   9     444     509
   7   9   9     356     416
   8   9   9    2964     723
   9   9   9    1720     504
  -9  10   9     148     186
  -7  10   9     252     312
  -6  10   9    9444    1211
  -5  10   9    4832     981
  -4  10   9    2043     920
  -3  10   9     909     668
  -2  10   9  138087    6869
  -1  10   9    8211     964
   0  10   9   91530    4590
   1  10   9    9192    1030
   2  10   9  307097   15530
   3  10   9    5105     986
   4  10   9   11750    1479
   5  10   9     657     652
   6  10   9    4174    1008
   7  10   9     372     416
   8  10   9     372     389
  -8  11   9    1309     690
  -7  11   9     252     307
  -6  11   9    6464    1035
  -5  11   9    2739     986
  -4  11   9    3079    1041
  -3  11   9   12654    1463
  -2  11   9   87685    4897
  -1  11   9   65757    3594
   0  11   9   23993    1742
   1  11   9   25533    1824
   2  11   9  244808   12659
   3  11   9   50013    3259
   4  11   9     701     696
   5  11   9   20876    1917
   6  11   9    5779    1183
   7  11   9     416     427
   8  11   9    1101     564
  -8  12   9     416     383
  -7  12   9     142     186
  -6  12   9   19085    1682
  -5  12   9    6091    1068
  -4  12   9     192     252
  -3  12   9    5642    1134
  -2  12   9   33738    2481
  -1  12   9     498     504
   0  12   9   24985    2027
   1  12   9   12364    1397
   2  12   9    6820    1260
   3  12   9    1824     981
   4  12   9  240798   12906
   5  12   9    2640     898
   6  12   9    5911    1128
   7  12   9     460     449
   8  12   9     477     405
  -8  13   9    2027     772
  -7  13   9     225     263
  -6  13   9   41298    2618
  -5  13   9     690     652
  -4  13   9    3243     915
  -3  13   9    3035    1035
  -2  13   9     707     657
  -1  13   9    8661    1315
   0  13   9  181445    9690
   1  13   9    4048    1063
   2  13   9   22339    1917
   3  13   9    3226    1035
   4  13   9   14938    1479
   5  13   9    9910    1293
   6  13   9   32588    2164
   7  13   9     247     274
  -7  14   9     696     422
  -6  14   9    5637     789
  -5  14   9     455     477
  -4  14   9     712     641
  -3  14   9    5511     953
  -2  14   9   69153    4202
  -1  14   9    3254    1041
   0  14   9  258152   13974
   1  14   9    1627     931
   2  14   9   24935    2093
   3  14   9     767     707
   4  14   9    7560    1178
   5  14   9     257     307
   6  14   9   26393    1901
   7  14   9      99     131
  -7  15   9    1747     772
  -6  15   9   21057    1605
  -5  15   9    1402     833
  -4  15   9   26272    1994
  -3  15   9     515     537
  -2  15   9   32736    2224
  -1  15   9    7351    1090
   0  15   9  128961    6502
   1  15   9   38192    2471
   2  15   9    5155     997
   3  15   9    9203    1189
   4  15   9    2892     849
   5  15   9     427     400
   6  15   9    3232     652
  -6  16   9     329     312
  -5  16   9    1879     564
  -4  16   9   20641    1528
  -3  16   9   17705    1600
  -2  16   9    9586    1249
  -1  16   9   11186    1331
   0  16   9   16379    1474
   1  16   9    2481    1035
   2  16   9     488     466
   3  16   9     192     247
   4  16   9   21583    1605
   5  16   9     279     307
   6  16   9     126     159
  -5  17   9      77     104
  -4  17   9    3161     674
  -3  17   9     378     383
  -2  17   9     635     575
  -1  17   9    2082     789
   0  17   9     553     526
   1  17   9   13744    1391
   2  17   9   14862    1304
   3  17   9    3583     690
   4  17   9   13476    1123
   5  17   9     323     307
  -4  18   9    1873     515
  -3  18   9     307     323
  -2  18   9   30550    2027
  -1  18   9     663     548
   0  18   9    8288     942
   1  18   9     444     449
   2  18   9   13837    1161
   3  18   9     816     477
   4  18   9    2224     586
  -3  19   9     603     455
  -2  19   9     126     159
  -1  19   9     718     504
   0  19   9    3741     668
   1  19   9    1260     542
   2  19   9     186     214
   3  19   9    1145     624
  -1  20   9    3873     674
   0  20   9    9745     920
   1  20   9    4004     635
 -10   0  10    4207     641
  -9   0  10     734     614
  -8   0  10   22936    1841
  -7   0  10    4634     992
  -6   0  10   12446    1397
  -5   0  10    7132     931
  -4   0  10  818828   38170
  -3   0  10   61544    3062
  -2   0  10  139035    6146
  -1   0  10   83938    3780
   0   0  10  827691   31975
   1   0  10  114664    5111
   2   0  10  579487   23654
   3   0  10   16193    1211
   4   0  10   20465    1556
   5   0  10     767     624
   6   0  10  267185   13399
   7   0  10    1282    1063
   8   0  10    1605    1139
   9   0  10     438     477
  10   0  10     893     597
 -10   1  10     427     400
  -9   1  10     383     416
  -8   1  10    3068     893
  -7   1  10   13761    1413
  -6   1  10     488     509
  -5   1  10     641     559
  -4   1  10    3741     729
  -3   1  10    7099     783
  -2   1  10  244052   10348
  -1   1  10  481076   19211
   0   1  10  330406   13678
   1   1  10  103226    4662
   2   1  10   12232     970
   3   1  10    1172     597
   4   1  10  188347    8808
   5   1  10     329     400
   6   1  10    5116    1413
   7   1  10    2788    1107
   8   1  10   16834    1654
   9   1  10    1200     685
  10   1  10      66      93
 -10   2  10     909     570
  -9   2  10    2476     750
  -8   2  10     723     701
  -7   2  10    5642    1085
  -6   2  10    4640    1112
  -5   2  10   17748    1419
  -4   2  10  109383    5220
  -3   2  10   16565    1211
  -2   2  10   94543    4284
  -1   2  10   15283    1030
   0   2  10   72380    3358
   1   2  10    7653     734
   2   2  10    7773     789
   3   2  10   26409    1660
   4   2  10   13563    1183
   5   2  10   23013    1769
   6   2  10   71372    4180
   7   2  10    5374    1353
   8   2  10    4793    1183
   9   2  10     241     301
  10   2  10     214     257
 -10   3  10    3566     630
  -9   3  10     367     400
  -8   3  10    7976    1167
  -7   3  10     307     372
  -6   3  10     345     400
  -5   3  10    3659     789
  -4   3  10  147241    6880
  -3   3  10    2936     624
  -2   3  10   37398    2005
  -1   3  10   54264    2629
   0   3  10     723     444
   1   3  10   39600    2049
   2   3  10  125910    5735
   3   3  10    9608    1002
   4   3  10  167054    8179
   5   3  10     345     411
   6   3  10   18548    1857
   7   3  10    6272    1375
   8   3  10   26519    2197
   9   3  10    1452     844
  10   3  10      82     115
 -10   4  10     279     296
  -9   4  10     148     197
  -8   4  10    3840    1013
  -7   4  10     652     641
  -6   4  10     241     307
  -5   4  10     504     504
  -4   4  10   10781    1052
  -3   4  10    2131     646
  -2   4  10  179747    7937
  -1   4  10  107915    4826
   0   4  10  345886   14538
   1   4  10   18411    1227
   2   4  10   89498    4180
   3   4  10    1567     794
   4   4  10    1013     767
   5   4  10   13766    1380
   6   4  10   25302    2153
   7   4  10     898     783
   8   4  10    9082    1386
   9   4  10     778     592
  10   4  10    8655     904
 -10   5  10     411     416
  -9   5  10     734     592
  -8   5  10     323     389
  -7   5  10    5505    1150
  -6   5  10    4525    1161
  -5   5  10     296     345
  -4   5  10  167630    8288
  -3   5  10   16379    1271
  -2   5  10  551166   23741
  -1   5  10    6776     783
   0   5  10   52166    2635
   1   5  10    2597     586
   2   5  10  391052   16960
   3   5  10     866     646
   4   5  10   29466    1961
   5   5  10     504     477
   6   5  10   57984    3632
   7   5  10     225     296
   8   5  10    1348     909
   9   5  10     175     225
  -9   6  10     241     279
  -8   6  10    1988     926
  -7   6  10     405     460
  -6   6  10   15382    1616
  -5   6  10   11033    1309
  -4   6  10  211185   10676
  -3   6  10   13361    1123
  -2   6  10    6278     789
  -1   6  10  121993    5511
   0   6  10 1230488   55442
   1   6  10     208     247
   2   6  10  174658    7987
   3   6  10   15968    1293
   4   6  10    1107     789
   5   6  10    1802    1090
   6   6  10   10123    1369
   7   6  10     729     712
   8   6  10    2881     992
   9   6  10     312     351
  -9   7  10     296     329
  -8   7  10   40745    2657
  -7   7  10    7067    1107
  -6   7  10   29203    2136
  -5   7  10   32955    2410
  -4   7  10  101363    5253
  -3   7  10   84579    4322
  -2   7  10  154357    7050
  -1   7  10   58186    2996
   0   7  10   17699    1320
   1   7  10   66447    3336
   2   7  10    2876     729
   3   7  10   47877    2717
   4   7  10    6398    1019
   5   7  10    2454    1052
   6   7  10    3867    1096
   7   7  10    1287     964
   8   7  10     449     488
   9   7  10     290     312
  -9   8  10     301     318
  -8   8  10    6070     964
  -7   8  10   11054    1265
  -6   8  10   21977    2005
  -5   8  10    1008     729
  -4   8  10   74932    4108
  -3   8  10    4076     729
  -2   8  10   16242    1254
  -1   8  10   41523    2334
   0   8  10  301214   13552
   1   8  10    7877     893
   2   8  10   52029    2881
   3   8  10    4788     838
   4   8  10   36598    2536
   5   8  10     608     619
   6   8  10    5812    1227
   7   8  10     318     383
   8   8  10     351     389
   9   8  10     203     236
  -9   9  10     422     372
  -8   9  10   25324    1797
  -7   9  10    2717     931
  -6   9  10    7538    1260
  -5   9  10    9860    1348
  -4   9  10   20438    1819
  -3   9  10    4163     833
  -2   9  10   20066    1517
  -1   9  10   10934    1041
   0   9  10   20120    1446
   1   9  10    2898     723
   2   9  10   68041    3659
   3   9  10     564     559
   4   9  10  209864   10972
   5   9  10     581     608
   6   9  10   49553    2969
   7   9  10     340     400
   8   9  10     427     444
   9   9  10     274     307
  -9  10  10    1369     674
  -8  10  10     542     477
  -7  10  10     838     690
  -6  10  10    1709     992
  -5  10  10    1567     953
  -4  10  10   20630    1852
  -3  10  10     646     614
  -2  10  10  100268    5171
  -1  10  10     394     383
   0  10  10   80317    4136
   1  10  10     811     657
   2  10  10   15393    1391
   3  10  10    1096     833
   4  10  10    3183    1276
   5  10  10    6913    1265
   6  10  10   13437    1413
   7  10  10     548     564
   8  10  10     887     597
  -8  11  10    6749     844
  -7  11  10     520     515
  -6  11  10   13782    1441
  -5  11  10    3588    1024
  -4  11  10   26480    2016
  -3  11  10   10852    1380
  -2  11  10  170922    8924
  -1  11  10    6119     964
   0  11  10    2964     778
   1  11  10   15393    1517
   2  11  10  123697    6650
   3  11  10   10118    1359
   4  11  10   22585    1901
   5  11  10     236     301
   6  11  10     422     466
   7  11  10     641     575
   8  11  10    1227     520
  -8  12  10    1797     515
  -7  12  10     279     312
  -6  12  10    2224     844
  -5  12  10     531     515
  -4  12  10  169147    9071
  -3  12  10     477     509
  -2  12  10    7477    1216
  -1  12  10     515     531
   0  12  10    6946    1128
   1  12  10   25856    2076
   2  12  10     789     723
   3  12  10   22317    1852
   4  12  10    3194    1238
   5  12  10    1096     767
   6  12  10    2153     866
   7  12  10     652     537
   8  12  10     449     438
  -7  13  10     241     263
  -6  13  10   45160    2772
  -5  13  10    1534     882
  -4  13  10    8447    1139
  -3  13  10     422     471
  -2  13  10    1145     876
  -1  13  10     866     674
   0  13  10    4141    1068
   1  13  10     849     750
   2  13  10  442588   25341
   3  13  10    1386     887
   4  13  10   14632    1430
   5  13  10     323     378
   6  13  10    4229     778
   7  13  10     230     257
  -7  14  10     225     257
  -6  14  10     767     614
  -5  14  10    1643     816
  -4  14  10    1337     822
  -3  14  10     756     614
  -2  14  10   18866    1846
  -1  14  10     186     241
   0  14  10    9252    1348
   1  14  10    5976    1189
   2  14  10  130188    7209
   3  14  10    9236    1227
   4  14  10    7691    1200
   5  14  10    2158     745
   6  14  10   10446    1041
   7  14  10     159     192
  -6  15  10    5445     789
  -5  15  10     137     181
  -4  15  10   10978    1243
  -3  15  10    7297    1156
  -2  15  10   20646    1676
  -1  15  10    2334     855
   0  15  10   72626    3966
   1  15  10     252     318
   2  15  10    2350     871
   3  15  10    5253    1046
   4  15  10     690     570
   5  15  10     942     542
   6  15  10    1320     520
  -6  16  10     466     405
  -5  16  10     652     444
  -4  16  10    1572     679
  -3  16  10     926     707
  -2  16  10    1506     926
  -1  16  10    2909     931
   0  16  10     542     542
   1  16  10    2723     953
   2  16  10     811     707
   4  16  10   26195    1758
   5  16  10     137     175
   6  16  10    4492     740
  -5  17  10     898     509
  -4  17  10     230     268
  -3  17  10    7291     871
  -2  17  10   10863    1085
  -1  17  10    4815     822
   0  17  10   14429    1413
   1  17  10    1364     701
   2  17  10    5713     855
   3  17  10    1112     630
   4  17  10     372     367
   5  17  10     192     225
  -4  18  10    5407     685
  -3  18  10     323     329
  -2  18  10    5911     783
   0  18  10    4771     822
   1  18  10     477     444
   2  18  10    3374     630
   3  18  10     855     564
   4  18  10      71      93
  -3  19  10    3517     712
  -2  19  10     838     482
  -1  19  10    6535     734
   0  19  10    9170     887
   1  19  10    3687     608
   2  19  10    3418     619
   3  19  10    3544     657
 -10   1  11    2723     592
  -9   1  11     405     438
  -8   1  11    6371    1112
  -7   1  11    3478     920
  -6   1  11    7981    1183
  -5   1  11    1243     805
  -4   1  11  128769    6064
  -3   1  11   16122    1183
  -2   1  11  537652   22273
  -1   1  11   34976    1846
   0   1  11 1277581   50293
   1   1  11    1501     498
   2   1  11     548     455
   3   1  11    8929     942
   4   1  11   69345    3632
   5   1  11    2169     866
   6   1  11   39644    2849
   7   1  11    4799    1342
   8   1  11   23725    2032
   9   1  11     964     734
  10   1  11      77     104
 -10   2  11     290     307
  -9   2  11     362     405
  -8   2  11    1320     959
  -7   2  11    4958    1030
  -6   2  11   18948    1704
  -5   2  11   16768    1397
  -4   2  11   87855    4426
  -3   2  11   17370    1260
  -2   2  11  313654   13284
  -1   2  11   37715    1967
   0   2  11  358497   14977
   1   2  11   66097    3122
   2   2  11    3139     624
   3   2  11   44541    2438
   4   2  11   10802    1079
   5   2  11     312     378
   6   2  11   44021    2969
   7   2  11     312     394
   8   2  11    6174    1304
   9   2  11     274     329
  10   2  11    2520     740
 -10   3  11     148     181
  -9   3  11    1495     679
  -8   3  11    3369     964
  -7   3  11   11487    1457
  -6   3  11     614     608
  -5   3  11   25949    1830
  -4   3  11  443114   21802
  -3   3  11  137353    6250
  -2   3  11   38745    2076
  -1   3  11    9822     855
   0   3  11  592628   24448
   1   3  11   11608     937
   2   3  11  355829   15207
   3   3  11    2706     718
   4   3  11  118975    5900
   5   3  11     257     323
   6   3  11    1928    1090
   7   3  11    1512    1161
   8   3  11   30052    2262
   9   3  11     153     203
  10   3  11    1413     712
 -10   4  11    6070     783
  -9   4  11     285     329
  -8   4  11   24388    2043
  -7   4  11   10337    1369
  -6   4  11  132335    6941
  -5   4  11    5116     948
  -4   4  11  524598   26404
  -3   4  11   17820    1326
  -2   4  11 1154038   51399
  -1   4  11    1222     531
   0   4  11   16625    1156
   1   4  11     455     411
   2   4  11  300086   13048
   3   4  11   12731    1156
   4   4  11   39846    2410
   5   4  11     362     427
   6   4  11   22531    2027
   7   4  11    5188    1233
   8   4  11     241     307
   9   4  11     219     274
 -10   5  11    7171     833
  -9   5  11      93     126
  -8   5  11    1200     876
  -7   5  11    2733    1052
  -6   5  11  285361   14610
  -5   5  11     471     466
  -4   5  11  227284   11383
  -3   5  11    2416     696
  -2   5  11     225     252
  -1   5  11   67811    3287
   0   5  11  475691   20296
   1   5  11   15404    1161
   2   5  11  499328   21934
   3   5  11   17803    1348
   4   5  11   10194    1107
   5   5  11    4125    1008
   6   5  11    5604    1205
   7   5  11     603     635
   8   5  11   12654    1402
   9   5  11     290     329
  -9   6  11     394     411
  -8   6  11   63418    3720
  -7   6  11    1008     833
  -6   6  11    5226    1035
  -5   6  11    1578     860
  -4   6  11   11416    1161
  -3   6  11    8973     915
  -2   6  11    2460     624
  -1   6  11   47767    2536
   0   6  11  119391    5467
   1   6  11    4629     723
   2   6  11    6064     898
   3   6  11     444     449
   4   6  11    2449     761
   5   6  11   14916    1600
   6   6  11   79879    4377
   7   6  11     986     756
   8   6  11     104     148
   9   6  11     225     263
  -9   7  11     405     378
  -8   7  11    1523     981
  -7   7  11     553     520
  -6   7  11     268     334
  -5   7  11     663     630
  -4   7  11   75540    4097
  -3   7  11   18214    1391
  -2   7  11   17151    1298
  -1   7  11  107668    5056
   0   7  11    8436     942
   1   7  11   15875    1282
   2   7  11  171733    8266
   3   7  11    7335     942
   4   7  11     444     482
   5   7  11    4032    1123
   6   7  11   39052    2766
   7   7  11    1402    1041
   8   7  11     203     241
   9   7  11     110     142
  -9   8  11     372     362
  -8   8  11     581     553
  -7   8  11    2799     849
  -6   8  11   33941    2492
  -5   8  11   20175    1830
  -4   8  11   16653    1616
  -3   8  11   54691    3090
  -2   8  11   30709    1945
  -1   8  11     356     351
   0   8  11   12128    1068
   1   8  11    5916     794
   2   8  11     405     427
   3   8  11   64607    3561
   4   8  11    8617    1309
   5   8  11    5839    1200
   6   8  11    2273    1101
   7   8  11     915     712
   8   8  11     274     329
   9   8  11     274     290
  -9   9  11     131     164
  -8   9  11    1895     690
  -7   9  11     323     372
  -6   9  11    1189     887
  -5   9  11    1139     838
  -4   9  11    4569    1019
  -3   9  11    4886     876
  -2   9  11   12276    1167
  -1   9  11    1726     646
   0   9  11   77660    3950
   1   9  11     866     564
   2   9  11  159221    7822
   3   9  11     312     367
   4   9  11   21545    1972
   5   9  11     471     537
   6   9  11     148     203
   7   9  11     323     383
   8   9  11    1243     592
   9   9  11    2027     723
  -8  10  11    1945     624
  -7  10  11     307     351
  -6  10  11   39222    2492
  -5  10  11   11000    1424
  -4  10  11    1183     866
  -3  10  11    6787    1123
  -2  10  11   18450    1528
  -1  10  11    1687     712
   0  10  11   29044    1945
   1  10  11     624     531
   2  10  11    1441     942
   3  10  11     822     707
   4  10  11   47450    3210
   5  10  11     153     208
   6  10  11     186     241
   7  10  11     405     427
   8  10  11     318     345
  -8  11  11     394     372
  -7  11  11     509     493
  -6  11  11    1008     778
  -5  11  11   11810    1282
  -4  11  11    7225    1128
  -3  11  11   20964    1879
  -2  11  11   57020    3522
  -1  11  11    8255    1194
   0  11  11    8398    1183
   1  11  11     279     334
   2  11  11   40701    2783
   3  11  11    4163    1117
   4  11  11    1474     970
   5  11  11     531     515
   6  11  11    5127    1079
   7  11  11     115     153
   8  11  11    3183     592
  -8  12  11    1638     570
  -6  12  11    2925     855
  -5  12  11     471     460
  -4  12  11  172280    9318
  -3  12  11     679     646
  -2  12  11  101763    5719
  -1  12  11    1578     937
   0  12  11   11159    1375
   1  12  11   13109    1501
   2  12  11  104256    5878
   3  12  11     931     816
   4  12  11  228018   12265
   5  12  11     635     624
   6  12  11    1463     816
   7  12  11     619     509
   8  12  11    3150     745
  -7  13  11    1780     624
  -6  13  11   13700    1238
  -5  13  11    4185     981
  -4  13  11    1857     838
  -3  13  11     537     564
  -2  13  11   47428    2996
  -1  13  11     635     614
   0  13  11  100202    5505
   1  13  11     526     553
   2  13  11    8770    1337
   3  13  11   22607    2010
   4  13  11     701     663
   5  13  11    1446     898
   6  13  11    3320     761
   7  13  11     121     153
  -7  14  11      77     104
  -6  14  11   19282    1506
  -4  14  11    3292     931
  -3  14  11    1419     756
  -2  14  11  178963    8682
  -1  14  11    1309     767
   0  14  11    5303    1156
   1  14  11    3802    1035
   2  14  11   34708    2339
   3  14  11     531     537
   4  14  11   28918    2186
   5  14  11     778     635
   6  14  11    4996     750
   7  14  11    1736     685
  -6  15  11     422     345
  -5  15  11    1972     696
  -4  15  11   33706    2240
  -3  15  11    1243     811
  -2  15  11    3714     887
  -1  15  11    2859     887
   0  15  11   21791    1775
   1  15  11   11443    1287
   2  15  11    7549    1046
   3  15  11     345     389
   4  15  11   13448    1276
   5  15  11     570     504
   6  15  11     181     219
  -6  16  11     263     307
  -5  16  11    1709     564
  -4  16  11   13963    1205
  -3  16  11     849     690
  -2  16  11   11575    1304
  -1  16  11    6908    1079
   0  16  11   78137    4267
   1  16  11    5045     975
   2  16  11   10901    1293
   3  16  11    2131     707
   4  16  11     646     553
   5  16  11     301     318
  -5  17  11    2569     570
  -4  17  11     800     537
  -3  17  11     531     460
  -2  17  11     783     603
  -1  17  11     329     367
   0  17  11    4722     811
   1  17  11     164     214
   2  17  11    5429     833
   3  17  11     646     531
   4  17  11    8009     898
   5  17  11    3013     663
  -4  18  11     920     553
  -3  18  11    2350     531
  -2  18  11      99     131
  -1  18  11    9860     997
   0  18  11     614     482
   1  18  11    6146     805
   2  18  11     137     175
   3  18  11     433     400
   4  18  11    1430     690
  -3  19  11    4415     641
  -2  19  11     570     438
  -1  19  11     192     219
   0  19  11    5834     690
   1  19  11     318     318
   2  19  11    3194     581
 -10   0  12    1474     570
  -9   0  12    1128     696
  -8   0  12    3177     942
  -7   0  12   23172    2032
  -6   0  12   50304    3155
  -5   0  12   63379    3511
  -4   0  12  177501    8776
  -3   0  12   50786    2679
  -2   0  12  171453    7565
  -1   0  12  585951   23911
   0   0  12   88994    4097
   1   0  12   37425    1983
   2   0  12    1139     542
   3   0  12   89126    4295
   4   0  12    8168     975
   5   0  12   13514    1326
   6   0  12   33536    2558
   7   0  12   11087    1561
   8   0  12     893     849
   9   0  12    1753     778
  10   0  12    5423     783
 -10   1  12     318     329
  -9   1  12     542     537
  -8   1  12   15902    1495
  -7   1  12   12917    1539
  -6   1  12    2197     992
  -5   1  12   26847    1879
  -4   1  12    3303     674
  -3   1  12    1161     564
  -2   1  12 2005623   94242
  -1   1  12  109931    4897
   0   1  12  553856   22952
   1   1  12    6557     718
   2   1  12   21117    1369
   3   1  12    3604     767
   4   1  12    9214    1019
   5   1  12     121     170
   6   1  12    4886    1298
   7   1  12     531     592
   8   1  12   32358    2514
   9   1  12     444     460
  10   1  12    5609     789
 -10   2  12    1873     603
  -9   2  12     192     241
  -8   2  12    6908    1090
  -7   2  12    2306     981
  -6   2  12    1216     893
  -5   2  12     356     394
  -4   2  12   28003    1808
  -3   2  12    1200     581
  -2   2  12  712447   30200
  -1   2  12   34412    1868
   0   2  12  535932   22323
   1   2  12   14341    1052
   2   2  12  256602   11142
   3   2  12    1211     657
   4   2  12     635     575
   5   2  12    1786     871
   6   2  12    3489    1254
   7   2  12     997     898
   8   2  12    6694    1331
 -10   3  12      66      88
  -9   3  12     241     285
  -8   3  12     482     509
  -7   3  12     367     433
  -6   3  12   26792    2131
  -5   3  12    4968     860
  -4   3  12   41205    2421
  -3   3  12   23298    1545
  -2   3  12  205257    9044
  -1   3  12  246019   10550
   0   3  12  235266   10222
   1   3  12   89657    4136
   2   3  12   50830    2646
   3   3  12   19019    1419
   4   3  12    2684     811
   5   3  12    3955     997
   6   3  12   10468    1512
   7   3  12    1485    1008
   8   3  12     657     668
   9   3  12     931     575
 -10   4  12    1589     679
  -9   4  12      93     126
  -8   4  12     225     290
  -7   4  12     882     778
  -6   4  12    2892    1024
  -5   4  12   10512    1172
  -4   4  12  154110    7691
  -3   4  12   30523    1895
  -2   4  12  310390   13530
  -1   4  12   30682    1769
   0   4  12  500183   21287
   1   4  12     761     520
   2   4  12  119994    5505
   3   4  12    3347     750
   4   4  12  114697    5801
   5   4  12    1265     855
   6   4  12     964     860
   7   4  12     871     794
   8   4  12   14128    1523
   9   4  12     274     323
  -9   5  12     471     471
  -8   5  12     268     334
  -7   5  12     515     548
  -6   5  12  114105    6163
  -5   5  12     668     624
  -4   5  12  329184   16609
  -3   5  12    5582     783
  -2   5  12  172445    7872
  -1   5  12   78553    3769
   0   5  12  383109   16609
   1   5  12    1945     624
   2   5  12  587380   26349
   3   5  12    7899     915
   4   5  12   18526    1506
   5   5  12    2208     970
   6   5  12    7609    1200
   7   5  12     433     504
   8   5  12     433     477
   9   5  12    1161     603
  -9   6  12     208     252
  -8   6  12   11701    1293
  -7   6  12     548     526
  -6   6  12   34533    2361
  -5   6  12    8880    1243
  -4   6  12  123176    6256
  -3   6  12     882     526
  -2   6  12    4996     794
  -1   6  12   10331    1008
   0   6  12  330576   14593
   1   6  12   11986    1085
   2   6  12  102108    4996
   3   6  12   27570    1835
   4   6  12    1419     761
   5   6  12    6070    1254
   6   6  12   19803    1917
   7   6  12     646     635
   8   6  12    7883    1035
   9   6  12     153     192
  -9   7  12     356     356
  -8   7  12   22224    1731
  -7   7  12    3807     986
  -6   7  12   88857    4963
  -5   7  12   13673    1572
  -4   7  12   26360    1884
  -3   7  12    3057     723
  -2   7  12   11706    1068
  -1   7  12    2334     663
   0   7  12  133431    6174
   1   7  12   10134     964
   2   7  12  352635   17124
   3   7  12    4021     849
   4   7  12     646     586
   5   7  12   17239    1824
   6   7  12    1298     981
   7   7  12     652     641
   8   7  12    3358     800
   9   7  12     553     449
  -9   8  12     104     137
  -8   8  12   11756    1139
  -7   8  12     685     592
  -6   8  12   49953    3232
  -5   8  12    8387    1265
  -4   8  12    2865     871
  -3   8  12     871     614
  -2   8  12  215326   10682
  -1   8  12    2903     663
   0   8  12   33092    2005
   1   8  12    1068     581
   2   8  12   73333    3873
   3   8  12     564     564
   4   8  12    6393    1172
   5   8  12     855     761
   6   8  12    9400    1337
   7   8  12     252     312
   8   8  12    1085     696
   9   8  12      71      99
  -9   9  12      77     104
  -8   9  12   12046    1265
  -7   9  12     679     619
  -6   9  12   10041    1222
  -5   9  12   27023    2016
  -4   9  12     630     575
  -3   9  12   24837    1961
  -2   9  12   23741    1726
  -1   9  12    1041     597
   0   9  12    5582     860
   1   9  12   27285    1841
   2   9  12    3610     871
   3   9  12   25023    1999
   4   9  12   55387    3561
   5   9  12    3331    1172
   6   9  12   24930    1950
   7   9  12     559     520
   8   9  12    2575     635
  -8  10  12     542     416
  -6  10  12   23369    1786
  -5  10  12     542     564
  -4  10  12   33919    2520
  -3  10  12   20192    1802
  -2  10  12   73667    4245
  -1  10  12    6513     937
   0  10  12    2586     723
   1  10  12    1178     816
   2  10  12  187613    9745
   3  10  12     581     570
   4  10  12   76757    4355
   5  10  12     296     362
   6  10  12   23599    1945
   7  10  12     219     274
   8  10  12     296     318
  -8  11  12    4108     624
  -7  11  12     411     422
  -6  11  12     285     334
  -5  11  12    1079     679
  -4  11  12  165915    8858
  -3  11  12    1457     887
  -2  11  12   16253    1627
  -1  11  12    4618     970
   0  11  12   11690    1342
   1  11  12    2323     876
   2  11  12    2295     953
   3  11  12     362     422
   4  11  12   39145    2799
   5  11  12    1150     794
   6  11  12    5100    1112
   7  11  12     241     290
   8  11  12    4727     712
  -8  12  12      71      99
  -7  12  12    2230     581
  -6  12  12     192     241
  -5  12  12    8496    1057
  -4  12  12   77754    4601
  -3  12  12   70736    4081
  -2  12  12     493     520
  -1  12  12   36258    2580
   0  12  12   19868    1813
   1  12  12    8085    1216
   2  12  12    2673     876
   3  12  12    2657     981
   4  12  12   32846    2279
   5  12  12     230     290
   6  12  12     975     794
   7  12  12     219     252
  -7  13  12     778     542
  -6  13  12     498     438
  -5  13  12     520     515
  -4  13  12   27800    2016
  -3  13  12     822     712
  -2  13  12     635     586
  -1  13  12    2569     948
   0  13  12  230155   12336
   1  13  12   11104    1309
   2  13  12   53903    3478
   3  13  12    1884     822
   4  13  12    1167     893
   5  13  12     142     186
   6  13  12    8255     937
   7  13  12     400     340
  -7  14  12    1545     548
  -6  14  12     230     268
  -5  14  12    2931     772
  -4  14  12   22235    1830
  -3  14  12    9526    1172
  -2  14  12   26721    1939
  -1  14  12    5401    1150
   0  14  12    1715     970
   1  14  12     263     323
   2  14  12   63385    3533
   3  14  12     564     520
   4  14  12   11427    1369
   5  14  12     515     498
   6  14  12    9641    1041
   7  14  12    3594     635
  -6  15  12     257     274
  -4  15  12     509     493
  -3  15  12     581     575
  -2  15  12    3133     959
  -1  15  12     279     334
   0  15  12   29515    2109
   1  15  12     630     614
   2  15  12   13728    1441
   3  15  12    2323     920
   4  15  12    5073     827
   5  15  12    1117     553
   6  15  12    1293     559
  -6  16  12    7379     822
  -5  16  12    2509     619
  -4  16  12    5116     811
  -3  16  12     389     411
  -2  16  12     603     564
  -1  16  12     427     455
   0  16  12   11586    1309
   1  16  12    2788     822
   2  16  12   10748    1249
   3  16  12     646     493
   4  16  12    4289     707
   5  16  12     159     192
  -5  17  12    1600     663
  -4  17  12     340     340
  -3  17  12     356     367
  -2  17  12   11893    1123
  -1  17  12    1600     915
   0  17  12    1457     729
   1  17  12    9351    1024
   2  17  12    2931     701
   3  17  12    3424     635
   4  17  12     153     186
  -4  18  12    1736     663
  -3  18  12     400     367
  -2  18  12     323     329
  -1  18  12    1775     570
   0  18  12   10660    1024
   1  18  12    1890     575
   2  18  12     378     372
   3  18  12     175     208
  -2  19  12      77     104
  -1  19  12    3374     575
   0  19  12    2301     542
   1  19  12    7976     805
   2  19  12    1364     614
 -10   1  13    2531     641
  -9   1  13    1002     630
  -8   1  13    3780    1178
  -7   1  13    6196    1189
  -6   1  13    2388    1002
  -5   1  13   33262    2202
  -4   1  13    8332     904
  -3   1  13   79967    3922
  -2   1  13    3999     729
  -1   1  13    1222     548
   0   1  13   47439    2438
   1   1  13    6941     761
   2   1  13     296     312
   3   1  13   44941    2509
   4   1  13  149936    7357
   5   1  13     460     504
   6   1  13   21139    1928
   7   1  13     362     444
   8   1  13    2005    1046
   9   1  13     301     345
 -10   2  13   10507    1030
  -9   2  13     170     219
  -8   2  13   28836    2251
  -7   2  13     920     772
  -6   2  13  153782    7965
  -5   2  13     509     509
  -4   2  13  405705   20137
  -3   2  13    6738     838
  -2   2  13 1064211   47450
  -1   2  13    9389     876
   0   2  13 1041916   44705
   1   2  13    1413     515
   2   2  13   25100    1583
   3   2  13   15656    1282
   4   2  13    5472     893
   5   2  13     570     559
   6   2  13   50643    3314
   7   2  13     898     816
   8   2  13    6650    1222
   9   2  13     164     208
 -10   3  13      82     115
  -9   3  13     323     356
  -8   3  13     866     729
  -7   3  13    3720    1074
  -6   3  13     564     581
  -5   3  13    5390     915
  -4   3  13  122393    6091
  -3   3  13     931     614
  -2   3  13   77556    3741
  -1   3  13     685     498
   0   3  13 1247568   55267
   1   3  13     882     559
   2   3  13   48392    2575
   3   3  13    2772     674
   4   3  13     855     707
   5   3  13    3539    1057
   6   3  13    3352    1189
   7   3  13     663     674
   8   3  13    4426    1068
   9   3  13    1233     707
  -9   4  13    4475     740
  -8   4  13     537     564
  -7   4  13    4996    1189
  -6   4  13   17179    1687
  -5   4  13   42295    2733
  -4   4  13  349272   17595
  -3   4  13     383     400
  -2   4  13   10227     981
  -1   4  13  280546   12188
   0   4  13  259505   11394
   1   4  13   72927    3544
   2   4  13    3500     718
   3   4  13    4147     729
   4   4  13    4262     866
   5   4  13   16850    1660
   6   4  13    3939    1024
   7   4  13    6026    1123
   8   4  13     652     646
   9   4  13    1112     603
  -9   5  13     750     493
  -8   5  13    2454     838
  -7   5  13   10463    1271
  -6   5  13  172806    8628
  -5   5  13   51810    3265
  -4   5  13   81785    4339
  -3   5  13   38061    2246
  -2   5  13   81232    3982
  -1   5  13   73037    3583
   0   5  13    2114     635
   1   5  13    4043     718
   2   5  13  120607    5653
   3   5  13     323     362
   4   5  13   28808    1983
   5   5  13     778     679
   6   5  13    2251     981
   7   5  13     948     827
   8   5  13    1380     761
   9   5  13     126     164
  -9   6  13     953     575
  -8   6  13   56680    3385
  -7   6  13    1616     893
  -6   6  13   20597    1786
  -5   6  13     466     498
  -4   6  13    1999     833
  -3   6  13     816     542
  -2   6  13  191031    9291
  -1   6  13     236     268
   0   6  13   91065    4388
   1   6  13    1967     630
   2   6  13  575384   28408
   3   6  13   10211    1063
   4   6  13    6464    1063
   5   6  13     383     444
   6   6  13    1408     937
   7   6  13     614     624
   8   6  13     257     312
   9   6  13      77     104
  -9   7  13     192     236
  -8   7  13     871     707
  -7   7  13    3648     898
  -6   7  13  108660    5878
  -5   7  13    2531     975
  -4   7  13   38882    2624
  -3   7  13     362     394
  -2   7  13   26458    1747
  -1   7  13   21950    1506
   0   7  13  107992    5160
   1   7  13   19616    1408
   2   7  13    2317     750
   3   7  13   17097    1435
   4   7  13    5692    1128
   5   7  13    1096     866
   6   7  13     219     285
   7   7  13     646     619
   8   7  13    6809     937
   9   7  13     115     153
  -9   8  13     526     427
  -8   8  13    1747     701
  -7   8  13     652     614
  -6   8  13    2394     920
  -5   8  13   13103    1386
  -4   8  13  207104   10802
  -3   8  13    6486     942
  -2   8  13     247     296
  -1   8  13     570     504
   0   8  13   70495    3637
   1   8  13    7088     882
   2   8  13    4443     904
   3   8  13     597     570
   4   8  13    9110    1293
   5   8  13    4738    1046
   6   8  13    6272    1112
   7   8  13    1024     745
   8   8  13     455     400
   9   8  13     263     312
  -9   9  13    1254     685
  -8   9  13     203     247
  -7   9  13    1200     772
  -6   9  13    2350     893
  -5   9  13    9504    1298
  -4   9  13   99013    5566
  -3   9  13   41446    2755
  -2   9  13   40915    2520
  -1   9  13   14325    1276
   0   9  13  209251   10085
   1   9  13    7707     975
   2   9  13   13635    1309
   3   9  13    1517     849
   4   9  13    1359     942
   5   9  13    1999     981
   6   9  13     592     592
   7   9  13    1194     696
   8   9  13     307     329
  -8  10  13   14243    1243
  -7  10  13    2443     696
  -6  10  13   56916    3210
  -5  10  13    1276     811
  -4  10  13   21873    1797
  -3  10  13   13667    1495
  -2  10  13    1194     855
  -1  10  13    1304     816
   0  10  13   64376    3533
   1  10  13   12561    1353
   2  10  13   23478    1950
   3  10  13   27214    2224
   4  10  13   61495    3643
   5  10  13    2388     887
   6  10  13    5297    1293
   7  10  13     827     663
   8  10  13     219     236
  -8  11  13     208     241
  -7  11  13     236     279
  -6  11  13   10057    1227
  -5  11  13    1884     827
  -4  11  13    2460    1063
  -3  11  13   10479    1293
  -2  11  13   34292    2514
  -1  11  13    7039    1123
   0  11  13     531     526
   1  11  13    4180    1013
   2  11  13   16373    1676
   3  11  13   22049    1830
   4  11  13   12073    1539
   5  11  13    2476     915
   6  11  13   45308    2849
   7  11  13     422     389
   8  11  13    2602     668
  -8  12  13    2394     663
  -7  12  13    2262     570
  -6  12  13    1096     646
  -5  12  13     225     285
  -4  12  13   30704    2136
  -3  12  13     592     592
  -2  12  13   97019    5319
  -1  12  13    4930    1057
   0  12  13   13722    1545
   1  12  13     455     488
   2  12  13   12205    1348
   3  12  13     290     356
   4  12  13    3380     931
   5  12  13     362     416
   6  12  13   16237    1359
   7  12  13     203     236
  -7  13  13    1150     488
  -6  13  13    1873     570
  -5  13  13    4782     997
  -4  13  13   17935    1567
  -3  13  13   13908    1364
  -2  13  13   30468    2372
  -1  13  13   51109    3342
   0  13  13   23358    2049
   1  13  13   21868    1950
   2  13  13   43319    2985
   3  13  13    1528     772
   4  13  13    7275    1216
   5  13  13     696     635
   6  13  13     307     340
   7  13  13     252     274
  -7  14  13     679     526
  -6  14  13     466     433
  -5  14  13    1200     619
  -4  14  13   11274    1304
  -3  14  13     334     383
  -2  14  13   29548    2054
  -1  14  13     548     559
   0  14  13   48304    2925
   1  14  13     712     674
   2  14  13   30895    2125
   3  14  13     285     340
   4  14  13   33404    2279
   5  14  13     164     208
   6  14  13    1359     586
  -6  15  13   16653    1293
  -5  15  13    3615     674
  -4  15  13    2093     657
  -3  15  13    5889    1046
  -2  15  13   57617    3374
  -1  15  13   16335    1463
   0  15  13   28167    2021
   1  15  13     411     405
   2  15  13   25894    2027
   3  15  13     422     416
   4  15  13   15437    1342
   5  15  13     126     164
   6  15  13      82     110
  -5  16  13     137     170
  -4  16  13    1611     592
  -3  16  13     263     312
  -2  16  13    3106     833
  -1  16  13    4985     931
   0  16  13   17984    1594
   1  16  13     279     329
   2  16  13    1824     674
   3  16  13     263     307
   4  16  13    2032     581
   5  16  13     482     405
  -4  17  13    1758     438
  -3  17  13     707     520
  -2  17  13    4525     778
  -1  17  13     745     520
   0  17  13    6776     866
   1  17  13    5012     772
   3  17  13     383     383
   4  17  13     641     493
  -3  18  13     460     394
  -2  18  13    2531     635
  -1  18  13     964     603
   0  18  13    2394     570
   1  18  13    1621     586
   2  18  13     778     455
   3  18  13    3248     564
  -2  19  13    7127     838
  -1  19  13     581     449
   0  19  13     778     493
   1  19  13     219     257
 -10   0  14   19425    1430
  -9   0  14     405     427
  -8   0  14    4026    1090
  -7   0  14     707     701
  -6   0  14    9751    1342
  -5   0  14    3725     827
  -4   0  14   43336    2514
  -3   0  14  112670    5341
  -2   0  14  639070   27779
  -1   0  14  443645   18811
   0   0  14  529490   22717
   1   0  14   69219    3342
   2   0  14    4530     723
   3   0  14   17058    1293
   4   0  14   38006    2339
   5   0  14   22153    1846
   6   0  14   33689    2558
   7   0  14    1939    1002
   8   0  14    1112     887
   9   0  14     876     581
 -10   1  14    7839     898
  -9   1  14    1205     646
  -8   1  14    6847    1265
  -7   1  14    5467    1167
  -6   1  14   33651    2471
  -5   1  14   19091    1556
  -4   1  14     674     597
  -3   1  14    7461     926
  -2   1  14   43089    2328
  -1   1  14   71114    3418
   0   1  14  750168   32391
   1   1  14    1846     564
   2   1  14   25155    1616
   3   1  14     312     340
   4   1  14     378     411
   5   1  14     959     756
   6   1  14   14056    1517
   7   1  14    1096     811
   8   1  14    4311    1145
   9   1  14     148     192
 -10   2  14    1265     729
  -9   2  14     734     553
  -8   2  14   31525    2328
  -7   2  14     301     367
  -6   2  14  313441   16516
  -5   2  14   19605    1616
  -4   2  14   14210    1254
  -3   2  14   54072    2909
  -2   2  14   16373    1227
  -1   2  14    7817     849
   0   2  14    3248     679
   1   2  14    1687     668
   2   2  14   54533    2838
   3   2  14   14538    1205
   4   2  14   30446    2010
   5   2  14    1074     805
   6   2  14   40159    2646
   7   2  14    2695    1008
   8   2  14    1375     953
   9   2  14     274     312
  -9   3  14     860     548
  -8   3  14    8962    1271
  -7   3  14   11882    1375
  -6   3  14   46639    3068
  -5   3  14   51366    3144
  -4   3  14   28513    1912
  -3   3  14   50605    2772
  -2   3  14  270061   11975
  -1   3  14    2186     624
   0   3  14  402336   17475
   1   3  14    4202     712
   2   3  14   64502    3270
   3   3  14    7614     904
   4   3  14   20389    1600
   5   3  14    1769    1096
   6   3  14    2723    1030
   7   3  14     378     449
   8   3  14     849     772
   9   3  14     805     592
  -9   4  14     214     257
  -8   4  14   18230    1649
  -7   4  14     608     619
  -6   4  14   17633    1654
  -5   4  14     745     635
  -4   4  14     986     761
  -3   4  14    2777     657
  -2   4  14   32785    1967
  -1   4  14   25724    1643
   0   4  14   68304    3391
   1   4  14    3566     685
   2   4  14  104962    4985
   3   4  14     909     581
   4   4  14  134822    6836
   5   4  14     504     542
   6   4  14     811     663
   7   4  14     964     838
   8   4  14     948     756
   9   4  14     225     263
  -9   5  14    1961     635
  -8   5  14   41150    2673
  -7   5  14    6031    1112
  -6   5  14   46633    2909
  -5   5  14   34927    2514
  -4   5  14   44174    2684
  -3   5  14    6973     893
  -2   5  14  324041   15453
  -1   5  14   19907    1419
   0   5  14    6431     822
   1   5  14     362     345
   2   5  14    5965     822
   3   5  14     624     504
   4   5  14    6880    1024
   5   5  14    4262    1128
   6   5  14     822     783
   7   5  14    1271     838
   8   5  14     920     734
   9   5  14     175     214
  -9   6  14    2465     614
  -8   6  14    4580     893
  -7   6  14    1391     800
  -6   6  14   43281    2925
  -5   6  14    5335    1107
  -4   6  14  231102   11761
  -3   6  14   12649    1194
  -2   6  14    8337     898
  -1   6  14   10561     981
   0   6  14   94083    4563
   1   6  14   21408    1474
   2   6  14   18258    1408
   3   6  14    9685    1074
   4   6  14   26814    2120
   5   6  14    3320    1079
   6   6  14    2624    1139
   7   6  14     263     323
   8   6  14    5642     893
   9   6  14     252     279
  -9   7  14     915     471
  -8   7  14   21106    1638
  -7   7  14     197     252
  -6   7  14   14390    1578
  -5   7  14    5204    1096
  -4   7  14    5549    1052
  -3   7  14    2295     729
  -2   7  14  109427    5456
  -1   7  14    1096     586
   0   7  14   30139    1884
   1   7  14    8924     986
   2   7  14    3281     750
   3   7  14     285     340
   4   7  14  206698   10813
   5   7  14    1490     882
   6   7  14     345     411
   7   7  14     312     367
   8   7  14    1769     794
   9   7  14     175     219
  -9   8  14     170     208
  -8   8  14    1074     701
  -7   8  14     570     531
  -6   8  14   14286    1441
  -5   8  14    1769     866
  -4   8  14  184611    9729
  -3   8  14   28304    2120
  -2   8  14    7675     981
  -1   8  14   55311    3057
   0   8  14  216526   10430
   1   8  14   42295    2492
   2   8  14  141254    7028
   3   8  14   24464    1988
   4   8  14    3785     997
   5   8  14    3462    1139
   6   8  14   12407    1369
   7   8  14     383     411
   8   8  14     252     296
  -8   9  14     422     378
  -7   9  14    9532    1189
  -6   9  14    3484     915
  -5   9  14   17677    1753
  -4   9  14   20427    1895
  -3   9  14   32150    2345
  -2   9  14   83861    4585
  -1   9  14    2087     756
   0   9  14    5270     893
   1   9  14    8830    1035
   2   9  14  126419    6732
   3   9  14    1523     833
   4   9  14    4004     970
   5   9  14    4678    1216
   6   9  14   28973    2208
   7   9  14     504     498
   8   9  14    1632     685
  -8  10  14     433     405
  -7  10  14     192     236
  -6  10  14   16220    1600
  -5  10  14    4569     937
  -4  10  14    1397     800
  -3  10  14   27088    2197
  -2  10  14  129536    6973
  -1  10  14   15272    1517
   0  10  14    5724    1085
   1  10  14    5533    1068
   2  10  14   52741    3369
   3  10  14   12391    1523
   4  10  14   13098    1567
   5  10  14     285     334
   6  10  14   34850    2460
   7  10  14     263     307
   8  10  14    4388     707
  -8  11  14     860     559
  -7  11  14    1528     674
  -6  11  14    3090     871
  -5  11  14   10386    1205
  -4  11  14  110161    6163
  -3  11  14    3320     953
  -2  11  14  174110    9318
  -1  11  14    1369     849
   0  11  14   10216    1309
   1  11  14    6710    1101
   2  11  14    3692    1024
   3  11  14    4711     964
   4  11  14   12029    1375
   5  11  14     548     515
   7  11  14     794     575
   8  11  14    4136     679
  -7  12  14     197     230
  -6  12  14    1627     690
  -5  12  14     498     515
  -4  12  14    1369     756
  -3  12  14    8836    1315
  -2  12  14  124004    6645
  -1  12  14     603     603
   0  12  14    1419     975
   1  12  14    1539     805
   2  12  14   24284    2065
   3  12  14    6431    1216
   4  12  14     372     422
   5  12  14    1074     740
   6  12  14     345     378
   7  12  14     488     378
  -7  13  14     153     186
  -5  13  14    1726     729
  -4  13  14    9208    1287
  -3  13  14     318     367
  -2  13  14     981     723
  -1  13  14     520     531
   0  13  14   42744    2975
   1  13  14     898     707
   2  13  14   33695    2273
   3  13  14    1715     844
   4  13  14    2569     964
   5  13  14     427     438
   6  13  14    1139     592
   7  13  14      66      93
  -6  14  14    1884     603
  -5  14  14    5823     822
  -4  14  14    6311    1041
  -3  14  14    6760    1123
  -2  14  14   22952    1797
  -1  14  14   30008    2098
   0  14  14     427     471
   1  14  14   32555    2230
   2  14  14    1068     849
   3  14  14    7434    1145
   4  14  14    8737    1222
   5  14  14    3024     729
   6  14  14   10742     953
  -6  15  14     164     203
  -5  15  14     219     257
  -4  15  14     301     312
  -3  15  14    3374     838
  -2  15  14    3396     970
  -1  15  14     181     236
   0  15  14   32846    2317
   1  15  14     340     400
   2  15  14     372     422
   4  15  14     657     570
   5  15  14     181     214
   6  15  14     301     345
  -5  16  14    1178     515
  -4  16  14    8337     882
  -3  16  14    4525     740
  -2  16  14    9537    1079
  -1  16  14    6864    1002
   0  16  14   22377    1742
   1  16  14    7751    1057
   2  16  14    8869     953
   3  16  14     225     268
   4  16  14    8157     926
   5  16  14      66      88
  -4  17  14     767     455
  -3  17  14      93     121
  -2  17  14    2925     657
  -1  17  14     663     482
   0  17  14   15475    1227
   1  17  14     219     257
   2  17  14    1364     597
   3  17  14     121     153
   4  17  14      99     131
  -3  18  14     104     137
  -2  18  14     329     301
  -1  18  14     323     318
   0  18  14     548     444
   1  18  14     378     372
   2  18  14   19266    1375
   3  18  14     203     247
  -1  19  14     460     449
   0  19  14     170     214
   1  19  14    1523     740
  -9   1  15     400     416
  -8   1  15   26047    2153
  -7   1  15    3911    1002
  -6   1  15    1282     822
  -5   1  15    5544    1090
  -4   1  15   58641    3254
  -3   1  15   41972    2399
  -2   1  15  221439    9910
  -1   1  15  238497   10479
   0   1  15  287185   12687
   1   1  15    5604     783
   2   1  15  144655    6573
   3   1  15     318     356
   4   1  15   10813    1139
   5   1  15    9077    1348
   6   1  15     471     531
   7   1  15     822     783
   8   1  15     860     718
   9   1  15     219     263
  -9   2  15    1917     635
  -8   2  15   26206    2060
  -7   2  15     498     537
  -6   2  15     734     723
  -5   2  15    1293     887
  -4   2  15  123467    6206
  -3   2  15     729     564
  -2   2  15   77162    3785
  -1   2  15   34779    2005
   0   2  15  633636   28025
   1   2  15    6798     849
   2   2  15  142026    6497
   3   2  15    2087     641
   4   2  15    7176     970
   5   2  15    8617    1298
   6   2  15   46086    2936
   7   2  15    3002     926
   9   2  15     400     394
  -9   3  15     137     175
  -8   3  15     225     285
  -7   3  15    1019     860
  -6   3  15   14270    1446
  -5   3  15    6935    1139
  -4   3  15  268872   13656
  -3   3  15   34938    2120
  -2   3  15  265783   11931
  -1   3  15     975     586
   0   3  15  223669   10052
   1   3  15    7959     893
   2   3  15   12221    1167
   3   3  15    2859     723
   4   3  15   75891    4114
   5   3  15    4897    1156
   6   3  15    2465    1123
   7   3  15     619     652
   8   3  15    2350     822
   9   3  15     181     225
  -9   4  15      66      88
  -8   4  15     400     449
  -7   4  15    3265     992
  -6   4  15  311945   16308
  -5   4  15   44108    2876
  -4   4  15  553478   29520
  -3   4  15   56976    3122
  -2   4  15   45187    2509
  -1   4  15   74324    3676
   0   4  15  310034   13848
   1   4  15   82256    4015
   2   4  15   29586    1862
   3   4  15   28567    1895
   4   4  15    8540    1101
   5   4  15     646     646
   6   4  15    4454    1276
   7   4  15     707     674
   8   4  15     411     416
   9   4  15     175     214
  -9   5  15    3259     696
  -8   5  15     340     389
  -7   5  15    8140    1156
  -6   5  15     624     624
  -5   5  15   28671    2208
  -4   5  15  413248   21797
  -3   5  15   15344    1298
  -2   5  15   11701    1074
  -1   5  15    1074     504
   0   5  15   96285    4645
   1   5  15    5741     783
   2   5  15   85034    4317
   3   5  15    1939     794
   4   5  15    8469    1183
   5   5  15    6875    1222
   6   5  15    1479     931
   7   5  15    3396    1046
   8   5  15     307     351
   9   5  15     153     186
  -9   6  15     334     334
  -8   6  15    1013     641
  -7   6  15    3413     904
  -6   6  15  131678    6973
  -5   6  15   11931    1435
  -4   6  15   32407    2339
  -3   6  15   14029    1271
  -2   6  15   90101    4569
  -1   6  15    6732     827
   0   6  15   19321    1402
   1   6  15    1090     581
   2   6  15   11750    1134
   3   6  15    1139     652
   4   6  15   12090    1452
   5   6  15    2219     981
   6   6  15   25883    1950
   7   6  15    1402     849
   8   6  15    1205     657
   9   6  15      71      99
  -9   7  15     170     208
  -8   7  15   38367    2432
  -7   7  15     290     351
  -6   7  15   32993    2268
  -5   7  15    8206    1139
  -4   7  15  169481    8913
  -3   7  15    4832     887
  -2   7  15   66266    3577
  -1   7  15    5538     800
   0   7  15    9285     981
   1   7  15    3413     712
   2   7  15  205000   10129
   3   7  15    9077    1216
   4   7  15     619     624
   5   7  15     729     701
   6   7  15     904     778
   7   7  15    1287     849
   8   7  15     493     460
  -9   8  15     334     362
  -8   8  15    3889     712
  -7   8  15    1862     931
  -6   8  15   52484    3040
  -5   8  15    1090     800
  -4   8  15    3320    1079
  -3   8  15   10353    1298
  -2   8  15   21654    1654
  -1   8  15    5182     833
   0   8  15    5659     866
   1   8  15   10518    1107
   2   8  15    7494    1068
   3   8  15    3221     986
   4   8  15   39386    2794
   5   8  15     652     635
   6   8  15    5379    1057
   7   8  15     427     449
   8   8  15    3435     734
  -8   9  15     422     411
  -7   9  15     433     444
  -6   9  15   16122    1485
  -5   9  15    6031    1123
  -4   9  15   49980    3106
  -3   9  15    5445    1041
  -2   9  15  606591   34314
  -1   9  15   23352    1742
   0   9  15   37880    2366
   1   9  15   14703    1457
   2   9  15    2536     909
   3   9  15   23692    2038
   4   9  15   11882    1353
   5   9  15    5188    1041
   6   9  15     931     783
   7   9  15     389     389
   8   9  15     290     307
  -8  10  15     433     389
  -7  10  15     323     351
  -6  10  15   40432    2717
  -5  10  15   23807    1830
  -4  10  15    2750    1068
  -3  10  15   55234    3517
  -2  10  15  183138    9696
  -1  10  15   60569    3676
   0  10  15  196400   10260
   1  10  15   22591    1923
   2  10  15   63911    3917
   3  10  15    6037    1046
   4  10  15   16346    1726
   5  10  15     438     477
   6  10  15    2306     860
   7  10  15     345     367
   8  10  15     488     471
  -8  11  15      99     137
  -7  11  15     236     274
  -6  11  15   13032    1342
  -5  11  15    4404     975
  -4  11  15   83878    4360
  -3  11  15   15623    1638
  -2  11  15   41933    2750
  -1  11  15   10923    1364
   0  11  15   85083    4925
   1  11  15    1172     909
   2  11  15    8403    1161
   3  11  15    3380    1013
   4  11  15    9674    1254
   5  11  15     509     520
   6  11  15    2662     844
   7  11  15     252     268
  -7  12  15     263     285
  -6  12  15   16220    1353
  -5  12  15     263     312
  -4  12  15    1901    1096
  -3  12  15    1265     909
  -2  12  15  112840    6327
  -1  12  15     504     526
   0  12  15   19370    1687
   1  12  15    5478    1024
   2  12  15    4344    1063
   3  12  15     614     537
   4  12  15    6272    1035
   5  12  15     197     252
   6  12  15     641     515
   7  12  15     263     274
  -7  13  15    1304     471
  -6  13  15   34084    2284
  -5  13  15     142     186
  -4  13  15   14900    1501
  -3  13  15    1369     926
  -2  13  15   18263    1605
  -1  13  15    2224     942
   0  13  15   45615    3117
   1  13  15     351     411
   2  13  15   34708    2295
   3  13  15    3933     937
   4  13  15   14473    1386
   5  13  15    2827     690
   6  13  15    5527     789
   7  13  15    1501     668
  -6  14  15    3396     597
  -5  14  15     356     378
  -4  14  15     663     570
  -3  14  15    4618     997
  -2  14  15    5045     970
  -1  14  15    6431    1013
   0  14  15   48030    2881
   1  14  15     307     345
   2  14  15   11011    1386
   3  14  15     422     427
   4  14  15     285     334
   5  14  15     477     394
   6  14  15    1616     581
  -6  15  15   11509    1008
  -5  15  15     301     318
  -4  15  15    3594     668
  -3  15  15     301     345
  -2  15  15   75732    4108
  -1  15  15     438     477
   0  15  15   13525    1463
   1  15  15   13224    1430
   2  15  15    2492     876
   3  15  15    7132     920
   4  15  15    8682     959
   5  15  15    1988     520
  -5  16  15     192     219
  -4  16  15     405     383
  -3  16  15     285     318
  -2  16  15   18603    1446
  -1  16  15     394     411
   0  16  15    5412     871
   1  16  15    1107     624
   2  16  15     263     307
   3  16  15     351     340
   4  16  15    6464     805
   5  16  15    3303     701
  -4  17  15     323     323
  -3  17  15     356     356
  -2  17  15   16987    1342
  -1  17  15    2646     630
   0  17  15     975     537
   1  17  15    7165     833
   2  17  15    3243     597
   3  17  15     422     389
   4  17  15    8600     920
  -3  18  15    1375     663
  -2  18  15    5259     690
  -1  18  15    2071     537
   0  18  15    2257     531
   1  18  15    1813     504
   2  18  15    3188     597
  -9   0  16    1046     597
  -8   0  16  196016   10101
  -7   0  16   14111    1490
  -6   0  16     608     619
  -5   0  16   36494    2498
  -4   0  16  366719   18587
  -3   0  16    2821     663
  -2   0  16  510240   22832
  -1   0  16    1912     586
   0   0  16  463202   20597
   1   0  16    7214     844
   2   0  16   59512    3117
   3   0  16    3824     729
   4   0  16   28732    1983
   5   0  16     389     449
   6   0  16    5916    1320
   7   0  16    1041     876
   8   0  16    1293     734
   9   0  16     931     630
  -9   1  16     153     197
  -8   1  16     416     471
  -7   1  16    3396     975
  -6   1  16   42487    2706
  -5   1  16    9926    1287
  -4   1  16     745     570
  -3   1  16    8956     959
  -2   1  16  177682    8179
  -1   1  16   58510    2996
   0   1  16   71618    3572
   1   1  16     192     225
   2   1  16   17754    1331
   3   1  16    8491     959
   4   1  16    7423    1041
   5   1  16   10408    1375
   6   1  16   41435    2942
   7   1  16    6113    1117
   8   1  16     641     619
   9   1  16     482     444
  -9   2  16     493     460
  -8   2  16    2213    1019
  -7   2  16     564     581
  -6   2  16   58668    3413
  -5   2  16   10205    1298
  -4   2  16  181664    9159
  -3   2  16    3911     707
  -2   2  16  209229    9559
  -1   2  16  229744   10277
   0   2  16   90533    4366
   1   2  16   41095    2317
   2   2  16     608     466
   3   2  16    1063     740
   4   2  16   46294    2816
   5   2  16    2887    1063
   6   2  16     641     685
   7   2  16     219     285
   8   2  16     597     575
   9   2  16     175     219
  -9   3  16     104     142
  -8   3  16    3577     992
  -7   3  16     279     340
  -6   3  16   10424    1331
  -5   3  16    1090     827
  -4   3  16   28469    1999
  -3   3  16    1128     729
  -2   3  16  172428    8255
  -1   3  16    3730     745
   0   3  16   25921    1698
   1   3  16    9488     986
   2   3  16  227103   10994
   3   3  16    3007     740
   4   3  16    6272    1035
   5   3  16     871     789
   6   3  16   16883    1736
   7   3  16     351     411
   8   3  16    4897     926
   9   3  16     734     542
  -9   4  16     493     444
  -8   4  16   10770    1178
  -7   4  16     367     422
  -6   4  16   21742    1978
  -5   4  16     586     581
  -4   4  16   10145    1167
  -3   4  16    4240     789
  -2   4  16   61073    3237
  -1   4  16   12846    1079
   0   4  16   14188    1211
   1   4  16     427     416
   2   4  16   63001    3352
   3   4  16    8715    1041
   4   4  16    9948    1243
   5   4  16     455     504
   6   4  16     477     509
   7   4  16     175     230
   8   4  16    4519     778
   9   4  16     142     181
  -9   5  16     301     318
  -8   5  16    8792    1046
  -7   5  16    1265     909
  -6   5  16    1862    1123
  -5   5  16    8748    1293
  -4   5  16   10238    1342
  -3   5  16   52396    2991
  -2   5  16  256060   12523
  -1   5  16   54549    2936
   0   5  16     488     433
   1   5  16   21057    1495
   2   5  16   64798    3473
   3   5  16   21293    1649
   4   5  16    1715     871
   5   5  16    1024     767
   6   5  16    8491    1205
   7   5  16     137     186
   8   5  16     690     526
   9   5  16     268     296
  -9   6  16     252     274
  -8   6  16    2147     827
  -7   6  16    2870    1013
  -6   6  16  323909   17453
  -5   6  16   18751    1715
  -4   6  16  132292    7077
  -3   6  16   18619    1495
  -2   6  16   84431    4366
  -1   6  16   20033    1474
   0   6  16  102097    4979
   1   6  16    7592     915
   2   6  16    6820     931
   3   6  16     855     712
   4   6  16   11131    1413
   5   6  16    2651     887
   6   6  16    6458    1139
   7   6  16     860     729
   8   6  16     362     389
   9   6  16    6365     740
  -9   7  16      66      93
  -7   7  16    1243     783
  -6   7  16    1276     937
  -5   7  16   50358    3073
  -4   7  16   13733    1490
  -3   7  16   58696    3539
  -2   7  16  219434   10857
  -1   7  16    7510     964
   0   7  16    3533     740
   1   7  16     318     351
   2   7  16   14100    1326
   3   7  16    1380     811
   4   7  16    3550    1128
   5   7  16    4979    1216
   6   7  16     767     696
   7   7  16     422     438
   8   7  16    2087     641
  -8   8  16     301     329
  -7   8  16     372     405
  -6   8  16    4191     920
  -5   8  16    7286    1211
  -4   8  16   91832    5253
  -3   8  16    4815    1063
  -2   8  16    7105    1117
  -1   8  16   13333    1260
   0   8  16   50145    2876
   1   8  16   27461    1906
   2   8  16    1479     805
   3   8  16    2761     964
   4   8  16   27910    2125
   5   8  16     641     641
   6   8  16   19047    1747
   7   8  16     712     614
   8   8  16    1150     548
  -8   9  16    2060     575
  -7   9  16    1621     635
  -6   9  16    9696    1254
  -5   9  16     608     603
  -4   9  16  117737    6278
  -3   9  16   25297    2071
  -2   9  16    1337     844
  -1   9  16   37989    2597
   0   9  16   50238    3177
   1   9  16    1534     948
   2   9  16   44256    2953
   3   9  16     734     641
   4   9  16    4278    1178
   5   9  16    2618     920
   6   9  16   25670    2038
   7   9  16     389     411
   8   9  16    4207     652
  -8  10  16     712     493
  -7  10  16     142     181
  -6  10  16     838     641
  -5  10  16     531     493
  -4  10  16   78236    4607
  -3  10  16    8962    1145
  -2  10  16  207881   11054
  -1  10  16    2230     931
   0  10  16  458825   25604
   1  10  16    8765    1238
   2  10  16    5829    1085
   3  10  16    5790    1035
   4  10  16    8743    1342
   5  10  16    2312     876
   6  10  16    1117     723
   7  10  16     619     531
   8  10  16   14615    1128
  -8  11  16    7981     805
  -7  11  16     509     466
  -6  11  16    1758     701
  -5  11  16    3533     915
  -4  11  16    9608    1254
  -3  11  16    1671    1052
  -2  11  16   37967    2564
  -1  11  16   26524    2005
   0  11  16  267174   14522
   1  11  16   33980    2366
   2  11  16   83872    4722
   3  11  16    5587    1134
   4  11  16    9301    1167
   5  11  16     148     197
   6  11  16    2016     663
   7  11  16     126     164
  -7  12  16     520     427
  -6  12  16    7308     893
  -5  12  16    1550     712
  -4  12  16   82853    4311
  -3  12  16    3583     871
  -2  12  16    7877    1233
  -1  12  16    3429     992
   0  12  16    1452     838
   1  12  16    3544    1008
   2  12  16     312     367
   3  12  16    4081     893
   4  12  16    5012     997
   5  12  16    1906     707
   6  12  16     181     225
   7  12  16     794     520
  -7  13  16     192     236
  -6  13  16    7779     876
  -5  13  16     405     422
  -4  13  16    6387    1002
  -3  13  16     334     383
  -2  13  16     696     657
  -1  13  16     674     570
   0  13  16   19967    1671
   1  13  16    1950     838
   2  13  16   22454    1758
   3  13  16    5352    1030
   4  13  16   21682    1753
   5  13  16     767     603
   6  13  16     992     531
  -6  14  16    3528     597
  -5  14  16    1265     570
  -4  14  16   10233    1074
  -3  14  16    1917     772
  -2  14  16    1342     833
  -1  14  16     904     750
   0  14  16   83357    4437
   1  14  16    2131     816
   2  14  16   58044    3402
   3  14  16     816     635
   4  14  16     718     608
   5  14  16     142     181
   6  14  16     230     263
  -5  15  16    2147     498
  -4  15  16     893     537
  -3  15  16    1348     630
  -2  15  16    5883     997
  -1  15  16     307     362
   0  15  16    5675    1024
   1  15  16     674     619
   3  15  16     641     482
   4  15  16     175     214
   5  15  16     153     186
  -5  16  16    2925     668
  -4  16  16   15645    1287
  -3  16  16     466     400
  -2  16  16   31788    1983
  -1  16  16     581     466
   0  16  16   87800    4590
   1  16  16    2076     679
   2  16  16    4486     767
   3  16  16     816     614
   4  16  16     159     192
  -4  17  16   16554    1260
  -3  17  16      93     126
  -2  17  16     570     488
  -1  17  16     970     542
   0  17  16    7368     844
   1  17  16    4010     641
   2  17  16    5472     750
   3  17  16     389     334
  -2  18  16     175     203
  -1  18  16    1364     509
   0  18  16    1660     471
   1  18  16    1862     515
   2  18  16    9460     942
  -9   1  17     214     257
  -8   1  17   43385    2755
  -7   1  17    1233     805
  -6   1  17   99260    5242
  -5   1  17   27609    2147
  -4   1  17   12720    1254
  -3   1  17   49230    2799
  -2   1  17  231771   11159
  -1   1  17    9028    1002
   0   1  17  439027   19901
   1   1  17    5018     816
   2   1  17  370115   17863
   3   1  17     312     362
   4   1  17     855     723
   5   1  17     422     482
   6   1  17    5752    1233
   7   1  17     482     526
   8   1  17     148     192
   9   1  17      93     121
  -9   2  17    1430     619
  -7   2  17    1068     734
  -6   2  17    1638    1085
  -5   2  17    7937    1200
  -4   2  17   30819    2082
  -3   2  17    2224     668
  -2   2  17   52626    2859
  -1   2  17    1178     624
   0   2  17  177715    8184
   1   2  17   11980    1057
   2   2  17   17299    1353
   3   2  17   11082    1139
   4   2  17  121906    6524
   5   2  17     553     586
   6   2  17   41062    2876
   7   2  17    1923     931
   8   2  17    1512     663
   9   2  17     367     367
  -9   3  17     833     520
  -8   3  17    8474    1085
  -7   3  17    7105    1112
  -6   3  17    7368    1276
  -5   3  17   17266    1665
  -4   3  17   16899    1474
  -3   3  17    2870     718
  -2   3  17  136400    6579
  -1   3  17   20827    1446
   0   3  17    1731     679
   1   3  17   17584    1320
   2   3  17   43927    2531
   3   3  17    5850     904
   4   3  17   36236    2531
   5   3  17    9230    1353
   6   3  17    7450    1309
   7   3  17    3090    1046
   8   3  17    2520     652
   9   3  17     252     274
  -9   4  17     356     356
  -8   4  17    9948    1063
  -7   4  17    1474     789
  -6   4  17    1490    1008
  -5   4  17   12172    1430
  -4   4  17  148605    7801
  -3   4  17    2339     729
  -2   4  17    8798     970
  -1   4  17    1928     608
   0   4  17  193732    9247
   1   4  17    1928     641
   2   4  17    1545     876
   3   4  17     241     296
   4   4  17   20964    1852
   5   4  17    1485     811
   6   4  17   15026    1506
   7   4  17     772     701
   8   4  17     882     635
   9   4  17      82     110
  -9   5  17     455     411
  -8   5  17     449     460
  -7   5  17     624     614
  -6   5  17     372     444
  -5   5  17    2142     975
  -4   5  17  248133   12895
  -3   5  17    6431     931
  -2   5  17    6431     855
  -1   5  17   34127    2087
   0   5  17   14221    1200
   1   5  17    9099     997
   2   5  17    6716     926
   3   5  17     504     504
   4   5  17     712     679
   5   5  17    6294    1112
   6   5  17    2043     931
   7   5  17    1720     838
   8   5  17    2969     668
   9   5  17    5319     723
  -9   6  17     148     186
  -8   6  17   11252    1200
  -7   6  17     805     701
  -6   6  17  142596    6995
  -5   6  17     296     345
  -4   6  17    2964    1008
  -3   6  17   84250    4711
  -2   6  17   27340    1879
  -1   6  17   82021    4234
   0   6  17   23982    1671
   1   6  17   25653    1780
   2   6  17    2947     778
   3   6  17   20186    1786
   4   6  17    2597     970
   5   6  17    2235    1085
   6   6  17    2794     909
   7   6  17     252     307
   8   6  17     203     236
  -9   7  17    3900     641
  -8   7  17    8474     959
  -7   7  17     887     696
  -6   7  17   17540    1583
  -5   7  17    2443    1074
  -4   7  17    3248     964
  -3   7  17   11016    1326
  -2   7  17   28458    1994
  -1   7  17     723     531
   0   7  17    1205     729
   1   7  17     882     707
   2   7  17    3511     915
   3   7  17     553     575
   4   7  17   25061    1917
   5   7  17     290     351
   6   7  17    5051    1057
   7   7  17     794     559
   8   7  17    1391     603
  -8   8  17    3873     734
  -7   8  17     340     372
  -6   8  17    2547     811
  -5   8  17    4191    1063
  -4   8  17     646     652
  -3   8  17   51602    3298
  -2   8  17    3002     959
  -1   8  17   19425    1731
   0   8  17  346412   17425
   1   8  17   11947    1331
   2   8  17    1917     860
   3   8  17     800     652
   4   8  17    4185     931
   5   8  17     279     340
   6   8  17    2662     948
   7   8  17     844     652
   8   8  17     756     548
  -8   9  17     438     400
  -7   9  17     444     438
  -6   9  17     192     247
  -5   9  17    2136    1085
  -4   9  17   19469    1835
  -3   9  17    1041     827
  -2   9  17  148249    7948
  -1   9  17    4738    1024
   0   9  17  152916    8102
   1   9  17   38439    2662
   2   9  17    3106     981
   3   9  17   14768    1474
   4   9  17     701     663
   5   9  17     614     548
   6   9  17     816     696
   7   9  17     175     219
   8   9  17     493     460
  -8  10  17      77     104
  -7  10  17    2520     603
  -6  10  17     263     312
  -5  10  17     252     307
  -4  10  17    3035     953
  -3  10  17    4004    1046
  -2  10  17   42279    2843
  -1  10  17    6524    1172
   0  10  17    3095    1107
   1  10  17    3232    1074
   2  10  17   39824    2657
   3  10  17    1233     942
   4  10  17    1156     871
   5  10  17    4475     964
   6  10  17    1216     641
   7  10  17     142     181
  -7  11  17     427     378
  -6  11  17     257     301
  -5  11  17     652     608
  -4  11  17   77529    4097
  -3  11  17    7850    1249
  -2  11  17  135299    7428
  -1  11  17     707     674
   0  11  17   33191    2361
   1  11  17    4388     964
   2  11  17   38159    2755
   3  11  17    4492     959
   4  11  17     783     685
   5  11  17     586     559
   6  11  17     301     334
   7  11  17     405     378
  -7  12  17     131     164
  -6  12  17    1441     668
  -5  12  17    1819     756
  -4  12  17    6404    1123
  -3  12  17    1791     778
  -2  12  17    8557    1139
  -1  12  17    8551    1254
   0  12  17     241     296
   1  12  17   15135    1632
   2  12  17     537     548
   3  12  17     416     460
   4  12  17    2558     926
   5  12  17     767     624
   6  12  17     778     515
   7  12  17     542     515
  -6  13  17    2635     619
  -5  13  17    2832     663
  -4  13  17    1348     750
  -3  13  17    2903     964
  -2  13  17   22826    1742
  -1  13  17     772     624
   0  13  17    4097     931
   1  13  17     175     225
   2  13  17    2372     833
   3  13  17     219     279
   4  13  17    3796     800
   5  13  17     197     241
   6  13  17     296     312
  -6  14  17     301     296
  -5  14  17     137     170
  -4  14  17     871     564
  -3  14  17     920     619
  -2  14  17    6332    1057
  -1  14  17    2679     898
   0  14  17   44930    2865
   1  14  17     876     729
   2  14  17    8228    1161
   3  14  17     920     586
   4  14  17    2553     652
   5  14  17     307     301
   6  14  17    2503     668
  -5  15  17    1841     509
  -4  15  17   10271     992
  -3  15  17    4289     750
  -2  15  17   19912    1545
  -1  15  17    4853     959
   0  15  17    6469    1041
   1  15  17     816     663
   2  15  17    4076     761
   3  15  17     586     520
   4  15  17    9827    1013
   5  15  17     214     241
  -4  16  17    2219     498
  -3  16  17    3451     663
  -2  16  17    6163     811
  -1  16  17    1052     570
   0  16  17    2021     663
   1  16  17    1046     707
   2  16  17    7329     849
   3  16  17    4563     718
   4  16  17    1567     542
  -3  17  17    3774     652
  -2  17  17    6426     723
  -1  17  17    1457     581
   0  17  17     400     389
   1  17  17     142     181
   2  17  17   20356    1457
   3  17  17     110     142
  -2  18  17    5001     740
  -1  18  17     389     362
   0  18  17    5281     668
   1  18  17    1490     603
  -9   0  18     767     531
  -8   0  18    5215     975
  -7   0  18    4536     948
  -6   0  18  357795   19118
  -5   0  18     745     696
  -4   0  18   65916    3840
  -3   0  18   33629    2142
  -2   0  18   70923    3687
  -1   0  18   10052     986
   0   0  18  603551   28617
   1   0  18    4903     767
   2   0  18   21172    1539
   3   0  18    5593     904
   4   0  18  151393    7965
   5   0  18     307     378
   6   0  18   64300    3895
   7   0  18    2695     992
   8   0  18    2104     756
   9   0  18      66      93
  -9   1  18    1156     597
  -8   1  18   30057    2087
  -7   1  18    1397     959
  -6   1  18   27696    2257
  -5   1  18    8540    1276
  -4   1  18    7614    1139
  -3   1  18    2794     740
  -2   1  18    4119     761
  -1   1  18  131218    6283
   0   1  18    8841     926
   1   1  18   34325    2065
   2   1  18     657     586
   3   1  18     208     263
   4   1  18   34555    2503
   5   1  18    5598    1112
   6   1  18   36023    2629
   7   1  18    1052     805
   8   1  18    1353     679
   9   1  18     131     170
  -9   2  18     307     323
  -8   2  18   11509    1183
  -7   2  18    3544     882
  -6   2  18   85795    4842
  -5   2  18   49235    3155
  -4   2  18   29077    2158
  -3   2  18   79139    4202
  -2   2  18   20268    1490
  -1   2  18   90813    4519
   0   2  18   25768    1665
   1   2  18   37343    2208
   2   2  18   63659    3418
   3   2  18   10162    1128
   4   2  18   58942    3621
   5   2  18    1611     844
   6   2  18     329     400
   7   2  18    2208     953
   8   2  18    2197     761
   9   2  18     170     214
  -9   3  18     225     257
  -8   3  18     340     378
  -7   3  18     137     186
  -6   3  18     564     586
  -5   3  18     367     400
  -4   3  18    5927    1117
  -3   3  18    2043     761
  -2   3  18   19967    1490
  -1   3  18     422     383
   0   3  18   88972    4388
   1   3  18     433     422
   2   3  18  206726   10107
   3   3  18    1391     701
   4   3  18     405     444
   5   3  18     285     351
   6   3  18    5527    1041
   7   3  18     252     312
   8   3  18    4443     800
   9   3  18     564     520
  -9   4  18     159     197
  -8   4  18     493     493
  -7   4  18    2876     898
  -6   4  18     405     460
  -5   4  18    5034    1013
  -4   4  18   22816    1928
  -3   4  18    2750     772
  -2   4  18  219089   10928
  -1   4  18    1156     729
   0   4  18    3599     734
   1   4  18     181     225
   2   4  18    3205     800
   3   4  18     548     542
   4   4  18   24130    2027
   5   4  18    1090     756
   6   4  18    3007    1013
   7   4  18     225     285
   8   4  18    8365     981
  -9   5  18     181     214
  -8   5  18    6409     898
  -7   5  18    2432     887
  -6   5  18    7647    1134
  -5   5  18   22421    1808
  -4   5  18  438069   24245
  -3   5  18    2980     855
  -2   5  18   14593    1293
  -1   5  18    1265     783
   0   5  18  113119    5516
   1   5  18     471     482
   2   5  18   32785    2147
   3   5  18     367     411
   4   5  18   11476    1424
   5   5  18    1397     904
   6   5  18     197     257
   7   5  18     104     148
   8   5  18    3884     729
  -9   6  18    4744     696
  -8   6  18    1139     619
  -7   6  18     389     427
  -6   6  18  112051    5626
  -5   6  18    8469    1309
  -4   6  18   43889    2991
  -3   6  18    2405     931
  -2   6  18     559     531
  -1   6  18     181     230
   0   6  18   65423    3500
   1   6  18    9964    1117
   2   6  18   11865    1348
   3   6  18    1397     915
   4   6  18     581     592
   5   6  18    2816    1068
   6   6  18     624     614
   7   6  18    1441     734
   8   6  18     208     252
  -8   7  18    4716     789
  -7   7  18    6141     909
  -6   7  18   14818    1446
  -5   7  18    2147     986
  -4   7  18   38121    2531
  -3   7  18    4552    1030
  -2   7  18  349485   18570
  -1   7  18   40268    2487
   0   7  18     696     619
   1   7  18   41977    2739
   2   7  18    9088    1222
   3   7  18   40580    2843
   4   7  18    9712    1238
   5   7  18    7872    1145
   6   7  18    4738     981
   7   7  18     274     323
   8   7  18     192     236
  -8   8  18    7587     822
  -7   8  18     427     449
  -6   8  18    9230    1254
  -5   8  18     564     575
  -4   8  18   72725    4163
  -3   8  18    8255    1249
  -2   8  18     701     614
  -1   8  18    8157    1167
   0   8  18   20964    1835
   1   8  18    2301     898
   2   8  18   14637    1561
   3   8  18     438     449
   4   8  18   29137    2345
   5   8  18     334     394
   6   8  18    2164     849
   7   8  18     170     214
   8   8  18    6694     772
  -8   9  18    1397     548
  -7   9  18     307     334
  -6   9  18   18466    1660
  -5   9  18     800     624
  -4   9  18   32281    2454
  -3   9  18    1265     734
  -2   9  18  188983   10079
  -1   9  18   10282    1348
   0   9  18   27532    2213
   1   9  18     992     772
   2   9  18   36176    2613
   3   9  18     520     542
   4   9  18   24503    1868
   5   9  18     504     531
   6   9  18     383     422
   7   9  18     197     241
  -8  10  18    4623     723
  -7  10  18     356     329
  -6  10  18     411     427
  -5  10  18    9526    1227
  -4  10  18    8732    1139
  -3  10  18   10227    1331
  -2  10  18   20586    1726
  -1  10  18     433     482
   0  10  18  297686   16450
   1  10  18   10649    1276
   2  10  18  135310    7209
   3  10  18    9745    1375
   4  10  18    2640     833
   5  10  18     247     307
   6  10  18    5812     844
   7  10  18     268     296
  -7  11  18     482     372
  -6  11  18    2712     663
  -5  11  18     318     362
  -4  11  18     701     592
  -3  11  18     844     630
  -2  11  18    2328     992
  -1  11  18     301     362
   0  11  18   29263    2306
   1  11  18    4393    1057
   2  11  18   33711    2542
   3  11  18     849     646
   4  11  18    7176    1167
   6  11  18    1353     734
   7  11  18     542     455
  -7  12  18    1068     559
  -6  12  18     241     274
  -5  12  18    8754     997
  -4  12  18   29751    2142
  -3  12  18   18833    1605
  -2  12  18   41676    2597
  -1  12  18   24831    1884
   0  12  18   35941    2618
   1  12  18    2301     838
   2  12  18   11980    1282
   3  12  18     904     740
   4  12  18   10556    1254
   5  12  18    1589     586
   6  12  18     603     482
  -6  13  18     422     389
  -5  13  18     142     181
  -4  13  18    3057     761
  -3  13  18     312     367
  -2  13  18   38449    2580
  -1  13  18    2098     811
   0  13  18    5379    1013
   1  13  18    6491    1019
   2  13  18    5555    1090
   3  13  18    2909     805
   4  13  18    8200     997
   5  13  18     110     148
   6  13  18      99     131
  -6  14  18    3325     685
  -5  14  18    2104     614
  -4  14  18     509     471
  -3  14  18    4399     827
  -2  14  18   18795    1589
  -1  14  18   13717    1424
   0  14  18   42240    2712
   1  14  18    1046     718
   2  14  18    1879     794
   3  14  18     471     477
   4  14  18     279     312
   5  14  18     394     334
  -5  15  18     581     427
  -4  15  18    8420     926
  -3  15  18     482     460
  -2  15  18    3117     729
  -1  15  18     274     323
   0  15  18    8496    1019
   1  15  18     400     405
   2  15  18   17102    1369
   3  15  18     175     219
   4  15  18     340     345
   5  15  18    1485     690
  -4  16  18    1967     520
  -3  16  18    4700     734
  -2  16  18   15267    1233
  -1  16  18    3895     723
   0  16  18    4864     805
   1  16  18     367     378
   2  16  18    2257     624
   3  16  18     312     323
   4  16  18    1846     614
  -3  17  18     110     142
  -2  17  18   19836    1402
  -1  17  18    1501     515
   0  17  18     126     164
   1  17  18    1600     482
   2  17  18     592     455
   3  17  18    5670     712
  -1  18  18    8118     855
   0  18  18    3780     718
  -9   1  19     416     383
  -8   1  19     498     460
  -7   1  19    2082    1189
  -6   1  19    1868    1013
  -5   1  19    1474     860
  -4   1  19  107252    5856
  -3   1  19   20367    1627
  -2   1  19  191628    9362
  -1   1  19   49455    2755
   0   1  19   81265    4070
   1   1  19   16187    1315
   2   1  19  131295    6480
   3   1  19     652     608
   4   1  19    2251    1013
   5   1  19     329     400
   6   1  19   42169    2651
   7   1  19     509     537
   8   1  19    3391     750
   9   1  19    4958     701
  -9   2  19     400     362
  -8   2  19     767     581
  -7   2  19   10156    1375
  -6   2  19   99714    5511
  -5   2  19   31060    2202
  -4   2  19   15130    1545
  -3   2  19    6437     948
  -2   2  19   22114    1600
  -1   2  19   39052    2312
   0   2  19  351091   16686
   1   2  19     668     564
   2   2  19   14155    1304
   3   2  19     866     750
   4   2  19   24026    2065
   5   2  19    1068     866
   6   2  19    1161     778
   7   2  19    1156     805
   8   2  19     279     323
  -9   3  19     175     208
  -8   3  19    2114     707
  -7   3  19     219     274
  -6   3  19    1852     860
  -5   3  19    4311     975
  -4   3  19   37348    2618
  -3   3  19   79320    4284
  -2   3  19  214603   10764
  -1   3  19   90397    4580
   0   3  19   71980    3714
   1   3  19   86781    4448
   2   3  19    4065     871
   3   3  19   35535    2498
   4   3  19    1265     909
   5   3  19    4339    1167
   6   3  19   38608    2465
   7   3  19     367     422
   8   3  19     186     230
  -9   4  19      66      93
  -8   4  19    3440     794
  -7   4  19    1687     805
  -6   4  19   21090    1704
  -5   4  19    5609    1041
  -4   4  19    1764     948
  -3   4  19   15694    1512
  -2   4  19  184025    9143
  -1   4  19    4563     816
   0   4  19   50364    2827
   1   4  19    9559    1046
   2   4  19   40038    2492
   3   4  19    5407    1035
   4   4  19   30419    2356
   5   4  19    1156     920
   6   4  19     236     296
   8   4  19     323     356
  -9   5  19    1890     685
  -8   5  19     389     405
  -7   5  19     329     378
  -6   5  19     608     614
  -5   5  19    6080    1222
  -4   5  19   34111    2564
  -3   5  19     942     750
  -2   5  19  114713    5845
  -1   5  19   32687    2109
   0   5  19    1485     690
   1   5  19   18526    1495
   2   5  19    7576    1150
   3   5  19   10025    1293
   4   5  19     498     531
   5   5  19    4547    1101
   6   5  19    4048     959
   7   5  19     219     274
   8   5  19     844     597
  -8   6  19    8502     948
  -6   6  19     838     734
  -5   6  19   45105    3002
  -4   6  19   15086    1556
  -3   6  19   20690    1819
  -2   6  19   22640    1879
  -1   6  19    8622    1041
   0   6  19   40553    2487
   1   6  19    1298     701
   2   6  19   22783    1884
   3   6  19     219     268
   4   6  19     575     581
   5   6  19    1928     893
   6   6  19    1589     849
   7   6  19     488     498
   8   6  19     378     372
  -8   7  19     997     531
  -7   7  19     488     477
  -6   7  19    1046     756
  -5   7  19    3111     920
  -4   7  19    3133     898
  -3   7  19    7297    1167
  -2   7  19    6185    1145
  -1   7  19   11756    1369
   0   7  19     942     679
   1   7  19    2104     849
   2   7  19   74494    4377
   3   7  19    4574    1057
   4   7  19    9800    1391
   5   7  19     761     707
   6   7  19    3391     992
   7   7  19    1282     685
   8   7  19    1917     564
  -8   8  19   11701    1030
  -7   8  19    2646     750
  -6   8  19    3993    1008
  -5   8  19   17803    1523
  -4   8  19   67838    4125
  -3   8  19   38444    2569
  -2   8  19  239429   12720
  -1   8  19    5944    1090
   0   8  19  202283   10633
   1   8  19    2158     970
   2   8  19   33662    2492
   3   8  19   17683    1621
   4   8  19     257     323
   5   8  19    6020    1013
   6   8  19     427     466
   7   8  19     416     427
   8   8  19    5472     789
  -8   9  19    7280     898
  -7   9  19     345     367
  -6   9  19     400     400
  -5   9  19     274     323
  -4   9  19   12572    1359
  -3   9  19    1698     887
  -2   9  19   21703    1791
  -1   9  19    1698    1035
   0   9  19   58762    3676
   1   9  19     263     323
   2   9  19     948     690
   3   9  19     652     624
   4   9  19    9701    1293
   5   9  19     241     301
   6   9  19    3095     778
   7   9  19    1397     586
  -7  10  19     427     400
  -6  10  19   14752    1293
  -5  10  19     241     296
  -4  10  19   20717    1665
  -3  10  19    2087     931
  -2  10  19   92544    5325
  -1  10  19    4180     992
   0  10  19   18477    1676
   1  10  19     285     345
   2  10  19    2783    1074
   3  10  19     740     663
   4  10  19     290     351
   5  10  19     509     488
   6  10  19     750     537
   7  10  19      88     121
  -7  11  19     296     296
  -6  11  19    6530     838
  -5  11  19   10660    1200
  -4  11  19    7203    1156
  -3  11  19   12271    1265
  -2  11  19   21380    1726
  -1  11  19   25708    2153
   0  11  19   16357    1693
   1  11  19   22273    1972
   2  11  19   25423    1934
   3  11  19    8896    1161
   4  11  19    1638     953
   5  11  19     203     257
   6  11  19    5664     745
   7  11  19     362     394
  -7  12  19    4771     641
  -6  12  19    2246     597
  -5  12  19     520     504
  -4  12  19   13837    1402
  -3  12  19     668     641
  -2  12  19   11794    1276
  -1  12  19     860     734
   0  12  19   20553    1698
   1  12  19     186     236
   2  12  19    4738     964
   3  12  19     263     318
   5  12  19     214     257
   6  12  19    1868     471
  -6  13  19    4032     652
  -5  13  19    3791     635
  -4  13  19    5664     822
  -3  13  19    5987    1030
  -2  13  19    1233     805
  -1  13  19    7817    1200
   0  13  19   25155    1862
   1  13  19    5944    1194
   2  13  19    9647    1293
   3  13  19     307     356
   4  13  19     460     449
   5  13  19     197     236
   6  13  19    3424     723
  -5  14  19     203     236
  -4  14  19    1002     537
  -3  14  19     608     548
  -2  14  19    8458    1107
  -1  14  19     520     493
   0  14  19   26606    2010
   1  14  19     904     652
   2  14  19    4727     800
   3  14  19     296     329
   4  14  19     247     285
   5  14  19     110     142
  -5  15  19    2498     657
  -4  15  19     887     493
  -3  15  19    5790     767
  -2  15  19      93     131
  -1  15  19    7483     898
   0  15  19    9844    1046
   1  15  19    2881     674
   2  15  19    3648     772
   3  15  19     570     471
   4  15  19     531     394
  -4  16  19     296     329
  -3  16  19     471     422
  -2  16  19    2290     624
  -1  16  19     301     323
   0  16  19    1736     603
   1  16  19     268     301
   2  16  19    3281     668
   3  16  19     126     159
  -2  17  19    3495     592
  -1  17  19    7395     778
   0  17  19    1824     477
   1  17  19    1369     553
   2  17  19    2224     619
  -9   0  20    1457     564
  -8   0  20   28693    1950
  -7   0  20   11279    1337
  -6   0  20   16658    1539
  -5   0  20     630     641
  -4   0  20    2383     959
  -3   0  20   37874    2416
  -2   0  20   14686    1298
  -1   0  20   58384    3194
   0   0  20  201631    9669
   1   0  20   55573    3090
   2   0  20  152823    7527
   3   0  20   19863    1764
   4   0  20  171409    9121
   5   0  20     581     608
   6   0  20     860     696
   7   0  20    1205     822
   8   0  20    3517     696
  -9   1  20     115     148
  -8   1  20   21819    1621
  -7   1  20    8261    1238
  -6   1  20   14977    1441
  -5   1  20    9181    1238
  -4   1  20  177139    9351
  -3   1  20   14160    1424
  -2   1  20    1556     712
  -1   1  20   73705    3878
   0   1  20    4947     811
   1   1  20   25511    1769
   2   1  20     926     641
   3   1  20   16987    1638
   4   1  20   20865    1945
   5   1  20    9055    1490
   6   1  20    8053    1183
   7   1  20     362     411
   8   1  20     411     389
  -9   2  20     148     181
  -8   2  20   11799    1172
  -7   2  20   10583    1397
  -6   2  20   38329    2481
  -5   2  20   20564    1742
  -4   2  20   60022    3698
  -3   2  20    2985     893
  -2   2  20    1057     663
  -1   2  20   12292    1167
   0   2  20    2191     822
   1   2  20   19479    1517
   2   2  20  171618    8496
   3   2  20    6798    1167
   4   2  20   76767    4547
   5   2  20    3440    1139
   6   2  20     750     641
   8   2  20     279     318
  -9   3  20     986     581
  -8   3  20    7012     833
  -7   3  20    3982     893
  -6   3  20    8863    1172
  -5   3  20   29334    2153
  -4   3  20     362     416
  -3   3  20    7532    1145
  -2   3  20    1167     690
  -1   3  20   36762    2279
   0   3  20  291392   14182
   1   3  20    1539     740
   2   3  20    4706     920
   3   3  20     455     482
   4   3  20    4152    1205
   5   3  20    2942    1167
   6   3  20    1260     915
   7   3  20     586     570
   8   3  20     340     362
  -9   4  20    4267     652
  -8   4  20    1254     581
  -7   4  20    1474     816
  -6   4  20    2076     844
  -5   4  20     225     279
  -4   4  20   12303    1424
  -3   4  20   18970    1726
  -2   4  20   97567    5067
  -1   4  20   13235    1271
   0   4  20  130478    6376
   1   4  20   10244    1128
   2   4  20   47773    3079
   3   4  20    9318    1320
   4   4  20   26639    2027
   5   4  20     663     652
   6   4  20    2202    1161
   7   4  20     619     509
   8   4  20     115     153
  -8   5  20     268     301
  -6   5  20   55398    3172
  -5   5  20    3555    1035
  -4   5  20   30479    2186
  -3   5  20    3473     981
  -2   5  20    3106     876
  -1   5  20    2284     783
   0   5  20   53284    3035
   1   5  20     915     740
   2   5  20    3122     931
   3   5  20    6371    1134
   4   5  20    5451    1090
   5   5  20     734     696
   6   5  20   14873    1512
   7   5  20     279     329
   8   5  20    3955     619
  -8   6  20     674     493
  -7   6  20    1528     904
  -6   6  20    1983     970
  -5   6  20    7187    1090
  -4   6  20  193338   10025
  -3   6  20    1293     860
  -2   6  20  108490    5954
  -1   6  20    7231    1139
   0   6  20    2936     915
   1   6  20     411     449
   2   6  20  221697   11657
   3   6  20   10737    1359
   4   6  20    3418    1052
   5   6  20    2931     926
   6   6  20    3363     964
   7   6  20     493     498
   8   6  20     279     301
  -8   7  20      88     121
  -7   7  20    5248     800
  -6   7  20   28803    2180
  -5   7  20   20591    1660
  -4   7  20    1956    1074
  -3   7  20  118334    6294
  -2   7  20  251327   13311
  -1   7  20  118005    6420
   0   7  20     548     531
   1   7  20   31027    2323
   2   7  20    8305    1260
   3   7  20   12594    1413
   4   7  20    5894    1216
   5   7  20     964     789
   6   7  20    7308    1145
   7   7  20     263     307
   8   7  20     170     219
  -8   8  20      99     131
  -7   8  20    2991     652
  -6   8  20     153     203
  -5   8  20   22098    1715
  -4   8  20   70057    4229
  -3   8  20   12807    1386
  -2   8  20   89268    5155
  -1   8  20   11991    1468
   0   8  20   43977    2991
   1   8  20    8118    1227
   2   8  20     471     498
   3   8  20     646     630
   4   8  20     444     449
   5   8  20     586     597
   6   8  20     482     488
   7   8  20     192     236
  -7   9  20     296     318
  -6   9  20     449     455
  -5   9  20    1326     931
  -4   9  20     279     334
  -3   9  20    7209    1167
  -2   9  20   48770    3073
  -1   9  20   13476    1391
   0   9  20  132160    7072
   1   9  20    1474     964
   2   9  20  141133    7735
   3   9  20   13952    1567
   4   9  20   22416    1775
   5   9  20     898     696
   6   9  20    6130     838
   7   9  20     225     252
  -7  10  20     394     372
  -6  10  20     230     279
  -5  10  20     520     498
  -4  10  20    1824     756
  -3  10  20    5527     964
  -2  10  20    5965    1128
  -1  10  20     570     531
   0  10  20   35508    2618
   1  10  20    1117     849
   2  10  20   65319    4037
   3  10  20    4695     992
   4  10  20    4251    1013
   5  10  20     197     252
   6  10  20    3248     630
   7  10  20      66      93
  -7  11  20     197     236
  -6  11  20    9247     959
  -5  11  20    2169     657
  -4  11  20    8513    1112
  -3  11  20    1758     805
  -2  11  20   20969    1687
  -1  11  20     356     416
   0  11  20   19693    1654
   1  11  20     657     635
   2  11  20     723     679
   3  11  20     674     624
   4  11  20   40482    2613
   5  11  20     394     411
   6  11  20    3210     646
  -6  12  20     203     241
  -5  12  20     142     186
  -4  12  20     855     657
  -3  12  20    1578     838
  -2  12  20   59424    3342
  -1  12  20     701     641
   0  12  20     964     707
   1  12  20    8272    1107
   2  12  20   28376    2125
   3  12  20    7954    1183
   4  12  20     329     367
   5  12  20    3352     652
   6  12  20    3084     597
  -6  13  20     290     323
  -5  13  20     488     438
  -4  13  20     750     608
  -3  13  20    5067     849
  -2  13  20    1293     772
  -1  13  20    2065     855
   0  13  20   69142    3867
   1  13  20     405     449
   2  13  20     849     701
   3  13  20     964     592
   4  13  20    2586     652
   5  13  20     789     548
  -5  14  20     126     159
  -4  14  20   23314    1638
  -3  14  20    4213     723
  -2  14  20    1271     614
  -1  14  20    6891     904
   0  14  20    2575     822
   1  14  20     225     268
   2  14  20    2361     701
   3  14  20     696     570
   4  14  20     531     471
   5  14  20     340     362
  -4  15  20    2728     509
  -3  15  20     783     520
  -2  15  20    3161     614
  -1  15  20     624     542
   0  15  20     526     493
   1  15  20    1731     641
   2  15  20     186     225
   3  15  20     186     225
   4  15  20     893     531
  -3  16  20    2356     559
  -2  16  20    4996     674
  -1  16  20    5620     778
   0  16  20    7056     871
   1  16  20    4716     729
   2  16  20     855     520
   3  16  20     115     148
  -2  17  20   32342    2005
  -1  17  20     153     186
   0  17  20    1101     504
   1  17  20      66      88
  -9   1  21    2049     679
  -8   1  21     236     274
  -7   1  21     477     482
  -6   1  21    5571    1101
  -5   1  21     323     378
  -4   1  21   63982    3933
  -3   1  21     614     597
  -2   1  21   70013    3824
  -1   1  21    7390     970
   0   1  21    7948    1024
   1   1  21   23769    1764
   2   1  21  145756    7669
   3   1  21   30561    2306
   4   1  21    2794    1063
   5   1  21     504     559
   6   1  21   19370    1786
   7   1  21     608     509
   8   1  21    2136     674
  -9   2  21    3665     641
  -8   2  21    1435     553
  -7   2  21     137     181
  -6   2  21   61846    3440
  -5   2  21     378     433
  -4   2  21    2503     970
  -3   2  21     285     340
  -2   2  21   20630    1632
  -1   2  21    5341     904
   0   2  21    8732    1041
   1   2  21    2531     783
   2   2  21  451780   24530
   3   2  21    5242    1107
   4   2  21     181     241
   5   2  21    3380    1101
   6   2  21    1315     992
   7   2  21     345     389
   8   2  21     153     197
  -8   3  21    1211     548
  -7   3  21    8535    1156
  -6   3  21   10145    1216
  -5   3  21   46551    3051
  -4   3  21  390499   21934
  -3   3  21   29236    2240
  -2   3  21  122048    6524
  -1   3  21   10994    1167
   0   3  21   87740    4530
   1   3  21    9060    1079
   2   3  21   13339    1490
   3   3  21    4267    1112
   4   3  21   14763    1490
   5   3  21    2235     849
   6   3  21   11920    1457
   7   3  21     372     416
   8   3  21    6442     761
  -8   4  21    4678     761
  -7   4  21    8699    1019
  -6   4  21   91114    4673
  -5   4  21   37683    2651
  -4   4  21   73897    4196
  -3   4  21   47148    3090
  -2   4  21   36527    2536
  -1   4  21     745     597
   0   4  21   31547    2120
   1   4  21    5735    1041
   2   4  21   19753    1797
   3   4  21     340     400
   4   4  21   26278    2060
   5   4  21    7532    1134
   6   4  21     351     411
   7   4  21    3216     740
   8   4  21     394     372
  -8   5  21   12605    1139
  -7   5  21    1227     652
  -6   5  21    6239    1134
  -5   5  21    2109     827
  -4   5  21   29641    2208
  -3   5  21    9784    1331
  -2   5  21  203154   10633
  -1   5  21   54483    3369
   0   5  21   20515    1786
   1   5  21   32024    2361
   2   5  21    1161     783
   3   5  21    9444    1359
   4   5  21    4558    1101
   5   5  21    5105     992
   6   5  21   23177    1873
   7   5  21     400     405
   8   5  21     400     383
  -8   6  21    2832     553
  -7   6  21     570     526
  -6   6  21    9438    1326
  -5   6  21     608     586
  -4   6  21   85329    4947
  -3   6  21    5248    1052
  -2   6  21   13558    1506
  -1   6  21   18324    1709
   0   6  21   72188    4245
   1   6  21    5220    1150
   2   6  21   32177    2427
   3   6  21     247     312
   4   6  21    6409    1249
   5   6  21     855     761
   6   6  21   10583    1315
   7   6  21     822     614
   8   6  21    2854     685
  -8   7  21     789     466
  -6   7  21    1172     800
  -5   7  21     197     252
  -4   7  21    2575     992
  -3   7  21   14352    1463
  -2   7  21   12665    1490
  -1   7  21    6464    1194
   0   7  21     537     548
   1   7  21    1128     750
   2   7  21   10074    1260
   3   7  21    4749    1079
   4   7  21   86337    4514
   5   7  21     411     466
   6   7  21   16373    1441
   7   7  21     312     334
  -8   8  21    2564     701
  -7   8  21     849     504
  -6   8  21   14336    1298
  -5   8  21    2936    1041
  -4   8  21  121725    6042
  -3   8  21   17223    1693
  -2   8  21   50802    3183
  -1   8  21   53755    3287
   0   8  21   56707    3632
   1   8  21   22043    1846
   2   8  21   22235    1956
   3   8  21    2377     997
   4   8  21   34609    2312
   5   8  21    2038     926
   6   8  21     274     323
   7   8  21     208     247
  -7   9  21     257     279
  -6   9  21    5675     833
  -5   9  21     953     696
  -4   9  21   43829    2679
  -3   9  21   15037    1468
  -2   9  21    3292     926
  -1   9  21   14451    1594
   0   9  21   13152    1463
   1   9  21   12742    1501
   2   9  21   42306    2958
   3   9  21    3292     882
   4   9  21     635     608
   5   9  21     405     433
   6   9  21    1972     657
   7   9  21     575     427
  -7  10  21    1632     542
  -6  10  21    1167     537
  -5  10  21   11476    1156
  -4  10  21   70304    3982
  -3  10  21   10665    1243
  -2  10  21     268     329
  -1  10  21   20920    1873
   0  10  21  155337    8573
   1  10  21     581     586
   2  10  21     876     674
   3  10  21    3216     898
   4  10  21    8693    1260
   5  10  21     624     570
   6  10  21     252     285
  -6  11  21     559     488
  -5  11  21    1862     635
  -4  11  21    2399     844
  -3  11  21     619     592
  -2  11  21    1101     871
  -1  11  21     257     318
   0  11  21     663     635
   1  11  21    7669    1079
   2  11  21   19907    1654
   3  11  21     301     356
   4  11  21     575     493
   5  11  21     997     559
   6  11  21     405     356
  -6  12  21      77     104
  -5  12  21     159     203
  -4  12  21    5500     855
  -3  12  21     520     520
  -2  12  21    4344     970
  -1  12  21    1884     860
   0  12  21   19195    1600
   1  12  21    4979    1013
   2  12  21   17809    1671
   3  12  21    2898     816
   4  12  21    3544     718
   5  12  21     778     531
   6  12  21    4864     767
  -5  13  21     104     137
  -4  13  21     893     509
  -3  13  21     241     285
  -2  13  21    5823     975
  -1  13  21    3320     871
   0  13  21   45483    2827
   1  13  21    2399     827
   2  13  21    5483     909
   3  13  21    3122     679
   4  13  21    2093     548
   5  13  21     559     422
  -5  14  21     104     137
  -4  14  21    3040     635
  -3  14  21     208     247
  -2  14  21     186     230
  -1  14  21     186     236
   0  14  21   20224    1528
   1  14  21     351     383
   2  14  21   19710    1463
   3  14  21     334     351
   4  14  21     285     307
  -4  15  21    1391     531
  -3  15  21     740     427
  -2  15  21   30830    2010
  -1  15  21    2733     641
   0  15  21    9186     959
   1  15  21    2646     646
   2  15  21     690     493
   3  15  21     827     537
   4  15  21    3654     663
  -3  16  21     296     329
  -2  16  21    1616     526
  -1  16  21     449     405
   0  16  21    1107     515
   1  16  21    1643     493
   2  16  21    6102     718
  -1  17  21    3522     624
   0  17  21    2975     674
  -8   0  22     329     345
  -6   0  22  200097    9619
  -5   0  22   41183    2859
  -4   0  22   33996    2372
  -3   0  22     477     498
  -2   0  22    7313    1145
  -1   0  22    1758     712
   0   0  22   81714    4273
   1   0  22     411     449
   2   0  22  517433   28551
   3   0  22    5237    1117
   4   0  22   39293    2640
   5   0  22   13771    1430
   6   0  22     526     553
   7   0  22     268     323
   8   0  22    4530     723
  -8   1  22    6678     920
  -7   1  22     975     646
  -6   1  22   39140    2460
  -5   1  22   14303    1578
  -4   1  22     981     794
  -3   1  22    6250    1107
  -2   1  22   20235    1764
  -1   1  22   29805    2054
   0   1  22    3183     915
   1   1  22    6113    1090
   2   1  22   18702    1753
   3   1  22    2744    1128
   4   1  22  113475    6130
   5   1  22     630     635
   6   1  22     679     674
   7   1  22     252     307
   8   1  22    8814     942
  -8   2  22    6979     926
  -7   2  22     214     268
  -6   2  22    7560    1123
  -5   2  22     427     477
  -4   2  22   34522    2399
  -3   2  22    2153     970
  -2   2  22  852418   52489
  -1   2  22   13782    1430
   0   2  22   62799    3752
   1   2  22     411     444
   2   2  22    8967    1293
   3   2  22     433     493
   4   2  22   96236    5516
   5   2  22    1747    1096
   6   2  22   13147    1495
   7   2  22     252     301
   8   2  22    2262     564
  -8   3  22    1172     592
  -7   3  22     767     630
  -6   3  22    1216     805
  -5   3  22    4240     920
  -4   3  22    1013     844
  -3   3  22   14286    1567
  -2   3  22  120898    6535
  -1   3  22   72834    4213
   0   3  22     400     438
   1   3  22   35858    2531
   2   3  22   13887    1572
   3   3  22    3862    1063
   4   3  22     674     674
   5   3  22     230     296
   6   3  22   11427    1364
   7   3  22     137     181
   8   3  22    2142     630
  -8   4  22     307     323
  -7   4  22     405     389
  -6   4  22     455     488
  -5   4  22   11662    1353
  -4   4  22    2887    1254
  -3   4  22   29011    2312
  -2   4  22   14018    1517
  -1   4  22    2345     937
   0   4  22  401312   21627
   1   4  22    1567     887
   2   4  22   94220    5352
   3   4  22    2262     942
   4   4  22   18948    1917
   5   4  22     926     794
   6   4  22    6831    1074
   7   4  22     247     296
   8   4  22      99     137
  -8   5  22     433     411
  -7   5  22     537     515
  -6   5  22     614     592
  -5   5  22    8869    1123
  -4   5  22   20701    1895
  -3   5  22    3544     887
  -2   5  22   51838    3342
  -1   5  22    5653    1189
   0   5  22  274559   14560
   1   5  22   24289    2043
   2   5  22     789     674
   3   5  22     564     597
   4   5  22   45395    3095
   5   5  22     279     345
   6   5  22   14873    1446
   7   5  22     400     400
   8   5  22    8721     871
  -8   6  22    1287     559
  -6   6  22    1654     959
  -5   6  22    1539     789
  -4   6  22     619     614
  -3   6  22    6886    1085
  -2   6  22   68545    4174
  -1   6  22     586     592
   0   6  22   46086    3073
   1   6  22    8513    1293
   2   6  22    1906     849
   3   6  22    5335    1200
   4   6  22   73875    3993
   5   6  22    1999     970
   6   6  22     778     657
   7   6  22     323     334
  -8   7  22    7362     838
  -7   7  22    1424     608
  -6   7  22    2027     718
  -5   7  22     920     690
  -4   7  22   26628    1950
  -3   7  22    2969     964
  -2   7  22  181900    9510
  -1   7  22     641     597
   0   7  22    3473    1035
   1   7  22     548     570
   2   7  22   52287    3243
   3   7  22     372     427
   4   7  22   23884    1868
   5   7  22     646     624
   6   7  22    3845     761
   7   7  22     296     312
  -7   8  22    1868     586
  -6   8  22   25768    1835
  -5   8  22    4580    1013
  -4   8  22   95979    4914
  -3   8  22    1326     937
  -2   8  22   76510    4580
  -1   8  22   17075    1578
   0   8  22   93070    5177
   1   8  22     329     383
   2   8  22     383     433
   3   8  22    2761     838
   4   8  22   24820    1906
   5   8  22    1359     844
   6   8  22   13295    1238
   7   8  22     679     455
  -7   9  22     142     175
  -6   9  22     159     203
  -5   9  22    5396    1019
  -4   9  22   21046    1841
  -3   9  22   18959    1665
  -2   9  22    4070    1052
  -1   9  22   32369    2460
   0   9  22  213584   11635
   1   9  22   54774    3544
   2   9  22    5461    1085
   3   9  22    6573    1030
   4   9  22   19321    1726
   5   9  22     230     279
   6   9  22   19441    1474
   7   9  22     992     646
  -7  10  22     279     312
  -6  10  22     252     290
  -5  10  22     219     274
  -4  10  22    9477    1254
  -3  10  22     329     383
  -2  10  22   13837    1348
  -1  10  22     679     635
   0  10  22     986     756
   1  10  22    2202     931
   2  10  22    6530    1068
   3  10  22    2553     893
   4  10  22   11821    1353
   5  10  22     153     197
   6  10  22    1758     515
  -6  11  22     559     477
  -5  11  22     570     493
  -4  11  22    6815     942
  -3  11  22     329     378
  -2  11  22   77107    4278
  -1  11  22    4229     860
   0  11  22   35382    2339
   1  11  22     296     351
   2  11  22   19359    1775
   3  11  22     170     219
   4  11  22    7560     948
   5  11  22    1052     520
   6  11  22    2744     608
  -6  12  22    4558     740
  -5  12  22     197     236
  -4  12  22   23166    1649
  -3  12  22     427     449
  -2  12  22   32972    2279
  -1  12  22    3599     981
   0  12  22   16982    1621
   1  12  22    1222     767
   2  12  22     466     488
   3  12  22    1161     734
   4  12  22    3599     674
   5  12  22     110     148
  -5  13  22    1342     537
  -4  13  22     137     175
  -3  13  22    1430     614
  -2  13  22     394     422
  -1  13  22     296     340
   0  13  22     537     542
   1  13  22     236     285
   2  13  22   47833    2783
   3  13  22     142     186
   4  13  22    1567     624
   5  13  22     126     170
  -4  14  22    4563     641
  -3  14  22    3626     635
  -2  14  22     334     367
  -1  14  22     449     400
   0  14  22    1238     614
   1  14  22     296     301
   2  14  22   11367    1046
   3  14  22    2125     553
   4  14  22    4634     701
  -4  15  22    5407     701
  -3  15  22    1063     509
  -2  15  22    6557     844
  -1  15  22     345     345
   0  15  22     471     378
   1  15  22     208     241
   2  15  22     860     466
   3  15  22     181     214
  -2  16  22    8518     844
  -1  16  22    2109     548
   0  16  22   24136    1687
   1  16  22     520     405
   2  16  22    2503     646
  -8   1  23    1090     581
  -7   1  23    2586     734
  -6   1  23   38323    2613
  -5   1  23   10227    1238
  -4   1  23   30430    2208
  -3   1  23    7642    1227
  -2   1  23   52511    3320
  -1   1  23    7516    1134
   0   1  23  251929   13174
   1   1  23   16872    1660
   2   1  23     537     526
   3   1  23     318     383
   4   1  23  114751    6393
   5   1  23     860     685
   6   1  23     685     635
   7   1  23     126     170
   8   1  23      99     131
  -8   2  23    1172     515
  -7   2  23     252     296
  -6   2  23    2668     948
  -5   2  23     263     329
  -4   2  23  120344    6623
  -3   2  23    2273    1041
  -2   2  23   29126    2268
  -1   2  23    7417    1167
   0   2  23  356179   19107
   1   2  23    5308    1134
   2   2  23   43363    2964
   3   2  23     340     405
   4   2  23   61380    3851
   5   2  23    4103     959
   6   2  23    9619    1260
   7   2  23     181     225
   8   2  23     131     170
  -8   3  23     153     192
  -7   3  23    1627     805
  -6   3  23     367     422
  -5   3  23    2339     844
  -4   3  23   78247    4612
  -3   3  23    4596    1041
  -2   3  23   78723    4601
  -1   3  23    3725    1008
   0   3  23    2575    1008
   1   3  23    5434    1139
   2   3  23  141511    7680
   3   3  23     838     756
   4   3  23   47220    3183
   5   3  23     805     619
   6   3  23   13459    1380
   7   3  23     372     383
   8   3  23    3950     789
  -8   4  23    2712     592
  -7   4  23     740     526
  -6   4  23    2224     997
  -5   4  23    4919    1024
  -4   4  23     641     630
  -3   4  23     438     488
  -2   4  23  453177   25653
  -1   4  23   22887    1978
   0   4  23     367     427
   1   4  23   13410    1528
   2   4  23   46447    3133
   3   4  23    5708    1178
   4   4  23   35020    2345
   5   4  23     838     750
   6   4  23    1019     646
   7   4  23     394     405
  -8   5  23    3676     608
  -7   5  23    1802     597
  -6   5  23    4968    1063
  -5   5  23   15574    1441
  -4   5  23    1879    1172
  -3   5  23   15590    1512
  -2   5  23   17266    1682
  -1   5  23   67970    4114
   0   5  23   22175    1972
   1   5  23   19803    1841
   2   5  23   15146    1501
   3   5  23    2339    1161
   4   5  23    4349     986
   5   5  23    2262     866
   6   5  23     192     247
   7   5  23     488     444
  -8   6  23    3867     674
  -7   6  23     203     241
  -6   6  23   16045    1419
  -5   6  23    1337     871
  -4   6  23     893     646
  -3   6  23     981     750
  -2   6  23  111404    6009
  -1   6  23    1304     745
   0   6  23   29597    2339
   1   6  23    1495     833
   2   6  23   19441    1873
   3   6  23    3626    1107
   4   6  23    8787    1254
   5   6  23     581     586
   6   6  23    5626     866
   7   6  23     378     345
  -7   7  23      82     110
  -6   7  23    6349     887
  -5   7  23    1359     876
  -4   7  23    6946    1041
  -3   7  23    3090     964
  -2   7  23   28967    2312
  -1   7  23    9044    1183
   0   7  23    4508     986
   1   7  23    8387    1282
   2   7  23     811     729
   3   7  23    5944    1101
   4   7  23   74686    3988
   5   7  23     509     520
   6   7  23   19178    1539
   7   7  23     104     137
  -7   8  23    2876     504
  -6   8  23   14045    1216
  -5   8  23    4070     964
  -4   8  23     444     449
  -3   8  23     767     718
  -2   8  23   86847    5051
  -1   8  23    1736     920
   0   8  23   37644    2723
   1   8  23    1331     898
   2   8  23     345     405
   3   8  23    1545     844
   4   8  23   13339    1468
   5   8  23     553     493
   6   8  23     509     482
   7   8  23    2635     668
  -7   9  23      66      93
  -6   9  23     460     400
  -5   9  23    7242     909
  -4   9  23    1260     882
  -3   9  23    1501     942
  -2   9  23  208133   10414
  -1   9  23     498     520
   0   9  23    1200     822
   1   9  23     170     219
   2   9  23   44097    2723
   3   9  23     444     488
   4   9  23    6272    1019
   5   9  23     279     323
   6   9  23    1676     570
  -6  10  23   11547    1101
  -5  10  23     323     362
  -4  10  23    7198    1052
  -3  10  23     274     334
  -2  10  23    7905    1117
  -1  10  23    5062     959
   0  10  23   50139    2991
   1  10  23    7444    1101
   2  10  23   55869    3358
   3  10  23    8567    1211
   4  10  23    2832     718
   5  10  23     422     433
   6  10  23     110     142
  -6  11  23    1074     509
  -5  11  23     679     455
  -4  11  23    1030     603
  -3  11  23     444     460
  -2  11  23    4908    1030
  -1  11  23     898     740
   0  11  23   14051    1501
   1  11  23     257     318
   2  11  23   80246    4344
   3  11  23     290     340
   4  11  23    5133     761
   5  11  23     559     455
  -5  12  23     225     252
  -4  12  23     362     378
  -3  12  23     170     214
  -2  12  23    7713    1085
  -1  12  23    1545     805
   0  12  23     312     351
   1  12  23     679     608
   2  12  23   13629    1243
   3  12  23     279     323
   4  12  23   13317    1156
   5  12  23     383     367
  -5  13  23    4202     685
  -4  13  23     696     515
  -3  13  23    7291     855
  -2  13  23   17491    1369
  -1  13  23   10151    1046
   0  13  23    8546     986
   1  13  23    3424     712
   2  13  23    1276     570
   3  13  23    1123     515
   4  13  23    2399     531
  -4  14  23     126     159
  -3  14  23    1846     537
  -2  14  23    1682     526
  -1  14  23     372     345
   0  14  23     570     493
   1  14  23     444     433
   2  14  23   15568    1326
   3  14  23     318     318
   4  14  23   10041     937
  -3  15  23    2673     635
  -2  15  23   10594     931
  -1  15  23    4514     646
   0  15  23     236     268
   1  15  23     312     323
   2  15  23     351     334
   3  15  23    3424     614
  -1  16  23     707     542
   0  16  23     126     164
   1  16  23    3878     696
  -8   0  24    1243     509
  -7   0  24     701     498
  -6   0  24   66310    3769
  -5   0  24    1013     838
  -4   0  24  343383   19030
  -3   0  24    6557    1068
  -2   0  24     471     488
  -1   0  24   41769    2832
   0   0  24    6546    1156
   1   0  24   22942    1950
   2   0  24  211880   11279
   3   0  24     290     351
   4   0  24   35234    2356
   5   0  24     652     619
   6   0  24   11728    1172
   7   0  24     279     323
  -8   1  24    2942     608
  -7   1  24    2284     674
  -6   1  24     871     718
  -5   1  24    1424     948
  -4   1  24    1369     882
  -3   1  24   10896    1271
  -2   1  24    3955    1008
  -1   1  24     394     438
   0   1  24    2010    1074
   1   1  24    5949    1139
   2   1  24    5730    1107
   3   1  24    4733    1145
   4   1  24   24530    1901
   5   1  24     115     153
   6   1  24   11148    1189
   7   1  24     126     164
  -8   2  24    4130     652
  -7   2  24     531     449
  -6   2  24   32939    2262
  -5   2  24    8798    1101
  -4   2  24    5719    1150
  -3   2  24    2903     860
  -2   2  24   58028    3648
  -1   2  24    2109     915
   0   2  24  181746    9641
   1   2  24    2805    1008
   2   2  24     515     504
   3   2  24    1928     997
   4   2  24   26278    1961
   5   2  24    2093     909
   6   2  24     247     301
   7   2  24     225     268
  -8   3  24     493     383
  -7   3  24    3944     679
  -6   3  24    2120     992
  -5   3  24   10435    1216
  -4   3  24   36636    2662
  -3   3  24   24941    1945
  -2   3  24  111602    6245
  -1   3  24    5735    1189
   0   3  24  298738   16313
   1   3  24    3692    1079
   2   3  24  219922   11756
   3   3  24    5100    1112
   4   3  24   46069    2788
   5   3  24     362     416
   6   3  24    1572     701
   7   3  24     307     323
  -8   4  24     498     455
  -7   4  24     290     296
  -6   4  24    7976    1145
  -5   4  24    3363     882
  -4   4  24    9855    1233
  -3   4  24     236     296
  -2   4  24   19808    1698
  -1   4  24    7850    1276
   0   4  24    7099    1315
   1   4  24    8020    1287
   2   4  24     203     263
   3   4  24    1397     876
   4   4  24    1561    1035
   5   4  24     504     509
   6   4  24    2618     745
   7   4  24     153     192
  -8   5  24    4339     679
  -7   5  24    3457     646
  -6   5  24     340     378
  -5   5  24    6672    1128
  -4   5  24  131306    6464
  -3   5  24     805     668
  -2   5  24  232576   12446
  -1   5  24    1495     822
   0   5  24   12216    1408
   1   5  24     345     411
   2   5  24   35590    2640
   3   5  24    6552    1205
   4   5  24   11169    1271
   5   5  24    1676     893
   6   5  24   20575    1545
   7   5  24     247     285
  -7   6  24     290     290
  -6   6  24   22536    1638
  -5   6  24    1934     876
  -4   6  24    1052     723
  -3   6  24     482     515
  -2   6  24    1479     887
  -1   6  24    1052     838
   0   6  24     548     553
   1   6  24    9154    1309
   2   6  24    9597    1337
   3   6  24    1123     871
   4   6  24     279     340
   5   6  24     646     592
   6   6  24   14500    1260
   7   6  24     833     520
  -7   7  24      77     104
  -6   7  24    1978     641
  -5   7  24    1150     805
  -4   7  24    1835     876
  -3   7  24     635     608
  -2   7  24    1227     822
  -1   7  24    1233     816
   0   7  24  119747    6727
   1   7  24     433     477
   2   7  24    1797     816
   3   7  24    1309     953
   4   7  24     389     438
   5   7  24     389     422
   6   7  24    2920     679
   7   7  24    3144     718
  -7   8  24    1019     477
  -6   8  24    2394     657
  -5   8  24     236     279
  -4   8  24    2854     942
  -3   8  24     531     548
  -2   8  24    3380     931
  -1   8  24    1030     805
   0   8  24    3369    1030
   1   8  24   12331    1348
   2   8  24  115064    5823
   3   8  24    2728    1002
   4   8  24     515     509
   5   8  24     137     181
   6   8  24   16176    1342
  -6   9  24    2432     624
  -5   9  24    8080     942
  -4   9  24    3528     871
  -3   9  24    6130    1150
  -2   9  24   26332    1945
  -1   9  24    6973    1063
   0   9  24    5648    1013
   1   9  24    2465     866
   2   9  24   22317    1736
   3   9  24    1216     772
   4   9  24     920     635
   5   9  24     274     312
   6   9  24     159     192
  -6  10  24   30961    2010
  -5  10  24    6672     838
  -4  10  24    3851     800
  -3  10  24    2202     866
  -2  10  24     970     723
  -1  10  24     729     603
   0  10  24   37732    2421
   1  10  24    1205     876
   2  10  24    3347     970
   3  10  24     800     603
   4  10  24     225     274
   5  10  24     394     383
   6  10  24    3347     778
  -6  11  24    4536     789
  -5  11  24     542     422
  -4  11  24     433     433
  -3  11  24     860     597
  -2  11  24     449     471
  -1  11  24     274     312
   0  11  24    2350     904
   1  11  24    9011    1222
   2  11  24   20164    1704
   3  11  24    2536     729
   4  11  24   10381    1002
   5  11  24     509     433
  -5  12  24     553     460
  -4  12  24    1742     608
  -3  12  24    4360     729
  -2  12  24     378     400
  -1  12  24    4229     794
   0  12  24    1375     652
   1  12  24     405     383
   2  12  24    4585     822
   3  12  24     696     493
   4  12  24   12413    1090
   5  12  24    1824     712
  -4  13  24     181     219
  -3  13  24     427     405
  -2  13  24     137     181
  -1  13  24     597     471
   0  13  24   10485    1030
   1  13  24     296     334
   2  13  24    3506     663
   3  13  24     663     493
   4  13  24     137     175
  -4  14  24    2531     624
  -3  14  24    5834     734
  -2  14  24     570     466
  -1  14  24    7236     827
   0  14  24     416     400
   1  14  24    3402     668
   2  14  24     131     170
   3  14  24     603     433
  -2  15  24     367     334
  -1  15  24     340     340
   0  15  24     378     340
   1  15  24     750     488
   2  15  24    5500     783
  -8   1  25     148     192
  -7   1  25    1353     559
  -6   1  25     531     509
  -5   1  25     882     712
  -4   1  25  160119    7779
  -3   1  25     312     378
  -2   1  25   17047    1556
  -1   1  25   10320    1369
   0   1  25     734     652
   1   1  25   15919    1567
   2   1  25   10523    1282
   3   1  25    3462    1019
   4   1  25    4360     948
   5   1  25    2021     898
   6   1  25    9411    1057
   7   1  25     416     362
  -8   2  25     887     586
  -7   2  25     307     329
  -5   2  25     849     635
  -4   2  25   13547    1391
  -3   2  25    3374     953
  -2   2  25   35086    2421
  -1   2  25    3062     992
   0   2  25   10435    1408
   1   2  25     876     778
   2   2  25  192023   10112
   3   2  25     729     707
   4   2  25    3391     981
   5   2  25     225     285
   6   2  25     937     586
   7   2  25    1128     597
  -8   3  25    3785     668
  -7   3  25     614     471
  -6   3  25     296     345
  -5   3  25    7067    1161
  -4   3  25    2547     849
  -3   3  25     685     619
  -2   3  25   93081    5144
  -1   3  25    4202    1008
   0   3  25     734     707
   1   3  25    5544    1046
   2   3  25    9690    1495
   3   3  25    2531    1128
   4   3  25    2169     882
   5   3  25    1550     876
   6   3  25    5111     811
   7   3  25     356     356
  -7   4  25    1408     614
  -6   4  25   20389    1567
  -5   4  25   19206    1704
  -4   4  25    7570    1085
  -3   4  25   13919    1545
  -2   4  25     372     416
  -1   4  25   27910    2093
   0   4  25  721863   46414
   1   4  25   28540    2142
   2   4  25   29208    2361
   3   4  25    1359     964
   4   4  25    4366     981
   5   4  25     427     466
   6   4  25   23002    1731
   7   4  25     181     219
  -7   5  25    2284     630
  -6   5  25    1271     635
  -5   5  25    8288    1238
  -4   5  25   33848    2257
  -3   5  25    6754    1117
  -2   5  25   18543    1802
  -1   5  25    4136    1096
   0   5  25  150982    8255
   1   5  25    4678    1041
   2   5  25    2859    1074
   3   5  25     142     186
   4   5  25    6332    1156
   5   5  25     285     340
   6   5  25     296     329
   7   5  25     148     186
  -7   6  25    1873     493
  -6   6  25     394     405
  -5   6  25    3736     975
  -4   6  25   57255    3385
  -3   6  25    9291    1200
  -2   6  25  120503    6721
  -1   6  25    8496    1287
   0   6  25     887     761
   1   6  25    4191    1074
   2   6  25    8151    1150
   3   6  25     405     427
   4   6  25    1474     860
   5   6  25     416     444
   6   6  25   14960    1353
   7   6  25    2712     800
  -7   7  25    1139     603
  -6   7  25   18630    1457
  -5   7  25     247     279
  -4   7  25   13240    1430
  -3   7  25    6546    1046
  -2   7  25   22695    1791
  -1   7  25     975     772
   0   7  25     449     488
   1   7  25    5577     981
   2   7  25   44338    2750
   3   7  25    9827    1271
   4   7  25    2317     959
   5   7  25     208     252
   6   7  25    4558     740
  -7   8  25    3944     663
  -6   8  25    2613     679
  -5   8  25    2224     668
  -4   8  25     827     696
  -3   8  25     279     340
  -2   8  25    2607     876
  -1   8  25    8830    1134
   0   8  25     438     444
   1   8  25     959     663
   2   8  25    5993    1046
   3   8  25     729     657
   4   8  25     466     482
   5   8  25     334     356
   6   8  25    2783     608
  -6   9  25     219     247
  -5   9  25     712     592
  -4   9  25   10222    1117
  -3   9  25    3484     920
  -2   9  25   53590    3226
  -1   9  25    4202     876
   0   9  25   12605    1309
   1   9  25    9263    1254
   2   9  25   26738    1999
   3   9  25    4245    1024
   4   9  25   14226    1243
   5   9  25     570     488
   6   9  25     411     416
  -6  10  25     170     214
  -5  10  25    3336     701
  -4  10  25   48753    2827
  -3  10  25    5407     898
  -2  10  25    1019     729
  -1  10  25     827     668
   0  10  25     926     718
   1  10  25    6157    1063
   2  10  25    8677    1194
   3  10  25     137     175
   4  10  25    1282     603
   5  10  25     630     488
  -5  11  25    1309     488
  -4  11  25   10808    1035
  -3  11  25    6973     920
  -2  11  25    1490     635
  -1  11  25    4415     898
   0  11  25     542     498
   2  11  25   21747    1605
   3  11  25     247     296
   4  11  25     482     422
   5  11  25      66      93
  -5  12  25     767     570
  -4  12  25     268     268
  -3  12  25     570     449
  -2  12  25     214     252
  -1  12  25     789     619
   0  12  25    4459     789
   1  12  25    1879     635
   2  12  25    1978     652
   3  12  25      93     121
   4  12  25   11361    1024
  -4  13  25     307     323
  -3  13  25     301     279
  -2  13  25     148     192
  -1  13  25    1134     537
   0  13  25     236     274
   1  13  25    1117     531
   2  13  25    1912     592
   3  13  25     279     290
  -3  14  25      66      88
  -2  14  25     471     405
  -1  14  25     959     460
   0  14  25     959     520
   1  14  25     411     378
   2  14  25    4727     646
  -1  15  25    4678     729
   0  15  25    3237     674
   1  15  25    6300     750
  -7   0  26    5177     794
  -6   0  26   22438    1638
  -5   0  26    6278    1107
  -4   0  26    2679     898
  -3   0  26    4771    1096
  -2   0  26  113979    6343
  -1   0  26   23374    1868
   0   0  26   23676    1890
   1   0  26    2629     860
   2   0  26   57436    3648
   3   0  26    1446     959
   4   0  26    2454     882
   5   0  26     307     362
   7   0  26     444     394
  -7   1  26    1063     603
  -6   1  26     515     498
  -5   1  26    8633    1282
  -4   1  26   35448    2312
  -3   1  26     624     592
  -2   1  26   63259    3922
  -1   1  26     531     493
   0   1  26   34653    2410
   1   1  26     657     635
   2   1  26    7592    1287
   3   1  26     351     372
   4   1  26    8633    1150
   5   1  26    7675    1090
   6   1  26     619     477
   7   1  26     400     372
  -7   2  26      82     110
  -6   2  26   11268    1134
  -5   2  26    1128     860
  -4   2  26   39967    2525
  -3   2  26    1945     920
  -2   2  26     745     701
  -1   2  26   11942    1364
   0   2  26     800     723
   1   2  26    3824    1002
   2   2  26     356     416
   3   2  26   10759    1271
   4   2  26   25932    2065
   5   2  26     898     734
   6   2  26     920     564
   7   2  26     345     345
  -7   3  26     192     230
  -6   3  26   13876    1243
  -5   3  26     438     466
  -4   3  26    1134     833
  -3   3  26     597     581
  -2   3  26    3561    1030
  -1   3  26    5807    1123
   0   3  26    1572     898
   1   3  26     422     471
   2   3  26  344610   19841
   3   3  26     657     641
   4   3  26   20027    1758
   5   3  26     203     252
   6   3  26    3248     674
   7   3  26      71      99
  -7   4  26     690     422
  -6   4  26    8009     926
  -5   4  26     597     564
  -4   4  26    3993     871
  -3   4  26     564     559
  -2   4  26   11701    1485
  -1   4  26     170     225
   0   4  26    8025    1375
   1   4  26    6398    1167
   2   4  26   21030    1786
   3   4  26     619     624
   4   4  26    4180    1074
   5   4  26     208     257
   6   4  26    4771     778
   7   4  26     153     197
  -7   5  26     926     493
  -6   5  26    2805     674
  -5   5  26    6628    1090
  -4   5  26   74582    4169
  -3   5  26   22438    1764
  -2   5  26   64639    3588
  -1   5  26   31591    2438
   0   5  26    2586    1194
   1   5  26   31262    2438
   2   5  26    1254     986
   3   5  26    5801    1052
   4   5  26    1693     866
   5   5  26    1928     690
   6   5  26     170     208
  -7   6  26     153     192
  -6   6  26    4426     740
  -5   6  26   15711    1348
  -4   6  26   22503    1846
  -3   6  26   21742    1742
  -2   6  26   28173    2054
  -1   6  26    4037     898
   0   6  26  116970    5982
   1   6  26    5954    1024
   2   6  26     997     805
   3   6  26     559     559
   4   6  26    9340    1222
   5   6  26     400     422
   6   6  26     608     488
  -7   7  26    6913     761
  -6   7  26   18882    1479
  -5   7  26     767     630
  -4   7  26    2399     915
  -3   7  26    2328     920
  -2   7  26    1304     729
  -1   7  26    3090     926
   0   7  26     882     756
   1   7  26     318     372
   2   7  26     871     723
   3   7  26    2646    1013
   4   7  26     159     208
   5   7  26     614     537
   6   7  26      77     104
  -6   8  26     274     290
  -5   8  26    2602     630
  -4   8  26   58121    3331
  -3   8  26     378     411
  -2   8  26   11772    1364
  -1   8  26     734     575
   0   8  26     794     624
   1   8  26     630     537
   2   8  26    7899    1178
   3   8  26     323     372
   4   8  26   12900    1161
   5   8  26     466     433
   6   8  26     477     433
  -6   9  26     603     449
  -5   9  26     334     318
  -4   9  26     241     285
  -3   9  26     279     329
  -2   9  26    1961     904
  -1   9  26     986     729
   0   9  26   20778    1786
   1   9  26     274     334
   2   9  26   20597    1736
   3   9  26    1627     816
   4   9  26     394     378
   5   9  26     197     236
  -5  10  26    2230     526
  -4  10  26     126     164
  -3  10  26     290     334
  -2  10  26    8452    1002
  -1  10  26     794     624
   0  10  26    8682    1117
   1  10  26    6206    1002
   2  10  26    3922     761
   3  10  26     630     575
   4  10  26    1369     592
   5  10  26     252     279
  -5  11  26     778     515
  -4  11  26    7532     876
  -3  11  26    4760     756
  -2  11  26     734     520
  -1  11  26    4947     816
   0  11  26     981     641
   1  11  26    5133     794
   2  11  26    2936     668
   3  11  26    1939     553
   4  11  26     351     345
  -4  12  26     257     274
  -3  12  26     876     608
  -2  12  26   14051    1161
   0  12  26     696     548
   1  12  26    1485     608
   2  12  26    4569     679
   3  12  26    2213     520
   4  12  26   18548    1375
  -3  13  26     214     230
  -2  13  26     340     351
  -1  13  26     126     159
   0  13  26     290     307
   1  13  26     679     471
   2  13  26     241     263
   3  13  26     236     274
  -2  14  26   10545     948
  -1  14  26    1271     449
   0  14  26     811     520
   1  14  26     137     170
   2  14  26    2180     674
  -7   1  27     444     411
  -6   1  27    6322     849
  -5   1  27     942     646
  -4   1  27    7313    1041
  -3   1  27     756     685
  -2   1  27   21945    1950
  -1   1  27    4519    1085
   0   1  27     367     427
   1   1  27    3895    1090
   2   1  27     619     608
   3   1  27     351     411
   4   1  27   15639    1567
   5   1  27     203     257
   6   1  27    4706     718
   7   1  27    2755     679
  -7   2  27    3873     597
  -6   2  27     449     416
  -5   2  27    9318    1222
  -4   2  27    3396     986
  -3   2  27   13645    1342
  -2   2  27   68616    4196
  -1   2  27    5735    1145
   0   2  27   68260    4180
   1   2  27   13399    1561
   2   2  27     493     488
   3   2  27     876     657
   4   2  27   32490    2323
   5   2  27    1178     679
   6   2  27    3079     690
   7   2  27    4344     690
  -7   3  27    1123     509
  -6   3  27    1200     570
  -5   3  27     745     619
  -4   3  27     411     455
  -3   3  27     148     197
  -2   3  27    8310    1123
  -1   3  27    5034    1068
   0   3  27    8633    1249
   1   3  27   19682    1884
   2   3  27   24749    1906
   3   3  27   16982    1534
   4   3  27     296     351
   5   3  27    5188     844
   6   3  27     175     214
  -7   4  27     159     186
  -6   4  27    4196     745
  -5   4  27    2301     740
  -4   4  27     838     723
  -3   4  27    4908     970
  -2   4  27   26009    1906
  -1   4  27     405     460
   0   4  27   81615    4853
   1   4  27    3670     915
   2   4  27     992     712
   3   4  27     685     641
   4   4  27    3161     931
   5   4  27    1030     603
   6   4  27     345     340
  -7   5  27     444     427
  -6   5  27   33048    2186
  -5   5  27     208     257
  -4   5  27   50884    3062
  -3   5  27   11668    1254
  -2   5  27    4700    1024
  -1   5  27    8354    1139
   0   5  27   11942    1315
   1   5  27    4503    1008
   2   5  27  226802   11471
   3   5  27    2449     882
   4   5  27    3862     893
   5   5  27     389     389
   6   5  27    2038     542
  -6   6  27    3851     701
  -5   6  27    5593     794
  -4   6  27   13859    1380
  -3   6  27    8798    1183
  -2   6  27  104480    5319
  -1   6  27   13114    1375
   0   6  27   53634    3155
   1   6  27    8063    1057
   2   6  27    4032     986
   3   6  27    3046    1074
   4   6  27     334     389
   5   6  27     197     241
   6   6  27      77     110
  -6   7  27     208     241
  -5   7  27    1446     635
  -4   7  27    6108     904
  -3   7  27    7762    1139
  -2   7  27     772     679
  -1   7  27    9997    1194
   0   7  27   16625    1485
   1   7  27    4886    1057
   2   7  27    1222     767
   3   7  27    1780     844
   4   7  27   18888    1468
   5   7  27     131     170
   6   7  27     383     411
  -6   8  27    5029     668
  -5   8  27    4782     712
  -4   8  27   56784    3226
  -3   8  27    7724    1041
  -2   8  27     356     416
  -1   8  27     389     433
   0   8  27    5166    1035
   1   8  27     383     433
   2   8  27   12265    1348
   3   8  27     378     400
   4   8  27    1621     679
   5   8  27    1172     449
  -5   9  27    3303     597
  -4   9  27   13843    1227
  -3   9  27    6672     898
  -2   9  27   24431    1879
  -1   9  27    6343     997
   0   9  27    3599     915
   1   9  27    6469    1052
   2   9  27    1961     767
   3   9  27    3232     729
   4   9  27   15311    1331
   5   9  27     230     257
  -5  10  27     181     214
  -4  10  27    2120     646
  -3  10  27     137     181
  -2  10  27    8348     964
  -1  10  27     159     203
   0  10  27    1156     635
   1  10  27     153     197
   2  10  27     405     427
   3  10  27     312     340
   4  10  27     351     345
  -4  11  27    3073     592
  -3  11  27    1501     553
  -2  11  27    2690     624
  -1  11  27     575     526
   0  11  27     498     471
   1  11  27    4804     811
   2  11  27    1112     592
   3  11  27    3090     663
   4  11  27   15738    1249
  -4  12  27    9192     920
  -3  12  27     553     444
  -2  12  27    1096     559
  -1  12  27    2158     542
   0  12  27     208     247
   1  12  27     767     570
   2  12  27     931     509
   3  12  27     329     329
  -3  13  27    1375     646
  -2  13  27    1249     482
  -1  13  27     652     405
   0  13  27   23703    1654
   1  13  27     121     153
   2  13  27    1616     581
  -1  14  27    1780     701
   0  14  27    1446     690
  -7   0  28     241     268
  -6   0  28     208     247
  -5   0  28    3084     756
  -4   0  28    3939    1041
  -3   0  28   17299    1534
  -2   0  28   17086    1506
  -1   0  28    1150     729
   0   0  28  125532    6365
   1   0  28    5177    1052
   2   0  28   10989    1304
   3   0  28    2640     948
   4   0  28     422     460
   5   0  28    1172     657
   6   0  28   29247    1950
  -7   1  28     142     175
  -6   1  28    3205     646
  -5   1  28     164     208
  -4   1  28   25324    1999
  -3   1  28    1216     729
  -2   1  28   15886    1463
  -1   1  28   10540    1238
   0   1  28   66420    3730
   1   1  28   21961    1769
   2   1  28    2032     811
   3   1  28    5319    1085
   4   1  28   13969    1446
   5   1  28    1857     668
   6   1  28     164     203
  -7   2  28    2580     603
  -6   2  28     614     520
  -5   2  28    4454     800
  -4   2  28    3363     942
  -3   2  28   14171    1364
  -2   2  28   17540    1556
  -1   2  28    9833    1222
   0   2  28    4360     931
   1   2  28    5894    1024
   2   2  28    1205     898
   3   2  28     427     471
   4   2  28   21528    1813
   5   2  28     493     482
   6   2  28    1638     526
  -7   3  28     186     230
  -6   3  28     537     416
  -5   3  28     279     323
  -4   3  28   71087    3928
  -3   3  28    2706     915
  -2   3  28    1616     805
  -1   3  28     772     668
   0   3  28   23495    1808
   1   3  28    7171    1052
   2   3  28    8913    1167
   3   3  28    4251     997
   4   3  28     816     690
   5   3  28     372     362
   6   3  28     274     296
  -7   4  28    6146     701
  -6   4  28     186     225
  -5   4  28    3528     729
  -4   4  28    1862     844
  -3   4  28     219     268
  -2   4  28   25483    1879
  -1   4  28    1621     833
   0   4  28   32331    2219
   1   4  28     477     509
   2   4  28   16061    1474
   3   4  28     772     690
   4   4  28   37820    2377
   5   4  28     904     542
   6   4  28    1660     575
  -6   5  28    2487     608
  -5   5  28     509     427
  -3   5  28     794     685
  -2   5  28   28622    1994
  -1   5  28    4081     942
   0   5  28     608     542
   1   5  28    4979     970
   2   5  28     323     389
   3   5  28    2421     920
   4   5  28   12210    1139
   5   5  28     164     203
   6   5  28     449     427
  -6   6  28     312     312
  -5   6  28    2931     619
  -4   6  28   49849    2914
  -3   6  28     318     367
  -2   6  28   45078    2838
  -1   6  28     871     657
   0   6  28   16894    1506
   1   6  28    1446     778
   2   6  28     362     416
   4   6  28      82     115
   5   6  28     394     389
   6   6  28    6091     772
  -6   7  28    4437     652
  -5   7  28    2005     592
  -4   7  28    7379     926
  -2   7  28    8606    1123
  -1   7  28    7943    1161
   0   7  28    3955     959
   1   7  28   12846    1424
   2   7  28     159     208
   3   7  28    8031     975
   4   7  28    8431     942
   5   7  28     351     362
  -5   8  28    1117     526
  -4   8  28    2087     679
  -3   8  28    1578     685
  -2   8  28   17058    1523
  -1   8  28    1490     767
   0   8  28   68699    3813
   1   8  28    1391     811
   2   8  28     761     564
   3   8  28    1008     581
   4   8  28   13991    1249
   5   8  28     208     236
  -5   9  28     515     400
  -4   9  28     219     257
  -3   9  28     559     482
  -2   9  28   13005    1172
  -1   9  28    2449     712
   0   9  28    2416     723
   1   9  28    1112     608
   2   9  28    5270     805
   3   9  28     794     498
   4   9  28     394     345
  -5  10  28    1775     668
  -4  10  28    7992     838
  -3  10  28     307     323
  -2  10  28    4371     789
  -1  10  28     876     542
   0  10  28    5933     833
   1  10  28     597     471
   2  10  28    2569     646
   3  10  28     822     520
   4  10  28     279     290
  -4  11  28   26475    1830
  -3  11  28    3681     614
  -2  11  28     619     488
  -1  11  28     214     247
   0  11  28    8529     893
   1  11  28     279     301
   2  11  28    1632     553
   3  11  28     175     208
  -3  12  28    8009     794
  -2  12  28     455     400
  -1  12  28    1386     515
   0  12  28    6464     794
   1  12  28    1446     488
   2  12  28     225     257
   3  12  28    2783     619
  -2  13  28    5023     789
  -1  13  28    1134     575
   0  13  28     142     175
   1  13  28     482     460
  -6   1  29     624     509
  -5   1  29      99     137
  -4   1  29    4234     893
  -3   1  29     745     657
  -2   1  29   68430    3730
  -1   1  29     953     718
   0   1  29     526     520
   1   1  29     668     630
   2   1  29   33454    2350
   3   1  29    1364     811
   4   1  29    3895     800
   5   1  29     685     575
   6   1  29     383     367
  -6   2  29     909     488
  -5   2  29    7828     893
  -4   2  29    3774     992
  -3   2  29    5774    1057
  -2   2  29    1704     855
  -1   2  29    4454     964
   0   2  29   14281    1419
   1   2  29     920     767
   2   2  29   14911    1567
   3   2  29     734     603
   4   2  29   12281    1178
   5   2  29    2284     619
   6   2  29     148     181
  -6   3  29     301     318
  -5   3  29    1441     663
  -4   3  29    6552     942
  -3   3  29    5434    1090
  -2   3  29    2169     909
  -1   3  29   29132    2043
   0   3  29    6437    1030
   1   3  29   12687    1309
   2   3  29    5067    1101
   3   3  29    5916    1063
   4   3  29    7308     926
   5   3  29     734     509
   6   3  29     192     236
  -6   4  29    1490     509
  -5   4  29    3561     723
  -4   4  29   12320    1150
  -3   4  29    3226     855
  -2   4  29   14051    1457
  -1   4  29    2717     822
   0   4  29   14889    1446
   1   4  29    8819    1260
   2   4  29   45346    2838
   3   4  29     323     367
   4   4  29   10468    1074
   5   4  29     164     208
   6   4  29    4415     723
  -6   5  29    9263     931
  -5   5  29    2925     608
  -4   5  29    9307    1035
  -3   5  29    1978     898
  -2   5  29     866     745
  -1   5  29    6705    1139
   0   5  29     526     531
   1   5  29     214     268
   2   5  29  101226    5259
   3   5  29     263     312
   4   5  29    9981    1107
   5   5  29     882     515
  -6   6  29    1988     652
  -5   6  29      77     104
  -4   6  29   12583    1139
  -3   6  29     531     509
  -2   6  29    1424     767
  -1   6  29     263     318
   0   6  29   22306    1808
   1   6  29    2224     920
   2   6  29    3029     942
   3   6  29     257     307
   4   6  29    7812     909
   5   6  29      77      99
  -5   7  29     482     372
  -4   7  29   11668    1085
  -3   7  29     657     564
  -2   7  29   27368    1873
  -1   7  29     175     225
   0   7  29   57781    3342
   1   7  29     197     252
   2   7  29     247     296
   3   7  29     389     367
   4   7  29   18965    1528
   5   7  29     104     137
  -5   8  29     164     197
  -4   8  29     767     564
  -3   8  29     449     449
  -2   8  29    7603     937
  -1   8  29     257     285
   0   8  29     268     301
   1   8  29    3068     729
   2   8  29    2016     674
   3   8  29    5609     772
   4   8  29     460     367
  -5   9  29     356     372
  -4   9  29     646     416
  -3   9  29    1408     531
  -2   9  29     164     208
  -1   9  29    3035     679
   0   9  29     449     394
   1   9  29    3106     690
   2   9  29   18510    1441
   3   9  29    1035     630
   4   9  29    1758     553
  -4  10  29     756     471
  -3  10  29     553     433
  -2  10  29    7127     800
  -1  10  29     520     482
   0  10  29   17699    1380
   1  10  29     756     477
   2  10  29     356     362
   3  10  29     592     466
  -3  11  29     285     296
  -2  11  29    6765     761
  -1  11  29    2273     641
   0  11  29     252     274
   1  11  29    3840     663
   2  11  29    3281     619
   3  11  29    3840     696
  -2  12  29    8633     876
  -1  12  29     433     400
   0  12  29    2805     586
   1  12  29     121     153
   2  12  29   17305    1271
  -6   0  30    7970     800
  -5   0  30   12227    1101
  -4   0  30    1775     674
  -3   0  30   10917    1260
  -2   0  30   16264    1539
  -1   0  30   11224    1337
   0   0  30   34807    2443
   1   0  30    1753     904
   2   0  30   95951    5018
   3   0  30     707     619
   4   0  30    3813     772
   5   0  30     471     400
  -6   1  30    5467     674
  -5   1  30    1731     592
  -4   1  30    4262     767
  -3   1  30    1764     882
  -2   1  30   10304    1337
  -1   1  30   19282    1715
   0   1  30    2613     964
   1   1  30    9871    1315
   2   1  30     833     668
   3   1  30    8020    1008
   4   1  30   11093    1079
   5   1  30    3818     619
  -6   2  30    2114     581
  -5   2  30    2388     630
  -4   2  30     592     526
  -3   2  30     548     509
  -2   2  30   76324    4180
  -1   2  30     531     526
   0   2  30   33980    2399
   1   2  30     915     750
   2   2  30    7143    1117
   3   2  30     219     274
   4   2  30     203     247
   5   2  30     367     367
  -6   3  30     285     296
  -5   3  30     586     460
  -4   3  30    8672    1008
  -3   3  30     833     652
  -2   3  30    2394     871
  -1   3  30    4026    1035
   0   3  30   34029    2366
   1   3  30    1594     838
   2   3  30    8896    1167
   3   3  30     345     378
   4   3  30     312     323
   5   3  30    1249     488
  -6   4  30    8020     822
  -5   4  30     460     427
  -4   4  30    2996     718
  -3   4  30     548     520
  -2   4  30    1671     838
  -1   4  30     323     372
   0   4  30   44711    2810
   1   4  30    8721    1227
   2   4  30    1463     800
   3   4  30    1879     685
   4   4  30   19304    1501
   5   4  30     153     186
  -6   5  30    9422     937
  -5   5  30     203     241
  -3   5  30    1386     652
  -2   5  30    6458     997
  -1   5  30     362     405
   0   5  30    7943    1123
   1   5  30    5127     997
   2   5  30    2071     707
   3   5  30     586     564
   4   5  30    8003     866
   5   5  30     170     197
  -5   6  30    4300     624
  -4   6  30     433     372
  -3   6  30     504     493
  -2   6  30    2816     750
  -1   6  30     635     586
   0   6  30    1468     761
   1   6  30     372     405
   2   6  30    9247    1019
   3   6  30    1956     619
   4   6  30    2723     652
   5   6  30     351     378
  -5   7  30    1753     520
  -4   7  30    5472     811
  -2   7  30    7718     893
  -1   7  30   10786    1117
   0   7  30    1227     668
   1   7  30    5357     849
   2   7  30    8956     964
   3   7  30    1112     581
   4   7  30    7203     772
  -5   8  30    6628     756
  -4   8  30     915     482
  -3   8  30     279     296
  -2   8  30     745     537
  -1   8  30    1079     581
   0   8  30    2104     646
   1   8  30    1923     674
   2   8  30    9964     992
   3   8  30    1287     537
   4   8  30     148     181
  -4   9  30     372     372
  -3   9  30     378     372
  -2   9  30     279     307
  -1   9  30     340     329
   0   9  30     334     334
   1   9  30    2613     646
   2   9  30   14966    1254
   3   9  30     509     444
  -3  10  30     137     170
  -2  10  30   17409    1315
  -1  10  30     274     285
   0  10  30     400     372
   1  10  30     329     340
   2  10  30     685     438
   3  10  30     142     181
  -2  11  30   14768    1172
  -1  11  30    1578     531
   0  11  30     466     383
   1  11  30     121     153
   2  11  30   12955    1085
  -1  12  30    2838     657
   0  12  30    1227     652
  -6   1  31     115     153
  -5   1  31     871     553
  -4   1  31    1430     608
  -3   1  31     230     274
  -2   1  31    8535    1068
  -1   1  31    5905    1008
   0   1  31    9351    1238
   1   1  31    7406    1057
   3   1  31    1939     685
   4   1  31     405     411
   5   1  31     197     236
  -6   2  31    8211     959
  -5   2  31     345     345
  -4   2  31    3440     761
  -3   2  31     734     515
  -2   2  31   27718    1983
  -1   2  31     455     477
   0   2  31   69055    3818
   1   2  31    1736     789
   2   2  31    2060     685
   3   2  31    1485     794
   4   2  31     279     318
   5   2  31     964     515
  -5   3  31    4432     652
  -4   3  31    9625    1013
  -3   3  31    4640     805
  -2   3  31    8825    1150
  -1   3  31   16779    1523
   0   3  31    1846     855
   1   3  31   10151    1243
   2   3  31    4656     860
   3   3  31     362     394
   4   3  31     389     389
   5   3  31     203     230
  -5   4  31   16352    1227
  -4   4  31    2728     597
  -3   4  31    1517     652
  -2   4  31   18630    1457
  -1   4  31     225     279
   0   4  31   10512    1227
   1   4  31     537     515
   2   4  31    9307     997
   4   4  31     121     159
   5   4  31     208     252
  -5   5  31    2898     592
  -4   5  31     761     515
  -3   5  31    1074     592
  -2   5  31     351     356
  -1   5  31    9033    1019
   0   5  31   11246    1128
   1   5  31    7620     959
   2   5  31   13366    1172
   3   5  31    5138     729
   4   5  31   20789    1490
  -5   6  31      82     115
  -4   6  31    3385     690
  -3   6  31     340     362
  -2   6  31   43993    2553
  -1   6  31    2005     696
   0   6  31   21506    1567
   1   6  31     619     570
   2   6  31   21840    1638
   3   6  31     531     488
   4   6  31    4569     701
  -4   7  31    5171     652
  -3   7  31    4026     707
  -2   7  31    9438     970
  -1   7  31     624     531
   0   7  31     614     488
   1   7  31    1649     696
   2   7  31    5746     761
   3   7  31     351     356
   4   7  31      71     104
  -4   8  31     455     400
  -3   8  31    2323     548
  -2   8  31     509     400
  -1   8  31    3977     668
   0   8  31    4886     750
   1   8  31    1419     624
   2   8  31     323     318
   3   8  31     592     471
  -3   9  31    2328     559
  -2   9  31    7916     822
  -1   9  31    3676     696
   0   9  31     110     142
   1   9  31    2262     624
   2   9  31    3648     570
   3   9  31     997     641
  -3  10  31    4245     679
  -2  10  31     296     301
  -1  10  31    1233     444
   0  10  31    8326     800
   1  10  31     104     131
   2  10  31    3352     674
  -1  11  31    1079     663
   0  11  31     471     427
   1  11  31    4590     712
  -5   0  32    3758     586
  -4   0  32    8880     909
  -3   0  32     904     581
  -2   0  32    2569     679
  -1   0  32    1517     701
   0   0  32     548     526
   1   0  32    5259     800
   2   0  32     301     340
   3   0  32    5105     761
   4   0  32   16856    1348
   5   0  32    3813     740
  -5   1  32    2942     548
  -4   1  32     926     488
  -3   1  32    6179     860
  -2   1  32     323     362
  -1   1  32    4585     816
   1   1  32    6754     926
   2   1  32    4213     783
   3   1  32     312     340
   4   1  32    6108     761
   5   1  32    4136     701
  -5   2  32     312     301
  -4   2  32    4662     674
  -3   2  32     772     592
  -2   2  32   11668    1117
  -1   2  32     942     592
   0   2  32   81884    4333
   1   2  32     959     597
   2   2  32    1205     657
   3   2  32     444     427
   4   2  32    3971     619
  -5   3  32    2016     581
  -4   3  32    7017     898
  -3   3  32     866     592
  -2   3  32    1539     586
  -1   3  32     214     263
   0   3  32    2662     707
   1   3  32    3659     745
   2   3  32   89602    4722
   3   3  32    1813     603
   4   3  32   14314    1123
  -5   4  32     197     236
  -4   4  32    7779     887
  -3   4  32     126     164
  -2   4  32   10348    1024
  -1   4  32     740     504
   0   4  32    1523     679
   1   4  32    2794     871
   2   4  32    2898     756
   3   4  32    1068     619
   4   4  32     274     290
  -5   5  32    7258     882
  -4   5  32     416     389
  -3   5  32    4618     734
  -2   5  32     575     509
  -1   5  32    5944     827
   0   5  32     290     318
   1   5  32    1967     619
   2   5  32     970     520
   3   5  32     635     466
   4   5  32     515     405
  -4   6  32   15968    1238
  -3   6  32     844     526
  -2   6  32   20827    1523
  -1   6  32    6891     844
   0   6  32   16538    1397
   1   6  32    2536     657
   2   6  32    4267     756
   3   6  32     876     455
   4   6  32   10660     992
  -4   7  32      71      93
  -3   7  32     252     274
  -2   7  32     104     137
  -1   7  32    1315     520
   0   7  32    3950     696
   1   7  32    2558     592
   2   7  32    7707     871
   3   7  32      93     121
  -3   8  32     131     164
  -2   8  32    6524     734
  -1   8  32     422     400
   0   8  32   16280    1293
   1   8  32     882     493
   2   8  32     110     142
   3   8  32    1687     674
  -3   9  32    4180     696
  -2   9  32     110     142
  -1   9  32    2909     542
   0   9  32    5094     646
   1   9  32    5445     718
   2   9  32    1035     597
  -1  10  32    3155     696
   0  10  32    6508     794
   1  10  32    5138     712
  -5   1  33     811     570
  -4   1  33     723     471
  -3   1  33    2684     652
  -2   1  33    1041     581
  -1   1  33    2208     685
   0   1  33   10452    1035
   1   1  33     181     230
   2   1  33    1852     581
   3   1  33    1380     559
   4   1  33    4306     635
  -5   2  33     734     548
  -4   2  33   29351    1956
  -3   2  33     137     175
  -2   2  33     219     252
  -1   2  33     433     389
   0   2  33    3577     734
   1   2  33     685     581
   2   2  33   10446    1019
   3   2  33     772     603
   4   2  33     345     323
  -4   3  33    1293     482
  -3   3  33    5555     740
  -2   3  33    1912     586
  -1   3  33    2208     690
   0   3  33   17118    1320
   1   3  33     860     603
   2   3  33   10567    1013
   3   3  33     263     290
   4   3  33      82     115
  -4   4  33    2832     652
  -3   4  33     740     498
  -2   4  33    2536     646
  -1   4  33    6557     827
   1   4  33    8157     887
   2   4  33    1413     592
   3   4  33    1830     520
   4   4  33   13969    1107
  -4   5  33   12418    1046
  -3   5  33    3791     619
  -2   5  33    6694     783
  -1   5  33     411     400
   0   5  33    5735     761
   1   5  33     800     515
   2   5  33     274     285
   3   5  33    1430     504
  -4   6  33    3237     663
  -3   6  33    4585     603
  -2   6  33   16565    1331
  -1   6  33    3380     701
   0   6  33    4382     767
   1   6  33    2180     630
   2   6  33    5418     679
   3   6  33     142     181
  -3   7  33      88     121
  -2   7  33    4410     608
  -1   7  33     394     372
   0   7  33     498     422
   1   7  33    2164     531
   2   7  33     192     214
  -2   8  33    3687     619
  -1   8  33    1797     559
   0   8  33     186     219
   1   8  33    2027     537
   2   8  33    3489     668
  -1   9  33     586     493
   0   9  33    1189     652
   1   9  33    3533     657
  -4   0  34   24607    1726
  -3   0  34    1567     570
  -2   0  34   25593    1736
  -1   0  34    9285     959
   0   0  34    6020     800
   1   0  34    5155     761
   2   0  34   11246    1041
   3   0  34    1194     504
  -4   1  34    3687     575
  -3   1  34    7067     844
  -2   1  34    9641     937
  -1   1  34    3950     712
   0   1  34     882     581
   1   1  34    2049     608
   2   1  34    5555     783
   3   1  34      60      82
  -4   2  34      77      99
  -3   2  34     274     290
  -2   2  34    2514     597
  -1   2  34     668     531
   0   2  34     175     214
   1   2  34     449     416
   2   2  34     236     263
   3   2  34     121     153
  -4   3  34     504     471
  -3   3  34     345     334
  -2   3  34     959     509
  -1   3  34     750     488
   0   3  34     159     203
   1   3  34     159     197
   2   3  34   11043    1008
   3   3  34     783     466
  -4   4  34    1123     635
  -3   4  34      82     110
  -2   4  34     203     236
  -1   4  34     427     422
   0   4  34     153     192
   1   4  34    2876     657
   2   4  34    2377     564
   3   4  34     115     153
  -3   5  34     197     225
  -2   5  34    4245     652
  -1   5  34     356     351
   0   5  34   33059    2131
   1   5  34    1506     520
   2   5  34    5757     723
   3   5  34    5182     712
  -3   6  34    1764     657
  -2   6  34     131     164
  -1   6  34    2690     537
   0   6  34     608     411
   1   6  34    7401     778
   2   6  34      93     126
  -2   7  34    6354     794
  -1   7  34      71      99
   0   7  34    6612     767
   1   7  34      60      88
  -1   8  34    1830     657
   0   8  34    4974     778
  -3   1  35     148     186
  -2   1  35    6639     745
  -1   1  35     137     175
   0   1  35   10868    1035
   1   1  35     175     214
   2   1  35    9192     898
   3   1  35     170     214
  -3   2  35     701     471
  -2   2  35   36850    2377
  -1   2  35    6793     855
   0   2  35     340     340
   1   2  35    8255     811
   2   2  35    8140     876
  -3   3  35    3254     641
  -2   3  35    3243     570
  -1   3  35    1901     537
   0   3  35    2049     537
   1   3  35     159     192
   2   3  35    3632     592
  -3   4  35    4689     734
  -2   4  35     121     153
  -1   4  35     992     460
   0   4  35     833     488
   1   4  35    1589     570
   2   4  35    2208     635
  -2   5  35     378     372
  -1   5  35    1128     504
   0   5  35     153     186
   1   5  35     142     181
   2   5  35    2394     619
  -1   6  35     192     236
   0   6  35     219     263
   1   6  35    3517     685
  -2   0  36   48337    3051
  -1   0  36    2345     592
   0   0  36     301     312
   1   0  36    5834     707
   2   0  36    4415     745
  -2   1  36      93     126
  -1   1  36     181     214
   0   1  36   19951    1468
   1   1  36    1348     477
   2   1  36    4738     729
  -2   2  36     351     362
  -1   2  36    2646     570
   0   2  36     394     362
   1   2  36    2153     575
  -2   3  36    1030     646
  -1   3  36     219     252
   0   3  36    5472     718
   1   3  36     121     159
  -1   4  36    1884     723
   0   4  36     641     531
   1   4  36    4706     674



;
_shelx_hkl_checksum              9632
loop_
_space_group_symop_operation_xyz
'x, y, z'
'-x, y+1/2, -z+1/2'
'-x, -y, -z'
'x, -y-1/2, z-1/2'
loop_
_atom_site_label
_atom_site_type_symbol
_atom_site_fract_x
_atom_site_fract_y
_atom_site_fract_z
_atom_site_U_iso_or_equiv
_atom_site_adp_type
_atom_site_occupancy
_atom_site_site_symmetry_order
_atom_site_calc_flag
_atom_site_refinement_flags_posn
_atom_site_refinement_flags_adp
_atom_site_refinement_flags_occupancy
_atom_site_disorder_assembly
_atom_site_disorder_group
S(1) S 0.2240(2) 1.03500(7) 0.59133(5) 0.0794(5) Uani 1 1 d . . . . .
S(2) S 0.2786(2) 0.32083(15) 0.79874(5) 0.1071(7) Uani 1 1 d . . . . .
O11 O 0.0923(5) 1.0603(2) 0.56188(17) 0.0979(14) Uani 1 1 d . . . . .
O12 O 0.3595(5) 1.0835(2) 0.58442(19) 0.1061(15) Uani 1 1 d . . . . .
O13 O 0.1751(8) 1.0247(3) 0.63754(15) 0.132(2) Uani 1 1 d . . . . .
O21 O 0.1227(6) 0.2967(5) 0.79993(16) 0.151(3) Uani 1 1 d . . . . .
O22 O 0.3961(7) 0.2696(5) 0.8124(2) 0.174(3) Uani 1 1 d . . . . .
O23 O 0.3145(11) 0.3944(6) 0.82774(19) 0.203(4) Uani 1 1 d . . . . .
N(1) N 0.4899(4) 0.61066(18) 0.46728(10) 0.0495(8) Uani 1 1 d . . . . .
N(2) N 0.4114(4) 0.55265(18) 0.55728(10) 0.0493(8) Uani 1 1 d . . . . .
N(3) N 0.0894(4) 0.44723(19) 0.44299(11) 0.0514(8) Uani 1 1 d . . . . .
N(4) N -0.0077(4) 0.61007(18) 0.46583(10) 0.0487(8) Uani 1 1 d . . . . .
N14 N 0.1839(5) 0.6310(3) 0.25536(13) 0.0687(11) Uani 1 1 d . . . . .
N24 N -0.2240(5) 0.9333(2) 0.56920(13) 0.0614(10) Uani 1 1 d . . . . .
C(A1 C 0.5345(5) 0.6259(2) 0.42367(12) 0.0467(9) Uani 1 1 d . . . . .
C(A2 C 0.4387(5) 0.6829(2) 0.48519(13) 0.0479(9) Uani 1 1 d . . . . .
C(A3 C 0.3653(5) 0.6319(2) 0.56153(12) 0.0491(9) Uani 1 1 d . . . . .
C(A4 C 0.3727(5) 0.5127(2) 0.59637(12) 0.0505(9) Uani 1 1 d . . . . .
C(A5 C 0.1354(5) 0.3674(2) 0.43971(13) 0.0500(9) Uani 1 1 d . . . . .
C(A6 C 0.1267(5) 0.4855(2) 0.40335(13) 0.0508(9) Uani 1 1 d . . . . .
C(A7 C 0.0379(5) 0.6251(2) 0.42269(12) 0.0478(9) Uani 1 1 d . . . . .
C(A8 C -0.0595(5) 0.6818(2) 0.48358(12) 0.0474(9) Uani 1 1 d . . . . .
C(B1 C 0.5078(5) 0.7109(2) 0.41350(12) 0.0503(9) Uani 1 1 d . . . . .
H(B1 H 0.5253 0.7369 0.3859 0.060 Uiso 1 1 calc R U . . .
C(B2 C 0.4531(5) 0.7454(2) 0.45128(13) 0.0528(9) Uani 1 1 d . . . . .
H(B2 H 0.4288 0.8002 0.4549 0.063 Uiso 1 1 calc R U . . .
C(B3 C 0.2895(6) 0.6415(2) 0.60410(14) 0.0569(10) Uani 1 1 d . . . . .
H(B3 H 0.2459 0.6893 0.6151 0.068 Uiso 1 1 calc R U . . .
C(B4 C 0.2927(5) 0.5687(3) 0.62542(14) 0.0557(10) Uani 1 1 d . . . . .
H(B4 H 0.2511 0.5569 0.6536 0.067 Uiso 1 1 calc R U . . .
C(B5 C 0.2102(6) 0.3565(2) 0.39702(14) 0.0565(11) Uani 1 1 d . . . . .
H(B5 H 0.2538 0.3084 0.3865 0.068 Uiso 1 1 calc R U . . .
C(B6 C 0.2058(6) 0.4283(3) 0.37487(14) 0.0601(11) Uani 1 1 d . . . . .
H(B6 H 0.2465 0.4390 0.3464 0.072 Uiso 1 1 calc R U . . .
C(B7 C 0.0163(5) 0.7100(2) 0.41245(12) 0.0520(10) Uani 1 1 d . . . . .
H(B7 H 0.0393 0.7359 0.3852 0.062 Uiso 1 1 calc R U . . .
C(B8 C -0.0437(5) 0.7453(2) 0.44970(12) 0.0489(9) Uani 1 1 d . . . . .
H(B8 H -0.0699 0.7999 0.4530 0.059 Uiso 1 1 calc R U . . .
C(M1 C 0.3840(5) 0.6943(2) 0.52924(12) 0.0471(9) Uani 1 1 d . . . . .
C(M2 C 0.4049(5) 0.4312(2) 0.60679(12) 0.0465(8) Uani 1 1 d . . . . .
C(M3 C 0.0982(5) 0.5669(2) 0.39250(13) 0.0506(9) Uani 1 1 d . . . . .
C(M4 C -0.1166(5) 0.6933(2) 0.52756(12) 0.0467(8) Uani 1 1 d . . . . .
C11 C 0.3460(5) 0.7785(2) 0.54419(12) 0.0467(8) Uani 1 1 d . . . . .
C12 C 0.2426(5) 0.8281(2) 0.51875(14) 0.0521(9) Uani 1 1 d . . . . .
H12 H 0.1967 0.8082 0.4917 0.062 Uiso 1 1 calc R U . . .
C13 C 0.2069(6) 0.9056(3) 0.53277(16) 0.0596(11) Uani 1 1 d . . . . .
H13 H 0.1379 0.9377 0.5152 0.072 Uiso 1 1 calc R U . . .
C14 C 0.2730(6) 0.9353(2) 0.57249(16) 0.0576(10) Uani 1 1 d . . . . .
C15 C 0.3794(6) 0.8891(2) 0.59834(14) 0.0564(10) Uani 1 1 d . . . . .
H15 H 0.4266 0.9103 0.6249 0.068 Uiso 1 1 calc R U . . .
C16 C 0.4144(5) 0.8107(2) 0.58400(13) 0.0526(9) Uani 1 1 d . . . . .
H16 H 0.4850 0.7792 0.6014 0.063 Uiso 1 1 calc R U . . .
C21 C 0.3716(5) 0.4030(2) 0.65359(13) 0.0509(9) Uani 1 1 d . . . . .
C22 C 0.4334(6) 0.4448(3) 0.69167(15) 0.0638(12) Uani 1 1 d . . . . .
H22 H 0.4951 0.4907 0.6872 0.077 Uiso 1 1 calc R U . . .
C23 C 0.4057(7) 0.4202(4) 0.73563(15) 0.0710(13) Uani 1 1 d . . . . .
H23 H 0.4484 0.4488 0.7605 0.085 Uiso 1 1 calc R U . . .
C24 C 0.3138(6) 0.3524(4) 0.74210(15) 0.0706(14) Uani 1 1 d . . . . .
C25 C 0.2512(6) 0.3098(3) 0.70579(16) 0.0677(13) Uani 1 1 d . . . . .
H25 H 0.1900 0.2639 0.7107 0.081 Uiso 1 1 calc R U . . .
C26 C 0.2790(6) 0.3352(3) 0.66144(14) 0.0580(10) Uani 1 1 d . . . . .
H26 H 0.2350 0.3065 0.6368 0.070 Uiso 1 1 calc R U . . .
C31 C 0.1261(5) 0.5919(2) 0.34494(13) 0.0506(9) Uani 1 1 d . . . . .
C32 C 0.0589(6) 0.5482(3) 0.30822(14) 0.0608(11) Uani 1 1 d . . . . .
H32 H -0.0079 0.5047 0.3136 0.073 Uiso 1 1 calc R U . . .
C33 C 0.0920(7) 0.5699(3) 0.26403(16) 0.0696(13) Uani 1 1 d . . . . .
H33 H 0.0476 0.5401 0.2399 0.084 Uiso 1 1 calc R U . . .
C35 C 0.2475(6) 0.6761(3) 0.28948(17) 0.0672(12) Uani 1 1 d . . . . .
H35 H 0.3108 0.7203 0.2827 0.081 Uiso 1 1 calc R U . . .
C36 C 0.2203(6) 0.6576(3) 0.33426(15) 0.0580(10) Uani 1 1 d . . . . .
H36 H 0.2653 0.6893 0.3575 0.070 Uiso 1 1 calc R U . . .
C37 C 0.2225(9) 0.6484(5) 0.20687(18) 0.103(2) Uani 1 1 d . . . . .
H37A H 0.3342 0.6547 0.2047 0.154 Uiso 1 1 calc R U . . .
H37B H 0.1708 0.6976 0.1970 0.154 Uiso 1 1 calc R U . . .
H37C H 0.1873 0.6040 0.1878 0.154 Uiso 1 1 calc R U . . .
C41 C -0.1548(5) 0.7776(2) 0.54167(13) 0.0500(9) Uani 1 1 d . . . . .
C42 C -0.0863(6) 0.8107(2) 0.58139(14) 0.0554(10) Uani 1 1 d . . . . .
H42 H -0.0160 0.7800 0.5993 0.066 Uiso 1 1 calc R U . . .
C43 C -0.1231(6) 0.8889(3) 0.59403(16) 0.0638(12) Uani 1 1 d . . . . .
H43 H -0.0763 0.9109 0.6204 0.077 Uiso 1 1 calc R U . . .
C45 C -0.2895(6) 0.9046(3) 0.53105(16) 0.0603(11) Uani 1 1 d . . . . .
H45 H -0.3589 0.9371 0.5139 0.072 Uiso 1 1 calc R U . . .
C46 C -0.2567(5) 0.8269(3) 0.51613(15) 0.0540(9) Uani 1 1 d . . . . .
H46 H -0.3029 0.8077 0.4890 0.065 Uiso 1 1 calc R U . . .
C47 C -0.2652(9) 1.0158(4) 0.5858(2) 0.098(2) Uani 1 1 d . . . . .
H47A H -0.1833 1.0533 0.5785 0.147 Uiso 1 1 calc R U . . .
H47B H -0.2765 1.0143 0.6183 0.147 Uiso 1 1 calc R U . . .
H47C H -0.3624 1.0330 0.5712 0.147 Uiso 1 1 calc R U . . .
OW1 O 0.9338(14) 0.1419(5) 0.7757(3) 0.187(6) Uani 0.84(2) 1 d . . P . .
OW2 O 0.9471(16) 0.1321(6) 0.6765(3) 0.263(6) Uani 1 1 d . . . . .
OW3 O 0.5940(15) 0.1599(7) 0.7614(3) 0.158(6) Uani 0.629(17) 1 d . . P . .
OW4 O 0.5854(16) 0.1400(6) 0.6677(4) 0.260(6) Uani 1 1 d . . . . .
OW5 O 0.3198(18) 0.0810(10) 0.7404(6) 0.328(12) Uani 0.89(2) 1 d . . P . .
loop_
_atom_site_aniso_label
_atom_site_aniso_U_11
_atom_site_aniso_U_22
_atom_site_aniso_U_33
_atom_site_aniso_U_23
_atom_site_aniso_U_13
_atom_site_aniso_U_12
S(1) 0.1160(12) 0.0349(5) 0.0892(9) 0.0027(5) 0.0310(8) 0.0097(6)
S(2) 0.0973(12) 0.176(2) 0.0495(7) 0.0375(9) 0.0243(7) 0.0182(12)
O11 0.107(3) 0.0438(18) 0.144(4) 0.009(2) 0.023(3) 0.0173(19)
O12 0.100(3) 0.049(2) 0.170(5) -0.004(2) 0.011(3) -0.006(2)
O13 0.252(7) 0.061(2) 0.088(3) -0.007(2) 0.065(4) 0.030(3)
O21 0.087(3) 0.289(9) 0.078(3) 0.069(4) 0.011(2) -0.020(4)
O22 0.119(4) 0.293(9) 0.111(4) 0.126(5) 0.017(3) 0.029(5)
O23 0.301(10) 0.243(9) 0.068(3) -0.036(4) 0.071(4) -0.062(8)
N(1) 0.078(2) 0.0351(14) 0.0362(15) 0.0032(11) 0.0069(14) -0.0005(14)
N(2) 0.076(2) 0.0341(15) 0.0383(15) 0.0041(11) 0.0140(15) 0.0008(14)
N(3) 0.077(2) 0.0378(16) 0.0404(16) -0.0008(12) 0.0128(15) 0.0057(15)
N(4) 0.074(2) 0.0335(14) 0.0393(15) -0.0028(12) 0.0087(14) 0.0065(14)
N14 0.079(3) 0.079(3) 0.048(2) 0.0086(18) 0.0113(18) 0.012(2)
N24 0.080(3) 0.0418(17) 0.064(2) -0.0041(16) 0.0260(19) 0.0076(17)
C(A1 0.069(2) 0.0380(18) 0.0337(16) 0.0011(13) 0.0068(16) -0.0028(16)
C(A2 0.069(3) 0.0324(16) 0.0427(18) 0.0022(13) 0.0042(17) 0.0012(16)
C(A3 0.071(3) 0.0389(18) 0.0379(17) 0.0032(14) 0.0105(17) 0.0024(17)
C(A4 0.075(3) 0.0415(18) 0.0354(17) 0.0052(14) 0.0137(17) 0.0000(17)
C(A5 0.070(3) 0.0367(18) 0.0438(19) -0.0030(14) 0.0154(17) 0.0071(16)
C(A6 0.071(3) 0.0426(19) 0.0396(18) -0.0009(15) 0.0119(17) 0.0042(17)
C(A7 0.069(3) 0.0391(18) 0.0362(17) -0.0015(13) 0.0077(16) 0.0042(16)
C(A8 0.066(2) 0.0353(17) 0.0416(18) -0.0011(14) 0.0067(17) 0.0008(16)
C(B1 0.074(3) 0.0384(18) 0.0391(18) 0.0077(14) 0.0064(17) -0.0039(17)
C(B2 0.076(3) 0.0341(17) 0.048(2) 0.0075(15) 0.0064(18) -0.0005(17)
C(B3 0.079(3) 0.0417(19) 0.051(2) 0.0026(16) 0.023(2) 0.0057(19)
C(B4 0.074(3) 0.046(2) 0.048(2) 0.0020(16) 0.0186(19) 0.0045(19)
C(B5 0.083(3) 0.0400(18) 0.048(2) -0.0015(16) 0.023(2) 0.0109(19)
C(B6 0.086(3) 0.046(2) 0.050(2) 0.0007(17) 0.028(2) 0.013(2)
C(B7 0.077(3) 0.0415(19) 0.0374(17) 0.0013(14) 0.0058(17) 0.0018(18)
C(B8 0.072(3) 0.0333(16) 0.0421(18) -0.0030(14) 0.0078(17) 0.0048(16)
C(M1 0.066(2) 0.0329(16) 0.0425(18) 0.0009(14) 0.0061(17) -0.0005(16)
C(M2 0.063(2) 0.0410(18) 0.0362(17) 0.0043(14) 0.0090(15) 0.0000(16)
C(M3 0.069(3) 0.0402(18) 0.0432(19) 0.0010(15) 0.0125(17) 0.0030(17)
C(M4 0.065(2) 0.0378(17) 0.0376(17) -0.0020(14) 0.0054(16) -0.0006(16)
C11 0.061(2) 0.0352(17) 0.0448(18) -0.0013(14) 0.0098(16) -0.0019(15)
C12 0.061(2) 0.0449(19) 0.051(2) 0.0029(16) 0.0032(18) 0.0031(17)
C13 0.073(3) 0.043(2) 0.063(3) 0.0102(18) 0.009(2) 0.0063(19)
C14 0.075(3) 0.0361(18) 0.063(2) 0.0064(17) 0.020(2) 0.0023(18)
C15 0.079(3) 0.043(2) 0.048(2) -0.0060(16) 0.015(2) -0.0042(19)
C16 0.072(3) 0.0423(19) 0.0446(19) 0.0014(15) 0.0106(18) 0.0079(18)
C21 0.070(3) 0.0478(19) 0.0356(17) 0.0065(15) 0.0104(17) 0.0035(18)
C22 0.081(3) 0.063(3) 0.047(2) -0.0063(19) 0.009(2) 0.003(2)
C23 0.085(3) 0.092(4) 0.037(2) -0.004(2) 0.005(2) 0.012(3)
C24 0.070(3) 0.100(4) 0.042(2) 0.019(2) 0.010(2) 0.019(3)
C25 0.077(3) 0.072(3) 0.054(2) 0.023(2) 0.014(2) 0.005(2)
C26 0.069(3) 0.058(2) 0.047(2) 0.0106(18) 0.0084(19) -0.003(2)
C31 0.066(2) 0.0457(19) 0.0410(18) 0.0017(15) 0.0084(17) 0.0082(17)
C32 0.077(3) 0.061(3) 0.045(2) -0.0048(18) 0.007(2) -0.002(2)
C33 0.087(3) 0.077(3) 0.046(2) -0.005(2) 0.011(2) 0.002(3)
C35 0.079(3) 0.066(3) 0.057(2) 0.011(2) 0.015(2) 0.003(2)
C36 0.065(3) 0.057(2) 0.052(2) 0.0026(18) 0.0041(19) 0.000(2)
C37 0.117(5) 0.141(6) 0.050(3) 0.015(3) 0.020(3) 0.009(5)
C41 0.061(2) 0.0413(18) 0.049(2) 0.0005(15) 0.0145(17) 0.0030(16)
C42 0.073(3) 0.047(2) 0.047(2) -0.0096(16) 0.0076(19) 0.0061(19)
C43 0.084(3) 0.052(2) 0.057(2) -0.0166(19) 0.020(2) -0.004(2)
C45 0.068(3) 0.047(2) 0.066(3) 0.0001(19) 0.013(2) 0.0087(19)
C46 0.060(2) 0.049(2) 0.054(2) -0.0001(17) 0.0103(18) 0.0057(18)
C47 0.125(5) 0.059(3) 0.114(5) -0.020(3) 0.042(4) 0.005(3)
OW1 0.254(12) 0.115(7) 0.191(9) 0.033(6) -0.015(7) 0.018(6)
OW2 0.408(16) 0.200(10) 0.184(8) -0.064(7) 0.066(9) 0.090(10)
OW3 0.221(13) 0.130(9) 0.126(8) 0.037(6) 0.040(7) 0.011(8)
OW4 0.401(16) 0.148(7) 0.223(10) -0.047(6) -0.082(10) 0.084(9)
OW5 0.301(18) 0.33(2) 0.35(2) 0.180(17) 0.003(14) -0.003(14)
loop_
_atom_type_symbol
_atom_type_description
_atom_type_scat_dispersion_real
_atom_type_scat_dispersion_imag
_atom_type_scat_source
C C 0.0181 0.0091 'International Tables Vol C Tables 4.2.6.8 and 6.1.1.4'
H H 0.0000 0.0000 'International Tables Vol C Tables 4.2.6.8 and 6.1.1.4'
N N 0.0311 0.0180 'International Tables Vol C Tables 4.2.6.8 and 6.1.1.4'
O O 0.0492 0.0322 'International Tables Vol C Tables 4.2.6.8 and 6.1.1.4'
S S 0.3331 0.5567 'International Tables Vol C Tables 4.2.6.8 and 6.1.1.4'
loop_
_geom_angle_atom_site_label_1
_geom_angle_atom_site_label_2
_geom_angle_atom_site_label_3
_geom_angle
_geom_angle_site_symmetry_1
_geom_angle_site_symmetry_3
O12 S(1) O13 117.5(4) . .
O12 S(1) O11 111.6(3) . .
O13 S(1) O11 110.5(3) . .
O12 S(1) C14 105.8(2) . .
O13 S(1) C14 105.2(2) . .
O11 S(1) C14 105.2(2) . .
O22 S(2) O21 120.7(5) . .
O22 S(2) O23 101.5(5) . .
O21 S(2) O23 113.1(5) . .
O22 S(2) C24 108.1(3) . .
O21 S(2) C24 107.5(3) . .
O23 S(2) C24 104.8(4) . .
C(A1 N(1) C(A2 107.4(3) . .
C(A3 N(2) C(A4 107.6(3) . .
C(A6 N(3) C(A5 107.7(3) . .
C(A7 N(4) C(A8 107.6(3) . .
C33 N14 C35 120.6(4) . .
C33 N14 C37 119.0(5) . .
C35 N14 C37 120.4(5) . .
C45 N24 C43 121.0(4) . .
C45 N24 C47 120.4(5) . .
C43 N24 C47 118.6(5) . .
N(1) C(A1 C(M2 126.1(3) . 3_666
N(1) C(A1 C(B1 108.9(3) . .
C(M2 C(A1 C(B1 125.0(3) 3_666 .
N(1) C(A2 C(M1 125.9(3) . .
N(1) C(A2 C(B2 108.5(3) . .
C(M1 C(A2 C(B2 125.6(3) . .
N(2) C(A3 C(M1 126.3(3) . .
N(2) C(A3 C(B3 108.9(3) . .
C(M1 C(A3 C(B3 124.8(4) . .
N(2) C(A4 C(M2 126.2(3) . .
N(2) C(A4 C(B4 108.7(3) . .
C(M2 C(A4 C(B4 125.1(3) . .
N(3) C(A5 C(M4 126.4(3) . 3_566
N(3) C(A5 C(B5 108.5(3) . .
C(M4 C(A5 C(B5 125.1(3) 3_566 .
N(3) C(A6 C(M3 126.3(3) . .
N(3) C(A6 C(B6 108.6(3) . .
C(M3 C(A6 C(B6 125.1(4) . .
N(4) C(A7 C(M3 125.6(3) . .
N(4) C(A7 C(B7 109.4(3) . .
C(M3 C(A7 C(B7 125.0(3) . .
N(4) C(A8 C(M4 126.1(3) . .
N(4) C(A8 C(B8 108.7(3) . .
C(M4 C(A8 C(B8 125.1(3) . .
C(B2 C(B1 C(A1 107.1(3) . .
C(B2 C(B1 H(B1 126.4 . .
C(A1 C(B1 H(B1 126.4 . .
C(B1 C(B2 C(A2 108.0(3) . .
C(B1 C(B2 H(B2 126.0 . .
C(A2 C(B2 H(B2 126.0 . .
C(B4 C(B3 C(A3 107.6(4) . .
C(B4 C(B3 H(B3 126.2 . .
C(A3 C(B3 H(B3 126.2 . .
C(B3 C(B4 C(A4 107.2(3) . .
C(B3 C(B4 H(B4 126.4 . .
C(A4 C(B4 H(B4 126.4 . .
C(B6 C(B5 C(A5 107.7(3) . .
C(B6 C(B5 H(B5 126.1 . .
C(A5 C(B5 H(B5 126.1 . .
C(B5 C(B6 C(A6 107.4(3) . .
C(B5 C(B6 H(B6 126.3 . .
C(A6 C(B6 H(B6 126.3 . .
C(B8 C(B7 C(A7 107.3(3) . .
C(B8 C(B7 H(B7 126.4 . .
C(A7 C(B7 H(B7 126.4 . .
C(B7 C(B8 C(A8 106.9(3) . .
C(B7 C(B8 H(B8 126.5 . .
C(A8 C(B8 H(B8 126.5 . .
C(A2 C(M1 C(A3 124.9(3) . .
C(A2 C(M1 C11 118.5(3) . .
C(A3 C(M1 C11 116.6(3) . .
C(A4 C(M2 C(A1 125.1(3) . 3_666
C(A4 C(M2 C21 117.3(3) . .
C(A1 C(M2 C21 117.7(3) 3_666 .
C(A6 C(M3 C(A7 124.8(3) . .
C(A6 C(M3 C31 116.7(3) . .
C(A7 C(M3 C31 118.4(3) . .
C(A5 C(M4 C(A8 125.9(3) 3_566 .
C(A5 C(M4 C41 116.3(3) 3_566 .
C(A8 C(M4 C41 117.7(3) . .
C16 C11 C12 117.6(3) . .
C16 C11 C(M1 120.7(4) . .
C12 C11 C(M1 121.6(4) . .
C13 C12 C11 121.5(4) . .
C13 C12 H12 119.2 . .
C11 C12 H12 119.2 . .
C14 C13 C12 119.8(4) . .
C14 C13 H13 120.1 . .
C12 C13 H13 120.1 . .
C13 C14 C15 120.8(4) . .
C13 C14 S(1) 119.9(3) . .
C15 C14 S(1) 119.3(4) . .
C14 C15 C16 119.0(4) . .
C14 C15 H15 120.5 . .
C16 C15 H15 120.5 . .
C11 C16 C15 121.2(4) . .
C11 C16 H16 119.4 . .
C15 C16 H16 119.4 . .
C26 C21 C22 117.5(4) . .
C26 C21 C(M2 122.1(4) . .
C22 C21 C(M2 120.4(4) . .
C23 C22 C21 122.0(5) . .
C23 C22 H22 119.0 . .
C21 C22 H22 119.0 . .
C24 C23 C22 118.8(5) . .
C24 C23 H23 120.6 . .
C22 C23 H23 120.6 . .
C25 C24 C23 121.0(4) . .
C25 C24 S(2) 120.3(5) . .
C23 C24 S(2) 118.7(4) . .
C24 C25 C26 119.9(5) . .
C24 C25 H25 120.0 . .
C26 C25 H25 120.0 . .
C21 C26 C25 120.7(4) . .
C21 C26 H26 119.6 . .
C25 C26 H26 119.6 . .
C36 C31 C32 116.8(4) . .
C36 C31 C(M3 122.8(4) . .
C32 C31 C(M3 120.4(4) . .
C33 C32 C31 119.8(5) . .
C33 C32 H32 120.1 . .
C31 C32 H32 120.1 . .
N14 C33 C32 121.6(5) . .
N14 C33 H33 119.2 . .
C32 C33 H33 119.2 . .
N14 C35 C36 120.8(5) . .
N14 C35 H35 119.6 . .
C36 C35 H35 119.6 . .
C35 C36 C31 120.3(4) . .
C35 C36 H36 119.8 . .
C31 C36 H36 119.8 . .
N14 C37 H37A 109.5 . .
N14 C37 H37B 109.5 . .
H37A C37 H37B 109.5 . .
N14 C37 H37C 109.5 . .
H37A C37 H37C 109.5 . .
H37B C37 H37C 109.5 . .
C46 C41 C42 117.3(4) . .
C46 C41 C(M4 122.3(4) . .
C42 C41 C(M4 120.4(4) . .
C43 C42 C41 119.8(4) . .
C43 C42 H42 120.1 . .
C41 C42 H42 120.1 . .
N24 C43 C42 121.0(4) . .
N24 C43 H43 119.5 . .
C42 C43 H43 119.5 . .
N24 C45 C46 121.0(4) . .
N24 C45 H45 119.5 . .
C46 C45 H45 119.5 . .
C45 C46 C41 119.9(4) . .
C45 C46 H46 120.0 . .
C41 C46 H46 120.0 . .
N24 C47 H47A 109.5 . .
N24 C47 H47B 109.5 . .
H47A C47 H47B 109.5 . .
N24 C47 H47C 109.5 . .
H47A C47 H47C 109.5 . .
H47B C47 H47C 109.5 . .
loop_
_geom_bond_atom_site_label_1
_geom_bond_atom_site_label_2
_geom_bond_distance
_geom_bond_site_symmetry_2
S(1) O12 1.421(4) .
S(1) O13 1.439(4) .
S(1) O11 1.451(5) .
S(1) C14 1.783(4) .
S(2) O22 1.356(6) .
S(2) O21 1.386(5) .
S(2) O23 1.503(8) .
S(2) C24 1.773(5) .
N(1) C(A1 1.368(4) .
N(1) C(A2 1.375(5) .
N(2) C(A3 1.367(5) .
N(2) C(A4 1.369(4) .
N(3) C(A6 1.367(5) .
N(3) C(A5 1.373(4) .
N(4) C(A7 1.357(5) .
N(4) C(A8 1.367(4) .
N14 C33 1.303(7) .
N14 C35 1.342(7) .
N14 C37 1.496(6) .
N24 C45 1.319(6) .
N24 C43 1.324(6) .
N24 C47 1.485(6) .
C(A1 C(M2 1.405(5) 3_666
C(A1 C(B1 1.444(5) .
C(A2 C(M1 1.399(5) .
C(A2 C(B2 1.436(5) .
C(A3 C(M1 1.406(5) .
C(A3 C(B3 1.432(5) .
C(A4 C(M2 1.399(5) .
C(A4 C(B4 1.440(5) .
C(A5 C(M4 1.396(5) 3_566
C(A5 C(B5 1.433(5) .
C(A6 C(M3 1.394(5) .
C(A6 C(B6 1.439(5) .
C(A7 C(M3 1.411(5) .
C(A7 C(B7 1.437(5) .
C(A8 C(M4 1.405(5) .
C(A8 C(B8 1.448(5) .
C(B1 C(B2 1.340(6) .
C(B1 H(B1 0.9300 .
C(B2 H(B2 0.9300 .
C(B3 C(B4 1.349(5) .
C(B3 H(B3 0.9300 .
C(B4 H(B4 0.9300 .
C(B5 C(B6 1.347(6) .
C(B5 H(B5 0.9300 .
C(B6 H(B6 0.9300 .
C(B7 C(B8 1.351(5) .
C(B7 H(B7 0.9300 .
C(B8 H(B8 0.9300 .
C(M1 C11 1.490(5) .
C(M2 C(A1 1.405(5) 3_666
C(M2 C21 1.483(5) .
C(M3 C31 1.479(5) .
C(M4 C(A5 1.396(5) 3_566
C(M4 C41 1.486(5) .
C11 C16 1.390(6) .
C11 C12 1.395(6) .
C12 C13 1.374(6) .
C12 H12 0.9300 .
C13 C14 1.365(7) .
C13 H13 0.9300 .
C14 C15 1.386(6) .
C15 C16 1.390(5) .
C15 H15 0.9300 .
C16 H16 0.9300 .
C21 C26 1.388(6) .
C21 C22 1.396(6) .
C22 C23 1.378(6) .
C22 H22 0.9300 .
C23 C24 1.377(8) .
C23 H23 0.9300 .
C24 C25 1.366(8) .
C25 C26 1.392(6) .
C25 H25 0.9300 .
C26 H26 0.9300 .
C31 C36 1.386(6) .
C31 C32 1.399(6) .
C32 C33 1.381(6) .
C32 H32 0.9300 .
C33 H33 0.9300 .
C35 C36 1.373(6) .
C35 H35 0.9300 .
C36 H36 0.9300 .
C37 H37A 0.9600 .
C37 H37B 0.9600 .
C37 H37C 0.9600 .
C41 C46 1.386(6) .
C41 C42 1.393(6) .
C42 C43 1.375(6) .
C42 H42 0.9300 .
C43 H43 0.9300 .
C45 C46 1.379(6) .
C45 H45 0.9300 .
C46 H46 0.9300 .
C47 H47A 0.9600 .
C47 H47B 0.9600 .
C47 H47C 0.9600 .
loop_
_geom_contact_atom_site_label_1
_geom_contact_atom_site_label_2
_geom_contact_distance
_geom_contact_site_symmetry_1
_geom_contact_site_symmetry_2
OW1 OW2 2.917(14) . .
OW1 OW3 2.922(19) . .
OW2 OW4 3.081(19) . .
OW2 O13 2.885(10) . 1_645
OW3 O22 2.912(14) . .
OW3 OW4 2.764(14) . .
OW3 OW5 2.72(2) . .
OW4 OW5 3.30(2) . .
loop_
_geom_torsion_atom_site_label_1
_geom_torsion_atom_site_label_2
_geom_torsion_atom_site_label_3
_geom_torsion_atom_site_label_4
_geom_torsion
_geom_torsion_site_symmetry_1
_geom_torsion_site_symmetry_2
_geom_torsion_site_symmetry_3
_geom_torsion_site_symmetry_4
C(A2 N(1) C(A1 C(M2 179.6(4) . . . 3_666
C(A2 N(1) C(A1 C(B1 -1.0(5) . . . .
C(A1 N(1) C(A2 C(M1 -179.4(4) . . . .
C(A1 N(1) C(A2 C(B2 -0.3(5) . . . .
C(A4 N(2) C(A3 C(M1 179.4(4) . . . .
C(A4 N(2) C(A3 C(B3 -2.3(5) . . . .
C(A3 N(2) C(A4 C(M2 -177.3(4) . . . .
C(A3 N(2) C(A4 C(B4 2.6(5) . . . .
C(A6 N(3) C(A5 C(M4 -178.8(4) . . . 3_566
C(A6 N(3) C(A5 C(B5 2.4(5) . . . .
C(A5 N(3) C(A6 C(M3 179.2(4) . . . .
C(A5 N(3) C(A6 C(B6 -2.7(5) . . . .
C(A8 N(4) C(A7 C(M3 -179.7(4) . . . .
C(A8 N(4) C(A7 C(B7 0.6(5) . . . .
C(A7 N(4) C(A8 C(M4 -179.7(4) . . . .
C(A7 N(4) C(A8 C(B8 -0.6(5) . . . .
N(1) C(A1 C(B1 C(B2 2.0(5) . . . .
C(M2 C(A1 C(B1 C(B2 -178.6(4) 3_666 . . .
C(A1 C(B1 C(B2 C(A2 -2.1(5) . . . .
N(1) C(A2 C(B2 C(B1 1.6(5) . . . .
C(M1 C(A2 C(B2 C(B1 -179.4(4) . . . .
N(2) C(A3 C(B3 C(B4 1.0(6) . . . .
C(M1 C(A3 C(B3 C(B4 179.4(4) . . . .
C(A3 C(B3 C(B4 C(A4 0.6(6) . . . .
N(2) C(A4 C(B4 C(B3 -2.0(6) . . . .
C(M2 C(A4 C(B4 C(B3 177.9(5) . . . .
N(3) C(A5 C(B5 C(B6 -1.2(6) . . . .
C(M4 C(A5 C(B5 C(B6 -180.0(5) 3_566 . . .
C(A5 C(B5 C(B6 C(A6 -0.5(6) . . . .
N(3) C(A6 C(B6 C(B5 2.0(6) . . . .
C(M3 C(A6 C(B6 C(B5 -179.9(5) . . . .
N(4) C(A7 C(B7 C(B8 -0.5(5) . . . .
C(M3 C(A7 C(B7 C(B8 179.9(4) . . . .
C(A7 C(B7 C(B8 C(A8 0.1(5) . . . .
N(4) C(A8 C(B8 C(B7 0.3(5) . . . .
C(M4 C(A8 C(B8 C(B7 179.4(4) . . . .
N(1) C(A2 C(M1 C(A3 -3.5(7) . . . .
C(B2 C(A2 C(M1 C(A3 177.6(4) . . . .
N(1) C(A2 C(M1 C11 174.9(4) . . . .
C(B2 C(A2 C(M1 C11 -4.0(7) . . . .
N(2) C(A3 C(M1 C(A2 7.1(7) . . . .
C(B3 C(A3 C(M1 C(A2 -171.0(4) . . . .
N(2) C(A3 C(M1 C11 -171.3(4) . . . .
C(B3 C(A3 C(M1 C11 10.6(7) . . . .
N(2) C(A4 C(M2 C(A1 -8.2(8) . . . 3_666
C(B4 C(A4 C(M2 C(A1 171.8(4) . . . 3_666
N(2) C(A4 C(M2 C21 172.1(4) . . . .
C(B4 C(A4 C(M2 C21 -7.9(7) . . . .
N(3) C(A6 C(M3 C(A7 5.8(8) . . . .
C(B6 C(A6 C(M3 C(A7 -171.9(5) . . . .
N(3) C(A6 C(M3 C31 -170.8(4) . . . .
C(B6 C(A6 C(M3 C31 11.4(7) . . . .
N(4) C(A7 C(M3 C(A6 -3.1(8) . . . .
C(B7 C(A7 C(M3 C(A6 176.5(4) . . . .
N(4) C(A7 C(M3 C31 173.5(4) . . . .
C(B7 C(A7 C(M3 C31 -6.9(7) . . . .
N(4) C(A8 C(M4 C(A5 -2.3(7) . . . 3_566
C(B8 C(A8 C(M4 C(A5 178.6(4) . . . 3_566
N(4) C(A8 C(M4 C41 175.1(4) . . . .
C(B8 C(A8 C(M4 C41 -4.0(6) . . . .
C(A2 C(M1 C11 C16 -125.4(4) . . . .
C(A3 C(M1 C11 C16 53.1(6) . . . .
C(A2 C(M1 C11 C12 53.8(6) . . . .
C(A3 C(M1 C11 C12 -127.6(4) . . . .
C16 C11 C12 C13 -1.1(6) . . . .
C(M1 C11 C12 C13 179.6(4) . . . .
C11 C12 C13 C14 -0.2(7) . . . .
C12 C13 C14 C15 1.9(7) . . . .
C12 C13 C14 S(1) -178.8(3) . . . .
O12 S(1) C14 C13 -107.9(4) . . . .
O13 S(1) C14 C13 127.2(5) . . . .
O11 S(1) C14 C13 10.4(5) . . . .
O12 S(1) C14 C15 71.5(4) . . . .
O13 S(1) C14 C15 -53.5(5) . . . .
O11 S(1) C14 C15 -170.2(4) . . . .
C13 C14 C15 C16 -2.0(7) . . . .
S(1) C14 C15 C16 178.6(3) . . . .
C12 C11 C16 C15 0.9(6) . . . .
C(M1 C11 C16 C15 -179.8(4) . . . .
C14 C15 C16 C11 0.6(6) . . . .
C(A4 C(M2 C21 C26 127.0(5) . . . .
C(A1 C(M2 C21 C26 -52.7(6) 3_666 . . .
C(A4 C(M2 C21 C22 -52.9(6) . . . .
C(A1 C(M2 C21 C22 127.4(5) 3_666 . . .
C26 C21 C22 C23 0.5(7) . . . .
C(M2 C21 C22 C23 -179.6(4) . . . .
C21 C22 C23 C24 -0.2(8) . . . .
C22 C23 C24 C25 0.2(8) . . . .
C22 C23 C24 S(2) 180.0(4) . . . .
O22 S(2) C24 C25 91.3(6) . . . .
O21 S(2) C24 C25 -40.5(6) . . . .
O23 S(2) C24 C25 -161.0(6) . . . .
O22 S(2) C24 C23 -88.4(6) . . . .
O21 S(2) C24 C23 139.8(5) . . . .
O23 S(2) C24 C23 19.2(6) . . . .
C23 C24 C25 C26 -0.5(8) . . . .
S(2) C24 C25 C26 179.7(4) . . . .
C22 C21 C26 C25 -0.8(7) . . . .
C(M2 C21 C26 C25 179.3(4) . . . .
C24 C25 C26 C21 0.8(7) . . . .
C(A6 C(M3 C31 C36 -127.6(5) . . . .
C(A7 C(M3 C31 C36 55.5(6) . . . .
C(A6 C(M3 C31 C32 51.3(6) . . . .
C(A7 C(M3 C31 C32 -125.6(5) . . . .
C36 C31 C32 C33 2.0(7) . . . .
C(M3 C31 C32 C33 -176.9(4) . . . .
C35 N14 C33 C32 -1.2(8) . . . .
C37 N14 C33 C32 176.5(5) . . . .
C31 C32 C33 N14 -0.7(8) . . . .
C33 N14 C35 C36 1.6(8) . . . .
C37 N14 C35 C36 -176.1(5) . . . .
N14 C35 C36 C31 -0.1(8) . . . .
C32 C31 C36 C35 -1.7(7) . . . .
C(M3 C31 C36 C35 177.3(4) . . . .
C(A5 C(M4 C41 C46 -128.0(4) 3_566 . . .
C(A8 C(M4 C41 C46 54.4(6) . . . .
C(A5 C(M4 C41 C42 53.0(6) 3_566 . . .
C(A8 C(M4 C41 C42 -124.7(4) . . . .
C46 C41 C42 C43 1.0(6) . . . .
C(M4 C41 C42 C43 -179.9(4) . . . .
C45 N24 C43 C42 -1.6(7) . . . .
C47 N24 C43 C42 177.0(5) . . . .
C41 C42 C43 N24 0.6(7) . . . .
C43 N24 C45 C46 0.9(7) . . . .
C47 N24 C45 C46 -177.6(5) . . . .
N24 C45 C46 C41 0.7(7) . . . .
C42 C41 C46 C45 -1.6(6) . . . .
C(M4 C41 C46 C45 179.3(4) . . . .
