#------------------------------------------------------------------------------
#$Date: 2018-01-06 04:42:23 +0200 (Sat, 06 Jan 2018) $
#$Revision: 204896 $
#$URL: file:///home/coder/svn-repositories/cod/cif/1/54/81/1548130.cif $
#------------------------------------------------------------------------------
#
# This file is available in the Crystallography Open Database (COD),
# http://www.crystallography.net/
#
# All data on this site have been placed in the public domain by the
# contributors.
#
data_1548130
loop_
_publ_author_name
'Wu, Yang'
'Yuan, Chunhao'
'Wang, Chang'
'Mao, Biming'
'Jia, Hao'
'Gao, Xing'
'Liao, Jianning'
'Jiang, Feng'
'Zhou, Leijie'
'Wang, Qijun'
'Guo, Hongchao'
_publ_section_title
;
 Palladium-Catalyzed [5 + 2] Cycloaddition of Vinyloxiranes with
 Sulfamate-Derived Cyclic Imines To Construct 1,3-Oxazepine Heterocycles.
;
_journal_issue                   23
_journal_name_full               'Organic letters'
_journal_page_first              6268
_journal_page_last               6271
_journal_paper_doi               10.1021/acs.orglett.7b02704
_journal_volume                  19
_journal_year                    2017
_chemical_absolute_configuration unk
_chemical_formula_moiety         'C12 H13 N O4 S'
_chemical_formula_sum            'C12 H13 N O4 S'
_chemical_formula_weight         267.29
_space_group_crystal_system      orthorhombic
_space_group_IT_number           19
_space_group_name_Hall           'P 2ac 2ab'
_space_group_name_H-M_alt        'P 21 21 21'
_symmetry_space_group_name_Hall  'P 2ac 2ab'
_symmetry_space_group_name_H-M   'P 21 21 21'
_atom_sites_solution_hydrogens   geom
_atom_sites_solution_primary     dual
_audit_creation_date             2017-05-25
_audit_creation_method
;
Olex2 1.2
(compiled 2017.03.28 svn.r3405 for OlexSys, GUI svn.r5337)
;
_audit_update_record
;
????
;
_cell_angle_alpha                90
_cell_angle_beta                 90
_cell_angle_gamma                90
_cell_formula_units_Z            4
_cell_length_a                   5.7561(12)
_cell_length_b                   10.135(2)
_cell_length_c                   20.636(4)
_cell_measurement_reflns_used    3553
_cell_measurement_temperature    173(2)
_cell_measurement_theta_max      27.4785
_cell_measurement_theta_min      1.9737
_cell_volume                     1203.9(4)
_computing_cell_refinement
'CrystalClear-SM Expert 2.0 r4 (Rigaku, 2009)'
_computing_data_collection
'CrystalClear-SM Expert 2.0 r4 (Rigaku, 2009)'
_computing_data_reduction
'CrystalClear-SM Expert 2.0 r4 (Rigaku, 2009)'
_computing_molecular_graphics    'Olex2 (Dolomanov et al., 2009)'
_computing_publication_material  'CIFTAB (Sheldrick, 2013)'
_computing_structure_refinement  'ShelXL (Sheldrick, 2015)'
_computing_structure_solution    'ShelXT (Sheldrick, 2015)'
_diffrn_ambient_temperature      173(2)
_diffrn_measured_fraction_theta_full 0.992
_diffrn_measured_fraction_theta_max 0.993
_diffrn_measurement_device_type  'Rigaku Saturn724+ (2x2 bin mode)'
_diffrn_measurement_method       'profile data from \w-scans'
_diffrn_radiation_monochromator  'Graphite Monochromator'
_diffrn_radiation_type           MoK\a
_diffrn_radiation_wavelength     0.71073
_diffrn_reflns_av_R_equivalents  0.1069
_diffrn_reflns_av_unetI/netI     0.0890
_diffrn_reflns_Laue_measured_fraction_full 0.992
_diffrn_reflns_Laue_measured_fraction_max 0.993
_diffrn_reflns_limit_h_max       7
_diffrn_reflns_limit_h_min       -6
_diffrn_reflns_limit_k_max       13
_diffrn_reflns_limit_k_min       -13
_diffrn_reflns_limit_l_max       26
_diffrn_reflns_limit_l_min       -26
_diffrn_reflns_number            8693
_diffrn_reflns_point_group_measured_fraction_full 0.992
_diffrn_reflns_point_group_measured_fraction_max 0.993
_diffrn_reflns_theta_full        25.242
_diffrn_reflns_theta_max         27.478
_diffrn_reflns_theta_min         3.580
_diffrn_source                   'Sealed Tube'
_exptl_absorpt_coefficient_mu    0.275
_exptl_absorpt_correction_T_max  1.0000
_exptl_absorpt_correction_T_min  0.6145
_exptl_absorpt_correction_type   multi-scan
_exptl_absorpt_process_details
'CrystalClear-SM Expert 2.0 r4 (Rigaku, 2009)'
_exptl_crystal_colour            Colorless
_exptl_crystal_density_diffrn    1.475
_exptl_crystal_description       Plate
_exptl_crystal_F_000             560
_exptl_crystal_size_max          0.416
_exptl_crystal_size_mid          0.192
_exptl_crystal_size_min          0.036
_refine_diff_density_max         0.312
_refine_diff_density_min         -0.340
_refine_diff_density_rms         0.068
_refine_ls_abs_structure_details
;
 Flack x determined using 729 quotients [(I+)-(I-)]/[(I+)+(I-)]
 (Parsons, Flack and Wagner, Acta Cryst. B69 (2013) 249-259).
;
_refine_ls_abs_structure_Flack   0.23(7)
_refine_ls_extinction_method     none
_refine_ls_goodness_of_fit_ref   1.122
_refine_ls_hydrogen_treatment    constr
_refine_ls_matrix_type           full
_refine_ls_number_parameters     164
_refine_ls_number_reflns         2747
_refine_ls_number_restraints     0
_refine_ls_restrained_S_all      1.122
_refine_ls_R_factor_all          0.0799
_refine_ls_R_factor_gt           0.0587
_refine_ls_shift/su_max          0.000
_refine_ls_shift/su_mean         0.000
_refine_ls_structure_factor_coef Fsqd
_refine_ls_weighting_details
'w=1/[\s^2^(Fo^2^)+(0.0156P)^2^+0.7633P] where P=(Fo^2^+2Fc^2^)/3'
_refine_ls_weighting_scheme      calc
_refine_ls_wR_factor_gt          0.1004
_refine_ls_wR_factor_ref         0.1081
_reflns_Friedel_coverage         0.700
_reflns_Friedel_fraction_full    0.992
_reflns_Friedel_fraction_max     0.993
_reflns_number_gt                2481
_reflns_number_total             2747
_reflns_threshold_expression     'I > 2\s(I)'
_cod_data_source_file            ol7b02704_si_003.cif
_cod_data_source_block           sa5103a
_cod_depositor_comments
;
The following automatic conversions were performed:

'_exptl_absorpt_correction_type' value 'Multi-scan' changed to
'multi-scan' according to
/home/data/users/saulius/crontab/automatic-downloads/rss-feeds/ACS/lib/dictionaries/cif_core.dic
dictionary named 'cif_core.dic' version 2.4.2 from 2011-04-26.

Automatic conversion script
Id: cif_fix_values 4973 2017-02-22 13:04:09Z antanas 

 Adding full bibliography for 1548127--1548130.cif.
;
_cod_database_code               1548130
_shelx_shelxl_version_number     2016/6
_shelx_space_group_comment
;
The symmetry employed for this shelxl refinement is uniquely defined
by the following loop, which should always be used as a source of
symmetry information in preference to the above space-group names.
They are only intended as comments.
;
_olex2_refinement_description
;
1. Fixed Uiso
 At 1.2 times of:
  All C(H) groups, All C(H,H) groups
 At 1.5 times of:
  All C(H,H,H) groups
2.a Ternary CH refined with riding coordinates:
 C3(H3), C5(H5)
2.b Secondary CH2 refined with riding coordinates:
 C4(H4A,H4B)
2.c Aromatic/amide H refined with riding coordinates:
 C6(H6), C8(H8), C10(H10), C11(H11)
2.d X=CH2 refined with riding coordinates:
 C7(H7A,H7B)
2.e Idealised Me refined as rotating group:
 C12(H12A,H12B,H12C)
;
_shelx_res_file
;
TITL sa5103a_a.res in P2(1)2(1)2(1)
    sa5103a.res
    created by SHELXL-2016/6 at 11:26:00 on 25-May-2017
REM Old TITL SA5103A in P2(1)2(1)2(1)
REM SHELXT solution in P2(1)2(1)2(1)
REM R1 0.229, Rweak 0.036, Alpha 0.003, Orientation as input
REM Flack x = -1.653 ( 3.608 ) from Parsons' quotients
REM Formula found by SHELXT: C11 N2 O4 S
CELL 0.71073 5.7561 10.1354 20.6364 90 90 90
ZERR 4 0.0012 0.002 0.0041 0 0 0
LATT -1
SYMM 0.5-X,-Y,0.5+Z
SYMM -X,0.5+Y,0.5-Z
SYMM 0.5+X,0.5-Y,-Z
SFAC C H N O S
UNIT 48 52 4 16 4

L.S. 10
PLAN  20
BOND $H
list 4
fmap 2
acta
OMIT 0 1 1
OMIT 2 0 1
OMIT 0 0 2
OMIT 0 1 2
OMIT 3 0 6
OMIT 3 1 3
OMIT 4 0 11
OMIT 4 0 12
OMIT 5 0 4
REM <olex2.extras>
REM <HklSrc "%.\\SA5103A.hkl">
REM </olex2.extras>

WGHT    0.015600    0.763300
FVAR       0.82624
S1    5    0.167832    0.103059    0.352489    11.00000    0.02666    0.02653 =
         0.03007    0.00150   -0.00166   -0.00176
O1    4    0.326018    0.028434    0.390821    11.00000    0.03432    0.03207 =
         0.03709    0.00901   -0.00368    0.00152
O2    4   -0.026608    0.043879    0.322365    11.00000    0.03198    0.03418 =
         0.04122   -0.00331   -0.00505   -0.00797
O3    4    0.057149    0.215482    0.397420    11.00000    0.02315    0.03460 =
         0.02969   -0.00222    0.00362   -0.00361
O4    4    0.583672    0.342994    0.279827    11.00000    0.02370    0.03710 =
         0.02669    0.00152    0.00439   -0.00271
N1    3    0.320075    0.184472    0.300597    11.00000    0.02233    0.02809 =
         0.02435   -0.00127   -0.00334    0.00255
C1    1    0.213018    0.313742    0.419759    11.00000    0.02244    0.02786 =
         0.02724    0.00142   -0.00627   -0.00051
C2    1    0.421519    0.340757    0.388972    11.00000    0.02210    0.02694 =
         0.02452    0.00556    0.00092    0.00211
C3    1    0.509895    0.263084    0.331128    11.00000    0.02250    0.02473 =
         0.02631   -0.00045   -0.00043    0.00251
AFIX  13
H3    2    0.636382    0.204469    0.344607    11.00000   -1.20000
AFIX   0
C4    1    0.375238    0.387562    0.248068    11.00000    0.03096    0.03499 =
         0.02937    0.00201   -0.00379    0.00170
AFIX  23
H4A   2    0.406687    0.408966    0.203102    11.00000   -1.20000
H4B   2    0.314255    0.465465    0.269425    11.00000   -1.20000
AFIX   0
C5    1    0.201043    0.273145    0.252692    11.00000    0.02573    0.02981 =
         0.02279   -0.00097    0.00114    0.00486
AFIX  13
H5    2    0.052849    0.304450    0.270304    11.00000   -1.20000
AFIX   0
C6    1    0.162227    0.201108    0.190486    11.00000    0.03564    0.03532 =
         0.02818   -0.00372    0.00040    0.00411
AFIX  43
H6    2    0.290731    0.164790    0.169798    11.00000   -1.20000
AFIX   0
C7    1   -0.041095    0.185959    0.163338    11.00000    0.04187    0.04826 =
         0.03202   -0.00267   -0.00565    0.00079
AFIX  93
H7A   2   -0.172899    0.221140    0.182852    11.00000   -1.20000
H7B   2   -0.054012    0.139994    0.124501    11.00000   -1.20000
AFIX   0
C8    1    0.554355    0.444177    0.413311    11.00000    0.02093    0.02646 =
         0.02617    0.00277   -0.00028   -0.00222
AFIX  43
H8    2    0.695676    0.463514    0.393641    11.00000   -1.20000
AFIX   0
C9    1    0.483279    0.519867    0.466118    11.00000    0.03189    0.02596 =
         0.02908    0.00095   -0.00528    0.00127
C10   1    0.276156    0.485800    0.496308    11.00000    0.03608    0.02960 =
         0.02376   -0.00287    0.00187    0.00719
AFIX  43
H10   2    0.228279    0.533062    0.532554    11.00000   -1.20000
AFIX   0
C11   1    0.139713    0.383736    0.473931    11.00000    0.02568    0.03625 =
         0.02412    0.00037    0.00542    0.00406
AFIX  43
H11   2    0.001393    0.362157    0.494670    11.00000   -1.20000
AFIX   0
C12   1    0.626426    0.635955    0.488538    11.00000    0.04109    0.03108 =
         0.03764   -0.00610   -0.00172   -0.00046
AFIX 137
H12A  2    0.788398    0.613865    0.486247    11.00000   -1.50000
H12B  2    0.586191    0.657292    0.532451    11.00000   -1.50000
H12C  2    0.595750    0.710554    0.461181    11.00000   -1.50000
AFIX   0
HKLF 4




REM  sa5103a_a.res in P2(1)2(1)2(1)
REM R1 =  0.0587 for    2481 Fo > 4sig(Fo)  and  0.0799 for all    2747 data
REM    164 parameters refined using      0 restraints

END

WGHT      0.0159      0.7575

REM Highest difference peak  0.312,  deepest hole -0.340,  1-sigma level  0.068
Q1    1   0.1582 -0.0190  0.3535  11.00000  0.05    0.31
Q2    1   0.4263  0.4669  0.4843  11.00000  0.05    0.29
Q3    1   0.1938  0.2448  0.2264  11.00000  0.05    0.27
Q4    1   0.0457  0.0369  0.3493  11.00000  0.05    0.26
Q5    1   0.1580  0.2821  0.4029  11.00000  0.05    0.26
Q6    1   0.2820  0.1561  0.3277  11.00000  0.05    0.26
Q7    1   0.6110  0.1958  0.3304  11.00000  0.05    0.25
Q8    1   0.7004  0.4576  0.2755  11.00000  0.05    0.25
Q9    1   0.1787  0.2405  0.3526  11.00000  0.05    0.25
Q10   1   0.2977  0.0654  0.3717  11.00000  0.05    0.24
Q11   1   0.1763 -0.0119  0.4011  11.00000  0.05    0.24
Q12   1   0.3400  0.3009  0.4158  11.00000  0.05    0.24
Q13   1   0.1371  0.4618  0.4172  11.00000  0.05    0.24
Q14   1   0.4560  0.5000  0.1471  11.00000  0.05    0.24
Q15   1   0.3715  0.3650  0.3757  11.00000  0.05    0.23
Q16   1   0.3115  0.2561  0.3525  11.00000  0.05    0.23
Q17   1   0.3015  0.3270  0.2417  11.00000  0.05    0.23
Q18   1   0.4537  0.3416  0.4594  11.00000  0.05    0.23
Q19   1   0.1887  0.3410  0.4504  11.00000  0.05    0.22
Q20   1  -0.0446  0.1987  0.4203  11.00000  0.05    0.22
;
_shelx_res_checksum              93830
_shelx_hkl_file
;
   0   0  -2    0.22    0.77
   0   0   2   -0.02    0.56
   0   0   2    3.72    1.06
   0   0  -3    4.24    1.78
   0   0   3    1.57    1.03
   0   0  -3    4.00    1.62
   0   0   3    5.51    1.92
   0   0  -4  174.96    3.97
   0   0   4  173.95    3.88
   0   0  -4  179.33    5.25
   0   0   4  185.98    9.34
   0   0  -5    3.99    1.78
   0   0   5    4.52    1.67
   0   0  -5   -1.62    2.47
   0   0   5    4.71    2.90
   0   0  -6 1414.17   19.41
   0   0  -6 1385.23   20.76
   0   0   6 1264.94   19.30
   0   0  -7    5.03    3.00
   0   0   7    5.96    1.86
   0   0  -7    3.43    3.28
   0   0   7    1.20    1.81
   0   0   8  946.43   14.69
   0   0  -8 1026.63   17.96
   0   0   8  872.18   15.07
   0   0  -9    3.59    2.03
   0   0   9    4.05    1.94
   0   0  -9    3.62    3.81
   0   0   9    3.40    2.66
   0   0 -10  511.24   13.95
   0   0  10  492.42   13.65
   0   0 -10  517.30   17.73
   0   0 -11    3.16    2.11
   0   0  11    6.04    2.35
   0   0 -11    7.70    2.88
   0   0 -12  993.12   49.75
   0   0  12  975.39   48.87
   0   0 -12 1059.69   55.55
   0   0 -13    6.36    2.24
   0   0  13    5.57    2.72
   0   0 -13   11.16    4.60
   0   0 -14  338.46   19.75
   0   0  14  309.17   18.20
   0   0 -14  418.16   40.52
   0   0 -15    8.04    2.92
   0   0  15   -0.10    2.05
   0   0 -15    3.88    2.72
   0   0 -16  344.34   31.57
   0   0 -16  341.91   44.30
   0   0 -17   10.11    3.59
   0   0 -17    2.31    5.06
   0   0 -18   64.33   12.29
   0   0 -18   65.37   13.05
   0   0 -19    3.57    1.83
   0   0 -19    8.94    5.59
   0   0 -20  252.85   24.76
   0   0 -20  302.62   36.38
   0   0 -21    3.19    2.03
   0   0 -21   21.58    9.79
   0   0 -22   54.11   10.35
   0   0 -22  107.38   18.40
   0   0 -23    3.08    3.51
   0   0 -24   34.60   12.94
   0   0 -25    6.55    4.79
   1   0   0    7.64    3.68
  -1   0   0    8.33    3.28
   1   0   0    2.53    0.66
   1   0  -1    5.25    2.71
  -1   0   1    3.72    2.67
   1   0   1    6.17    3.44
  -1   0  -1    6.31    2.08
   1   0  -1    1.15    0.90
  -1   0   1    2.93    1.31
   1   0  -2 6334.41   78.36
  -1   0   2 5958.90   73.87
   1   0   2 5933.96   72.65
   1   0  -2 6329.80   77.14
  -1   0  -2 6437.08   77.09
  -1   0   2 6217.26   75.76
   1   0   2 6487.01   77.70
   1   0  -3   85.56    4.45
  -1   0   3   84.41    4.31
   1   0  -3  111.61    8.68
  -1   0  -3   92.85    6.10
  -1   0   3   96.62    9.23
   1   0   3   89.86    2.84
   1   0   4  138.10    4.76
   1   0  -4  141.72    5.16
  -1   0   4  141.88    5.13
   1   0  -4  154.70   13.97
  -1   0  -4  141.43    6.25
  -1   0   4  142.67   12.05
   1   0   4  133.18    3.64
   1   0  -5 3305.32   43.49
  -1   0   5 3060.59   40.49
   1   0  -5 3319.98   43.70
  -1   0  -5 3282.19   41.74
  -1   0   5 3112.47   40.83
   1   0   6 1587.13   21.30
   1   0  -6 1607.00   23.66
  -1   0   6 1568.48   23.06
   1   0  -6 1579.57   23.69
  -1   0  -6 1610.70   24.28
  -1   0   6 1550.25   22.84
  -1   0  -7  640.42   11.00
   1   0   7  665.30   11.37
   1   0  -7  663.25   12.69
   1   0  -7  692.54   13.71
  -1   0  -7  655.22   13.69
  -1   0   7  610.66   15.47
   1   0   7  599.79   10.78
  -1   0  -8   60.13    8.17
   1   0   8   47.32    4.12
   1   0  -8   51.91    4.44
  -1   0   8   39.90    3.41
   1   0  -8   45.15    6.90
  -1   0  -8   42.91    6.74
  -1   0   8   44.48    8.47
   1   0   8   31.47    3.32
  -1   0  -9    7.64    2.23
   1   0   9    9.64    2.84
   1   0  -9    2.58    2.63
  -1   0   9    4.77    2.77
   1   0  -9    9.42    3.73
   1   0   9    6.15    3.57
  -1   0 -10  143.26    6.33
   1   0  10  139.06    5.16
   1   0 -10  139.94    6.39
  -1   0  10  137.99    6.26
   1   0 -10  149.70   16.50
   1   0  10  132.18    5.96
  -1   0 -11  563.84   30.42
   1   0  11  508.60   25.80
   1   0 -11  571.90   29.74
  -1   0  11  502.83   26.33
   1   0 -11  493.01   26.49
  -1   0 -12   19.51    3.84
   1   0  12    9.21    1.84
   1   0 -12   17.72    3.57
   1   0 -12   12.01    3.12
  -1   0 -12   20.77    4.52
  -1   0 -13   33.92    6.45
   1   0 -13   25.58    5.14
   1   0  13   29.28    4.29
  -1   0 -13   35.45    7.08
   1   0 -13   33.09    7.37
  -1   0 -14   75.15   13.13
   1   0 -14   64.50    9.13
   1   0  14   55.39    7.51
  -1   0 -14   50.69    8.97
   1   0 -14   82.47   16.35
  -1   0 -15    3.44    2.00
   1   0 -15    7.40    4.42
   1   0  15    6.12    2.19
  -1   0 -15   11.71    4.50
   1   0 -15   13.74    4.89
  -1   0 -16  109.09   19.54
   1   0 -16  110.46   14.48
   1   0  16   95.66   12.16
   1   0 -16  148.67   15.10
  -1   0 -16  122.84   16.69
  -1   0 -17   21.11    4.39
   1   0 -17   14.99    4.31
  -1   0 -17   14.69    4.52
   1   0 -17   23.05    7.14
  -1   0 -18  177.17   13.84
   1   0 -18  237.30   17.67
  -1   0 -18  224.00   28.06
   1   0 -18  257.05   34.98
  -1   0 -19   66.04   11.55
   1   0 -19   69.15    9.85
  -1   0 -19  100.28   17.46
   1   0 -19  107.99   17.07
  -1   0 -20    3.41    1.23
   1   0 -20    3.68    3.44
   1   0 -20   20.12    7.74
  -1   0 -20    4.07    3.16
  -1   0 -21   13.01    5.64
   1   0 -21   23.64    9.87
  -1   0 -21    6.74    5.33
   1   0 -21   10.49    5.21
   1   0 -22  146.69   12.93
  -1   0 -22  158.78   23.58
   1   0 -22  161.01   23.48
   1   0 -23   62.71   16.87
  -1   0 -23   58.48   17.01
   1   0 -23   67.63   18.76
   1   0 -24  161.61   32.77
  -1   0 -24  133.25   25.74
   1   0 -25   61.35   18.52
  -1   0 -25   23.23    8.14
  -1   0 -26   14.94    6.94
   1   0 -26   24.01    9.90
  -2   0  -1   -0.18    0.24
   2   0  -2   20.90    3.73
  -2   0   2   19.72    2.67
   2   0   2   11.23    4.10
   2   0  -2   23.72    2.67
  -2   0   2   13.77    2.05
   2   0  -3   18.21    5.32
  -2   0   3   10.86    3.14
   2   0   3    1.07    3.33
   2   0  -3    5.11    2.27
  -2   0   3    6.74    2.93
   2   0  -4  320.99    9.66
  -2   0   4  288.62    8.17
  -2   0  -4  312.66    7.13
   2   0  -4  309.09   15.68
  -2   0   4  270.90   16.39
   2   0   4  319.00    5.11
   2   0  -5   24.89    4.24
  -2   0   5   22.38    3.40
   2   0   5   19.08    2.95
  -2   0  -5   19.17    1.97
  -2   0   5   26.12    3.27
   2   0   5   19.22    1.84
   2   0  -6   34.98    6.52
  -2   0   6   21.08    3.22
  -2   0  -6   26.72    3.03
   2   0  -6   28.74    3.92
  -2   0   6   18.36    2.71
   2   0   6   22.15    2.37
   2   0   7  373.99   10.78
   2   0  -7  398.80   13.49
   2   0  -7  393.99   14.86
  -2   0  -7  392.41   13.92
   2   0   7  395.40   10.86
   2   0   8  500.56   13.61
   2   0  -8  504.74   15.84
   2   0  -8  481.22   32.05
  -2   0  -8  521.14   14.51
   2   0   8  512.28   13.79
   2   0   9   37.29    7.83
   2   0  -9   46.40    6.12
  -2   0  -9   46.74    6.09
   2   0  -9   40.56    7.08
   2   0   9   36.38    3.94
   2   0  10   23.23    4.65
   2   0 -10   21.46    4.18
   2   0 -10   24.15    5.77
  -2   0 -10   21.37    3.86
   2   0  10   19.38    2.77
   2   0  11  531.86   31.43
   2   0 -11  616.15   35.61
  -2   0 -11  610.81   35.13
   2   0 -11  544.21   32.61
   2   0  11  527.23   29.87
   2   0  12    8.67    2.43
   2   0 -12    5.16    3.59
  -2   0 -12    0.59    1.73
   2   0 -12    5.73    2.92
   2   0 -13 2097.85  248.96
  -2   0 -13 2055.51  243.80
   2   0 -13 1828.04  123.72
   2   0  14  494.63   30.59
   2   0 -14  659.05   41.81
   2   0 -14  610.15   41.13
  -2   0 -14  736.59   61.67
   2   0  15   96.95   12.22
   2   0 -15  113.77   15.17
   2   0 -15  139.90   15.99
  -2   0 -15  119.78   12.75
   2   0 -16  240.79   19.73
  -2   0 -16  269.81   29.23
   2   0 -16  222.38   30.75
   2   0 -17  561.79   39.40
  -2   0 -17  622.19   52.12
   2   0 -17  616.01   52.71
   2   0 -18  330.09   20.10
   2   0 -18  352.03   28.67
  -2   0 -18  357.35   38.91
   2   0 -19    3.28    3.25
   2   0 -19    9.51    7.00
  -2   0 -19    5.38    3.06
   2   0 -20  330.84  104.90
  -2   0 -20  318.54  104.75
   2   0 -20  301.25   44.05
   2   0 -21   20.95    5.73
  -2   0 -21    8.59    4.71
   2   0 -21   11.52    5.46
   2   0 -22   11.95    5.37
  -2   0 -22   11.05    5.03
   2   0 -22   11.23    4.71
   2   0 -23    3.41    3.11
   2   0 -23    6.65    2.85
  -2   0 -23   11.77    5.35
   2   0 -24   14.35    4.73
  -2   0 -24    9.02    4.29
   2   0 -24   12.29    3.88
  -2   0 -25   58.78   11.44
   2   0 -25   36.30   15.39
   3   0   0    7.29    4.68
  -3   0   0    1.75    1.25
   3   0  -1   27.28    5.27
   3   0   1   17.56    6.09
  -3   0   1   23.47    1.92
  -3   0  -1   27.49    1.03
  -3   0  -1   23.61    2.11
   3   0  -2    7.06    4.13
   3   0   2    4.18    4.08
   3   0  -2    1.63    1.81
  -3   0   2    8.49    2.18
   3   0  -3  174.22   17.30
   3   0   3  184.17   17.25
   3   0  -3  193.14   21.06
  -3   0   3  177.12   15.57
   3   0  -4  249.60   22.62
   3   0   4  317.24   18.04
   3   0  -4  296.42   19.80
  -3   0   4  272.10   14.61
   3   0  -5   24.92    5.08
   3   0   5   26.65    4.97
   3   0  -5   37.19    5.57
  -3   0   5   21.62    3.40
   3   0   6    2.37    0.70
   3   0  -7  373.08   22.74
   3   0   7  373.84   21.93
  -3   0  -7  421.83   23.31
   3   0  -7  370.77   34.55
   3   0   7  350.97   19.41
   3   0  -8  160.65   20.69
   3   0   8  159.98   20.28
  -3   0  -8  156.86   20.93
   3   0  -8  180.11   18.29
   3   0   8  147.60   17.96
   3   0   9  630.91   35.37
   3   0  -9  762.33   43.84
   3   0   9  739.86   41.56
  -3   0  -9  831.89   46.34
   3   0  -9  671.41   40.38
   3   0   9  746.14   41.00
   3   0  10   40.57    8.84
   3   0 -10   64.15   10.19
   3   0  10   68.43    9.47
  -3   0 -10   78.77   11.96
   3   0 -10   66.63   10.96
   3   0 -11  649.98   45.09
   3   0  11  623.70   42.35
  -3   0 -11  723.78   49.11
   3   0 -11  611.35   44.45
   3   0  11  638.26   42.93
   3   0 -12  200.62   15.34
   3   0  12  169.56   11.85
  -3   0 -12  186.07   21.32
   3   0 -12  188.35   19.67
   3   0  12  157.93   10.92
   3   0 -13   52.28    8.59
   3   0  13   69.44    9.85
  -3   0 -13   77.27   12.96
   3   0 -13   75.25   13.95
   3   0 -14   64.81   10.17
  -3   0 -14  102.37   16.27
   3   0 -14   87.41   16.47
   3   0 -15  516.08   36.74
  -3   0 -15  570.23   45.99
   3   0 -15  458.85   54.94
   3   0 -16  191.28   14.38
  -3   0 -16  165.38   18.34
   3   0 -16  196.04   25.40
   3   0 -17   17.35    4.44
  -3   0 -17   12.64    4.74
   3   0 -17   40.40    7.43
   3   0 -18   32.63   13.33
  -3   0 -18   41.89   16.98
   3   0 -18   43.52   18.04
   3   0 -19  312.42   26.67
  -3   0 -19  317.13   45.46
   3   0 -19  281.63   43.87
   3   0 -20   15.26    6.01
  -3   0 -20    5.13    4.40
   3   0 -20   26.96    7.21
   3   0 -21   70.68   13.29
  -3   0 -21   65.94   13.52
   3   0 -21   45.63   18.40
   3   0 -22   20.61    7.98
  -3   0 -22   27.18    9.79
   3   0 -22   11.24    5.65
   3   0 -23   16.59    5.70
  -3   0 -23    0.98    2.74
   3   0 -23   13.17    5.27
   3   0 -24   40.84    9.11
  -3   0 -24   45.12    9.79
   3   0 -24   66.70   15.55
   4   0   0   66.28   10.41
  -4   0   0   53.69    6.71
   4   0  -1   20.45    5.85
   4   0   1    9.95    3.65
  -4   0   1    9.56    1.60
  -4   0   1    9.05    1.60
   4   0  -2   58.32    8.92
   4   0   2   67.13   10.03
  -4   0   2   57.01    7.40
  -4   0   2    4.31    1.31
   4   0  -3    3.81    3.96
   4   0   3   19.89    6.66
  -4   0   3    1.78    1.94
  -4   0   3    3.91    1.94
   4   0  -4   23.51    6.81
   4   0   4    6.74    3.22
  -4   0   4    5.80    2.07
  -4   0   4    4.28    2.48
   4   0  -5   23.87    5.57
   4   0   5   35.57    6.81
   4   0  -5   49.41    7.40
  -4   0   5   25.53    4.04
   4   0  -6   19.57    7.06
   4   0   6   15.07    3.68
   4   0  -6   17.68    3.65
   4   0  -7  877.64   55.64
   4   0   7  742.45   46.72
   4   0  -7  810.93   51.16
   4   0  -8  326.39   22.90
   4   0   8  242.39   17.28
   4   0  -8  266.19   24.83
   4   0  -9  749.47   56.75
   4   0   9  668.84   50.25
   4   0  -9  671.80   51.62
   4   0 -10   10.54    5.24
   4   0  10    7.61    3.44
   4   0 -10    9.10    3.70
   4   0  10    8.25    1.44
   4   0  11    2.59    1.07
   4   0  12    1.97    1.20
   4   0 -13  134.19   20.21
   4   0  13    5.21    1.92
   4   0 -14   55.34    7.50
   4   0 -14   71.23   12.91
   4   0  14    1.07    1.11
   4   0 -15   19.78    9.98
   4   0  15    3.78    2.37
   4   0 -15   19.30    8.44
   4   0  15    4.68    2.77
   4   0 -16   15.04    6.44
   4   0  16    4.84    2.63
   4   0 -16   11.64    6.31
   4   0 -17   64.53   17.38
   4   0 -17   76.18   20.50
   4   0 -18   72.99   17.92
   4   0 -18   69.40   18.24
   4   0 -19   58.54   12.91
   4   0 -19   89.34   19.16
   4   0 -20   48.37    8.25
   4   0 -20   48.88    9.34
   4   0 -21   11.52    6.18
   4   0 -21    6.26    4.08
   4   0 -22   40.84   10.17
   4   0 -22   22.63    7.53
   5   0   0   12.75    5.13
   5   0  -1  264.77   21.13
   5   0   1  277.15   22.28
   5   0  -2  171.23   14.56
   5   0   2  189.77   15.87
  -5   0   2  154.36   10.76
   5   0  -3   59.25   10.84
   5   0   3   38.86    7.82
  -5   0   3   52.97    8.46
  -5   0   4    4.20    1.75
   5   0  -5    7.98    4.29
   5   0   5   14.13    4.97
  -5   0   5    7.18    2.58
   5   0  -6   14.26    6.54
   5   0   6    5.01    5.46
  -5   0   6    3.03    1.67
   5   0  -7   84.22   11.74
  -5   0   7    0.38    1.51
   5   0  -8   86.40   12.75
  -5   0   8    3.54    1.89
   5   0  -9   50.94    7.42
   5   0   9   39.56    5.09
   5   0 -10   19.49    5.56
   5   0  10   16.47    4.90
   5   0 -10    5.97    3.09
   5   0 -11  201.19   24.81
   5   0  11  201.61   23.90
   5   0 -11  178.79   21.17
   5   0 -12  197.81   19.14
   5   0  12  181.20   16.35
   5   0 -12  196.28   17.41
   5   0 -13   19.49    5.99
   5   0  13    7.27    2.84
   5   0 -13    7.38    2.96
   5   0 -14   13.60    4.95
   5   0  14   33.73    9.74
   5   0 -14   13.36    5.21
   5   0 -15   46.96   15.79
   5   0 -16   93.56   17.30
   5   0 -16   79.91   14.78
   5   0 -17   41.82   13.47
   5   0 -17   48.72    8.26
   5   0 -18   33.48   11.90
   5   0 -18   35.53   11.79
   5   0 -19    9.75    5.51
   5   0 -19   11.42    5.32
   6   0   0  357.78   31.47
   6   0  -1   12.06    6.04
   6   0   1    0.95    4.07
   6   0  -2   69.50    9.66
   6   0   2   45.95   15.75
   6   0  -3   78.76   10.24
   6   0   3   74.35    9.88
   6   0  -4   71.04    9.47
   6   0   4   69.05    9.19
   6   0  -5  283.65   24.68
   6   0   5  257.03   22.14
   6   0  -6  430.91   34.74
   6   0   6  452.95   90.87
   6   0  -7   43.90   12.22
   6   0   7   53.66   14.99
   6   0  -8   14.05    5.72
   6   0   8    8.22    4.28
   6   0  -9   16.80    6.10
   6   0   9    7.77    3.91
   6   0 -10  209.99   36.07
   6   0  10  219.66   41.04
   6   0 -11   17.75    8.38
   6   0  11    6.49    3.35
  -6   0  11    3.68    2.67
   6   0 -12    5.59    5.16
   6   0  12    0.93    2.71
  -6   0  12    8.92    3.94
   6   0 -13   48.07   11.88
  -6   0  13    1.55    2.31
   6   0 -14    9.77    5.72
  -6   0  14    5.08    3.25
   6   0 -15   46.98   12.17
  -6   0  15    2.64    3.01
   7   0   0   -1.62    3.62
   7   0  -1   10.15    6.12
   7   0   1   10.52    4.65
   7   0  -2  132.59   25.72
   7   0   2  134.79   25.90
   7   0  -3   11.60    4.65
   7   0   3    2.47    3.67
   7   0  -4   14.64    5.64
   7   0   4   12.53    5.08
   7   0  -5   35.21   13.53
   7   0   5   42.93    7.86
   7   0  -6   30.55   12.01
   7   0   6   23.61   10.22
   7   0  -7   12.69    6.73
   7   0   7   11.07    6.50
   7   0  -8    6.17    4.07
   7   0   8   13.07    6.41
   7   0  -9    7.82    4.66
   7   0   9   11.90    6.12
   0   1 -26   75.46   16.40
   0   1 -25   12.64    5.06
   0   1 -24   10.46    4.74
   0   1 -23   20.42    7.94
   0   1 -23    9.23    5.81
   0   1 -22  217.08   31.04
   0   1 -22  260.81   37.22
   0   1 -21    5.62    2.61
   0   1 -21   11.42    6.15
   0   1 -20    4.21    2.43
   0   1 -20   14.48    5.73
   0   1 -19   48.36    9.55
   0   1 -19   50.84   10.75
   0   1 -18  137.64   17.20
   0   1 -18  140.14   23.48
   0   1 -17  222.80   24.12
   0   1 -17  223.63   24.76
   0   1 -16   28.06    5.41
   0   1 -16   13.63    4.40
   0   1 -15  167.85   23.83
   0   1 -15  162.85   20.87
   0   1 -14  208.87   18.26
   0   1 -14  243.22   29.71
   0   1 -13  143.69   22.07
   0   1 -13  173.68   21.99
   0   1 -12  191.73   17.36
   0  -1  12  145.74   13.23
   0   1 -12  214.14   34.33
   0   1 -11   31.04    4.82
   0  -1  11   16.59    2.53
   0   1 -11   23.15    5.11
   0   1 -10  358.47   11.31
   0  -1  10  321.10    9.98
   0   1 -10  405.25   18.72
   0  -1   9  841.47   21.74
   0   1  -9  968.07   26.22
   0  -1   9  725.73   19.62
   0   1  -8  189.39    7.37
   0  -1   8  178.56    6.31
   0   1  -8  261.31   27.66
   0  -1   8  145.89   13.23
   0   1  -7  408.86    8.17
   0   1  -7  465.70   12.35
   0  -1   7  436.95   19.86
   0   1  -6 2767.03   36.18
   0  -1   6 2768.89   36.22
   0   1  -6 3056.84   40.88
   0  -1   6 2595.72   35.19
   0   1  -5 1106.72   16.08
   0  -1   5 1101.40   16.03
   0   1  -5 1246.68   18.74
   0  -1   5 1156.21   17.19
   0   1  -4 3712.34   46.74
   0  -1   4 3550.74   44.82
   0   1  -4 3947.02   49.99
   0  -1   4 3582.10   45.49
   0  -1   2    2.03    1.36
   0   1  -1    3.80    1.35
   0  -1   1    2.05    1.31
   0   1   0    0.74    0.88
   0  -1   0    1.03    0.80
   0  -1   0    1.28    1.84
   0   1   0    2.24    1.09
   0   1   1    1.84    0.75
   0  -1  -1   -2.15    1.51
   0  -1  -3 4456.46   53.83
   0   1   3 4156.69   50.21
   0  -1  -3 4511.19   56.09
   0   1   3 4404.64   54.91
   0  -1  -4 3802.66   46.34
   0   1   4 3673.67   44.83
   0  -1  -4 3784.75   48.10
   0   1   4 3752.99   47.76
   0  -1  -5 1205.77   15.87
   0  -1  -5 1181.66   17.96
   0   1   5 1140.10   17.62
   0   1   6 2831.45   35.59
   0  -1  -6 2935.47   39.39
   0   1   6 2736.40   36.74
   0  -1  -7  441.90    7.53
   0   1   7  455.89    7.88
   0  -1  -7  466.36   10.65
   0   1   7  422.04    9.87
   0  -1  -8  198.12    6.07
   0   1   8  186.60    6.04
   0  -1  -8  220.16   18.40
   0   1   8  190.94    7.83
   0  -1  -9  870.21   21.48
   0   1   9  855.45   21.32
   0  -1  -9  863.80   25.20
   0   1   9  833.96   22.17
   0  -1 -10  363.91   10.25
   0   1  10  339.90    9.80
   0  -1 -10  391.58   13.41
   0  -1 -11   14.48    2.29
   0   1  11   22.70    3.17
   0  -1 -11   15.60    4.85
   0  -1 -12  182.93   16.05
   0   1  12  191.46   16.83
   0  -1 -12  230.76   33.75
   0  -1 -13  139.30   17.20
   0   1  13  126.10   15.73
   0  -1 -13  141.66   21.45
   0  -1 -14  235.02   16.67
   0   1  14  215.47   13.10
   0  -1 -14  283.54   36.68
   0  -1 -15  148.75   11.10
   0   1  15  136.34   10.24
   0  -1 -15  140.28   22.23
   0  -1 -16   14.24    2.85
   0   1  16   11.88    3.38
   0  -1 -16   12.22    3.60
   0  -1 -17  167.81   23.51
   0   1  17  137.28   18.37
   0  -1 -17  221.84   26.60
   0  -1 -18  106.42   20.36
   0  -1 -18  116.59   17.38
   0  -1 -19   44.08    8.55
   0  -1 -19   71.12   12.37
   0  -1 -20    4.29    1.84
   0  -1 -20    7.62    3.62
   0  -1 -21    2.77    1.89
   0  -1 -21    5.45    3.97
   0  -1 -22  281.10   38.91
   0  -1 -23   24.35    9.90
   0  -1 -24   13.68    6.07
   0  -1 -25   14.34    5.00
   0  -1 -26   61.25   14.90
  -1   1 -26   31.38   10.86
   1   1 -26   33.36   11.82
  -1   1 -25   50.49   11.36
   1   1 -25   48.95   14.51
   1   1 -24   94.44   15.02
  -1   1 -24  184.62   22.20
   1   1 -24  138.44   31.76
   1   1 -23   36.47   12.32
   1   1 -23   10.46    6.98
  -1   1 -23   23.83    9.13
   1   1 -22   89.33   11.00
  -1   1 -22   94.05   19.73
   1   1 -22  127.19   25.13
  -1   1 -21  149.75   21.78
   1   1 -21  183.22   16.50
  -1   1 -21  229.21   29.58
   1   1 -21  218.06   31.27
  -1   1 -20  127.15   20.18
   1   1 -20  171.56   14.40
  -1   1 -20  171.71   32.77
   1   1 -20  185.19   31.17
  -1   1 -19  304.95   24.54
   1   1 -19  326.80   19.85
  -1   1 -19  382.16   40.70
   1   1 -19  382.49   46.02
  -1   1 -18   12.51    3.32
   1   1 -18   11.12    3.91
  -1   1 -18   27.50    6.86
   1   1 -18   21.53    8.44
  -1   1 -17  308.93   29.81
   1   1 -17  331.24   25.88
  -1   1 -17  385.14   44.22
   1   1 -17  429.25   46.90
  -1   1 -16  222.80   16.59
   1   1 -16  242.31   16.80
  -1   1 -16  323.36   30.69
   1   1 -16  348.25   42.29
  -1   1 -15   63.09   10.57
   1   1 -15   56.19    8.68
  -1   1 -15   70.64   13.37
   1   1 -15   75.14   14.75
  -1   1 -14  124.23   13.21
   1   1 -14  137.36   11.10
  -1   1 -14  172.89   18.32
   1   1 -14  189.89   27.26
  -1   1 -13  224.87   14.00
   1  -1  13  220.53   13.29
   1   1 -13  225.11   14.34
   1   1 -13  262.73   24.62
  -1   1 -13  298.71   34.50
  -1   1 -12  180.98   11.77
   1  -1  12  177.04   10.91
   1   1 -12  206.59   13.20
   1   1 -12  192.53   27.93
  -1   1 -12  249.09   27.34
  -1   1 -11   13.42    2.90
   1  -1  11    9.56    2.16
   1   1 -11    8.52    2.56
   1   1 -11    5.81    3.40
  -1   1 -11   12.80    3.22
  -1   1 -10  108.39   12.22
   1  -1  10  101.60    9.42
   1   1 -10  121.76   11.64
  -1  -1  10  106.13   10.41
   1   1 -10  108.49   15.15
   1  -1  10   84.86   13.85
  -1   1  -9  122.66    9.66
   1  -1   9  109.13    5.09
   1   1  -9  118.96    6.81
  -1  -1   9  111.87    6.52
   1   1  -9  114.00   10.48
   1  -1   9  100.41   11.15
  -1   1  -8   92.69    4.73
   1  -1   8   80.52   13.26
   1   1  -8   84.75    5.08
  -1  -1   8   78.21    4.58
  -1   1  -8   99.13    8.55
   1   1  -8   81.45    8.39
  -1  -1   8   70.94    6.62
   1  -1   8   84.19    7.66
  -1   1  -7   46.29    7.35
   1  -1   7   53.05    9.51
   1   1  -7   59.74    5.93
  -1  -1   7   44.83    3.92
  -1   1  -7   47.91    5.91
   1   1  -7   53.71    6.55
  -1  -1   7   40.32    6.50
   1  -1   7   44.02    4.69
  -1   1  -6  266.03    6.39
   1   1  -6  292.81    8.07
  -1  -1   6  277.24    7.43
  -1   1  -6  309.10    9.05
   1   1  -6  344.98   24.78
   1  -1   6  289.74   15.92
  -1  -1   6  269.54    9.35
  -1   1  -5  163.10    6.20
   1  -1   5  175.74    4.81
   1   1  -5  198.39    6.58
  -1  -1   5  183.13    6.04
  -1   1  -5  204.57    6.02
   1   1  -5  202.89   15.46
  -1  -1   5  175.17   12.77
  -1   1  -4 5705.52   70.78
   1  -1   4 5539.34   68.79
   1   1  -4 5895.68   74.10
  -1  -1   4 5671.47   71.42
   1   1  -4 5944.39   74.45
  -1  -1   4 5490.47   68.75
   1  -1   4 5807.47   71.66
   1  -1   3  455.77    8.25
   1   1  -3  381.74    8.36
  -1  -1   3  425.31    9.03
   1  -1   3  459.84    7.40
  -1  -1   3  502.42   23.90
   1  -1   3  447.44    7.38
   1   1  -1    4.28    1.38
   1   1   0  877.83   13.47
  -1  -1   0  874.95   13.25
   1  -1   0  900.49   12.33
  -1   1   0  826.49   11.37
  -1  -1   0  850.79   11.96
   1   1   0  834.46   11.77
   1   1   1 7810.60   95.01
  -1  -1  -1 7922.90   96.30
   1  -1  -1 7681.66   94.21
   1  -1  -1 8257.21   99.93
  -1   1   1 7975.56   96.50
  -1  -1  -1 7880.37   95.14
   1   1   1 7790.66   94.09
   1   1   2  714.37   10.78
  -1  -1  -2  710.77   10.52
   1  -1  -2  728.18   12.24
  -1   1   2  665.02   11.37
   1  -1  -2  757.56   12.06
  -1   1   2  720.40   11.10
  -1  -1  -2  716.02   10.52
   1   1   2  733.34   10.89
   1   1   3  434.84    7.02
   1  -1  -3  441.05    8.91
  -1   1   3  413.10    8.38
  -1  -1  -3  416.37    6.68
   1  -1  -3  468.92    9.69
  -1   1   3  461.04    9.03
  -1  -1  -3  432.24    7.69
   1   1   3  456.86    7.99
   1  -1  -4 5684.51   71.23
  -1   1   4 5614.11   70.41
   1  -1  -4 5773.69   72.25
  -1   1   4 5717.71   71.41
  -1  -1  -4 5697.45   70.30
   1   1   4 5754.44   70.99
   1   1   5  173.64    3.80
   1  -1  -5  170.70    5.85
  -1   1   5  167.35    6.10
   1   1   5  161.41    3.32
   1  -1  -5  182.33    6.66
  -1   1   5  175.10    6.20
  -1  -1  -5  171.42    5.37
   1   1   6  269.67    5.06
   1  -1  -6  286.15    7.77
   1  -1  -6  289.95   12.75
  -1  -1  -6  294.08    7.45
  -1   1   6  252.66    7.14
   1   1   7   40.60    2.16
   1  -1  -7   43.73    4.40
  -1   1   7   33.25    3.08
   1  -1  -7   45.43    6.39
  -1  -1  -7   45.79    4.15
  -1   1   7   46.24    4.10
   1   1   7   35.61    3.78
   1   1   8   73.81    2.82
  -1   1   8   87.65    4.81
   1  -1  -8  111.72   15.23
  -1  -1  -8   93.93    8.39
  -1   1   8   83.51    4.90
   1   1   8   72.45    4.73
   1   1   9   97.34    3.54
   1  -1  -9  121.96    6.17
  -1   1   9  106.18    5.45
   1  -1  -9  107.86   15.47
   1   1   9  107.24    6.09
  -1  -1 -10  119.49   10.62
   1   1  10  101.61    8.97
   1  -1 -10  124.29   11.85
  -1   1  10  101.13    9.69
   1  -1 -10  113.92   12.51
   1   1  10  121.96   11.45
  -1  -1 -11    9.63    1.57
   1   1  11    5.75    1.71
   1  -1 -11    8.99    3.60
  -1   1  11   17.33    4.24
   1  -1 -11    5.40    2.31
  -1  -1 -11    7.77    2.96
  -1  -1 -12  196.55   11.64
   1  -1 -12  191.15   12.01
   1   1  12  181.00   10.49
  -1   1  12  172.94   11.10
   1  -1 -12  187.69   24.86
  -1  -1 -12  215.51   23.59
  -1  -1 -13  241.27   14.54
   1  -1 -13  236.72   14.59
   1   1  13  219.10   12.62
  -1   1  13  205.02   12.93
   1  -1 -13  226.98   21.58
  -1  -1 -13  240.60   21.82
  -1  -1 -14  139.01   12.40
   1  -1 -14  139.19   10.73
   1  -1 -14  157.66   26.00
  -1  -1 -14  148.85   17.83
  -1  -1 -15   58.66    9.77
   1  -1 -15   53.40    7.58
   1   1  15   48.18    6.28
   1  -1 -15   76.76   13.12
  -1  -1 -15   51.14    8.95
  -1  -1 -16  254.98   17.15
   1  -1 -16  289.79   19.30
   1   1  16  248.83   15.95
  -1  -1 -16  265.25   35.32
   1  -1 -16  347.00   36.86
  -1  -1 -17  324.66   29.02
   1  -1 -17  324.32   25.26
   1   1  17  264.27   20.01
   1  -1 -17  421.06   38.86
  -1  -1 -17  388.39   45.10
  -1  -1 -18    5.14    1.25
   1  -1 -18   13.37    4.29
  -1  -1 -18   12.80    6.04
   1  -1 -19  361.35   20.87
  -1  -1 -19  354.32   42.43
   1  -1 -19  368.86   38.57
   1  -1 -20  165.49   13.57
  -1  -1 -20  161.58   29.44
   1  -1 -20  179.97   25.74
   1  -1 -21  206.80   17.68
   1  -1 -21  240.98   40.97
  -1  -1 -21  200.59   37.06
   1  -1 -22   91.43    8.86
   1  -1 -22  107.12   18.77
  -1  -1 -22  103.14   15.81
   1  -1 -23   24.91    9.53
  -1  -1 -23   23.19    9.95
  -1  -1 -24  119.55   21.96
   1  -1 -24  154.28   28.74
   1  -1 -25   43.98   17.28
  -1  -1 -25   51.90   13.12
  -1  -1 -26   39.98    9.69
   1  -1 -26   33.41   11.32
   2   1 -25   55.13   11.64
  -2   1 -25   95.86   18.98
   2   1 -25   78.81   16.45
   2   1 -24  109.19   21.21
  -2   1 -24  105.63   21.21
   2   1 -24   86.40   22.25
  -2   1 -23   33.43   11.29
   2   1 -23   48.85   10.62
   2   1 -22   34.97   11.40
  -2   1 -22   54.84   14.27
   2   1 -22   64.37   19.08
   2   1 -21   63.83   17.20
   2   1 -21   60.66   17.64
  -2   1 -21  120.58   13.42
   2   1 -20    8.17    5.97
  -2   1 -20    1.75    4.45
   2   1 -20   10.28    6.17
   2   1 -19  255.28   20.66
  -2   1 -19  269.28   38.75
   2   1 -19  220.25   29.07
   2   1 -18  342.13   21.50
  -2   1 -18  349.69   49.54
   2   1 -18  355.36   38.19
   2   1 -17  173.76   14.53
  -2   1 -17  200.38   29.55
   2   1 -17  177.34   23.08
   2   1 -16  285.62   23.21
  -2   1 -16  276.38   38.41
   2   1 -16  207.30   26.76
   2   1 -15  139.38   19.32
  -2   1 -15  157.21   18.82
   2   1 -15  130.00   19.86
   2   1 -14  135.55   10.78
  -2   1 -14  183.86   19.99
   2   1 -14  156.22   24.33
   2   1 -13  259.34   19.43
  -2   1 -13  282.02   29.62
   2   1 -13  256.89   28.72
   2  -1  12   64.36   11.85
   2   1 -12  106.39   14.70
  -2   1 -12  101.44   17.91
   2   1 -12  104.87   17.62
   2  -1  11  643.95   36.89
   2   1 -11  729.30   41.65
  -2   1 -11  788.28   45.79
   2   1 -11  662.14   43.49
   2  -1  11  634.37   35.46
   2  -1  10  425.48   22.49
   2   1 -10  452.43   24.67
  -2   1 -10  497.39   27.89
   2   1 -10  466.54   35.41
   2  -1  10  388.48   20.26
   2  -1   9  727.20   36.82
   2   1  -9  772.32   40.25
  -2   1  -9  836.38   42.32
   2   1  -9  686.62   37.32
   2  -1   9  708.67   40.49
   2  -1   8   11.23    2.10
   2   1  -8   -3.72    3.97
  -2   1  -8    9.39    3.65
   2   1  -8    2.51    2.48
   2  -1   8   10.04    2.27
   2  -1   7   44.94    9.67
   2   1  -7   71.73    5.48
   2   1  -7   78.48   10.36
   2  -1   7   54.52    6.52
   2  -1   7   51.19    3.22
   2  -1   6  162.85    6.58
   2   1  -6  191.18    8.60
   2   1  -6  229.38   17.56
   2  -1   6  175.28   11.66
   2  -1   6  140.63    4.77
   2   1  -5  431.27   13.68
  -2  -1   5  402.31   12.73
  -2  -1   5  379.95   20.60
   2  -1   5  388.95   11.20
   2  -1   5  385.83   10.04
   2   1  -4  308.21   10.73
  -2  -1   4  322.25   10.97
  -2  -1   4  312.80   17.60
   2  -1   4  294.80    7.85
   2  -1   4  297.44    7.66
   2   1  -3  157.00    6.44
  -2  -1   3  155.34    6.31
  -2  -1   3  163.87   15.39
   2  -1   3  152.04    6.49
   2  -1   3  162.80    2.92
   2   1  -1    6.05    3.76
  -2  -1   1    7.66    2.79
   2  -1   1    4.47    3.70
  -2  -1   1    7.96    1.39
   2  -1   1    6.41    0.95
  -2  -1   1   11.84    3.03
   2   1   0  837.34   15.22
  -2  -1   0  755.54   13.66
   2  -1   0  821.87   15.46
   2  -1   0  823.79   11.53
  -2   1   0  777.11   10.84
  -2  -1   0  808.56   11.88
   2   1   1    9.21    3.65
  -2  -1  -1   14.05    4.04
   2  -1  -1   18.20    6.33
  -2   1   1    4.82    2.88
   2  -1  -1    2.23    1.43
  -2   1   1   11.36    2.48
  -2  -1  -1   16.23    2.77
   2   1   1    0.40    0.78
   2   1   2  758.10   13.97
   2  -1  -2  630.23   12.96
  -2   1   2  636.16   12.22
   2  -1  -2  734.62   12.06
  -2   1   2  725.57   11.50
  -2  -1  -2  720.62   10.35
   2   1   2  707.10   10.20
   2   1   3  167.64    6.04
   2  -1  -3  155.53    6.92
  -2   1   3  134.61    5.64
  -2  -1  -3  141.34    4.73
   2  -1  -3  193.43   12.80
  -2   1   3  156.04    4.81
  -2  -1  -3  167.67    4.05
   2   1   3  167.33    4.04
   2  -1  -4  315.27   11.12
   2   1   4  327.76   10.22
  -2   1   4  272.21    9.93
   2  -1  -4  332.76   11.50
  -2   1   4  311.41    9.42
  -2  -1  -4  302.42    8.26
   2   1   4  301.75    8.30
   2  -1  -5  393.50   13.01
   2   1   5  408.09   11.69
  -2   1   5  357.91   11.71
  -2  -1  -5  362.55    9.85
  -2   1   5  373.67   11.34
   2   1   5  388.42   10.60
   2  -1  -6  188.00    9.27
  -2   1   6  158.51    7.24
   2   1   6  171.35    6.34
  -2  -1  -6  171.19    6.09
  -2   1   6  159.08    6.28
   2   1   6  175.20    5.94
   2  -1  -7   79.69    6.47
   2   1   7   71.47    3.67
   2  -1  -7   81.16   13.01
  -2  -1  -7   62.52    3.51
  -2   1   7   40.49    3.22
   2   1   7   59.58    3.59
   2   1   8    2.18    1.09
   2  -1  -8    9.66    3.28
   2   1   8   11.07    2.75
   2  -1  -8    3.70    2.79
  -2  -1  -8   11.72    3.57
   2   1   8    8.23    3.03
   2   1   9  740.98   36.95
   2  -1  -9  790.20   40.75
   2   1   9  699.00   35.00
   2  -1  -9  681.11   36.02
  -2  -1  -9  747.21   39.71
   2   1   9  723.97   36.60
   2   1  10  456.54   23.06
   2  -1 -10  486.62   26.49
   2   1  10  463.67   23.58
   2  -1 -10  420.71   26.88
  -2  -1 -10  433.80   22.74
   2   1  10  465.99   24.33
   2   1  11  681.59   37.56
   2  -1 -11  725.25   41.21
   2  -1 -11  652.77   38.73
  -2  -1 -11  709.76   40.68
   2   1  11  667.12   37.48
   2   1  12   86.78   10.78
   2  -1 -12   94.17   12.69
  -2  -1 -12   98.35   17.17
   2  -1 -12   87.45   13.65
   2   1  13  208.16   14.38
   2  -1 -13  241.64   18.24
   2  -1 -13  255.43   36.10
  -2  -1 -13  292.03   36.17
   2   1  14  120.08    8.09
   2  -1 -14  140.87   11.76
  -2  -1 -14  131.13   13.41
   2  -1 -14  146.90   19.65
   2   1  15  124.57   16.39
   2  -1 -15  139.59   19.48
  -2  -1 -15  143.90   24.25
   2  -1 -15  140.84   21.42
   2  -1 -16  238.67   19.48
   2  -1 -16  251.94   40.30
  -2  -1 -16  283.47   33.97
   2  -1 -17  199.88   16.03
   2  -1 -17  182.13   26.00
  -2  -1 -17  214.28   29.76
   2  -1 -18  348.31   21.09
   2  -1 -18  300.87   30.56
  -2  -1 -18  301.38   37.45
   2  -1 -19  250.53   20.05
  -2  -1 -19  280.72   29.81
   2  -1 -19  253.23   36.38
   2  -1 -20    4.87    4.13
   2  -1 -20   15.30    7.26
  -2  -1 -20    8.25    4.90
   2  -1 -21   57.60   15.26
   2  -1 -21   90.48   15.33
  -2  -1 -21   87.65   15.07
   2  -1 -22   49.09   15.20
  -2  -1 -22   44.00   14.69
   2  -1 -22   61.71   18.16
   2  -1 -23   37.50   11.61
  -2  -1 -23   42.78   15.04
   2  -1 -23   45.12    9.98
  -2  -1 -24   56.67   20.50
   2  -1 -24   97.59   22.09
  -2  -1 -25   85.74   21.61
   2  -1 -25   60.91   17.28
   3   1 -24    9.08    4.10
   3   1 -24   11.79    4.84
   3   1 -23   16.96    7.14
   3   1 -23   45.83    9.02
   3  -1  23    2.31    2.48
   3   1 -22   65.74   10.40
   3   1 -22   90.93   12.78
   3  -1  22    0.82    1.89
   3   1 -21  166.87   28.57
   3   1 -21  131.77   34.76
   3  -1  21    2.10    2.27
   3   1 -20    8.04    5.49
   3   1 -20    5.86    3.72
   3  -1  20    3.43    1.94
   3   1 -19  106.72   11.32
   3   1 -19  111.88   17.99
   3   1 -18    8.70    5.38
   3   1 -18    5.17    3.22
   3   1 -17   61.46    7.69
   3   1 -17   49.41    9.45
   3   1 -16   25.42    5.45
   3   1 -16   14.90    4.08
   3   1 -15  325.81   24.44
   3   1 -15  304.41   29.17
   3   1 -14  903.11   67.88
   3   1 -14  816.87   61.81
   3  -1  14  483.85   36.38
   3   1 -13 1000.06   74.87
   3   1 -13  949.28   71.10
   3  -1  13  636.83   47.22
   3   1 -12  578.34   37.50
   3   1 -12  592.43   48.52
   3  -1  12  302.52   19.27
   3  -1  12  455.69   28.64
   3   1 -11  608.00   39.07
   3   1 -11  503.39   34.77
   3  -1  11  525.69   32.52
   3  -1  11  475.14   29.54
   3   1 -10  150.69   12.88
   3   1 -10  155.26   21.83
   3  -1  10  122.20    9.00
   3   1  -9   83.10   12.19
   3   1  -9   65.27   10.64
   3  -1   9   71.69    9.11
   3  -1   9    6.31    1.55
   3   1  -8  949.84   53.79
   3  -1   8  826.51   46.43
   3   1  -8  902.30   50.58
   3  -1   8  935.91   51.06
   3  -1   8  910.07   49.67
   3   1  -7 1177.75   65.94
   3  -1   7  843.59   47.28
   3   1  -7 1016.56   56.53
   3  -1   7 1054.76   57.26
   3  -1   7 1003.18   54.47
   3   1  -6  183.56   17.30
   3  -1   6  254.95   22.79
   3   1  -6  282.88   15.79
  -3  -1   6  229.98   23.63
   3  -1   6  266.03   31.89
   3  -1   6  249.09   21.05
   3   1  -5    6.49    3.33
   3  -1   5    6.29    2.95
  -3  -1   5   12.51    2.47
  -3  -1   5    0.14    1.86
  -3  -1   4    2.02    1.75
  -3  -1   3    5.89    2.27
   3   1  -2  281.63   17.03
   3  -1   2  314.58   18.23
  -3  -1   2  357.65   21.03
  -3  -1   2  343.25   17.89
   3   1  -1  324.58   18.63
   3  -1   1  352.41   19.96
   3  -1   1  356.96   17.60
  -3  -1   1  370.42   19.54
  -3  -1   1  366.49   18.77
   3   1   0   10.70    6.05
   3  -1   0    7.40    4.37
   3  -1   0   14.96    2.23
  -3  -1   0   16.47    2.58
  -3  -1   0   13.74    1.99
   3  -1  -1  366.80   20.69
  -3  -1  -1  379.32   19.16
   3  -1  -1  391.67   20.36
  -3   1   1  364.23   18.44
  -3  -1  -1  359.51   18.10
   3   1   2  376.87   20.92
   3  -1  -2  286.25   16.61
   3  -1  -2  328.55   17.39
  -3   1   2  326.69   16.88
  -3  -1  -2  316.86   15.89
   3   1   3    1.47    0.86
   3  -1  -4  163.81   15.83
   3   1   4  164.43   15.75
   3  -1  -4  171.64   19.62
  -3  -1  -4  150.72   12.91
  -3   1   4  162.70   14.62
   3   1   4  139.53   11.98
   3  -1  -5   12.09    4.79
   3   1   5   22.92    4.65
   3  -1  -5   17.01    3.09
  -3  -1  -5   14.70    1.86
  -3   1   5   23.18    3.33
   3   1   5   13.95    1.79
   3  -1  -6  251.15   23.13
   3   1   6  296.05   16.61
   3  -1  -6  337.29   26.57
  -3  -1  -6  250.13   22.25
  -3   1   6  240.13   21.08
   3   1   6  279.85   14.37
   3  -1  -7 1081.38   60.80
   3   1   7 1106.09   61.15
   3  -1  -7  972.97   55.15
  -3  -1  -7 1015.44   55.36
   3   1   7 1044.73   56.94
   3  -1  -8  966.60   54.73
   3   1   8  979.67   54.28
   3  -1  -8  858.63   48.77
  -3  -1  -8  883.82   48.40
   3   1   8  877.32   48.05
   3   1   9   63.48    8.54
   3  -1  -9   96.42   10.48
   3   1   9   83.58   10.91
   3  -1  -9   61.89   10.20
  -3  -1  -9   71.87   10.84
   3   1   9   73.20    9.45
   3  -1 -10  170.95   14.11
   3   1  10  149.20   11.18
   3  -1 -10  145.84   15.30
  -3  -1 -10  154.28   13.84
   3   1  11  473.33   29.73
   3  -1 -11  584.78   37.75
   3   1  11  602.68   37.53
   3  -1 -11  532.82   34.60
  -3  -1 -11  567.97   35.40
   3   1  11  546.62   33.96
   3   1  12  446.48   30.56
   3  -1 -12  558.88   36.22
   3   1  12  585.05   36.38
   3  -1 -12  555.80   59.07
  -3  -1 -12  513.79   36.42
   3   1  12  407.26   25.71
   3   1  13  793.43   58.16
   3  -1 -13  969.80   72.38
  -3  -1 -13  942.30   70.64
   3  -1 -13  871.68   65.90
   3  -1 -14  886.70   66.41
   3   1  14  857.68   63.06
   3  -1 -14  762.65   59.54
  -3  -1 -14  864.60   64.95
   3  -1 -15  292.09   22.30
   3   1  15  282.29   19.75
   3  -1 -15  275.96   35.57
  -3  -1 -15  282.79   32.47
   3  -1 -16   14.10    4.66
   3   1  16   20.95    3.40
   3  -1 -16   39.77    9.26
  -3  -1 -16   22.47    4.55
   3  -1 -17   57.29    8.01
   3  -1 -17   49.32    8.95
  -3  -1 -17   58.05    8.63
   3  -1 -18   13.55    6.66
  -3  -1 -18    5.43    3.48
   3  -1 -18   16.91    7.29
   3  -1 -19  130.01   13.45
  -3  -1 -19  111.06   15.57
   3  -1 -19  117.21   17.20
   3  -1 -20   16.15    6.52
  -3  -1 -20    8.92    3.54
   3  -1 -20    7.74    3.14
   3  -1 -21  157.32   26.96
  -3  -1 -21  104.67   24.57
   3  -1 -21  144.24   36.71
   3  -1 -22   68.51    9.83
  -3  -1 -22   64.55   14.75
   3  -1 -22   69.07   13.42
   3  -1 -23    9.21    4.05
  -3  -1 -23   23.26   10.04
   3  -1 -23   29.86   14.43
   3  -1 -24   14.99    6.47
  -3  -1 -24    4.50    4.55
   3  -1 -24   12.08    6.60
   4   1 -22   17.70    8.15
   4   1 -22   18.21    7.69
   4   1 -21    6.66    4.26
   4   1 -21   16.47    7.05
   4   1 -20   19.51    8.87
   4   1 -20   27.63    9.66
   4   1 -19   44.67   15.28
   4   1 -19   72.45   14.56
   4   1 -18  121.60   28.66
   4   1 -18  123.97   29.02
   4   1 -17   95.48   10.80
   4  -1  17   58.09   14.93
   4   1 -17   92.47   11.42
   4   1 -16   45.28   16.02
   4  -1  16   20.50    7.40
   4   1 -16   41.50   14.93
   4   1 -15  284.20   33.41
   4  -1  15  236.86   27.34
   4   1 -15  268.90   31.47
   4   1 -14    8.04    6.34
   4  -1  14    7.54    3.19
   4   1 -14    9.50    4.37
   4   1 -13   45.59    7.86
   4  -1  13   26.11    4.66
   4   1 -13   46.93    7.75
   4  -1  13   29.47    4.16
   4   1 -12  235.76   19.06
   4  -1  12  194.42   15.15
   4   1 -12  220.46   17.33
   4  -1  12  209.04   14.50
   4   1 -11  661.58   46.39
   4  -1  11  581.91   40.36
   4   1 -11  654.26   45.44
   4  -1  11  613.53   40.73
   4   1 -10  563.67   43.62
   4  -1  10  465.91   35.88
   4   1 -10  522.68   39.92
   4  -1  10  488.71   35.62
   4   1  -9   72.67   11.80
   4  -1   9   72.67   11.13
   4   1  -8   68.03   11.34
   4  -1   8   68.60   10.56
  -4  -1   8   10.11    3.67
  -4  -1   7    5.43    2.26
  -4  -1   6    9.51    2.95
  -4  -1   5    0.72    1.68
   4  -1   4   77.38   11.10
  -4  -1   4   53.58    9.40
  -4  -1   4    5.99    2.18
   4   1  -3   77.59   12.30
   4  -1   3   59.81    8.97
  -4  -1   3   39.64    7.13
  -4  -1   3   42.16    6.12
   4   1  -2   45.15    7.51
   4  -1   2   49.25    7.93
  -4  -1   2   46.05    7.50
  -4  -1   2   60.43    8.02
   4   1  -1  150.61   13.01
   4  -1   1  179.51   14.58
  -4  -1   1  137.77   14.54
  -4  -1   1  184.10   12.83
   4   1   0   77.08   11.07
   4  -1   0   60.82    9.27
  -4  -1   0   73.98   10.56
  -4  -1   0   83.24   10.20
   4   1   1  147.23   12.46
   4  -1  -1  193.30   16.75
  -4   1   1  170.15   11.69
  -4  -1  -1  169.96   11.56
   4   1   2   42.03    6.82
   4  -1  -2   58.62    9.23
   4  -1  -2   60.15    9.66
  -4   1   2   44.82    5.93
   4   1   3   51.42    7.74
   4  -1  -3   70.83   11.08
   4  -1  -3   60.32    9.83
  -4   1   3   50.17    6.74
   4   1   4   90.88   12.35
   4  -1  -4   80.04   11.71
   4  -1  -4  114.19   11.69
  -4   1   4   90.71   11.48
   4  -1  -5  181.72   16.11
   4   1   5  203.26   15.54
   4  -1  -5  292.33   26.67
  -4   1   5  190.25   13.73
   4  -1  -6  302.50   21.38
   4   1   6  237.12   16.43
   4  -1  -6  259.42   21.24
   4  -1  -7  168.25   14.24
   4   1   7  163.83   12.41
   4  -1  -7  180.21   22.46
   4  -1  -8   50.84    8.63
   4   1   8   44.16    6.66
  -4  -1  -8   42.53    6.47
   4  -1  -8   47.60    8.31
   4  -1  -9   63.43   10.35
   4   1   9   51.58    8.35
  -4  -1  -9   58.80    9.31
   4  -1  -9   68.99   13.21
   4   1   9   49.81    6.70
   4  -1 -10  542.20   42.05
   4   1  10  475.80   36.06
  -4  -1 -10  521.62   38.78
   4  -1 -10  606.40   53.67
   4  -1 -11  688.68   48.40
   4   1  11  609.94   41.74
  -4  -1 -11  674.35   45.89
   4  -1 -11  719.80   69.05
   4  -1 -12  252.00   20.05
   4   1  12  201.45   15.36
  -4  -1 -12  248.64   20.85
   4  -1 -12  219.39   30.46
   4  -1 -13   26.70    6.31
   4   1  13   27.53    5.05
  -4  -1 -13   36.92    6.62
   4  -1 -13   36.57    7.34
   4  -1 -14   18.36    6.87
   4   1  14    3.67    1.83
   4  -1 -14    9.15    5.49
   4  -1 -15  264.53   31.23
   4   1  15  210.53   24.09
  -4  -1 -15  223.87   35.05
   4  -1 -15  233.63   42.85
   4  -1 -16   44.80   15.68
  -4  -1 -16   25.02    9.15
   4  -1 -16   28.82   10.78
   4  -1 -17   74.90   20.25
   4  -1 -17   91.73   12.75
   4  -1 -18  162.48   37.62
   4  -1 -18  117.39   31.38
   4  -1 -19   68.91   13.31
   4  -1 -19   34.36   12.85
   4  -1 -20   27.15    9.98
   4  -1 -20   18.32    6.52
   4  -1 -21   21.29   10.14
   4  -1 -21    6.36    2.61
   4  -1 -22    0.00    3.70
   4  -1 -22   25.53   10.06
   5   1 -19   11.90    6.78
  -5  -1  19   15.30    6.02
   5   1 -18   16.83    9.08
  -5  -1  18   15.04    5.72
   5   1 -17   42.75   13.85
  -5  -1  17    6.68    3.92
   5   1 -16    8.60    7.06
  -5  -1  16    0.45    3.25
   5   1 -15   52.95   11.42
   5  -1  15   65.48   12.14
  -5  -1  15    5.65    3.65
   5   1 -14   35.91   12.32
   5  -1  14   44.18   14.24
  -5  -1  14    4.32    3.59
   5   1 -13   31.78   10.65
   5  -1  13   18.04    4.56
  -5  -1  13   16.29    4.90
  -5  -1  12    8.76    4.21
   5   1 -11   45.02   17.68
   5  -1  11   75.78   10.84
  -5  -1  11   13.94    6.73
   5   1 -10   62.24   11.56
   5  -1  10   30.50   12.00
  -5  -1  10    5.29    4.39
  -5  -1   9    9.80    3.78
   5   1  -8   39.03    7.42
   5  -1   8   39.90    8.01
  -5  -1   8    5.25    3.40
  -5  -1   7    3.44    2.08
   5   1  -6  341.59   21.46
   5  -1   6  477.44   28.13
   5   1  -5   93.61   15.97
   5  -1   5  121.03   11.58
  -5  -1   5  112.51    9.61
   5   1  -4  177.02   15.07
   5  -1   4  197.51   16.40
  -5  -1   4  183.72   13.33
   5   1  -3   55.77   10.27
   5  -1   3   66.34   13.29
  -5  -1   3   62.13    9.93
   5   1  -2   33.84    7.45
   5  -1   2   30.40    8.62
  -5  -1   2   19.41    3.41
   5   1  -1  303.00   23.72
   5  -1   1  274.25   22.68
   5   1   0  330.37   25.36
   5  -1   0  374.42   28.29
   5   1   1  264.35   20.68
   5  -1  -1  286.90   22.23
   5   1   2   20.02    6.05
   5  -1  -2   34.84    8.52
   5   1   3   69.87   12.38
   5  -1  -3   82.15   14.34
  -5   1   3    0.46    0.83
  -5   1   4    3.97    1.54
   5  -1  -5  102.69   17.25
   5   1   5  102.85   17.39
   5  -1  -5  119.19    9.58
   5  -1  -6  388.29   24.51
   5   1   6  469.66   27.93
   5  -1  -6  399.55   24.78
   5  -1  -7  515.37   31.12
   5   1   7  406.87   24.39
   5  -1  -7  426.33   35.14
   5  -1  -8   47.81    9.87
   5   1   8   50.02    8.33
   5  -1  -8   35.91    8.09
   5  -1  -9  254.80   21.77
   5   1   9  198.39   16.58
   5  -1  -9  228.01   20.18
   5  -1 -10   28.46   11.76
   5   1  10   21.27    8.67
   5  -1 -10   29.70   11.71
   5  -1 -11   61.39   10.51
   5   1  11   42.27   16.29
   5  -1 -11   51.66   17.83
   5  -1 -12  131.50   14.05
   5   1  12  112.14   11.12
   5  -1 -12  115.50   16.98
   5  -1 -13   24.62    7.80
   5   1  13   21.93    4.85
   5  -1 -13   29.41    7.80
   5  -1 -14   48.61   16.24
   5  -1 -14   47.44   18.28
   5  -1 -15   56.73   12.19
   5  -1 -15   72.86   15.97
   5  -1 -16    8.83    4.84
   5  -1 -16    8.02    2.93
   5  -1 -17   34.97   11.53
   5  -1 -17   29.74   11.24
   5  -1 -18   14.94    5.40
   5  -1 -18    8.36    2.93
   5  -1 -19    8.39    5.65
   5  -1 -19   11.79    3.92
   6   1 -15   16.95    9.00
  -6  -1  15    4.05    2.96
   6   1 -14   14.50    5.29
  -6  -1  14   -1.31    2.21
   6   1 -13   35.77   11.66
   6  -1  13   41.40   13.31
  -6  -1  13    1.49    2.11
  -6  -1  12    0.64    2.11
   6   1 -11  129.31   17.86
   6  -1  11   58.03    8.38
  -6  -1  11    4.93    2.21
   6   1 -10   12.97    6.49
   6  -1  10    8.25    3.97
   6   1  -9  214.74   49.32
   6  -1   9  167.35   38.43
   6   1  -8   37.70   12.59
   6  -1   8   39.05   12.83
   6   1  -7  144.65   14.46
   6  -1   7  165.70   15.76
   6   1  -6  253.15   22.17
   6  -1   6  258.81   22.62
   6   1  -5   26.38    6.95
   6  -1   5   53.88   15.52
   6   1  -4   67.64    8.95
   6  -1   4   92.31   11.29
   6   1  -3   30.24   10.68
   6  -1   3   65.72    9.91
   6   1  -2  285.54   25.20
   6  -1   2  276.96   24.94
   6   1  -1   50.47   17.49
   6  -1   1   69.53    9.59
   6   1   0   44.62   15.36
   6  -1   0   57.76    9.34
   6   1   1   68.73    8.75
   6  -1  -1   63.57    9.63
   6   1   2  321.08   28.69
   6  -1  -2  278.99   24.91
   6   1   3   55.15    7.82
   6  -1  -3   42.67   14.91
   6  -1  -4   55.98    7.91
   6   1   4   71.20    9.19
   6   1   5   24.14    6.97
   6  -1  -5   14.08    5.08
   6  -1  -6  225.83   20.15
   6   1   6  283.20   23.67
   6  -1  -7  168.02   16.42
   6   1   7  144.99   14.38
   6  -1  -8   75.62   18.98
   6   1   8   42.14   13.84
   6  -1  -9  251.71   57.92
   6   1   9  178.02   40.80
   6  -1 -10   13.04    5.89
   6   1  10    7.78    4.55
   6  -1 -11   84.09   12.29
   6   1  11   60.93    8.94
   6  -1 -12  144.20   18.18
   6  -1 -13   29.89   10.78
   6  -1 -14   10.80    7.88
   6  -1 -14    2.40    2.51
   6  -1 -15   21.16    8.55
   6  -1 -15    8.63    3.35
   7   1  -9   41.02   14.18
   7  -1   9   67.56   21.93
   7   1  -8   45.83   10.75
   7  -1   8   25.05    8.15
   7   1  -7    7.19    4.16
   7  -1   7   14.18    7.59
   7   1  -6    4.31    4.13
   7  -1   6    8.44    4.87
   7   1  -5   19.11    8.22
   7  -1   5   17.35    8.83
   7   1  -4   63.99   11.16
   7   1  -3    6.54    4.56
   7  -1   3   25.32   10.67
   7   1  -2    0.11    4.16
   7  -1   2    7.69    6.65
   7   1  -1   69.88   15.02
   7  -1   1   74.29   15.33
   7   1   0   82.20   17.01
   7  -1   0  112.11   21.93
   7   1   1   52.62   11.52
   7  -1  -1   61.91   13.53
   7   1   2    2.08    3.60
   7  -1  -2    5.51    4.24
   7   1   3    7.43    4.08
   7  -1  -3    9.83    6.28
   7   1   4   66.50   10.54
   7  -1  -4   63.88   10.84
   7   1   5    2.93    3.41
   7  -1  -5   16.98    8.31
   7  -1  -6    4.98    6.01
   7   1   6    6.47    3.56
   7  -1  -7   14.34    7.48
   7   1   7   18.98    7.42
   7  -1  -8   36.47    9.16
   7   1   8   24.09    8.57
   7  -1  -9   41.24   14.08
   7   1   9   47.86   15.97
   0  -2  26    2.95    3.36
   0   2 -24    2.92    2.08
   0   2 -24   17.23    6.04
   0   2 -23  163.89   44.14
   0   2 -23  219.90   50.73
   0   2 -22   71.41   21.16
   0   2 -22  113.85   13.58
   0   2 -21  212.04   26.03
   0   2 -21  291.13   26.78
   0   2 -20    0.48    3.43
   0   2 -20    5.72    4.68
   0   2 -19  181.03   25.61
   0   2 -19  193.09   14.22
   0   2 -18    1.55    2.10
   0   2 -18   22.25    8.15
   0   2 -17    6.05    2.58
   0   2 -17    7.98    5.46
   0   2 -16    8.99    3.65
   0   2 -16    9.80    6.45
   0   2 -15   77.44   14.93
   0   2 -15   76.24   12.06
   0   2 -14   55.45   11.96
   0   2 -14   38.62    7.91
   0   2 -13   73.22   13.90
   0   2 -13   93.57   13.02
   0   2 -12   32.53    5.41
   0   2 -12   41.81    7.80
   0   2 -11   68.65   10.92
   0   2 -11   60.18    7.51
   0  -2  10    8.06    1.86
   0   2 -10   13.94    5.17
   0   2  -9   23.93    4.34
   0  -2   9   17.65    2.56
   0   2  -9   30.19    4.56
   0   2  -4   -2.74    3.04
   0  -2   4    5.27    3.00
   0  -2   4    3.08    3.30
   0   2  -4    4.77    2.02
   0   2  -2 4811.29   61.03
   0  -2   2 4963.10   62.21
   0  -2   2 4472.22   56.25
   0   2  -2 4274.19   53.80
   0   2  -1  560.51    9.96
   0  -2   1  579.03   10.57
   0  -2   1  557.12   10.07
   0   2  -1  529.52    9.45
   0   2   0  438.11    8.14
   0  -2   0  426.06    7.45
   0  -2   0  408.44    8.12
   0   2   0  396.09    7.88
   0   2   1  572.54    9.37
   0  -2  -1  514.46    8.55
   0  -2  -1  493.19    9.40
   0   2   1  494.52    9.34
   0   2   2 4561.91   56.04
   0  -2  -2 4499.78   55.24
   0  -2  -2 4268.38   54.19
   0   2   2 4312.11   54.49
   0  -2  -3  435.48    7.61
   0  -2  -3  462.95    9.67
   0   2   3  422.92    9.16
   0  -2  -4   11.07    3.72
   0   2   4   19.06    6.25
   0  -2  -5 9999.00  230.20
   0   2   5 9650.46  119.06
   0  -2  -6  375.99    6.47
   0  -2  -6  375.57    9.59
   0   2   6  379.08    9.39
   0  -2  -7 2934.44   36.81
   0   2   7 2798.21   35.13
   0  -2  -7 3011.40   41.39
   0   2   7 2962.95   40.70
   0  -2  -8  358.68    9.45
   0   2   8  344.50    9.29
   0  -2  -8  359.24   12.19
   0   2   8  367.04   12.13
   0  -2  -9   20.53    1.83
   0   2   9   17.52    2.03
   0  -2  -9   17.27    3.49
   0  -2 -10    7.27    1.15
   0   2  10   11.63    1.83
   0  -2 -10   14.62    3.33
   0  -2 -11   45.49    4.55
   0   2  11   55.04    5.40
   0  -2 -11   50.77    6.55
   0  -2 -12   26.52    3.76
   0   2  12   29.22    4.12
   0  -2 -12   30.48    7.10
   0  -2 -13   74.59    9.43
   0   2  13   64.34    8.22
   0  -2 -13  101.37   19.27
   0  -2 -14   31.35    4.52
   0  -2 -14   17.09    4.28
   0  -2 -15   66.17    8.51
   0   2  15   58.61    7.64
   0  -2 -15   54.47    9.51
   0  -2 -16    9.08    2.88
   0   2  16    5.35    2.15
   0  -2 -17    5.21    2.58
   0   2  17    5.65    2.21
   0  -2 -17    3.04    5.49
   0  -2 -18    0.02    1.22
   0  -2 -18   13.33    4.53
   0  -2 -19  165.83   23.15
   0  -2 -20    2.51    1.30
   0  -2 -20    8.49    4.05
   0  -2 -21  211.46   26.85
   0  -2 -22  101.66   15.54
   0  -2 -23  213.24   53.42
   0  -2 -24    7.91    5.27
   0  -2 -25   58.72   15.22
   0  -2 -26   39.80    9.55
   1  -2  26    5.03    3.59
  -1  -2  26    7.26    5.24
   1   2 -25    2.56    2.61
   1   2 -25    3.32    4.42
   1  -2  25    8.87    3.40
   1   2 -24   15.97    4.48
   1   2 -24   33.14   12.37
   1  -2  24    4.20    3.11
  -1   2 -23   30.61   10.81
   1   2 -23   25.42    9.42
   1   2 -23   41.32   14.83
  -1   2 -22   27.63    5.78
   1   2 -22   33.22   11.52
  -1   2 -22   42.13   13.39
   1   2 -22   17.33    6.41
  -1   2 -21   78.28   15.60
   1   2 -21   90.13   12.88
   1   2 -21  133.66   15.14
  -1   2 -21   93.99   12.11
  -1   2 -20   38.63   17.15
   1   2 -20   63.30    8.95
  -1   2 -20   57.97    9.88
   1   2 -20   96.78   14.54
  -1   2 -19  252.95   31.17
   1   2 -19  288.34   18.26
  -1   2 -19  342.72   22.10
   1   2 -19  334.73   22.39
  -1   2 -18   41.36    9.35
   1   2 -18   40.38    8.04
  -1   2 -18   27.57    6.81
   1   2 -18   45.38   10.12
  -1   2 -17  236.56   30.55
   1   2 -17  240.60   19.75
  -1   2 -17  280.32   23.50
   1   2 -17  263.85   22.79
  -1   2 -16   57.44   10.59
   1   2 -16   66.07   10.11
  -1   2 -16   82.20   12.78
   1   2 -16   59.70   10.04
  -1   2 -15   10.43    3.35
   1   2 -15   17.01    5.30
  -1   2 -15   15.55    4.50
   1   2 -15   13.85    5.17
  -1   2 -14    8.44    3.12
   1   2 -14    2.45    3.17
  -1   2 -14    9.45    3.91
   1   2 -14    4.65    4.29
  -1   2 -13  253.59   15.60
   1   2 -13  230.95   14.94
  -1   2 -13  296.02   18.79
   1   2 -13  330.09   21.19
  -1   2 -12   94.10   17.54
   1   2 -12  108.77   15.17
  -1   2 -12   97.64   13.12
   1   2 -12   84.09   11.72
  -1   2 -11  620.40   32.95
   1   2 -11  799.30   41.20
   1   2 -11  662.48   34.84
  -1   2 -11  824.20   42.40
  -1   2 -10  270.04   14.96
   1  -2  10  169.14   15.06
   1   2 -10  292.64   16.59
   1   2 -10  265.47   32.87
   1  -2  10  263.29   23.50
   1  -2   9   23.02    3.65
   1   2  -9   23.55    3.08
   1   2  -9   29.76    3.99
   1  -2   9   23.08    3.80
   1  -2   9   16.35    3.88
  -1   2  -8  202.70    9.47
   1  -2   8  247.63    8.86
   1   2  -8  214.38    8.62
  -1  -2   8  199.51    8.12
   1   2  -8  191.18    8.01
   1  -2   8  193.83   15.23
   1  -2   1   23.96    4.68
   1   2  -1   27.13    6.21
  -1  -2   1   20.65    2.80
   1  -2   1   30.99    3.11
  -1   2  -1   21.50    2.24
  -1  -2   1   13.58    2.32
   1   2  -1   24.94    3.17
   1   2   0 4799.60   60.23
  -1  -2   0 4576.70   57.37
   1  -2   0 4615.92   57.82
  -1   2   0 4301.07   53.71
  -1  -2   0 4473.96   56.19
   1   2   0 4401.98   55.26
   1   2   1   11.10   13.55
  -1  -2  -1   27.21    2.59
   1  -2  -1   35.01    3.80
  -1   2   1   26.48    2.37
  -1  -2  -1   27.60    3.33
   1   2   1   20.36    2.23
   1   2   2 3645.59   45.57
  -1  -2  -2 3515.02   43.98
   1  -2  -2 3673.08   47.41
  -1   2   2 3434.39   44.10
  -1  -2  -2 3537.57   45.26
   1   2   2 3448.28   44.18
   1  -2  -3 5553.15   69.80
   1  -2  -3 5986.70   75.17
  -1   2   3 5755.98   72.11
  -1  -2  -3 5930.47   74.03
   1   2   3 5744.14   71.57
   1   2   4 1996.85   25.02
   1  -2  -4 2003.77   28.17
   1  -2  -4 2088.21   29.55
  -1  -2  -4 2037.28   28.33
  -1   2   4 2009.89   28.29
   1   2   4 1965.50   27.13
   1   2   5  988.65   12.51
   1  -2  -5 1012.47   16.50
   1  -2  -5 1027.58   17.22
  -1  -2  -5 1044.76   16.88
  -1   2   5 1019.23   16.82
   1  -2  -6  169.77    6.33
  -1   2   6  146.62    5.09
   1  -2  -6  154.10    6.17
  -1  -2  -6  181.88    6.87
  -1   2   6  178.90    6.44
   1  -2  -7 1156.53   29.04
  -1   2   7 1068.68   26.81
   1  -2  -7 1235.66   31.78
  -1  -2  -7 1136.37   28.88
  -1   2   7 1165.41   29.89
   1   2   7 1236.91   31.15
   1  -2  -8  201.19    7.82
  -1   2   8  210.05    7.50
   1  -2  -8  191.49    8.12
  -1  -2  -8  208.59    8.26
   1   2   8  244.79    9.07
   1  -2  -9   16.03    2.77
  -1   2   9   15.95    2.47
   1  -2  -9   21.61    3.52
  -1  -2  -9    8.76    2.42
   1   2   9   19.81    3.20
   1  -2 -10  300.66   16.51
  -1   2  10  255.09   22.33
   1  -2 -10  253.60   22.73
  -1  -2 -10  262.22   23.32
   1  -2 -11  790.82   40.17
  -1   2  11  722.25   36.87
   1  -2 -11  617.18   34.25
  -1  -2 -11  750.41   38.76
   1  -2 -12   84.67   11.12
   1   2  12   80.49    9.72
  -1   2  12   98.36   12.78
   1  -2 -12   86.70   15.04
  -1  -2 -12  104.91   17.57
   1  -2 -13  259.30   15.63
  -1   2  13  215.42   13.25
   1  -2 -13  246.39   23.69
  -1  -2 -13  285.80   31.76
   1  -2 -14    1.62    2.03
   1   2  14    2.72    1.01
   1  -2 -14   13.04    4.31
  -1  -2 -14    7.05    3.52
   1  -2 -15    4.58    2.27
   1   2  15   10.07    1.71
   1  -2 -15   19.38    6.28
  -1  -2 -15   12.09    3.25
   1  -2 -16   57.69    8.55
   1   2  16   51.30    6.89
  -1  -2 -16   48.34    9.50
   1  -2 -16   79.46   13.44
   1  -2 -17  246.51   19.38
   1  -2 -17  271.93   25.18
  -1  -2 -17  245.32   32.68
   1  -2 -18   21.66    4.32
  -1  -2 -18   35.13    6.76
   1  -2 -18   47.12   11.58
   1  -2 -19  284.08   16.80
   1  -2 -19  332.87   34.82
  -1  -2 -19  271.91   26.01
   1  -2 -20   59.62    7.77
  -1  -2 -20   67.72   13.94
   1  -2 -20   70.08   12.32
   1  -2 -21  114.38   10.65
  -1  -2 -21  116.45   15.68
   1  -2 -21  104.82   17.96
   1  -2 -22   55.29   16.42
  -1  -2 -22   20.57    6.70
   1  -2 -23   43.36   15.87
  -1  -2 -23   25.63    8.79
  -1  -2 -24    6.57    3.09
   1  -2 -24   23.27    9.88
  -1  -2 -25   16.35    6.78
   1  -2 -25   11.96    5.21
  -1  -2 -26   22.18    8.18
   1  -2 -26   21.19    7.77
   2   2 -25   34.34   11.12
   2  -2  25    2.50    2.77
  -2  -2  25    2.08    3.80
   2   2 -24    7.83    3.96
   2   2 -24    5.57    4.55
   2  -2  24    5.03    2.93
   2   2 -23   31.23   10.11
   2   2 -23   33.72   11.16
   2  -2  23    4.58    4.05
   2   2 -22  198.57   33.48
   2   2 -22  175.44   30.48
   2  -2  22    5.17    3.30
   2   2 -21   57.90   15.42
   2   2 -21   69.02   18.64
   2  -2  21    3.52    2.84
   2   2 -20   61.25    8.95
   2   2 -20   26.75    9.82
   2  -2  20    3.20    2.84
   2   2 -19   70.73    9.96
   2   2 -19   48.05   19.00
   2  -2  19    1.36    2.67
  -2   2 -18  622.50   45.17
   2   2 -18  671.67   49.40
   2   2 -18  696.90  255.19
   2  -2  18  563.25   42.78
  -2   2 -17  127.07   15.39
   2   2 -17  149.99   11.53
   2   2 -17  132.19   11.28
   2  -2  17  105.28   13.50
  -2   2 -16   64.76   10.91
   2   2 -16   34.31    6.95
   2   2 -16   20.73    5.46
   2  -2  16   51.61   10.46
  -2   2 -15  353.81   27.33
   2   2 -15  291.92   23.63
   2   2 -15  294.83   24.22
   2  -2  15  250.85   20.61
   2   2 -14   70.75   10.59
   2   2 -14   74.32   10.86
   2  -2  14   64.20    9.29
   2   2 -13  217.68   16.88
   2   2 -13  185.48   15.18
   2  -2  13  173.95   13.36
   2   2 -12  251.34   18.95
   2   2 -12  238.26   18.08
   2  -2  12  198.62   14.72
   2   2 -11   50.17    8.38
   2   2 -11   32.92    6.63
   2  -2  11   23.10    4.10
   2  -2  11   54.56    7.62
   2   2 -10   89.95   12.64
   2   2 -10   72.33   10.73
   2  -2  10   36.66    8.62
   2  -2  10   76.98   10.09
   2   2  -9  197.13   18.36
   2  -2   9  150.29   16.77
   2  -2   9  169.29   15.17
  -2  -2   8    5.59    4.32
   2  -2   7   25.12    5.75
   2   2  -7   25.96    4.56
   2  -2   7   16.53    2.56
   2  -2   7   23.40    3.11
  -2  -2   7    4.65    2.79
  -2  -2   6   -0.27    2.18
   2   2  -3   26.03    4.24
  -2  -2   3   31.06    3.22
  -2  -2   3   39.76    3.20
   2  -2   3   39.42    2.59
  -2  -2   3   51.70    4.68
  -2   2  -3   37.34    2.34
   2   2   0   47.68    4.26
  -2  -2   0   41.76    4.26
   2  -2   0   38.63    4.63
   2  -2   0   47.43    3.06
  -2   2   0   41.95    2.90
  -2  -2   0   38.38    3.41
   2   2   0   49.24    3.67
   2  -2  -1  657.75   18.76
   2  -2  -1  659.59   17.06
  -2   2   1  620.67   15.91
  -2  -2  -1  656.65   16.99
   2   2   1  623.41   16.16
   2   2   2  360.81   11.50
  -2  -2  -2  342.77   10.35
   2  -2  -2  341.03   11.68
   2  -2  -2  350.19   10.44
  -2   2   2  338.97    9.74
  -2  -2  -2  334.14    9.69
   2   2   2  364.11   10.27
   2   2   3   38.57    3.75
  -2  -2  -3   39.00    3.51
   2  -2  -3   56.30    5.24
   2  -2  -3   48.66    4.28
  -2   2   3   44.72    3.19
  -2  -2  -3   38.78    3.12
   2   2   3   34.55    2.74
   2   2   4  576.08   15.54
   2  -2  -4  545.02   16.74
  -2  -2  -4  544.51   14.58
  -2   2   4  460.03   13.82
   2  -2  -4  550.58   15.66
  -2   2   4  561.20   15.44
  -2  -2  -4  561.20   15.02
   2   2   4  552.57   14.83
   2   2   5  251.28    7.98
   2  -2  -5  240.93    9.66
  -2  -2  -5  203.12    6.36
  -2   2   5  212.89    8.09
  -2   2   5  269.33    9.26
  -2  -2  -5  239.62    7.72
   2   2   5  251.50    8.25
   2   2   6 2764.50   64.69
   2  -2  -6 2833.87   68.59
  -2  -2  -6 2675.73   63.25
  -2   2   6 2674.53   64.04
   2   2   6 2734.75   64.60
   2   2   7   26.20    3.19
   2  -2  -7   31.87    5.48
  -2  -2  -7   15.89    3.49
   2   2   7   23.50    3.19
   2   2   8 2026.00   99.31
   2  -2  -8 1840.98   92.84
  -2  -2  -8 1990.03   98.25
   2   2   8 2064.22  101.89
   2   2   9  170.25   14.98
   2  -2  -9  182.21   16.82
   2   2   9  183.99   15.81
   2  -2  -9  193.97   26.11
  -2  -2  -9  200.23   17.92
   2   2   9  188.68   16.90
   2   2  10   63.19    8.67
   2  -2 -10   55.92    8.10
   2   2  10   70.81    8.75
   2  -2 -10   71.74   11.56
  -2  -2 -10   68.59    9.43
   2   2  10   66.97    9.11
   2   2  11   29.62    3.81
   2  -2 -11   35.67    6.18
   2   2  11   36.10    4.61
   2  -2 -11   38.67    6.90
  -2  -2 -11   50.12    7.59
   2  -2 -12  255.68   18.95
   2   2  12  234.25   15.71
   2  -2 -12  225.09   22.63
  -2  -2 -12  259.72   26.24
   2   2  13  188.99   12.64
   2  -2 -13  214.36   16.53
   2   2  13  197.49   13.23
   2  -2 -13  218.12   18.24
  -2  -2 -13  231.88   29.41
   2  -2 -14   72.57   10.41
   2   2  14   48.21    5.80
   2   2  14   52.52    6.31
   2  -2 -14   50.60   11.21
  -2  -2 -14   75.33   14.69
   2  -2 -15  282.51   22.47
   2  -2 -15  294.98   33.97
  -2  -2 -15  301.75   37.22
   2  -2 -16   76.37   13.10
   2  -2 -16   60.99   10.56
  -2  -2 -16   63.64   13.41
   2  -2 -17  150.87   11.61
   2  -2 -17  126.22   18.10
  -2  -2 -17  151.60   19.28
   2  -2 -18  706.64  258.49
   2  -2 -18  643.83   61.68
  -2  -2 -18  710.00  260.41
   2  -2 -19   88.11   11.55
   2  -2 -19   36.79   15.71
  -2  -2 -19   97.61   15.58
   2  -2 -20   58.94    7.50
  -2  -2 -20   54.44   12.64
   2  -2 -20   62.47    9.05
   2  -2 -21   64.84   16.83
  -2  -2 -21   51.22   14.21
   2  -2 -21   74.48   20.23
   2  -2 -22  162.14   27.34
   2  -2 -22  162.19   31.67
  -2  -2 -23   58.00   11.95
   2  -2 -23   48.52   10.92
  -2  -2 -24   18.71    6.58
   2  -2 -24   18.26    4.76
   2  -2 -25   14.08    6.84
  -2  -2 -25   43.70   12.73
   3   2 -24   56.04   12.09
  -3  -2  24   -0.77    4.26
   3   2 -23   54.01    9.19
   3  -2  23   -0.24    2.26
  -3  -2  23   -3.81    3.51
   3   2 -22   29.63   10.27
   3  -2  22    1.73    2.23
  -3  -2  22   11.28    6.86
   3   2 -21    5.77    3.96
   3  -2  21    4.93    3.64
   3   2 -20  179.49   41.28
   3   2 -20  181.84   42.06
   3  -2  20    1.20    1.99
   3   2 -19  101.47   10.91
   3   2 -19  103.79   11.26
   3  -2  19   20.92    4.40
   3   2 -18   51.45   17.78
   3   2 -18   76.47   10.92
   3  -2  18   23.77    9.18
   3   2 -17   43.21    6.34
   3   2 -17   40.62    5.46
   3  -2  17   28.99    3.70
   3   2 -16   53.11    8.44
   3   2 -16   36.18    7.03
   3  -2  16   38.15    5.88
   3   2 -15  301.80   19.49
   3   2 -15  287.38   18.87
   3  -2  15  241.91   14.53
   3   2 -14  303.85   23.15
   3   2 -14  288.31   22.25
   3  -2  14  189.20   13.97
   3   2 -13  439.23   34.60
   3  -2  13  307.47   23.59
   3  -2  12   87.58   11.18
  -3  -2  12    6.07    3.25
   3   2 -11   34.77    6.41
   3  -2  11   26.94    4.08
   3  -2  11   48.21    6.87
  -3  -2  11    1.79    4.04
  -3  -2  10    2.23    2.88
  -3  -2   9   -2.63    2.84
  -3  -2   7   -0.38    2.35
  -3  -2   6    0.00    2.18
   3   2  -5   26.16    5.38
   3  -2   5   26.83    4.08
  -3  -2   5   24.83    4.40
   3  -2   5   19.08    2.75
  -3  -2   5    3.03    2.05
   3   2  -4  154.09   14.88
   3  -2   4  144.80   13.92
   3  -2   4  145.49   13.85
  -3  -2   4  169.24   17.06
   3  -2   4  170.99   14.66
  -3  -2   4  173.45   16.08
   3   2  -3  175.74   17.20
   3  -2   3  146.83   14.26
  -3  -2   3  180.68   19.04
   3  -2   3  191.81   16.37
  -3  -2   3  215.64   19.24
   3   2  -2  428.35   23.48
   3  -2   2  400.85   22.17
  -3  -2   2  477.22   25.58
   3  -2   2  501.39   24.96
  -3  -2   2  498.48   25.68
   3   2  -1  222.37   20.25
   3  -2   1  190.48   17.91
  -3  -2   1  254.63   24.91
   3  -2   1  235.79   20.18
  -3   2  -1  230.59   19.67
  -3  -2   1  262.03   22.76
   3   2   0   32.42    5.16
   3  -2   0   36.42    5.88
   3  -2   0   45.73    4.65
  -3   2   0   37.10    3.78
  -3  -2   0   32.53    3.86
   3   2   1    0.80    0.88
   3   2   2  502.19   26.51
   3  -2  -2  383.82   21.43
  -3  -2  -2  491.88   25.93
   3  -2  -2  508.76   25.96
  -3   2   2  449.29   22.92
  -3  -2  -2  468.43   23.69
   3   2   3  169.48   15.63
   3  -2  -3  220.30   21.14
  -3  -2  -3  172.17   15.70
   3  -2  -3  222.03   25.98
  -3   2   3  179.28   15.86
  -3  -2  -3  185.48   16.15
   3   2   3  186.73   16.21
   3   2   4  150.74   13.98
   3  -2  -4  140.41   14.13
  -3  -2  -4  152.08   13.84
   3  -2  -4  192.66   22.87
  -3   2   4  156.97   14.05
  -3  -2  -4  153.78   13.52
   3   2   4  157.18   13.74
   3   2   5   23.93    4.26
   3  -2  -5   18.00    4.63
  -3  -2  -5   22.42    3.84
   3  -2  -5   30.59    5.56
  -3  -2  -5   23.53    3.54
  -3   2   5   27.23    4.26
   3   2   5   25.82    3.76
   3   2   6  375.32   22.01
   3  -2  -6  366.97   23.10
   3  -2  -6  459.07   37.27
  -3  -2  -6  350.48   19.80
   3   2   6  370.90   20.92
   3   2   7  378.07   21.88
   3  -2  -7  336.56   21.64
   3  -2  -7  411.52   31.43
  -3  -2  -7  360.44   20.52
   3   2   7  353.90   20.12
   3   2   8  225.68   13.60
   3  -2  -8  245.15   16.24
   3  -2  -8  240.37   24.46
  -3  -2  -8  234.78   13.98
   3   2   8  233.34   13.89
   3  -2  -9  122.45   11.15
   3   2   9  113.05    8.79
   3  -2  -9  105.03   16.96
  -3  -2  -9  114.78    8.91
   3   2  10  826.24   55.08
   3  -2 -10  941.40   64.05
   3   2  10  957.05   63.86
   3  -2 -10  864.70   60.58
  -3  -2 -10  881.27   58.99
   3   2  11   25.39    5.37
   3  -2 -11   51.61    8.99
   3   2  11   35.19    5.19
   3  -2 -11   45.78    8.07
  -3  -2 -11   34.89    6.98
   3   2  11   29.26    4.50
   3   2  12   77.24   12.78
   3  -2 -12  141.27   11.68
   3   2  12  139.25    9.53
   3  -2 -12  158.00   23.00
  -3  -2 -12  116.83   20.37
   3   2  13  321.60   24.17
   3  -2 -13  370.59   29.22
   3   2  13  361.58   26.89
   3  -2 -13  363.55   42.22
  -3  -2 -13  396.83   36.04
   3  -2 -14  241.96   19.17
   3   2  14  249.65   17.09
   3  -2 -14  273.59   27.15
  -3  -2 -14  272.94   31.89
   3  -2 -15  284.84   18.63
   3  -2 -15  369.06   29.87
  -3  -2 -15  287.38   27.81
   3  -2 -16   47.44    7.67
   3  -2 -16   58.90   11.29
  -3  -2 -16   55.76    9.40
   3  -2 -17   41.44    5.19
   3  -2 -17   40.08    8.28
  -3  -2 -17   38.99    6.15
   3  -2 -18   64.44    9.47
   3  -2 -18   61.31   10.91
  -3  -2 -18   79.64   14.69
   3  -2 -19  128.40   12.96
  -3  -2 -19   66.76   20.04
   3  -2 -19  100.52   17.33
   3  -2 -20  186.57   42.69
   3  -2 -20  179.17   45.04
  -3  -2 -20  191.73   48.08
   3  -2 -21    0.08    3.22
   3  -2 -21    9.72    5.51
  -3  -2 -21    5.32    3.12
   3  -2 -22   40.38   12.86
   3  -2 -22   24.97    8.79
  -3  -2 -22   31.62   10.68
   3  -2 -23   50.57    8.15
   3  -2 -23   56.70   13.97
  -3  -2 -23   43.33   10.57
  -3  -2 -24   38.81    9.08
   3  -2 -24   42.67   15.79
   4   2 -22   39.24    9.95
  -4  -2  22    4.61    4.40
   4   2 -21    8.55    5.21
  -4  -2  21   11.66    5.03
   4   2 -20   28.38   10.65
  -4  -2  20    5.40    4.66
   4   2 -19   12.32    5.03
  -4  -2  19   28.29   10.49
   4   2 -18   34.49   11.56
  -4  -2  18    1.67    4.20
   4   2 -17   51.69   14.78
  -4  -2  17    0.26    3.48
  -4  -2  16    3.24    4.36
   4   2 -15  110.79   15.81
  -4  -2  15    0.38    3.81
  -4  -2  14    8.94    3.48
   4   2 -13   75.54    9.96
   4  -2  13   55.58    6.89
   4  -2  13   58.59    5.21
  -4  -2  13   12.40    4.69
   4   2 -11   29.50    7.45
   4  -2  11   31.09    6.82
   4  -2  11   27.85    4.63
  -4  -2  11   -0.61    3.36
   4  -2  10   81.18   13.68
   4  -2  10   91.52   14.00
  -4  -2  10    5.85    2.95
   4   2  -9   69.19   11.28
   4  -2   9   83.00   12.30
   4  -2   9   74.82    9.75
   4  -2   9   79.89   10.41
  -4  -2   9    1.44    2.50
  -4  -2   8    6.18    3.33
   4   2  -7   15.71    6.01
   4  -2   7   10.84    4.74
  -4  -2   7    3.03    2.23
   4   2  -6   67.35    9.93
   4  -2   6   52.01    7.99
  -4  -2   6   68.07    9.75
   4   2  -5  457.60   30.13
   4  -2   5  475.22   31.15
  -4  -2   5  487.81   30.82
   4   2  -4  320.49   23.74
   4  -2   4  304.84   22.73
  -4  -2   4  291.69   28.27
  -4  -2   4  384.27   26.64
   4   2  -3  447.44   31.92
   4  -2   3  426.41   30.61
  -4  -2   3  385.04   33.36
  -4  -2   3  479.82   32.74
   4   2  -2   71.95   10.65
   4  -2   2   86.51   12.24
  -4  -2   2   62.47    9.75
  -4  -2   2   65.90    8.87
   4   2  -1   10.41    3.92
   4  -2   1   17.22    4.81
  -4  -2   1    7.46    2.23
  -4  -2   1    9.08    2.08
   4   2   0   11.16    4.02
   4  -2   0   24.52    5.65
  -4  -2   0   20.18    3.76
   4  -2   0   27.37    4.36
  -4  -2   0   23.15    3.62
   4   2   1   15.10    4.07
   4  -2  -1   10.80    4.66
  -4  -2  -1    6.78    1.63
   4  -2  -1   14.54    2.42
  -4   2   1    7.90    1.51
  -4  -2  -1    8.57    1.78
   4   2   2   59.39    9.31
   4  -2  -2   58.24    9.77
  -4  -2  -2   60.56    9.50
   4  -2  -2   68.28   10.52
  -4   2   2   59.87    7.75
  -4  -2  -2   62.63    7.98
   4   2   3  403.70   28.53
   4  -2  -3  431.44   31.36
  -4  -2  -3  485.93   32.66
   4  -2  -3  491.89   33.67
  -4  -2  -3  470.40   31.43
  -4   2   3  450.31   30.56
   4   2   4  332.47   24.03
   4  -2  -4  404.05   29.73
   4  -2  -4  428.83   36.62
  -4  -2  -4  363.37   24.36
  -4   2   4  329.03   22.73
   4   2   5    0.51    0.72
   4   2   6   66.10    9.58
   4  -2  -6   64.10   10.76
   4  -2  -6   61.92   10.25
  -4  -2  -6   57.41    7.18
   4   2   6   53.21    6.68
   4   2   7   10.07    3.03
   4  -2  -7   22.12    7.98
   4  -2  -7   -0.32    1.89
  -4  -2  -7   10.40    2.13
   4   2   7    3.65    1.28
   4  -2  -8  239.75   21.00
   4   2   8  223.09   17.89
   4  -2  -8  249.98   28.70
  -4  -2  -8  228.78   17.84
   4   2   8  240.63   18.08
   4  -2  -9   97.91   15.41
   4   2   9   73.95   10.81
   4  -2  -9   95.21   17.62
  -4  -2  -9   71.20   11.87
   4   2   9   62.47    8.60
   4  -2 -10   81.90   15.57
   4   2  10   82.12   13.42
   4  -2 -10  129.85   14.86
  -4  -2 -10   83.71   14.70
   4  -2 -11   37.11    8.59
   4   2  11   30.11    5.72
   4  -2 -11   34.16    7.46
  -4  -2 -11   23.58    5.13
   4  -2 -12  707.68   17.33
   4   2  12  659.19   35.57
   4  -2 -12  677.50   45.70
  -4  -2 -12  674.51   38.63
   4  -2 -13   51.13   20.02
   4   2  13   56.11    5.91
   4  -2 -13   80.38   12.64
  -4  -2 -13   53.24    7.45
   4  -2 -14   92.63   10.88
  -4  -2 -14   88.48   12.69
   4  -2 -14  108.93   17.23
   4  -2 -15  112.55   15.60
  -4  -2 -15   73.50   11.93
   4  -2 -15  104.22   16.80
   4  -2 -16   85.98   11.07
  -4  -2 -16   72.86    9.59
   4  -2 -16   69.31   15.22
   4  -2 -17   22.89    6.13
   4  -2 -17   41.98   12.99
   4  -2 -18   39.96   13.82
   4  -2 -18   40.88   13.45
   4  -2 -19   17.19    6.57
   4  -2 -19   36.86   11.93
   4  -2 -20   20.13    6.34
   4  -2 -20   40.64   14.74
   4  -2 -21   17.81    8.17
   4  -2 -21    2.82    2.39
   4  -2 -22   16.55    6.17
   4  -2 -22   21.24    6.86
   5   2 -19   16.64    6.82
  -5  -2  19    5.45    4.21
   5   2 -18    3.97    4.60
  -5  -2  18   17.81    8.33
   5   2 -17   19.72    5.43
  -5  -2  17   -1.35    3.17
   5   2 -16   18.61    7.69
   5  -2  16   26.46    8.70
  -5  -2  16   14.51    7.00
   5   2 -15   66.02   13.23
   5  -2  15   52.33    9.99
  -5  -2  15   10.09    4.71
   5   2 -14   59.65   15.62
   5  -2  14   17.80    5.16
  -5  -2  14    4.36    3.52
   5   2 -13   19.27    6.23
   5  -2  13   24.79    6.34
  -5  -2  13    7.72    3.89
   5   2 -12   51.70    8.49
   5  -2  12   41.23   14.14
  -5  -2  12    4.95    3.17
   5   2 -11   93.75   12.43
  -5  -2  11    1.89    3.04
   5   2 -10  114.16   16.18
   5  -2  10  120.13   15.46
  -5  -2  10    4.97    3.17
   5   2  -9   45.44    6.01
   5  -2   9   68.12    7.85
   5   2  -8   24.14    6.81
   5  -2   8   21.09    5.77
  -5  -2   8   24.75    4.60
   5   2  -7  232.75   16.26
   5  -2   7  274.39   18.55
  -5  -2   7  267.76   16.37
   5   2  -6  546.91   31.95
   5  -2   6  519.94   30.93
  -5  -2   6  596.63   32.61
   5   2  -5  215.96   15.17
   5  -2   5  207.01   14.61
  -5  -2   5  269.38   15.79
   5   2  -4   65.67   12.75
   5  -2   4   50.12    9.90
  -5  -2   4   46.93    8.04
   5   2  -3  321.93   24.30
   5  -2   3  304.43   23.43
  -5  -2   3  270.81   18.95
   5   2  -2  411.29   30.56
   5  -2   2  439.13   32.16
  -5  -2   2  413.60   28.06
   5   2  -1   10.72    4.93
   5  -2   1   15.57    5.05
  -5  -2   1    4.37    1.75
   5   2   0   31.35    7.38
   5  -2   0   24.11    7.02
  -5  -2   0   13.44    2.53
   5   2   1    5.93    4.10
   5  -2  -1    7.59    4.53
  -5   2   1    1.84    0.88
   5   2   2  393.39   28.86
   5  -2  -2  461.67   33.68
   5  -2  -2  470.16   33.30
   5   2   3  277.26   21.34
   5  -2  -3  291.66   22.95
   5  -2  -3  303.45   24.19
   5   2   4   56.75   10.72
   5  -2  -4   34.77    7.46
   5  -2  -4   40.19    8.52
   5   2   5  228.92   15.22
   5  -2  -5  189.41   14.78
   5  -2  -5  234.38   21.61
   5   2   6  485.42   28.01
   5  -2  -6  691.44   18.87
   5  -2  -6  502.80   29.30
   5   2   7  225.38   14.66
   5  -2  -7  353.41   23.15
   5  -2  -7  249.92   25.04
   5   2   8   11.98    3.44
   5  -2  -8   54.15    9.18
   5  -2  -8   17.68    3.12
   5  -2  -9   76.92   10.83
   5   2   9   41.37    4.65
   5  -2  -9   64.81    9.21
   5  -2 -10  139.61   19.00
   5   2  10  109.56   13.58
   5  -2 -10  131.85   21.91
   5  -2 -11   85.92   11.42
   5   2  11   68.36    7.29
   5  -2 -11   79.25   11.00
   5  -2 -12   31.47   12.14
   5   2  12   44.56   14.72
   5  -2 -12   55.87   10.48
   5  -2 -13   26.96    8.68
   5  -2 -13   31.65   11.44
   5  -2 -14   40.99   14.37
   5  -2 -14   51.75   13.07
   5  -2 -15   41.04   14.75
   5  -2 -16   17.76    7.43
   5  -2 -16   18.82    7.50
   5  -2 -17   17.56    5.43
   5  -2 -17    3.67    3.25
   5  -2 -18   17.84    7.93
   5  -2 -18    8.20    2.79
   5  -2 -19   30.69   10.81
   5  -2 -19   21.54    7.80
   6   2 -15   66.94   14.69
  -6  -2  15    5.85    3.62
   6   2 -14   24.89   10.15
   6  -2  14   17.49    7.96
   6   2 -13   41.47   15.78
   6  -2  13   38.91   14.22
  -6  -2  13   69.26   10.04
   6   2 -12   14.91    5.41
   6  -2  12   27.85    9.07
  -6  -2  12   43.15   13.09
   6   2 -11   23.53    8.97
   6  -2  11   15.75    5.78
  -6  -2  11   16.69    4.45
   6   2 -10   25.34   10.12
   6  -2  10   23.26    9.13
  -6  -2  10   23.66    8.23
   6  -2   9   20.31    7.48
   6   2  -8   50.17   16.26
   6  -2   8   77.86   19.12
   6   2  -7    6.87    4.77
   6  -2   7   11.20    4.90
   6   2  -6   19.93    7.29
   6  -2   6   33.00   10.96
   6   2  -5  135.92   13.84
   6  -2   5  138.49   15.55
   6   2  -4   70.11   18.84
   6  -2   4   44.42   12.73
   6   2  -3   16.58    7.00
   6  -2   3   16.55    5.65
   6   2  -2   23.80    9.87
   6  -2   2   28.49   11.72
   6   2  -1  485.77   40.49
   6  -2   1  468.36   39.31
   6   2   0   24.70   10.25
   6  -2   0   36.42   13.66
   6   2   1  499.93   41.21
   6  -2  -1  510.30   78.61
   6   2   2   12.57    5.75
   6  -2  -2   17.06    8.76
   6   2   3   14.21    6.13
   6  -2  -3   10.12    4.84
   6   2   4   56.35   15.52
   6  -2  -4   54.76   14.88
   6   2   5  108.73   11.45
   6  -2  -5   63.51   17.30
   6   2   6   11.64    4.21
   6  -2  -6   20.04    6.97
   6   2   7    3.56    3.19
   6  -2  -7   12.16    5.61
   6   2   8   58.62   14.37
   6  -2  -8   46.82   15.91
   6  -2  -9   22.36    9.18
   6   2   9   13.60    5.00
   6  -2 -10   36.28   13.98
   6   2  10   30.13   10.67
   6  -2 -11   21.08    8.51
   6  -2 -12   47.62   11.28
   6  -2 -13  104.77   15.62
   6  -2 -14   27.74   12.06
   6  -2 -15   74.03   15.89
   7   2  -8   22.33    8.71
   7  -2   8   31.81   10.83
   7   2  -7   85.79   16.98
   7  -2   7   98.52   19.73
   7   2  -6   21.21    7.75
   7  -2   6   25.26    9.69
   7   2  -5   18.31    9.08
   7  -2   5   21.35    9.48
   7   2  -4   21.17    8.47
   7  -2   4   47.28    8.84
   7   2  -3   34.68   12.99
   7  -2   3   49.99    9.11
   7   2  -2   36.90   13.87
   7  -2   2   24.09    9.71
   7   2  -1  121.91   16.93
   7  -2   1  104.85   14.88
   7   2   0    5.89    3.88
   7  -2   0   14.05    6.07
   7   2   1  140.50   18.80
   7  -2  -1  121.12   18.21
   7   2   2   39.59   14.75
   7  -2  -2   44.22    9.24
   7   2   3    9.93    4.47
   7  -2  -3   64.26   10.64
   7   2   4   11.64    4.24
   7  -2  -4    8.25    4.82
   7   2   5    8.83    3.65
   7  -2  -5   14.29    5.21
   7   2   6    9.75    4.18
   7  -2  -6   12.45    5.24
   7   2   7  103.49   19.91
   7  -2  -7   78.34   16.13
   7  -2  -8   12.62    5.43
   0  -3  26   10.09    5.91
   0  -3  25   -0.32    3.43
   0   3 -24    6.41    3.44
   0  -3  24    5.49    3.54
   0   3 -23   20.50    7.59
   0  -3  23    0.95    2.96
   0   3 -22   94.90   24.35
   0  -3  22    4.34    4.39
   0   3 -21   66.65   12.64
   0  -3  21    5.06    3.70
   0  -3  20   -0.83    3.11
   0   3 -19    5.19    2.40
   0  -3  19    6.92    3.25
   0  -3  18   10.99    4.02
   0   3 -17  306.91   43.44
   0  -3  17    4.36    3.51
   0  -3  16    8.10    3.44
   0   3 -15   29.81    6.65
   0  -3  15    5.97    3.06
   0   3 -14   70.62   14.03
   0  -3  14    2.35    2.64
   0   3 -13  177.55   28.33
   0  -3  13    6.47    4.04
   0   3 -12  145.55   23.21
   0  -3  12    7.02    3.20
   0   3 -11   98.06   21.88
   0  -3  11    6.92    3.11
   0   3 -10    5.01    1.87
   0  -3  10    3.51    2.80
   0  -3   9    0.54    2.85
   0  -3   8    4.73    4.04
   0   3  -7  655.29   18.48
   0  -3   7  619.34   17.31
   0  -3   7  642.84   17.99
   0  -3   7  643.16   18.58
   0   3  -6   70.64    8.86
   0  -3   6   52.38    5.99
   0   3  -5   16.02    3.62
   0  -3   5    2.51    2.85
   0  -3   5   18.69    4.74
   0   3  -5    4.39    1.87
   0   3  -3 1671.73   25.84
   0  -3   3 1649.64   24.11
   0  -3   3 1548.38   23.21
   0   3  -3 1482.04   21.96
   0   3  -2 1633.56   24.09
   0  -3   2 1566.99   23.71
   0  -3   2 1484.57   22.36
   0   3  -2 1493.04   22.04
   0   3  -1  953.48   15.91
   0  -3   1  864.10   14.94
   0  -3   1  851.69   14.99
   0   3  -1  826.99   14.05
   0   3   0    6.71    2.58
   0  -3   0    3.14    1.38
   0  -3   0   10.80    4.81
   0   3   0    7.29    3.76
   0   3   1  930.13   14.93
   0  -3  -1  816.10   12.69
   0  -3  -1  885.57   15.22
   0   3   1  790.60   13.76
   0   3   2 1498.76   21.21
   0  -3  -2 1481.57   20.49
   0  -3  -2 1336.34   20.65
   0   3   2 1400.00   21.17
   0  -3  -3 1699.81   25.32
   0   3   3 1511.44   22.79
   0  -3  -4  314.76    6.23
   0  -3  -4  334.67    9.67
   0   3   4  302.39    8.70
   0  -3  -5   16.43    2.19
   0  -3  -5   18.36    5.06
   0   3   5    6.21    1.73
   0  -3  -6   60.43    4.81
   0  -3  -6   40.43    2.64
   0  -3  -6   50.63    4.45
   0   3   6   54.39    4.39
   0  -3  -7  663.60   16.32
   0  -3  -7  607.38   15.17
   0  -3  -7  659.00   19.38
   0   3   7  629.95   18.10
   0  -3  -8  163.79    5.41
   0  -3  -8  137.38    7.16
   0  -3  -9  234.48   20.10
   0  -3  -9  221.31   20.23
   0  -3 -10    6.57    1.95
   0  -3 -10    5.49    3.57
   0  -3 -11   79.11    9.85
   0  -3 -11   70.49   10.17
   0  -3 -12  125.99   15.39
   0  -3 -12  139.21   18.23
   0  -3 -13  154.86   10.83
   0  -3 -13  173.68   14.56
   0  -3 -14   61.03    7.83
   0  -3 -14   71.37   11.12
   0  -3 -15   19.35    2.85
   0  -3 -15   25.68    5.72
   0  -3 -16  271.88   20.33
   0   3  16  231.82   17.43
   0  -3 -16  335.55   33.20
   0  -3 -17  228.79   15.73
   0  -3 -17  245.85   25.63
   0  -3 -18  278.03   26.43
   0  -3 -19   11.50    4.87
   0  -3 -20  202.72   28.83
   0  -3 -21   93.04   15.31
   0  -3 -22   76.80   20.58
   0  -3 -23   17.14    7.26
   0  -3 -24    7.22    4.02
   0  -3 -25   39.61   16.96
   0  -3 -26    6.55    3.92
   1   3 -25   72.43   14.45
   1  -3  25    1.41    3.16
  -1  -3  25    6.78    3.57
  -1   3 -24   12.17    3.43
   1   3 -24   29.09    9.93
   1  -3  24    4.56    2.96
  -1  -3  24    6.18    3.56
  -1   3 -23   30.03   11.04
   1   3 -23   29.31   10.96
   1  -3  23    7.45    4.56
  -1  -3  23    4.32    3.64
  -1   3 -22   68.19   17.94
   1   3 -22   57.74   15.62
   1  -3  22    5.48    3.19
  -1  -3  22    4.50    3.59
  -1   3 -21   58.94   17.14
   1   3 -21   74.24   25.42
   1  -3  21    5.75    4.89
  -1  -3  21   15.30    5.69
  -1   3 -20   67.24   11.28
   1   3 -20   95.58   21.24
   1  -3  20    3.83    3.25
  -1  -3  20   -0.53    3.48
   1   3 -19  224.47   31.89
   1  -3  19   -0.14    2.50
  -1  -3  19    9.87    5.73
  -1   3 -18   16.80    5.37
   1   3 -18   21.67    5.54
   1  -3  18    3.09    2.82
  -1  -3  18    1.43    3.36
  -1   3 -17   43.89    9.80
   1   3 -17   50.01    9.87
   1  -3  17    8.71    3.40
  -1  -3  17    1.30    3.17
  -1   3 -16   34.31    7.91
   1   3 -16   18.55    4.12
   1  -3  16    0.16    2.64
  -1  -3  16    3.52    3.35
  -1  -3  14    3.64    3.14
  -1   3 -13   37.80    7.80
   1   3 -13   33.11    5.85
   1  -3  13   -0.16    1.97
  -1  -3  13    5.05    4.39
  -1   3 -12  133.09   24.15
   1   3 -12   88.98   12.21
   1  -3  12   49.96    7.72
  -1  -3  12    4.29    2.95
  -1  -3  10    8.35    4.52
  -1  -3   9    6.02    3.06
  -1  -3   8   12.77    4.45
   1  -3   7   98.68   16.11
   1   3  -7   90.08    6.50
  -1   3  -6 2960.69   70.84
   1  -3   6 2639.15   63.12
   1   3  -6 2963.77   71.04
  -1  -3   6 2821.79   67.59
  -1  -3   6 2902.01   69.74
  -1   3  -6 2482.46   59.89
   1   3  -5    2.64    1.75
  -1   3  -3  319.35    8.43
   1  -3   3  300.89   10.15
  -1  -3   3  287.08    7.19
   1  -3   3  303.16    8.14
  -1  -3   3  328.71    9.13
  -1   3  -3  307.15    7.66
  -1   3  -2  440.51    9.77
   1  -3   2  441.74    9.51
   1   3  -2  436.33    9.69
  -1  -3   2  433.56    9.27
   1  -3   2  430.00    9.71
  -1  -3   2  440.99   10.12
  -1   3  -2  419.56    8.67
   1   3  -2  429.33    9.90
   1  -3   1  136.85    5.05
   1   3  -1  119.89    5.70
  -1  -3   1  124.63    4.81
   1  -3   1  127.85    5.64
  -1   3  -1  123.33    5.00
  -1  -3   1  123.77    6.18
   1   3  -1  120.45    5.06
   1  -3   0  424.30    8.95
   1   3   0  400.64    8.94
  -1  -3   0  391.27    8.22
   1  -3   0  427.17    9.66
  -1   3   0  387.41    8.51
  -1  -3   0  410.44    9.35
   1   3   0  375.09    8.44
   1  -3  -1  128.19   10.41
   1   3   1  118.69    4.66
   1  -3  -1  135.70    5.65
  -1   3   1  109.96    4.53
  -1  -3  -1  139.75    5.73
   1   3   1  121.76    5.19
   1   3   2  425.55    8.10
  -1  -3  -2  428.72    8.17
   1  -3  -2  480.01   10.83
  -1   3   2  410.89    9.27
  -1  -3  -2  442.48    9.69
   1   3   2  428.02    9.50
   1   3   3  304.46    6.26
  -1  -3  -3  295.10    6.02
   1  -3  -3  327.57    9.00
  -1  -3  -3  331.45    8.79
  -1   3   3  302.10    7.90
   1   3   3  298.03    7.72
   1   3   4 3666.19   45.68
  -1  -3  -4 3449.99   43.09
   1  -3  -4 3530.06   46.74
   1  -3  -4 3757.17   50.45
  -1  -3  -4 3556.46   47.38
  -1   3   4 3384.93   45.31
   1   3   4 3328.71   44.42
   1   3   5 1844.54   42.89
  -1  -3  -5 1750.95   40.78
   1  -3  -5 1906.18   47.11
  -1  -3  -5 1821.99   44.72
  -1   3   5 1761.43   43.29
   1   3   6 2705.31   62.15
   1  -3  -6 2863.76   68.07
   1  -3  -6 2940.14   70.68
  -1  -3  -6 2953.95   70.51
  -1   3   6 2865.02   68.75
   1  -3  -7  108.82    5.94
   1  -3  -7   92.10    6.25
  -1  -3  -7  106.13    5.85
   1   3   7  101.07    6.62
   1  -3  -8 2986.75   70.89
   1  -3  -8 2689.47   65.45
  -1  -3  -8 3063.67  257.61
   1  -3  -9 2725.06  134.11
   1  -3  -9 2415.62  119.79
  -1  -3  -9 2766.45  330.89
   1  -3 -10  206.08   18.61
   1  -3 -10  170.15   16.08
  -1  -3 -10  200.92   18.84
   1  -3 -11  188.83   11.80
  -1   3  11  156.02   19.33
   1  -3 -11  181.97   12.49
  -1  -3 -11  178.63   12.22
   1  -3 -12   94.39   12.19
  -1   3  12   80.94   10.56
   1  -3 -12   89.01   12.08
  -1  -3 -12  107.08   14.27
   1  -3 -13   34.57    5.41
  -1   3  13   23.43    3.67
   1  -3 -13   40.64    6.86
  -1  -3 -13   38.92    7.13
   1  -3 -14  494.68   31.19
  -1   3  14  368.75   23.42
   1  -3 -14  414.10   44.42
  -1  -3 -14  444.51   28.93
   1  -3 -15  284.63   18.63
  -1   3  15  221.78   14.66
  -1  -3 -15  303.24   29.36
   1  -3 -15  221.82   24.03
   1  -3 -16   22.82    3.83
   1  -3 -16   33.54    7.82
  -1  -3 -16   34.79    7.19
   1  -3 -17   34.90    6.52
  -1  -3 -17   37.86    8.97
   1  -3 -17   44.18   11.72
   1  -3 -18   10.09    2.85
   1  -3 -18   16.59    4.85
  -1  -3 -18   10.49    4.85
   1  -3 -19  203.42   15.70
  -1  -3 -19  235.23   27.10
   1  -3 -19  237.22   30.32
   1  -3 -20   54.41   17.59
   1  -3 -20   83.74   16.50
  -1  -3 -20   82.44   13.57
   1  -3 -21   73.42   21.50
  -1  -3 -21   57.55   16.00
   1  -3 -22  117.47   29.82
  -1  -3 -22   79.33   21.90
   1  -3 -23   76.93   17.57
  -1  -3 -23   36.84   14.80
   1  -3 -24   42.09   15.15
  -1  -3 -24    6.70    4.68
  -1  -3 -25  104.16   23.63
   1  -3 -25   97.72   22.06
   2   3 -25   53.03   18.18
   2  -3  25    2.32    2.88
  -2  -3  25   -0.02    3.19
   2   3 -24   53.51    8.91
   2  -3  24   -0.26    2.71
  -2  -3  24    0.29    3.62
   2   3 -23   66.01   14.59
   2  -3  23    0.02    2.40
  -2  -3  23    1.09    4.21
  -2   3 -22   11.29    3.83
   2   3 -22   21.05    8.71
   2  -3  22    8.15    3.91
  -2  -3  22   13.65    5.73
  -2   3 -21   55.00   13.31
   2   3 -21   36.60   12.24
   2  -3  21    5.09    3.08
  -2  -3  21   12.16    5.11
  -2   3 -20   68.76   17.54
   2  -3  20    1.36    2.67
  -2  -3  20    6.21    6.66
   2  -3  19   -0.30    2.85
  -2  -3  19   12.73    6.52
  -2   3 -18   90.03   11.82
   2   3 -18  107.27   11.04
   2  -3  18   81.27    8.44
  -2  -3  18   11.84    5.67
  -2   3 -17   33.51    7.69
   2   3 -17   37.05    7.08
   2  -3  17   21.64    4.39
  -2  -3  17    9.88    4.74
  -2  -3  16    6.62    4.89
  -2  -3  15    8.81    4.45
  -2  -3  14   12.88    5.78
  -2   3 -13   32.24    5.78
   2   3 -13   43.39    7.72
   2  -3  13   57.12    8.86
  -2  -3  13   -2.10    3.14
  -2  -3  12    4.18    3.25
  -2   3 -11   91.20   12.97
   2   3 -11   88.16   12.48
   2  -3  11   96.78    8.04
  -2  -3  11    6.49    4.74
  -2  -3  10    2.98    3.17
   2   3  -9    7.77    4.24
   2  -3   9    3.40    1.60
   2  -3   9   10.38    2.55
  -2  -3   9    7.37    4.89
   2  -3   8  143.42   18.77
  -2  -3   8    4.84    4.31
  -2  -3   7    4.89    3.12
   2   3  -6  693.15   36.07
   2  -3   6  752.77   38.01
  -2  -3   6  779.87   40.16
  -2   3  -6  636.34   32.16
   2   3  -5  790.31   22.25
   2  -3   5  861.83   22.17
  -2  -3   5  871.58   23.59
  -2   3  -5  764.78   19.59
   2   3  -1  267.19   10.72
   2  -3   1  246.92    8.51
  -2   3  -1  222.79    7.30
   2   3  -1  262.70    9.11
  -2  -3   0    9.53    2.47
   2  -3   0   23.71    5.01
  -2   3   0    5.78    1.75
   2   3   0   10.28    4.08
   2   3   1  251.36    9.07
  -2  -3  -1  236.83    8.35
   2  -3  -1  263.90    8.99
  -2   3   1  228.01    7.56
  -2  -3  -1  244.47    8.73
   2   3   1  237.86    8.14
   2   3   2  129.72    6.26
  -2  -3  -2  125.86    6.15
   2  -3  -2  122.15    6.82
   2  -3  -2  135.47    6.84
  -2   3   2  114.76    5.29
  -2  -3  -2  121.44    5.77
   2   3   2  121.80    6.01
   2   3   3 1062.77   26.99
  -2  -3  -3 1044.22   26.27
   2  -3  -3 1007.51   27.23
   2  -3  -3 1101.99   28.29
  -2   3   3  997.43   25.42
  -2  -3  -3 1061.97   26.89
   2   3   3 1042.73   26.38
   2   3   4 2728.11   64.34
  -2  -3  -4 2708.21   63.85
   2  -3  -4 2500.11   61.04
   2  -3  -4 2866.09   68.68
  -2  -3  -4 2749.79   65.41
  -2   3   4 2541.65   60.88
   2   3   4 2661.22   63.30
   2   3   5  903.70   22.57
  -2  -3  -5  877.89   22.02
   2  -3  -5  891.11   24.99
   2  -3  -5  907.00   24.70
  -2  -3  -5  904.84   23.75
  -2   3   5  811.93   21.74
   2   3   5  847.35   22.28
   2   3   6  760.44   37.88
   2  -3  -6  771.70   39.80
  -2  -3  -6  700.85   34.93
  -2  -3  -6  753.02   38.25
   2   3   6  727.20   36.90
   2   3   7 1178.60   58.03
   2  -3  -7 1221.83   61.78
  -2  -3  -7 1010.09   49.77
   2  -3  -7 1045.04   52.92
  -2  -3  -7 1148.09   57.47
   2   3   7 1062.14   53.23
   2   3   8  155.14   13.33
   2  -3  -8  151.41   14.32
   2  -3  -8  137.77   13.49
  -2  -3  -8  140.18   13.29
   2   3   8  163.25   14.98
   2   3   9    5.22    0.85
   2   3   9    4.73    0.77
   2  -3  -9    9.10    4.65
   2  -3  -9   23.42    5.99
  -2  -3  -9    5.32    2.64
   2  -3 -10  387.27   23.19
   2  -3 -10  382.59   23.24
  -2  -3 -10  393.61   23.18
   2  -3 -11  103.50    9.51
   2  -3 -11   97.03    9.26
  -2  -3 -11   83.13   11.47
   2  -3 -12  181.32   14.19
   2  -3 -12  147.38   20.77
  -2  -3 -12  168.84   13.29
   2  -3 -13   31.62    6.29
   2  -3 -13   34.95    8.10
  -2  -3 -13   24.44    4.95
   2  -3 -14  643.70   48.36
   2  -3 -14  552.57   43.10
  -2  -3 -14  629.61   47.44
   2  -3 -15  287.06   22.90
   2  -3 -15  256.29   31.38
  -2  -3 -15  277.84   32.79
   2  -3 -16  430.13   30.37
   2  -3 -16  397.34   36.15
  -2  -3 -16  427.63   39.39
   2  -3 -17   19.94    5.06
   2  -3 -17   25.24    5.85
  -2  -3 -17   27.50    5.72
   2  -3 -18   79.96    8.18
   2  -3 -18   77.30   14.10
  -2  -3 -18   66.86   12.30
   2  -3 -19  126.41   15.54
   2  -3 -19  153.21   24.31
  -2  -3 -19  161.15   25.52
   2  -3 -20   94.87    9.56
  -2  -3 -20   84.72   13.84
   2  -3 -20   61.65   17.68
   2  -3 -21   42.43   13.33
   2  -3 -21   39.24   13.85
  -2  -3 -21   46.66   16.27
  -2  -3 -22   20.33    8.15
   2  -3 -22   14.46    6.29
  -2  -3 -23   38.07   13.10
   2  -3 -23   42.54   14.18
  -2  -3 -24   45.25    7.67
   2  -3 -24   41.76   13.79
  -2  -3 -25   33.00   12.11
   2  -3 -25   38.12   11.04
   3   3 -23   17.04    6.41
  -3  -3  23    4.53    4.65
  -3  -3  22    1.81    4.23
   3   3 -21   22.26    9.61
  -3  -3  21    7.66    4.85
   3   3 -20   62.16   12.37
  -3  -3  20   -1.43    4.26
   3   3 -19   11.50    4.55
  -3  -3  19    4.07    3.78
   3   3 -18  163.15   16.99
   3  -3  18  139.22   12.72
  -3  -3  18   17.80    7.58
   3   3 -17   67.45   10.91
   3  -3  17   45.01   16.96
  -3  -3  17   12.27    6.54
  -3  -3  16    8.33    5.27
   3  -3  15  116.78   14.08
  -3  -3  15    7.70    3.91
   3   3 -14   23.16    5.27
   3  -3  14   26.91    5.38
  -3  -3  14   14.59    6.41
   3   3 -13   28.09    6.50
   3  -3  13   21.27    4.07
  -3  -3  13   10.22    5.80
   3   3 -12  148.24   23.99
  -3  -3  12   -2.53    3.46
   3  -3  11   66.42   11.39
  -3  -3  11    7.91    3.30
   3  -3  10   83.10   14.24
  -3  -3  10   -0.19    2.47
  -3  -3   9    6.70    2.82
  -3  -3   8    2.56    2.72
   3   3  -7  424.76   30.40
   3  -3   7  373.86   27.82
   3  -3   7  444.59   30.03
  -3  -3   7  501.18   35.11
   3   3  -6  189.68   13.20
   3  -3   6  191.71   14.59
   3  -3   6  198.89   11.72
  -3  -3   6  210.02   13.47
   3   3  -5  118.45   15.91
   3  -3   5  160.01   19.57
  -3  -3   5  147.89   18.92
  -3   3  -5   48.47    6.20
   3   3  -4   28.25    5.38
   3  -3   4   39.18    5.37
  -3  -3   4   49.37    7.54
  -3   3  -4    0.58    0.80
   3   3  -3  219.95   14.48
  -3  -3   3  254.28   15.31
   3  -3   3  285.61   16.29
  -3  -3   3  274.67   16.56
  -3   3  -3  240.58   13.77
   3   3  -2  293.01   18.23
   3  -3   2  263.08   16.91
   3  -3   2  349.02   19.78
  -3  -3   2  333.35   19.56
  -3   3  -2  289.98   16.43
   3   3  -1    0.82    1.20
   3   3   0   48.21    5.99
   3  -3   0   42.81    5.73
   3   3   1  100.73   10.11
   3  -3  -1  131.33   13.98
   3  -3  -1  117.68   10.75
  -3   3   1  114.75   10.57
  -3  -3  -1  105.60   10.14
   3   3   1  117.68   10.84
   3   3   2  293.12   17.81
   3  -3  -2  320.41   19.97
   3  -3  -2  330.25   19.24
  -3   3   2  290.57   16.83
  -3  -3  -2  294.54   17.14
   3   3   2  309.04   17.86
   3   3   3  256.58   15.73
  -3  -3  -3  225.28   13.90
   3  -3  -3  289.53   19.32
   3  -3  -3  257.94   15.44
  -3   3   3  229.37   13.73
  -3  -3  -3  244.71   14.58
   3   3   3  253.03   14.86
   3   3   4   31.54    5.29
   3  -3  -4   39.58    7.29
  -3  -3  -4   36.52    5.49
   3  -3  -4   59.02    8.22
  -3   3   4   44.34    6.28
  -3  -3  -4   32.98    4.87
   3   3   4   35.49    5.29
   3   3   5  140.14   17.59
   3  -3  -5  149.75   19.69
  -3  -3  -5  117.89   14.80
   3  -3  -5  136.63   17.23
  -3  -3  -5  150.32   18.66
   3   3   5  149.33   18.56
   3   3   6  201.29   12.38
   3  -3  -6  237.89   16.67
  -3  -3  -6  170.70   21.30
   3  -3  -6  180.02   11.53
  -3  -3  -6  189.39   11.64
   3   3   6  187.34   11.50
   3   3   7  450.50   30.69
   3  -3  -7  467.99   33.44
   3  -3  -7  396.67   27.69
  -3  -3  -7  447.57   30.61
   3   3   7  437.42   29.89
   3   3   8  142.12   10.44
   3  -3  -8  129.40   11.87
   3  -3  -8  135.04   13.39
  -3  -3  -8  154.52   11.61
   3   3   8  126.84    9.79
   3   3   9  250.37   17.35
   3  -3  -9  280.53   21.03
   3  -3  -9  235.60   31.78
  -3  -3  -9  258.71   18.56
   3  -3 -10  154.98   12.69
   3  -3 -10  153.99   16.77
  -3  -3 -10  117.04   14.93
   3   3  11   93.35   13.29
   3   3  11  114.59   13.97
   3  -3 -11  140.79   11.66
   3  -3 -11  118.99   16.55
  -3  -3 -11  103.70   13.42
   3   3  12  126.95   17.31
   3   3  12  156.27   11.76
   3  -3 -12  147.22   23.79
   3  -3 -12  145.66   24.51
  -3  -3 -12  166.63   14.03
   3  -3 -13   23.08    5.32
   3  -3 -13   23.72    6.10
  -3  -3 -13   23.43    4.65
   3  -3 -14   26.12    7.13
   3  -3 -14   21.05    5.41
  -3  -3 -14   22.41    5.64
   3  -3 -15  120.26   15.20
   3  -3 -15  115.26   21.77
  -3  -3 -15  111.82   18.37
   3  -3 -16  481.27   36.23
   3  -3 -16  490.85   51.34
  -3  -3 -16  526.27   39.90
   3  -3 -17   54.11   18.36
   3  -3 -17   58.01    9.93
  -3  -3 -17   52.76   20.28
   3  -3 -18  140.62   13.92
  -3  -3 -18  134.02   22.14
   3  -3 -18  151.38   17.81
   3  -3 -19   17.11    5.73
   3  -3 -19   18.52    5.05
  -3  -3 -19   21.61    6.15
   3  -3 -20   46.83   15.44
  -3  -3 -20   73.07   14.34
   3  -3 -20   58.13   12.09
   3  -3 -21   21.70    7.74
   3  -3 -21   14.34    6.81
  -3  -3 -21   10.03    3.40
   3  -3 -22  213.25   26.73
  -3  -3 -22  177.98   40.44
   3  -3 -22  186.84   42.13
  -3  -3 -23   32.42   11.13
   3  -3 -23   31.51   11.80
   4   3 -21    7.34    5.05
  -4  -3  21    2.21    3.84
   4   3 -20   37.91   12.11
  -4  -3  20   15.54    6.70
   4   3 -19   14.75    5.32
  -4  -3  19   10.38    4.52
   4   3 -18   16.15    7.26
  -4  -3  18    2.50    4.21
   4   3 -17  107.86   25.90
  -4  -3  17   10.56    5.73
   4   3 -16   76.61   20.20
  -4  -3  16   15.25    5.64
   4   3 -15   80.34   10.38
  -4  -3  15   16.58    7.72
   4   3 -14   63.43   10.32
  -4  -3  14    3.48    3.72
   4   3 -13   81.61    9.63
   4  -3  13   67.56    5.93
  -4  -3  13    7.56    4.52
   4  -3  12  114.06   13.12
  -4  -3  12    8.46    4.48
   4   3 -11   85.05   12.35
   4  -3  11   70.51    8.31
  -4  -3  11    9.19    3.86
  -4  -3  10    2.00    3.24
   4   3  -9  204.33   16.85
   4  -3   9  211.46   14.53
  -4  -3   9  200.07   16.26
   4   3  -8   14.61    4.05
   4  -3   8   22.01    6.26
   4  -3   8   13.44    2.29
   4  -3   8   17.38    2.80
  -4  -3   8   28.90    5.67
   4   3  -7   94.37   14.27
   4  -3   7   68.89   10.56
   4  -3   7   59.17    9.15
   4  -3   7   77.41   10.19
  -4  -3   7   93.33   13.49
   4   3  -6  483.71   31.81
   4  -3   6  445.19   29.41
   4  -3   6  480.38   29.33
   4  -3   6  537.78   32.53
  -4  -3   6  563.03   35.72
   4   3  -5   77.11   11.37
   4  -3   5   63.04    9.37
   4  -3   5   54.68    7.72
   4  -3   5   87.04   10.52
  -4  -3   5   78.04   10.44
   4   3  -4  421.26   28.05
   4  -3   4  374.10   25.07
   4  -3   4  398.50   24.75
   4  -3   4  476.20   28.86
  -4  -3   4  477.91   30.21
   4   3  -3  141.45   11.82
   4  -3   3  116.73   15.58
   4  -3   3  154.10    9.77
  -4  -3   3  163.36   11.66
   4   3  -2   22.52    5.88
   4  -3   2    7.94    3.60
  -4  -3   2   14.43    2.84
  -4  -3   2   12.41    2.84
   4   3  -1   97.64   13.23
   4  -3   1   98.43   13.61
  -4  -3   1   84.14   14.85
  -4  -3   1  115.34   14.48
  -4   3  -1   95.43   11.66
   4   3   0  174.89   13.17
   4  -3   0  176.64   14.24
  -4  -3   0  146.40   16.71
   4  -3   0  199.80   12.88
  -4  -3   0  191.55   12.86
  -4   3   0  171.29   11.02
   4   3   1   91.09   12.30
   4  -3  -1   87.61   12.85
  -4  -3  -1   92.71   11.56
   4  -3  -1  125.37    8.73
  -4  -3  -1  108.81   13.60
  -4   3   1   94.79   11.71
   4   3   2   11.44    3.32
   4  -3  -2   18.93    7.59
   4  -3  -2   26.93    4.66
  -4  -3  -2   20.37    4.02
  -4   3   2    7.98    1.71
   4   3   2    1.27    0.95
   4   3   3    2.19    0.95
   4   3   4  400.03   26.11
   4  -3  -4  552.98   36.50
   4  -3  -4  518.13   39.23
  -4  -3  -4  479.05   29.68
  -4   3   4  390.58   24.60
   4   3   5   69.32    9.75
   4  -3  -5   82.22   12.19
   4  -3  -5   86.51   13.69
  -4  -3  -5   81.54   10.36
   4   3   5   87.74   11.04
   4   3   6  488.38   31.30
   4  -3  -6  537.70   35.57
   4  -3  -6  511.82   36.81
  -4  -3  -6  542.40   33.49
   4   3   6  522.47   32.23
   4   3   7   73.38   10.59
   4  -3  -7   74.88   12.13
   4  -3  -7   59.39   12.48
  -4  -3  -7   90.34   12.29
   4   3   7   55.96    7.88
   4   3   8   16.69    3.32
   4  -3  -8   16.35    8.75
   4  -3  -8   20.69    4.28
  -4  -3  -8   16.11    3.04
   4   3   8   11.07    2.35
   4  -3  -9  227.75   19.25
   4  -3  -9  200.99   19.78
  -4  -3  -9  205.47   14.66
   4   3  10  312.63   21.99
   4  -3 -10  365.20   27.84
   4  -3 -10  372.36   40.51
  -4  -3 -10  318.95   22.10
   4   3  11   75.79    9.29
   4  -3 -11   72.54   10.72
   4  -3 -11   87.73   16.63
  -4  -3 -11   72.65   11.79
   4   3  12   90.45   10.75
   4  -3 -12   97.74   13.84
   4  -3 -12  118.06   18.52
  -4  -3 -12  110.39   17.46
   4  -3 -13   75.38   10.19
   4  -3 -13   70.76   10.30
  -4  -3 -13   63.62    8.18
   4  -3 -14   65.99   10.32
   4  -3 -14   59.97   12.43
  -4  -3 -14   51.90   17.38
   4  -3 -15   56.32    7.85
   4  -3 -15   49.14   17.91
  -4  -3 -15   45.86   15.26
   4  -3 -16   75.91   19.94
   4  -3 -16   81.37   11.77
   4  -3 -17  125.50   29.17
   4  -3 -17   81.26   26.51
   4  -3 -18   17.03    6.20
   4  -3 -18   17.88    7.75
   4  -3 -19   10.03    5.22
   4  -3 -19    7.82    3.73
   4  -3 -20   53.53   11.48
   4  -3 -20   43.79   15.30
   4  -3 -21    9.67    5.41
   4  -3 -21    5.49    2.88
   5   3 -18   69.63   14.27
  -5  -3  18    7.86    5.51
   5   3 -17    6.28    4.97
   5  -3  17    6.82    3.62
  -5  -3  17   11.85    5.01
   5   3 -16   16.18    7.83
   5  -3  16    6.86    3.70
  -5  -3  16   -1.63    3.24
   5   3 -15  134.64   16.98
   5  -3  15   82.28   10.44
  -5  -3  15    3.00    4.02
   5   3 -14   50.73   11.52
   5  -3  14   49.61   16.72
   5   3 -13   24.91   10.07
   5  -3  13   15.41    5.53
  -5  -3  13   35.19   12.06
   5   3 -12   25.64    8.10
   5  -3  12   16.99    5.56
  -5  -3  12    7.43    3.65
   5   3 -11   31.60   11.90
   5  -3  11   20.69    7.50
  -5  -3  11   30.71   10.68
   5   3 -10   33.41   11.85
   5  -3  10   30.29   10.64
  -5  -3  10   22.90    8.63
   5   3  -9  165.33   20.63
   5  -3   9  155.77   19.11
  -5  -3   9  217.77   25.42
   5   3  -8  111.29   11.85
   5  -3   8  143.23   13.25
  -5  -3   8  133.92   11.68
   5   3  -7  108.05   11.13
   5  -3   7   93.73    9.77
  -5  -3   7  138.15   11.79
   5   3  -6   17.35    5.38
   5  -3   6   16.31    3.97
  -5  -3   6   25.58    3.56
   5   3  -5  145.41   11.58
   5  -3   5  126.10   16.34
  -5  -3   5  152.37   10.35
   5   3  -4  224.40   15.99
   5  -3   4  185.66   15.15
  -5  -3   4  242.49   14.67
   5   3  -3  173.36   13.28
   5  -3   3  209.96   16.43
  -5  -3   3  171.11   10.86
   5   3  -2  179.73   13.26
   5  -3   2  188.60   14.91
  -5  -3   2  195.99   11.69
   5   3  -1  437.19   26.17
   5  -3   1  426.67   26.00
  -5  -3   1  476.88   25.79
   5   3   0   19.06    6.15
   5  -3   0   -0.29    3.99
  -5  -3   0   11.31    2.61
   5   3   1  444.80   26.32
   5  -3  -1  451.03   27.68
   5  -3  -1  454.08   24.73
   5   3   2  181.22   12.86
   5  -3  -2  223.47   15.91
   5  -3  -2  192.50   14.98
   5   3   3  170.81   12.51
   5  -3  -3  181.56   13.58
   5  -3  -3  182.66   14.82
   5   3   4  231.82   15.04
   5  -3  -4  225.75   16.29
   5  -3  -4  257.38   20.84
   5   3   5  115.98   15.20
   5  -3  -5  161.47   15.06
   5  -3  -5  120.02   18.07
   5   3   6   16.47    3.36
   5  -3  -6   43.36    9.66
   5  -3  -6   22.25    6.15
   5   3   7   97.93    9.15
   5  -3  -7  135.68   15.31
   5  -3  -7   86.83   11.88
   5   3   8  128.14   11.12
   5  -3  -8  153.27   14.93
   5  -3  -8  141.43   20.09
   5   3   9  169.99   19.94
   5  -3  -9  258.47   31.46
   5  -3  -9  172.36   31.84
   5   3  10   33.14   11.07
   5  -3 -10   26.54   12.06
   5  -3 -10   27.77   10.68
   5  -3 -11   57.87    9.53
   5  -3 -11   37.77   13.97
   5  -3 -12   34.02   10.52
   5  -3 -12   14.00    3.51
   5  -3 -13    4.53    7.16
   5  -3 -13   39.84   14.74
   5  -3 -14   75.23   15.36
   5  -3 -14   44.43   15.09
   5  -3 -15   98.09   13.07
   5  -3 -15   94.92   17.76
   5  -3 -16   15.63    6.45
   5  -3 -16   18.42    7.53
   5  -3 -17    6.33    4.63
   5  -3 -17    7.99    3.17
   5  -3 -18   62.74   13.09
   5  -3 -18   40.35   11.28
   6   3 -14   22.73    9.43
   6  -3  14   22.71    8.52
  -6  -3  14   26.91    8.63
   6   3 -13   23.71   10.07
   6  -3  13   16.91    7.35
  -6  -3  13   12.33    4.34
   6   3 -12   76.35   15.60
   6  -3  12   52.47   11.45
  -6  -3  12   59.86   12.30
   6   3 -11   62.28   13.92
   6  -3  11   75.17   15.30
  -6  -3  11   52.26   10.72
   6   3 -10   44.58    9.16
   6  -3  10   63.54   10.12
  -6  -3  10   28.41    9.11
   6   3  -9    4.85    3.84
   6  -3   9   19.38    8.55
   6   3  -8    9.63    4.45
   6  -3   8    7.80    4.31
   6   3  -7  141.39   32.92
   6  -3   7  133.66   24.19
   6   3  -6   14.82    5.27
   6  -3   6    7.37    5.41
   6   3  -5   14.22    5.22
   6  -3   5    8.68    4.37
   6   3  -4   17.68    5.46
   6  -3   4   38.81   12.61
   6   3  -3  140.62   13.76
   6  -3   3  101.50   11.93
   6   3  -2    8.76    5.80
   6  -3   2   16.51    5.53
   6   3  -1   76.90   20.82
   6  -3   1   45.55   13.39
   6   3   0   25.85    6.31
   6  -3   0   22.22    6.05
   6   3   1   67.35   17.92
   6  -3  -1   55.74   15.87
   6   3   2   15.36    5.75
   6  -3  -2   29.76    8.30
   6   3   3  131.37   13.63
   6  -3  -3  120.00   12.94
   6   3   4   16.11    5.51
   6  -3  -4   35.45   11.60
   6  -3  -5   19.77    8.07
   6   3   6    0.77    2.85
   6  -3  -6    4.31    5.77
   6   3   7  102.49   23.90
   6  -3  -7  153.03   28.22
   6   3   8    1.71    2.51
   6  -3  -8    0.42    4.85
   6   3   9    4.47    2.63
   6  -3  -9   19.08    9.24
   6  -3 -10   51.88   10.15
   6  -3 -11   89.65   18.37
   6  -3 -12   86.53   18.76
   6  -3 -13   30.24   12.97
   6  -3 -14   34.95   12.45
   7   3  -7    2.79    4.16
   7  -3   7   25.13   10.01
   7   3  -6   13.05    4.85
   7  -3   6   28.57   10.20
   7   3  -5  120.29   22.92
   7  -3   5   89.54   17.62
   7   3  -4   14.48    7.38
   7  -3   4   10.64    5.30
   7   3  -3    9.08    4.31
   7  -3   3   12.80    5.03
   7   3  -2  172.25   22.30
   7  -3   2  149.65   20.29
   7   3  -1    5.96    3.83
   7  -3   1   20.12    8.52
   7   3   0   11.93    4.31
   7  -3   0   32.69   13.15
   7   3   1   13.07    5.33
   7  -3  -1    0.02    3.62
   7   3   2  168.09   21.74
   7  -3  -2  154.20   20.71
   7   3   3   14.62    4.48
   7  -3  -3   22.79   10.44
   7   3   4    6.36    5.03
   7  -3  -4   14.37    6.63
   7   3   5  108.41   21.26
   7  -3  -5  126.65   24.22
   7   3   6   15.79    6.47
   7  -3  -6   14.19    6.79
   7  -3  -7   35.01   13.81
   0   4 -25   13.23    5.48
   0  -4  25    4.48    3.78
   0   4 -24  155.48   31.49
   0  -4  24    4.29    3.72
   0   4 -23    2.87    3.27
   0  -4  23    1.35    2.95
   0   4 -22   26.30    9.21
   0  -4  22    6.98    4.34
   0  -4  21    7.77    4.56
   0   4 -20   26.40   10.25
   0  -4  20   13.23    6.97
   0   4 -19   46.39   19.30
   0  -4  19    4.79    3.44
   0  -4  18    5.78    3.36
   0   4 -17   50.07    9.80
   0  -4  17   10.19    4.71
   0   4 -16  186.07   27.57
   0  -4  16    7.46    4.53
   0   4 -15   12.17    3.62
   0  -4  15   10.62    3.62
   0  -4  14    4.69    3.17
   0   4 -13   49.53   10.07
   0  -4  13   -4.97    2.95
   0   4 -12   95.50   16.32
   0  -4  12    4.20    3.81
   0   4 -11  197.59   25.79
   0   4 -10  536.56   34.20
   0  -4  10  500.83   29.52
   0   4  -9  594.80   31.31
   0  -4   9  533.83   28.69
   0   4  -8  307.50   19.28
   0  -4   8  258.71   23.53
   0   4  -7  140.58   17.97
   0  -4   7  112.22    6.55
   0   4  -6  163.01   13.33
   0  -4   6  121.01    6.52
   0   4  -5   24.79    3.76
   0  -4   5   47.64    6.49
   0   4  -5    3.76    2.27
   0   4  -4  100.91   13.21
   0  -4   4   81.90    4.60
   0  -4   4   82.27    5.27
   0   4  -4   87.29    5.19
   0   4  -3   51.30    7.24
   0  -4   3   38.49    3.64
   0  -4   3   32.79    4.04
   0   4  -3   31.41    4.04
   0   4  -2   80.34    7.93
   0  -4   2   77.16   12.62
   0  -4   2   82.43    5.19
   0   4  -2   49.48    4.10
   0   4  -1  206.11   22.38
   0  -4   1  153.05    5.56
   0  -4   1  149.47    6.66
   0   4  -1  174.36    6.36
   0   4   0   20.18    4.26
   0  -4   0   28.57    5.64
   0  -4   0   18.63    3.54
   0   4   0   21.69    2.72
   0   4   1  178.95   12.61
   0  -4  -1  152.61    6.42
   0   4   1  170.28    6.39
   0  -4  -2   87.37   11.61
   0  -4  -2   68.25    4.79
   0   4   2   69.58    4.65
   0   4   3   29.49    6.62
   0  -4  -3   31.52    4.21
   0  -4  -3   28.40    3.68
   0   4   3   33.16    4.21
   0  -4  -4   93.94    6.74
   0  -4  -4  100.99    6.37
   0   4   4   91.83    5.27
   0  -4  -5   38.20    5.41
   0  -4  -5   35.24    4.29
   0  -4  -6  195.60   11.37
   0  -4  -6  166.77    8.17
   0  -4  -7  169.90   11.40
   0  -4  -7  130.53    4.95
   0  -4  -7  150.37    8.12
   0  -4  -8  336.57   17.43
   0  -4  -8  338.37   17.43
   0  -4  -8  359.03   20.28
   0  -4  -9  602.32   30.56
   0  -4  -9  569.78   28.56
   0  -4  -9  614.91   32.76
   0  -4 -10  538.57   30.10
   0  -4 -10  548.56   30.29
   0  -4 -10  586.76   34.41
   0  -4 -11  201.15   12.01
   0  -4 -11  196.36   11.32
   0  -4 -11  183.88   12.86
   0  -4 -12   76.98   11.77
   0  -4 -12   76.39    9.59
   0  -4 -12   89.06   12.89
   0  -4 -13   36.10    4.76
   0  -4 -13   38.07    6.52
   0  -4 -14  938.57   56.65
   0  -4 -14  966.31   60.55
   0  -4 -15   11.90    2.03
   0  -4 -15   31.03    6.92
   0  -4 -16  122.58    8.54
   0  -4 -16  166.87   14.67
   0  -4 -17   76.63   12.59
   0  -4 -18  184.54   19.96
   0  -4 -19   21.59    9.02
   0  -4 -20   24.43   11.76
   0  -4 -21   17.38    6.62
   0  -4 -22   10.89    5.91
   0  -4 -23    3.80    4.85
   0  -4 -24  164.67   34.39
   0  -4 -25   31.30   11.56
  -1   4 -25   15.60    6.12
   1   4 -25   13.60    4.26
   1  -4  25   15.57    7.14
  -1  -4  25    1.70    3.35
  -1   4 -24   13.57    4.20
   1   4 -24   13.79    5.17
   1  -4  24    3.57    4.04
  -1  -4  24    6.26    3.64
  -1   4 -23   32.40   11.88
   1   4 -23   40.46   13.37
   1  -4  23    1.76    2.69
  -1  -4  23    5.17    3.62
  -1   4 -22   25.77    9.05
   1   4 -22   44.98   17.46
   1  -4  22    3.78    3.38
  -1  -4  22    6.45    3.43
  -1   4 -21   36.54   14.54
   1   4 -21   35.38   12.06
   1  -4  21   -0.32    2.64
  -1  -4  21    2.55    3.36
  -1   4 -20   69.52   11.20
   1   4 -20   67.16   12.48
   1  -4  20    4.29    3.54
  -1  -4  20   11.79    5.33
  -1   4 -19   57.58   10.62
   1   4 -19   60.61   10.73
   1  -4  19    0.95    2.92
  -1  -4  19    7.30    4.65
   1  -4  18    7.78    3.43
  -1  -4  18   13.37    5.45
  -1   4 -17   36.38    8.20
   1   4 -17   55.66   10.03
   1  -4  17    3.11    2.80
  -1  -4  17    3.64    3.46
   1  -4  16   -0.19    3.04
  -1  -4  16   11.96    6.41
  -1   4 -15  108.84   19.40
   1   4 -15  134.15   19.93
   1  -4  15   43.25    8.23
  -1  -4  15    9.27    3.65
  -1   4 -14  123.89   14.74
  -1  -4  14    5.48    3.52
  -1   4 -13   71.90   11.93
   1   4 -13   68.97   10.14
   1  -4  13   59.65    8.94
  -1  -4  13    3.54    3.49
  -1  -4  12    6.74    3.46
  -1   4 -11   77.24   13.71
   1   4 -11   48.53    8.28
   1  -4  11   61.99    9.13
  -1  -4  11    4.32    2.80
  -1   4 -10  167.33   28.01
   1   4 -10  124.98   16.66
   1  -4  10  114.99   15.26
  -1  -4  10   95.86   13.12
  -1   4  -9  384.11   32.05
   1   4  -9  378.86   22.87
   1  -4   9  317.72   19.22
  -1  -4   9  410.00   24.84
  -1   4  -8 1080.40   55.12
   1   4  -8  990.93   50.55
   1  -4   8  898.65   45.81
  -1  -4   8 1040.34   53.08
  -1   4  -7  937.74   48.29
   1   4  -7  746.76   38.51
   1  -4   7  704.63   36.42
  -1  -4   7  909.62   46.47
  -1   4  -6  167.01    9.63
   1   4  -6  107.27    5.45
  -1  -4   6  166.68    7.94
  -1   4  -6  164.63    7.40
  -1   4  -5 1285.73   33.35
   1   4  -5 1066.27   28.06
  -1  -4   5 1218.21   31.83
  -1   4  -5 1128.05   28.74
  -1   4  -4  250.16   26.04
   1   4  -4  190.57    7.85
   1  -4   4  201.35    8.87
  -1  -4   4  192.78    8.63
  -1   4  -3  721.98   23.29
   1   4  -3  745.00   20.65
  -1  -4   3  704.25   19.24
   1  -4   3  760.01   21.46
  -1  -4   3  731.62   20.82
   1   4  -3  663.45   18.71
  -1   4  -2  241.13    9.13
   1  -4   2  216.87    7.91
   1   4  -2  262.35    9.83
  -1  -4   2  226.65    8.04
   1  -4   2  252.64    9.80
  -1  -4   2  253.92   10.20
   1   4  -2  235.79    8.78
  -1   4  -1  650.42   18.61
   1  -4   1  612.42   17.73
   1   4  -1  710.99   19.59
  -1  -4   1  634.16   17.12
   1  -4   1  698.98   19.48
  -1  -4   1  654.55   18.77
  -1   4  -1  636.66   17.51
   1   4  -1  656.25   18.37
   1  -4   0   22.46    3.25
  -1  -4   0   11.42    1.97
   1  -4   0   17.09    4.24
  -1  -4   0   27.23    4.65
  -1   4   0   24.97    4.39
   1   4   0   17.97    3.20
   1  -4  -1  618.24   17.03
   1   4   1  668.18   18.00
  -1  -4  -1  617.48   16.34
   1  -4  -1  704.71   19.70
  -1  -4  -1  667.62   19.03
  -1   4   1  669.94   18.60
   1   4   1  625.99   17.59
   1  -4  -2  222.59   12.72
   1   4   2  240.34    8.02
  -1  -4  -2  225.28    7.34
   1  -4  -2  257.22   10.17
  -1  -4  -2  241.11    9.72
  -1   4   2  240.04    8.92
   1   4   2  212.53    8.60
   1  -4  -3  724.37   21.06
   1   4   3  769.73   19.80
  -1  -4  -3  687.27   17.64
   1  -4  -3  820.36   23.00
  -1  -4  -3  710.77   20.02
  -1   4   3  685.80   18.98
   1   4   3  742.76   20.41
   1  -4  -4  206.67    7.42
   1   4   4  206.13    8.36
  -1  -4  -4  200.10    6.37
   1  -4  -4  229.58    9.66
  -1  -4  -4  222.03    9.07
  -1   4   4  194.18    8.15
   1   4   4  186.46    7.99
   1   4   5 1234.58   29.86
  -1  -4  -5 1149.23   27.69
   1  -4  -5 1087.43   29.28
  -1  -4  -5 1222.20   31.95
   1   4   6  155.82    6.09
  -1  -4  -6  168.93    5.13
   1  -4  -6  187.84    7.70
   1  -4  -6  170.90    8.23
  -1  -4  -6  200.36    9.43
   1  -4  -7  850.15   43.04
   1  -4  -7  808.03   41.84
  -1  -4  -7  936.93   47.86
   1  -4  -8 1095.27   55.08
  -1  -4  -8  893.99   43.65
   1  -4  -8  890.87   45.83
  -1  -4  -8 1050.50   53.48
   1  -4  -9  346.76   20.26
   1  -4  -9  344.53   21.11
  -1  -4  -9  370.91   22.41
   1  -4 -10  133.31   16.83
   1  -4 -10   95.93   12.88
  -1  -4 -10  141.32   18.56
   1  -4 -11   46.18    6.70
   1  -4 -11   50.31    8.43
  -1  -4 -11   63.59   10.12
   1  -4 -12  429.34   29.70
   1  -4 -12  341.54   24.89
  -1  -4 -12  449.01   31.94
   1  -4 -13   74.61    9.88
   1  -4 -13   75.38   11.32
  -1  -4 -13   81.21   11.28
   1  -4 -14  129.26    9.48
  -1  -4 -14  141.71   11.93
   1  -4 -14  113.53   15.84
   1  -4 -15  131.25   17.67
   1  -4 -15   87.58   13.18
  -1  -4 -15  119.71   17.62
   1  -4 -16  178.88   13.31
   1  -4 -16  204.06   26.00
  -1  -4 -16  214.76   17.36
   1  -4 -17   43.76    5.78
  -1  -4 -17   68.67   11.10
   1  -4 -17   50.49    9.91
   1  -4 -18  371.91   34.41
  -1  -4 -18  365.20   32.84
  -1  -4 -19   50.20   20.65
   1  -4 -19   68.55   12.80
   1  -4 -20   77.32   12.16
  -1  -4 -20   84.76   12.75
  -1  -4 -21   32.19   10.68
   1  -4 -21   60.96   15.94
   1  -4 -22   47.06   18.92
  -1  -4 -22   28.46   11.16
  -1  -4 -23   18.31    6.17
   1  -4 -23   45.54    8.31
   1  -4 -24   30.56   12.62
  -1  -4 -25   29.60   11.18
   1  -4 -25   33.83   12.83
   2   4 -24   10.59    4.77
  -2  -4  24    1.25    3.19
  -2   4 -23   27.26   10.15
   2   4 -23    9.82    3.17
  -2  -4  23    6.95    6.05
  -2   4 -22    8.59    3.65
   2   4 -22   24.07    9.07
  -2  -4  22   22.76    9.05
  -2   4 -21   25.24    8.70
   2   4 -21   19.14    8.54
  -2  -4  21    8.43    6.82
  -2   4 -20   37.00   12.80
   2   4 -20   47.46   13.69
   2  -4  20   37.91   10.75
  -2  -4  20    2.85    4.18
  -2   4 -19   52.36    8.70
   2   4 -19   45.99   15.76
   2  -4  19   34.81   12.00
  -2  -4  19    4.45    4.76
  -2   4 -18   43.46   16.79
   2   4 -18   46.24   18.13
   2  -4  18   39.31   15.18
  -2  -4  18   10.84    6.65
  -2   4 -17  106.16   16.45
  -2  -4  17    8.46    4.16
  -2   4 -15  179.44   28.85
  -2  -4  15    6.66    4.56
  -2   4 -14   51.34    9.37
   2   4 -14   71.41   11.48
   2  -4  14   49.53    8.44
  -2  -4  14   12.29    4.55
  -2  -4  13    7.29    3.59
  -2  -4  12    2.74    3.19
  -2  -4  11   -0.69    2.92
  -2   4 -10  244.39   18.48
   2   4 -10  308.33   23.02
   2  -4  10  233.68   17.15
  -2  -4  10  259.22   19.80
   2   4  -9   31.17    7.53
   2  -4   9   20.21    3.72
  -2  -4   9   23.19    5.70
   2   4  -8  237.65   15.60
   2  -4   8  266.78   16.21
  -2  -4   8  260.89   16.87
   2   4  -7 1194.78   66.60
   2  -4   7 1332.02  161.47
  -2  -4   7 1340.54  162.88
  -2   4  -7 1179.97   65.21
   2   4  -6  834.20   43.17
   2  -4   6  911.02   46.02
  -2  -4   6  890.07   46.02
  -2   4  -6  753.17   38.12
   2   4  -5  460.61   25.08
   2  -4   5  497.48   25.85
  -2  -4   5  514.54   27.57
  -2   4  -5  465.90   24.15
   2   4  -4 1152.77   58.34
   2  -4   4 1378.80   68.63
  -2  -4   4 1348.07   67.67
  -2   4  -4 1247.38   62.08
   2   4  -3  831.35   42.59
   2  -4   3  938.82   47.22
  -2  -4   3  978.58   49.62
  -2   4  -3  881.82   44.27
   2   4  -2    3.78    6.13
   2  -4   2   45.84    5.85
  -2  -4   2   33.73    4.74
  -2   4  -2   43.47    5.51
   2  -4   1 1011.99   50.89
  -2   4  -1  895.37   44.96
   2   4  -1  894.79   45.18
   2   4   0  137.01   12.94
  -2  -4   0  136.20   12.62
   2  -4   0  164.80   15.18
  -2   4   0  148.82   13.60
   2   4   0  149.04   13.69
   2   4   1 1012.33   50.94
  -2  -4  -1  906.52   45.65
   2  -4  -1 1075.90   54.20
  -2   4   1  916.94   46.11
  -2  -4  -1  949.62   47.99
   2   4   1  911.26   45.94
   2   4   2   40.94    5.09
  -2  -4  -2   39.47    4.81
   2  -4  -2   36.49    5.05
  -2  -4  -2   45.76    5.83
  -2   4   2   24.70    3.52
   2   4   2   33.68    3.97
   2   4   3  998.17   49.99
  -2  -4  -3  889.30   44.62
   2  -4  -3  949.67   48.72
   2  -4  -3 1010.07   51.24
  -2   4   3  846.72   42.88
  -2  -4  -3  952.46   48.21
   2   4   3  911.48   45.97
   2   4   4 1348.92   66.86
  -2  -4  -4 1276.73   63.41
   2  -4  -4 1327.52   66.87
   2  -4  -4 1175.53   59.25
  -2  -4  -4 1351.59   67.59
   2   4   4 1256.54   62.79
   2   4   5  514.06   26.11
  -2  -4  -5  505.75   25.85
   2  -4  -5  471.47   25.36
   2  -4  -5  483.55   25.92
  -2  -4  -5  556.46   29.25
   2   4   6  875.41   43.49
  -2  -4  -6  907.17   45.14
   2  -4  -6  933.73   47.83
   2  -4  -6  842.02   43.37
  -2  -4  -6  915.79   46.61
   2   4   7 1341.21  162.14
  -2  -4  -7 1232.73   67.02
   2  -4  -7 1469.57  178.42
   2  -4  -7 1164.73   64.77
  -2  -4  -7 1338.55  162.35
   2   4   8  263.93   16.02
   2  -4  -8  271.99   17.06
   2  -4  -8  243.13   15.63
  -2  -4  -8  261.11   16.32
   2  -4  -9   15.06    4.10
   2  -4  -9   20.41    4.55
  -2  -4  -9   22.33    5.70
   2  -4 -10  249.97   18.69
   2  -4 -10  205.25   15.87
  -2  -4 -10  239.20   18.23
   2  -4 -11  458.82   29.60
   2  -4 -11  405.29   26.78
  -2  -4 -11  445.07   29.02
   2  -4 -12  403.24   26.36
   2  -4 -12  350.62   23.67
  -2  -4 -12  442.25   28.78
   2  -4 -13  214.31   17.80
   2  -4 -13  158.99   13.92
  -2  -4 -13  198.47   16.79
   2  -4 -14   47.92    8.43
   2  -4 -14   39.63    7.37
  -2  -4 -14   45.22    7.66
   2  -4 -15  175.33   13.84
   2  -4 -15  154.02   17.31
  -2  -4 -15  166.05   14.02
   2  -4 -16  528.62   29.79
   2  -4 -16  510.38   43.21
  -2  -4 -16  454.19   26.76
   2  -4 -17  123.29   10.78
   2  -4 -17  150.84   20.18
  -2  -4 -17  132.56   16.75
   2  -4 -18   35.65   13.94
   2  -4 -18   58.46   11.55
  -2  -4 -18   45.47   17.96
   2  -4 -19   60.16    7.37
   2  -4 -19   83.42   11.52
  -2  -4 -19   52.54   10.20
   2  -4 -20   47.56   12.69
  -2  -4 -20   44.26   12.88
   2  -4 -20   48.45   17.38
   2  -4 -21   41.66   14.83
  -2  -4 -21   40.89   14.48
  -2  -4 -22   23.32    9.66
   2  -4 -22    4.08    5.27
   2  -4 -23   24.03    9.35
  -2  -4 -23   31.73   13.05
  -2  -4 -24   13.41    5.80
   2  -4 -24   15.09    8.17
   3   4 -23   79.97   16.13
  -3  -4  23   10.07    5.22
   3   4 -22   53.45    9.42
   3  -4  22   20.41    8.17
  -3  -4  22    9.80    4.69
   3   4 -21   33.28   11.47
   3  -4  21   28.00    9.03
  -3  -4  21    4.55    4.84
   3   4 -20   84.57   12.78
   3  -4  20   61.39    8.75
  -3  -4  20   11.40    5.46
   3   4 -19   14.75    7.32
   3  -4  19   15.79    5.21
  -3  -4  19    6.05    4.58
   3   4 -18   49.22   14.06
   3  -4  18   32.79    9.02
  -3  -4  18   16.95    5.37
   3   4 -17   16.39    7.40
   3  -4  17   43.29   14.32
  -3  -4  17    0.77    4.36
   3   4 -16   52.71   18.16
   3  -4  16   46.16   17.47
  -3  -4  16    6.20    4.81
  -3  -4  15   -3.81    3.54
  -3  -4  14    2.55    3.41
  -3  -4  13    1.31    3.56
   3   4 -12   28.11    7.42
   3  -4  12   15.49    3.78
   3   4 -11   30.82    8.01
   3  -4  11    5.62    2.42
  -3  -4  11   10.56    6.45
   3   4 -10  240.48   20.50
   3  -4  10  261.07   20.23
  -3  -4  10  323.41   25.71
   3   4  -9   54.94    8.73
   3  -4   9   40.80    6.82
   3  -4   9   63.97    8.70
  -3  -4   9   72.43   10.91
   3   4  -8  124.78   10.38
   3  -4   8   85.72   14.99
   3  -4   8  126.89    9.08
  -3  -4   8  139.86   11.44
   3   4  -7   29.89    5.85
   3  -4   7   43.84    6.28
   3  -4   7   53.34    7.27
  -3  -4   7   33.76    5.83
   3   4  -6   62.87    9.47
   3  -4   6   72.40    9.64
  -3  -4   6   70.22   10.14
  -3   4  -6   58.93    7.85
   3   4  -5  660.81   45.62
   3  -4   5  753.30   50.52
  -3  -4   5  725.59   49.46
  -3   4  -5  572.81   38.51
   3   4  -4   -0.08    3.46
   3  -4   4    8.51    2.35
  -3  -4   4   10.36    4.13
   3   4  -3  437.99   25.82
   3  -4   3  788.28   43.74
  -3  -4   3  720.96   40.83
  -3   4  -3  652.71   36.23
   3   4  -2   14.99    4.55
   3  -4   2   16.55    3.28
  -3  -4   2   15.91    5.16
  -3   4  -2   16.98    3.06
   3   4  -1   92.80   12.35
   3  -4   1  121.59   15.39
  -3  -4   1  103.33   13.66
  -3   4  -1  107.86   13.57
   3   4   0  352.01   21.06
   3  -4   0  461.73   27.65
   3  -4   0  413.54   23.77
  -3  -4   0  367.28   21.59
  -3   4   0  364.91   20.87
   3   4   1   93.54   12.29
   3  -4  -1   94.82   13.74
   3  -4  -1  115.44   14.74
  -3  -4  -1   95.99   12.51
  -3   4   1   79.35   10.22
   3   4   1  101.73   13.05
   3   4   2    7.37    3.12
   3  -4  -2   21.38    5.57
   3  -4  -2   24.87    4.05
  -3  -4  -2   28.93    4.93
  -3   4   2   22.47    3.91
   3   4   2   12.06    2.69
   3   4   3  691.95   38.92
   3  -4  -3  741.01   42.67
   3  -4  -3  705.69   39.64
  -3  -4  -3  703.19   39.43
   3   4   3  677.13   37.95
   3   4   4   11.76    3.00
  -3  -4  -4    9.43    2.50
   3  -4  -4   24.20    7.77
   3  -4  -4   11.88    3.06
  -3  -4  -4   16.77    3.89
   3   4   4    6.62    1.84
   3   4   5  797.25   53.58
  -3  -4  -5  680.24   45.89
   3  -4  -5  826.75   56.89
   3  -4  -5  620.35   42.33
  -3  -4  -5  737.12   49.70
   3   4   6   60.18    8.28
   3  -4  -6   85.36   13.26
  -3  -4  -6   57.81    7.83
   3  -4  -6   70.04    9.61
  -3  -4  -6   65.11    8.99
   3   4   7   44.14    6.18
   3  -4  -7   60.23    9.21
  -3  -4  -7   29.07    4.26
   3  -4  -7   39.61    6.29
  -3  -4  -7   38.87    5.96
   3   4   8  124.68    8.62
   3  -4  -8  107.51   14.38
  -3  -4  -8   89.22   11.02
   3  -4  -8  115.45   14.98
  -3  -4  -8  111.48   14.21
   3  -4  -9   95.19   13.29
   3  -4  -9   77.33   10.68
  -3  -4  -9   76.45   10.46
   3   4  10  282.47   20.97
   3  -4 -10  308.11   24.91
   3  -4 -10  272.87   21.82
  -3  -4 -10  299.27   23.43
   3   4  11    4.52    1.06
   3   4  11    3.78    0.90
   3  -4 -11   12.48    6.31
   3  -4 -11    4.97    3.38
  -3  -4 -11   18.71    5.75
   3  -4 -12   19.97    5.99
   3  -4 -12   20.85    5.09
  -3  -4 -12    8.04    3.22
   3  -4 -13  128.33   12.06
   3  -4 -13  150.76   18.96
  -3  -4 -13  148.61   12.21
   3  -4 -14  133.33   10.33
   3  -4 -14  132.32   18.05
  -3  -4 -14  121.32   14.94
   3  -4 -15  288.60   22.70
   3  -4 -15  257.24   41.16
  -3  -4 -15  237.25   19.01
   3  -4 -16   56.51    8.81
   3  -4 -16   64.77    9.96
  -3  -4 -16   63.44   12.30
   3  -4 -17   39.51   14.06
  -3  -4 -17   35.01   13.74
   3  -4 -18   44.22   12.38
   3  -4 -18   38.38   12.06
  -3  -4 -18   38.44   10.51
   3  -4 -19   18.96    7.59
   3  -4 -19   39.77   13.52
  -3  -4 -19   25.80    9.10
   3  -4 -20   69.61    9.10
   3  -4 -20   71.42   19.46
  -3  -4 -20   66.79   12.56
   3  -4 -21   34.00   11.04
  -3  -4 -21   31.47   10.57
   3  -4 -21   19.46    5.22
   3  -4 -22   27.02   11.90
  -3  -4 -22   28.62   11.26
  -3  -4 -23   63.28   16.03
   3  -4 -23   71.65   19.48
   4   4 -21   63.38   14.13
  -4  -4  21    4.40    4.36
   4   4 -20   44.70    8.92
  -4  -4  20   -2.10    3.54
   4   4 -19   62.34   13.73
  -4  -4  19    4.93    4.26
   4   4 -18   44.21    9.71
  -4  -4  18   12.32    5.38
   4   4 -17   84.38   16.58
  -4  -4  17   18.69    8.36
   4   4 -16   49.65   16.00
  -4  -4  16   -5.25    3.46
   4   4 -15   31.47    8.87
   4   4 -14   22.57    9.83
  -4  -4  14    6.65    5.06
   4   4 -13   89.60   12.59
  -4  -4  13   56.46    8.87
   4   4 -12   83.77    9.66
   4  -4  12   71.21    6.34
  -4  -4  12   78.29    9.66
   4   4 -11   13.52    4.12
   4  -4  11   10.65    2.63
  -4  -4  11    3.60    3.57
   4   4 -10  195.60   13.90
   4  -4  10  207.76   12.01
  -4  -4  10  227.53   15.63
   4   4  -9   24.19    5.89
   4  -4   9   32.13    5.51
  -4  -4   9   33.99    7.85
   4   4  -8  102.80   17.31
   4  -4   8  101.68   15.76
  -4  -4   8  122.24   11.24
   4   4  -7  367.23   29.39
   4  -4   7  444.72   32.93
  -4  -4   7  411.23   31.63
   4   4  -6  153.70   13.74
   4  -4   6  191.86   14.66
  -4  -4   6  212.34   17.27
   4   4  -5  209.22   17.91
   4  -4   5  209.19   17.97
   4  -4   5  209.38   15.91
  -4  -4   5  235.41   18.85
   4   4  -4  108.28   16.27
   4  -4   4  115.61   16.43
   4  -4   4  136.12   17.94
  -4  -4   4  128.19   17.84
   4   4  -3  182.07   15.78
   4  -4   3  157.59   14.30
  -4  -4   3  196.87   16.24
   4   4  -2  815.83   51.29
   4  -4   2  790.92   50.28
  -4  -4   2  945.25   58.24
  -4   4  -2  759.40   46.24
   4   4  -1  341.20   23.34
   4  -4   1  386.77   26.19
  -4  -4   1  393.90   25.15
  -4   4  -1  366.96   22.92
   4   4   0 1237.10   76.27
   4  -4   0 1217.45   75.84
  -4  -4   0 1412.01  181.38
  -4   4   0 1233.78   74.78
   4   4   1    4.20    1.63
   4   4   2    1.39    1.12
   4   4   3  168.45   14.11
   4  -4  -3  243.66   22.54
   4  -4  -3  188.14   15.10
  -4  -4  -3  206.00   16.21
   4   4   3  180.88   14.34
   4   4   4   85.80   12.45
   4  -4  -4  158.92   15.06
   4  -4  -4   96.38   13.33
  -4  -4  -4  132.50   17.76
   4   4   4  111.74   15.17
   4   4   5  211.69   17.03
   4  -4  -5  236.75   20.68
   4  -4  -5  206.88   16.66
  -4  -4  -5  236.16   18.32
   4   4   6  167.17   13.95
   4  -4  -6  201.72   18.24
   4  -4  -6  190.24   15.55
  -4  -4  -6  184.41   14.78
   4   4   7  386.26   29.36
   4  -4  -7  456.17   36.22
   4  -4  -7  396.40   38.43
  -4  -4  -7  430.99   32.44
   4   4   8   76.48   12.38
   4  -4  -8  145.63   14.72
   4  -4  -8   99.85   19.30
  -4  -4  -8  102.77   16.35
   4   4   9   25.07    4.81
   4  -4  -9   16.99    7.11
   4  -4  -9   26.20    6.49
  -4  -4  -9   32.48    6.17
   4   4  10  206.56   12.27
   4  -4 -10  222.83   15.83
   4  -4 -10  178.72   22.63
  -4  -4 -10  227.51   13.65
   4   4  11    5.38    1.83
   4  -4 -11    6.26    4.53
   4  -4 -11    1.57    2.43
  -4  -4 -11    3.24    2.05
   4  -4 -12   59.36    8.62
   4  -4 -12   75.01   11.64
  -4  -4 -12   62.05    6.36
   4  -4 -13   75.38   11.63
   4  -4 -13   77.54   13.69
  -4  -4 -13   58.99    8.28
   4  -4 -14   16.47    7.80
   4  -4 -14   17.28    7.19
  -4  -4 -14   22.34    7.85
   4  -4 -15   36.36   10.72
   4  -4 -15   56.97   16.21
  -4  -4 -15   25.37    5.67
   4  -4 -16   38.67   12.30
   4  -4 -16   40.09   14.72
  -4  -4 -16   41.76   13.52
   4  -4 -17   68.28   12.73
   4  -4 -17   85.85   21.11
   4  -4 -18   36.98   11.79
   4  -4 -18   47.33   10.03
   4  -4 -19   53.61   11.53
   4  -4 -19   51.67   12.89
   4  -4 -20   23.61    9.67
   4  -4 -20   32.85   14.18
   4  -4 -21   49.53   11.32
   4  -4 -21   51.48   15.83
   5   4 -18   73.89   15.84
   5  -4  18   20.73    7.08
  -5  -4  18   56.08   12.17
   5   4 -17   58.35   10.20
   5  -4  17   38.01   13.90
  -5  -4  17   84.48   12.85
   5   4 -16   61.49   13.85
   5  -4  16   58.48   12.13
  -5  -4  16   68.22   14.66
   5   4 -15   67.08   11.00
   5  -4  15   26.56    9.03
  -5  -4  15   56.72    9.61
   5   4 -14   66.39   11.36
   5  -4  14   45.28    8.01
  -5  -4  14   54.30    8.84
   5   4 -13    9.00    4.77
   5  -4  13    6.79    4.76
  -5  -4  13   18.26    8.41
   5   4 -12   45.10   14.59
   5  -4  12   38.63   12.46
  -5  -4  12   71.65   17.60
   5   4 -11    7.83    4.44
   5  -4  11    7.67    4.04
  -5  -4  11    6.52    4.26
   5   4 -10   34.68   10.14
   5  -4  10   31.73    9.53
  -5  -4  10   56.48   15.28
   5   4  -9   40.11   14.00
   5  -4   9   61.59    9.15
  -5  -4   9   53.00    6.82
   5   4  -8   79.46   12.11
   5  -4   8   71.10   10.57
  -5  -4   8  112.79   14.58
   5   4  -7  100.57   13.20
   5  -4   7   96.74   13.07
  -5  -4   7  122.77   15.04
   5   4  -6   24.70   10.86
   5  -4   6   20.77    9.58
  -5  -4   6    8.12    4.32
   5   4  -5   66.44    8.23
   5  -4   5   48.18    5.75
  -5  -4   5   44.18    4.29
   5   4  -4   26.22    6.21
   5  -4   4   14.61    5.46
  -5  -4   4   11.08    3.19
   5   4  -3  222.10   18.45
   5  -4   3  241.61   20.18
  -5  -4   3  274.15   20.90
   5   4  -2  145.98   13.12
   5  -4   2  133.52   13.07
  -5  -4   2  145.21   11.85
   5   4  -1  154.46   11.45
   5  -4   1  176.38   13.79
  -5  -4   1  184.06   11.56
   5   4   0  206.64   14.24
   5  -4   0  229.85   16.79
  -5  -4   0  236.54   13.95
   5   4   1  168.79   12.11
   5  -4  -1  164.98   13.01
   5  -4  -1  153.37   18.63
  -5  -4  -1  179.83   10.80
   5   4   2  131.01   11.85
   5  -4  -2  150.95   14.32
   5  -4  -2  139.80   17.65
   5   4   3  247.48   19.65
   5  -4  -3  340.34   28.13
   5  -4  -3  219.60   22.06
   5   4   4   11.60    3.48
   5  -4  -4   16.03    5.59
   5  -4  -4   17.17    2.75
  -5  -4  -4   11.71    2.19
   5   4   5   60.34    7.00
   5  -4  -5   47.20    7.32
   5  -4  -5   58.35    8.02
   5   4   6    4.92    3.41
   5  -4  -6    6.73    5.21
   5  -4  -6   12.09    5.30
   5   4   7  110.84   13.63
   5  -4  -7  119.73   16.58
   5  -4  -7  101.76   15.55
   5   4   8   81.48   10.49
   5  -4  -8   77.14   13.05
   5  -4  -8   91.67   14.62
   5   4   9   36.63   12.14
   5  -4  -9   58.24    8.92
   5  -4  -9   57.65    9.37
   5  -4 -10   61.59   17.23
   5  -4 -10   43.23   11.80
   5  -4 -11    6.18    7.43
   5  -4 -11    1.75    1.67
   5  -4 -12   54.97   14.58
   5  -4 -12   55.74   15.46
   5  -4 -13   14.27    8.31
   5  -4 -13   14.80    4.58
   5  -4 -14   64.05   11.53
   5  -4 -14   43.54   13.92
   5  -4 -15   56.27   10.17
   5  -4 -15   54.96   11.92
   5  -4 -16   83.63   17.11
   5  -4 -16   53.74   14.11
   5  -4 -17   53.21    9.34
   5  -4 -17   45.15   10.52
   5  -4 -18   36.84    9.08
   5  -4 -18   36.38   13.44
   6   4 -13    9.71    4.84
   6  -4  13   16.23    6.21
  -6  -4  13   12.05    4.71
   6   4 -12   15.12    4.73
   6  -4  12   21.58    9.69
  -6  -4  12   30.22   11.52
   6   4 -11   71.10   11.04
   6  -4  11   72.69   12.01
  -6  -4  11   51.34    7.83
   6   4 -10   52.25   11.48
   6  -4  10   54.31   11.90
  -6  -4  10   57.04   11.52
   6   4  -9   62.95    9.74
   6  -4   9   53.74    8.62
   6   4  -8    8.68    4.58
   6  -4   8   32.71   10.96
   6   4  -7    6.39    3.89
   6  -4   7   20.81    8.18
   6   4  -6   81.45   15.30
   6  -4   6   83.82   16.18
   6   4  -5   34.16   12.25
   6  -4   5   30.19   11.61
   6   4  -4   38.95   12.86
   6  -4   4   21.61    8.09
   6   4  -3   66.89   16.75
   6  -4   3   92.90   22.31
   6   4  -2   27.21    9.37
   6  -4   2   58.72   15.28
   6   4  -1   16.39    5.19
   6  -4   1    9.87    5.09
   6   4   0    2.45    3.38
   6  -4   0   39.32   14.16
   6   4   1   11.20    4.37
   6  -4  -1   24.46    9.82
   6   4   2   27.73    9.59
   6  -4  -2   29.50   10.44
   6   4   3   95.38   22.76
   6  -4  -3   96.86   23.72
   6   4   4    8.49    3.64
   6  -4  -4   38.36   13.50
   6   4   5   40.84   13.61
   6  -4  -5   32.58   13.77
   6   4   6   71.26   12.97
   6  -4  -6   84.72   16.67
   6   4   7    4.61    2.72
   6  -4  -7    9.58    7.66
   6  -4  -8   19.54   10.59
   6  -4  -9   55.07   10.83
   6  -4 -10   69.95   15.28
   6  -4 -11   84.20   14.32
   6  -4 -12   43.23   10.46
   6  -4 -13   20.12    9.39
   7   4  -4   89.02   18.04
   7  -4   4   57.17   12.75
   7   4  -3    7.94    4.16
   7  -4   3   29.94   10.46
   7   4  -2   50.98   11.26
   7  -4   2   36.10   12.85
   7   4  -1   68.84   14.40
   7  -4   1   44.64   10.52
   7   4   0    4.77    3.62
   7  -4   0    2.59    3.99
   7   4   1   67.95   14.08
   7  -4  -1   62.80   13.26
   7   4   2   56.85   12.46
   7  -4  -2   65.29   15.10
   7   4   3    3.62    3.11
   7  -4  -3    8.92    4.82
   7   4   4   60.87   12.35
   7  -4  -4   77.06   15.71
   0   5 -24    6.98    5.93
   0   5 -23   12.88    4.02
   0   5 -22   16.43    5.09
   0   5 -21   22.57    8.73
   0   5 -20   85.90   15.30
   0   5 -19    4.56    3.35
   0   5 -18   45.14   18.05
   0  -5  18   42.75   16.77
   0   5 -17  201.40   20.04
   0  -5  17  179.71   15.84
   0   5 -16   98.52   16.66
   0  -5  16  115.73   15.14
   0   5 -15   77.01   16.66
   0  -5  15   73.39   13.05
   0   5 -14  160.91   21.03
   0  -5  14  141.59   19.83
   0   5 -13   26.27    6.20
   0  -5  13   41.60    7.27
   0   5 -12 1245.08   76.82
   0  -5  12 1136.85   70.64
   0   5 -11 1041.43   70.49
   0  -5  11  920.24   62.72
   0   5 -10   78.82   16.32
   0  -5  10   74.98   11.31
   0   5  -9   48.48    9.03
   0  -5   9   64.13    9.43
   0   5  -8 1044.12   63.04
   0  -5   8  943.79   53.35
   0   5  -7  289.53   19.17
   0  -5   7  274.94   16.42
   0   5  -6    5.61    3.11
   0  -5   6   20.77    5.54
   0   5  -5   69.64   11.77
   0  -5   5   46.08    5.93
   0   5  -4  567.27   29.92
   0  -5   4  520.77   27.53
   0   5  -3  208.47   24.79
   0  -5   3  173.96    8.52
   0   5  -2  552.82   18.12
   0  -5   2  525.18   15.78
   0   5  -1  455.37   14.58
   0  -5   1  335.47   11.61
   0   5   0    2.55    3.09
   0  -5   0    0.58    1.39
   0  -5   0    4.23    3.83
   0   5   1  422.23   13.31
   0  -5  -1  367.60   11.40
   0  -5  -1  352.62   11.96
   0   5   2  655.67   18.66
   0  -5  -2  599.91   16.96
   0  -5  -2  553.32   16.80
   0   5   3  189.98   10.94
   0  -5  -3  175.10   10.07
   0  -5  -3  141.77    7.16
   0  -5  -4  614.55   31.95
   0  -5  -4  675.13   35.41
   0  -5  -5   73.70   10.81
   0  -5  -5   78.52    8.78
   0  -5  -6    7.43    1.84
   0  -5  -6    5.45    3.99
   0  -5  -7  324.74   17.84
   0  -5  -7  324.56   18.68
   0  -5  -8 1103.98   61.35
   0  -5  -8 1008.00   55.21
   0  -5  -8 1094.03   61.46
   0  -5  -9   71.36   11.44
   0  -5  -9   66.47    8.52
   0  -5  -9   66.17    9.85
   0  -5 -10   81.78   12.62
   0  -5 -10   75.70    9.71
   0  -5 -10   91.30   12.93
   0  -5 -11 1067.27   70.84
   0  -5 -11 1021.71   67.80
   0  -5 -11 1062.88   72.09
   0  -5 -12 1270.74   77.27
   0  -5 -12 1247.13   75.23
   0  -5 -12 1303.38  168.07
   0  -5 -13   30.67    4.15
   0  -5 -13   24.94    5.83
   0  -5 -14  138.36   18.00
   0  -5 -14  119.84   17.30
   0  -5 -15   65.72   12.19
   0  -5 -16  125.46   17.54
   0  -5 -17  191.58   17.64
   0  -5 -18   33.91   13.87
   0  -5 -19    9.47    5.35
   0  -5 -20  104.91   16.51
   0  -5 -21   52.91   15.10
   0  -5 -22   16.08    6.87
   0  -5 -23   19.49    6.37
   0  -5 -24   24.99   10.07
  -1   5 -24    4.48    2.63
   1   5 -24    1.07    2.96
   1  -5  24   11.71    6.20
  -1  -5  24   12.75    5.75
  -1   5 -23   18.61    5.09
   1   5 -23    5.85    2.51
   1  -5  23   11.85    4.24
  -1  -5  23    7.24    3.80
  -1   5 -22   19.78    7.05
   1   5 -22   27.01    8.95
   1  -5  22   36.28   12.09
  -1  -5  22    8.59    4.05
  -1   5 -21   20.44    7.58
   1   5 -21   47.03   16.80
   1  -5  21   29.41   11.07
  -1  -5  21    0.96    3.14
  -1   5 -20   55.47   16.24
   1   5 -20   60.18   17.17
   1  -5  20   53.43   14.69
  -1  -5  20    4.79    3.60
  -1   5 -19   15.60    7.35
   1   5 -19   17.84    7.86
   1  -5  19    4.28    5.03
  -1  -5  19    5.49    3.64
  -1   5 -18   15.30    7.35
   1   5 -18   20.07   10.12
   1  -5  18   11.68    6.20
  -1  -5  18    9.72    6.26
  -1   5 -17  106.50   16.32
   1   5 -17   82.91   13.76
   1  -5  17   82.68    8.73
  -1   5 -16  190.22   19.14
   1   5 -16  170.38   20.90
   1  -5  16  135.25   10.41
  -1  -5  16  158.67   12.97
  -1   5 -15  206.62   29.60
   1   5 -15  217.44   32.02
   1  -5  15  160.27   13.55
  -1  -5  15  174.56   15.15
  -1   5 -14  632.72   47.91
   1   5 -14  720.38   57.23
   1  -5  14  674.03   51.03
  -1  -5  14  698.12   53.10
  -1   5 -13  219.77   31.01
   1   5 -13  205.79   27.41
   1  -5  13  180.69   15.54
  -1  -5  13  188.41   16.61
  -1   5 -12  450.09   32.48
   1   5 -12  463.62   30.71
   1  -5  12  382.27   25.47
  -1  -5  12  411.37   27.68
  -1   5 -11   15.71    5.97
   1   5 -11   -1.47    4.18
   1  -5  11    4.92    3.09
  -1  -5  11    5.19    4.12
  -1   5 -10  859.22   58.80
   1   5 -10  818.17   56.06
   1  -5  10  692.24   47.43
  -1  -5  10  672.44   46.66
  -1   5  -9  226.34   26.54
   1   5  -9  139.99   18.68
   1  -5   9  142.52   18.39
  -1  -5   9  140.07   18.55
  -1   5  -8  362.71   22.33
   1   5  -8  253.46   16.18
   1  -5   8  275.91   17.20
  -1  -5   8  336.51   21.22
  -1   5  -7  327.51   22.58
   1   5  -7  292.14   18.10
   1  -5   7  300.21   18.45
  -1  -5   7  337.95   20.90
  -1   5  -6  471.84   25.76
   1   5  -6  345.35   20.36
   1  -5   6  363.26   19.99
  -1  -5   6  391.70   21.83
  -1   5  -5   42.57    7.51
   1   5  -5   34.05    6.26
   1  -5   5   28.82    4.44
  -1  -5   5   40.33    6.07
  -1   5  -4  396.12   21.67
   1   5  -4  405.86   33.28
   1  -5   4  356.19   19.56
  -1  -5   4  447.83   24.52
  -1   5  -3  618.16   32.45
   1   5  -3  697.28   36.23
   1  -5   3  676.43   35.11
  -1  -5   3  744.36   38.67
  -1   5  -2  293.95   27.76
   1   5  -2  274.76   24.35
   1  -5   2  217.66   19.72
  -1  -5   2  268.10   15.71
  -1   5  -1   27.63    4.76
  -1  -5   1   22.31    3.19
   1  -5   1   22.76    4.31
  -1  -5   1   38.94    5.81
   1   5   0  207.78   15.44
  -1  -5   0  169.11    6.63
   1  -5   0  165.31    7.88
  -1  -5   0  187.29    9.00
   1   5   1   40.32    7.22
  -1  -5  -1   27.18    3.41
   1  -5  -1   26.56    4.61
  -1  -5  -1   32.10    5.30
   1   5   2  267.84   35.40
  -1  -5  -2  236.75   20.61
   1  -5  -2  268.77   15.84
  -1  -5  -2  284.63   16.40
   1   5   3  745.80   37.88
  -1  -5  -3  665.07   33.56
   1  -5  -3  677.97   35.64
  -1  -5  -3  763.35   39.72
   1  -5  -4  364.67   22.36
   1   5   4  435.72   24.04
  -1  -5  -4  433.30   22.33
   1  -5  -4  419.08   23.53
  -1  -5  -4  434.57   23.93
   1  -5  -5   34.61    5.16
   1   5   5   47.25    7.37
  -1  -5  -5   32.60    3.78
   1  -5  -5   42.96    6.78
  -1  -5  -5   25.00    4.66
   1  -5  -6  407.61   21.58
   1   5   6  397.36   20.71
  -1  -5  -6  389.30   19.93
   1  -5  -6  365.90   20.73
  -1  -5  -6  429.78   23.87
   1  -5  -7  312.58   21.27
  -1  -5  -7  321.55   18.07
   1  -5  -7  308.99   18.40
   1  -5  -7  319.16   19.86
  -1  -5  -7  356.05   22.10
   1  -5  -8  314.34   18.36
   1  -5  -8  323.61   19.14
   1  -5  -8  293.13   18.80
  -1  -5  -8  339.78   21.17
   1  -5  -9  162.58   20.52
  -1  -5  -9  126.15   15.23
   1  -5  -9  151.25   19.77
  -1  -5  -9  162.56   21.09
   1  -5 -10  750.78   50.65
   1  -5 -10  712.00   49.25
  -1  -5 -10  780.99   53.59
   1  -5 -11    8.67    3.27
   1  -5 -11   15.34    6.36
  -1  -5 -11   28.05    6.49
   1  -5 -12  414.50   26.32
   1  -5 -12  365.87   25.12
  -1  -5 -12  405.72   27.53
   1  -5 -13  186.94   14.85
   1  -5 -13  173.04   15.58
  -1  -5 -13  197.89   17.07
   1  -5 -14  753.58   55.74
   1  -5 -14  646.64   49.19
  -1  -5 -14  762.95   57.73
   1  -5 -15  199.43   14.67
   1  -5 -15  155.53   13.25
  -1  -5 -15  172.39   14.53
   1  -5 -16  157.35    9.85
   1  -5 -16  127.40   16.24
  -1  -5 -16  159.31   12.48
   1  -5 -17  105.33   11.69
  -1  -5 -17   75.25    8.87
   1  -5 -18   10.80    5.57
  -1  -5 -18   21.46   10.01
  -1  -5 -19   11.23    5.96
   1  -5 -19    9.87    6.76
   1  -5 -20   73.76   20.95
  -1  -5 -20   71.00   19.36
  -1  -5 -21   30.61   12.48
   1  -5 -21   31.95   11.90
   1  -5 -22   28.25   10.48
  -1  -5 -22   20.15    7.77
  -1  -5 -23   20.85    7.30
   1  -5 -23    3.04    4.40
  -1  -5 -24    5.37    4.00
   1  -5 -24    9.61    4.23
  -2   5 -23   22.46    7.58
   2   5 -23   15.46    8.04
   2  -5  23   23.08    7.78
  -2  -5  23   -2.19    3.36
  -2   5 -22   73.60   14.69
   2   5 -22   71.55   19.35
   2  -5  22   70.04   14.27
  -2  -5  22    8.65    5.97
  -2   5 -21   45.09    8.15
   2   5 -21   55.66   15.12
   2  -5  21   59.52    8.99
  -2  -5  21    1.20    3.94
  -2   5 -20   67.47   15.46
   2   5 -20   66.71   14.93
   2  -5  20   63.46   12.00
  -2  -5  20    8.17    4.89
  -2   5 -19  112.19   20.90
  -2  -5  19    6.47    4.34
  -2   5 -18   21.00    8.17
   2   5 -18   28.53   11.34
   2  -5  18    8.54    4.02
  -2   5 -17    4.81    2.98
   2   5 -17    7.51    5.38
   2  -5  17   16.96    7.29
  -2   5 -16   95.94   17.70
   2   5 -16  148.53   14.48
   2  -5  16  124.50   11.16
  -2  -5  16  169.43   16.82
  -2   5 -15   65.93   14.11
   2   5 -15   66.70    9.87
   2  -5  15   61.79    8.43
  -2  -5  15   67.19   10.46
  -2   5 -14   79.67   15.34
   2   5 -14   87.31   15.26
   2  -5  14   85.98   14.53
  -2  -5  14  107.27   18.29
  -2   5 -13  129.47   22.42
   2   5 -13  130.38   12.29
   2  -5  13   96.76   15.86
  -2  -5  13  165.04   14.51
  -2   5 -12  141.21   27.18
   2   5 -12  143.10   20.73
   2  -5  12  136.28   18.98
  -2  -5  12  167.00   16.23
  -2   5 -11  922.94   57.73
   2   5 -11  951.21   59.71
   2  -5  11  790.94   49.40
  -2  -5  11  925.03   58.19
  -2   5 -10   69.37   10.15
   2   5 -10   35.30    7.00
   2  -5  10   44.38    6.76
  -2  -5  10   26.67    5.70
  -2   5  -9  735.28   50.49
   2   5  -9  635.44   44.16
   2  -5   9  631.76   43.23
  -2  -5   9  714.55   49.37
   2   5  -8   46.21    8.31
   2  -5   8   41.69    6.34
  -2  -5   8   47.94    7.96
   2   5  -7   38.76    6.60
   2  -5   7   42.97    6.29
  -2  -5   7   50.20    8.36
   2   5  -6  203.37   13.69
   2  -5   6  215.05   13.57
  -2  -5   6  264.64   17.27
   2   5  -5  246.80   16.13
   2  -5   5  228.81   14.22
  -2  -5   5  262.86   17.01
   2   5  -4    5.14    3.49
   2  -5   4   10.88    3.99
  -2  -5   4   11.39    5.73
   2   5  -3  456.69   26.81
   2  -5   3  477.08   27.50
  -2  -5   3  584.10   33.80
   2   5  -2  142.89   18.21
   2  -5   2  148.27   18.68
  -2  -5   2  177.66   12.11
   2   5  -1  842.83   43.17
   2  -5   1  820.02   42.06
  -2  -5   1  937.72   48.00
   2   5   0   12.13    2.98
   2  -5   0   10.09    2.66
  -2  -5   0   17.25    4.66
   2   5   1  910.92   46.13
   2  -5  -1  819.94   42.09
  -2  -5  -1  944.56   48.20
   2   5   2  171.72   21.58
  -2  -5  -2  151.12   18.84
   2  -5  -2  159.29   20.10
  -2  -5  -2  190.30   13.18
   2   5   3  557.13   31.36
  -2  -5  -3  489.17   27.71
   2  -5  -3  514.54   30.00
  -2  -5  -3  549.19   31.62
   2   5   4    8.07    1.92
  -2  -5  -4    8.70    2.35
   2  -5  -4    8.26    3.30
  -2  -5  -4   18.29    6.47
   2   5   5  264.01   15.42
  -2  -5  -5  247.02   14.53
   2  -5  -5  261.03   16.59
   2  -5  -5  235.84   15.20
  -2  -5  -5  259.91   16.34
   2   5   6  249.45   16.10
  -2  -5  -6  230.81   13.61
   2  -5  -6  248.64   16.15
   2  -5  -6  249.01   15.99
  -2  -5  -6  256.82   16.83
   2   5   7   44.56    7.64
  -2  -5  -7   51.61    6.78
   2  -5  -7   56.17    8.57
   2  -5  -7   52.09    8.35
  -2  -5  -7   53.91    8.78
   2   5   8   38.35    6.89
   2  -5  -8   46.16    8.20
   2  -5  -8   28.45    5.25
  -2  -5  -8   45.97    7.58
   2  -5  -9  730.60   50.17
   2  -5  -9  633.02   43.89
  -2  -5  -9  713.08   48.92
   2  -5 -10   66.07    9.58
   2  -5 -10   48.93    7.83
  -2  -5 -10   49.64    7.69
   2  -5 -11  903.33   56.28
   2  -5 -11  749.88   47.56
  -2  -5 -11  836.12   52.33
   2  -5 -12  123.85   17.23
   2  -5 -12  133.55   18.84
  -2  -5 -12  124.05   17.65
   2  -5 -13  113.47   10.28
   2  -5 -13  106.60   17.65
  -2  -5 -13  118.29   10.67
   2  -5 -14   75.95   13.01
   2  -5 -14   89.62   15.06
  -2  -5 -14   89.75   15.14
   2  -5 -15   61.01    8.51
   2  -5 -15   65.33   10.70
  -2  -5 -15   57.98    8.92
   2  -5 -16  140.82   12.24
   2  -5 -16  102.64   12.37
  -2  -5 -16  141.14   13.44
   2  -5 -17    6.21    4.60
   2  -5 -17    8.14    4.87
  -2  -5 -17   11.07    6.90
   2  -5 -18   21.77    8.41
  -2  -5 -18   17.84    7.62
   2  -5 -19  136.69   11.96
   2  -5 -19  185.03   25.55
  -2  -5 -19  154.13   18.98
   2  -5 -20   60.18   12.64
  -2  -5 -20   78.16   15.78
   2  -5 -21   60.48   12.75
  -2  -5 -21   65.38   12.97
  -2  -5 -22   67.10   17.89
   2  -5 -22   93.64   20.53
   2  -5 -23   31.87   10.91
  -2  -5 -23   21.98    9.26
   3   5 -22   14.34    6.68
  -3  -5  22   12.21    8.43
   3   5 -21  148.99   20.34
   3  -5  21  102.16   13.39
  -3  -5  21  131.84   18.21
   3   5 -20    4.08    4.24
   3  -5  20   11.21    3.68
  -3  -5  20   26.09   10.72
   3   5 -19    9.69    5.00
   3  -5  19    2.08    2.24
  -3  -5  19   16.40    7.94
   3   5 -18   17.73    7.42
   3  -5  18    8.94    3.88
  -3  -5  18   12.21    5.67
   3   5 -17  175.23   16.21
   3  -5  17  170.44   14.45
  -3  -5  17  218.54   19.64
   3   5 -16   22.31    8.89
   3  -5  16   18.58    6.89
  -3  -5  16   21.40   10.40
   3   5 -15   41.47   16.45
   3  -5  15   48.13   18.16
  -3  -5  15   75.35   12.88
   3  -5  14   10.48    2.88
  -3  -5  14   16.18    5.37
   3   5 -13  169.32   13.36
   3  -5  13  142.20    9.77
  -3  -5  13  185.21   14.37
   3   5 -12  121.68   15.91
   3  -5  12   95.62   11.87
  -3  -5  12  133.26   11.23
   3   5 -11   27.09    7.67
   3  -5  11   28.11    5.91
  -3  -5  11   26.57    7.72
   3   5 -10   52.14    8.83
   3  -5  10   46.75    7.22
  -3  -5  10   63.49   10.20
   3   5  -9   65.51   10.75
   3  -5   9   51.35    7.74
  -3  -5   9   75.38   11.37
   3   5  -8   66.41   10.20
   3  -5   8   59.74    8.62
  -3  -5   8   78.81   12.24
   3   5  -7   74.82   11.05
   3  -5   7   42.61    5.99
  -3  -5   7   58.82    9.95
   3   5  -6  115.34   15.42
   3  -5   6  105.89   13.45
  -3  -5   6  159.26   12.35
   3   5  -5    6.57    4.58
   3  -5   5    3.36    2.35
  -3  -5   5    8.52    4.85
   3   5  -4   62.29    9.07
   3  -5   4   78.87   10.73
  -3  -5   4   67.37   10.01
   3   5  -3 1185.96   79.93
   3  -5   3 1394.57   92.96
  -3  -5   3 1337.54   89.68
   3   5  -2  167.19   13.45
   3  -5   2  217.24   15.81
  -3  -5   2  209.68   16.59
   3   5  -1  568.73   39.35
   3  -5   1  609.20   41.48
  -3  -5   1  639.19   43.84
   3   5   0  215.29   16.31
   3  -5   0  249.58   17.92
  -3  -5   0  236.16   17.62
   3   5   1  557.07   38.23
   3  -5  -1  636.30   44.30
   3  -5  -1  574.35   39.31
  -3  -5  -1  592.63   40.65
   3   5   2  151.06   11.92
   3  -5  -2  197.43   15.71
   3  -5  -2  187.90   14.11
  -3  -5  -2  179.31   13.79
   3   5   3 1212.11   81.06
   3  -5  -3 1328.81   89.73
   3  -5  -3 1184.53   79.41
  -3  -5  -3 1308.46   87.58
   3   5   4   64.04    8.99
   3  -5  -4   68.52   10.78
   3  -5  -4   89.42   11.74
  -3  -5  -4   81.62   11.32
   3   5   5   10.49    3.41
  -3  -5  -5    3.92    1.79
   3  -5  -5    4.56    4.63
   3  -5  -5   10.14    3.91
  -3  -5  -5    6.86    3.11
   3   5   6  120.47    8.67
  -3  -5  -6  113.80   14.26
   3  -5  -6  158.92   13.31
   3  -5  -6  113.45   14.77
  -3  -5  -6  120.37    9.74
   3   5   7   79.09   10.20
  -3  -5  -7   56.40    7.67
   3  -5  -7   66.71   10.24
   3  -5  -7   55.23    8.20
  -3  -5  -7   82.10   11.20
   3   5   8   68.79    9.37
   3  -5  -8   76.43   12.73
  -3  -5  -8   55.07    7.59
   3  -5  -8   70.09   10.25
  -3  -5  -8   83.95   12.19
   3   5   9   58.80    8.07
   3  -5  -9   66.44   10.60
   3  -5  -9   52.42    8.49
  -3  -5  -9   59.73    9.50
   3   5  10   40.54    7.59
   3  -5 -10   66.23   10.65
   3  -5 -10   51.93    8.31
  -3  -5 -10   42.01    6.82
   3  -5 -11   36.18    8.71
   3  -5 -11   20.90    5.22
  -3  -5 -11   17.41    4.13
   3  -5 -12  106.60   14.22
   3  -5 -12   93.57   12.25
  -3  -5 -12  102.66   12.99
   3  -5 -13  162.78   12.05
   3  -5 -13  127.53   15.91
  -3  -5 -13  160.05   11.64
   3  -5 -14   12.41    5.64
  -3  -5 -14    6.17    3.04
   3  -5 -15   52.52   17.84
   3  -5 -15   59.79   12.61
  -3  -5 -15   56.08    8.49
   3  -5 -16   17.59    7.38
   3  -5 -16   22.66    8.95
  -3  -5 -16   23.99    9.59
   3  -5 -17  191.71   16.69
   3  -5 -17  182.98   22.50
  -3  -5 -17  164.18   14.53
   3  -5 -18   16.75    5.64
   3  -5 -18   17.11    4.92
  -3  -5 -18   11.88    4.16
   3  -5 -19   13.31    5.00
   3  -5 -19   18.07    7.13
  -3  -5 -19   14.14    4.98
   3  -5 -20    4.61    3.14
   3  -5 -20   19.46    6.74
  -3  -5 -20    8.01    4.45
   3  -5 -21   74.66   13.90
  -3  -5 -21   76.45   15.97
   3  -5 -22    8.57    4.65
  -3  -5 -22    0.72    2.58
   4   5 -20   13.61    6.21
  -4  -5  20   15.99    8.23
   4   5 -19  184.84   23.35
  -4  -5  19  211.06   42.91
   4   5 -18   24.11    9.53
  -4  -5  18   20.73    7.88
   4   5 -17    9.79    5.67
  -4  -5  17   10.14    4.50
   4   5 -16   21.22    8.18
  -4  -5  16   14.67    5.51
   4   5 -15   80.66   20.05
  -4  -5  15   71.55   18.21
   4   5 -14   40.91   12.43
  -4  -5  14   38.70   11.87
   4   5 -13   14.91    7.00
  -4  -5  13   32.50   12.72
   4   5 -12   59.41    8.78
   4  -5  12   62.02    7.86
  -4  -5  12  105.68   13.97
   4   5 -11   11.26    6.01
   4  -5  11   10.99    4.52
  -4  -5  11   18.16    8.30
   4   5 -10   56.04    7.88
   4  -5  10   38.01    3.43
  -4  -5  10   58.32    7.22
   4   5  -9   69.60   10.64
   4  -5   9   63.68    8.02
  -4  -5   9   56.75    8.49
   4   5  -8   25.24    4.92
   4  -5   8   37.08    5.25
  -4  -5   8   40.97    7.48
   4   5  -7  108.25   13.98
   4  -5   7  130.09    8.31
  -4  -5   7  138.13   11.23
   4   5  -6  108.50   14.19
   4  -5   6  129.29   10.03
  -4  -5   6  126.46   10.96
   4   5  -5  120.53   11.42
   4  -5   5  136.82   10.40
  -4  -5   5  123.01   10.51
   4   5  -4  439.85   31.60
   4  -5   4  518.31   35.21
  -4  -5   4  502.69   34.92
   4   5  -3  419.11   32.71
   4  -5   3  404.23   31.81
   4  -5   3  502.14   37.43
  -4  -5   3  509.11   38.67
   4   5  -2  317.80   25.36
   4  -5   2  291.23   23.79
  -4  -5   2  319.34   24.94
   4   5  -1  403.93   31.49
   4  -5   1  364.41   29.74
  -4  -5   1  441.87   33.76
   4   5   0   44.27    7.64
   4  -5   0   46.37    8.67
   4  -5   0   52.46    7.69
  -4  -5   0   64.12    9.69
   4   5   1  387.44   30.21
   4  -5  -1  456.29   36.25
   4  -5  -1  401.68   30.40
  -4  -5  -1  410.72   31.39
   4   5   2  293.26   23.29
   4  -5  -2  365.74   29.86
   4  -5  -2  299.86   23.06
  -4  -5  -2  352.06   27.25
   4   5   3  409.08   31.41
   4  -5  -3  537.25   41.98
   4  -5  -3  422.01   32.00
  -4  -5  -3  482.89   36.44
   4   5   4  448.26   31.23
   4  -5  -4  560.35   40.36
   4  -5  -4  453.58   31.47
  -4  -5  -4  508.45   35.03
   4   5   5  104.82   16.75
   4  -5  -5  143.92   14.29
   4  -5  -5  123.83   10.30
  -4  -5  -5  131.41   10.60
   4   5   6  107.38   17.06
   4  -5  -6  146.85   14.29
   4  -5  -6  113.42    9.96
  -4  -5  -6  110.55    9.31
   4   5   7  102.30   12.22
   4  -5  -7  135.27   11.63
   4  -5  -7  132.11    9.69
  -4  -5  -7  140.97    9.42
   4   5   8   20.60    3.57
   4  -5  -8   54.72    9.35
   4  -5  -8   16.56    3.40
  -4  -5  -8   40.19    6.09
   4   5   9   63.70    6.12
   4  -5  -9   56.49   10.06
   4  -5  -9   47.56    4.42
  -4  -5  -9   44.06    6.49
   4  -5 -10   67.63    9.58
   4  -5 -10   60.98    7.18
  -4  -5 -10   50.49    4.69
   4  -5 -11   14.14    8.51
   4  -5 -11   13.66    6.05
  -4  -5 -11   21.59    8.81
   4  -5 -12   74.53   12.54
   4  -5 -12   60.87   11.02
  -4  -5 -12   81.13   10.56
   4  -5 -13   13.10    7.11
   4  -5 -13   14.74    5.86
  -4  -5 -13   13.23    6.02
   4  -5 -14   40.06   11.39
   4  -5 -14   32.24   10.03
  -4  -5 -14   25.02    5.94
   4  -5 -15   68.09   16.83
   4  -5 -15   53.29   14.45
  -4  -5 -15   58.48   13.98
   4  -5 -16   29.26   10.68
   4  -5 -16   35.33   12.46
  -4  -5 -16   19.36    6.73
   4  -5 -17   16.48    7.06
   4  -5 -18   26.36    9.26
   4  -5 -18   14.83    4.73
   4  -5 -19  169.22   20.74
   4  -5 -19  136.24   25.77
   4  -5 -20    7.37    3.68
   4  -5 -20    8.79    4.82
  -5  -5  17   62.61   20.50
   5   5 -16   43.15   10.89
  -5  -5  16   82.86   16.90
   5   5 -15    3.76    5.41
  -5  -5  15   27.12   10.81
   5   5 -14   62.42   14.10
   5  -5  14   76.90   15.52
  -5  -5  14  120.31   23.13
   5   5 -13   39.98   13.26
   5  -5  13   37.32   12.19
  -5  -5  13   35.03   11.08
   5   5 -12    5.83    3.97
   5  -5  12    6.57    3.84
   5   5 -11   22.60    8.51
   5  -5  11    6.34    4.15
  -5  -5  11   20.74    8.04
   5   5 -10  125.27   29.62
   5  -5  10   79.59   19.03
  -5  -5  10  117.20   27.36
   5   5  -9   32.15    9.40
   5  -5   9   65.45   17.38
  -5  -5   9   56.97   14.86
   5   5  -8   84.52   10.12
   5  -5   8  109.91   12.24
  -5  -5   8   64.37   16.91
   5   5  -7   11.07    5.24
   5  -5   7   14.70    7.30
  -5  -5   7    7.26    3.92
   5   5  -6   30.13   11.02
   5  -5   6   39.82   14.00
  -5  -5   6   45.92   15.36
   5   5  -5   17.31    7.77
   5  -5   5   37.88   14.80
  -5  -5   5   38.49   14.82
   5   5  -4  216.73   26.14
   5  -5   4  211.38   25.31
  -5  -5   4  247.10   28.37
   5   5  -3  246.19   29.01
   5  -5   3  189.79   23.06
  -5  -5   3  237.43   27.20
   5   5  -2   35.19   14.38
   5  -5   2   39.07   16.11
  -5  -5   2   43.10   16.39
   5   5  -1   31.15   12.37
   5  -5   1   34.81   14.21
  -5  -5   1   21.35    8.38
   5   5   0    7.14    4.92
   5  -5   0    3.17    4.15
  -5  -5   0   14.45    6.70
   5   5   1   43.29   16.64
   5  -5  -1   45.07   17.73
   5  -5  -1   31.83   11.98
  -5  -5  -1   61.76    8.22
   5   5   2   40.09   15.41
   5  -5  -2   69.18   12.24
   5  -5  -2   41.00   15.41
  -5  -5  -2   46.15   17.41
   5   5   3  234.13   27.29
   5  -5  -3  272.70   33.51
   5  -5  -3  216.81   24.67
  -5  -5  -3  259.96   29.31
   5   5   4  273.02   31.31
   5  -5  -4  327.62  104.29
   5  -5  -4  246.22   31.62
  -5  -5  -4  262.73   29.60
   5   5   5   19.97    7.98
   5  -5  -5   46.03   18.66
   5  -5  -5   38.03   14.54
  -5  -5  -5   26.80   10.27
   5   5   6   37.08   12.38
   5  -5  -6   57.63    8.54
   5  -5  -6   34.05   12.81
   5   5   7    5.41    2.69
   5  -5  -7   23.29   11.32
   5  -5  -7   12.09    4.60
   5   5   8   71.36   18.00
   5  -5  -8  115.12   12.91
   5  -5  -8   92.69   10.35
   5  -5  -9   64.97   17.80
   5  -5  -9   37.69   10.64
   5  -5 -10  115.20   27.81
   5  -5 -10   70.25   20.23
   5  -5 -11   39.92   14.24
   5  -5 -11   21.05    7.70
   5  -5 -12    9.58    5.49
   5  -5 -12    8.70    4.40
   5  -5 -13   21.53    9.02
   5  -5 -13   27.47    8.63
   5  -5 -14  110.58   22.79
   5  -5 -14   74.08   18.77
   5  -5 -15   24.94   10.64
   5  -5 -15   10.91    3.81
   5  -5 -16   76.76   16.10
   5  -5 -16   56.78   15.14
   5  -5 -17   55.00   18.68
   5  -5 -17   47.70   16.31
   6   5 -12   49.85   11.45
   6  -5  12   47.12   10.36
  -6  -5  12   69.39   13.50
   6   5 -11   12.37    5.77
   6  -5  11   28.19    9.50
  -6  -5  11    4.23    3.70
   6   5 -10   11.39    4.29
   6  -5  10   12.45    4.68
   6   5  -9   11.02    4.66
   6  -5   9   20.55    9.31
   6   5  -8  116.49   22.38
   6  -5   8  101.95   19.86
   6   5  -7   48.88   11.32
   6  -5   7   18.98    6.23
   6   5  -6   66.23    9.67
   6  -5   6   77.67   11.36
   6   5  -5    7.96    4.74
   6  -5   5    3.67    4.16
   6   5  -4   39.95   13.42
   6  -5   4   23.48    8.60
   6   5  -3   56.93   11.55
   6  -5   3   51.91   11.53
   6   5  -2  102.62   18.36
   6  -5   2  108.13   19.45
   6   5  -1   18.10    7.70
   6  -5   1    8.43    3.64
   6   5   0   18.32    7.30
   6  -5   0   24.39   10.03
   6   5   1    6.29    4.10
   6  -5  -1   11.34    5.16
   6   5   2  102.69   17.99
   6  -5  -2  103.87   19.20
   6   5   3   44.72   14.78
   6  -5  -3   72.78   15.60
   6   5   4   20.97    7.18
   6  -5  -4   15.12    7.05
   6   5   5   12.06    4.47
   6  -5  -5    9.29    6.02
   6   5   6   63.30    8.63
   6  -5  -6  121.44   18.00
   6  -5  -7   30.43   12.35
   6  -5  -8  107.65   21.70
   6  -5  -9   31.83   13.58
   6  -5 -10    9.23    6.36
   6  -5 -11    9.74    8.10
   6  -5 -12   71.68   15.18
   0   6 -23   24.38    9.95
   0  -6  23   15.78    5.72
   0   6 -22    7.74    4.48
   0  -6  22    5.91    3.52
   0   6 -21    8.73    4.05
   0  -6  21   10.17    5.22
   0   6 -20   72.70   21.59
   0  -6  20   62.39   15.65
   0   6 -19   30.38    7.24
   0  -6  19   27.20    6.82
   0   6 -18  174.46   25.56
   0  -6  18  131.87   13.15
   0   6 -17  107.11   16.85
   0  -6  17   88.24   12.40
   0   6 -16   13.37    3.33
   0  -6  16   29.50    5.41
   0   6 -15  670.01   57.47
   0  -6  15  617.24   35.57
   0   6 -14    7.13    3.33
   0  -6  14    4.37    3.48
   0   6 -13  213.03   25.00
   0  -6  13  174.25   15.84
   0   6 -12  280.08   34.58
   0  -6  12  220.96   18.82
   0   6 -11  903.83   56.94
   0  -6  11  790.97   50.10
   0   6 -10 1128.44   70.35
   0  -6  10 1009.48   62.82
   0   6  -9  317.22   38.54
   0  -6   9  245.35   18.52
   0   6  -8   22.54    6.65
   0  -6   8   20.89    4.60
   0   6  -7   44.86    8.83
   0  -6   7   52.49    8.54
   0   6  -6   49.99    8.79
   0  -6   6   50.89    8.63
   0   6  -5   20.04    4.76
   0  -6   5   22.33    5.46
   0   6  -4  336.25   22.74
   0  -6   4  291.74   18.29
   0   6  -3   11.55    3.92
   0  -6   3   19.40    5.22
   0   6  -2  163.52   23.40
   0  -6   2  141.69   13.87
   0   6  -1  433.61   23.47
   0  -6   1  400.34   22.07
   0   6   0  229.78   24.09
   0  -6   0  206.34   19.04
   0   6   1  403.28   30.08
   0  -6  -1  395.07   21.93
   0   6   2  128.03   21.32
   0  -6  -2  125.08   12.27
   0   6   3   16.13    3.41
   0  -6  -3   15.89    3.04
   0  -6  -3    9.11    3.41
   0  -6  -4  325.06   19.41
   0  -6  -4  315.59   19.77
   0  -6  -5   30.58    5.69
   0  -6  -5   31.79    5.75
   0  -6  -6   40.83    7.58
   0  -6  -6   53.95    9.67
   0  -6  -7   48.77    8.18
   0  -6  -7   61.28    9.56
   0  -6  -8   30.91    5.27
   0  -6  -8   46.26    7.96
   0  -6  -9  261.07   21.83
   0  -6  -9  273.45   19.00
   0  -6  -9  285.41   21.40
   0  -6 -10 1071.61   65.14
   0  -6 -10 1001.93   60.90
   0  -6 -10 1212.61   75.38
   0  -6 -11  809.37   49.56
   0  -6 -11  770.99   47.01
   0  -6 -11  919.91   58.00
   0  -6 -12  239.97   18.15
   0  -6 -12  266.40   22.57
   0  -6 -13  168.15   12.86
   0  -6 -13  196.93   17.64
   0  -6 -14   20.26    7.46
   0  -6 -15  664.91   38.04
   0  -6 -16   28.51    7.21
   0  -6 -17   93.94   12.99
   0  -6 -18  162.83   16.05
   0  -6 -19   19.08    5.03
   0  -6 -20   76.05   19.22
   0  -6 -21   27.31   13.81
   0  -6 -22   12.77    6.37
   0  -6 -23   11.79    4.95
  -1   6 -23   10.44    4.74
   1   6 -23   19.08    8.46
  -1  -6  23   22.92    8.46
   1  -6  23    3.86    3.32
  -1   6 -22   45.76   11.98
   1   6 -22   35.54   11.82
  -1  -6  22   61.06   13.28
   1  -6  22   47.62   10.99
  -1   6 -21   78.07   16.24
   1   6 -21   91.89   19.20
  -1  -6  21   71.74   10.88
   1  -6  21   99.15   12.89
  -1   6 -20   44.43   20.15
   1   6 -20   32.55   13.23
   1  -6  20   40.92   14.16
  -1  -6  20   42.13   14.24
  -1   6 -19   17.56    5.37
   1   6 -19   24.04    8.46
   1  -6  19   16.82    5.85
  -1  -6  19   17.06    6.34
  -1   6 -18   75.65   10.35
   1   6 -18   69.40   10.67
   1  -6  18   52.79    7.42
  -1  -6  18   55.58    8.02
  -1   6 -17   25.71   11.16
   1   6 -17   38.28   16.45
   1  -6  17   19.97    8.33
  -1  -6  17    0.54    3.67
  -1   6 -16   31.01    6.28
   1   6 -16   33.33    6.15
   1  -6  16   31.83    6.31
  -1  -6  16   29.09    5.93
  -1   6 -15   89.44   18.52
   1   6 -15  110.82   18.20
   1  -6  15   93.57   12.29
  -1  -6  15   88.58   12.67
  -1   6 -14  134.21   22.31
   1   6 -14  141.53   22.30
   1  -6  14  136.82   11.02
  -1  -6  14  106.42   14.24
  -1   6 -13  427.79   45.54
   1   6 -13  452.78   61.59
   1  -6  13  393.40   28.90
  -1  -6  13  388.34   28.46
  -1   6 -12  529.87   57.04
   1   6 -12  645.84   64.31
   1  -6  12  467.85   36.17
  -1  -6  12  446.58   34.87
  -1   6 -11  390.97   38.95
   1   6 -11  391.08   44.93
   1  -6  11  309.02   24.62
  -1  -6  11  300.63   24.36
  -1   6 -10  444.77   39.67
   1   6 -10  379.11   35.85
   1  -6  10  337.82   22.87
  -1  -6  10  327.70   22.76
  -1   6  -9  410.49   43.94
   1   6  -9  296.90   33.64
   1  -6   9  330.02   22.46
  -1  -6   9  256.47   18.36
  -1   6  -8  540.83   38.19
   1   6  -8  487.14   34.52
   1  -6   8  495.14   34.68
  -1  -6   8  584.46   40.96
  -1   6  -7   96.09   17.07
   1   6  -7   73.55   13.01
   1  -6   7   72.01   10.09
  -1  -6   7   80.50   11.85
  -1   6  -6  189.18   18.29
   1   6  -6  173.64   21.32
   1  -6   6  150.16   19.28
  -1  -6   6  173.95   12.40
  -1   6  -5   73.41   12.99
   1   6  -5   55.72   11.10
   1  -6   5   46.00    7.06
  -1  -6   5   56.69    8.67
  -1   6  -4  215.64   29.14
   1   6  -4  211.85   22.94
   1  -6   4  188.14   12.62
  -1  -6   4  203.31   13.89
  -1   6  -3  272.79   34.85
   1   6  -3  256.92   26.46
   1  -6   3  240.95   15.47
  -1  -6   3  276.65   17.62
  -1   6  -2   71.42   13.49
   1   6  -2   83.24   14.37
   1  -6   2   85.98   11.88
  -1  -6   2   97.11   13.53
  -1   6  -1  197.67   13.71
   1   6  -1  183.70   14.40
   1  -6   1  206.51   13.90
  -1  -6   1  197.00   13.42
   1   6   0  165.12   26.44
   1  -6   0  129.84   17.04
  -1  -6   0  138.42   18.02
   1   6   1  206.69   21.38
   1  -6  -1  197.38   13.09
  -1  -6  -1  198.05   13.63
   1   6   2   71.23   12.59
  -1  -6  -2   61.14    8.01
   1  -6  -2   54.84    8.20
  -1  -6  -2   79.41   11.18
   1   6   3  298.40   23.08
  -1  -6  -3  235.65   14.02
   1  -6  -3  267.71   17.28
  -1  -6  -3  289.24   18.76
   1   6   4  221.97   22.17
  -1  -6  -4  190.45   11.66
   1  -6  -4  171.50   22.12
  -1  -6  -4  202.65   14.05
   1   6   5   58.98   10.97
  -1  -6  -5   43.12    6.01
   1  -6  -5   65.24    9.58
  -1  -6  -5   52.95    9.51
   1   6   6  164.58   21.14
  -1  -6  -6  157.29   19.43
   1  -6  -6  170.62   22.14
  -1  -6  -6  211.30   14.42
  -1  -6  -7   61.96    8.02
   1  -6  -7   75.65   11.61
  -1  -6  -7  105.25   10.48
  -1  -6  -8  489.79   32.90
   1  -6  -8  502.34   34.53
   1  -6  -8  514.53   36.52
  -1  -6  -8  545.90   38.39
  -1  -6  -9  345.01   21.26
   1  -6  -9  375.43   24.19
   1  -6  -9  382.14   26.06
  -1  -6  -9  385.39   25.95
   1  -6 -10  374.37   24.17
  -1  -6 -10  327.47   20.01
   1  -6 -10  329.14   22.79
  -1  -6 -10  406.52   27.29
   1  -6 -11  371.91   28.33
   1  -6 -11  333.64   26.76
  -1  -6 -11  341.59   27.47
   1  -6 -12  465.16   34.97
   1  -6 -12  480.18   37.56
  -1  -6 -12  546.38   42.32
   1  -6 -13  401.35   27.87
   1  -6 -13  393.31   28.93
  -1  -6 -13  421.11   31.07
   1  -6 -14  121.20   14.35
   1  -6 -14   98.22   13.28
  -1  -6 -14  111.90   14.83
   1  -6 -15   85.13   10.32
   1  -6 -15   98.09   13.36
  -1  -6 -15   96.06   12.93
   1  -6 -16   19.77    3.20
   1  -6 -16   17.27    6.65
   1  -6 -17   16.40    8.76
  -1  -6 -17   27.18   11.44
   1  -6 -18   69.40    8.78
  -1  -6 -18   83.19   11.07
  -1  -6 -19   33.16   11.74
   1  -6 -19   19.06    8.60
   1  -6 -20   72.37   15.94
  -1  -6 -20   35.35   12.64
  -1  -6 -21   91.39   15.83
   1  -6 -21   99.76   16.51
   1  -6 -22   54.22   13.95
  -1  -6 -22   49.75   16.71
  -1  -6 -23   10.09    4.77
   1  -6 -23   21.91    7.99
  -2   6 -22   82.75   16.00
   2   6 -22   44.14   12.37
   2  -6  22   64.74   13.29
  -2  -6  22   64.01   13.60
  -2   6 -21   39.88   12.78
   2   6 -21   53.51   14.54
   2  -6  21   53.74   11.69
  -2  -6  21   51.06   12.03
  -2   6 -20   15.68    5.41
   2   6 -20   15.65    5.41
   2  -6  20   11.85    4.66
  -2  -6  20   22.46    9.21
  -2   6 -19   30.74   11.34
   2   6 -19    6.10    3.80
  -2  -6  19   40.64   14.53
  -2   6 -18   17.07    6.42
   2   6 -18   12.14    4.29
   2  -6  18    3.99    2.80
  -2  -6  18    7.42    4.77
  -2   6 -17   36.12   11.34
   2   6 -17   49.69   14.48
   2  -6  17   64.57   16.90
  -2  -6  17   39.08   11.60
  -2   6 -16  134.61   21.35
   2   6 -16  146.78   15.28
   2  -6  16  134.45   12.88
  -2  -6  16  164.90   16.11
  -2   6 -15   11.92    7.21
   2   6 -15   11.13    6.42
   2  -6  15    5.91    4.31
  -2  -6  15   19.91    9.63
  -2   6 -14    4.97    3.86
   2   6 -14    8.55    5.03
   2  -6  14   14.45    3.80
  -2  -6  14   11.85    5.01
  -2   6 -13   47.03   10.44
   2   6 -13   72.73   11.96
   2  -6  13   39.90    6.47
  -2  -6  13   52.07    8.79
   2   6 -12   62.39   11.60
   2  -6  12   65.17   11.40
  -2  -6  12   84.51   14.88
  -2   6 -11   68.63   11.74
   2   6 -11   60.13   10.91
   2  -6  11   51.50    8.54
  -2  -6  11   86.01   14.08
  -2   6 -10  361.66   29.07
   2   6 -10  345.85   27.73
   2  -6  10  361.00   28.14
  -2  -6  10  411.26   32.45
  -2   6  -9  163.99   15.70
   2   6  -9  110.65   15.83
   2  -6   9  126.62   17.59
  -2  -6   9  113.40   16.27
   2   6  -8   67.43   10.22
   2  -6   8   87.07   11.79
  -2  -6   8  131.45   11.58
   2   6  -7  212.68   15.54
   2  -6   7  210.47   14.91
  -2  -6   7  223.25   16.67
   2   6  -6   56.73    8.84
   2  -6   6   59.62    8.75
  -2  -6   6   67.61   10.33
   2   6  -5   57.02    8.63
   2  -6   5   57.42    8.10
  -2  -6   5   67.16    9.88
   2   6  -4   92.48    8.46
   2  -6   4   88.80   11.58
  -2  -6   4  121.76   11.07
   2   6  -3  224.03   16.93
   2  -6   3  232.49   17.12
  -2  -6   3  240.80   18.23
   2   6  -2  495.48   34.42
   2  -6   2  514.14   35.51
  -2  -6   2  608.48   42.14
   2   6  -1  486.24   33.80
   2  -6   1  474.15   32.93
  -2  -6   1  579.46   40.24
   2   6   0    4.85    2.61
   2  -6   0    2.90    2.56
  -2  -6   0    5.54    3.89
   2   6   1  487.71   33.72
   2  -6  -1  494.60   34.47
  -2  -6  -1  525.71   36.57
   2   6   2  515.55   41.95
   2  -6  -2  539.50   37.56
  -2  -6  -2  614.84   42.53
   2   6   3  287.30   29.57
   2  -6  -3  241.96   18.12
  -2  -6  -3  250.82   18.79
   2   6   4  131.97   15.46
  -2  -6  -4   94.20    7.61
   2  -6  -4  106.60    9.61
  -2  -6  -4  114.25   10.44
   2   6   5   72.78   13.20
  -2  -6  -5   70.20    9.37
   2  -6  -5   66.62    9.55
  -2  -6  -5   67.79   10.12
   2   6   6   65.93   11.53
  -2  -6  -6   54.47    7.34
   2  -6  -6   76.87   11.07
   2  -6  -6   53.18    8.12
  -2  -6  -6   65.69   10.04
   2   6   7  206.58   17.07
  -2  -6  -7  211.86   13.71
   2  -6  -7  246.55   17.51
   2  -6  -7  234.88   16.95
  -2  -6  -7  227.77   16.42
  -2  -6  -8   90.18   11.20
   2  -6  -8  126.39   10.99
   2  -6  -8  105.55   14.13
  -2  -6  -8  101.63   13.71
   2   6   9   88.82   13.95
   2  -6  -9  118.70   16.69
   2  -6  -9   95.24   13.89
  -2  -6  -9  114.43   16.19
   2  -6 -10  394.65   30.59
   2  -6 -10  342.96   27.18
  -2  -6 -10  398.77   31.19
   2  -6 -11   63.75   10.40
   2  -6 -11   68.65   11.20
  -2  -6 -11   76.69   11.80
   2  -6 -12   49.06    8.86
   2  -6 -12   68.84   12.40
  -2  -6 -12   92.61   15.60
   2  -6 -13   45.83    7.30
   2  -6 -13   45.30    7.61
  -2  -6 -13   44.98    6.95
   2  -6 -14   10.92    4.71
   2  -6 -14    7.86    5.08
  -2  -6 -14    6.18    3.89
   2  -6 -15   22.34    9.03
   2  -6 -15   18.63    8.71
  -2  -6 -15   24.84   10.03
   2  -6 -16  132.96   16.07
   2  -6 -16  141.45   14.38
  -2  -6 -16  137.43   17.75
   2  -6 -17   52.06   13.65
   2  -6 -17   46.29   12.80
  -2  -6 -17   64.98   17.03
   2  -6 -18    9.91    3.86
  -2  -6 -18   20.92    8.41
   2  -6 -19   28.08    9.93
  -2  -6 -19   13.15    5.86
   2  -6 -20   19.64    7.24
  -2  -6 -20   22.52   11.39
   2  -6 -21   65.80   14.53
  -2  -6 -21   42.70   14.61
  -2  -6 -22   58.34   12.83
   2  -6 -22   54.46   13.87
   3   6 -21   78.04   16.39
  -3  -6  21   35.24   11.45
   3   6 -20   93.94   14.34
   3  -6  20   95.01   12.53
  -3  -6  20  119.43   16.71
   3   6 -19   30.14   10.73
   3  -6  19    7.16    2.75
  -3  -6  19   30.11   11.95
   3   6 -18    7.88    5.30
   3  -6  18   16.31    4.56
  -3  -6  18   13.90    7.24
   3   6 -17   15.33    6.25
   3  -6  17   14.56    4.53
  -3  -6  17    9.67    6.36
   3   6 -16   53.35   14.35
   3  -6  16   37.70   11.84
  -3  -6  16   64.23   16.35
   3   6 -15   92.34   10.48
   3  -6  15   78.15   19.85
  -3  -6  15  114.38   13.53
   3   6 -14    4.37    4.87
   3  -6  14   14.05    5.73
  -3  -6  14   18.26    9.39
   3   6 -13   15.10    7.46
   3  -6  13    8.28    3.92
  -3  -6  13   15.75    7.54
   3   6 -12  160.64   14.58
   3  -6  12  138.21   11.72
  -3  -6  12  150.55   14.16
   3   6 -11  146.35   12.97
   3  -6  11  137.25    9.56
  -3  -6  11  172.19   13.36
   3   6 -10   95.51   12.89
   3  -6  10   92.31   11.42
  -3  -6  10   98.65   13.66
   3   6  -9  143.98   13.04
   3  -6   9  118.22    9.99
  -3  -6   9  147.26   13.04
   3   6  -8   70.91   12.73
   3  -6   8   55.66    9.43
  -3  -6   8   67.56   13.29
   3   6  -7   29.86    6.23
   3  -6   7   36.18    6.28
  -3  -6   7   55.88   10.01
   3   6  -6   81.58   12.24
   3  -6   6   76.68   10.94
  -3  -6   6   82.41   12.37
   3   6  -5  453.72   35.06
   3  -6   5  422.23   32.08
  -3  -6   5  485.39   37.30
   3   6  -4  649.02   49.08
   3  -6   4  618.06   46.23
  -3  -6   4  711.14   53.47
   3   6  -3   34.10    5.61
   3  -6   3   62.71    9.40
  -3  -6   3   66.98   10.12
   3   6  -2  326.15   21.91
   3  -6   2  360.01   23.55
  -3  -6   2  375.61   24.94
   3   6  -1  676.41   42.69
   3  -6   1  754.90   47.17
  -3  -6   1  771.94   48.47
   3   6   0  802.16   50.13
   3  -6   0  844.19   52.50
  -3  -6   0  960.21   59.68
   3   6   1  726.26   45.75
   3  -6  -1  772.96   48.34
  -3  -6  -1  753.74   47.41
   3   6   2  350.35   22.98
   3  -6  -2  371.97   24.54
  -3  -6  -2  382.38   25.32
   3   6   3   50.82    7.27
   3  -6  -3   75.87   11.44
   3  -6  -3   55.23    8.23
  -3  -6  -3   53.02    8.60
   3   6   4  603.74   44.96
   3  -6  -4  733.26   55.53
   3  -6  -4  652.56   49.11
  -3  -6  -4  680.30   51.02
   3   6   5  428.24   32.23
   3  -6  -5  499.79   38.94
   3  -6  -5  451.18   34.73
  -3  -6  -5  500.08   38.09
   3  -6  -6   94.31   14.06
   3  -6  -6   67.61   10.62
  -3  -6  -6   72.70   10.70
   3   6   7   38.94    5.94
  -3  -6  -7   29.33    4.71
   3  -6  -7   42.41    7.83
   3  -6  -7   25.93    5.22
  -3  -6  -7   42.53    6.98
   3   6   8   59.44   11.42
   3  -6  -8   67.02   12.45
   3  -6  -8   56.70   10.32
  -3  -6  -8   72.40   12.37
   3   6   9  108.15   19.32
   3  -6  -9  133.86   12.29
   3  -6  -9  119.15   10.86
  -3  -6  -9  143.15   12.35
   3  -6 -10  135.41   11.60
   3  -6 -10   96.78   12.64
  -3  -6 -10  128.64    8.23
   3  -6 -11  185.26   13.28
   3  -6 -11  136.61   10.76
  -3  -6 -11  141.88   10.44
   3  -6 -12  215.05   17.94
   3  -6 -12  127.87   11.85
  -3  -6 -12  152.40   13.47
   3  -6 -13    5.17    5.11
  -3  -6 -13   17.60    7.62
   3  -6 -14   16.71    6.74
   3  -6 -14   19.20    7.40
  -3  -6 -14    3.28    3.49
   3  -6 -15   95.88    9.87
   3  -6 -15  111.11   12.59
  -3  -6 -15   69.31   18.20
   3  -6 -16   45.59   14.61
   3  -6 -16   50.92   18.18
  -3  -6 -16   63.65   16.05
   3  -6 -17    9.50    4.56
   3  -6 -17    9.05    4.32
  -3  -6 -17   13.50    5.35
   3  -6 -18    4.58    2.90
   3  -6 -18    2.77    3.67
  -3  -6 -18    1.22    4.42
   3  -6 -19   11.34    4.63
  -3  -6 -19    8.95    3.81
   3  -6 -20   76.47   18.61
  -3  -6 -20   74.38   11.84
   3  -6 -21   44.26   14.00
  -3  -6 -21   51.78   14.96
   4   6 -19   12.53    6.82
  -4  -6  19   34.25   13.34
   4   6 -18  112.51   16.42
  -4  -6  18  126.33   17.81
   4   6 -17   28.14   10.25
  -4  -6  17   13.07    5.16
   4   6 -16   12.86    5.41
  -4  -6  16   25.08    9.26
   4   6 -15   73.60   14.62
  -4  -6  15   58.86   12.96
   4   6 -14   15.38    5.77
  -4  -6  14    5.83    4.18
   4   6 -13   69.56   17.03
  -4  -6  13  128.56   30.48
   4   6 -12   27.04    6.01
  -4  -6  12   24.20    6.74
   4   6 -11   90.21   10.64
   4  -6  11   66.17    6.62
  -4  -6  11   83.59   10.41
   4   6 -10   76.55   11.61
   4  -6  10   66.94    8.46
  -4  -6  10   85.68   12.17
   4   6  -9   19.36    8.41
   4  -6   9   13.53    5.62
  -4  -6   9   24.12   10.43
   4   6  -8   16.08    4.24
   4  -6   8   10.67    2.27
  -4  -6   8   18.68    4.76
   4   6  -7  114.16   11.31
   4  -6   7  119.10    9.95
  -4  -6   7  149.28   13.69
   4   6  -6   72.33    8.67
   4  -6   6   63.17    6.52
  -4  -6   6   73.74    7.96
   4   6  -5  312.05   19.91
   4  -6   5  334.95   19.09
  -4  -6   5  336.46   20.33
   4   6  -4   27.45    5.77
   4  -6   4   39.10    5.56
  -4  -6   4   61.94    9.48
   4   6  -3  192.91   13.79
   4  -6   3  237.60   14.29
  -4  -6   3  253.79   15.89
   4   6  -2  342.43   21.16
   4  -6   2  295.18   18.95
   4  -6   2  339.25   19.41
  -4  -6   2  389.85   23.00
   4   6  -1   29.68    6.74
   4  -6   1   41.00    8.97
   4  -6   1   24.25    4.00
  -4  -6   1   26.22    4.84
   4   6   0    9.71    5.16
   4  -6   0   14.08    6.05
   4  -6   0   12.62    3.25
  -4  -6   0    3.08    2.98
   4   6   1   22.73    4.45
   4  -6  -1   23.47    7.24
   4  -6  -1   28.53    4.98
  -4  -6  -1   35.69    6.17
   4   6   2  301.40   18.26
   4  -6  -2  376.63   23.63
   4  -6  -2  333.13   19.46
  -4  -6  -2  341.76   20.42
   4   6   3  201.11   12.85
   4  -6  -3  261.69   18.90
   4  -6  -3  202.28   12.85
  -4  -6  -3  262.27   16.21
   4   6   4   44.98    7.13
   4  -6  -4   42.78    7.53
   4  -6  -4   50.77    7.30
  -4  -6  -4   45.07    6.52
   4   6   5  328.34   19.11
   4  -6  -5  380.72   24.15
   4  -6  -5  333.66   19.77
  -4  -6  -5  370.38   21.53
   4   6   6   57.82    5.97
   4  -6  -6  114.09   13.18
   4  -6  -6   73.68    7.78
  -4  -6  -6   65.32    6.97
   4   6   7   96.30    8.67
   4  -6  -7  134.45   14.61
   4  -6  -7  111.02   10.28
  -4  -6  -7  122.04   10.97
   4   6   8   14.64    3.09
   4  -6  -8   38.06    7.59
   4  -6  -8    8.97    2.71
  -4  -6  -8   22.60    3.73
   4  -6  -9   15.18    8.01
   4  -6  -9   15.02    6.65
  -4  -6  -9   25.42   10.11
   4  -6 -10  124.58   16.82
   4  -6 -10   77.62   10.27
  -4  -6 -10   85.45   11.45
   4  -6 -11   89.12   10.54
   4  -6 -11   63.88    7.90
  -4  -6 -11   69.03    8.25
   4  -6 -12   42.70   12.56
   4  -6 -12   42.70   11.82
  -4  -6 -12   15.54    4.50
   4  -6 -13   91.99   22.25
   4  -6 -13   82.12   23.56
  -4  -6 -13   74.80   17.67
   4  -6 -14   11.07    4.08
  -4  -6 -14    7.05    3.06
   4  -6 -15   45.18   15.44
   4  -6 -15   40.75   14.02
  -4  -6 -15   33.70   11.39
   4  -6 -16   13.36    6.04
   4  -6 -16    5.86    3.73
  -4  -6 -16    2.75    2.71
   4  -6 -17   22.63    8.04
   4  -6 -17   45.99    8.26
   4  -6 -18   73.58   14.64
   4  -6 -18   97.39   21.50
   4  -6 -19   13.36    6.02
   4  -6 -19    7.30    5.03
   5   6 -15   15.57    7.10
  -5  -6  15   19.93    8.51
   5   6 -14   27.45   10.89
  -5  -6  14   72.22   11.71
   5   6 -13   20.42    7.77
  -5  -6  13   15.17    4.44
   5   6 -12   10.51    4.56
  -5  -6  12    5.65    3.44
   5   6 -11    8.55    3.96
  -5  -6  11   10.20    4.02
   5   6 -10   18.08    7.90
   5  -6  10   14.32    5.17
  -5  -6  10    8.83    5.33
   5   6  -9   90.71   16.63
   5  -6   9   42.16   14.59
  -5  -6   9   75.27   13.87
   5   6  -8  135.19   31.30
   5  -6   8  127.88   29.74
  -5  -6   8  165.01   37.83
   5   6  -7   15.92    6.10
   5  -6   7   12.64    5.64
  -5  -6   7   11.79    4.95
   5   6  -6   19.86    5.54
   5  -6   6   33.25   10.36
  -5  -6   6   42.91   12.21
   5   6  -5   95.00   10.38
   5  -6   5   74.06   19.51
  -5  -6   5   89.70    9.23
   5   6  -4    5.11    5.64
   5  -6   4   16.95    7.85
  -5  -6   4    9.83    4.84
   5   6  -3  103.38   11.76
   5  -6   3  110.78   11.68
  -5  -6   3  149.73   13.45
   5   6  -2  187.07   17.12
   5  -6   2  146.64   15.28
  -5  -6   2  208.18   18.00
   5   6  -1   23.16    8.47
   5  -6   1   21.17    9.05
  -5  -6   1   17.80    6.71
   5   6   0   52.97    6.74
   5  -6   0   46.59   16.42
  -5  -6   0   55.61    6.79
   5   6   1   16.87    6.60
   5  -6  -1   22.62   10.20
  -5  -6  -1   25.12    8.81
   5   6   2  141.11   13.09
   5  -6  -2  232.67   22.41
   5  -6  -2  145.00   12.57
  -5  -6  -2  207.23   17.81
   5   6   3  118.24   11.45
   5  -6  -3  155.70   16.29
   5  -6  -3  134.66   11.95
  -5  -6  -3  144.08   12.86
   5   6   4   15.15    5.59
   5  -6  -4    6.76    5.67
   5  -6  -4    8.79    3.75
  -5  -6  -4    6.94    3.09
   5   6   5   62.12   15.89
   5  -6  -5  102.00   11.87
   5  -6  -5   69.96   17.81
  -5  -6  -5   89.14    8.51
   5   6   6   29.20    5.72
   5  -6  -6   43.47   12.73
   5  -6  -6   24.70    5.17
   5  -6  -7   25.36   10.73
   5  -6  -7   10.25    3.76
   5  -6  -8  172.75   40.16
   5  -6  -8  140.65   36.17
   5  -6  -9   83.90   16.42
   5  -6  -9   70.89   13.63
   5  -6 -10    0.51    4.97
   5  -6 -10    4.71    2.84
   5  -6 -11   10.48    5.33
   5  -6 -11   14.11    4.23
   5  -6 -12    4.71    5.14
   5  -6 -12   12.89    4.71
   5  -6 -13   43.33   14.48
   5  -6 -13   21.24    7.70
   5  -6 -14   64.53   12.32
   5  -6 -14   31.63   13.52
   5  -6 -15    6.29    4.56
   5  -6 -15    0.34    2.59
   6   6 -10   58.74   12.97
   6  -6  10   34.00   11.44
   6   6  -9   65.25   13.34
   6  -6   9   56.81   11.93
   6   6  -8   44.34    8.38
   6  -6   8   55.26    9.55
   6   6  -7   12.17    5.35
   6  -6   7   19.48    8.07
   6   6  -6   49.48    8.57
   6  -6   6   47.22    8.26
   6   6  -5   57.77   12.53
   6  -6   5   64.66   13.89
   6   6  -4   40.11   12.51
   6  -6   4   15.09    5.13
   6   6  -3    4.05    3.19
   6  -6   3   14.24    6.62
   6   6  -2   27.18    9.63
   6  -6   2   29.22   10.91
   6   6  -1   27.33    9.00
   6  -6   1   30.51   11.47
   6   6   0  118.70   14.56
   6  -6   0  129.76   16.07
   6   6   1   19.77    7.02
   6  -6  -1   19.36    7.64
   6   6   2   18.64    4.85
   6  -6  -2   47.07   12.08
   6   6   3    7.51    3.44
   6  -6  -3    2.88    5.30
   6   6   4   20.28    4.60
   6  -6  -4   30.71   11.48
   6  -6  -5   63.97   15.25
   6  -6  -6   64.76   11.84
   6  -6  -7   30.61   12.96
   6  -6  -8   74.99   12.94
   6  -6  -9   89.38   18.72
   6  -6 -10   59.39   14.26
   0   7 -22   17.23    7.56
   0  -7  22   10.30    4.39
   0   7 -21   14.58    4.56
   0  -7  21   10.07    5.05
   0   7 -20   56.33    9.15
   0  -7  20   85.61   11.71
   0   7 -19   -0.69    4.39
   0  -7  19    3.60    3.09
   0   7 -18   13.44    6.42
   0  -7  18   14.30    4.98
   0   7 -17  320.39   41.40
   0  -7  17  340.43   28.03
   0   7 -16   10.48    5.88
   0  -7  16    5.32    3.57
   0   7 -15   50.57   20.37
   0  -7  15   23.32    9.55
   0   7 -14   28.57    5.43
   0  -7  14   20.05    5.17
   0   7 -13  114.04   21.51
   0  -7  13   80.94   11.37
   0   7 -12   40.62   11.53
   0  -7  12   30.69    6.49
   0   7 -11  670.66   66.90
   0  -7  11  511.07   36.18
   0   7 -10  401.88   44.99
   0  -7  10  318.38   25.48
   0   7  -9  880.46   85.72
   0  -7   9  822.06   61.65
   0   7  -8    2.37    2.95
   0  -7   8    0.91    3.19
   0   7  -7 1121.82   69.82
   0  -7   7 1084.12   67.37
   0   7  -6   10.20    3.04
   0  -7   6   14.93    4.93
   0   7  -5   59.54   11.00
   0  -7   5   44.27    7.10
   0   7  -4    8.06    2.74
   0  -7   4   16.74    5.16
   0   7  -3   53.37    9.00
   0  -7   3   35.70    6.05
   0   7  -2  108.00   14.99
   0  -7   2  119.46   11.28
   0   7  -1   -2.45    2.82
   0  -7   1   12.75    4.04
   0   7   0    5.48    1.59
   0  -7   0    2.79    3.32
   0   7   1    2.02    2.26
   0  -7  -1   -2.08    3.19
   0   7   2  125.64   17.60
   0  -7  -2  107.49    9.71
   0   7   3   37.13    7.10
   0  -7  -3   40.68    7.06
   0  -7  -4    2.95    3.91
   0  -7  -5   65.77   10.49
   0  -7  -6   18.85    4.66
   0  -7  -7 1332.56  171.93
   0  -7  -8    2.40    1.60
   0  -7  -8   10.40    4.48
   0  -7  -9  902.05   66.42
   0  -7  -9 1054.17  159.56
   0  -7 -10  376.34   28.29
   0  -7 -10  430.37   33.97
   0  -7 -11  560.05   37.74
   0  -7 -11  587.48   42.06
   0  -7 -12   26.24    4.65
   0  -7 -12   34.23    8.10
   0  -7 -13  102.83   11.95
   0  -7 -13  102.17   13.90
   0  -7 -14   29.01    5.61
   0  -7 -15   56.22    9.45
   0  -7 -16   10.51    6.04
   0  -7 -17  327.70   27.25
   0  -7 -18   33.43   12.14
   0  -7 -19    6.10    4.85
   0  -7 -20   63.80   10.38
   0  -7 -21   13.45    5.35
   0  -7 -22   39.96   12.17
  -1   7 -22   70.86   17.52
   1   7 -22   65.22   16.99
   1  -7  22   41.53    9.40
  -1  -7  22   99.42   19.54
  -1   7 -21    6.63    4.50
   1   7 -21    8.10    3.84
   1  -7  21   22.73    9.05
  -1  -7  21   23.47    9.55
  -1   7 -20   38.01   12.65
   1   7 -20   24.83    8.67
   1  -7  20   29.95   10.36
  -1  -7  20   31.78   11.04
  -1   7 -19   65.32   15.57
   1   7 -19   55.52   13.10
   1  -7  19   43.17   14.53
  -1  -7  19   60.75   12.37
  -1   7 -18   62.58   17.99
   1   7 -18   49.96   17.60
   1  -7  18   54.07   13.49
  -1  -7  18   47.11   15.10
   1   7 -17   10.41    3.01
   1  -7  17    4.36    3.20
  -1  -7  17    5.97    4.58
  -1   7 -16   66.94   10.41
   1   7 -16   77.16   16.48
   1  -7  16   49.22   16.59
  -1  -7  16   67.58    8.28
  -1   7 -15  189.57   28.77
   1   7 -15  179.28   29.20
   1  -7  15  152.52   18.66
  -1  -7  15  219.02   26.65
  -1   7 -14   13.07    4.34
   1   7 -14   18.26    7.00
   1  -7  14   15.52    3.88
  -1  -7  14   10.64    4.28
  -1   7 -13    7.62    3.08
   1   7 -13   13.34    4.37
   1  -7  13   13.76    3.70
  -1   7 -12   38.36    6.79
   1   7 -12   32.27    8.95
   1  -7  12   26.06    5.37
  -1  -7  12   37.62    6.39
  -1   7 -11  450.54   48.53
   1   7 -11  498.36   58.34
   1  -7  11  380.78   27.66
  -1  -7  11  387.68   28.45
  -1   7 -10  229.59   27.31
   1   7 -10  142.06   28.11
   1  -7  10  183.49   16.05
  -1  -7  10  162.45   14.48
  -1   7  -9 1096.19  165.80
   1   7  -9  851.05   67.19
   1  -7   9  921.25   68.68
  -1  -7   9  854.69   64.23
  -1   7  -8   40.57   10.32
   1   7  -8   45.49    9.74
   1  -7   8   33.73    6.15
  -1  -7   8   37.69    7.69
  -1   7  -7   36.18    7.86
   1   7  -7   26.24    5.40
   1  -7   7   16.79    4.02
  -1  -7   7   27.12    5.96
  -1   7  -6  151.06   16.10
   1   7  -6  147.10   16.64
   1  -7   6  137.89   10.78
  -1  -7   6  169.56   14.00
  -1   7  -5  378.55   35.48
   1   7  -5  341.23   38.91
   1  -7   5  321.34   21.70
  -1  -7   5  361.69   24.60
  -1   7  -4   61.89   12.93
   1   7  -4   72.80   12.78
   1  -7   4   35.16    6.63
  -1  -7   4   60.00    9.58
  -1   7  -3   81.66   13.15
   1   7  -3   71.89   12.21
   1  -7   3   89.09   13.05
  -1  -7   3   84.60   11.85
  -1   7  -2  310.70   30.18
   1   7  -2  292.44   29.79
   1  -7   2  268.48   19.94
  -1  -7   2  305.75   22.62
  -1   7  -1   76.74   11.21
   1   7  -1   98.88   12.69
   1  -7   1   70.99   10.12
  -1  -7   1   81.66   11.84
   1   7   0   26.67    4.79
   1  -7   0   17.17    5.21
  -1  -7   0   22.06    5.38
   1   7   1  106.45   13.42
   1  -7  -1   89.89   12.88
  -1  -7  -1   93.73    8.79
   1   7   2  282.34   22.63
   1  -7  -2  277.58   20.61
  -1  -7  -2  334.44   24.47
   1   7   3   75.97   12.65
   1  -7  -3   90.67   12.62
  -1  -7  -3   74.29   10.86
   1   7   4   44.50    9.40
   1  -7  -4   39.29    6.79
  -1  -7  -4   50.82    8.79
   1   7   5  341.70   30.08
   1  -7  -5  313.35   21.77
  -1  -7  -5  355.26   24.20
   1   7   6  153.35   15.38
  -1  -7  -6  120.77    8.51
   1  -7  -6  140.76   11.55
  -1  -7  -6  175.02   13.55
  -1  -7  -7   26.22    4.00
   1  -7  -7   41.47    8.07
  -1  -7  -7   65.80    9.82
  -1  -7  -8   39.84    5.83
   1  -7  -8   42.29    7.35
   1  -7  -8   40.22    7.10
  -1  -7  -8   53.71    9.32
   1  -7  -9  989.07   73.04
   1  -7  -9  984.36   73.79
  -1  -7  -9 1044.76  158.08
   1  -7 -10  184.71   15.04
   1  -7 -10  193.04   17.09
  -1  -7 -10  172.47   15.87
   1  -7 -11  440.78   30.64
   1  -7 -11  400.61   29.46
  -1  -7 -11  441.26   32.26
   1  -7 -12   34.37    5.22
   1  -7 -12   45.39    7.51
  -1  -7 -12   52.02    9.19
   1  -7 -13    7.34    2.75
   1  -7 -13    1.99    3.46
  -1  -7 -13   13.71    4.61
   1  -7 -14    9.90    2.45
   1  -7 -14   17.86    4.73
  -1  -7 -14    6.87    4.12
   1  -7 -15  128.91   16.42
  -1  -7 -15  178.08   22.49
   1  -7 -16   53.91    8.30
  -1  -7 -16   70.89    8.97
   1  -7 -17    9.29    6.07
  -1  -7 -17    7.85    4.66
   1  -7 -18   75.51   18.53
  -1  -7 -18   60.91   16.37
   1  -7 -19   82.25   16.66
  -1  -7 -19   54.56   11.60
  -1  -7 -20   18.16    7.11
   1  -7 -20   16.37    7.10
   1  -7 -21    5.16    6.41
  -1  -7 -21   38.17   14.19
  -1  -7 -22   83.82   21.00
   1  -7 -22  111.88   24.41
  -2   7 -21   31.95   10.94
   2   7 -21    9.75    5.16
   2  -7  21   24.22    7.94
  -2  -7  21   28.13    9.69
  -2   7 -20   26.48   16.53
   2   7 -20   60.71   13.45
   2  -7  20   60.03    8.97
  -2  -7  20   77.25   13.29
  -2   7 -19   16.61    6.55
   2   7 -19   10.11    5.16
   2  -7  19   14.08    4.89
  -2  -7  19   22.70    9.10
  -2   7 -18    9.82    4.32
   2   7 -18   12.11    7.90
   2  -7  18    4.05    2.66
  -2  -7  18   12.25    6.81
  -2   7 -17   12.54    4.08
   2   7 -17   26.78   11.16
   2  -7  17   13.01    4.58
  -2  -7  17   19.85    9.18
  -2   7 -16   89.75   10.78
   2   7 -16   84.30   17.30
   2  -7  16   77.54   19.94
  -2  -7  16  108.87   13.21
  -2   7 -15   51.64   10.32
   2   7 -15   57.85    9.15
   2  -7  15   43.98   14.90
  -2  -7  15   57.63    9.55
  -2   7 -14   11.63    5.62
   2   7 -14   26.52   11.48
   2  -7  14   24.31   10.12
  -2  -7  14   21.54    9.39
  -2   7 -13   38.27    7.14
   2   7 -13   37.13    7.46
   2  -7  13   36.63    4.16
  -2  -7  13   22.52    5.05
  -2   7 -12   61.70   10.52
   2   7 -12   45.76    8.41
   2  -7  12   49.08    4.68
  -2  -7  12   37.64    6.57
  -2   7 -11  156.52   13.26
   2   7 -11   98.30   14.83
   2  -7  11  131.23   10.03
  -2  -7  11  138.17   11.82
  -2   7 -10  125.00   12.89
   2   7 -10  113.92   11.82
   2  -7  10   91.62   15.28
  -2  -7  10  118.34   11.12
  -2   7  -9   15.47    7.88
   2   7  -9   15.18    6.07
   2  -7   9   11.15    5.08
  -2  -7   9   30.91    7.83
   2   7  -8  112.46   16.18
   2  -7   8  133.52   18.56
  -2  -7   8  146.69   21.09
   2   7  -7   19.32    4.26
   2  -7   7   39.87    6.95
  -2  -7   7   38.95    8.60
   2   7  -6  358.87   28.38
   2  -7   6  386.77   30.03
  -2  -7   6  423.32   33.12
   2   7  -5   17.51    6.05
   2  -7   5   12.62    3.91
  -2  -7   5   20.42    6.49
   2   7  -4  517.62   44.78
   2  -7   4  504.47   32.44
  -2  -7   4  558.14   36.38
   2   7  -3  103.78   18.31
   2  -7   3  112.30   14.67
  -2  -7   3  120.00   10.43
   2   7  -2   55.80   10.03
   2  -7   2   36.22    6.29
  -2  -7   2   28.83    7.06
   2   7  -1   45.25    9.05
   2  -7   1   58.26    8.68
  -2  -7   1   35.91    6.31
   2   7   0  572.41   56.24
   2  -7   0  499.26   32.18
  -2  -7   0  581.91   37.62
   2   7   1   49.25    8.18
   2  -7  -1   35.17    6.29
  -2  -7  -1   43.44    7.35
   2   7   2   33.99    6.79
   2  -7  -2   45.33    6.97
  -2  -7  -2   37.58    6.47
   2   7   3  108.82   17.23
   2  -7  -3  119.22    9.80
  -2  -7  -3  128.67   10.73
   2   7   4  449.54   29.38
   2  -7  -4  509.99   33.24
  -2  -7  -4  580.85   37.51
   2   7   5    7.90    2.32
   2  -7  -5   14.45    4.26
  -2  -7  -5   12.24    4.34
   2   7   6  409.13   30.88
   2  -7  -6  426.62   33.14
   2  -7  -6  410.75   32.19
  -2  -7  -6  459.71   35.77
   2   7   7   34.00    6.66
  -2  -7  -7   34.66    5.22
   2  -7  -7   55.52    9.51
   2  -7  -7   51.86    9.21
  -2  -7  -7   49.85    8.33
   2   7   8  111.54   18.74
   2  -7  -8  151.54   13.36
   2  -7  -8  144.48   20.55
  -2  -7  -8  163.46   15.12
   2   7   9    9.58    2.27
   2  -7  -9   15.68    4.42
   2  -7  -9   19.09    6.13
  -2  -7  -9   22.78    6.52
   2  -7 -10  119.10   10.57
   2  -7 -10   96.36   16.13
  -2  -7 -10  131.84   11.93
   2  -7 -11  146.94   11.05
   2  -7 -11  153.05   12.38
  -2  -7 -11  134.19   10.43
   2  -7 -12   68.94    8.30
   2  -7 -12   68.59    8.31
  -2  -7 -12   60.47    7.83
   2  -7 -13   23.72    3.70
   2  -7 -13   38.51    6.52
  -2  -7 -13   28.01    5.17
   2  -7 -14   21.22    8.91
   2  -7 -14   29.41   11.82
  -2  -7 -14   22.01   10.33
   2  -7 -15   45.67   15.34
   2  -7 -15   24.23    9.32
  -2  -7 -15   51.08   10.62
   2  -7 -16   78.81   16.55
   2  -7 -16  108.18   12.40
  -2  -7 -16   97.37   10.36
   2  -7 -17   19.61    7.82
  -2  -7 -17    5.51    4.36
   2  -7 -18   13.98    5.94
  -2  -7 -18    6.84    3.52
   2  -7 -19   17.49    5.14
  -2  -7 -19   19.06    6.12
   2  -7 -20   42.77   14.18
  -2  -7 -20   56.96    9.72
   2  -7 -21   11.93    4.52
  -2  -7 -21   16.99    7.48
   3   7 -19    8.30    5.78
   3  -7  19    7.46    3.99
  -3  -7  19   10.06    5.06
   3   7 -18   78.39   16.85
   3  -7  18   65.82   13.41
  -3  -7  18  110.38   22.23
   3   7 -17   38.79   13.57
  -3  -7  17   15.76    7.10
   3   7 -16    8.23    5.13
   3  -7  16   14.98    5.08
  -3  -7  16   27.79   10.97
   3   7 -15   51.67   13.63
   3  -7  15   38.14   12.03
  -3  -7  15   42.65   14.02
   3   7 -14  170.20   15.97
   3  -7  14  119.19   10.81
  -3  -7  14  183.83   17.11
   3   7 -13   23.90    7.00
   3  -7  13   17.22    3.94
  -3  -7  13   30.80    8.14
   3   7 -12    7.99    5.57
   3  -7  12    6.34    3.00
  -3  -7  12    6.60    5.03
   3   7 -11  195.94   24.76
   3  -7  11  167.61   19.86
  -3  -7  11  205.71   25.07
   3   7 -10   34.34    6.52
   3  -7  10   41.12    4.21
  -3  -7  10   38.71    5.59
   3   7  -9   18.32    5.99
   3  -7   9    5.88    2.27
  -3  -7   9   28.98    6.31
   3   7  -8  308.81   19.86
   3  -7   8  308.21   18.53
  -3  -7   8  360.45   22.17
   3   7  -7   40.88    8.54
   3  -7   7   20.60    3.80
  -3  -7   7   25.47    5.61
   3   7  -6  205.09   16.82
   3  -7   6  200.09   15.57
  -3  -7   6  207.70   16.66
   3   7  -5   53.66    9.93
   3  -7   5   68.14   11.63
  -3  -7   5   88.24   15.65
   3   7  -4  522.74   36.84
   3  -7   4  532.66   36.98
  -3  -7   4  569.10   40.04
   3   7  -3    0.51    3.76
   3  -7   3   18.53    4.69
  -3  -7   3   13.04    4.48
   3   7  -2  800.40   54.83
   3  -7   2  778.92   53.11
  -3  -7   2  890.05   98.73
   3   7  -1  137.28   19.03
   3  -7   1  149.76   23.66
  -3  -7   1  171.35   15.02
   3   7   0   37.13    7.43
   3  -7   0   33.03    6.37
  -3  -7   0   22.87    5.32
   3   7   1  149.49   23.80
   3  -7  -1  172.31   14.96
  -3  -7  -1  164.59   14.43
   3   7   2  834.12   56.53
   3  -7  -2  900.45   99.80
  -3  -7  -2  901.33   99.90
   3   7   3   25.76    5.83
   3  -7  -3   27.55    7.19
   3  -7  -3   29.30    6.82
  -3  -7  -3   15.57    5.11
   3   7   4  460.75   31.91
   3  -7  -4  604.91   43.01
   3  -7  -4  516.32   36.41
  -3  -7  -4  537.81   37.90
   3   7   5   79.37   14.58
   3  -7  -5   98.84   16.82
   3  -7  -5   90.98   15.39
  -3  -7  -5   70.83   12.43
   3   7   6  183.29   23.43
   3  -7  -6  218.68   17.88
   3  -7  -6  183.27   14.85
  -3  -7  -6  228.38   18.26
   3   7   7   24.25    4.60
   3  -7  -7   34.21    7.40
   3  -7  -7   36.15    6.84
  -3  -7  -7   28.64    5.38
   3   7   8  323.09   18.76
   3  -7  -8  333.42   21.34
   3  -7  -8  302.66   18.98
  -3  -7  -8  347.24   21.30
   3  -7  -9   27.44    6.52
   3  -7  -9   17.03    3.80
   3  -7 -10   53.42    7.00
   3  -7 -10   37.11    4.61
  -3  -7 -10   56.81    6.81
   3  -7 -11  190.56   22.78
   3  -7 -11  191.89   22.90
  -3  -7 -11  207.50   24.78
   3  -7 -12    6.54    4.47
   3  -7 -12   17.27    7.78
  -3  -7 -12    1.14    3.56
   3  -7 -13   27.60    6.10
   3  -7 -13   19.89    5.46
  -3  -7 -13   30.11    7.77
   3  -7 -14  156.25   14.74
   3  -7 -14  133.54   12.88
  -3  -7 -14  131.69   13.25
   3  -7 -15   47.64   15.42
   3  -7 -15   41.10   13.23
  -3  -7 -15   41.77   13.55
   3  -7 -16   10.88    3.80
   3  -7 -16   18.00    7.82
  -3  -7 -16   12.38    4.23
   3  -7 -17   18.32    7.22
   3  -7 -17   23.90    8.60
  -3  -7 -17   11.31    4.23
   3  -7 -18   54.96   13.26
  -3  -7 -18   62.55   13.01
   3  -7 -19    9.31    3.68
  -3  -7 -19   10.91    4.32
   4   7 -17   30.02   11.80
  -4  -7  17   33.49   11.00
   4   7 -16   43.33    8.43
  -4  -7  16   55.58   10.72
   4   7 -15   16.19    5.45
  -4  -7  15   42.93   13.55
   4   7 -14  100.77   12.96
  -4  -7  14  112.44   14.67
   4   7 -13   18.13    7.64
  -4  -7  13   28.57   10.30
   4   7 -12   11.98    4.50
  -4  -7  12    6.82    4.21
   4   7 -11   14.91    6.31
  -4  -7  11    7.06    4.16
   4   7 -10   12.37    4.77
   4  -7  10   30.06    5.57
  -4  -7  10   46.88   13.25
   4   7  -9   16.88    6.18
   4  -7   9   12.59    3.51
  -4  -7   9   26.99    7.05
   4   7  -8   79.78    9.51
   4  -7   8   85.47    8.26
  -4  -7   8  100.96   11.44
   4   7  -7  102.75   11.23
   4  -7   7   55.66    6.28
  -4  -7   7   75.55    9.90
   4   7  -6   12.03    5.91
   4  -7   6    9.77    4.58
  -4  -7   6   16.53    7.88
   4   7  -5   62.05    9.16
   4  -7   5   48.52   18.18
  -4  -7   5   59.46    8.84
   4   7  -4    7.18    5.21
   4  -7   4    8.60    4.28
  -4  -7   4   15.81    7.69
   4   7  -3   45.83    5.89
   4  -7   3   44.06    4.26
  -4  -7   3   43.17    4.92
   4   7  -2   32.61    4.40
   4  -7   2   20.95    3.51
  -4  -7   2   35.24    4.60
   4   7  -1   12.78    3.64
   4  -7   1   39.69    8.59
   4  -7   1   17.52    4.07
  -4  -7   1   14.13    3.43
   4   7   0  323.71   24.96
   4  -7   0  398.61   31.33
   4  -7   0  356.53   26.89
  -4  -7   0  366.89   27.87
   4   7   1   14.66    4.55
   4  -7  -1   17.23    5.27
   4  -7  -1   23.93    3.72
  -4  -7  -1   19.27    4.26
   4   7   2   32.77    4.52
   4  -7  -2   37.24    7.40
   4  -7  -2   31.30    3.96
  -4  -7  -2   35.41    5.14
   4   7   3   41.81    4.55
   4  -7  -3   62.93    8.57
   4  -7  -3   47.40    4.77
  -4  -7  -3   52.25   19.93
   4   7   4   12.80    5.99
   4  -7  -4    7.53    6.21
   4  -7  -4   11.90    5.75
  -4  -7  -4    9.10    4.66
   4   7   5   80.74   10.33
   4  -7  -5  112.49   15.38
   4  -7  -5   79.03   10.38
  -4  -7  -5   68.60    9.48
   4   7   6   10.22    4.50
   4  -7  -6   21.67   11.00
   4  -7  -6    4.36    2.90
  -4  -7  -6   12.93    6.50
   4   7   7   65.74    6.79
   4  -7  -7  101.29   13.33
   4  -7  -7   93.72    9.90
  -4  -7  -7   71.93    8.89
   4  -7  -8  144.41   16.35
   4  -7  -8   94.55    9.99
  -4  -7  -8   97.79   10.25
   4  -7  -9   10.46    4.93
   4  -7  -9   23.37    5.75
  -4  -7  -9    9.75    3.70
   4  -7 -10   52.15   14.82
   4  -7 -10   33.43    9.93
  -4  -7 -10   39.37   11.12
   4  -7 -11   12.21    6.79
   4  -7 -11   10.57    4.53
  -4  -7 -11   12.89    5.46
   4  -7 -12   10.59    6.54
   4  -7 -12    5.96    3.04
  -4  -7 -12    8.76    4.36
   4  -7 -13   45.78   16.10
   4  -7 -13   26.43    9.58
  -4  -7 -13   36.78   12.64
   4  -7 -14  110.33   14.74
   4  -7 -14   90.75   11.58
  -4  -7 -14   98.68   12.13
   4  -7 -15   31.41   10.11
   4  -7 -15   34.98   11.98
  -4  -7 -15   24.23    8.44
   4  -7 -16   45.20    8.76
   4  -7 -16   29.10   11.77
  -4  -7 -16   50.49    8.09
   4  -7 -17   22.42    8.26
   4  -7 -17   40.51   11.63
   5   7 -13    8.89    5.64
  -5  -7  13    6.15    4.00
   5   7 -12   10.62    4.34
  -5  -7  12   17.09    7.13
   5   7 -11   42.64   13.57
  -5  -7  11   46.42    8.07
   5   7 -10   37.29   12.08
  -5  -7  10   52.58   11.50
   5   7  -9  223.30   24.75
  -5  -7   9  249.95   27.02
   5   7  -8   37.99   12.59
   5  -7   8   46.31    7.82
  -5  -7   8   29.62    9.79
   5   7  -7   13.05    6.20
   5  -7   7   14.96    6.37
  -5  -7   7   19.59    7.78
   5   7  -6   69.07   13.15
   5  -7   6   57.12   11.15
  -5  -7   6   69.88   13.31
   5   7  -5   21.13    7.98
   5  -7   5   24.03    8.97
  -5  -7   5   26.72    9.48
   5   7  -4   36.30   11.92
   5  -7   4   30.32    9.96
  -5  -7   4   45.95   14.59
   5   7  -3   42.25   13.37
   5  -7   3   60.48   15.31
  -5  -7   3   36.81   11.72
   5   7  -2   92.36   21.74
   5  -7   2   68.97   17.25
  -5  -7   2   85.39   20.10
   5   7  -1    8.97    4.87
   5  -7   1   11.84    5.43
  -5  -7   1   10.84    4.79
   5   7   0   17.27    5.46
   5  -7   0   13.85    6.31
  -5  -7   0    8.23    2.87
   5   7   1   16.21    5.57
   5  -7  -1   10.41    6.09
  -5  -7  -1    2.00    2.39
   5   7   2   72.97   17.35
   5  -7  -2  111.80   27.49
  -5  -7  -2   82.60   19.28
   5   7   3   27.13    9.21
   5  -7  -3   48.72   16.26
   5  -7  -3   35.83   11.18
  -5  -7  -3   46.31   14.38
   5   7   4   37.30   11.68
   5  -7  -4   83.55   22.36
   5  -7  -4   37.96   12.09
  -5  -7  -4   35.33   11.52
   5   7   5   16.91    4.60
   5  -7  -5   27.95   11.84
   5  -7  -5   13.73    4.21
  -5  -7  -5   21.61    7.62
   5  -7  -6   97.55   19.38
   5  -7  -6   59.38   11.26
   5  -7  -7    7.22    5.32
   5  -7  -7    6.25    2.64
   5  -7  -8   41.44   14.18
   5  -7  -8   35.64   11.07
   5  -7  -9  281.17   31.41
   5  -7  -9  250.75   26.57
   5  -7 -10   54.75   13.21
   5  -7 -10   30.24    9.72
   5  -7 -11   73.54   15.83
   5  -7 -11   44.85   14.08
   5  -7 -12   18.69    9.45
   5  -7 -13   11.56    7.11
   5  -7 -13    7.82    2.87
   6   7  -7   76.02   24.63
   6  -7   7   90.99   29.33
   6   7  -6   11.68    4.45
   6  -7   6   20.10    7.78
   6   7  -5    6.29    3.64
   6  -7   5   11.23    4.61
   6   7  -4    6.76    3.88
   6  -7   4   14.00    6.37
   6  -7   3   24.60   10.41
   6   7  -2   91.06   13.47
   6  -7   2   89.25   12.65
   6   7  -1  131.73   17.52
   6  -7   1   89.44   13.28
   6   7   0   15.20    3.88
   6  -7   0   16.96    8.09
   6   7   1  102.83   13.63
   6  -7  -1  128.31   18.52
   6   7   2   58.72    8.63
   6  -7  -2  114.65   17.94
   6   7   3   35.16   12.81
   6  -7  -3   68.95   13.41
   6  -7  -4   13.15    6.60
   6  -7  -5   14.11    7.56
   6  -7  -6   24.62   12.37
   6  -7  -7  133.02   42.13
   0   8 -21   12.59    5.69
   0  -8  21    3.72    3.28
   0   8 -20   23.18   10.41
   0  -8  20   12.93    4.24
   0   8 -19   36.60   11.93
   0  -8  19   15.99    5.01
   0   8 -18   10.68    5.33
   0  -8  18    6.29    3.64
   0   8 -17   60.51   17.06
   0  -8  17   54.56   10.72
   0   8 -16   10.32    5.30
   0  -8  16   12.38    4.55
   0   8 -15  386.37   43.39
   0  -8  15  396.40   31.91
   0   8 -14    6.87    3.97
   0  -8  14   17.04    7.30
   0   8 -13  302.09   41.39
   0  -8  13  257.22   30.14
   0   8 -12   19.69    5.22
   0  -8  12    5.53    3.59
   0   8 -11    5.61    3.97
   0  -8  11   12.45    4.71
   0   8 -10  276.94   28.19
   0  -8  10  262.09   17.17
   0   8  -9    8.04    2.80
   0  -8   9   14.69    5.06
   0   8  -8  695.55   60.53
   0  -8   8  678.16   47.14
   0   8  -7   50.31    8.73
   0  -8   7   55.72    8.95
   0   8  -6  165.43   17.49
   0  -8   6  152.45   13.61
   0   8  -5  284.84   30.05
   0  -8   5  274.12   22.26
   0   8  -4  168.21   23.40
   0  -8   4  185.87   15.97
   0   8  -3  142.51   15.18
   0  -8   3  120.63   10.11
   0   8  -2  142.30   20.63
   0  -8   2  118.24   17.01
   0   8  -1   94.77   14.72
   0  -8   1  113.11   15.10
   0   8   0   18.72    3.80
   0  -8   0   16.31    4.32
   0   8   1   92.53   16.88
   0  -8  -1  105.97   14.80
   0   8   2  102.24   21.26
   0  -8  -2  107.83   14.80
   0   8   3   96.34   12.86
   0  -8  -3  118.21   16.99
   0  -8  -4  184.98   16.39
   0  -8  -5  266.03   22.15
   0  -8  -6  196.04   17.54
   0  -8  -7   68.52   11.52
   0  -8  -8  831.91   57.77
   0  -8  -9    7.21    5.29
   0  -8 -10  294.37   16.80
   0  -8 -10  311.49   20.34
   0  -8 -11    4.07    2.13
   0  -8 -11   12.11    5.37
   0  -8 -12    5.13    2.03
   0  -8 -12   13.98    4.85
   0  -8 -13  303.02   35.59
   0  -8 -14   26.73   11.08
   0  -8 -15  357.14   29.41
   0  -8 -16   14.29    5.85
   0  -8 -17   68.39   14.70
   0  -8 -18   18.69   10.07
   0  -8 -19   35.83   12.41
   0  -8 -20   16.26    7.53
   0  -8 -21   25.07   10.07
  -1   8 -20   57.45   13.98
   1   8 -20   79.38   17.91
   1  -8  20   61.68    9.71
  -1  -8  20   63.04   10.07
  -1   8 -19   63.49   17.39
   1   8 -19   46.90   16.08
   1  -8  19   67.51   14.70
  -1  -8  19   53.80   11.45
  -1   8 -18   15.34    4.82
   1   8 -18   34.57   13.81
   1  -8  18   27.74    9.45
  -1  -8  18   41.18   13.29
  -1   8 -17   47.59   16.87
   1   8 -17   20.97    8.59
   1  -8  17   41.15   13.90
  -1  -8  17   35.40   12.22
  -1   8 -16   19.91    7.10
   1   8 -16   19.19    8.39
   1  -8  16   18.76    5.27
  -1  -8  16   19.11    7.78
  -1   8 -15   70.17   20.02
   1   8 -15   84.17   19.61
   1  -8  15   97.83   11.13
  -1  -8  15   72.97   19.41
  -1   8 -14    1.46    2.90
   1   8 -14   14.32    6.37
   1  -8  14    6.84    3.91
  -1  -8  14   12.61    5.51
  -1   8 -13  261.03   47.19
   1   8 -13  241.24   36.01
   1  -8  13  228.38   27.01
  -1  -8  13  221.23   26.52
  -1   8 -12   18.28    4.10
   1   8 -12   11.18    4.07
   1  -8  12   16.24    4.44
  -1  -8  12   24.71    5.51
  -1   8 -11   40.65    7.27
   1   8 -11   36.84    6.01
   1  -8  11   30.30    4.81
  -1  -8  11   33.68    5.06
  -1   8 -10   60.98   14.06
   1   8 -10   60.87   12.48
   1  -8  10   71.53    9.95
  -1  -8  10   73.25   10.27
  -1   8  -9   53.11    9.82
   1   8  -9   45.99    9.50
   1  -8   9   54.19    8.83
  -1  -8   9   33.73    6.33
  -1   8  -8  123.73   20.29
   1   8  -8  148.64   23.40
   1  -8   8  124.55   11.21
  -1  -8   8  134.35   12.21
  -1   8  -7  425.18   34.49
   1   8  -7  410.48   42.24
   1  -8   7  384.66   27.93
  -1  -8   7  525.62   37.54
  -1   8  -6   74.69   14.03
   1   8  -6   38.38    7.78
   1  -8   6   62.79    9.69
  -1  -8   6   77.65   12.09
  -1   8  -5    3.84    2.61
   1   8  -5   21.85    5.80
   1  -8   5   11.26    4.60
  -1  -8   5   13.89    5.17
  -1   8  -4  106.88   20.21
   1   8  -4  109.35   17.47
   1  -8   4   93.28   13.60
  -1  -8   4  100.28   14.77
  -1   8  -3   70.01   13.63
   1   8  -3   67.87   11.48
   1  -8   3   80.71   12.00
  -1  -8   3   84.51   12.94
  -1   8  -2  106.72   15.87
   1   8  -2   80.13   15.06
   1  -8   2   77.56   11.92
  -1  -8   2   74.83   11.87
   1   8  -1   90.19   15.33
   1  -8   1   87.65   12.16
  -1  -8   1  112.62   15.49
   1   8   0   89.62   14.88
   1  -8   0  100.83   13.74
  -1  -8   0   78.50   11.28
   1   8   1   98.39   17.92
   1  -8  -1  115.28   16.47
  -1  -8  -1  110.89   15.06
   1   8   2   56.28   12.24
   1  -8  -2   60.27    9.48
  -1  -8  -2   72.03   11.39
   1   8   3   71.65   14.64
   1  -8  -3   85.95   12.73
  -1  -8  -3   84.72   13.23
   1   8   4   77.59   13.94
   1  -8  -4   91.59   13.55
  -1  -8  -4   93.51   13.90
   1   8   5   13.57    4.05
   1  -8  -5   14.27    4.31
  -1  -8  -5   23.40    6.92
   1   8   6   39.88    9.63
   1  -8  -6   84.04   13.01
  -1  -8  -6   75.33   12.48
   1  -8  -7  459.43   33.06
  -1  -8  -7  554.66   39.63
   1  -8  -8  146.11   12.75
  -1  -8  -8  191.89   16.21
   1  -8  -9   52.41    7.62
   1  -8  -9   39.96    6.76
  -1  -8  -9   61.86    9.26
   1  -8 -10   51.62    7.05
   1  -8 -10   51.59    8.28
  -1  -8 -10   63.70    9.93
   1  -8 -11   21.62    3.36
   1  -8 -11   33.24    7.05
  -1  -8 -11   33.24    6.31
   1  -8 -12   13.21    3.00
   1  -8 -12   13.09    4.36
  -1  -8 -12   19.59    6.68
   1  -8 -13  217.47   24.84
   1  -8 -13  227.94   27.17
  -1  -8 -13  254.24   30.43
   1  -8 -14   17.38    8.36
  -1  -8 -14   17.52    8.83
   1  -8 -15   82.76   10.14
  -1  -8 -15   52.26   14.53
   1  -8 -16   11.07    4.29
  -1  -8 -16   17.07    7.50
   1  -8 -17   25.08    9.72
  -1  -8 -17   66.78   13.45
   1  -8 -18   17.73    6.95
  -1  -8 -18   26.68   10.07
   1  -8 -19   73.97   15.36
  -1  -8 -19   58.78   13.04
   1  -8 -20   97.59   14.21
  -1  -8 -20  100.93   15.18
  -2   8 -20   12.88    6.10
   2   8 -20   16.96    8.35
   2  -8  20   14.43    6.21
  -2  -8  20   38.25   13.68
  -2   8 -19   15.99    6.95
   2   8 -19    1.33    6.17
   2  -8  19   10.04    4.44
  -2  -8  19   15.23    6.45
  -2   8 -18  137.16   26.73
   2   8 -18  124.12   31.54
   2  -8  18   95.98   18.48
  -2  -8  18  185.59   35.61
  -2   8 -17   21.90    9.11
   2   8 -17   17.56    7.38
   2  -8  17   22.87    8.17
  -2  -8  17   19.11    7.61
  -2   8 -16   12.69    5.06
   2   8 -16   20.26    8.78
   2  -8  16   17.80    6.90
  -2  -8  16    8.38    5.06
  -2   8 -15   76.63   19.14
   2   8 -15   41.44   14.91
   2  -8  15   47.57   14.88
  -2  -8  15   52.18   13.89
  -2   8 -14   33.03    9.87
   2   8 -14   28.27    6.70
   2  -8  14   23.56    5.56
  -2  -8  14   41.66   12.70
  -2   8 -13   17.06    8.73
   2   8 -13   19.40    8.20
   2  -8  13    8.59    4.16
  -2  -8  13   13.81    6.94
  -2   8 -12  179.73   17.51
   2   8 -12  175.07   23.87
   2  -8  12  158.80   14.69
  -2  -8  12  194.72   18.44
  -2   8 -11  110.63   14.91
   2   8 -11   95.21   18.40
   2  -8  11   97.79   12.51
  -2  -8  11  134.32   18.29
  -2   8 -10    8.75    4.50
   2   8 -10   21.77    6.18
   2  -8  10   18.37    4.36
  -2  -8  10   14.80    5.08
   2   8  -9   39.58    7.69
   2  -8   9   36.31    4.45
  -2  -8   9   57.21    9.64
   2   8  -8   85.58   16.50
   2  -8   8   85.26   11.23
  -2  -8   8   96.20   13.65
   2   8  -7  593.75   48.50
   2  -8   7  539.42   30.87
  -2  -8   7  580.88   33.48
   2   8  -6   95.82   18.32
   2  -8   6  102.53   16.82
  -2  -8   6  105.43   17.73
   2   8  -5  356.19   41.66
   2  -8   5  318.62   23.48
  -2  -8   5  381.82   28.09
   2   8  -4   53.51   11.52
   2  -8   4   38.06    7.29
  -2  -8   4   62.50   11.80
   2   8  -3   53.18   13.21
   2  -8   3   44.75    8.33
  -2  -8   3   37.37    9.07
   2   8  -2  437.05   44.22
   2  -8   2  369.68   29.10
  -2  -8   2  424.70   33.49
   2   8  -1   64.36   12.00
   2  -8   1   43.62    7.45
  -2  -8   1   45.75    8.28
   2   8   0   19.06    5.01
   2  -8   0   33.80    6.92
  -2  -8   0   23.29    7.46
   2   8   1   50.65    9.69
   2  -8  -1   55.15    8.86
  -2  -8  -1   68.76   12.08
   2   8   2  301.03   31.39
   2  -8  -2  337.79   27.20
  -2  -8  -2  414.27   32.64
   2   8   3   37.93    9.45
   2  -8  -3   58.22   10.52
  -2  -8  -3   55.00   10.68
   2   8   4   33.33    7.99
   2  -8  -4   53.45   10.11
  -2  -8  -4   69.69   13.50
   2   8   5  251.44   27.29
   2  -8  -5  316.17   23.75
  -2  -8  -5  342.07   25.69
   2   8   6   66.66   14.00
   2  -8  -6   94.84   16.02
  -2  -8  -6  127.83   12.35
   2   8   7  462.53   25.40
   2  -8  -7  622.34   35.08
   2  -8  -7  576.96   33.60
  -2  -8  -7  670.41   37.98
   2   8   8   50.81   11.72
   2  -8  -8   90.42   12.43
   2  -8  -8   86.80   11.88
  -2  -8  -8  105.95   14.24
   2  -8  -9   43.90    4.92
   2  -8  -9   31.81    5.94
  -2  -8  -9   54.23    8.67
   2  -8 -10   20.53    5.46
   2  -8 -10    8.63    3.57
  -2  -8 -10   11.84    4.74
   2  -8 -11  118.13   15.02
   2  -8 -11   89.41   12.09
  -2  -8 -11  112.28   15.62
   2  -8 -12  181.41   16.13
   2  -8 -12  173.36   16.55
  -2  -8 -12  190.03   17.86
   2  -8 -13   23.71    8.78
   2  -8 -13   23.77    8.99
  -2  -8 -13   20.57    8.59
   2  -8 -14   36.12   10.38
   2  -8 -14   33.04   10.09
  -2  -8 -14   24.41    6.65
   2  -8 -15   42.56   13.47
   2  -8 -15   41.87   13.74
  -2  -8 -15   61.27   15.66
   2  -8 -16    8.59    4.31
  -2  -8 -16    6.29    3.96
   2  -8 -17   34.74   11.36
  -2  -8 -17   19.43    7.59
   2  -8 -18  121.96   23.53
  -2  -8 -18  108.77   21.09
   2  -8 -19   20.65    9.15
  -2  -8 -19    6.57    4.20
   2  -8 -20    9.00    4.97
  -2  -8 -20   22.12    8.92
   3   8 -18   15.09    7.48
   3  -8  18    5.75    3.81
  -3  -8  18   20.13    7.91
   3   8 -17   51.83   16.96
   3  -8  17   41.29   14.83
  -3  -8  17   49.01    9.56
   3   8 -16   31.46   12.29
   3  -8  16   23.63    7.83
  -3  -8  16   32.24   10.81
   3   8 -15   21.13    8.55
   3  -8  15   15.47    4.73
  -3  -8  15   22.52    9.40
   3   8 -14   78.39   14.90
   3  -8  14   68.59   12.59
  -3  -8  14   87.81   17.65
   3   8 -13   57.13   11.77
   3  -8  13   51.82    9.59
  -3  -8  13   33.44   11.76
   3   8 -12    4.63    4.18
   3  -8  12    0.43    2.10
  -3  -8  12   25.45    9.99
   3   8 -11   46.40   12.80
   3  -8  11   34.04    9.45
  -3  -8  11   66.71   18.05
   3   8 -10   74.19   10.67
   3  -8  10   34.42   11.50
  -3  -8  10   57.25    8.18
   3   8  -9   47.36   16.03
   3  -8   9   49.01   16.07
  -3  -8   9   82.86    9.85
   3   8  -8   17.68    8.33
   3  -8   8   17.39    7.19
  -3  -8   8   12.27    6.57
   3   8  -7  124.12   16.10
   3  -8   7  172.52   20.37
  -3  -8   7  157.08   19.73
   3   8  -6  107.72   10.80
   3  -8   6  101.07    9.53
  -3  -8   6  130.78   12.67
   3   8  -5  209.35   17.64
   3  -8   5  194.29   16.00
  -3  -8   5  226.82   19.00
   3   8  -4  327.31   25.63
   3  -8   4  313.73   24.14
  -3  -8   4  322.19   25.40
   3   8  -3   12.91    4.37
  -3  -8   3   24.11    5.67
   3   8  -2   71.52    9.82
   3  -8   2   93.65   12.06
  -3  -8   2   83.45   11.52
   3   8  -1  152.44   11.72
   3  -8   1  134.77   10.03
  -3  -8   1  156.97   12.57
   3   8   0  249.39   19.36
   3  -8   0  252.75   16.11
  -3  -8   0  258.22   16.85
   3   8   1  166.40   17.65
   3  -8  -1  154.68   11.05
  -3  -8  -1  160.78   12.00
   3   8   2   79.48   12.19
   3  -8  -2   85.39   11.24
  -3  -8  -2   95.45   12.70
   3   8   3   16.99    3.19
   3  -8  -3   28.32    5.00
  -3  -8  -3   23.58    5.29
   3   8   4  293.50   35.78
   3  -8  -4  330.04   26.41
   3  -8  -4  291.40   23.00
  -3  -8  -4  329.96   26.17
   3   8   5  182.77   25.45
   3  -8  -5  210.36   17.94
   3  -8  -5  199.46   17.25
  -3  -8  -5  227.99   18.92
   3   8   6   89.50   12.38
   3  -8  -6  111.46   11.29
   3  -8  -6  133.25   12.62
  -3  -8  -6  133.01   12.72
   3   8   7  117.68   20.12
   3  -8  -7  170.89   20.98
   3  -8  -7  170.60   20.58
  -3  -8  -7  165.59   20.21
   3  -8  -8   19.65    9.99
   3  -8  -8   12.27    5.69
  -3  -8  -8   12.22    6.31
   3  -8  -9   64.92    8.26
   3  -8  -9   60.42    8.25
  -3  -8  -9   77.67    9.34
   3  -8 -10   53.64    7.94
   3  -8 -10   25.28    9.27
  -3  -8 -10   44.35   15.17
   3  -8 -11   45.70   12.54
   3  -8 -11   41.58   11.47
  -3  -8 -11   54.60   15.28
   3  -8 -12   13.85    6.87
  -3  -8 -12   15.58    6.45
   3  -8 -13   63.43   13.28
   3  -8 -13   46.87   15.44
   3  -8 -14   97.80   17.81
   3  -8 -14   62.32   12.13
  -3  -8 -14  103.63   18.96
   3  -8 -15   32.27   11.16
   3  -8 -15   36.94   12.27
  -3  -8 -15   34.69   11.58
   3  -8 -16   22.06    8.30
   3  -8 -16   21.30    7.86
  -3  -8 -16   32.34   10.83
   3  -8 -17   36.70   13.94
  -3  -8 -17   56.94    9.59
   3  -8 -18   14.06    5.86
  -3  -8 -18    7.64    4.02
   4   8 -15    0.21    3.78
  -4  -8  15    6.18    4.52
   4   8 -14    6.86    3.91
  -4  -8  14    5.81    4.16
   4   8 -13    5.00    3.72
  -4  -8  13   12.01    4.81
   4   8 -12   42.96   13.61
  -4  -8  12   71.87   10.60
   4   8 -11   17.17    6.76
  -4  -8  11    2.95    3.84
   4   8 -10    6.90    4.23
  -4  -8  10   24.47    8.99
   4   8  -9    3.94    3.32
   4  -8   9   22.39    7.78
  -4  -8   9   15.66    6.41
   4   8  -8  130.46   30.40
   4  -8   8   97.37   22.47
  -4  -8   8  115.89   27.17
   4   8  -7   46.29   14.86
   4  -8   7   42.72   13.21
  -4  -8   7   37.91   12.54
   4   8  -6  203.92   17.96
   4  -8   6  199.22   16.48
  -4  -8   6  201.61   17.46
   4   8  -5   45.10   12.54
   4  -8   5   66.76   17.07
  -4  -8   5   77.96   20.09
   4   8  -4   12.01    6.26
   4  -8   4   22.12    8.09
  -4  -8   4   30.30    7.18
   4   8  -3   52.55    7.83
   4  -8   3   51.50    8.99
  -4  -8   3   78.69    8.97
   4   8  -2   77.67    8.70
   4  -8   2   63.00    6.94
  -4  -8   2   72.83    8.67
   4   8  -1  101.45   10.44
   4  -8   1  134.75   12.73
  -4  -8   1  125.67   13.84
   4   8   0   22.55    8.04
   4  -8   0   40.81   14.50
   4  -8   0   31.76   10.65
  -4  -8   0   40.59   13.98
   4   8   1   90.64    9.11
   4  -8  -1  128.41   13.79
   4  -8  -1  121.49   11.48
  -4  -8  -1  129.39   12.53
   4   8   2   74.30    7.98
   4  -8  -2   69.85    9.47
   4  -8  -2   80.71    8.41
  -4  -8  -2   65.01    7.64
   4   8   3   72.83    8.06
   4  -8  -3   71.25   10.36
   4  -8  -3   56.14    6.76
  -4  -8  -3   89.06   10.11
   4   8   4   23.43    5.22
   4  -8  -4    8.25    5.64
   4  -8  -4   18.98    7.13
  -4  -8  -4    6.05    3.27
   4   8   5   56.86   14.66
   4  -8  -5   86.83   10.68
   4  -8  -5   77.88   20.17
  -4  -8  -5   63.99   16.74
   4  -8  -6  210.00   18.90
   4  -8  -6  191.25   16.40
  -4  -8  -6  199.46   17.56
   4  -8  -7   58.14   15.04
   4  -8  -7   59.20   14.64
  -4  -8  -7   55.76   14.11
   4  -8  -8  169.61   39.90
   4  -8  -8  100.06   23.40
  -4  -8  -8  123.80   28.59
   4  -8  -9   10.52    6.90
   4  -8  -9   12.67    4.45
  -4  -8  -9    3.01    4.13
   4  -8 -10   48.45   16.64
   4  -8 -10   24.15    8.65
  -4  -8 -10    8.83    3.48
   4  -8 -11   29.47   10.88
   4  -8 -11   15.06    4.77
  -4  -8 -11   29.12    9.56
   4  -8 -12   59.50   10.20
   4  -8 -12   38.25   11.74
  -4  -8 -12   50.69    7.99
   4  -8 -13   15.75    6.58
   4  -8 -13    9.93    4.34
  -4  -8 -13   13.82    4.93
   4  -8 -14   16.66    9.03
   4  -8 -14    2.87    2.92
  -4  -8 -14    4.89    3.12
   4  -8 -15    5.53    3.89
   4  -8 -15    5.57    3.46
  -4  -8 -15   -0.74    3.01
   5   8 -11   97.93   19.45
  -5  -8  11  119.92   22.34
   5   8 -10    0.59    3.09
  -5  -8  10   13.58    4.79
   5   8  -9   63.11   10.01
  -5  -8   9   34.98   12.97
   5   8  -8   54.31   10.03
  -5  -8   8   39.27   14.59
   5   8  -7   53.05   11.37
  -5  -8   7   37.69   11.79
   5   8  -6   48.20   11.07
   5  -8   6   29.65   10.54
  -5  -8   6   38.67   12.45
   5  -8   5   11.66    4.48
  -5  -8   5   10.35    4.81
   5   8  -4   95.40   12.53
   5  -8   4  104.90   13.39
  -5  -8   4   82.97   11.15
   5   8  -3   38.63   12.00
   5  -8   3   50.02    8.84
  -5  -8   3   44.93    7.94
   5   8  -2   20.07    7.75
   5  -8   2   44.78   10.32
  -5  -8   2   17.70    5.09
   5   8  -1    8.31    3.62
   5  -8   1   16.48    5.99
  -5  -8   1    3.52    2.77
   5   8   0   53.67    7.69
   5  -8   0   83.19   12.21
  -5  -8   0   80.84   10.48
   5   8   1    5.77    3.08
   5  -8  -1    8.95    6.01
  -5  -8  -1    3.17    2.74
   5   8   2   31.94   10.15
   5  -8  -2   41.98   14.06
  -5  -8  -2   28.62    9.40
   5   8   3   31.49   10.04
   5  -8  -3   70.89   12.45
  -5  -8  -3   38.57   11.79
   5  -8  -4  133.25   17.33
  -5  -8  -4   85.10   10.89
   5  -8  -5   12.35    6.52
   5  -8  -5    6.39    3.16
  -5  -8  -5    3.35    2.31
   5  -8  -6   50.07   12.09
   5  -8  -6   23.06    7.48
   5  -8  -7   50.42   12.17
   5  -8  -7   26.43    8.63
   5  -8  -8   66.26   11.32
   5  -8  -8   22.54    8.54
   5  -8  -9   68.83   13.07
   5  -8  -9   41.66   14.96
   5  -8 -10    9.08    5.54
   5  -8 -10    5.03    2.88
   5  -8 -11  110.23   21.80
   5  -8 -11   90.61   17.28
   0   9 -19   14.13    6.13
   0  -9  19   13.12    4.50
   0   9 -18   91.89   30.19
   0  -9  18  147.17   18.96
   0   9 -17  215.34   43.17
   0  -9  17  181.59   33.72
   0   9 -16   13.20    6.10
   0  -9  16   12.69    5.49
   0   9 -15   32.47   13.26
   0  -9  15   23.18    8.57
   0   9 -14   45.02   16.59
   0  -9  14   46.00   14.62
   0   9 -13   27.45    8.43
   0  -9  13   33.51    9.87
   0   9 -12  243.00   32.93
   0  -9  12  252.99   22.46
   0   9 -11   54.46    9.19
   0  -9  11   58.32    8.02
   0   9 -10   24.25   10.94
   0  -9  10   18.32    8.31
   0   9  -9   11.93    5.19
   0  -9   9   15.10    4.04
   0   9  -8   42.21    8.06
   0  -9   8   61.20    7.32
   0   9  -7    4.61    2.77
   0  -9   7    1.55    3.09
   0   9  -6  439.93   42.80
   0  -9   6  420.26   25.44
   0   9  -5    6.09    4.05
   0  -9   5    3.68    3.17
   0   9  -4   13.09    5.01
   0  -9   4    0.35    3.19
   0   9  -3   51.45   10.83
   0  -9   3   78.07   13.55
   0   9  -2  373.73   33.67
   0  -9   2  409.48   29.81
   0   9  -1    6.65    3.96
   0   9   0    5.81    2.92
   0  -9   0    7.21    4.89
   0   9   1    5.78    4.85
   0  -9  -1    3.70    3.32
   0   9   2  400.51   28.72
   0  -9  -2  373.03   27.33
   0  -9  -3   66.14   11.98
   0  -9  -4   21.11    5.73
   0  -9  -5   13.33    4.34
   0  -9  -6  483.95   28.88
   0  -9  -7   19.56    6.29
   0  -9  -8   48.40    6.81
   0  -9  -9   21.88    6.79
   0  -9 -10    8.87    5.64
   0  -9 -11   81.88   10.09
   0  -9 -12  317.82   28.40
   0  -9 -13   44.86   13.44
   0  -9 -14   56.41   14.70
   0  -9 -15   32.05   11.92
   0  -9 -16   44.27   10.01
   0  -9 -17  245.37   30.88
   0  -9 -18  188.32   23.72
   0  -9 -19   31.43   12.49
  -1   9 -19   56.86   18.26
   1   9 -19   70.73   27.79
   1  -9  19   74.37   15.49
  -1  -9  19   70.41   13.97
  -1   9 -18   12.21    5.14
   1   9 -18   11.34    5.61
   1  -9  18    9.47    3.33
  -1  -9  18   20.41    8.94
  -1   9 -17    9.29    5.59
   1   9 -17   19.88    4.93
   1  -9  17   17.54    5.53
  -1  -9  17   18.53    5.35
  -1   9 -16   56.69   11.74
   1   9 -16   52.04    9.42
   1  -9  16   31.20    9.98
  -1  -9  16   41.76   13.71
  -1   9 -15   27.84   10.28
   1   9 -15   26.76    9.82
   1  -9  15   41.45   14.19
  -1  -9  15   17.43    5.05
  -1   9 -14   71.85   19.41
   1   9 -14   68.33   19.33
   1  -9  14   57.12   13.98
  -1  -9  14   61.39   15.30
  -1   9 -13   58.05   17.83
   1   9 -13   61.91   15.52
   1  -9  13   53.91   13.36
  -1  -9  13   89.87   21.82
  -1   9 -12   36.12   11.72
   1   9 -12   49.91   14.10
   1  -9  12   34.79    9.96
  -1  -9  12   35.13   10.30
  -1   9 -11   29.22   11.45
   1   9 -11   38.73   15.84
   1  -9  11   46.90   16.34
  -1  -9  11   49.69   17.07
  -1   9 -10   36.74   14.80
   1   9 -10   51.45   17.01
   1  -9  10   51.13   17.20
  -1  -9  10   41.95   16.39
  -1   9  -9   62.88   12.08
   1   9  -9   69.39   13.82
   1  -9   9   81.93   11.13
  -1  -9   9   87.98   12.35
  -1   9  -8   64.73   11.20
   1   9  -8   60.77    8.99
   1  -9   8   72.96    8.89
  -1  -9   8   61.07    8.54
  -1   9  -7  159.45   19.49
   1   9  -7  186.92   25.82
   1  -9   7  188.62   16.07
  -1  -9   7  146.99   13.60
  -1   9  -6  208.93   28.25
   1   9  -6  237.17   30.08
   1  -9   6  236.27   15.91
  -1  -9   6  272.86   18.28
  -1   9  -5   26.59    5.54
   1   9  -5   29.97    6.20
   1  -9   5   20.42    4.84
  -1  -9   5   31.76    6.74
  -1   9  -4  589.77   39.35
   1   9  -4  637.39   43.70
   1  -9   4  607.60   34.74
  -1  -9   4  656.34   37.50
  -1   9  -3   25.04    6.86
   1   9  -3   41.55    8.09
   1  -9   3   14.56    5.53
  -1  -9   3   46.23   11.16
  -1   9  -2   18.16    6.98
   1   9  -2   12.13    3.86
   1  -9   2   23.91    6.10
  -1  -9   2   26.09    9.10
   1   9  -1   74.34   14.50
   1  -9   1   72.05   12.32
  -1  -9   1  110.06   11.42
   1   9   0   14.56    4.73
   1  -9   0   20.79    6.29
  -1  -9   0   29.34    9.32
   1   9   1   66.95   16.21
   1  -9  -1  111.42   10.54
  -1  -9  -1   94.41   16.23
   1   9   2   10.36    4.85
   1  -9  -2   14.70    5.59
  -1  -9  -2   27.26    7.03
   1   9   3   16.58    3.60
   1  -9  -3   16.56    4.66
  -1  -9  -3   11.50    4.20
   1   9   4  530.67   31.75
   1  -9  -4  632.38   36.38
  -1  -9  -4  675.00   38.59
   1   9   5   22.01    5.53
   1  -9  -5   29.89    6.34
  -1  -9  -5   36.07    6.95
   1   9   6  198.68   12.51
   1  -9  -6  255.49   17.56
  -1  -9  -6  279.12   18.63
   1  -9  -7  163.42   15.04
  -1  -9  -7  225.24   19.40
   1  -9  -8   85.13   10.17
  -1  -9  -8  111.19   12.80
   1  -9  -9   81.99   10.70
   1  -9  -9  102.16   13.97
  -1  -9  -9   93.20   14.02
   1  -9 -10   60.87    8.54
   1  -9 -10   63.94   10.52
  -1  -9 -10   66.84   11.26
   1  -9 -11   38.15   12.80
   1  -9 -11   32.98   11.77
  -1  -9 -11   36.65   13.18
   1  -9 -12   46.05   12.11
   1  -9 -12   45.18   12.61
  -1  -9 -12   44.48   12.85
   1  -9 -13   42.83   13.85
  -1  -9 -13   68.87   16.96
   1  -9 -14   77.94   19.01
  -1  -9 -14   56.69   14.38
   1  -9 -15   29.36   10.54
  -1  -9 -15   44.00   15.99
   1  -9 -16   43.97    8.70
  -1  -9 -16   46.66    8.41
  -1  -9 -17   17.78    5.41
   1  -9 -17   21.26    8.47
   1  -9 -18    4.37    4.31
  -1  -9 -18   10.64    6.36
   1  -9 -19  126.38   23.71
  -1  -9 -19  119.52   22.46
  -2   9 -18    5.00    4.28
   2   9 -18    8.35    4.26
   2  -9  18    2.85    2.92
  -2  -9  18    5.19    4.66
  -2   9 -17    2.92    5.53
   2   9 -17    9.16    6.57
   2  -9  17   12.61    4.56
  -2  -9  17   12.51    6.76
  -2   9 -16    6.97    4.36
   2   9 -16   19.30    6.92
   2  -9  16   10.64    3.59
  -2  -9  16   18.95    5.94
  -2   9 -15   78.87   11.53
   2   9 -15   96.04   19.57
   2  -9  15   99.26   12.49
  -2  -9  15  129.04   16.74
  -2   9 -14    4.50    6.21
   2   9 -14   -1.15    3.84
   2  -9  14    1.73    2.75
  -2  -9  14   11.34    5.01
  -2   9 -13   90.35   17.27
   2   9 -13   52.60   13.17
   2  -9  13   69.21   13.15
  -2  -9  13   60.37   12.41
  -2   9 -12   77.62   19.20
   2   9 -12   81.62   21.30
   2  -9  12   38.36   12.11
  -2  -9  12   73.04   18.00
  -2   9 -11   96.47   11.53
   2   9 -11   98.41   17.15
   2  -9  11   71.52   18.48
  -2  -9  11   54.72   15.34
   2   9 -10   18.00    5.09
   2  -9  10   24.92    5.89
  -2  -9  10   27.10    8.06
   2   9  -9   59.42   10.56
   2  -9   9   78.02    8.67
  -2  -9   9   74.00    9.58
   2   9  -8  297.81   43.01
   2  -9   8  256.50   29.84
  -2  -9   8  319.67  101.60
   2   9  -7   -3.40    3.65
   2  -9   7    7.70    5.17
  -2  -9   7   11.12    7.37
   2   9  -6   11.34    4.26
   2  -9   6   12.32    4.45
  -2  -9   6   14.32    6.20
   2   9  -5  105.30   14.37
   2  -9   5  100.46    9.93
  -2  -9   5   88.85   10.25
   2   9  -4  130.01   18.16
   2  -9   4  138.65   12.37
  -2  -9   4  153.89   14.18
   2   9  -3  177.26   24.15
   2  -9   3  214.17   17.97
  -2  -9   3  210.42   17.81
   2   9  -2   27.23    5.64
   2  -9   2   22.62    3.86
  -2  -9   2   28.56    6.29
   2   9  -1  348.84   29.87
   2  -9   1  373.64   22.65
  -2  -9   1  390.09   23.98
   2   9   0  121.72   18.24
   2  -9   0  160.19   12.01
  -2  -9   0  143.00   11.84
   2   9   1  292.08   31.23
   2  -9  -1  354.54   21.85
  -2  -9  -1  438.51   26.68
   2  -9  -2   31.89    4.56
  -2  -9  -2   41.07    5.99
   2   9   3  178.59   23.66
   2  -9  -3  212.13   18.05
  -2  -9  -3  231.16   19.46
   2   9   4  103.33   16.16
   2  -9  -4  152.07   14.48
  -2  -9  -4  193.01   17.62
   2   9   5   60.13   12.91
   2  -9  -5   83.15    9.03
  -2  -9  -5   98.43   10.68
   2   9   6    6.33    2.26
   2  -9  -6   12.57    3.46
  -2  -9  -6    2.58    4.13
   2   9   7    2.93    2.55
   2  -9  -7    2.92    3.51
   2  -9  -7    7.96    4.58
  -2  -9  -7   24.54   11.58
   2  -9  -8  354.26  112.31
   2  -9  -8  264.13   31.07
  -2  -9  -8  289.27   33.86
   2  -9  -9   86.27   10.12
  -2  -9  -9   92.90   10.81
   2  -9 -10   25.71    6.55
   2  -9 -10   56.89   15.92
  -2  -9 -10   45.36   13.76
   2  -9 -11   89.67    9.71
   2  -9 -11   81.21    9.32
  -2  -9 -11  113.63   11.80
   2  -9 -12   87.05   20.45
   2  -9 -12   65.57   16.03
  -2  -9 -12  116.72   28.13
   2  -9 -13   63.70   11.76
   2  -9 -13   61.27   12.59
  -2  -9 -13   66.17   12.93
   2  -9 -14   15.73    6.34
  -2  -9 -14   13.73    6.04
   2  -9 -15   95.85   13.04
  -2  -9 -15  129.24   16.47
   2  -9 -16    3.83    3.62
  -2  -9 -16   11.07    4.71
   2  -9 -17   11.00    5.56
  -2  -9 -17   20.18    9.27
   2  -9 -18   13.92    5.09
  -2  -9 -18   12.03    4.85
   3   9 -16   47.24   10.06
   3  -9  16   19.12    6.97
  -3  -9  16   35.86   12.96
   3   9 -15   59.47   14.05
   3  -9  15   58.42    8.47
  -3  -9  15   46.45    9.21
   3   9 -14   34.74   14.82
   3  -9  14   35.40   12.78
  -3  -9  14   53.32    9.43
   3   9 -13   61.84   15.86
   3  -9  13   94.57   18.13
  -3  -9  13  137.78   26.72
   3   9 -12   27.29    9.18
   3  -9  12   35.53   10.97
  -3  -9  12   51.38    8.71
   3   9 -11   18.60    7.34
   3  -9  11   10.91    4.23
  -3  -9  11   15.47    7.32
   3   9 -10   11.85    5.29
   3  -9  10   19.81    7.30
   3   9  -9   25.15    9.51
   3  -9   9   11.60    4.34
  -3  -9   9    4.18    4.52
   3   9  -8   24.70    6.26
   3  -9   8   39.61   11.02
  -3  -9   8   41.97   12.09
   3   9  -7   53.55   16.50
   3  -9   7   44.30   11.95
  -3  -9   7   44.02   12.72
   3   9  -6  110.79   18.95
   3  -9   6  105.76   10.28
  -3  -9   6  132.56   13.04
   3   9  -5    5.41    4.76
   3  -9   5   18.13    6.92
  -3  -9   5   10.27    5.49
   3   9  -4   79.85   12.32
   3  -9   4   40.36   13.47
  -3  -9   4   64.95    8.54
   3   9  -3  152.60   19.83
   3  -9   3  160.94   14.86
  -3  -9   3  157.34   15.34
   3   9  -2   75.51   16.23
   3  -9   2   57.61    8.28
  -3  -9   2   87.25   13.25
   3   9  -1   32.18   12.65
   3  -9   1   21.42    8.86
  -3  -9   1   39.31   16.16
   3   9   0    6.49    3.83
   3  -9   0    8.06    4.10
  -3  -9   0   17.72    9.59
   3   9   1   25.56   10.83
   3  -9  -1   37.24   14.50
  -3  -9  -1   46.27   18.31
   3   9   2   60.08   12.73
   3  -9  -2   63.73    9.05
  -3  -9  -2   59.94   10.19
   3   9   3  113.76   14.06
   3  -9  -3  179.62   16.77
  -3  -9  -3  160.25   15.31
   3   9   4   54.56    7.98
   3  -9  -4   82.92   10.56
   3  -9  -4   61.54    7.69
  -3  -9  -4   77.04   10.38
   3   9   5    5.86    2.93
   3  -9  -5   10.41    5.61
   3  -9  -5    8.14    4.13
  -3  -9  -5    5.32    4.12
   3   9   6   82.22   12.88
   3  -9  -6  163.86   15.41
   3  -9  -6  119.92   11.88
  -3  -9  -6  127.02   12.56
   3  -9  -7   68.84   18.45
   3  -9  -7   66.25   17.78
  -3  -9  -7   84.20    9.42
   3  -9  -8   33.92   10.49
   3  -9  -8   23.10    5.97
  -3  -9  -8   18.85    6.18
   3  -9  -9   20.93    7.78
   3  -9  -9    9.34    3.81
  -3  -9  -9   43.62   14.86
   3  -9 -10   28.70   10.35
   3  -9 -10   20.36    7.90
  -3  -9 -10   25.64    9.77
   3  -9 -11   14.94    5.89
   3  -9 -11   10.09    4.89
  -3  -9 -11   18.87    8.44
   3  -9 -12   32.40   10.86
   3  -9 -12   42.30   13.29
  -3  -9 -12   41.87   13.84
   3  -9 -13  131.25   24.84
   3  -9 -13   88.72   17.36
  -3  -9 -13  135.25   26.19
   3  -9 -14   34.31   12.96
   3  -9 -14   48.77    8.30
  -3  -9 -14   42.03   10.09
   3  -9 -15   79.27   11.93
  -3  -9 -15   73.10   11.39
   3  -9 -16   35.65   12.43
  -3  -9 -16   47.56   11.08
   4   9 -13  138.63   25.82
  -4  -9  13  127.16   23.82
   4   9 -12   25.24    8.79
  -4  -9  12   35.38   11.64
   4   9 -11   14.51    6.45
  -4  -9  11   15.97    7.94
   4   9 -10   19.33    5.96
  -4  -9  10   11.39    4.40
   4   9  -9   28.82    9.96
  -4  -9   9   42.32   14.32
   4   9  -8   16.02    5.32
   4  -9   8   13.73    4.05
  -4  -9   8   17.88    6.13
   4   9  -7   54.96    8.73
   4  -9   7   71.63    9.18
  -4  -9   7   90.77   11.88
   4   9  -6   23.35    9.45
   4  -9   6   13.81    4.31
  -4  -9   6   19.99    7.94
   4   9  -5  203.87   34.41
   4  -9   5  225.03   41.42
  -4  -9   5  225.04   41.82
   4   9  -4   75.25   14.75
   4  -9   4   69.47   12.64
  -4  -9   4   70.25   14.70
   4   9  -3   33.41   11.69
   4  -9   3   15.22    4.81
  -4  -9   3   38.62   13.26
   4   9  -2   38.17   12.19
   4  -9   2   44.93   13.98
  -4  -9   2   41.12   13.44
   4   9  -1    5.45    3.22
   4  -9   1    3.99    2.95
  -4  -9   1   12.86    4.61
   4   9   0   86.80   20.52
   4  -9   0  124.44   29.66
   4  -9   0   76.88   18.12
   4   9   1    7.14    3.84
   4  -9  -1    9.37    7.10
   4  -9  -1   14.29    5.77
   4   9   2   50.28   16.19
   4  -9  -2   55.55   14.37
   4  -9  -2   33.68   11.32
  -4  -9  -2   62.82   15.38
   4   9   3   13.18    4.34
   4  -9  -3   30.30   11.40
   4  -9  -3   33.19   11.20
  -4  -9  -3   28.77   10.38
   4   9   4   53.67   12.37
   4  -9  -4  111.29   21.98
   4  -9  -4   67.67   12.33
  -4  -9  -4   67.51   12.59
   4  -9  -5  233.55   43.78
   4  -9  -5  187.72   31.59
  -4  -9  -5  236.99   43.98
   4  -9  -6   16.37    7.59
   4  -9  -6   25.80    9.26
  -4  -9  -6   22.44    8.75
   4  -9  -7  117.29   15.25
   4  -9  -7   72.54    9.80
  -4  -9  -7  106.02   13.21
   4  -9  -8   11.61    5.46
   4  -9  -8   35.80   11.80
  -4  -9  -8   24.99    8.91
   4  -9  -9   38.27   12.48
   4  -9  -9   15.57    5.00
  -4  -9  -9   21.72    8.09
   4  -9 -10   35.01   12.14
   4  -9 -10   26.54    9.00
  -4  -9 -10    4.68    3.68
   4  -9 -11   20.65    9.37
   4  -9 -11   31.47   12.35
  -4  -9 -11    8.55    3.84
   4  -9 -12   26.75    9.74
   4  -9 -12   16.39    6.21
  -4  -9 -12    8.15    3.33
   4  -9 -13   98.14   18.85
   4  -9 -13  108.55   20.55
  -4  -9 -13  115.36   21.78
   5   9  -7   11.26    5.49
  -5  -9   7   21.67    8.36
   5   9  -6   35.75   12.54
   5  -9   6   40.57    9.79
  -5  -9   6   45.39   10.03
   5   9  -5   44.83    9.88
   5  -9   5   21.27    7.88
  -5  -9   5   36.71    8.97
   5   9  -4   12.11    3.84
   5  -9   4   16.34    8.75
  -5  -9   4   16.16    7.29
   5   9  -3   13.39    4.05
   5  -9   3   54.33   10.51
  -5  -9   3   27.47   10.56
   5   9  -2    7.19    3.38
   5  -9   2    3.76    5.59
  -5  -9   2   10.91    4.74
   5   9  -1   54.04    8.79
   5  -9   1   81.19   13.33
  -5  -9   1   60.42    9.96
   5   9   0    4.58    2.88
   5  -9   0   -0.32    4.63
  -5  -9   0   15.06    5.72
   5   9   1   69.96   10.30
   5  -9  -1   80.26   12.64
  -5  -9  -1   69.77   10.68
   5   9   2    9.51    3.97
   5  -9  -2   12.70    5.96
  -5  -9  -2    6.98    4.29
   5  -9  -3   51.27   10.49
  -5  -9  -3   34.04   12.64
   5  -9  -4   15.73    5.96
  -5  -9  -4   17.33    7.00
   5  -9  -5   37.86   10.33
   5  -9  -6   43.94   11.29
   5  -9  -7   20.42    8.09
   5  -9  -7   18.47    6.37
   0  10 -17   31.62   12.17
   0 -10  17   40.01    9.27
   0  10 -16    8.22    3.59
   0 -10  16   10.65    3.94
   0  10 -15    9.32    5.03
   0 -10  15   11.68    4.34
   0  10 -14   79.51   20.53
   0 -10  14  102.09   13.33
   0  10 -13   -3.24    4.16
   0 -10  13    6.87    5.16
   0  10 -12    5.22    3.35
   0 -10  12   17.73    7.69
   0  10 -11   54.78   16.42
   0 -10  11   79.13   19.45
   0  10 -10  158.25   28.49
   0 -10  10  140.70   13.57
   0  10  -9   15.01    4.98
   0 -10   9   22.55    6.68
   0  10  -8    9.13    5.01
   0  10  -7   32.23   12.21
   0 -10   7   55.64    7.64
   0  10  -6   98.15   19.53
   0 -10   6  104.79   14.00
   0  10  -5   11.12    5.29
   0 -10   5    7.88    4.81
   0  10  -4   43.44   17.04
   0 -10   4   16.07    7.32
   0  10  -3  283.22   47.72
   0 -10   3  380.40   29.79
   0  10  -2    3.11    2.32
   0 -10   2   11.96    4.39
   0  10  -1    8.12    4.77
   0 -10   1    3.22    3.75
   0  10   0  117.71   19.77
   0 -10   0  166.69   14.93
   0  10   1    6.25    3.25
   0 -10  -1    5.61    4.85
   0  10   2   14.85    4.37
   0 -10  -2    6.78    5.05
   0 -10  -3  370.85   29.17
   0 -10  -4   36.52   14.66
   0 -10  -5   13.85    7.58
   0 -10  -6  123.48   16.51
   0 -10  -7   57.37    8.23
   0 -10  -8   37.26   14.26
   0 -10  -9   34.00   11.31
   0 -10 -10  179.43   17.75
   0 -10 -11   87.86   21.42
   0 -10 -12   -0.02    4.18
   0 -10 -13   14.00    7.14
   0 -10 -14  109.41   14.42
   0 -10 -15   12.05    5.77
   0 -10 -16   14.93    7.14
   0 -10 -17   62.79   14.48
  -1  10 -17   42.14   16.08
   1  10 -17   35.56   14.16
   1 -10  17   18.15    7.24
  -1 -10  17   33.27   11.74
  -1  10 -16   90.63   29.22
   1  10 -16  104.14   27.02
   1 -10  16  121.28   22.94
  -1 -10  16   94.77   17.99
  -1  10 -15   91.70   19.88
   1  10 -15   77.48   17.22
   1 -10  15   99.13   14.21
  -1 -10  15  109.77   14.88
  -1  10 -14   66.95   17.88
   1  10 -14   58.14   17.03
   1 -10  14   56.48   11.69
  -1 -10  14   97.72   19.11
  -1  10 -13    9.27    3.06
   1  10 -13    5.27    3.68
   1 -10  13    5.80    3.57
  -1 -10  13    5.93    4.02
  -1  10 -12  122.48   27.87
   1  10 -12   79.70   17.12
   1 -10  12  117.66   20.73
  -1 -10  12  105.39   19.08
  -1  10 -11    5.83    3.83
   1  10 -11    6.57    3.09
   1 -10  11   11.77    5.17
  -1 -10  11    7.10    5.43
  -1  10 -10    6.84    5.86
   1  10 -10   11.20    4.63
   1 -10  10    5.64    3.33
  -1 -10  10   21.19    8.33
  -1  10  -9    6.01    4.95
   1  10  -9    9.61    4.21
   1 -10   9    6.86    3.60
  -1 -10   9    9.26    5.03
  -1  10  -8   51.64   17.01
   1  10  -8   95.91   14.16
   1 -10   8   98.09   10.48
  -1 -10   8   65.72   17.46
  -1  10  -7   11.12    5.51
   1  10  -7    4.34    2.71
   1 -10   7   25.07    9.59
  -1 -10   7   10.03    5.29
  -1  10  -6    8.63    4.76
   1  10  -6    9.02    5.00
   1 -10   6   19.22    8.17
  -1 -10   6   11.72    7.06
  -1  10  -5  217.90   34.16
   1  10  -5  276.68   41.50
   1 -10   5  268.29   31.47
  -1 -10   5  337.25  107.17
  -1  10  -4   32.98   13.15
   1  10  -4   42.49   16.91
   1 -10   4   53.24   17.70
  -1 -10   4   75.71   12.29
  -1  10  -3  146.80   18.29
   1  10  -3  118.58   18.18
   1 -10   3  139.83   17.36
  -1 -10   3  168.85   20.95
   1  10  -2  220.93   44.74
   1 -10   2  287.72   33.51
  -1 -10   2  322.16  102.37
   1  10  -1  107.46   19.53
   1 -10   1  125.18   16.02
  -1 -10   1  167.89   21.32
   1  10   0    5.48    3.36
   1 -10   0    7.90    4.48
  -1 -10   0   36.20   15.22
   1 -10  -1  136.00   17.04
  -1 -10  -1  141.64   17.91
   1  10   2  186.12   36.73
   1 -10  -2  269.36   31.68
  -1 -10  -2  331.70  105.44
   1  10   3   84.14   19.62
   1 -10  -3  125.00   15.89
  -1 -10  -3  153.94   19.49
   1  10   4   47.20   18.60
   1 -10  -4   51.26   17.54
  -1 -10  -4   73.33   11.04
   1  10   5  227.25   26.24
   1 -10  -5  291.63   34.23
  -1 -10  -5  396.65  125.96
   1 -10  -6   16.99    7.19
  -1 -10  -6   12.56    6.21
   1 -10  -7   22.47    9.11
  -1 -10  -7   12.21    6.25
   1 -10  -8  120.03   12.38
  -1 -10  -8   99.47   11.05
   1 -10  -9    9.74    3.08
   1 -10  -9   15.07    5.49
  -1 -10  -9    5.22    4.15
   1 -10 -10   13.53    4.79
   1 -10 -10   17.25    6.20
  -1 -10 -10   11.55    6.41
   1 -10 -11    8.35    5.56
  -1 -10 -11   17.01    7.69
   1 -10 -12   94.41   17.35
  -1 -10 -12  129.08   23.10
   1 -10 -13    9.80    5.37
  -1 -10 -13   11.58    5.09
  -1 -10 -14  113.13   22.89
   1 -10 -14   63.70   13.28
   1 -10 -15  116.54   16.18
  -1 -10 -15  151.86   20.29
   1 -10 -16   95.66   18.44
  -1 -10 -16  140.49   26.94
   1 -10 -17   24.94    9.55
  -1 -10 -17   39.96   14.03
   2  10 -15   26.62    9.87
   2 -10  15   15.38    5.53
  -2 -10  15   24.84   10.46
   2  10 -14   23.98   10.57
   2 -10  14   27.12   10.32
  -2 -10  14   29.70   12.56
   2  10 -13   16.88    5.80
   2 -10  13   18.92    5.05
  -2 -10  13    2.56    4.92
   2  10 -12   45.51    8.39
   2 -10  12   51.59    8.01
  -2 -10  12   39.79   12.86
   2  10 -11   55.58   13.85
   2 -10  11   98.36   12.56
  -2 -10  11   69.19   10.24
   2  10 -10   13.18    5.65
   2 -10  10   14.78    4.97
  -2 -10  10   24.14   10.25
   2  10  -9   32.42   12.99
   2 -10   9   39.26   12.77
  -2 -10   9   40.75   13.66
   2  10  -8   17.73    5.59
   2 -10   8   20.98    7.46
  -2 -10   8   17.73    7.37
   2  10  -7  183.38   30.14
   2 -10   7  159.34   14.54
  -2 -10   7  206.21   18.85
   2  10  -6   44.50   13.71
   2 -10   6   48.63   13.18
  -2 -10   6   91.56   10.99
   2  10  -5  158.38   26.89
   2 -10   5  122.55   12.22
  -2 -10   5  192.75   18.26
   2  10  -4   42.93   15.71
   2 -10   4   36.81   13.20
  -2 -10   4   44.90   15.54
   2  10  -3  120.83   15.46
   2 -10   3  109.59   11.90
  -2 -10   3  104.24   11.61
   2  10  -2   37.59   13.02
   2 -10   2   33.68   11.84
  -2 -10   2   36.52   13.98
   2  10  -1   44.53   16.24
   2 -10   1   45.14   15.38
  -2 -10   1   55.90    8.92
   2  10   0  291.05   39.50
   2 -10   0  289.40   24.91
  -2 -10   0  410.57   34.84
   2  10   1   44.43   15.42
   2 -10  -1   52.01    6.97
  -2 -10  -1   86.69   10.57
   2  10   2   10.44    4.81
   2 -10  -2   22.22    8.57
  -2 -10  -2   23.87   10.22
   2  10   3   82.97   16.66
   2 -10  -3  140.28   14.10
  -2 -10  -3  149.76   15.07
   2  10   4   25.02    9.27
   2 -10  -4   50.02   16.95
  -2 -10  -4   44.24   15.65
   2  10   5   98.38   17.92
   2 -10  -5  160.21   15.20
  -2 -10  -5  148.96   14.29
   2  10   6   32.40   10.46
   2 -10  -6   86.13    9.85
  -2 -10  -6   92.53   11.13
   2 -10  -7  216.75   18.87
   2 -10  -7  195.01   17.54
  -2 -10  -7  259.51   22.68
   2 -10  -8   11.53    5.29
   2 -10  -8   10.11    4.60
  -2 -10  -8   16.66    7.24
   2 -10  -9   47.48   15.41
   2 -10  -9   50.66   11.08
  -2 -10  -9   53.39   13.98
   2 -10 -10    9.27    3.88
   2 -10 -10    6.70    4.45
  -2 -10 -10    5.45    5.75
   2 -10 -11   95.59   12.13
   2 -10 -11   79.72   11.20
  -2 -10 -11   69.87   10.12
   2 -10 -12   48.64    8.60
  -2 -10 -12   38.84   12.49
   2 -10 -13   28.82    9.80
  -2 -10 -13   28.13   10.03
   2 -10 -14   24.47   10.12
  -2 -10 -14   12.69    4.71
   2 -10 -15   21.43    8.02
  -2 -10 -15   21.14    7.69
   3  10 -13   24.36    9.56
   3 -10  13   31.03   10.07
  -3 -10  13   17.43    7.02
   3  10 -12   10.04    3.00
   3 -10  12   12.37    3.88
  -3 -10  12    8.62    4.87
   3  10 -11   11.74    5.73
   3 -10  11   12.99    4.02
  -3 -10  11    5.03    4.87
   3  10 -10    3.28    3.86
   3 -10  10    4.12    2.69
  -3 -10  10    7.62    4.53
   3  10  -9   55.04   11.77
   3 -10   9   49.37    7.22
  -3 -10   9   86.08   12.54
   3  10  -8   15.95    5.57
   3 -10   8    8.14    2.96
  -3 -10   8   28.51   10.43
   3  10  -7   33.54   14.14
   3 -10   7   58.13   11.12
  -3 -10   7   62.58   12.48
   3  10  -6   16.87    6.86
   3 -10   6    9.48    3.33
  -3 -10   6   29.60   10.62
   3  10  -5  109.43   23.24
   3 -10   5  113.39   19.70
  -3 -10   5  143.88   25.15
   3  10  -4    7.83    3.12
   3 -10   4    6.37    4.02
  -3 -10   4    5.51    5.05
   3  10  -3   33.24   13.02
   3 -10   3   41.55   13.20
  -3 -10   3   56.01   15.49
   3  10  -2    5.83    2.90
   3 -10   2    7.22    4.36
  -3 -10   2   12.81    5.49
   3  10  -1   58.72   15.87
   3 -10   1   27.76    9.34
  -3 -10   1   73.98   18.08
   3  10   0   -0.13    2.26
   3 -10   0    3.36    2.93
  -3 -10   0   14.64    6.97
   3  10   1   51.45   12.78
   3 -10  -1   66.15   15.99
  -3 -10  -1   71.18   18.08
   3  10   2    6.73    2.69
   3 -10  -2   11.26    4.84
  -3 -10  -2   12.88    5.11
   3  10   3   26.06    9.11
   3 -10  -3   33.97   11.08
  -3 -10  -3   43.87   14.08
   3  10   4    3.11    3.44
   3 -10  -4    7.62    3.36
  -3 -10  -4    8.47    4.61
   3 -10  -5  121.35   21.58
   3 -10  -5  123.56   21.54
  -3 -10  -5   98.57   18.61
   3 -10  -6   28.91   10.48
   3 -10  -6   13.12    4.87
  -3 -10  -6   16.10    5.89
   3 -10  -7   35.75   12.72
   3 -10  -7   47.96   16.31
  -3 -10  -7   67.48   13.47
   3 -10  -8   15.25    5.08
   3 -10  -8   24.44    8.89
  -3 -10  -8   40.51   13.28
   3 -10  -9   76.05   10.70
   3 -10  -9   65.43    9.63
  -3 -10  -9   51.19    8.31
   3 -10 -10   18.74    6.54
   3 -10 -10    6.86    3.60
  -3 -10 -10   19.43    5.86
   3 -10 -11    9.99    5.43
   3 -10 -11   18.69    8.09
  -3 -10 -11   12.81    6.20
   3 -10 -12    7.83    3.91
   3 -10 -12    6.36    3.49
  -3 -10 -12   20.92   10.19
   3 -10 -13   25.85    8.76
  -3 -10 -13   16.11    6.12
   4  10  -9   13.63    5.06
  -4 -10   9   25.85    9.66
   4  10  -8   24.97    8.51
   4  10  -7   22.06    9.66
  -4 -10   7   25.88   10.80
   4  10  -6   33.89   14.16
   4 -10   6   35.29   13.07
  -4 -10   6   23.37    9.39
   4  10  -5   49.91   12.30
   4 -10   5   38.78   12.08
  -4 -10   5   69.87   15.36
   4  10  -4   42.24   14.06
   4 -10   4   13.71    3.89
  -4 -10   4   34.60   11.34
   4  10  -3   12.67    4.42
   4 -10   3   18.66    5.72
  -4 -10   3   10.35    4.20
   4  10  -2   35.08   12.83
   4 -10   2   69.02   13.98
  -4 -10   2   60.79   13.28
   4  10  -1   10.91    3.12
   4 -10   1   19.94    4.87
  -4 -10   1   39.95   12.81
   4  10   0   24.52    9.29
   4 -10   0   24.27    8.22
  -4 -10   0   50.37   11.47
   4  10   1   14.06    4.79
   4 -10  -1   19.35    7.32
   4 -10  -1   17.01    4.93
  -4 -10  -1   22.79    8.09
   4  10   2   39.08   12.78
   4 -10  -2   50.65   11.61
   4 -10  -2   39.47   12.03
  -4 -10  -2   58.22   12.94
   4 -10  -3   12.29    4.55
  -4 -10  -3   14.82    6.02
   4 -10  -4   38.89   12.25
   4 -10  -4   18.84    4.92
  -4 -10  -4   26.73    9.56
   4 -10  -5   57.82   12.91
   4 -10  -5   55.32   11.68
  -4 -10  -5   30.50    9.99
   4 -10  -6   23.37   10.28
   4 -10  -6   27.55   10.40
  -4 -10  -6   14.64    5.86
   4 -10  -7   14.58    6.49
   4 -10  -7   23.85    9.53
  -4 -10  -7   28.49   11.40
   4 -10  -8   36.34   13.97
   4 -10  -8   30.46   10.22
  -4 -10  -8   25.21    8.84
   4 -10  -9   11.96    7.29
   4 -10  -9    5.56    3.17
  -4 -10  -9   41.84    9.26
   0  11 -14   10.36    4.90
   0 -11  14   14.32    6.95
   0  11 -13   33.62   14.99
   0 -11  13   40.78   14.88
   0  11 -12   34.41   14.32
   0 -11  12   38.22   12.17
   0  11 -11   11.45    5.78
   0 -11  11    6.65    3.59
   0  11 -10   22.82    8.15
   0 -11  10   19.61    7.40
   0  11  -9    1.91    2.92
   0 -11   9   11.34    4.21
   0  11  -8   44.88   16.15
   0 -11   8   29.07   10.22
   0  11  -7  103.09   26.85
   0 -11   7  183.56   31.22
   0  11  -6   11.37    4.16
   0 -11   6   14.54    5.93
   0  11  -5   20.36    8.44
   0 -11   5   38.59   13.04
   0  11  -4   34.08   11.12
   0 -11   4   52.71   13.42
   0  11  -3   10.99    4.95
   0 -11   3   14.14    5.69
   0  11  -2   24.12    7.08
   0 -11   2   22.50    6.05
   0  11  -1   31.36    9.26
   0 -11   1   24.41    5.85
   0  11   0    6.36    5.03
   0 -11   0    2.35    3.08
   0  11   1   29.22    6.52
   0 -11  -1   36.73   10.89
   0 -11  -2   16.29    5.77
   0 -11  -3   10.27    5.03
   0 -11  -4   47.59   15.20
   0 -11  -5   17.46    6.18
   0 -11  -6    5.61    3.97
   0 -11  -7  217.88   37.00
   0 -11  -8   52.65   11.26
   0 -11  -9    6.01    4.58
   0 -11 -10   31.65   11.07
   0 -11 -11    5.93    6.23
   0 -11 -12   58.51   13.20
   0 -11 -13   62.77   11.32
   0 -11 -14    4.28    4.56
  -1  11 -14   42.41   11.00
   1  11 -14   50.39   11.16
   1 -11  14   53.93   11.44
  -1 -11  14   40.91    9.00
  -1  11 -13    8.06    4.61
   1  11 -13   13.23    4.69
   1 -11  13    3.08    2.88
  -1 -11  13   11.23    5.96
  -1  11 -12    9.82    3.88
   1  11 -12   10.49    4.07
   1 -11  12   12.32    3.86
  -1 -11  12   12.67    4.15
  -1  11 -11   80.95   17.51
   1  11 -11   67.61   18.53
   1 -11  11   84.33   16.71
  -1 -11  11   86.97   17.14
  -1  11 -10   94.15   17.64
   1  11 -10   93.69   20.97
   1 -11  10  115.71   14.66
  -1 -11  10   91.94   11.98
  -1  11  -9   35.88   13.60
   1  11  -9   24.87    8.44
   1 -11   9   20.45    7.51
  -1 -11   9   24.46    8.41
  -1  11  -8   -0.21    2.58
   1  11  -8    4.47    3.76
   1 -11   8   13.09    5.62
  -1 -11   8    8.44    4.07
  -1  11  -7   19.61    7.83
   1  11  -7   22.52    8.76
   1 -11   7    4.18    3.22
  -1 -11   7   27.98   10.73
  -1  11  -6   29.55   10.48
   1  11  -6   24.87    9.19
   1 -11   6   42.32   14.13
  -1 -11   6   20.20    8.49
  -1  11  -5   25.84    8.99
   1  11  -5   23.82    9.79
   1 -11   5   11.88    4.29
  -1 -11   5   41.50   13.98
   1  11  -4    6.25    2.64
   1 -11   4    7.83    4.36
  -1 -11   4   10.41    5.06
   1  11  -3   22.50    8.28
   1 -11   3   32.45   10.81
  -1 -11   3   29.44   11.05
   1  11  -2  212.73   57.02
   1 -11   2  300.79   53.71
  -1 -11   2  327.52   58.61
   1  11  -1  153.43   27.17
   1 -11   1  204.75   18.20
  -1 -11   1  269.51   23.90
   1  11   0   10.35    5.46
   1 -11   0   29.20    7.32
  -1 -11   0   26.96    8.62
   1  11   1  153.00   27.21
   1 -11  -1  231.02   20.09
  -1 -11  -1  257.25   22.47
   1  11   2  160.67   46.45
   1 -11  -2  306.41   54.73
  -1 -11  -2  378.15   67.42
   1  11   3   17.65    5.57
   1 -11  -3   18.23    6.66
  -1 -11  -3   42.16   14.00
   1  11   4   13.17    4.55
   1 -11  -4   21.86    8.57
  -1 -11  -4    4.95    4.55
   1 -11  -5   22.46    8.36
  -1 -11  -5   26.96    9.55
   1 -11  -6   22.74    8.33
  -1 -11  -6   38.38   13.44
   1 -11  -7   28.64   10.20
  -1 -11  -7   30.82   11.64
   1 -11  -8    7.32    3.80
  -1 -11  -8   12.53    6.58
   1 -11  -9   15.06    4.55
   1 -11  -9    9.19    4.13
  -1 -11  -9   14.18    6.04
   1 -11 -10  128.67   16.03
  -1 -11 -10  111.70   14.83
   1 -11 -11  124.12   24.96
  -1 -11 -11  121.16   23.75
   1 -11 -12   15.89    6.71
  -1 -11 -12   10.78    5.19
   1 -11 -13   13.39    4.97
  -1 -11 -13   13.77    7.48
   1 -11 -14   25.45    8.97
  -1 -11 -14   34.34   11.47
   2  11 -12   11.56    3.91
   2 -11  12    6.01    3.36
  -2 -11  12   12.30    5.35
   2  11 -11   24.04    8.92
   2 -11  11   12.14    4.69
  -2 -11  11   43.58    9.82
   2  11 -10   18.26    8.63
   2 -11  10   27.71   10.83
  -2 -11  10   30.61   12.77
   2  11  -9   55.66   18.69
   2 -11   9   90.48   17.52
  -2 -11   9   74.87   15.83
   2  11  -8   33.76   11.32
   2 -11   8   26.91    9.03
  -2 -11   8   34.13   12.25
   2  11  -7   21.21    8.17
   2 -11   7   30.77    9.99
  -2 -11   7   27.34   10.59
   2  11  -6   84.62   14.40
   2 -11   6   71.37    9.67
  -2 -11   6   98.25   15.01
   2  11  -5    3.16    4.00
   2 -11   5   20.25    7.96
  -2 -11   5   25.50   11.47
   2  11  -4  119.68   24.60
   2 -11   4  138.71   24.17
  -2 -11   4  162.00   28.09
   2 -11   3    7.86    3.86
  -2 -11   3    8.79    5.29
   2  11  -2   22.58    9.16
   2 -11   2   23.32    9.02
  -2 -11   2   17.09    7.83
   2  11  -1  116.57   26.46
   2 -11   1  152.87   26.16
  -2 -11   1  167.24   29.20
   2  11   0   30.10   10.41
   2 -11   0   28.91   10.14
  -2 -11   0   63.54   13.21
   2  11   1   84.60   22.02
   2 -11  -1  163.47   28.00
  -2 -11  -1  199.82   34.85
   2  11   2   29.28   10.70
   2 -11  -2   28.94   10.41
  -2 -11  -2   26.68   10.44
   2  11   3    6.81    3.20
   2 -11  -3   10.91    3.92
  -2 -11  -3   20.05    8.97
   2  11   4   68.71   18.79
   2 -11  -4  148.14   25.61
  -2 -11  -4  177.39   30.56
   2 -11  -5    8.68    5.08
  -2 -11  -5   17.91    8.63
   2 -11  -6  107.57   14.19
  -2 -11  -6  117.44   15.86
   2 -11  -7   16.96    6.21
   2 -11  -7    9.00    3.81
  -2 -11  -7   28.69   10.41
   2 -11  -8   24.71    8.95
   2 -11  -8   32.76   10.96
  -2 -11  -8   30.21   11.05
   2 -11  -9   69.16   13.77
   2 -11  -9  101.39   19.97
  -2 -11  -9  131.82   25.88
   2 -11 -10   12.51    4.36
   2 -11 -10   21.32    8.89
  -2 -11 -10   21.01    9.58
   2 -11 -11   19.27    8.12
  -2 -11 -11   26.38   10.99
   2 -11 -12    4.68    3.80
  -2 -11 -12   10.19    5.05
   3  11 -10   12.56    5.24
   3 -11  10    6.95    3.46
  -3 -11  10   17.81    8.07
   3  11  -9   26.00    8.84
   3 -11   9   31.35    9.93
  -3 -11   9   38.33    9.55
   3  11  -8   72.72   17.68
   3 -11   8   55.68   11.45
  -3 -11   8   90.66   17.89
   3  11  -7   58.03   14.02
   3 -11   7   90.61   12.48
  -3 -11   7  100.64   15.04
   3  11  -6   19.78    8.43
   3 -11   6   16.45    7.10
  -3 -11   6   26.44   11.20
   3  11  -5   17.75    5.89
   3 -11   5   26.99    9.00
  -3 -11   5   16.50    6.60
   3  11  -4    8.59    3.00
   3 -11   4   10.17    3.41
  -3 -11   4    5.22    6.42
   3  11  -3   80.36   22.25
   3 -11   3  140.95   26.43
  -3 -11   3  100.52   19.85
   3  11  -2    3.75    2.58
   3 -11   2    3.96    3.75
  -3 -11   2   11.21    5.08
   3  11  -1   35.56   11.16
   3 -11   1   75.39   15.34
  -3 -11   1   44.69   14.16
   3  11   0   23.93    8.55
   3 -11   0   18.00    4.73
  -3 -11   0   27.90    9.69
   3  11   1   30.34   10.73
   3 -11  -1   62.21   13.15
  -3 -11  -1   40.91   13.01
   3  11   2    4.63    2.02
   3 -11  -2    9.82    4.44
  -3 -11  -2    6.39    4.05
   3 -11  -3  111.82   21.35
  -3 -11  -3  167.43   31.81
   3 -11  -4   26.04    9.56
  -3 -11  -4   17.81    6.79
   3 -11  -5   35.14   11.44
   3 -11  -5   11.29    3.94
  -3 -11  -5    4.76    3.75
   3 -11  -6   25.98   10.70
   3 -11  -6   33.52   12.94
  -3 -11  -6   38.35   14.45
   3 -11  -7   87.68   12.57
   3 -11  -7   80.49   12.35
  -3 -11  -7   72.17   11.07
   3 -11  -8   58.00   12.40
   3 -11  -8   62.71   12.70
  -3 -11  -8   66.17   14.38
   3 -11  -9   37.30    9.32
   3 -11  -9   19.78    7.50
  -3 -11  -9   32.56   11.00
   3 -11 -10   10.27    5.05
   3 -11 -10    2.61    3.46
   4  11  -3    7.05    4.16
   4 -11   3    9.42    4.73
  -4 -11   3   10.73    5.51
   4  11  -2   32.64   10.70
   4 -11   2   26.51    8.83
  -4 -11   2   27.89    9.96
   4  11  -1   12.25    3.84
   4 -11   1    9.83    3.70
  -4 -11   1   18.61    6.76
   4  11   0    7.58    4.05
   4 -11   0   16.00    6.57
  -4 -11   0   22.84    8.68
   4 -11  -1   38.12    9.98
   4 -11  -1   17.14    5.97
  -4 -11  -1   10.25    4.58
   4 -11  -2   65.69   14.66
   4 -11  -2   45.73    9.64
  -4 -11  -2   56.88   12.64
   4 -11  -3   16.26    8.36
   4 -11  -3    6.98    4.44
  -4 -11  -3   13.07    6.65
   0  12 -10   12.49    3.94
   0 -12  10    8.22    5.11
   0  12  -9   26.44   10.97
   0 -12   9   52.10    8.59
   0  12  -8    9.13    4.68
   0 -12   8   12.81    5.14
   0  12  -7    9.51    3.89
   0 -12   7   16.82    5.25
   0  12  -6   12.89    4.21
   0 -12   6    4.71    3.19
   0  12  -5   81.35   24.76
   0 -12   5  139.93   26.41
   0  12  -4   13.10    5.06
   0 -12   4    2.35    3.30
   0  12  -3    1.19    2.55
   0 -12   3    9.31    4.05
   0  12  -2   -0.38    3.65
   0 -12   2    6.26    3.92
   0  12  -1  288.89   30.88
   0 -12   1  338.38   46.80
   0 -12   0   31.41   10.60
   0 -12  -1  334.33   46.21
   0 -12  -2    6.79    3.59
   0 -12  -3    7.24    3.67
   0 -12  -4    7.69    5.64
   0 -12  -5  147.14   27.71
   0 -12  -6    6.70    3.68
   0 -12  -7    6.74    5.57
   0 -12  -8   18.47    8.67
   0 -12  -9   47.62    8.73
   0 -12 -10   32.02   11.61
   0 -12 -11   31.55   12.64
  -1  12 -10   46.42   14.30
   1  12 -10   67.03   16.32
   1 -12  10   58.13   11.93
  -1 -12  10   65.41   13.26
  -1  12  -9    2.35    3.52
   1  12  -9   10.41    4.07
   1 -12   9    8.15    4.79
  -1 -12   9   19.86    7.85
  -1  12  -8   35.67   13.42
   1  12  -8   26.70   11.76
   1 -12   8   27.28   11.21
  -1 -12   8   43.76    8.49
  -1  12  -7   73.63   11.20
   1  12  -7   50.82    8.89
   1 -12   7   74.88   10.91
  -1 -12   7   79.54   12.25
   1  12  -6   16.26    4.31
   1 -12   6   21.91    7.99
  -1 -12   6   25.52    8.87
   1  12  -5   11.92    4.44
   1 -12   5   18.74    5.91
  -1 -12   5   18.90    7.03
   1  12  -4    7.94    3.48
   1 -12   4   11.42    4.69
  -1 -12   4   18.00    5.85
   1  12  -3   90.26   23.32
   1 -12   3  131.01   24.97
  -1 -12   3  151.83   28.67
   1  12  -2   14.45    4.74
   1 -12   2   10.72    4.81
  -1 -12   2   37.78   12.99
   1  12  -1   32.32   11.10
   1 -12   1   28.64    9.83
  -1 -12   1   44.38    9.95
   1  12   0   12.96    4.69
   1 -12   0    9.63    5.17
  -1 -12   0   27.15   10.07
   1  12   1   25.60    9.02
   1 -12  -1   40.17   12.73
  -1 -12  -1   87.87   12.97
   1  12   2   21.32    7.85
   1 -12  -2   10.07    3.86
  -1 -12  -2   15.81    6.02
   1  12   3  114.67   21.62
   1 -12  -3  217.77   27.42
  -1 -12  -3  169.64   31.95
   1 -12  -4    8.31    3.59
  -1 -12  -4   12.33    5.33
   1 -12  -5   20.45    7.59
  -1 -12  -5   17.52    6.76
   1 -12  -6   35.75   11.50
  -1 -12  -6   36.30   12.00
   1 -12  -7   69.36   10.73
  -1 -12  -7   95.27   13.82
   1 -12  -8   45.99    8.44
  -1 -12  -8   42.56    9.10
   1 -12  -9   26.59    9.71
  -1 -12  -9   13.53    6.98
   1 -12 -10   48.32   10.41
  -1 -12 -10   61.12   13.10
   2  12  -8   28.67   11.32
   2 -12   8   54.76   11.60
  -2 -12   8   76.08   15.63
   2  12  -7   17.60    6.71
   2 -12   7   20.02    7.22
   2  12  -6   25.98   11.53
   2 -12   6   36.06   12.41
  -2 -12   6   43.18   10.24
   2  12  -5   17.06    7.98
   2 -12   5   27.21   10.28
  -2 -12   5   25.44   10.70
   2  12  -4   34.25   13.52
   2 -12   4   54.38    8.78
  -2 -12   4   50.20    9.35
   2  12  -3   28.90   12.41
   2 -12   3   46.07    8.62
  -2 -12   3   40.65   15.38
   2  12  -2   13.90    4.45
   2 -12   2   15.58    4.79
  -2 -12   2   23.47   10.46
   2  12  -1   14.16    5.91
   2 -12   1   21.43    8.22
  -2 -12   1   21.35    8.81
   2  12   0    3.60    2.67
   2 -12   0   13.02    3.89
  -2 -12   0   17.19    8.78
   2  12   1   13.47    4.53
   2 -12  -1   15.01    5.01
  -2 -12  -1   53.61    9.50
   2  12   2   14.00    3.60
  -2 -12  -2   50.25   10.41
   2 -12  -3   24.60    9.69
  -2 -12  -3   41.05   15.46
   2 -12  -4   20.55    8.59
  -2 -12  -4   48.48    9.37
   2 -12  -5   34.02   12.83
  -2 -12  -5   41.52   15.84
   2 -12  -6   43.31   10.51
  -2 -12  -6   51.62   11.79
   2 -12  -7   40.24    9.56
   2 -12  -7   20.45    7.45
  -2 -12  -7    8.36    4.76
   2 -12  -8   48.50   10.19
   2 -12  -8   45.39   10.27
  -2 -12  -8   40.38    9.77
   3  12  -2   10.22    5.99
   3 -12   2    4.58    3.25
  -3 -12   2   29.22   11.50
   3  12  -1    7.19    2.92
   3 -12   1   22.18    8.38
  -3 -12   1   19.64    9.15
   3  12   0   81.90   22.84
   3 -12   0  163.15   50.71
  -3 -12   0  184.07   57.37
   3  12   1   12.99    5.99
   3 -12  -1   14.98    6.55
  -3 -12  -1   29.34   10.86
   3 -12  -2    6.92    4.02
  -3 -12  -2   18.20    8.35
   0  13  -4   42.99   17.68
   0 -13   4   53.00   17.57
   0  13  -3   40.94    9.39
   0 -13   3   45.43   10.38
   0 -13   2   57.49   11.98
   0 -13   1   16.29    5.93
   0 -13   0   -1.35    2.98
   0 -13  -1   33.24   11.04
   0 -13  -2   59.39   12.21
   0 -13  -3   40.88   10.30
   0 -13  -4   85.05   27.66
   1 -13   2    9.13    4.52
  -1 -13   2   13.07    6.55
   1  13  -1   27.44   10.60
   1 -13   1   56.37   18.52
  -1 -13   1   81.16   26.99
   1  13   0   16.83    6.21
   1 -13   0   21.32    7.94
  -1 -13   0   42.46   14.80
   1  13   1   16.26    6.63
   1 -13  -1   70.44   22.97
  -1 -13  -1   63.19   20.68
   1 -13  -2   14.64    6.79
  -1 -13  -2   15.39    6.89
   0   0   0    0.00    0.00

_computing_structure_solution     'SHELXT 2014/5 (Sheldrick, 2014)'
;
_shelx_hkl_checksum              91428
_olex2_submission_special_instructions 'No special instructions were received'
loop_
_space_group_symop_operation_xyz
'x, y, z'
'-x+1/2, -y, z+1/2'
'-x, y+1/2, -z+1/2'
'x+1/2, -y+1/2, -z'
loop_
_atom_site_label
_atom_site_type_symbol
_atom_site_fract_x
_atom_site_fract_y
_atom_site_fract_z
_atom_site_U_iso_or_equiv
_atom_site_adp_type
_atom_site_occupancy
_atom_site_site_symmetry_order
_atom_site_calc_flag
_atom_site_refinement_flags_posn
S1 S 0.16783(18) 0.10306(10) 0.35249(5) 0.0278(2) Uani 1 1 d .
O1 O 0.3260(5) 0.0284(3) 0.39082(14) 0.0345(7) Uani 1 1 d .
O2 O -0.0266(5) 0.0439(3) 0.32237(14) 0.0358(7) Uani 1 1 d .
O3 O 0.0571(5) 0.2155(3) 0.39742(14) 0.0291(6) Uani 1 1 d .
O4 O 0.5837(5) 0.3430(3) 0.27983(14) 0.0292(7) Uani 1 1 d .
N1 N 0.3201(6) 0.1845(3) 0.30060(15) 0.0249(7) Uani 1 1 d .
C1 C 0.2130(7) 0.3137(4) 0.41976(19) 0.0258(9) Uani 1 1 d .
C2 C 0.4215(7) 0.3408(4) 0.38897(19) 0.0245(8) Uani 1 1 d .
C3 C 0.5099(7) 0.2631(4) 0.33113(18) 0.0245(8) Uani 1 1 d .
H3 H 0.636382 0.204469 0.344607 0.029 Uiso 1 1 calc R
C4 C 0.3752(7) 0.3876(4) 0.2481(2) 0.0318(10) Uani 1 1 d .
H4A H 0.406687 0.408966 0.203102 0.038 Uiso 1 1 calc R
H4B H 0.314255 0.465465 0.269425 0.038 Uiso 1 1 calc R
C5 C 0.2010(7) 0.2731(4) 0.25269(19) 0.0261(9) Uani 1 1 d .
H5 H 0.052849 0.304450 0.270304 0.031 Uiso 1 1 calc R
C6 C 0.1622(9) 0.2011(4) 0.19049(19) 0.0330(9) Uani 1 1 d .
H6 H 0.290731 0.164790 0.169798 0.040 Uiso 1 1 calc R
C7 C -0.0411(9) 0.1860(5) 0.1633(2) 0.0407(11) Uani 1 1 d .
H7A H -0.172899 0.221140 0.182852 0.049 Uiso 1 1 calc R
H7B H -0.054012 0.139994 0.124501 0.049 Uiso 1 1 calc R
C8 C 0.5544(7) 0.4442(4) 0.41331(19) 0.0245(8) Uani 1 1 d .
H8 H 0.695676 0.463514 0.393641 0.029 Uiso 1 1 calc R
C9 C 0.4833(7) 0.5199(4) 0.4661(2) 0.0290(9) Uani 1 1 d .
C10 C 0.2762(7) 0.4858(4) 0.4963(2) 0.0298(9) Uani 1 1 d .
H10 H 0.228279 0.533062 0.532554 0.036 Uiso 1 1 calc R
C11 C 0.1397(7) 0.3837(4) 0.47393(19) 0.0287(9) Uani 1 1 d .
H11 H 0.001393 0.362157 0.494670 0.034 Uiso 1 1 calc R
C12 C 0.6264(8) 0.6360(4) 0.4885(2) 0.0366(11) Uani 1 1 d .
H12A H 0.788398 0.613865 0.486247 0.055 Uiso 1 1 calc GR
H12B H 0.586191 0.657292 0.532451 0.055 Uiso 1 1 calc GR
H12C H 0.595750 0.710554 0.461181 0.055 Uiso 1 1 calc GR
loop_
_atom_site_aniso_label
_atom_site_aniso_U_11
_atom_site_aniso_U_22
_atom_site_aniso_U_33
_atom_site_aniso_U_23
_atom_site_aniso_U_13
_atom_site_aniso_U_12
S1 0.0267(5) 0.0265(4) 0.0301(5) 0.0015(4) -0.0017(5) -0.0018(4)
O1 0.0343(16) 0.0321(15) 0.0371(17) 0.0090(13) -0.0037(15) 0.0015(14)
O2 0.0320(17) 0.0342(15) 0.0412(18) -0.0033(14) -0.0050(15) -0.0080(13)
O3 0.0232(14) 0.0346(15) 0.0297(15) -0.0022(12) 0.0036(13) -0.0036(12)
O4 0.0237(15) 0.0371(16) 0.0267(15) 0.0015(12) 0.0044(12) -0.0027(12)
N1 0.0223(17) 0.0281(16) 0.0243(16) -0.0013(14) -0.0033(15) 0.0025(15)
C1 0.022(2) 0.028(2) 0.027(2) 0.0014(16) -0.0063(17) -0.0005(16)
C2 0.022(2) 0.0269(19) 0.025(2) 0.0056(16) 0.0009(17) 0.0021(16)
C3 0.023(2) 0.0247(18) 0.026(2) -0.0004(15) -0.0004(17) 0.0025(15)
C4 0.031(2) 0.035(2) 0.029(2) 0.0020(18) -0.0038(19) 0.0017(19)
C5 0.026(2) 0.030(2) 0.023(2) -0.0010(16) 0.0011(17) 0.0049(17)
C6 0.036(2) 0.035(2) 0.028(2) -0.0037(18) 0.000(2) 0.004(2)
C7 0.042(3) 0.048(3) 0.032(2) -0.003(2) -0.006(2) 0.001(2)
C8 0.0209(19) 0.0265(19) 0.026(2) 0.0028(16) -0.0003(17) -0.0022(16)
C9 0.032(2) 0.0260(19) 0.029(2) 0.0010(17) -0.0053(18) 0.0013(17)
C10 0.036(2) 0.030(2) 0.024(2) -0.0029(16) 0.0019(18) 0.0072(17)
C11 0.026(2) 0.036(2) 0.024(2) 0.0004(17) 0.0054(18) 0.0041(18)
C12 0.041(3) 0.031(2) 0.038(3) -0.0061(18) -0.002(2) -0.0005(18)
loop_
_atom_type_symbol
_atom_type_description
_atom_type_scat_dispersion_real
_atom_type_scat_dispersion_imag
_atom_type_scat_source
C C 0.0033 0.0016 'International Tables Vol C Tables 4.2.6.8 and 6.1.1.4'
H H 0.0000 0.0000 'International Tables Vol C Tables 4.2.6.8 and 6.1.1.4'
N N 0.0061 0.0033 'International Tables Vol C Tables 4.2.6.8 and 6.1.1.4'
O O 0.0106 0.0060 'International Tables Vol C Tables 4.2.6.8 and 6.1.1.4'
S S 0.1246 0.1234 'International Tables Vol C Tables 4.2.6.8 and 6.1.1.4'
loop_
_geom_angle_atom_site_label_1
_geom_angle_atom_site_label_2
_geom_angle_atom_site_label_3
_geom_angle
O1 S1 O3 108.11(16)
O1 S1 N1 107.07(18)
O2 S1 O1 121.68(18)
O2 S1 O3 103.98(17)
O2 S1 N1 110.83(18)
O3 S1 N1 103.70(16)
C1 O3 S1 115.9(2)
C3 O4 C4 105.9(3)
C3 N1 S1 113.0(2)
C3 N1 C5 107.0(3)
C5 N1 S1 119.7(3)
C2 C1 O3 122.6(4)
C2 C1 C11 122.1(4)
C11 C1 O3 115.3(3)
C1 C2 C3 123.3(4)
C1 C2 C8 117.4(4)
C8 C2 C3 119.4(3)
O4 C3 N1 102.2(3)
O4 C3 C2 113.4(3)
O4 C3 H3 109.9
N1 C3 C2 111.3(3)
N1 C3 H3 109.9
C2 C3 H3 109.9
O4 C4 H4A 110.5
O4 C4 H4B 110.5
O4 C4 C5 106.2(3)
H4A C4 H4B 108.7
C5 C4 H4A 110.5
C5 C4 H4B 110.5
N1 C5 C4 101.2(3)
N1 C5 H5 110.3
C4 C5 H5 110.3
C6 C5 N1 110.0(3)
C6 C5 C4 114.4(3)
C6 C5 H5 110.3
C5 C6 H6 118.0
C7 C6 C5 124.1(4)
C7 C6 H6 118.0
C6 C7 H7A 120.0
C6 C7 H7B 120.0
H7A C7 H7B 120.0
C2 C8 H8 118.8
C2 C8 C9 122.4(4)
C9 C8 H8 118.8
C8 C9 C12 120.6(4)
C10 C9 C8 117.8(4)
C10 C9 C12 121.7(4)
C9 C10 H10 119.2
C11 C10 C9 121.7(4)
C11 C10 H10 119.2
C1 C11 H11 120.7
C10 C11 C1 118.7(4)
C10 C11 H11 120.7
C9 C12 H12A 109.5
C9 C12 H12B 109.5
C9 C12 H12C 109.5
H12A C12 H12B 109.5
H12A C12 H12C 109.5
H12B C12 H12C 109.5
loop_
_geom_bond_atom_site_label_1
_geom_bond_atom_site_label_2
_geom_bond_distance
S1 O1 1.424(3)
S1 O2 1.414(3)
S1 O3 1.601(3)
S1 N1 1.611(3)
O3 C1 1.417(5)
O4 C3 1.399(4)
O4 C4 1.440(5)
N1 C3 1.492(5)
N1 C5 1.501(5)
C1 C2 1.385(5)
C1 C11 1.390(5)
C2 C3 1.518(5)
C2 C8 1.391(5)
C3 H3 0.9800
C4 H4A 0.9700
C4 H4B 0.9700
C4 C5 1.536(6)
C5 H5 0.9800
C5 C6 1.494(5)
C6 H6 0.9300
C6 C7 1.307(6)
C7 H7A 0.9300
C7 H7B 0.9300
C8 H8 0.9300
C8 C9 1.394(5)
C9 C10 1.389(6)
C9 C12 1.509(5)
C10 H10 0.9300
C10 C11 1.378(6)
C11 H11 0.9300
C12 H12A 0.9600
C12 H12B 0.9600
C12 H12C 0.9600
