#------------------------------------------------------------------------------
#$Date: 2017-11-24 10:08:12 +0200 (Fri, 24 Nov 2017) $
#$Revision: 203527 $
#$URL: file:///home/coder/svn-repositories/cod/cif/1/54/81/1548191.cif $
#------------------------------------------------------------------------------
#
# This file is available in the Crystallography Open Database (COD),
# http://www.crystallography.net/
#
# All data on this site have been placed in the public domain by the
# contributors.
#
data_1548191
loop_
_publ_author_name
'Xi Lu'
'Bin Xiao'
'Zhenqi Zhang'
'Tianjun Gong'
'Wei Su'
'Jun Yi'
'Yao Fu'
'Lei Liu'
_publ_section_title
;
 Practical carbon?carbon bond formation from olefins through
 nickel-catalyzed reductive olefin hydrocarbonation
;
_journal_name_full               'Nature Communications'
_journal_page_first              11129
_journal_paper_doi               10.1038/ncomms11129
_journal_volume                  7
_journal_year                    2016
_chemical_absolute_configuration ad
_chemical_formula_sum            'C34 H50 Cl N3 O4 S Si'
_chemical_formula_weight         660.37
_chemical_name_systematic
(1S,2S,4S,5R)-2-((R)-quinolin-4-yl((trimethylsilyl)oxy)methyl)-5-(2-(1-tosylpipe
_space_group_crystal_system      monoclinic
_space_group_IT_number           4
_space_group_name_Hall           'P 2yb'
_space_group_name_H-M_alt        'P 1 21 1'
_symmetry_space_group_name_Hall  'P 2yb'
_symmetry_space_group_name_H-M   'P 1 21 1'
_atom_sites_solution_hydrogens   mixed
_cell_angle_alpha                90
_cell_angle_beta                 108.3160(10)
_cell_angle_gamma                90
_cell_formula_units_Z            2
_cell_length_a                   11.19700(10)
_cell_length_b                   11.95510(10)
_cell_length_c                   14.1022(2)
_cell_measurement_reflns_used    12364
_cell_measurement_temperature    291(2)
_cell_measurement_theta_max      69.7520
_cell_measurement_theta_min      3.6930
_cell_volume                     1792.10(4)
_computing_cell_refinement       'CrysAlisPro (Agilent Technologies)'
_computing_data_collection       'CrysAlisPro (Agilent Technologies)'
_computing_data_reduction        'CrysAlisPro (Agilent Technologies)'
_computing_molecular_graphics    'Ortep-3 (L. J. Farrugia, 2001)'
_computing_publication_material  SHELXL-2013
_computing_structure_refinement  'SHELXL-2013 (Sheldrick, 2013)'
_computing_structure_solution    'SHELXS-97 (Sheldrick, 1997)'
_diffrn_ambient_temperature      291(2)
_diffrn_detector_area_resol_mean 15.9149
_diffrn_measured_fraction_theta_full 0.994
_diffrn_measured_fraction_theta_max 0.987
_diffrn_measurement_device_type  'Gemini S Ultra, Agilent Technologies'
_diffrn_measurement_method       '\w scans'
_diffrn_radiation_type           CuK\a
_diffrn_radiation_wavelength     1.54184
_diffrn_reflns_av_R_equivalents  0.0235
_diffrn_reflns_av_unetI/netI     0.0261
_diffrn_reflns_Laue_measured_fraction_full 0.994
_diffrn_reflns_Laue_measured_fraction_max 0.987
_diffrn_reflns_limit_h_max       13
_diffrn_reflns_limit_h_min       -12
_diffrn_reflns_limit_k_max       14
_diffrn_reflns_limit_k_min       -14
_diffrn_reflns_limit_l_max       13
_diffrn_reflns_limit_l_min       -17
_diffrn_reflns_number            16620
_diffrn_reflns_point_group_measured_fraction_full 0.955
_diffrn_reflns_point_group_measured_fraction_max 0.942
_diffrn_reflns_theta_full        67.684
_diffrn_reflns_theta_max         69.785
_diffrn_reflns_theta_min         3.301
_diffrn_source                   'Enhance Ultra (Cu) X-ray Source'
_exptl_absorpt_coefficient_mu    2.121
_exptl_absorpt_correction_T_max  1.00000
_exptl_absorpt_correction_T_min  0.71289
_exptl_absorpt_correction_type   multi-scan
_exptl_absorpt_process_details
;
CrysAlisPro, Agilent Technologies,
Version 1.171.37.35 (release 13-08-2014 CrysAlis171 .NET)
(compiled Aug 13 2014,18:06:01)
Empirical absorption correction using spherical harmonics,
 implemented in SCALE3 ABSPACK scaling algorithm.
;
_exptl_crystal_colour            colorless
_exptl_crystal_density_diffrn    1.224
_exptl_crystal_description       block
_exptl_crystal_F_000             708
_exptl_crystal_size_max          0.290
_exptl_crystal_size_mid          0.280
_exptl_crystal_size_min          0.250
_refine_diff_density_max         1.245
_refine_diff_density_min         -0.390
_refine_diff_density_rms         0.103
_refine_ls_abs_structure_details
;
 Flack x determined using 2819 quotients [(I+)-(I-)]/[(I+)+(I-)]
 (Parsons and Flack (2004), Acta Cryst. A60, s61).
;
_refine_ls_abs_structure_Flack   0.080(8)
_refine_ls_extinction_coef       .
_refine_ls_extinction_method     none
_refine_ls_goodness_of_fit_ref   1.085
_refine_ls_hydrogen_treatment    mixed
_refine_ls_matrix_type           full
_refine_ls_number_parameters     420
_refine_ls_number_reflns         6375
_refine_ls_number_restraints     19
_refine_ls_restrained_S_all      1.088
_refine_ls_R_factor_all          0.0866
_refine_ls_R_factor_gt           0.0854
_refine_ls_shift/su_max          0.008
_refine_ls_shift/su_mean         0.000
_refine_ls_structure_factor_coef Fsqd
_refine_ls_weighting_details
'w=1/[\s^2^(Fo^2^)+(0.1662P)^2^+3.1465P] where P=(Fo^2^+2Fc^2^)/3'
_refine_ls_weighting_scheme      calc
_refine_ls_wR_factor_gt          0.2767
_refine_ls_wR_factor_ref         0.2802
_reflns_Friedel_coverage         0.815
_reflns_Friedel_fraction_full    0.911
_reflns_Friedel_fraction_max     0.892
_reflns_number_gt                6349
_reflns_number_total             6375
_reflns_threshold_expression     'I > 2\s(I)'
_cod_data_source_file            2.cif
_cod_data_source_block           2
_cod_original_cell_volume        1792.10(3)
_cod_database_code               1548191
_shelx_space_group_comment
;
The symmetry employed for this shelxl refinement is uniquely defined
by the following loop, which should always be used as a source of
symmetry information in preference to the above space-group names.
They are only intended as comments.
;
_shelx_estimated_absorpt_t_min   0.578
_shelx_estimated_absorpt_t_max   0.619
_shelxl_version_number           2013-4
_shelx_res_file
;
TITL LX150518-1 in P2(1)
CELL  1.54184  11.1970  11.9551  14.1022   90.000  108.316   90.000
ZERR     2.00   0.0001   0.0001   0.0002    0.000    0.001    0.000
LATT  -1
SYMM  - X, 1/2 + Y, - Z
SFAC  C    H    N    O    SI   S    CL
UNIT  68   100  6    8    2    2    2
MERG   2
isor 0.005 O4
EADP C25 C25'
EADP C26 C26'
EADP C27 C27'
DFIX     0.850   0.005 O4 H4A
DFIX     0.850   0.005 O4 H4B
DFIX     1.390   0.005 H4B H4A
DFIX     2.380   0.005 CL1 H4B
EQIV $1 -x+1, y-1/2, -z+1
HTAB N2 Cl1_$1
HTAB O4 Cl1
EQIV $2 x+1, y, z
HTAB O4 N1_$2
delu 0.005 n1 c8 n3 c24 c5 c6 c6 c7 c7 c8
FMAP   2
PLAN   25
SIZE     0.25   0.28   0.29
ACTA
BOND   $H
CONF
L.S.  54
damp 2000
WGHT    0.166200    3.146500
FVAR      11.87346   0.24358
S2    6    0.225896    1.077818    1.126789    11.00000    0.04834    0.05851 =
         0.06071   -0.02231    0.01761   -0.00931
SI1   5    0.185888    0.319258    0.361830    11.00000    0.04879    0.05313 =
         0.04629   -0.00604    0.01655    0.00105
O1    4    0.183713    0.409371    0.452225    11.00000    0.05113    0.05027 =
         0.04721   -0.00594    0.01870   -0.00004
N3    3    0.284125    0.988939    1.063616    11.00000    0.04485    0.04834 =
         0.05067   -0.00912    0.01694   -0.00050
C11   1    0.201905    0.476799    0.616758    11.00000    0.03458    0.04586 =
         0.03964   -0.00533    0.00748    0.00685
AFIX  13
H11   2    0.148733    0.482240    0.660073    11.00000   -1.20000
AFIX   0
N2    3    0.329020    0.437351    0.680656    11.00000    0.04583    0.04372 =
         0.04364   -0.00279    0.01118    0.00178
AFIX  13
H2    2    0.319583    0.362320    0.705370    11.00000   -1.20000
AFIX   0
O3    4    0.276430    1.048618    1.229143    11.00000    0.07466    0.09354 =
         0.05606   -0.02983    0.01347   -0.00039
O2    4    0.247035    1.185937    1.096215    11.00000    0.07428    0.05031 =
         0.10588   -0.01780    0.03775   -0.01719
C1    1    0.138748    0.391158    0.533521    11.00000    0.04020    0.04211 =
         0.04187   -0.00835    0.01072    0.00066
AFIX  13
H1    2    0.160356    0.315099    0.559073    11.00000   -1.20000
AFIX   0
C20   1    0.316639    0.809440    0.935369    11.00000    0.04300    0.05470 =
         0.05321   -0.01212    0.01738   -0.00827
AFIX  13
H20   2    0.228828    0.784620    0.911095    11.00000   -1.20000
AFIX   0
C13   1    0.354995    0.630260    0.619874    11.00000    0.05059    0.05394 =
         0.04804   -0.00281    0.01674   -0.00138
AFIX  13
H13   2    0.364917    0.705067    0.594934    11.00000   -1.20000
AFIX   0
C15   1    0.374852    0.514673    0.769223    11.00000    0.04503    0.05285 =
         0.03942   -0.00485    0.00820   -0.00083
AFIX  23
H15A  2    0.451696    0.485253    0.815859    11.00000   -1.20000
H15B  2    0.312117    0.519699    0.803338    11.00000   -1.20000
AFIX   0
C12   1    0.215307    0.595921    0.579597    11.00000    0.04906    0.03749 =
         0.05196   -0.00232    0.00520    0.00518
AFIX  23
H12A  2    0.164290    0.647711    0.603264    11.00000   -1.20000
H12B  2    0.186831    0.597574    0.507158    11.00000   -1.20000
AFIX   0
C33   1    0.016523    0.969979    1.138142    11.00000    0.05639    0.07208 =
         0.08068    0.00360    0.02945    0.00204
AFIX  43
H33   2    0.066940    0.938816    1.197700    11.00000   -1.20000
AFIX   0
C23   1    0.362218    0.800249    1.049277    11.00000    0.05196    0.04509 =
         0.05838   -0.00361    0.01018   -0.00042
AFIX  23
H23A  2    0.359581    0.722555    1.068345    11.00000   -1.20000
H23B  2    0.448825    0.825411    1.074699    11.00000   -1.20000
AFIX   0
C2    1   -0.003805    0.407571    0.504613    11.00000    0.04313    0.06116 =
         0.05117   -0.02142    0.01178   -0.00251
C24   1    0.281989    0.869561    1.095588    11.00000    0.06310    0.05988 =
         0.04708   -0.00605    0.01945   -0.01068
AFIX  23
H24A  2    0.196279    0.841713    1.074094    11.00000   -1.20000
H24B  2    0.314503    0.864375    1.167820    11.00000   -1.20000
AFIX   0
C14   1    0.399762    0.632227    0.733534    11.00000    0.03899    0.05048 =
         0.05177   -0.00922    0.01298   -0.00388
AFIX  13
H14   2    0.490924    0.644453    0.755924    11.00000   -1.20000
AFIX   0
C3    1   -0.075145    0.357727    0.559393    11.00000    0.04654    0.06707 =
         0.06298   -0.02958    0.01823   -0.00849
C29   1   -0.013986    1.102296    1.002389    11.00000    0.05051    0.06978 =
         0.08071   -0.00327    0.02591    0.00628
AFIX  43
H29   2    0.016902    1.158143    0.970530    11.00000   -1.20000
AFIX   0
C18   1    0.340336    0.724419    0.777218    11.00000    0.06120    0.05263 =
         0.05478   -0.00196    0.01385    0.01250
AFIX  23
H18A  2    0.250476    0.711116    0.758830    11.00000   -1.20000
H18B  2    0.352714    0.795245    0.748071    11.00000   -1.20000
AFIX   0
C10   1   -0.064928    0.474802    0.424760    11.00000    0.04547    0.07919 =
         0.05920   -0.00577    0.00629    0.01229
AFIX  43
H10   2   -0.020996    0.510637    0.387455    11.00000   -1.20000
AFIX   0
C22   1    0.244680    1.004684    0.955322    11.00000    0.06172    0.04894 =
         0.05474   -0.00040    0.02305    0.00496
AFIX  23
H22A  2    0.255731    1.082449    0.940312    11.00000   -1.20000
H22B  2    0.156142    0.986419    0.927096    11.00000   -1.20000
AFIX   0
C28   1    0.063663    1.051343    1.087914    11.00000    0.04172    0.06228 =
         0.05757   -0.00765    0.01998    0.00042
C7    1   -0.282869    0.325705    0.580166    11.00000    0.05371    0.14409 =
         0.09457   -0.06562    0.04292   -0.02938
AFIX  43
H7    2   -0.368598    0.341045    0.560828    11.00000   -1.20000
AFIX   0
C8    1   -0.207235    0.377200    0.529220    11.00000    0.04844    0.09638 =
         0.08691   -0.04889    0.02695   -0.01354
C21   1    0.320957    0.931050    0.908514    11.00000    0.06437    0.05933 =
         0.05559    0.00041    0.02626    0.01605
AFIX  23
H21A  2    0.288987    0.938957    0.836463    11.00000   -1.20000
H21B  2    0.407723    0.956178    0.930404    11.00000   -1.20000
AFIX   0
C19   1    0.393801    0.733218    0.890857    11.00000    0.05253    0.04969 =
         0.06458   -0.01043    0.01350    0.00119
AFIX  23
H19A  2    0.396972    0.659124    0.919576    11.00000   -1.20000
H19B  2    0.479226    0.761463    0.908736    11.00000   -1.20000
AFIX   0
C4    1   -0.024865    0.283992    0.641390    11.00000    0.06613    0.08726 =
         0.06431   -0.02187    0.02935   -0.02695
AFIX  43
H4    2    0.061129    0.269676    0.662416    11.00000   -1.20000
AFIX   0
C17   1    0.429890    0.546852    0.579803    11.00000    0.05518    0.07734 =
         0.06048   -0.00482    0.02787   -0.00097
AFIX  23
H17A  2    0.516575    0.571388    0.596027    11.00000   -1.20000
H17B  2    0.394602    0.541524    0.507727    11.00000   -1.20000
AFIX   0
C16   1    0.424298    0.431827    0.627769    11.00000    0.04206    0.06660 =
         0.06071   -0.01048    0.01289    0.01358
AFIX  23
H16A  2    0.401451    0.374416    0.576617    11.00000   -1.20000
H16B  2    0.505969    0.413267    0.674489    11.00000   -1.20000
AFIX   0
N1    3   -0.264465    0.446986    0.450292    11.00000    0.04460    0.11847 =
         0.09644   -0.04345    0.01074    0.00146
C30   1   -0.138863    1.068407    0.965102    11.00000    0.05469    0.07417 =
         0.08212   -0.00598    0.01135    0.01176
AFIX  43
H30   2   -0.191641    1.102877    0.908201    11.00000   -1.20000
AFIX   0
C34   1   -0.319392    0.946287    0.965240    11.00000    0.05130    0.09770 =
         0.15141   -0.04504    0.02267   -0.01292
AFIX 137
H34A  2   -0.376044    1.004352    0.970793    11.00000   -1.50000
H34B  2   -0.332520    0.881023    1.000372    11.00000   -1.50000
H34C  2   -0.334795    0.928199    0.896096    11.00000   -1.50000
AFIX   0
C31   1   -0.185732    0.985966    1.009897    11.00000    0.04164    0.08168 =
         0.10662   -0.03568    0.02559   -0.00324
C32   1   -0.109320    0.937050    1.095603    11.00000    0.06357    0.08197 =
         0.11216   -0.01802    0.04809   -0.01037
AFIX  43
H32   2   -0.141652    0.880893    1.126118    11.00000   -1.20000
AFIX   0
C6    1   -0.232575    0.254848    0.656199    11.00000    0.09472    0.13398 =
         0.10744   -0.05776    0.07120   -0.05318
AFIX  43
H6    2   -0.284483    0.219374    0.686994    11.00000   -1.20000
AFIX   0
C5    1   -0.098133    0.232915    0.690948    11.00000    0.10728    0.08151 =
         0.08848   -0.02178    0.06015   -0.02434
AFIX  43
H5    2   -0.062694    0.185837    0.744986    11.00000   -1.20000
AFIX   0
C9    1   -0.194758    0.487409    0.401654    11.00000    0.05344    0.10027 =
         0.08902   -0.02802    0.00539    0.01452
AFIX  43
H9    2   -0.235055    0.529450    0.345164    11.00000   -1.20000
AFIX   0
CL1   7    0.693344    0.721941    0.217838    11.00000    0.08986    0.06287 =
         0.08975   -0.02225    0.01879    0.00487
PART    2
C25'  1    0.097164    0.202221    0.378442    21.00000    0.30230    0.03838 =
         0.17593   -0.02526    0.18528   -0.00570
AFIX 137
H25A  2    0.139919    0.166514    0.440872    21.00000   -1.50000
H25B  2    0.087975    0.150140    0.324800    21.00000   -1.50000
H25C  2    0.015576    0.226661    0.378647    21.00000   -1.50000
AFIX   0
C27'  1    0.343795    0.261601    0.392308    21.00000    0.09850    0.13526 =
         0.11797   -0.07445    0.08110   -0.03625
AFIX 137
H27A  2    0.404363    0.319752    0.418360    21.00000   -1.50000
H27B  2    0.356028    0.230849    0.333155    21.00000   -1.50000
H27C  2    0.354338    0.203771    0.441495    21.00000   -1.50000
AFIX   0
C26'  1    0.136790    0.409438    0.251811    21.00000    0.14134    0.24390 =
         0.04988   -0.00515    0.00654    0.09138
AFIX 137
H26A  2    0.092253    0.365825    0.194436    21.00000   -1.50000
H26B  2    0.209599    0.442560    0.241102    21.00000   -1.50000
H26C  2    0.082712    0.467330    0.262065    21.00000   -1.50000
AFIX   0
PART    1
C27   1    0.345673    0.330425    0.346854   -21.00000    0.09850    0.13526 =
         0.11797   -0.07445    0.08110   -0.03625
AFIX 137
H27D  2    0.359103    0.405609    0.328543   -21.00000   -1.50000
H27E  2    0.351454    0.279885    0.295576   -21.00000   -1.50000
H27F  2    0.408444    0.311510    0.408759   -21.00000   -1.50000
AFIX   0
C25   1    0.156621    0.177026    0.396452   -21.00000    0.30230    0.03838 =
         0.17593   -0.02526    0.18528   -0.00570
AFIX 137
H25D  2    0.087956    0.177573    0.423535   -21.00000   -1.50000
H25E  2    0.230720    0.148803    0.445634   -21.00000   -1.50000
H25F  2    0.135809    0.129964    0.338378   -21.00000   -1.50000
AFIX   0
C26   1    0.066417    0.362526    0.242960   -21.00000    0.14134    0.24390 =
         0.04988   -0.00515    0.00654    0.09138
AFIX 137
H26D  2   -0.010845    0.323252    0.235259   -21.00000   -1.50000
H26E  2    0.096345    0.345072    0.187927   -21.00000   -1.50000
H26F  2    0.052072    0.441592    0.244324   -21.00000   -1.50000
AFIX   0
PART    0
O4    4    0.499221    0.616428    0.321258    11.00000    0.16186    0.21621 =
         0.24924    0.00529    0.09740    0.01204
H4B   2    0.545559    0.645074    0.289948    11.00000   -1.20000
H4A   2    0.537909    0.617360    0.383637    11.00000   -1.20000
HKLF    4
REM  LX150518-1 in P2(1)
REM R1 =  0.0854 for    6349 Fo > 4sig(Fo)  and  0.0866 for all    6375 data
REM    420 parameters refined using     19 restraints
END
WGHT      0.1751      3.0067
REM Highest difference peak  1.245,  deepest hole -0.390,  1-sigma level  0.103
Q1    1  -0.2264  0.5800  0.3726  11.00000  0.05    1.24
Q2    1  -0.1866  0.8215  1.1413  11.00000  0.05    0.98
Q3    1   0.3072  0.2176  0.2771  11.00000  0.05    0.87
Q4    1  -0.2068  0.9839  0.8889  11.00000  0.05    0.46
Q5    1  -0.1411  0.8916  0.9691  11.00000  0.05    0.44
Q6    1  -0.3216  0.9322  0.8252  11.00000  0.05    0.42
Q7    1  -0.2807  0.5430  0.2761  11.00000  0.05    0.41
Q8    1   0.0708  0.9793  1.0800  11.00000  0.05    0.40
Q9    1   0.2572  0.9428  1.0227  11.00000  0.05    0.40
Q10   1  -0.2106  1.0994  0.9243  11.00000  0.05    0.40
Q11   1  -0.1845  0.9083  1.0471  11.00000  0.05    0.37
Q12   1  -0.0036  0.9265  1.0003  11.00000  0.05    0.37
Q13   1   0.3789  0.5092  0.2690  11.00000  0.05    0.37
Q14   1  -0.3385  0.3727  0.6618  11.00000  0.05    0.36
Q15   1   0.5817  0.8162  1.1281  11.00000  0.05    0.36
Q16   1   0.0941  1.1710  0.9870  11.00000  0.05    0.35
Q17   1   0.4040  0.4255  0.2285  11.00000  0.05    0.33
Q18   1   0.4204  1.0778  1.1056  11.00000  0.05    0.33
Q19   1   0.1648  1.2743  1.1014  11.00000  0.05    0.33
Q20   1  -0.0733  0.5696  0.4056  11.00000  0.05    0.33
Q21   1   0.5183  0.5614  0.9136  11.00000  0.05    0.32
Q22   1   0.4207  0.6267  0.2384  11.00000  0.05    0.32
Q23   1   0.2477  0.1815  0.6083  11.00000  0.05    0.32
Q24   1   0.3247  0.4416  0.5104  11.00000  0.05    0.31
Q25   1   0.2076  1.1547  0.9346  11.00000  0.05    0.31
;
_shelx_res_checksum              9118
_shelx_hkl_file
;
   0 -13  -3 423.500 72.0062  31
   0 -13  -4 532.433 88.0946  31
   0 -13  -5 5073.42 278.368  31
   0 -13  -6 383.103 66.8733  31
   0 -13  -6 459.031 76.2549  41
   0 -13  -7 1405.27 130.233  50
   0 -13  -7 1483.88 129.845  41
   0 -12  -5 2784.04 231.107  31
   0 -12  -6 4386.32 288.647  31
   0 -12  -6 4418.72 282.099  60
   0 -12  -7 4076.47 265.987  55
   0 -12  -7 4647.81 281.596  31
   0 -12  -7 4731.30 300.426  50
   0 -12  -7 4366.87 269.142  60
   0 -12  -7 4697.97 300.880  41
   0 -12  -8 2393.18 186.523  55
   0 -12  -8 2653.74 203.504  41
   0 -12  -8 2618.89 198.823  50
   0 -12  -8 2213.52 175.701  60
   0 -12  -9 2291.39 167.952  41
   0 -11  -5 1210.22 161.369  31
   0 -11  -5 1197.05 159.448  60
   0 -11  -6 6137.18 387.323  31
   0 -11  -6 6173.12 381.784  60
   0 -11  -7 267.310 71.2658  60
   0 -11  -7 372.041 84.1486  31
   0 -11  -8 1471.56 169.373  31
   0 -11  -8 1605.59 176.733  55
   0 -11  -8 1727.61 190.785  41
   0 -11  -8 1684.62 185.033  50
   0 -11  -8 1641.51 177.293  60
   0 -11  -9 10526.0 478.203  55
   0 -11  -9 9847.06 453.475  60
   0 -11  -9 10928.2 481.793  41
   0 -11  -9 10511.0 465.797  50
   0 -11 -10 7413.16 348.524  41
   0 -11 -10 6538.87 316.506  50
   0 -11 -10 7150.66 348.887  55
   0 -10  -6 5156.05 377.462  31
   0 -10  -6 5588.04 384.316  60
   0 -10  -6 5255.72 356.833  43
   0 -10  -7 34327.3 1150.93  60
   0 -10  -7 34922.8 1148.30  31
   0 -10  -7 33716.0 1119.13  47
   0 -10  -7 34166.5 1103.79  43
   0 -10  -8 3193.90 256.700  43
   0 -10  -8 3248.64 276.798  31
   0 -10  -8 3628.62 294.261  60
   0 -10  -8 3478.97 282.170  47
   0 -10  -9 2933.34 246.731  50
   0 -10  -9 3290.08 270.537  41
   0 -10  -9 3286.44 260.760  31
   0 -10  -9 3102.81 271.843  55
   0 -10  -9 2957.71 255.350  60
   0 -10 -10 604.984 105.503  50
   0 -10 -10 803.120 128.091  41
   0 -10 -10 837.799 132.592  55
   0 -10 -11 718.547 94.3323  50
   0 -10 -11 895.230 115.465  33
   0 -10 -11 900.986 114.444  41
   0 -10 -11 837.794 112.617  55
   0  -9   0 169.185 64.8689  25
   0  -9  -5 14489.7 628.032  43
   0  -9  -6 7869.65 455.859  47
   0  -9  -6 7919.16 442.923  43
   0  -9  -6 7929.37 466.293  31
   0  -9  -7 1093.48 150.924  43
   0  -9  -7 1108.02 169.588  60
   0  -9  -7 936.451 148.003  31
   0  -9  -7 1119.91 167.489  47
   0  -9  -8 10391.9 551.114  60
   0  -9  -8 10579.4 544.084  31
   0  -9  -8 10427.9 549.694  47
   0  -9  -8 10597.3 530.210  43
   0  -9  -9 9397.47 513.993  60
   0  -9  -9 9466.11 511.404  47
   0  -9  -9 9296.69 496.927  31
   0  -9  -9 9293.27 502.355  50
   0  -9  -9 9394.90 512.830  41
   0  -9 -10 14549.9 634.112  41
   0  -9 -10 13874.3 627.429  60
   0  -9 -10 14794.5 623.648  50
   0  -9 -10 13883.9 645.956  55
   0  -9 -11 780.167 113.669  50
   0  -9 -11 855.655 128.812  55
   0  -9 -11 852.110 125.332  41
   0  -9 -12 9145.46 418.946  33
   0  -9 -12 9420.93 431.234  55
   0  -8   0 151517. 4068.47  25
   0  -8   1 34215.8 1407.85  25
   0  -8  -1 35734.0 1456.87  25
   0  -8   1 37442.2 1580.61  29
   0  -8  -2 12579.4 800.700  25
   0  -8   2 11040.2 801.061  29
   0  -8   3 2304.20 346.167  29
   0  -8  -3 2162.78 330.556  25
   0  -8   4 79254.1 2685.68  29
   0  -8  -5 14092.8 618.724  47
   0  -8  -6 5510.56 357.460  43
   0  -8  -6 5733.14 378.401  47
   0  -8  -7 4501.26 345.938  60
   0  -8  -7 4524.17 334.673  31
   0  -8  -7 4599.52 342.621  47
   0  -8  -7 4522.44 325.791  43
   0  -8  -8 11107.9 578.080  60
   0  -8  -8 10991.4 580.956  47
   0  -8  -8 10054.4 538.455  43
   0  -8  -8 10472.8 558.909  31
   0  -8  -9 20707.1 824.883  50
   0  -8  -9 19769.0 819.415  60
   0  -8  -9 19856.9 825.134  41
   0  -8  -9 18756.3 779.249  43
   0  -8  -9 19707.7 824.039  47
   0  -8  -9 19685.6 802.973  31
   0  -8 -10 6977.97 438.054  41
   0  -8 -10 7208.41 462.315  55
   0  -8 -10 7147.14 428.292  50
   0  -8 -10 7192.69 452.344  47
   0  -8 -10 7197.93 451.978  60
   0  -8 -11 2756.26 256.409  55
   0  -8 -11 2516.80 226.243  50
   0  -8 -11 2669.00 240.617  41
   0  -8 -12 1273.95 157.507  33
   0  -8 -12 1124.51 139.419  41
   0  -8 -12 1202.00 149.860  55
   0  -8 -13 1051.20 123.290  33
   0  -8 -13 1178.26 130.600  55
   0  -7   0-24.1092 39.1286  25
   0  -7   0 43.0942 39.0897  29
   0  -7  -1 39771.8 1516.59  29
   0  -7  -1 36754.7 1408.78  25
   0  -7   1 36482.1 1472.32  29
   0  -7   2 34847.2 1442.92  29
   0  -7  -2 31894.9 1373.05  29
   0  -7  -3 20378.8 1013.55  25
   0  -7   3 20817.7 1055.03  29
   0  -7   4 20443.0 1072.60  29
   0  -7   5 93264.5 2926.79  29
   0  -7  -6 14266.6 939.502  21
   0  -7   6 12875.0 888.634  29
   0  -7  -6 14662.0 935.304  30
   0  -7  -6 13890.0 931.824  23
   0  -7  -7 7470.19 427.984  43
   0  -7  -7 7529.44 437.560  31
   0  -7  -7 7623.14 446.181  47
   0  -7  -7 7900.88 455.001  60
   0  -7  -8 37143.1 1235.36  47
   0  -7  -8 35434.5 1176.56  43
   0  -7  -8 36922.4 1224.87  60
   0  -7  -8 36330.5 1204.20  31
   0  -7  -9 1299.45 178.750  41
   0  -7  -9 1253.69 178.870  47
   0  -7  -9 1457.34 189.924  60
   0  -7  -9 1584.14 198.049  31
   0  -7  -9 1534.87 190.918  43
   0  -7  -9 1445.98 193.996  50
   0  -7 -10 17668.5 785.091  47
   0  -7 -10 18701.1 812.194  55
   0  -7 -10 17913.8 783.835  60
   0  -7 -10 18024.7 776.731  41
   0  -7 -10 18861.9 777.614  50
   0  -7 -11 1371.85 186.739  55
   0  -7 -11 1539.42 185.300  50
   0  -7 -11 1446.42 184.283  41
   0  -7 -12 354.728 85.4321  33
   0  -7 -12 423.863 91.3781  41
   0  -7 -12 480.897 99.9321  55
   0  -7 -13 346.360 75.4926  55
   0  -7 -13 375.448 83.1967  33
   0  -7 -14 6681.81 329.429  33
   0  -6   0 39613.1 1425.75  29
   0  -6   1 6117.62 463.862  29
   0  -6  -1 5701.45 365.926  28
   0  -6  -1 5800.96 462.429  29
   0  -6  -1 5693.14 429.754  25
   0  -6  -2 50625.5 1725.53  29
   0  -6   2 52406.6 1746.68  29
   0  -6  -2 53994.7 1726.83  25
   0  -6  -2 55735.0 1611.70  28
   0  -6   3 439406. 9868.22  29
   0  -6  -3 431212. 9670.56  28
   0  -6  -3 421685. 9811.33  25
   0  -6  -4 153737. 3946.87  28
   0  -6   4 157611. 4099.63  29
   0  -6  -6 61395.1 2151.28  23
   0  -6  -6 56977.1 2063.49  30
   0  -6  -7 12165.8 831.392  30
   0  -6  -7 10993.4 818.257  23
   0  -6  -7 11043.2 799.666  21
   0  -6  -8 8616.03 477.227  43
   0  -6  -8 9166.80 508.357  47
   0  -6  -8 9936.51 517.324  60
   0  -6  -8 8782.15 492.846  31
   0  -6  -9 98635.9 2553.87  41
   0  -6  -9 95308.4 2554.85  47
   0  -6  -9 94591.7 2517.47  31
   0  -6  -9 92761.6 2498.19  43
   0  -6  -9 98850.4 2548.00  50
   0  -6  -9 96054.1 2542.82  60
   0  -6 -10 15437.5 697.281  50
   0  -6 -10 15316.8 714.840  47
   0  -6 -10 14645.1 690.579  60
   0  -6 -10 14958.2 693.655  41
   0  -6 -11 15541.3 720.338  55
   0  -6 -11 16857.2 709.927  50
   0  -6 -11 15945.8 710.538  41
   0  -6 -12 1984.70 232.771  33
   0  -6 -12 1630.82 194.343  41
   0  -6 -12 1773.90 211.071  55
   0  -6 -13 2812.56 249.914  33
   0  -6 -13 2613.50 230.364  55
   0  -6 -14 1513.85 158.257  33
   0  -5   0 330.878 88.7503  29
   0  -5   0 102.666 46.3759  28
   0  -5  -1 85184.0 2355.44  29
   0  -5  -1 87074.1 2184.14  28
   0  -5   1 86760.2 2137.96  28
   0  -5  -1 82586.2 2284.76  25
   0  -5   1 87415.5 2336.91  29
   0  -5  -2 181473. 4272.75  28
   0  -5   2 182513. 4415.24  29
   0  -5  -2 180824. 4437.75  29
   0  -5  -2 184947. 4404.43  25
   0  -5   3 99363.9 2444.11  17
   0  -5  -3 95084.2 2506.64  28
   0  -5  -3 92265.9 2583.74  25
   0  -5  -4 192985. 4673.64  28
   0  -5   6 154028. 4152.57  17
   0  -5  -6 164884. 4326.72  23
   0  -5  -6 167460. 4298.40  30
   0  -5  -7 8317.24 640.407  21
   0  -5   7 7123.50 589.949  17
   0  -5  -7 7627.07 639.487  23
   0  -5  -7 9284.82 685.036  30
   0  -5  -8 25028.7 1212.92  21
   0  -5  -8 26123.0 1305.09  23
   0  -5  -9 9659.29 526.658  47
   0  -5  -9 9688.84 510.294  43
   0  -5  -9 10074.6 530.765  60
   0  -5  -9 10107.6 527.735  41
   0  -5  -9 9320.51 505.915  31
   0  -5  -9 10449.9 536.059  50
   0  -5 -10 25744.4 927.678  41
   0  -5 -10 23138.2 896.406  60
   0  -5 -10 24405.3 924.632  55
   0  -5 -10 23799.3 921.571  47
   0  -5 -11 6561.77 429.032  41
   0  -5 -11 6024.55 415.150  55
   0  -5 -12 956.615 170.062  33
   0  -5 -12 1286.90 183.269  55
   0  -5 -13 2207.51 228.741  33
   0  -5 -13 2191.34 220.169  55
   0  -5 -14 4095.91 296.277  33
   0  -5 -15 1005.70 120.586  33
   0  -4   0 62505.5 1630.20  29
   0  -4   0 65240.9 1507.13  28
   0  -4   1 304861. 6262.67  26
   0  -4   1 295779. 6542.51  29
   0  -4  -1 282392. 6566.91  29
   0  -4   1 291388. 6386.65  28
   0  -4  -1 291978. 6428.07  28
   0  -4   1 291326. 6300.02  17
   0  -4  -2 182121. 4345.07  25
   0  -4   2 191583. 4134.97  27
   0  -4  -2 189742. 4269.63  28
   0  -4   3 117162. 2738.11  27
   0  -4  -3 113509. 2907.98  25
   0  -4  -3 113458. 2843.25  28
   0  -4  -4 191404. 4313.56  28
   0  -4   4 169123. 4153.08  27
   0  -4   5 125924. 3171.47  27
   0  -4  -6 20393.5 977.299  30
   0  -4  -6 22585.0 1032.39  23
   0  -4   7 58216.3 1887.93  27
   0  -4  -7 54978.6 1900.78  21
   0  -4  -7 56348.9 1986.39  23
   0  -4  -7 58583.3 1991.73  30
   0  -4  -8 28647.8 1321.67  30
   0  -4  -8 25649.6 1276.79  23
   0  -4  -8 24308.8 1167.60  21
   0  -4   8 25990.9 1205.80  27
   0  -4  -9 3218.27 273.985  60
   0  -4  -9 3496.57 287.956  47
   0  -4   9 2802.12 378.532  27
   0  -4 -10 31564.5 1095.98  41
   0  -4 -10 30184.3 1064.18  37
   0  -4 -10 30490.5 1084.33  60
   0  -4 -10 31241.8 1103.25  47
   0  -4 -10 32146.1 1103.33  50
   0  -4 -10 30703.5 1091.51  55
   0  -4 -11 32394.8 1120.15  41
   0  -4 -11 30460.0 1102.04  55
   0  -4 -11 30857.1 1102.03  37
   0  -4 -11 31434.0 1158.20  33
   0  -4 -12 2043.07 229.107  37
   0  -4 -12 1851.34 230.423  33
   0  -4 -12 1831.68 213.817  55
   0  -4 -13 11366.0 594.115  33
   0  -4 -13 10674.6 526.620  55
   0  -4 -13 10839.3 543.372  37
   0  -4 -14 9641.58 502.231  33
   0  -4 -15 122.014 37.2364  33
   0  -3   0 46.2349 26.4771  29
   0  -3   0 50.1118 20.3104  28
   0  -3  -1 328040. 7505.16  29
   0  -3  -1 334156. 7405.19  28
   0  -3   1 350385. 7304.89  27
   0  -3  -2 120382. 2778.26  25
   0  -3  -2 126019. 2733.20  28
   0  -3  -3 507897. 11050.6  28
   0  -3  -3 507076. 11094.0  25
   0  -3  -4 265987. 5816.07  20
   0  -3  -4 264555. 6043.31  28
   0  -3  -5 173891. 4272.22  30
   0  -3  -5 174823. 4017.76  20
   0  -3  -6 169155. 4282.40  30
   0  -3  -6 170234. 4300.18  23
   0  -3  -7 22801.3 1051.81  30
   0  -3  -7 21809.9 1040.11  23
   0  -3  -7 21690.8 972.049  21
   0  -3  -8 40108.4 1595.14  30
   0  -3  -8 37622.0 1565.32  23
   0  -3  -8 38824.0 1460.18  21
   0  -3  -9 23963.9 1243.32  30
   0  -3  -9 22447.4 1206.97  23
   0  -3   9 24916.6 1261.10  17
   0  -3 -10 50909.0 1532.77  37
   0  -3 -10 49397.8 1486.05  58
   0  -3 -10 49878.6 1518.84  55
   0  -3 -10 51735.9 1542.50  41
   0  -3 -10 51319.8 1546.23  47
   0  -3 -11 3957.36 329.210  37
   0  -3 -11 4226.65 321.780  58
   0  -3 -11 3209.16 291.289  55
   0  -3 -11 3989.97 343.104  33
   0  -3 -11 4078.09 330.101  41
   0  -3 -12 15591.0 756.625  33
   0  -3 -12 14732.6 702.193  37
   0  -3 -13 10471.7 581.498  33
   0  -3 -13 10238.9 548.193  37
   0  -3 -14 6778.92 434.101  33
   0  -3 -15 600.064 93.7196  13
   0  -3 -15 700.370 114.571  33
   0  -2  -3 59628.3 1454.24  20
   0  -2  -3 61288.2 1525.77   2
   0  -2  -3 59025.4 1560.28  28
   0  -2  -4 27003.2 864.633   2
   0  -2  -4 25761.4 897.224  30
   0  -2  -4 24794.2 795.050  20
   0  -2  -5 59151.3 1721.01  30
   0  -2  -5 56877.7 1708.33  23
   0  -2  -5 59181.2 1602.72  20
   0  -2  -6 64295.4 1940.37  30
   0  -2  -6 62053.0 1918.88  23
   0  -2  -6 64075.3 1814.90  20
   0  -2  -6 64371.9 1834.04  21
   0  -2  -7 154157. 3957.86  21
   0  -2  -7 164690. 3999.38  20
   0  -2  -7 166476. 4169.65  30
   0  -2  -7 154724. 4111.82  23
   0  -2  -8 46519.8 1755.86  23
   0  -2  -8 49662.9 1670.41  20
   0  -2  -8 50718.6 1822.38  30
   0  -2  -9 2188.50 341.022  30
   0  -2  -9 1904.51 314.693  23
   0  -2 -10 41015.7 1305.99  37
   0  -2 -10 39931.3 1273.79  58
   0  -2 -10 42320.9 1368.10  33
   0  -2 -10 38931.9 1287.44  41
   0  -2 -11 53393.0 1633.49  58
   0  -2 -11 56723.1 1687.60  37
   0  -2 -11 57185.7 1752.60  33
   0  -2 -12 6295.84 467.763  33
   0  -2 -12 5939.57 424.302  37
   0  -2 -13 2828.40 277.708  37
   0  -2 -13 3420.42 321.135  33
   0  -2 -14 3370.93 303.022  33
   0  -2 -14 2907.40 256.451  13
   0  -2 -15 2819.28 242.355  33
   0  -2 -15 2757.40 213.215  13
   0  -2 -16 1178.23 128.271  33
   0  -1   0 313.318 36.5468  29
   0  -1   0 104.456 13.7545  28
   0  -1  -2 215469. 4696.56  20
   0  -1  -2 220544. 4729.59   2
   0  -1  -2 213149. 4742.52  28
   0  -1  -3 274085. 6227.58  30
   0  -1  -3 283088. 6219.45   2
   0  -1  -3 287430. 6193.60  20
   0  -1  -4 38146.8 1159.70   2
   0  -1  -4 39289.3 1176.37  30
   0  -1  -4 37850.1 1132.70  20
   0  -1  -5 45109.1 1311.37  21
   0  -1  -5 45706.9 1399.47  23
   0  -1  -5 48820.7 1389.14  20
   0  -1  -5 45884.3 1411.08  30
   0  -1  -5 49263.6 1424.13   2
   0  -1  -6 63503.2 1904.71  23
   0  -1  -6 67359.5 1946.96  30
   0  -1  -6 65500.5 1877.87  20
   0  -1  -6 63612.9 1779.31  21
   0  -1  -7 296214. 7013.66  23
   0  -1  -7 294521. 6803.23  21
   0  -1  -7 306544. 6985.43  20
   0  -1  -7 298839. 7070.10  30
   0  -1  -8 13757.3 822.126  30
   0  -1  -8 13969.2 778.405  20
   0  -1  -8 13256.2 796.056  23
   0  -1  -9 12914.5 799.917  20
   0  -1 -10 23359.3 911.572  37
   0  -1 -10 22458.1 876.904  58
   0  -1 -10 23228.4 1203.02  20
   0  -1 -11 8791.29 547.743  33
   0  -1 -11 8675.44 513.569  37
   0  -1 -12 20752.4 928.436  33
   0  -1 -12 21312.0 890.614  37
   0  -1 -13 1341.35 196.854  33
   0  -1 -14 791.828 135.410  13
   0  -1 -14 727.477 142.705  33
   0  -1 -15 172.174 47.6781  13
   0  -1 -15 115.540 51.6823  33
   0  -1 -16 1313.89 144.466  33
   0   0  -1-0.01967 0.00041  30
   0   0  -3 203556. 4505.37  23
   0   0  -3 210541. 4465.95  15
   0   0  -3 195916. 4425.16  21
   0   0  -3 200282. 4518.01  30
   0   0  -3 207554. 4547.10   2
   0   0  -4 266074. 5817.68  20
   0   0  -4 249744. 5784.66  30
   0   0  -4 259505. 5814.49   2
   0   0  -4 259174. 5699.28  15
   0   0  -4 264682. 5584.40  24
   0   0  -4 248480. 5752.35  23
   0   0  -4 241598. 5646.28  21
   0   0  -5 7759.77 435.047   2
   0   0  -5 7370.76 418.288  30
   0   0  -5 7956.25 370.551  15
   0   0  -5 7529.14 343.148  21
   0   0  -5 8045.11 435.503  20
   0   0  -5 7093.68 397.144  23
   0   0  -6 454300. 10066.4  20
   0   0  -6 428662. 9990.06  23
   0   0  -6 426150. 9793.61  21
   0   0  -7 193265. 4774.88  20
   0   0  -8 99521.9 2882.22  20
   0   0  -9 97070.8 2934.55  20
   0   0 -10 7695.47 493.389  33
   0   0 -10 8184.12 474.487  37
   0   0  10 7604.73 669.803  17
   0   0 -10 7042.03 630.601  20
   0   0 -11 1592.77 219.634  33
   0   0 -11 2201.99 243.951  37
   0   0 -12 11625.1 665.170  33
   0   0 -12 11833.0 627.914  37
   0   0 -13 1953.13 234.959  13
   0   0 -13 1875.42 245.826  33
   0   0 -14 4011.54 343.905  33
   0   0 -14 3902.42 313.781  13
   0   0 -15 2854.79 226.545  13
   0   0 -15 2891.39 261.747  33
   0   0 -16 1513.03 148.749  33
   0   1   0 266.905 29.3664  15
   0   1  -2 233177. 5081.55  22
   0   1  -2 239008. 5093.48   2
   0   1  -2 228551. 5107.34  15
   0   1  -3 267296. 5887.78  15
   0   1  -3 270705. 5894.75   2
   0   1  -3 264717. 5832.11  22
   0   1  -4 46391.2 1298.29   2
   0   1  -4 44750.3 1206.08  22
   0   1  -4 46133.9 1271.41  15
   0   1  -5 40964.9 1211.86  15
   0   1  -5 39492.5 1278.71  20
   0   1  -5 40142.5 1255.74   2
   0   1  -6 59681.2 1809.38  20
   0   1  -7 314948. 7386.38  20
   0   1  -8 17654.4 933.125  20
   0   1  -9 14813.3 894.597  20
   0   1 -10 26458.6 974.787  37
   0   1 -10 26389.4 1020.71  33
   0   1 -11 8265.51 509.999  37
   0   1 -11 7975.70 529.815  33
   0   1 -12 22931.4 958.242  13
   0   1 -12 23173.4 1002.74  33
   0   1 -13 1586.65 225.027  33
   0   1 -13 1703.38 216.994  13
   0   1 -14 640.307 135.695  33
   0   1 -14 634.161 127.435  13
   0   1 -15 144.681 54.3827  13
   0   1 -15 69.5647 18.6467  33
   0   1 -16 1234.50 133.116  33
   0   2  -3 52066.6 1409.21  15
   0   2  -3 52143.7 1348.75   2
   0   2  -3 51217.4 1372.04  22
   0   2  -4 21543.9 742.646  22
   0   2  -4 22203.6 765.810   2
   0   2  -4 21943.1 790.814  15
   0   2  -4 20952.5 793.088  20
   0   2  -5 45719.1 1388.40  15
   0   2  -5 45243.4 1317.82  22
   0   2  -5 44756.4 1417.51  20
   0   2  -6 62154.2 1829.51  15
   0   2  -6 62255.5 1886.65  20
   0   2  -7 173516. 4426.23  20
   0   2  -8 48624.8 1775.03  20
   0   2  -9 4198.18 463.692  20
   0   2   9 2792.16 346.717  17
   0   2 -10 41630.3 1346.09  37
   0   2 -10 39892.5 1343.23  13
   0   2 -10 40106.1 1383.86  33
   0   2 -11 51303.2 1686.83  33
   0   2 -11 51787.0 1639.13  13
   0   2 -12 5638.99 439.358  13
   0   2 -12 6644.71 498.667  33
   0   2 -13 3607.92 348.954  33
   0   2 -13 3466.53 313.934  13
   0   2 -14 2713.14 279.663  33
   0   2 -14 2964.35 267.189  13
   0   2 -15 3055.32 229.259  13
   0   2 -15 2828.34 248.205  33
   0   2 -16 1161.41 127.558  12
   0   3   0 80.1154 29.6121  14
   0   3   0 95.1347 16.1904  20
   0   3   0 60.2709 24.4891  15
   0   3  -1 321865. 7151.49  15
   0   3  -1 328359. 7046.02  14
   0   3  -1 328822. 7042.67  20
   0   3  -2 114606. 2612.95  15
   0   3  -2 106299. 2516.58  20
   0   3  -3 496089. 10751.3  20
   0   3  -3 490290. 10806.7  15
   0   3  -3 494842. 10794.0  22
   0   3  -4 286014. 6472.46  20
   0   3  -4 288560. 6503.67  15
   0   3  -4 280809. 6445.70  22
   0   3  -5 175245. 4307.79  20
   0   3  -5 178153. 4235.69  22
   0   3  -5 178911. 4314.85  15
   0   3  -6 164618. 4008.23  22
   0   3  -6 166537. 4120.70  15
   0   3  -6 158142. 4115.31  20
   0   3  -7 21600.4 1014.91  20
   0   3  -8 35781.8 1479.90  20
   0   3  -9 20791.0 1129.09  20
   0   3 -10 55051.7 1654.62  13
   0   3 -10 52211.0 1519.33  48
   0   3 -10 51401.3 1670.94  33
   0   3 -11 4365.29 382.934  33
   0   3 -11 4670.86 381.164  13
   0   3 -12 12550.6 680.040  13
   0   3 -12 13539.5 740.609  33
   0   3 -13 9373.26 575.202  33
   0   3 -13 9400.09 538.999  13
   0   3 -14 6275.69 393.798  13
   0   3 -14 6294.07 435.035  33
   0   3 -15 641.399 113.400  33
   0   3 -15 637.023 105.338  12
   0   4   0 55505.8 1592.67  18
   0   4   0 55562.2 1462.09  14
   0   4   0 54641.0 1227.22  20
   0   4  -1 276725. 6413.12  18
   0   4  -1 281902. 6323.59  15
   0   4  -1 285114. 6145.05  20
   0   4  -1 283759. 6214.67  14
   0   4  -2 202807. 4621.41  15
   0   4  -2 195406. 4462.00  20
   0   4  -2 198019. 4637.76  22
   0   4  -2 197929. 4372.83  14
   0   4  -3 107423. 2629.44  20
   0   4  -3 105463. 2725.27  22
   0   4  -3 106220. 2729.89  15
   0   4  -4 168852. 4092.91  20
   0   4  -4 168258. 4151.67  22
   0   4  -4 176516. 4212.36  15
   0   4  -5 142569. 3626.88  20
   0   4  -5 143581. 3626.81  22
   0   4  -5 144960. 3696.00  15
   0   4  -6 21720.9 935.983  22
   0   4  -6 20054.9 944.321  20
   0   4  -7 61186.2 2047.94  20
   0   4  -8 27553.5 1286.25  20
   0   4  -9 2904.65 281.756  33
   0   4 -10 29777.0 1097.95  13
   0   4 -10 29314.2 1023.10  48
   0   4 -10 29742.9 1140.37  33
   0   4 -11 30813.5 1218.66  33
   0   4 -11 33694.1 1177.28  36
   0   4 -11 32863.9 1197.17  13
   0   4 -11 33296.0 1108.28  48
   0   4 -12 1996.60 208.657  48
   0   4 -12 2137.95 268.892  33
   0   4 -12 2015.37 240.863  13
   0   4 -13 9895.55 580.473  33
   0   4 -13 10031.5 549.753  13
   0   4 -14 9627.79 528.713  12
   0   4 -14 9978.68 538.173  33
   0   4 -14 10151.8 495.493  13
   0   4 -15 140.511 45.2243  12
   0   4 -15 259.854 63.0907  33
   0   5   0 110.964 46.3456  18
   0   5   0 73.9512 41.2348  14
   0   5   1 91682.5 2391.07  14
   0   5  -1 95692.3 2265.84  14
   0   5  -1 89636.2 2482.91  18
   0   5  -1 92798.7 2369.35  15
   0   5  -1 89050.5 2437.65  22
   0   5   1 90576.3 2542.78  18
   0   5  -2 163035. 3788.83  20
   0   5  -2 168803. 4020.73  15
   0   5  -2 164735. 4064.03  22
   0   5  -2 167401. 3761.74  14
   0   5  -3 95795.2 2417.36  20
   0   5  -3 94884.3 2586.17  15
   0   5  -3 96578.5 2612.13  22
   0   5  -4 187686. 4578.70  15
   0   5  -4 181183. 4529.64  22
   0   5  -4 182250. 4395.49  20
   0   5  -5 180128. 4391.42  20
   0   5  -5 173654. 4457.71  22
   0   5  -6 171080. 4306.13  22
   0   5  -6 160751. 4245.64  20
   0   5  -7 6116.60 532.151  20
   0   5  -8 20332.9 1117.41  20
   0   5  -9 12481.3 629.142  13
   0   5  -9 12627.3 604.676  48
   0   5   9 14359.3 627.422  11
   0   5  -9 11893.9 636.136  33
   0   5   9 14435.0 627.675  53
   0   5  -9 11602.6 609.488  36
   0   5 -10 21545.8 841.427  48
   0   5  10 19780.9 798.474  11
   0   5 -10 21110.0 879.456  13
   0   5 -10 19708.3 857.112  36
   0   5  10 19330.0 791.649  53
   0   5 -10 20285.6 902.185  33
   0   5 -11 7096.65 456.713  36
   0   5 -11 6387.13 471.284  33
   0   5 -11 6686.36 427.973  48
   0   5  11 6909.90 427.732  39
   0   5 -11 6889.12 462.178  13
   0   5 -12 1083.58 164.640  48
   0   5 -12 839.768 173.226  12
   0   5 -12 1185.24 190.850  13
   0   5 -12 948.531 204.308  33
   0   5 -13 2334.39 254.939  12
   0   5 -13 2267.66 249.493  33
   0   5 -13 2190.94 232.158  13
   0   5 -14 4211.94 319.463  33
   0   5 -14 4561.03 299.872  13
   0   5 -14 4356.89 328.253  12
   0   5 -15 721.417 103.795  12
   0   6   0 48014.1 1672.44  18
   0   6   0 48881.2 1578.78  22
   0   6   0 50321.0 1484.56  14
   0   6   1 4149.84 341.888  14
   0   6  -1 3810.99 368.270  18
   0   6   1 4575.33 426.334  18
   0   6  -1 3852.13 355.166  22
   0   6   2 48906.7 1610.55  14
   0   6  -2 49701.3 1657.08  22
   0   6  -3 402142. 9249.00  22
   0   6  -4 158183. 4137.11  22
   0   6  -5 68647.2 2056.04  20
   0   6  -5 67547.5 2197.92  22
   0   6  -6 32332.6 1395.04  20
   0   6  -6 52588.4 1746.75  22
   0   6  -7 9483.10 686.634  20
   0   6   8 5729.56 387.110  53
   0   6  -8 6169.23 438.763  33
   0   6  -8 7460.00 442.793  48
   0   6  -8 6223.48 430.636  12
   0   6  -8 6773.81 446.775  36
   0   6   8 5982.90 396.045  11
   0   6  -8 6632.86 428.912  13
   0   6  -9 92403.1 2615.26  12
   0   6   9 103084. 2592.22  11
   0   6  -9 96805.3 2649.24  33
   0   6  -9 96812.4 2571.78  48
   0   6   9 103056. 2587.81  53
   0   6  -9 94082.5 2595.03  36
   0   6  -9 95982.2 2606.33  13
   0   6 -10 14164.3 729.723  33
   0   6  10 16116.6 701.882  53
   0   6 -10 15056.1 723.016  13
   0   6 -10 15078.5 718.445  36
   0   6 -10 14119.8 733.164  12
   0   6 -10 14841.9 696.213  48
   0   6  10 15993.0 699.789  11
   0   6 -11 15596.1 732.180  13
   0   6 -11 15971.6 712.542  48
   0   6  11 16280.8 698.696  39
   0   6 -11 15539.9 712.854  36
   0   6 -11 14484.1 746.584  33
   0   6 -11 14223.5 737.390  12
   0   6 -12 1959.91 245.663  33
   0   6 -12 1966.16 226.960  13
   0   6 -12 2073.76 253.367  12
   0   6  12 1690.07 190.792  39
   0   6 -13 3055.77 261.473  13
   0   6 -13 3203.59 288.313  12
   0   6 -14 1301.39 161.470  12
   0   7   0 94.6363 76.1854  18
   0   7   0 58.4148 28.3711  22
   0   7  -1 38154.9 1455.10  22
   0   7   1 39311.3 1595.42  18
   0   7   1 38718.3 1407.39  22
   0   7   1 39842.2 1397.38  14
   0   7   2 45267.5 1492.89  22
   0   7  -2 45422.3 1626.05  22
   0   7   2 38156.8 1489.53  14
   0   7   2 38952.6 1670.97  18
   0   7   3 19237.9 1103.45  18
   0   7   3 19589.2 986.962  14
   0   7  -3 18376.0 977.819  22
   0   7   4 21676.2 1102.83  14
   0   7  -4 21341.7 1089.84  22
   0   7  -5 98877.0 3033.22  22
   0   7  -6 18767.0 1066.89  22
   0   7   7 7579.96 448.713  53
   0   7  -7 7667.38 459.905  12
   0   7  -7 7355.01 445.362  48
   0   7  -7 7900.21 459.953  13
   0   7   7 7776.62 455.439  11
   0   7  -7 7029.10 441.562  36
   0   7  -8 41007.2 1370.85  12
   0   7  -8 42536.7 1361.27  48
   0   7  -8 42173.7 1361.07  13
   0   7   8 41689.4 1345.45  53
   0   7   8 40990.0 1339.38  11
   0   7  -8 41131.1 1364.79  36
   0   7   9 1186.17 170.474  11
   0   7  -9 1378.25 193.233  48
   0   7  -9 1044.42 171.545  13
   0   7   9 1162.15 166.808  53
   0   7  -9 1092.76 177.653  12
   0   7  -9 1086.57 168.937  36
   0   7 -10 16546.2 789.184  12
   0   7 -10 17911.4 782.726  36
   0   7  10 17327.0 751.567  11
   0   7  10 17760.4 757.144  53
   0   7 -10 16266.6 764.299  13
   0   7  11 1668.54 199.582  39
   0   7 -11 1546.98 201.383  13
   0   7 -11 1306.08 195.457  12
   0   7 -11 1572.82 197.036  36
   0   7 -12 364.090 104.338  12
   0   7 -12 343.078 95.4144  13
   0   7  12 218.381 64.0230  39
   0   7  13 198.158 52.1628  39
   0   7 -13 227.350 60.0206  12
   0   7 -14 7061.23 360.421  12
   0   8   0 153283. 4068.69  22
   0   8   0 145271. 4225.52  18
   0   8   1 35113.4 1405.53  22
   0   8  -1 36070.0 1490.31  22
   0   8   1 35083.7 1607.61  18
   0   8   2 13460.4 953.437  18
   0   8  -2 14264.0 886.325  22
   0   8   3 3756.93 436.956  14
   0   8  -3 3301.06 414.750  22
   0   8   3 3666.23 498.871  18
   0   8  -4 88958.3 2961.59  22
   0   8   4 93212.0 2996.70  14
   0   8  -5 14657.3 668.861  36
   0   8  -5 15415.1 688.093   6
   0   8   5 15833.4 679.828  11
   0   8   5 15129.6 665.653  53
   0   8  -5 15442.1 676.762  12
   0   8  -6 6209.87 409.950  12
   0   8   6 5244.31 374.023  11
   0   8   6 5275.97 374.367  53
   0   8  -6 5546.31 387.564  36
   0   8   7 4652.68 352.490  11
   0   8   7 4649.28 352.879  53
   0   8  -7 4977.83 375.675  36
   0   8  -7 4381.40 355.028  12
   0   8   8 7035.68 461.732  53
   0   8   8 7046.71 463.071  11
   0   8  -8 8729.16 538.196  12
   0   8  -8 9392.97 544.390  36
   0   8  -9 19724.2 871.910  12
   0   8   9 21328.3 862.973  11
   0   8  -9 19994.3 858.153  36
   0   8   9 22177.5 869.401  53
   0   8  10 6118.01 403.230  53
   0   8  10 6101.51 403.639  11
   0   8 -10 6444.06 430.310  36
   0   8 -10 6457.85 450.424  12
   0   8  10 6226.07 408.960  39
   0   8 -11 2569.55 257.524  12
   0   8  11 2942.41 250.466  39
   0   8 -11 2666.61 249.901  36
   0   8  12 1127.78 138.970  39
   0   8 -12 1272.95 167.773  12
   0   8  13 919.669 104.037  39
   0   8 -13 1124.72 142.641  12
   0   9   0 61.2437 10.6257   7
   0   9   0 100.977 59.6972  22
   0   9   1 21067.8 791.204   7
   0   9  -1 20052.7 781.898   7
   0   9  -1 21776.9 867.761   6
   0   9  -2 13648.5 662.941   6
   0   9   2 13569.9 604.394   7
   0   9  -2 15119.2 667.643  36
   0   9   3 75234.8 2033.79  53
   0   9   3 75110.0 2011.73   7
   0   9  -3 80567.3 2111.20  36
   0   9   3 75393.7 2038.04  11
   0   9  -3 70540.4 1998.31   7
   0   9  -3 77641.2 2121.22   6
   0   9  -4 6281.08 426.339   6
   0   9   4 6560.99 409.151  53
   0   9   4 6094.24 367.976   7
   0   9  -4 5432.71 357.754   7
   0   9  -4 6288.57 416.307  36
   0   9   4 6589.68 408.464  11
   0   9   5 13373.1 630.896  11
   0   9  -5 13565.8 648.442  36
   0   9  -5 11276.1 551.397   7
   0   9   5 13045.7 622.157  53
   0   9   6 7273.43 454.883  53
   0   9   6 7148.22 451.727  11
   0   9  -6 7104.25 461.889  36
   0   9   7 804.794 140.816  53
   0   9   7 781.359 141.625  11
   0   9  -7 821.483 142.591  12
   0   9  -7 782.525 146.493  36
   0   9   8 11856.9 603.955  11
   0   9  -8 12461.7 641.379  12
   0   9  -8 12122.4 625.003  36
   0   9   8 11146.1 586.033  53
   0   9  -9 10904.9 571.425  36
   0   9  -9 11143.0 595.243  12
   0   9   9 11061.6 563.065  53
   0   9   9 10495.6 553.828  39
   0   9   9 10921.3 561.244  11
   0   9 -10 13237.7 616.844  36
   0   9  10 13502.8 611.487  39
   0   9 -10 13195.6 651.786  12
   0   9  11 930.070 130.321  39
   0   9 -11 879.259 126.194  36
   0   9  12 7569.21 362.966  39
   0  10   0 24734.8 918.075   7
   0  10   1 10053.4 534.671   7
   0  10  -1 11439.2 561.947   7
   0  10  -1 12018.6 633.348   6
   0  10   2 62741.2 1744.55   7
   0  10  -2 59482.2 1737.77   7
   0  10  -2 60167.8 1844.23   6
   0  10   3 6020.18 398.777  11
   0  10  -3 9113.02 483.262   7
   0  10   3 6165.65 404.019  53
   0  10  -3 9825.20 553.741   6
   0  10   3 9608.59 485.033   7
   0  10   4 18747.5 778.220  53
   0  10   4 19217.5 786.731  11
   0  10  -4 20347.4 842.563  36
   0  10  -4 19156.2 843.350   6
   0  10  -4 18263.2 757.355   7
   0  10   4 19384.0 755.939   7
   0  10   5 7906.34 466.495  11
   0  10   5 8250.78 475.385  53
   0  10  -5 7968.87 489.326  36
   0  10  -5 7052.56 422.907   7
   0  10   6 3012.05 288.417  53
   0  10   6 2963.28 284.376  11
   0  10   7 33620.0 1154.40  11
   0  10  -7 34227.8 1191.86  36
   0  10   7 34013.1 1157.48  53
   0  10   8 3379.97 289.173  53
   0  10   8 3326.82 285.369  11
   0  10  -8 4053.25 329.322  36
   0  10   8 3476.00 293.065  39
   0  10   9 3649.54 285.998  39
   0  10  -9 4228.25 320.653  36
   0  10   9 3552.32 282.802  53
   0  10 -10 531.532 106.457  36
   0  10  10 533.383 99.1771  39
   0  10  11 1090.79 124.902  39
   0  11   0 175.874 62.2995   7
   0  11   0 41.8178 36.8637   6
   0  11  -1 2837.48 300.756   6
   0  11   1 2755.57 260.693   7
   0  11   1 3069.32 321.039   6
   0  11  -1 3200.61 284.262   7
   0  11  -2 28081.7 1009.64   7
   0  11   2 27886.5 991.502   7
   0  11  -2 27972.3 1100.50   6
   0  11  -3 7692.33 504.827   6
   0  11   3 7428.18 431.843   7
   0  11  -3 7453.79 443.513   7
   0  11   4 4084.09 301.599   7
   0  11   4 4128.51 311.304  53
   0  11   4 4232.66 318.904  11
   0  11  -4 3990.88 311.204   7
   0  11  -5 1416.91 182.140   7
   0  11   5 1449.96 181.689  53
   0  11   5 1465.93 165.827   7
   0  11   5 1503.21 181.816  39
   0  11   5 1546.64 185.930  11
   0  11   6 5227.76 356.003  39
   0  11   6 5102.44 354.526  11
   0  11   6 4875.42 346.260  53
   0  11   7 237.966 66.3349  11
   0  11   7 232.764 65.5861  53
   0  11   7 280.680 69.4748  39
   0  11   8 1102.97 146.482  39
   0  11   9 10737.3 476.422  39
   0  11  10 8931.32 390.344  39
   0  12   0 25227.7 1022.55   6
   0  12   0 24841.9 918.005   7
   0  12  -1 261.972 75.9404   7
   0  12  -1 329.394 94.0867   6
   0  12   1 271.145 76.4230   6
   0  12   1 285.260 80.3523   7
   0  12  -2 3078.07 276.434   7
   0  12   2 3498.65 279.929   7
   0  12   2 3333.32 323.136   6
   0  12  -2 3256.03 317.914   6
   0  12   3 1674.71 220.374   6
   0  12   3 1236.95 159.165   7
   0  12  -3 1530.50 207.186   6
   0  12  -3 1546.03 184.871   7
   0  12   4 7255.45 391.346   7
   0  12  -4 7085.46 409.274   7
   0  12   5 2843.91 233.288  53
   0  12  -5 2532.74 223.546   7
   0  12   6 4361.54 284.615  39
   0  12   7 4889.96 295.300  39
   0  12   8 2032.76 171.206  39
   0  13   0 63.6988 31.5999   7
   0  13   0 92.7157 37.0444   6
   0  13  -1 3796.67 283.170   7
   0  13   1 3854.94 278.542   7
   0  13  -1 4093.56 331.055   6
   0  13   1 4028.05 331.090   6
   0  13   2 3000.17 280.632   6
   0  13  -2 3359.44 262.317   7
   0  13   2 3190.74 245.199   7
   0  13   3 725.258 129.272   6
   0  13   3 762.787 108.237   7
   0  13  -3 822.992 122.214   7
   0  13   4 377.377 71.6013   7
   0  13  -4 361.129 73.5368   7
   0  13   4 324.838 81.5896   6
   0  13   5 5523.24 336.220   6
   0  13   6 565.137 91.8366   6
   0  13   7 1307.00 126.214   6
   0  14   0 4118.95 254.444   7
   0  14   0 4097.33 286.518   6
   0  14   1 7771.12 361.997   7
   0  14  -1 7748.85 368.440   7
   0  14   1 7850.37 404.565   6
   0  14  -2 3198.38 219.193   7
   0  14   2 3217.99 241.642   6
   0  14   2 3120.11 206.207   7
   0  14   3 582.922 92.8807   6
   0  14   3 527.016 73.3364   7
   0  14  -3 643.132 87.9496   7
   0  14   4 765.782 99.5126   6
   1 -14  -3 1252.33 116.822  31
   1 -14  -2 3460.16 211.471  31
   1 -13  -7 19.3273 14.0194  50
   1 -13  -7 16.9975 1.40240  31
   1 -13  -6 431.349 77.8697  31
   1 -13  -5 1279.41 137.955  31
   1 -13  -4 3042.41 228.175  31
  -1 -13  -5 172.516 40.8811  41
  -1 -13  -6 1306.27 136.813  50
  -1 -13  -6 1284.07 125.354  41
   1 -12  -9 1188.91 119.433  55
   1 -12  -9 1223.68 124.188  41
   1 -12  -9 1120.00 115.613  60
   1 -12  -8 2326.34 190.004  60
   1 -12  -8 2336.31 193.999  55
   1 -12  -8 2147.52 183.851  31
   1 -12  -8 2574.65 211.265  41
   1 -12  -8 2231.09 186.713  50
   1 -12  -7 1062.68 133.257  31
   1 -12  -7 954.756 123.934  60
   1 -12  -6 1271.45 153.233  60
   1 -12  -6 1315.39 156.646  31
   1 -12  -5 7366.91 411.943  31
   1 -12  -5 6989.38 386.229  60
  -1 -12  -3 904.265 128.862  31
  -1 -12  -4 7974.42 410.032  31
  -1 -12  -5 3227.92 238.708  31
  -1 -12  -6 3764.38 247.597  31
  -1 -12  -6 3979.97 278.791  41
  -1 -12  -7 1689.05 164.687  41
  -1 -12  -7 1768.24 173.692  50
  -1 -12  -8 2831.41 192.715  55
  -1 -12  -8 3118.97 215.163  41
  -1 -12  -8 3361.81 228.856  50
   1 -11 -10 3040.48 222.097  41
   1 -11 -10 2957.15 223.446  55
   1 -11 -10 2319.14 177.097  50
   1 -11 -10 2978.78 215.861  60
   1 -11  -9 3803.09 272.138  41
   1 -11  -9 3728.88 273.106  55
   1 -11  -9 3588.44 261.962  60
   1 -11  -9 3734.82 255.939  50
   1 -11  -9 3838.55 264.690  31
   1 -11  -8 1617.39 174.713  47
   1 -11  -8 1622.52 181.094  31
   1 -11  -8 1837.04 193.212  60
   1 -11  -8 1825.82 181.461  43
   1 -11  -7 6375.05 372.608  43
   1 -11  -7 6671.30 398.052  60
   1 -11  -7 6525.63 394.714  31
   1 -11  -6 1481.76 175.765  43
   1 -11  -6 1331.76 182.302  31
   1 -11  -6 1590.86 190.988  60
   1 -11  -5 13779.3 606.024  43
  -1 -11  -4 9006.31 475.995  31
  -1 -11  -5 13493.1 598.498  31
  -1 -11  -6 8650.30 445.914  60
  -1 -11  -6 8710.02 461.666  55
  -1 -11  -6 8170.09 439.477  31
  -1 -11  -7 998.489 147.251  50
  -1 -11  -7 929.425 132.489  60
  -1 -11  -7 892.917 120.896  31
  -1 -11  -7 1036.77 140.203  55
  -1 -11  -7 974.742 143.813  41
  -1 -11  -8 1749.69 178.718  55
  -1 -11  -8 1648.95 173.969  41
  -1 -11  -8 1634.69 177.075  50
  -1 -11  -9 6301.50 333.104  50
  -1 -11  -9 5726.15 321.815  55
  -1 -11  -9 6260.82 335.016  41
  -1 -11 -10 3437.28 215.196  55
  -1 -11 -10 3755.83 223.958  41
   1 -10 -12 8026.02 352.255  33
   1 -10 -12 7969.36 356.424  55
   1 -10 -11 4265.79 265.023  41
   1 -10 -11 4238.62 280.630  55
   1 -10 -10 5206.04 332.569  60
   1 -10 -10 4785.30 318.334  47
   1 -10 -10 4999.00 324.357  41
   1 -10 -10 4837.27 305.024  50
   1 -10 -10 5197.22 342.901  55
   1 -10  -9 746.529 129.638  41
   1 -10  -9 626.879 107.342  43
   1 -10  -9 680.325 119.533  60
   1 -10  -9 614.828 110.504  47
   1 -10  -9 636.631 115.512  31
   1 -10  -9 500.566 88.6648  50
   1 -10  -8 4556.51 334.240  47
   1 -10  -8 4625.33 341.740  60
   1 -10  -8 4548.66 326.832  43
   1 -10  -8 4603.31 338.415  31
   1 -10  -7 6125.98 400.475  31
   1 -10  -7 5945.34 381.651  43
   1 -10  -7 5474.00 374.791  47
   1 -10  -7 5975.32 400.466  60
   1 -10  -6 17051.2 719.257  47
   1 -10  -6 16754.9 710.905  43
  -1 -10  -5 5218.13 360.259  31
  -1 -10  -5 5072.31 350.177  60
  -1 -10  -6 7922.40 456.066  60
  -1 -10  -6 7889.61 451.055  31
  -1 -10  -7 5116.35 366.224  55
  -1 -10  -7 5242.62 355.184  60
  -1 -10  -7 5274.94 348.630  31
  -1 -10  -8 17063.0 712.710  50
  -1 -10  -8 16387.3 699.048  55
  -1 -10  -8 16197.2 658.577  31
  -1 -10  -8 15612.0 667.590  60
  -1 -10  -8 16262.1 696.568  41
  -1 -10  -9 1907.78 196.654  41
  -1 -10  -9 2059.51 207.249  55
  -1 -10  -9 1989.84 200.720  50
  -1 -10 -10 11331.0 486.978  33
  -1 -10 -10 11403.7 508.738  55
  -1 -10 -10 11773.8 506.506  41
  -1 -10 -10 11679.4 497.419  50
  -1 -10 -11 3853.32 228.765  33
  -1 -10 -11 4163.03 251.227  55
   1  -9 -13 1532.36 139.816  33
   1  -9 -12 3690.60 242.827  41
   1  -9 -12 3717.71 260.582  33
   1  -9 -12 3821.17 266.188  55
   1  -9 -11 1468.73 165.036  41
   1  -9 -11 1547.94 181.395  55
   1  -9 -11 1321.33 158.796  60
   1  -9 -10 2772.19 249.356  31
   1  -9 -10 3012.68 265.233  41
   1  -9 -10 2683.98 254.347  60
   1  -9 -10 2903.36 248.646  50
   1  -9 -10 2569.24 250.005  47
   1  -9  -9 10040.6 522.823  43
   1  -9  -9 10358.2 534.621  31
   1  -9  -9 10128.9 544.487  47
   1  -9  -9 10646.1 534.780  50
   1  -9  -9 10760.5 559.125  60
   1  -9  -8 13788.3 655.841  60
   1  -9  -8 13736.4 658.370  47
   1  -9  -8 13612.7 629.536  43
   1  -9  -8 14048.3 653.457  31
   1  -9  -7 53744.3 1624.74  31
   1  -9  -7 53380.9 1615.78  47
   1  -9  -7 55089.7 1605.65  43
   1  -9  -7 54056.8 1571.72  42
   1  -9  -6 1594.30 194.125  43
   1  -9  -6 1436.69 185.297  47
   1  -9  -5 12438.9 588.760  47
   1  -9   0 340.314 183.074  29
  -1  -9  -5 11440.0 562.904  60
  -1  -9  -5 10780.4 544.864  31
  -1  -9  -6 10447.4 535.000  31
  -1  -9  -6 10057.4 534.542  60
  -1  -9  -7 12358.2 587.788  31
  -1  -9  -7 11882.0 591.155  60
  -1  -9  -7 11673.6 580.562  47
  -1  -9  -8 15824.0 698.996  47
  -1  -9  -8 16757.1 735.884  50
  -1  -9  -8 16000.3 683.259  31
  -1  -9  -8 15984.4 730.162  55
  -1  -9  -8 16389.3 724.500  41
  -1  -9  -8 15371.1 698.216  60
  -1  -9  -9 28307.8 1019.31  55
  -1  -9  -9 27884.2 996.295  41
  -1  -9  -9 28499.5 1003.52  50
  -1  -9  -9 26821.9 974.638  60
  -1  -9 -10 1034.99 150.839  55
  -1  -9 -10 964.061 139.977  41
  -1  -9 -10 1057.14 139.926  50
  -1  -9 -11 1934.38 178.414  50
  -1  -9 -11 1908.61 189.139  55
  -1  -9 -11 1754.99 173.247  41
  -1  -9 -11 1760.81 171.550  33
  -1  -9 -12 1905.39 163.824  55
  -1  -9 -12 1833.81 154.471  33
   1  -8 -13 10270.9 457.320  55
   1  -8 -13 10886.0 474.618  33
   1  -8 -12 4065.57 303.695  55
   1  -8 -12 3549.61 268.205  41
   1  -8 -12 3751.63 292.599  33
   1  -8 -11 12662.3 582.711  41
   1  -8 -11 12664.2 610.812  55
   1  -8 -11 12349.9 602.989  47
   1  -8 -11 12498.2 593.132  60
   1  -8 -10 6667.71 425.843  41
   1  -8 -10 6372.78 412.667  43
   1  -8 -10 6321.05 420.943  60
   1  -8 -10 7318.81 423.542  50
   1  -8 -10 6609.45 419.778  31
   1  -8 -10 6712.73 439.428  47
   1  -8  -9 18362.6 762.910  43
   1  -8  -9 17492.3 773.393  60
   1  -8  -9 17880.2 785.387  47
   1  -8  -9 19070.0 772.871  50
   1  -8  -9 18035.8 763.854  31
   1  -8  -8 23583.5 908.964  43
   1  -8  -8 23709.6 935.438  47
   1  -8  -8 24361.0 939.175  60
   1  -8  -8 23948.3 917.064  31
   1  -8  -7 49549.1 1494.76  31
   1  -8  -7 47106.1 1442.27  42
   1  -8  -7 49210.3 1501.82  47
   1  -8  -7 48760.6 1467.84  43
   1  -8  -6 31045.9 1064.14  47
   1  -8  -6 30251.9 1019.99  42
   1  -8  -5-0.30366 0.00637  23
   1  -8  -4 52939.9 2037.57  25
   1  -8  -4 57183.8 2121.25  21
   1  -8  -3 49781.5 1878.38  25
   1  -8  -3 47248.7 1851.53  21
   1  -8  -2 19160.0 1058.13  25
   1  -8  -2 21950.4 1187.50  29
   1  -8  -2 21767.6 1095.58  21
   1  -8  -1 66812.6 2275.26  25
   1  -8  -1 68013.1 2209.35  21
   1  -8  -1 69772.7 2435.54  29
   1  -8   0 3162.61 426.346  29
  -1  -8   0 3388.19 371.119  25
  -1  -8  -1 26741.6 1216.04  25
   1  -8   1 29027.4 1414.76  29
  -1  -8  -2 17627.9 962.814  25
   1  -8   2 15537.5 1009.92  29
   1  -8   3 12987.5 919.035  29
  -1  -8  -6 40179.0 1256.59  31
  -1  -8  -6 38057.6 1243.94  47
  -1  -8  -6 39449.8 1266.25  60
  -1  -8  -7 12684.3 599.456  31
  -1  -8  -7 12354.7 568.091  43
  -1  -8  -7 11814.5 591.045  47
  -1  -8  -7 11645.2 593.136  60
  -1  -8  -8 5069.88 378.376  60
  -1  -8  -8 4993.87 373.462  47
  -1  -8  -8 5683.55 408.453  50
  -1  -8  -8 5099.29 391.351  41
  -1  -8  -8 4559.14 338.087  43
  -1  -8  -8 4797.31 357.594  31
  -1  -8  -9 26038.0 991.140  55
  -1  -8  -9 25148.9 956.488  50
  -1  -8  -9 24564.5 946.049  60
  -1  -8  -9 25568.4 965.578  41
  -1  -8 -10 4555.38 354.367  55
  -1  -8 -10 4497.08 347.897  50
  -1  -8 -10 4698.06 352.980  41
  -1  -8 -11 1197.54 159.126  55
  -1  -8 -11 1345.78 167.044  33
  -1  -8 -11 1169.15 150.129  41
  -1  -8 -11 1166.67 150.480  50
  -1  -8 -12 2772.89 211.764  50
  -1  -8 -12 2836.64 231.866  55
  -1  -8 -12 2725.58 224.319  33
  -1  -8 -13 1974.77 156.177  33
   1  -7 -14 4741.21 288.572  33
   1  -7 -14 4651.59 262.643  55
   1  -7 -13-12.9601 35.7898  55
   1  -7 -13-33.5187 34.7983  33
   1  -7 -12 1919.79 210.382  55
   1  -7 -12 1783.01 190.371  41
   1  -7 -12 1809.88 207.601  33
   1  -7 -11 2580.00 254.571  60
   1  -7 -11 2686.27 250.887  41
   1  -7 -11 2578.89 258.046  55
   1  -7 -11 2443.01 255.125  47
   1  -7 -10 4966.45 364.008  43
   1  -7 -10 5110.69 385.263  47
   1  -7 -10 4860.43 369.210  60
   1  -7 -10 5014.71 366.927  31
   1  -7 -10 5162.35 373.550  41
   1  -7 -10 4982.45 355.753  50
   1  -7  -9 4882.16 360.609  43
   1  -7  -9 4751.98 352.123  31
   1  -7  -9 4700.66 365.781  47
   1  -7  -9 4423.25 346.117  60
   1  -7  -9 4831.98 349.170  50
   1  -7  -8 105057. 2692.17  60
   1  -7  -8 102375. 2666.36  31
   1  -7  -8 102014. 2645.75  42
   1  -7  -8 102421. 2689.61  47
   1  -7  -8 103052. 2655.13  43
   1  -7  -7 23378.2 871.122  31
   1  -7  -7 23868.4 860.776  42
   1  -7  -7 22585.1 874.875  47
   1  -7  -7 23751.2 863.774  43
   1  -7  -6 18559.2 1051.66  23
   1  -7  -6 18055.8 1061.00  21
   1  -7  -5 976.890 216.457  23
   1  -7  -5 847.983 190.423  28
  -1  -7   5 1187.42 231.059  29
   1  -7  -5 991.861 225.364  21
   1  -7  -4 73624.6 2402.10  25
   1  -7  -4 72773.5 2297.00  28
  -1  -7   4 70297.1 2332.18  29
   1  -7  -4 79710.7 2408.16  23
   1  -7  -4 78041.0 2481.86  21
   1  -7  -3 54096.9 1768.01  28
   1  -7  -3 53261.9 1803.82  23
  -1  -7   3 54295.4 1857.01  29
   1  -7  -3 53623.3 1881.45  25
   1  -7  -2 135942. 3532.46  28
   1  -7  -2 143090. 3859.93  29
  -1  -7   2 137314. 3670.61  29
   1  -7  -2 130932. 3668.28  25
  -1  -7   1 17606.8 821.025  25
   1  -7  -1 14954.1 905.526  29
   1  -7   0 62338.1 2204.75  29
  -1  -7   0 68666.8 2053.66  25
   1  -7   1 63994.3 2197.02  29
  -1  -7  -1 65222.7 2042.33  25
   1  -7   2 52288.2 1938.95  29
  -1  -7  -2 54217.9 1824.01  25
   1  -7   3 122746. 3554.37  29
   1  -7   4 18794.7 1059.64  29
  -1  -7  -5 3899.88 457.342  30
   1  -7   5 5124.71 539.048  29
  -1  -7  -6 11174.5 543.254  60
  -1  -7  -6 10836.5 536.972  47
  -1  -7  -6 11141.2 534.784  31
  -1  -7  -7 32896.1 1100.88  43
  -1  -7  -7 35093.0 1169.68  47
  -1  -7  -7 35913.3 1177.33  60
  -1  -7  -7 35758.9 1150.31  31
  -1  -7  -8 30775.5 1093.64  41
  -1  -7  -8 30189.8 1061.77  31
  -1  -7  -8 30737.4 1088.66  60
  -1  -7  -8 30879.8 1093.11  47
  -1  -7  -8 29519.6 1028.00  43
  -1  -7  -8 32522.0 1126.14  50
  -1  -7  -9 3202.03 299.723  55
  -1  -7  -9 3340.37 298.845  50
  -1  -7  -9 3319.38 300.407  60
  -1  -7  -9 3123.41 290.170  41
  -1  -7  -9 3019.67 284.434  47
  -1  -7 -10 6148.57 423.849  55
  -1  -7 -10 6362.15 421.381  50
  -1  -7 -10 6354.02 418.820  41
  -1  -7 -11 6226.52 409.696  55
  -1  -7 -11 6376.43 403.469  41
  -1  -7 -11 6397.45 396.180  50
  -1  -7 -11 6574.29 416.067  33
  -1  -7 -12 2434.13 225.478  33
  -1  -7 -12 2186.59 208.924  50
  -1  -7 -12 2116.58 213.733  55
  -1  -7 -13 420.860 80.4794  33
   1  -6 -15 1201.35 125.704  33
   1  -6 -14 2997.62 217.847  55
   1  -6 -14 3024.30 242.797  33
   1  -6 -13 7126.10 426.196  33
   1  -6 -13 6991.17 406.988  55
   1  -6 -12 2460.77 240.447  41
   1  -6 -12 2507.54 251.328  55
   1  -6 -12 2631.05 268.942  33
   1  -6 -11 1046.96 163.286  47
   1  -6 -11 978.414 154.058  60
   1  -6 -11 848.411 137.800  41
   1  -6 -10 12805.0 644.676  47
   1  -6 -10 12526.1 620.278  43
   1  -6 -10 12864.5 636.942  60
   1  -6 -10 12521.9 623.778  31
   1  -6 -10 13196.7 631.356  41
   1  -6  -9 31497.4 1063.53  50
   1  -6  -9 31029.0 1070.45  43
   1  -6  -9 30991.3 1084.84  60
   1  -6  -9 30568.9 1073.52  31
   1  -6  -9 30412.9 1088.91  47
   1  -6  -8 21563.9 835.828  47
   1  -6  -8 21178.9 825.075  60
   1  -6  -8 21410.1 814.260  42
   1  -6  -8 21075.5 817.405  31
   1  -6  -8 21236.2 810.653  43
   1  -6  -7 1057.76 236.211  30
   1  -6  -7 870.956 209.501  21
   1  -6  -7 1126.43 248.408  23
   1  -6  -6 61545.3 2166.27  21
   1  -6  -6 63820.3 2120.33  28
   1  -6  -6 64658.3 2202.41  23
   1  -6  -5 39850.7 1533.14  23
   1  -6  -5 38732.1 1544.70  21
   1  -6  -5 40270.7 1531.85  25
   1  -6  -5 40080.5 1484.86  28
   1  -6  -4 64265.5 2088.62  25
   1  -6  -4 65219.2 2025.67  28
  -1  -6   4 63792.2 2037.88  29
   1  -6  -4 70621.3 2124.75  23
  -1  -6   3 163562. 4031.59  29
   1  -6  -3 155524. 4058.39  25
   1  -6  -3 155690. 3952.25  28
   1  -6  -2 71150.6 2020.06  28
  -1  -6   2 72267.5 2081.20  29
   1  -6  -2 67563.2 2097.99  25
   1  -6  -2 67575.4 2191.29  29
   1  -6  -1 5177.56 458.267  29
   1  -6  -1 5209.05 379.844  28
  -1  -6   1 5406.66 415.369  29
  -1  -6   1 5010.74 372.813  25
  -1  -6   0 2319.77 266.650  29
   1  -6   0 2721.85 262.876  28
   1  -6   0 2207.84 292.924  29
  -1  -6   0 2228.22 247.902  25
   1  -6   1 53667.9 1792.80  29
  -1  -6  -1 56081.8 1699.74  29
  -1  -6  -1 51441.3 1652.49  25
   1  -6   1 51865.3 1585.08  28
   1  -6   2 46618.3 1737.67  29
   1  -6   2 52205.8 1590.74  28
   1  -6   3 43182.9 1594.54  29
   1  -6   4 36723.0 1482.71  29
  -1  -6  -5 52627.7 1884.48  30
  -1  -6  -6 111479. 3334.16  30
  -1  -6  -7 416.006 95.3305  47
  -1  -6  -7 370.519 78.3395  31
  -1  -6  -7 457.943 98.0632  60
  -1  -6  -8 53549.5 1586.93  41
  -1  -6  -8 51987.4 1569.53  47
  -1  -6  -8 48867.1 1503.16  43
  -1  -6  -8 55673.5 1609.99  50
  -1  -6  -8 51456.1 1557.74  60
  -1  -6  -8 50968.7 1533.37  31
  -1  -6  -9 12047.0 616.292  41
  -1  -6  -9 12545.8 633.115  55
  -1  -6  -9 13001.5 634.122  50
  -1  -6  -9 11571.0 602.030  60
  -1  -6  -9 11675.6 610.541  47
  -1  -6 -10 7887.47 485.351  50
  -1  -6 -10 7701.06 482.970  41
  -1  -6 -11 7356.60 453.327  41
  -1  -6 -11 7057.78 438.437  50
  -1  -6 -11 7440.57 459.471  33
  -1  -6 -11 6795.75 443.146  55
  -1  -6 -12 6225.59 396.270  55
  -1  -6 -12 6297.61 401.392  33
  -1  -6 -12 5673.42 365.977  50
  -1  -6 -13 906.088 134.660  33
  -1  -6 -14 5201.83 294.493  33
   1  -5 -15 5784.10 324.077  33
   1  -5 -14 1640.57 192.166  33
   1  -5 -13 4835.57 334.931  55
   1  -5 -13 4592.58 333.917  37
   1  -5 -13 5354.21 379.679  33
   1  -5 -13 4805.30 324.078  58
   1  -5 -12 11539.7 580.318  37
   1  -5 -12 11976.5 624.266  33
   1  -5 -12 11828.5 591.899  55
   1  -5 -12 11405.7 570.734  41
   1  -5 -12 10595.9 549.913  58
   1  -5 -11 9075.30 498.355  58
   1  -5 -11 8903.09 501.901  37
   1  -5 -11 9125.36 506.870  41
   1  -5 -11 9193.69 515.407  60
   1  -5 -11 8928.56 520.768  47
   1  -5 -10 18169.2 748.250  58
   1  -5 -10 18174.2 770.056  31
   1  -5 -10 18483.4 782.095  60
   1  -5 -10 17816.2 781.200  47
   1  -5 -10 17520.5 759.315  43
   1  -5 -10 19418.1 781.994  41
   1  -5  -9 14210.0 634.836  31
   1  -5  -9 13672.6 639.411  47
   1  -5  -9 13714.1 628.230  60
   1  -5  -9 13597.2 625.477  43
   1  -5  -8 115669. 3553.83  23
   1  -5  -8 121235. 3518.98  30
   1  -5  -8 118285. 3479.56  21
   1  -5  -7 165.141 87.7599  21
   1  -5  -7 259.986 108.547  30
   1  -5  -6 181629. 4587.17  21
   1  -5  -6 177697. 4597.69  23
   1  -5  -6 168306. 4475.07  28
   1  -5  -5 34072.8 1342.26  21
   1  -5  -5 35211.1 1306.11  28
   1  -5  -5 35089.1 1330.34  25
   1  -5  -5 36007.9 1354.83  23
   1  -5  -4 93741.4 2710.18  25
   1  -5  -4 98974.8 2679.60  28
   1  -5  -3 21522.2 863.242  28
   1  -5  -3 21581.1 907.462  25
   1  -5  -2 124317. 2957.95  28
  -1  -5   2 120014. 2946.47  29
   1  -5  -1 79417.9 2332.28  29
   1  -5  -1 81657.4 2172.63  28
  -1  -5   1 85813.7 2215.34  29
   1  -5   0 223770. 5422.61  29
  -1  -5   0 220061. 5283.81  29
  -1  -5   0 235891. 5284.40  25
   1  -5   0 231981. 5260.85  28
   1  -5   1 6416.07 379.937  28
  -1  -5  -1 5201.09 365.742  25
  -1  -5  -1 5368.72 308.489  28
  -1  -5  -1 5584.17 376.970  29
  -1  -5  -2 113215. 2961.93  25
   1  -5   2 116616. 2829.97  17
  -1  -5  -2 123299. 2847.00  28
   1  -5   3 34481.1 1152.60  17
   1  -5   4 66089.1 1948.57  17
   1  -5   4 64783.2 1872.92  27
  -1  -5  -5 12865.0 758.032  30
   1  -5   5 13188.6 687.101  27
   1  -5   5 12819.3 726.013  17
   1  -5   6 46745.2 1740.26  17
  -1  -5  -6 51348.4 1831.46  30
   1  -5   7 8073.77 660.861  17
  -1  -5  -7 10456.2 752.224  30
  -1  -5  -7 9667.29 739.680  23
  -1  -5  -8 63264.6 1799.05  60
  -1  -5  -8 66591.8 1830.69  41
  -1  -5  -8 62432.5 1805.76  47
  -1  -5  -8 68461.4 1856.53  50
  -1  -5  -8 64206.4 1786.48  31
  -1  -5  -9 3534.60 307.290  50
  -1  -5  -9 3148.29 291.772  55
  -1  -5  -9 2989.36 281.927  60
  -1  -5  -9 3509.92 299.841  41
  -1  -5  -9 3386.45 297.102  47
  -1  -5 -10 7855.69 487.309  50
  -1  -5 -10 7162.76 467.866  55
  -1  -5 -10 6902.95 459.352  41
  -1  -5 -11 15111.2 712.410  33
  -1  -5 -11 14704.6 688.211  50
  -1  -5 -11 14006.6 675.055  41
  -1  -5 -11 14791.5 698.083  55
  -1  -5 -12 6409.71 403.193  50
  -1  -5 -12 6637.62 435.326  33
  -1  -5 -12 5971.64 400.210  55
  -1  -5 -13 463.389 96.7681  33
  -1  -5 -14 330.451 67.5284  33
   1  -4 -15 764.503 113.858  33
   1  -4 -14 1963.11 217.326  33
   1  -4 -14 2020.28 211.298  37
   1  -4 -13 5417.26 381.792  37
   1  -4 -13 5488.95 398.512  33
   1  -4 -13 5204.36 358.477  58
   1  -4 -12 1995.31 226.311  55
   1  -4 -12 1698.48 227.937  33
   1  -4 -12 2072.66 237.551  37
   1  -4 -12 1774.01 212.800  58
   1  -4 -11 36362.7 1211.22  47
   1  -4 -11 37324.7 1185.86  58
   1  -4 -11 36812.1 1192.48  60
   1  -4 -11 37023.1 1200.11  55
   1  -4 -11 37234.3 1209.76  37
   1  -4 -10 53616.7 1575.65  41
   1  -4 -10 53732.2 1585.76  60
   1  -4 -10 50069.3 1543.91  58
   1  -4 -10 53757.7 1601.04  47
   1  -4  -9 85294.3 2804.36  23
   1  -4  -9 88170.5 2776.22  30
   1  -4  -8 43496.4 1734.10  23
   1  -4  -8 42048.0 1636.40  21
   1  -4  -8 44623.6 1701.32  30
   1  -4  -7 80777.6 2512.80  21
   1  -4  -7 87589.2 2581.91  30
   1  -4  -7 84968.8 2601.86  23
   1  -4  -6 45845.5 1619.56  23
   1  -4  -6 44700.7 1578.88  21
   1  -4  -6 47514.2 1596.08  28
   1  -4  -5 68679.1 2075.39  21
   1  -4  -5 72390.7 2077.99  28
   1  -4  -5 69661.5 2094.04  23
   1  -4  -5 71643.5 1922.11   2
   1  -4  -4 32835.5 996.719   2
   1  -4  -4 33516.0 1167.52  23
   1  -4  -4 33392.5 1155.28  25
   1  -4  -4 31532.7 1120.16  28
   1  -4  -3 186378. 4373.50  28
   1  -4  -3 187342. 4414.72  25
   1  -4  -3 184567. 4146.32   2
  -1  -4   2 252287. 5077.86  28
   1  -4  -2 235235. 5040.89   2
   1  -4  -2 241010. 5326.18  28
   1  -4  -1 999999. 21392.5  28
   1  -4   0 21238.7 640.829   9
  -1  -4   0 21135.2 747.911  29
   1  -4   0 22249.5 665.405  26
   1  -4   0 21245.4 829.127  29
  -1  -4   0 23246.3 649.764  28
  -1  -4   0 22441.5 756.247  25
   1  -4   0 21593.6 749.453  28
  -1  -4  -1 349956. 7676.49  29
   1  -4   1 343820. 7778.44  29
   1  -4   1 336978. 7555.00  17
  -1  -4  -1 348042. 7551.20  28
  -1  -4  -1 332514. 7673.46  25
  -1  -4  -2 74438.5 1947.24  25
   1  -4   2 83536.2 1733.12  21
  -1  -4  -2 79310.4 1866.37  28
   1  -4   2 72128.8 1863.48  17
   1  -4   3 218784. 4952.76  27
   1  -4   3 210027. 4986.10  17
   1  -4   4 425295. 9339.94  17
  -1  -4  -4 411434. 9372.74  30
   1  -4   4 409902. 9259.56  27
   1  -4   5 72830.6 2144.51  17
   1  -4   5 74735.0 2093.70  27
   1  -4   6 24334.0 1096.61  17
   1  -4   6 22446.0 1026.42  27
   1  -4   7 1805.55 287.688  17
  -1  -4  -7 1654.73 277.973  23
  -1  -4  -7 1987.48 297.571  30
   1  -4   7 1357.74 237.810  27
   1  -4   8 73381.3 2538.69  17
  -1  -4  -8 79982.0 2607.03  30
  -1  -4  -8 74816.5 2555.69  23
   1  -4   8 71479.3 2438.77  27
  -1  -4  -9 22286.4 862.023  55
  -1  -4  -9 20774.4 840.809  47
  -1  -4  -9 21696.4 857.558  41
  -1  -4  -9 21710.4 850.476  60
  -1  -4  -9 21835.8 869.143  50
  -1  -4 -10 27210.9 1031.11  55
  -1  -4 -10 28824.2 1070.02  33
  -1  -4 -10 28483.7 1050.63  41
  -1  -4 -10 28382.3 1057.61  50
  -1  -4 -11 12075.9 628.269  50
  -1  -4 -11 12075.9 618.746  55
  -1  -4 -11 12330.4 650.045  33
  -1  -4 -11 13038.8 610.938  37
  -1  -4 -12 6639.35 456.898  33
  -1  -4 -12 6896.52 435.205  55
  -1  -4 -12 6962.12 440.924  50
  -1  -4 -13 9240.76 516.423  33
  -1  -4 -14 1169.26 153.185  33
  -1  -4 -15 402.154 72.5913  33
   1  -3 -16 2219.69 176.874  33
   1  -3 -16 1921.18 154.342  13
   1  -3 -15 4280.69 293.078  13
   1  -3 -15 4461.28 311.249  33
   1  -3 -14 9515.50 515.464  37
   1  -3 -14 9978.18 542.720  33
   1  -3 -13 1253.04 192.979  33
   1  -3 -13 1598.82 203.539  37
   1  -3 -12 23102.0 926.976  37
   1  -3 -12 23156.3 959.940  33
   1  -3 -12 22007.4 893.954  58
   1  -3 -11 5528.54 396.510  37
   1  -3 -11 5326.11 381.023  58
   1  -3 -11 5760.92 419.481  33
   1  -3 -11 5424.49 388.387  47
   1  -3 -10 33820.8 1149.09  58
   1  -3 -10 36064.2 1174.38  47
   1  -3 -10 34361.3 1149.04  60
   1  -3  -9 57761.1 2157.79  23
   1  -3  -9 62116.4 2162.28  30
   1  -3  -8 22845.2 1144.27  23
   1  -3  -8 23973.6 1084.24  21
   1  -3  -8 25442.4 1155.44  30
   1  -3  -7 19517.3 962.110  23
   1  -3  -7 19692.2 913.767  21
   1  -3  -7 21187.0 970.973  30
   1  -3  -6 131696. 3415.44   2
   1  -3  -6 139635. 3502.21  21
   1  -3  -6 137113. 3560.32  23
   1  -3  -6 136279. 3505.98  30
   1  -3  -5 16325.9 673.581   2
   1  -3  -5 15363.0 712.163  21
   1  -3  -5 16029.7 740.943  23
   1  -3  -5 16539.5 730.743  28
   1  -3  -4 383518. 8536.07  23
   1  -3  -4 369237. 8490.53  25
   1  -3  -4 375687. 8491.09  28
   1  -3  -4 375496. 8384.75   2
   1  -3  -3 99951.9 2485.65  25
   1  -3  -3 99480.0 2160.14  15
   1  -3  -3 101703. 2481.09  28
   1  -3  -3 97623.2 2349.18   2
   1  -3  -2 381730. 8226.23  29
   1  -3  -2 367653. 8082.93  28
  -1  -3   1 73372.7 1661.54  19
  -1  -3   1 74265.2 1804.36  29
   1  -3  -1 73460.9 1840.71  28
   1  -3  -1 73948.7 1939.09  29
  -1  -3   1 75144.5 1665.06  28
  -1  -3   0 114396. 2702.89  29
   1  -3   0 113210. 2814.86  29
   1  -3   0 114328. 2665.68  26
  -1  -3   0 121485. 2613.87  28
  -1  -3   0 119965. 2728.15  25
  -1  -3  -1 268427. 5875.10  28
   1  -3   1 272907. 5912.74  17
  -1  -3  -1 266917. 5972.98  25
   1  -3   1 286874. 6060.55  29
  -1  -3  -1 286672. 5951.13  29
   1  -3   2 199564. 4511.52  27
   1  -3   2 192200. 4303.11  21
   1  -3   2 201634. 4537.82  17
   1  -3   3 18290.4 709.046  27
   1  -3   3 18491.3 735.122  17
   1  -3   4 14156.2 657.128  17
   1  -3   4 12616.0 608.858  27
  -1  -3  -4 13743.0 528.381  20
  -1  -3  -4 14096.7 664.407  30
   1  -3   5 225732. 5385.40  17
  -1  -3  -5 222025. 5389.11  30
   1  -3   5 226080. 5341.48  27
   1  -3   6 6968.08 528.982  17
   1  -3   6 7153.42 511.490  27
  -1  -3  -6 8317.03 575.514  30
   1  -3   7 19768.1 1015.42  17
   1  -3   7 20460.1 998.392  27
  -1  -3  -7 20329.6 1032.78  30
  -1  -3  -7 19622.9 1005.48  23
  -1  -3  -8 23562.2 1197.88  30
   1  -3   8 19761.6 1085.29  17
  -1  -3  -8 22999.9 1168.90  23
  -1  -3  -9 3074.52 424.377  23
  -1  -3  -9 3825.93 309.197  41
  -1  -3 -10 42230.0 1378.32  50
  -1  -3 -10 43963.1 1410.11  33
  -1  -3 -10 40246.9 1317.10  37
  -1  -3 -10 41519.1 1342.67  55
  -1  -3 -10 41274.4 1358.53  41
  -1  -3 -11 16632.2 767.418  50
  -1  -3 -11 17472.2 752.190  37
  -1  -3 -11 17298.7 800.629  33
  -1  -3 -11 16809.2 744.868  55
  -1  -3 -12 4365.18 337.485  55
  -1  -3 -12 4662.97 380.629  33
  -1  -3 -13 1563.09 205.505  33
  -1  -3 -14 2341.32 229.678  33
  -1  -3 -15 668.648 100.357  33
   1  -2 -16 1628.24 149.068  13
   1  -2 -16 1824.37 165.811  33
   1  -2 -15 2098.64 215.372  33
   1  -2 -15 1870.68 197.084  13
   1  -2 -14 7810.90 497.722  33
   1  -2 -14 8252.38 485.434  37
   1  -2 -13 8266.50 506.418  37
   1  -2 -13 8241.76 524.309  33
   1  -2 -12 22148.2 945.553  33
   1  -2 -12 22118.0 909.193  37
   1  -2 -12 20437.2 871.222  58
   1  -2 -11 3718.19 314.076  58
   1  -2 -11 3782.33 337.920  33
   1  -2 -11 3915.38 329.977  37
   1  -2  -9 9400.72 696.997  30
   1  -2  -9 9549.42 648.889  20
   1  -2  -8 13752.2 733.748  20
   1  -2  -8 13603.4 785.720  30
   1  -2  -8 11974.2 694.079  21
   1  -2  -8 13068.5 792.415  23
   1  -2  -7 65.4263 46.1610  21
   1  -2  -7 33.8107 24.3739  20
   1  -2  -7 22.0185 18.5129  23
   1  -2  -7 15.0767 24.5462  30
   1  -2  -6 102004. 2750.14  21
   1  -2  -6 107026. 2855.20  23
   1  -2  -6 105921. 2802.46   2
   1  -2  -6 108555. 2718.35  20
   1  -2  -6 110010. 2823.27  30
   1  -2  -5 96900.9 2499.12  28
   1  -2  -5 91572.5 2443.28  21
   1  -2  -5 96562.6 2373.32  20
   1  -2  -5 97203.1 2454.58   2
   1  -2  -5 94217.7 2507.64  23
   1  -2  -4 54517.5 1451.61  20
   1  -2  -4 55660.6 1573.22  23
   1  -2  -4 58070.5 1301.72  15
   1  -2  -4 55055.5 1544.30  21
   1  -2  -4 54239.5 1549.60  28
   1  -2  -4 56486.5 1514.42   2
   1  -2  -1 370752. 8095.88  29
   1  -2   0 317831. 6933.41  29
  -1  -2  -3 166647. 3904.65  30
  -1  -2  -4 239302. 5542.42  30
  -1  -2  -5 136556. 3296.09  20
  -1  -2  -5 131954. 3419.78  30
  -1  -2  -6 247276. 5844.49  20
  -1  -2  -6 248711. 6025.40  30
  -1  -2  -6 253588. 5786.91  24
  -1  -2  -7 20905.6 917.234  20
   1  -2   7 19160.5 972.129  17
  -1  -2  -7 19807.5 1001.11  30
  -1  -2  -7 18944.0 952.096  23
   1  -2   8 34262.5 1482.84  17
  -1  -2  -8 36804.8 1406.98  20
  -1  -2  -8 37060.9 1558.76  30
  -1  -2  -8 36871.1 1506.75  23
   1  -2   9 1418.51 275.103  17
  -1  -2  -9 1149.68 240.476  23
   1  -2   9 1395.20 274.829  27
  -1  -2 -10 23094.0 899.052  55
  -1  -2 -10 25161.9 980.488  50
  -1  -2 -10 22187.9 895.473  37
  -1  -2 -10 24217.6 965.984  33
  -1  -2 -11 14318.2 662.160  37
  -1  -2 -11 14134.2 648.689  55
  -1  -2 -11 14190.5 703.274  33
  -1  -2 -12 11693.6 648.327  33
  -1  -2 -13 1629.26 218.341  33
  -1  -2 -14 3131.81 284.112  33
  -1  -2 -15 2779.62 224.604  33
   1  -1 -16 926.813 123.707  33
   1  -1 -16 954.331 117.784  13
   1  -1 -15 707.176 121.825  13
   1  -1 -15 654.740 122.821  33
   1  -1 -14 3681.18 328.714  33
   1  -1 -14 3595.23 317.189  13
   1  -1 -13 3358.65 330.923  33
   1  -1 -13 3504.59 322.728  37
   1  -1 -12 20527.0 905.182  33
   1  -1 -12 19553.4 860.126  37
   1  -1 -11 34329.9 1209.98  37
   1  -1 -11 36818.1 1274.00  33
   1  -1 -11 33871.4 1194.28  58
   1  -1 -10 12106.8 825.231  20
   1  -1  -9 26525.3 1194.36  20
   1  -1  -8 52521.1 1809.56  30
   1  -1  -8 54877.2 1788.32  20
   1  -1  -7 37643.8 1340.66  30
   1  -1  -7 39223.8 1328.92  20
   1  -1  -7 37353.6 1366.05  23
   1  -1  -7 38456.1 1364.98   2
   1  -1  -6 54787.2 1442.67  15
   1  -1  -6 55618.6 1680.30  23
   1  -1  -6 52822.7 1648.27   2
   1  -1  -6 57598.6 1661.31  30
   1  -1  -6 55251.9 1581.25  21
   1  -1  -6 53504.5 1610.28  20
   1  -1  -5 53343.0 1550.23  30
   1  -1  -5 53518.3 1520.38  21
   1  -1  -5 54103.8 1593.40  23
   1  -1  -5 59244.9 1427.50  15
   1  -1  -5 57146.4 1555.22  20
   1  -1  -5 55650.9 1586.29   2
   1  -1  -4 248623. 5574.26  28
   1  -1  -4 250823. 5532.74  21
   1  -1  -4 242750. 5516.95  20
   1  -1  -4 250556. 5558.68   2
   1  -1  -4 257680. 5407.96  15
   1  -1  -2 285333. 6138.67  28
   1  -1  -2 279763. 6104.52  25
   1  -1   0 69490.0 1593.18  29
   1  -1   0 67941.3 1537.54  21
   1  -1   1 213418. 4757.66  17
   1  -1   1 218331. 4759.11  27
  -1  -1  -1 211571. 4751.77  30
  -1  -1  -3 195568. 4470.66  30
  -1  -1  -4 53407.9 1551.21  30
  -1  -1  -4 54046.8 1433.35  24
  -1  -1  -5 223512. 5351.54  30
  -1  -1  -5 228970. 5159.22  24
  -1  -1  -6 375391. 8548.67  30
  -1  -1  -6 377677. 8451.90  20
  -1  -1  -6 367305. 8246.60  21
  -1  -1  -6 366441. 8435.79  23
  -1  -1  -7 27626.2 1123.21  20
   1  -1   7 29038.2 1184.80  17
   1  -1   8 69086.9 2275.75  17
  -1  -1  -8 69519.3 2215.45  20
  -1  -1  -8 66885.1 2218.88  23
  -1  -1  -9 20676.7 1099.51  20
   1  -1   9 26334.7 1276.14  17
  -1  -1 -10 3028.51 299.051  50
  -1  -1 -10 3131.13 283.054  37
  -1  -1 -10 3810.46 332.881  33
  -1  -1 -11 3756.22 346.292  33
  -1  -1 -11 3675.59 320.559  37
  -1  -1 -12 14579.1 745.471  33
  -1  -1 -13 1105.01 177.755  33
  -1  -1 -14 2571.13 257.282  33
  -1  -1 -15 2441.47 215.805  33
   1   0 -16 1112.23 151.807  33
   1   0 -16 1110.88 139.771  13
   1   0 -15 543.599 106.227  33
   1   0 -15 583.744 106.499  13
   1   0 -14 277.523 87.7416  33
   1   0 -14 398.034 97.5680  13
   1   0 -13 12980.9 697.623  33
   1   0 -13 13479.8 691.710  37
   1   0 -12 27398.7 1105.16  33
   1   0 -12 27900.4 1080.32  37
   1   0 -11 956.075 148.470  52
   1   0 -11 767.257 146.844  37
   1   0 -11 1108.25 192.029  33
   1   0 -11 833.151 149.129  58
   1   0 -10 7681.26 648.925  20
   1   0  -9 112219. 3228.46  20
   1   0  -8 2276.27 296.688  20
   1   0  -8 1979.60 282.558   2
   1   0  -7 54597.3 1736.48   2
   1   0  -7 53447.1 1714.95  20
   1   0  -7 54282.0 1568.23  15
   1   0  -6 54031.8 1519.66  15
   1   0  -6 50777.2 1630.35   2
   1   0  -6 54468.1 1649.21  20
   1   0  -5 144529. 3579.43   2
   1   0  -5 150836. 3476.92  15
   1   0  -5 138772. 3495.22  30
   1   0  -4 253402. 5651.00  30
   1   0  -4 257517. 5731.61   2
   1   0  -4 263491. 5723.62  20
   1   0  -4 264877. 5651.01  15
   1   0  -3 156383. 3591.03  30
   1   0  -3 157264. 3642.43  28
   1   0  -3 163377. 3628.74  15
   1   0  -1 56607.3 1269.88  28
   1   0  -1 55886.1 1306.98  15
   1   0   0 1774.18 713.947  29
   1   0   0 3011.40 718.331  14
   1   0   1 82656.6 1896.07  17
  -1   0  -1 80996.4 1880.57  24
  -1   0  -1 80760.6 1893.83  30
   1   0   1 86434.2 1898.87  27
  -1   0  -2 231369. 4924.92  30
   1   0   2 220469. 4896.35  17
  -1   0  -2 236208. 4863.14  24
  -1   0  -3 385766. 8495.98  30
  -1   0  -3 389426. 8382.34  24
  -1   0  -4 296544. 6475.55  24
  -1   0  -4 291910. 6655.68  30
  -1   0  -5 44534.4 1345.64  23
  -1   0  -5 45916.6 1208.42  21
  -1   0  -6 237004. 5443.83  20
  -1   0  -6 217444. 5303.91  23
   1   0   7 10428.4 639.394  17
  -1   0  -7 9167.32 611.032  20
  -1   0  -7 8781.74 559.808  23
  -1   0  -8 51652.6 1852.12  20
   1   0   8 52026.1 1842.07  17
   1   0   9 35835.9 1531.87  17
  -1   0  -9 35010.7 1520.07  20
  -1   0 -10 1526.90 214.895  50
  -1   0 -10 1638.45 209.180  37
  -1   0 -10 1650.41 229.444  33
  -1   0 -11 18108.3 851.223  33
  -1   0 -12 25327.7 1062.00  33
  -1   0 -13 4075.50 362.394  33
  -1   0 -14 1940.50 225.471  33
  -1   0 -15 96.7814 56.3739  33
   1   1 -16 1044.25 125.655  33
   1   1 -16 1073.47 126.349  13
   1   1 -15 568.635 108.187  13
   1   1 -15 467.774 109.956  33
   1   1 -14 2578.29 269.496  13
   1   1 -14 2750.39 282.771  33
   1   1 -13 3494.70 339.450  33
   1   1 -13 3895.98 348.438  13
   1   1 -12 20028.5 874.415  37
   1   1 -12 18816.9 877.904  33
   1   1 -12 18886.2 876.766  13
   1   1 -11 30701.1 1075.05  52
   1   1 -11 30814.1 1126.16  37
   1   1 -11 30092.0 1149.26  33
   1   1 -10 13739.0 912.826  20
   1   1  -9 28567.7 1283.46  20
   1   1  -8 58149.9 1957.84  20
   1   1  -8 61795.7 1860.02  15
   1   1  -7 32021.6 1223.29  20
   1   1  -7 32352.2 1224.29   2
   1   1  -7 33866.7 1160.95  15
   1   1  -6 45924.4 1461.02   2
   1   1  -6 46004.7 1397.83  15
   1   1  -6 45512.0 1465.89  20
   1   1  -5 56406.7 1562.76  15
   1   1  -5 57482.0 1613.43  20
   1   1  -5 54868.1 1587.17   2
   1   1  -4 256680. 5735.19  15
   1   1  -4 256441. 5740.58   2
   1   1  -3 706467. 15116.2  15
   1   1  -2 276750. 6032.13  15
  -1   1   0 62485.8 1364.00  18
   1   1   0 59425.5 1399.40  14
   1   1   0 58896.6 1381.50  15
   1   1   0 58107.4 1364.02   9
   1   1   1 182742. 3981.94  17
  -1   1  -3 183995. 4147.58  23
  -1   1  -3 182538. 4185.54  22
  -1   1  -4 50506.0 1350.03  23
  -1   1  -4 52239.0 1331.10  22
  -1   1  -5 232724. 5276.96  23
  -1   1  -6 366471. 8480.53  20
   1   1   6 371673. 8392.31  17
  -1   1  -7 25041.0 1108.98  20
   1   1   7 24999.2 1051.63  17
   1   1   8 72763.7 2284.74  17
  -1   1  -8 69399.6 2325.70  20
  -1   1  -9 24246.1 1222.18  20
   1   1   9 22933.6 1161.72  17
  -1   1 -10 2991.08 307.279  33
  -1   1 -11 2627.40 295.287  33
  -1   1 -11 2630.11 263.049  13
  -1   1 -12 14900.5 774.952  33
  -1   1 -13 1061.31 177.623  33
  -1   1 -14 2271.96 247.798  33
  -1   1 -15 2376.00 218.043  33
   1   2 -16 1610.86 153.022  33
   1   2 -16 1826.78 162.039  13
   1   2 -15 2153.74 218.494  33
   1   2 -15 1880.78 201.710  13
   1   2 -14 7566.94 486.681  13
   1   2 -14 7198.73 480.557  33
   1   2 -13 7640.09 520.028  33
   1   2 -13 7492.23 506.513  13
   1   2 -12 21989.1 971.023  13
   1   2 -12 22714.0 983.376  33
   1   2 -11 3933.02 349.281  13
   1   2 -11 3976.90 332.076  52
   1   2 -11 3854.25 340.261  37
   1   2 -11 3704.66 339.416  33
   1   2  -9 9290.45 694.378  20
   1   2  -8 16719.8 840.037  15
   1   2  -8 16110.4 878.140  20
   1   2  -7 234.706 84.6904  20
   1   2  -7 244.394 96.4611  15
   1   2  -6 96626.3 2597.39  20
   1   2  -6 95852.6 2563.21  15
   1   2  -6 95144.7 2562.67   2
   1   2  -5 97701.8 2481.33   2
   1   2  -5 95262.9 2509.92  20
   1   2  -5 97370.7 2509.50  15
   1   2  -4 56561.4 1552.42  15
   1   2  -4 54012.5 1486.41   2
   1   2  -4 55544.3 1529.73  20
  -1   2   0 305281. 6816.15  18
   1   2   0 323666. 6826.77  14
   1   2   3 185560. 4038.98  17
  -1   2  -3 172081. 4080.61  22
   1   2   4 230156. 5147.87  17
  -1   2  -4 225590. 5153.29  22
   1   2   5 138344. 3332.25  17
  -1   2  -5 135904. 3276.47  22
   1   2   6 228696. 5414.74  17
  -1   2  -6 232566. 5600.87  20
   1   2   7 19699.4 877.541  17
  -1   2  -7 17449.1 925.970  20
   1   2   8 36783.2 1404.98  17
  -1   2  -8 34990.2 1502.49  20
  -1   2  -9 1588.78 283.928  20
  -1   2 -10 20825.2 875.642  13
  -1   2 -10 25308.7 1021.83  33
  -1   2 -11 15712.7 730.997  13
  -1   2 -11 16379.6 813.110  33
  -1   2 -12 12852.6 713.334  33
  -1   2 -13 1155.46 188.757  33
  -1   2 -14 3279.75 306.675  33
  -1   2 -15 2725.85 232.152  33
   1   3 -16 2587.83 197.311  12
   1   3 -15 4287.15 302.148  13
   1   3 -15 4067.64 298.642  33
   1   3 -14 9102.70 527.556  13
   1   3 -14 9400.92 537.830  33
   1   3 -13 910.874 165.202  13
   1   3 -13 811.778 155.176  33
   1   3 -12 21873.9 967.700  13
   1   3 -12 22953.6 984.148  33
   1   3 -12 22743.2 861.111  48
   1   3 -11 4378.16 373.893  13
   1   3 -11 3912.98 307.340  48
   1   3 -11 4425.50 373.978  33
   1   3 -10 34216.7 1152.00  52
   1   3 -10 33255.9 1151.61  37
   1   3 -10 30926.0 1151.29  13
   1   3 -10 28990.0 1119.04  33
   1   3  -9 53454.2 1987.39  20
   1   3  -8 24408.3 1144.51  20
   1   3  -8 24702.7 1120.68  15
   1   3  -7 20450.5 942.646  15
   1   3  -7 19737.9 939.073  20
   1   3  -6 134044. 3456.21  20
   1   3  -6 134749. 3481.26  15
   1   3  -6 134289. 3399.32   2
   1   3  -5 19114.0 803.934  20
   1   3  -5 20165.0 809.648  22
   1   3  -5 18888.0 760.678   2
   1   3  -4 366817. 7959.04   2
   1   3  -4 358951. 8101.69  15
   1   3  -4 369653. 8031.83  20
   1   3  -4 373339. 8074.98  22
   1   3  -3 106852. 2659.79  15
   1   3  -3 110217. 2652.44  22
   1   3  -3 106001. 2568.75  20
   1   3  -3 105753. 2505.29   2
   1   3  -2 408965. 8920.47  20
   1   3  -2 400460. 9038.24  15
   1   3  -2 428676. 8953.63  14
  -1   3   1 82679.4 1819.77  19
   1   3  -1 81504.9 1955.94  14
   1   3  -1 80030.2 1992.48  22
   1   3  -1 76754.9 1969.18  15
   1   3   0 117349. 2776.02  18
   1   3   0 118311. 2710.68  22
  -1   3   0 111901. 2761.92  18
   1   3   0 114641. 2732.89  14
   1   3   0 118436. 2673.03  15
   1   3   1 269974. 5831.58  22
  -1   3  -1 262759. 5682.19  14
  -1   3  -1 258203. 5932.00  18
   1   3   1 268068. 5962.37  14
   1   3   1 270267. 5768.16  15
   1   3   2 175362. 3817.24  15
   1   3   2 172704. 3893.06   9
   1   3   2 184084. 3916.26  22
   1   3   3 27267.2 755.761  17
   1   3   3 26258.8 647.932  22
  -1   3  -4 21269.9 797.653  22
   1   3   4 19387.7 676.337  17
  -1   3  -5 225060. 5474.33  22
   1   3   5 246697. 5418.89  17
   1   3   6 10088.7 532.472  17
  -1   3  -6 8390.89 502.099  22
  -1   3  -6 10168.5 639.283  20
  -1   3  -7 24777.6 1159.72  20
  -1   3  -8 20519.0 1111.60  20
  -1   3  -9 2894.40 290.986  33
  -1   3 -10 39829.0 1313.50  13
  -1   3 -10 39812.2 1406.01  33
  -1   3 -11 16243.8 738.279  13
  -1   3 -11 15518.7 796.997  33
  -1   3 -12 4698.80 416.911  33
  -1   3 -13 1063.12 189.102  33
  -1   3 -13 1015.44 156.257  36
  -1   3 -14 2701.16 259.458  33
  -1   3 -15 769.196 109.359  12
  -1   3 -15 889.364 123.890  33
   1   4 -15 890.986 124.802  33
   1   4 -15 852.223 118.964  13
   1   4 -15 861.352 128.392  12
   1   4 -14 2076.62 223.184  33
   1   4 -14 1989.54 224.850  13
   1   4 -13 4809.30 384.827  33
   1   4 -13 4903.32 337.129  48
   1   4 -13 4560.86 372.455  13
   1   4 -12 903.960 177.018  33
   1   4 -12 1157.64 201.466  13
   1   4 -11 32926.5 1232.18  13
   1   4 -11 33768.5 1231.36  33
   1   4 -11 33274.9 1142.76  48
   1   4 -10 48925.1 1569.55  13
   1   4 -10 52533.0 1516.45  48
   1   4  -9 89195.7 2864.61  20
   1   4  -8 42504.5 1658.75  15
   1   4  -8 41240.4 1623.12  20
   1   4  -7 85736.2 2611.53  15
   1   4  -7 87547.6 2575.10  20
   1   4  -6 47000.8 1567.33  20
   1   4  -6 46284.1 1620.16  15
   1   4  -5 74404.7 2108.37  22
   1   4  -5 71783.2 1957.50   2
   1   4  -5 73157.3 2053.85  20
   1   4  -5 71216.8 2123.61  15
   1   4  -4 32941.1 997.932   2
   1   4  -4 31755.7 1146.06  15
   1   4  -4 31466.5 1056.40  20
   1   4  -4 33460.7 1148.48  22
   1   4  -3 193897. 4689.66  15
   1   4  -3 208006. 4451.92   2
   1   4  -3 201192. 4699.87  22
   1   4  -3 190339. 4530.60  20
   1   4  -2 246061. 5603.55  22
   1   4  -2 241366. 5450.93  14
   1   4  -2 251916. 5393.42  20
   1   4  -2 246919. 5581.31  15
   1   4  -2 240678. 5280.88   2
   1   4  -1 953414. 20398.8  15
  -1   4   0 23258.6 855.735  18
   1   4   0 23753.9 741.415  15
   1   4   0 23008.9 847.414  18
   1   4   0 22631.1 791.111  14
   1   4   0 23678.7 788.664  22
  -1   4  -1 335793. 7166.27  14
  -1   4  -1 318455. 7463.12  18
   1   4   1 335004. 7465.87  14
   1   4   1 324450. 7339.34  22
   1   4   1 338087. 7233.80  15
   1   4   2 60987.8 1546.61  22
  -1   4  -3 208423. 4927.60  22
  -1   4  -4 417613. 9386.18  22
  -1   4  -5 67594.7 2000.19  22
  -1   4  -5 68009.7 2065.41  20
  -1   4  -6 24125.9 1009.29  22
  -1   4  -6 23478.9 1086.38  20
  -1   4  -7 1613.85 274.150  20
  -1   4  -8 71166.6 2459.90  20
   1   4   9 21818.9 808.597  53
   1   4   9 21304.9 806.805  11
  -1   4  -9 20675.2 871.009  50
  -1   4  -9 20078.6 881.300  33
  -1   4  -9 20165.8 782.427  48
  -1   4  -9 20393.6 823.752  13
  -1   4 -10 30165.3 1179.25  33
  -1   4 -10 30450.8 1030.21  48
  -1   4 -10 29170.0 1074.60  13
  -1   4 -11 12748.3 713.855  33
  -1   4 -11 13822.8 662.427  13
  -1   4 -12 5835.64 433.483  36
  -1   4 -12 6352.07 491.705  33
  -1   4 -13 8502.39 473.058  36
  -1   4 -13 8851.70 535.636  33
  -1   4 -14 1015.06 155.183  12
  -1   4 -14 936.889 151.407  33
  -1   4 -15 421.588 78.5329  12
   1   5 -15 5249.14 314.135  12
   1   5 -15 4860.44 291.706  13
   1   5 -14 1747.85 207.288  12
   1   5 -14 1775.69 199.954  33
   1   5 -14 1941.14 213.935  13
   1   5 -13 5964.67 379.669  48
   1   5 -13 5838.01 408.119  33
   1   5 -13 5850.01 421.418  12
   1   5 -13 5805.42 412.219  13
   1   5 -12 9316.34 571.506  33
   1   5 -12 11075.1 564.253  48
   1   5 -12 9720.98 587.945  13
   1   5 -11 7903.52 509.798  33
   1   5 -11 7619.17 471.966  48
   1   5 -11 7656.74 506.722  13
  -1   5  10 16741.4 719.821  11
   1   5 -10 17853.3 765.230  48
  -1   5  10 16336.0 711.528  53
   1   5 -10 17863.6 808.313  13
   1   5 -10 17726.9 797.097  33
  -1   5   9 17964.0 730.709  11
   1   5  -9 17789.7 773.586  13
   1   5  -9 17695.4 741.372  48
   1   5  -9 15753.8 732.934  33
  -1   5   9 18155.7 728.703  53
   1   5  -8 117559. 3418.41  20
   1   5  -7 240.476 95.8496  20
   1   5  -7 350.335 134.882  15
   1   5  -6 169046. 4457.00  15
   1   5  -6 167417. 4292.40  20
   1   5  -6 174935. 4410.05  22
   1   5  -5 35986.0 1237.55  20
   1   5  -5 34141.6 1339.16  15
   1   5  -5 35347.6 1320.85  22
   1   5  -4 104973. 2893.09  15
   1   5  -4 109588. 2731.38  20
   1   5  -4 104885. 2877.35  22
   1   5  -3 23333.8 939.790  15
   1   5  -3 23229.6 789.981  20
   1   5  -3 24029.1 958.078  22
   1   5  -2 135301. 3361.17  22
   1   5  -2 128582. 3181.18  14
   1   5  -2 139372. 3346.50  15
   1   5  -1 81040.4 2093.09  14
  -1   5   1 77331.3 2271.98  18
   1   5  -1 78772.3 2155.26  22
   1   5  -1 80633.3 2224.43  18
   1   5  -1 81386.8 2106.09  15
  -1   5   0 212573. 5225.88  18
  -1   5   0 215820. 4949.51  14
   1   5   0 224350. 5120.78  22
   1   5   0 232723. 5017.97  15
   1   5   0 215702. 5102.93  14
   1   5   0 218063. 5232.10  18
   1   5   1 6073.81 441.920  18
   1   5   1 5595.31 354.257  22
   1   5   1 6035.03 295.910  15
  -1   5  -1 6887.05 449.660  18
   1   5   2 121968. 2881.69  22
   1   5   2 113745. 3067.15  14
  -1   5  -3 36629.0 1307.18  22
  -1   5  -3 36245.7 1207.02  20
  -1   5  -4 65419.8 1956.89  20
  -1   5  -4 65570.9 2022.46  22
  -1   5  -5 17701.2 872.270  22
  -1   5  -5 17045.2 860.174  20
  -1   5  -6 49849.5 1784.82  20
  -1   5  -6 49616.7 1731.74  22
  -1   5  -7 7195.72 562.401  22
  -1   5  -7 6767.89 593.044  20
  -1   5  -8 64142.1 1904.31  33
  -1   5  -8 66328.5 1816.65  48
   1   5   8 66489.5 1825.47  53
   1   5   8 66493.5 1830.42  11
  -1   5  -8 62342.4 1887.98  36
   1   5   9 4546.08 332.688  53
  -1   5  -9 4504.51 331.027  48
  -1   5  -9 4303.37 371.393  33
   1   5   9 4531.20 334.892  11
  -1   5  -9 4305.89 362.543  36
  -1   5  -9 4446.30 343.434  13
  -1   5 -10 7478.42 466.653  13
  -1   5 -10 8071.14 460.913  48
   1   5  10 6272.46 415.191  39
  -1   5 -10 7112.71 500.028  36
  -1   5 -10 7709.98 533.022  33
   1   5  11 15085.6 650.767  39
  -1   5 -11 14065.9 665.754  13
  -1   5 -11 13494.9 697.122  36
  -1   5 -11 13003.5 720.720  33
  -1   5 -12 6735.49 470.211  12
  -1   5 -12 6724.14 447.878  36
  -1   5 -12 6681.42 475.483  33
  -1   5 -13 942.664 154.296  12
  -1   5 -13 654.308 124.769  33
  -1   5 -13 742.493 124.801  36
  -1   5 -14 331.210 78.1757  12
   1   6 -15 1095.56 121.097  12
   1   6 -14 3186.59 260.345  13
   1   6 -14 2964.29 252.410  12
   1   6 -13 7044.81 444.923  13
   1   6 -13 7535.47 462.240  12
   1   6 -12 1797.34 239.074  12
   1   6 -12 2290.09 243.827  48
   1   6 -12 2011.46 239.659  13
   1   6 -12 1877.70 233.411  33
   1   6 -11 927.050 161.330  33
  -1   6  11 710.959 125.477  53
   1   6 -11 747.273 147.956  12
   1   6 -11 688.954 138.735  13
  -1   6  11 740.652 131.023  11
   1   6 -11 940.543 155.800  48
   1   6 -10 12986.9 651.751  48
   1   6 -10 12631.5 647.550  33
   1   6 -10 11897.9 646.307  12
  -1   6  10 13369.2 630.111  11
   1   6 -10 12815.4 665.338  13
  -1   6  10 13006.2 622.458  53
  -1   6   9 34671.2 1148.74  11
   1   6  -9 33831.3 1188.06  13
  -1   6   9 34144.6 1142.41  53
   1   6  -9 32459.8 1161.49  12
   1   6  -9 31463.8 1142.65  33
   1   6  -9 31895.5 1142.69  48
   1   6  -8 24342.6 907.537  48
   1   6  -8 21236.0 1143.29  20
  -1   6   8 24484.2 889.760  53
  -1   6   8 25606.4 911.204  11
   1   6  -8 22434.9 892.879  12
   1   6  -8 23643.3 916.830  13
   1   6  -7 636.912 154.728  20
   1   6  -6 52734.5 1882.03  22
   1   6  -6 51990.6 1921.86  15
   1   6  -5 42056.4 1562.40  22
   1   6  -5 40395.4 1567.15  15
   1   6  -4 66206.8 2086.40  15
   1   6  -4 65311.5 2079.16  22
   1   6  -3 141103. 3666.60  22
   1   6  -3 138622. 3629.17  15
   1   6  -2 75371.1 2117.62  15
   1   6  -2 72249.3 2160.40  22
   1   6  -2 72973.2 1987.70  14
   1   6  -1 5526.94 375.857  14
   1   6  -1 5179.65 367.121  15
  -1   6   1 5904.52 488.427  18
   1   6  -1 5009.08 397.815  22
  -1   6   1 5447.64 373.554  14
   1   6  -1 5216.79 438.256  18
   1   6   0 2086.06 240.770  14
  -1   6   0 2427.06 299.430  18
   1   6   0 2234.44 248.572  22
   1   6   0 2044.99 205.470  15
   1   6   0 2037.74 271.958  18
   1   6   1 62537.3 1794.21  22
   1   6   1 62665.8 1999.82  18
  -1   6  -1 58574.5 1923.09  18
   1   6   1 62139.8 1878.58  14
   1   6   2 49445.3 1841.64  18
  -1   6  -2 65380.8 1939.42  22
   1   6   2 59642.4 1641.17  22
   1   6   2 49041.5 1743.95  14
  -1   6  -3 34206.0 1370.15  22
   1   6   3 36583.9 1386.94  14
  -1   6  -4 34939.3 1421.43  22
   1   6   4 39579.0 1506.38  14
  -1   6  -5 48635.0 1730.27  22
   1   6   5 56744.2 1877.72  14
  -1   6  -6 98993.3 2866.16  22
  -1   6  -6 83491.2 2700.35  20
   1   6   7 629.613 113.978  53
   1   6   7 703.215 125.204  11
  -1   6  -7 1024.69 142.100  48
  -1   6  -7 774.649 134.556  33
  -1   6  -7 779.408 141.209  36
  -1   6  -7 445.242 129.561  22
  -1   6  -7 770.731 136.466  12
  -1   6  -7 477.534 158.758  20
  -1   6  -8 53223.0 1653.20  33
   1   6   8 48175.8 1522.17  53
  -1   6  -8 52545.4 1561.78  13
  -1   6  -8 50622.8 1620.27  36
  -1   6  -8 51104.7 1607.54  12
   1   6   8 47619.8 1519.44  11
  -1   6  -9 12469.9 621.362  13
   1   6   9 13538.6 630.980  53
  -1   6  -9 11480.8 642.463  12
  -1   6  -9 11844.5 650.385  36
  -1   6  -9 12054.1 666.620  33
  -1   6  -9 12371.4 615.216  48
   1   6   9 14406.7 650.860  11
  -1   6 -10 6859.95 492.871  33
  -1   6 -10 7209.61 451.389  13
  -1   6 -10 6454.88 469.695  12
   1   6  10 6778.13 431.117  39
  -1   6 -10 6529.62 467.593  36
   1   6  11 7717.99 444.036  39
  -1   6 -11 6967.28 481.250  12
  -1   6 -11 7448.25 447.828  13
  -1   6 -11 6723.18 486.652  33
  -1   6 -11 7205.32 474.565  36
   1   6  12 6998.99 387.433  39
  -1   6 -12 6681.30 459.777  33
  -1   6 -12 6486.35 443.299  12
  -1   6 -12 6226.73 412.972  36
  -1   6 -13 735.580 123.690  12
  -1   6 -14 5659.53 325.582  12
   1   7 -14 4357.96 283.637  12
   1   7 -13 148.195 59.9846  12
   1   7 -13 119.408 46.3176  13
  -1   7  13 43.4790 18.1455  39
   1   7 -12 1971.38 230.443  13
  -1   7  12 1912.62 204.441  39
   1   7 -12 2105.68 236.258  12
   1   7 -11 3074.79 301.183  13
   1   7 -11 3042.11 292.269  48
  -1   7  11 3141.06 277.023  11
   1   7 -11 2836.83 290.233  12
  -1   7  11 3474.89 288.698  53
  -1   7  10 4282.32 345.691  11
   1   7 -10 5061.24 391.047  12
   1   7 -10 5399.61 407.306  13
   1   7 -10 5385.71 403.999  48
  -1   7  10 4353.67 347.640  53
   1   7  -9 5602.80 406.944  48
  -1   7   9 5495.41 387.422  53
  -1   7   9 5666.25 393.768  11
   1   7  -9 5458.65 406.603  13
   1   7  -9 5687.59 410.822  12
   1   7  -8 98392.3 2645.47  12
  -1   7   8 104836. 2660.79  11
   1   7  -8 96854.7 2611.13  36
  -1   7   8 102423. 2645.02  53
   1   7  -8 98902.2 2648.65  48
   1   7  -8 103389. 2681.73  13
   1   7  -7 22892.6 873.902  48
  -1   7   7 24299.5 896.295  11
   1   7  -7 22992.9 875.784  12
   1   7  -7 23764.3 897.498  13
   1   7  -7 21485.3 848.081  36
   1   7  -6 19292.3 1083.48  22
   1   7  -5 2283.14 330.265  22
   1   7  -4 78852.6 2457.05  15
   1   7  -4 75182.7 2443.65  22
   1   7  -3 55475.8 1851.06  15
  -1   7   3 55979.7 2139.79  18
   1   7  -3 54199.4 1892.23  22
   1   7  -2 134781. 3435.34  15
   1   7  -2 127523. 3501.19  22
  -1   7   2 132018. 3459.88  14
  -1   7   1 14696.6 897.786  18
   1   7  -1 15805.6 814.267  22
   1   7   0 57680.2 2000.85  18
  -1   7   0 56687.1 2006.32  18
   1   7   0 58611.8 1835.43  22
   1   7   0 55118.1 1795.32  14
   1   7   1 61859.0 2003.13  14
  -1   7  -1 60865.9 2072.98  22
   1   7   1 63085.2 1912.77  22
   1   7   1 65941.3 2189.98  18
   1   7   2 51552.8 1796.10  14
  -1   7  -2 50091.7 1837.88  22
   1   7   2 51438.6 1923.56  18
   1   7   3 136133. 3780.86  14
  -1   7  -3 129159. 3763.55  22
   1   7   4 18553.9 1029.31  14
  -1   7  -4 17922.7 1014.23  22
  -1   7  -5 4761.03 502.930  22
   1   7   5 4623.53 506.149  14
  -1   7  -6 10874.5 574.593  36
  -1   7  -6 11195.7 552.231  13
  -1   7  -6 11020.7 568.394  12
   1   7   6 11845.4 570.734  11
   1   7   6 11246.2 557.172  53
  -1   7  -7 34305.6 1232.77  36
  -1   7  -7 34446.9 1223.64  12
   1   7   7 39050.7 1246.56  11
   1   7   7 39627.5 1251.24  53
  -1   7  -7 36138.1 1203.46  13
  -1   7  -8 30675.5 1157.25  12
   1   7   8 31905.1 1124.75  53
  -1   7  -8 33836.7 1139.62  13
   1   7   8 32584.1 1134.11  11
  -1   7  -8 30858.7 1166.26  36
  -1   7  -9 2449.26 273.746  36
   1   7   9 3213.38 290.589  39
   1   7   9 3166.85 286.822  11
  -1   7  -9 2508.84 260.512  13
   1   7   9 3386.17 294.396  53
  -1   7  -9 2499.16 273.432  12
  -1   7 -10 7281.22 488.497  12
  -1   7 -10 7445.86 455.389  13
   1   7  10 7087.46 444.997  39
  -1   7 -10 7331.41 485.279  36
  -1   7 -11 7378.62 478.686  12
  -1   7 -11 7350.65 464.613  36
   1   7  11 7571.60 435.932  39
  -1   7 -12 2356.36 244.212  12
  -1   7 -12 2470.47 232.110  36
  -1   7 -13 541.422 94.7844  12
   1   8 -13 10827.8 496.988  12
  -1   8  13 10567.2 442.538  39
  -1   8  12 2793.16 237.426  39
   1   8 -12 3363.16 291.242  12
  -1   8  11 12261.5 579.957  53
   1   8 -11 12335.8 621.011  12
  -1   8  11 12152.5 577.510  11
  -1   8  10 6422.79 417.078  11
   1   8 -10 6387.92 449.540  13
   1   8 -10 6675.75 417.851  36
   1   8 -10 6142.81 435.032  12
  -1   8  10 6483.88 417.921  53
   1   8  -9 20391.5 856.307  13
  -1   8   9 17725.6 779.099  11
   1   8  -9 18176.5 811.155  12
   1   8  -9 18641.4 783.287  36
   1   8  -9 18544.6 818.094  48
  -1   8   9 18276.7 783.571  53
  -1   8   8 20228.9 845.671  53
   1   8  -8 22878.8 902.433  48
   1   8  -8 20941.2 884.698  13
  -1   8   8 20383.9 849.703  11
   1   8  -8 20452.1 866.710  12
   1   8  -8 20818.8 849.992  36
   1   8  -7 50313.2 1533.02  12
   1   8  -7 49385.6 1527.95  48
  -1   8   7 48355.6 1519.58  53
   1   8  -7 48830.7 1515.69  36
  -1   8   7 49681.2 1533.31  11
   1   8  -7 52083.8 1571.00  13
   1   8  -6 34974.3 1147.75  48
   1   8  -6 33668.9 1135.98  36
   1   8  -6 34116.6 1144.11  12
  -1   8   6 32805.1 1140.91  11
  -1   8   5 21268.8 1194.61  14
   1   8  -5 22425.6 867.754   6
   1   8  -5 22045.5 826.178  48
   1   8  -5 22482.4 839.841  12
   1   8  -5 21843.5 834.734  36
  -1   8   5 22356.1 844.738  11
   1   8  -4 52217.8 1995.46  22
  -1   8   4 53706.7 2258.84  18
   1   8  -3 49001.9 1871.35  22
  -1   8   3 50158.2 2118.20  18
  -1   8   2 22402.0 1273.02  18
  -1   8   2 22623.3 1090.39  22
   1   8  -2 22174.4 1107.79  22
   1   8  -1 66475.8 2215.66  22
  -1   8   1 70145.1 2289.83  22
  -1   8   1 67980.2 2452.82  18
  -1   8   0 3879.72 469.307  18
  -1   8   0 4093.44 448.401  22
   1   8   0 3891.10 459.287  18
   1   8   0 4228.31 418.951  22
  -1   8  -1 27087.3 1302.11  22
   1   8   1 27741.3 1378.98  18
   1   8   1 28621.9 1255.48  14
  -1   8  -2 17849.7 1041.62  22
   1   8   2 16617.4 970.959  14
   1   8   2 18032.9 1111.33  18
   1   8   3 10371.8 765.951  14
   1   8   3 10650.7 848.057  18
  -1   8  -3 9294.77 744.011  22
  -1   8  -4 74057.6 1979.26  12
  -1   8  -4 72100.9 1977.30  36
   1   8   4 69994.9 2492.10  14
   1   8   4 67888.7 1919.10  53
   1   8   5 46851.9 1423.34  11
   1   8   5 47470.6 1427.57  53
  -1   8  -5 45354.0 1428.41  12
  -1   8  -5 44396.2 1435.75  36
   1   8   6 46310.4 1446.38  53
  -1   8  -6 46725.7 1473.98  12
   1   8   6 46186.4 1445.81  11
  -1   8  -6 45887.7 1484.86  36
  -1   8  -7 11374.1 619.571  12
   1   8   7 12448.5 616.810  53
   1   8   7 12641.6 620.844  11
  -1   8  -7 11259.5 621.698  36
   1   8   8 2416.00 260.095  53
  -1   8  -8 3785.25 348.147  36
  -1   8  -8 4048.46 368.251  12
   1   8   8 2298.22 255.125  11
   1   8   8 2263.50 253.725  39
   1   8   9 24646.4 939.780  53
  -1   8  -9 24069.6 980.587  36
   1   8   9 25563.3 957.107  39
  -1   8  -9 24016.7 985.145  12
  -1   8 -10 2760.78 296.337  36
   1   8  10 2038.64 224.899  39
  -1   8 -11 1368.34 184.919  12
  -1   8 -11 1336.33 176.422  36
   1   8  11 1397.12 167.407  39
   1   8  12 2124.71 184.124  39
  -1   8 -12 2223.04 203.194  36
  -1   9  12 3501.39 243.750  39
  -1   9  11 1539.81 168.666  39
  -1   9  11 1389.74 164.690  53
   1   9 -10 3265.34 271.513  36
  -1   9  10 2943.65 265.686  53
  -1   9  10 3103.39 272.556  11
   1   9  -9 9915.99 553.380  12
   1   9  -9 10007.2 530.235  36
  -1   9   9 9798.27 533.872  53
  -1   9   9 9650.38 526.858  11
  -1   9   8 12471.1 629.742  11
   1   9  -8 12614.8 642.467  12
  -1   9   8 12934.4 635.748  53
   1   9  -8 13463.6 640.500  36
   1   9  -7 57025.0 1680.88  36
  -1   9   7 53999.6 1661.01  53
  -1   9   7 55478.8 1677.34  11
   1   9  -6 1108.07 165.536  36
  -1   9   6 898.325 149.879  11
  -1   9   6 873.481 144.690  53
   1   9  -5 12751.8 581.402   7
  -1   9   5 13394.3 639.059  11
   1   9  -5 14237.6 659.272  36
   1   9  -5 14434.2 680.253   6
   1   9  -4 38444.1 1275.64   6
   1   9  -4 35365.1 1158.89   7
   1   9  -4 40087.6 1263.53  36
  -1   9   4 36648.5 1156.77   7
  -1   9   4 36682.5 1216.40  11
  -1   9   3 41958.1 1307.08  11
  -1   9   3 40413.5 1265.62   7
   1   9  -3 41050.9 1282.18   7
   1   9  -3 45199.6 1365.37  36
   1   9  -3 43686.1 1379.42   6
   1   9  -2 8812.49 466.846   7
   1   9  -2 8691.97 503.382   6
   1   9  -1 26030.4 921.593   7
   1   9  -1 26737.4 989.800   6
   1   9   0 84444.5 2213.64   7
  -1   9  -1 6385.08 430.466   6
  -1   9  -1 7561.46 442.721  36
   1   9   1 6817.80 399.591   7
  -1   9  -2 40850.4 1365.72   6
   1   9   2 42958.0 1310.46   7
   1   9   3 15344.8 647.594   7
   1   9   3 14775.0 651.353  53
  -1   9  -3 15395.3 703.630   6
   1   9   3 15188.7 658.322  11
  -1   9  -3 15824.7 699.741  36
   1   9   4 33897.7 1096.75   7
  -1   9  -4 34788.3 1197.49  36
   1   9   4 34498.0 1153.28  11
  -1   9  -4 35088.5 1195.04   6
   1   9   4 33123.2 1141.72  53
   1   9   5 15047.0 683.754  11
  -1   9  -5 14499.2 703.797  36
   1   9   5 15236.2 684.979  53
   1   9   6 10137.2 547.617  53
  -1   9  -6 10306.8 578.978  36
   1   9   6 10506.2 556.251  11
   1   9   7 12416.0 618.167  39
  -1   9  -7 12523.9 647.244  12
   1   9   7 12101.2 610.066  11
  -1   9  -7 11984.0 635.585  36
   1   9   7 12456.5 619.905  53
  -1   9  -8 14849.6 719.673  36
   1   9   8 13653.7 659.833  39
  -1   9  -8 16255.1 747.709  12
   1   9   8 13772.3 659.114  11
   1   9   8 13929.4 661.501  53
  -1   9  -9 26768.7 1030.56  12
  -1   9  -9 26034.5 1006.75  36
   1   9   9 28310.3 989.420  39
  -1   9 -10 1459.10 193.734  12
  -1   9 -10 1532.63 190.304  36
   1   9  10 1292.55 162.635  39
   1   9  11 1764.33 171.268  39
  -1   9 -11 1792.57 187.615  36
   1   9  12 1941.13 154.599  39
  -1  10  12 8084.23 346.394  39
  -1  10  11 4705.08 288.674  39
  -1  10  10 4721.90 315.290  11
  -1  10  10 4756.93 316.123  39
  -1  10  10 4725.01 317.382  53
  -1  10   9 527.848 105.638  11
  -1  10   9 599.705 111.690  53
   1  10  -9 421.281 98.8967  36
  -1  10   8 3779.38 309.405  11
   1  10  -8 4155.88 326.462  36
  -1  10   8 3789.96 310.983  53
  -1  10   7 5810.89 399.315  53
   1  10  -7 6788.37 432.880  36
  -1  10   7 5639.32 394.992  11
  -1  10   6 14352.2 687.403  53
  -1  10   6 14785.5 696.596  11
   1  10  -5 10409.8 530.050   7
  -1  10   5 11483.8 580.494  53
  -1  10   5 11773.1 586.632  11
  -1  10   4 3843.23 294.588   7
   1  10  -4 3928.69 348.371   6
  -1  10   4 4038.42 318.514  11
   1  10  -4 3945.73 305.478   7
  -1  10   4 3615.78 302.568  53
   1  10  -3 8701.07 467.465   7
  -1  10   3 8649.55 460.553   7
  -1  10   3 5387.72 375.385  11
   1  10  -3 8942.14 523.545   6
  -1  10   3 5171.72 370.790  53
   1  10  -2 66668.5 1942.69   6
   1  10  -2 64423.9 1830.79   7
  -1  10   2 63975.0 1815.72   7
   1  10  -1 34723.5 1163.66   7
  -1  10   1 34823.3 1163.66   7
   1  10  -1 37279.5 1274.31   6
  -1  10   0 37581.5 1242.43   7
   1  10   0 40049.9 1258.49   7
  -1  10   0 37811.5 1343.90   6
   1  10   0 39945.8 1350.49   6
   1  10   1 38975.8 1251.77   7
  -1  10  -1 38847.3 1342.41   6
  -1  10  -2 97116.3 2517.27  36
   1  10   2 93443.5 2417.57   7
   1  10   3 4111.67 305.805   7
   1  10   3 2538.91 244.204  11
  -1  10  -3 4006.03 340.643   6
  -1  10  -3 4393.83 348.379  36
   1  10   3 2303.26 232.983  53
   1  10   4 4723.71 330.169   7
   1  10   4 4325.34 331.926  53
   1  10   4 4328.50 334.066  39
   1  10   4 4478.80 338.581  11
  -1  10  -4 5507.29 405.301  36
  -1  10  -4 4893.43 385.383   6
  -1  10  -4 4520.40 339.131   7
  -1  10  -5 5666.85 415.741  36
  -1  10  -5 4774.48 343.433   7
   1  10   5 5590.68 383.414  53
   1  10   5 5559.87 380.525  39
   1  10   5 5536.86 381.119  11
   1  10   6 6870.18 434.993  11
  -1  10  -6 7817.39 496.908  36
   1  10   6 7016.78 442.083  39
   1  10   6 6844.42 433.207  53
  -1  10  -7 5670.26 410.394  36
   1  10   7 5988.51 395.056  11
   1  10   7 5720.51 386.091  53
   1  10   7 5776.85 388.163  39
  -1  10  -8 18424.8 787.408  36
   1  10   8 17577.5 729.171  39
   1  10   9 1963.51 198.770  39
  -1  10  -9 2299.46 234.155  36
   1  10  10 10487.9 470.234  39
  -1  10 -10 10768.9 506.345  36
   1  10  11 4470.33 250.184  39
  -1  11  10 2185.51 182.933  39
  -1  11   9 3698.96 265.457  39
  -1  11   9 3766.13 267.514  11
  -1  11   9 3841.41 270.170  53
  -1  11   8 1451.85 169.927  53
  -1  11   8 1606.43 180.318  39
  -1  11   8 1597.29 182.227  11
  -1  11   7 6818.45 409.679  53
  -1  11   7 6907.58 412.630  11
  -1  11   6 1063.52 154.748  53
  -1  11   6 1013.15 153.566  11
  -1  11   5 15348.4 668.470  11
  -1  11   5 14996.4 663.648  53
   1  11  -5 14339.5 630.457   7
  -1  11   5 14803.6 614.549   7
   1  11  -4 6843.30 418.612   7
   1  11  -4 7363.73 491.500   6
  -1  11   4 7210.16 414.853   7
  -1  11   4 7069.46 428.486  53
  -1  11   4 6958.71 424.679  11
   1  11  -3 1642.99 196.498   7
  -1  11   3 1530.84 186.979   7
   1  11  -3 1705.32 226.270   6
   1  11  -2 7276.09 497.560   6
   1  11  -2 8277.22 476.305   7
  -1  11   2 8309.49 471.553   7
  -1  11   1 19534.5 892.840   6
   1  11  -1 20569.5 894.576   6
   1  11  -1 20238.1 812.302   7
  -1  11   1 19129.3 791.113   7
   1  11   0 5922.15 390.171   7
  -1  11   0 5600.48 440.055   6
  -1  11   0 5967.52 399.592   7
   1  11   0 6125.79 447.510   6
  -1  11  -1 18872.2 866.698   6
   1  11   1 19836.6 793.100   7
  -1  11  -1 19253.9 796.079   7
   1  11   1 19799.8 875.091   6
  -1  11  -2 3873.59 352.445   6
  -1  11  -2 3846.25 320.138   7
   1  11   2 4622.62 333.291   7
   1  11   3 1311.44 168.149   7
  -1  11  -3 1015.73 153.014   7
  -1  11  -3 1096.34 181.776   6
   1  11   4 9496.05 490.924  53
   1  11   4 9587.59 495.364  11
   1  11   4 8999.01 468.563   7
  -1  11  -4 8668.87 483.951   7
   1  11   5 13221.9 564.855   7
  -1  11  -5 14682.4 691.614  36
   1  11   5 14184.9 622.352  39
  -1  11  -5 12589.5 592.976   7
   1  11   5 13796.4 621.116  53
  -1  11  -6 8514.71 499.772  36
   1  11   6 6647.42 404.139  39
  -1  11  -7 652.061 121.073  36
   1  11   7 549.398 102.843  39
   1  11   8 1874.33 185.714  39
  -1  11  -8 2155.22 219.896  36
   1  11   9 6920.24 352.763  39
   1  11  10 3606.05 215.068  39
  -1  12   9 1264.42 123.713  39
  -1  12   8 2034.72 177.779  39
  -1  12   7 1090.65 134.513  53
  -1  12   7 1167.60 139.749  39
  -1  12   7 1329.61 148.537  11
  -1  12   6 1452.53 163.081  53
  -1  12   6 1308.44 154.629  11
  -1  12   6 1411.89 158.646  39
  -1  12   5 7418.73 403.692  53
   1  12  -5 7435.47 398.679   7
  -1  12   5 7551.12 407.589  11
   1  12  -4 1197.10 157.383   7
  -1  12   4 818.925 126.041   7
  -1  12   3 2547.82 234.444   7
   1  12  -3 2943.99 254.376   7
   1  12  -3 3173.68 305.257   6
   1  12  -2 1819.10 202.346   7
   1  12  -2 1708.03 229.180   6
  -1  12   2 1703.29 234.984   6
  -1  12   2 1857.05 201.136   7
  -1  12   1 5616.96 369.434   7
   1  12  -1 5261.55 360.847   7
   1  12  -1 5522.19 414.875   6
  -1  12   1 5317.23 415.286   6
   1  12   0 3915.60 343.477   6
   1  12   0 3814.13 297.406   7
  -1  12   0 3123.78 317.529   6
  -1  12   0 3226.23 281.485   7
  -1  12  -1 12409.4 602.057   7
   1  12   1 14681.8 703.908   6
   1  12   1 13614.3 608.506   7
  -1  12  -1 11881.0 653.054   6
  -1  12  -2 3722.68 335.325   6
   1  12   2 3613.29 283.305   7
  -1  12  -2 3835.73 305.540   7
   1  12   2 3363.61 313.420   6
  -1  12  -3 799.212 131.655   7
   1  12   3 902.774 152.690   6
   1  12   3 776.387 122.118   7
   1  12   4 7355.16 387.537   7
  -1  12  -4 6751.51 400.947   7
  -1  12  -5 3627.14 266.685   7
   1  12   6 3349.21 242.218  39
   1  12   7 2272.21 185.878  39
   1  12   8 1528.16 136.399   6
   1  12   8 1390.06 134.435  39
  -1  13   7 130.847 45.2291   6
  -1  13   6 356.008 77.5792   6
   1  13  -5 1122.07 125.361   7
  -1  13   5 1215.52 151.988   6
   1  13  -4 2853.42 221.853   7
  -1  13   4 2963.64 260.129   6
  -1  13   4 3053.44 216.155   7
  -1  13   3 828.153 138.770   6
   1  13  -3 761.058 114.111   7
  -1  13   3 719.293 102.594   7
  -1  13   2 7890.05 473.980   6
  -1  13   2 8443.25 423.369   7
   1  13  -2 8418.26 431.710   7
  -1  13   1 1083.34 141.278   7
   1  13  -1 1164.09 146.708   7
   1  13  -1 1014.08 152.238   6
  -1  13   1 1026.87 157.670   6
  -1  13   0 5379.28 386.047   6
   1  13   0 5660.57 389.634   6
   1  13   0 5689.36 345.347   7
  -1  13   0 5574.31 346.532   7
  -1  13  -1 388.670 83.3430   7
  -1  13  -1 309.093 86.2689   6
   1  13   1 430.853 92.2914   7
   1  13   1 540.239 118.780   6
   1  13   2 1300.49 152.232   7
   1  13   2 1599.43 189.135   6
  -1  13  -2 1449.66 164.043   7
   1  13   3 3915.18 291.172   6
  -1  13  -3 3410.93 256.577   7
   1  13   3 3832.27 252.946   7
  -1  13  -4 7716.93 382.990   7
   1  13   4 7776.36 356.218   7
   1  13   4 7745.47 407.130   6
   1  13   5 399.211 76.4104   6
   1  13   6 1073.14 115.263   6
  -1  14   4 854.758 108.775   6
   1  14  -3 1399.13 131.886   7
  -1  14   3 1289.13 119.963   7
  -1  14   3 1243.82 140.699   6
   1  14  -2 3507.36 226.883   7
  -1  14   2 3268.24 212.868   7
  -1  14   2 3349.99 247.514   6
   1  14  -1 2824.27 203.242   7
  -1  14   1 2442.75 212.920   6
  -1  14   1 2422.35 187.776   7
  -1  14   0 5410.40 298.101   7
   1  14   0 5770.10 303.681   7
   1  14   1 3880.04 238.167   7
   1  14   1 3937.33 264.444   6
  -1  14  -1 4145.40 254.553   7
   1  14   2 1295.92 139.084   6
   1  14   2 1248.61 123.678   7
  -1  14  -2 1213.69 128.945   7
   1  14   3 1696.68 149.973   6
  -1  14  -3 1589.12 143.402   7
   1  14   3 1615.86 129.048   7
   2 -14  -3 417.657 66.4214  31
   2 -13  -7 3358.17 202.343  60
   2 -13  -7 3631.78 216.812  31
   2 -13  -6 829.623 101.661  60
   2 -13  -6 772.315 102.860  31
   2 -13  -5 5300.04 302.282  31
   2 -13  -5 4950.57 276.011  60
  -2 -13  -5 1268.47 131.724  50
  -2 -13  -5 1067.41 106.994  41
  -2 -13  -6 3721.14 220.275  50
   2 -12  -9 342.508 62.6338  55
   2 -12  -9 230.167 53.1411  60
   2 -12  -9 266.125 55.1862  31
   2 -12  -9 314.846 65.3693  41
   2 -12  -8 4955.69 276.186  43
   2 -12  -8 4763.92 287.728  60
   2 -12  -8 5264.48 296.968  31
   2 -12  -8 4929.06 282.464  50
   2 -12  -7 1343.52 145.034  43
   2 -12  -7 1339.04 149.764  60
   2 -12  -7 1444.08 157.152  31
   2 -12  -6 1159.46 148.320  31
   2 -12  -6 1252.12 147.637  43
   2 -12  -6 1179.69 149.549  60
   2 -12  -5 11817.4 521.506  43
  -2 -12  -5 5223.27 314.187  41
  -2 -12  -6 3874.58 274.000  50
  -2 -12  -6 4079.00 264.783  41
  -2 -12  -7 8203.33 385.775  50
  -2 -12  -7 7596.35 355.863  41
  -2 -12  -8 1050.68 111.465  50
   2 -11 -11 1479.24 136.228  55
   2 -11 -10 13737.5 540.477  47
   2 -11 -10 15363.2 561.624  41
   2 -11 -10 14959.4 580.168  55
   2 -11 -10 14649.3 561.583  60
   2 -11  -9 9191.88 434.441  31
   2 -11  -9 8775.99 408.221  50
   2 -11  -9 8245.54 412.828  47
   2 -11  -9 8667.09 435.573  60
   2 -11  -9 8466.01 413.842  43
   2 -11  -8 510.195 98.8307  47
   2 -11  -8 528.318 98.6643  43
   2 -11  -8 578.459 108.011  31
   2 -11  -8 535.462 109.476  60
   2 -11  -7 2486.78 228.038  47
   2 -11  -7 2617.95 242.081  60
   2 -11  -7 2743.12 251.950  31
   2 -11  -7 2843.93 244.207  43
   2 -11  -6 3767.68 292.223  43
   2 -11  -6 3333.20 269.537  47
  -2 -11  -6 5624.47 377.750  50
  -2 -11  -6 5631.31 344.393  55
  -2 -11  -6 5814.78 364.339  41
  -2 -11  -7 6722.23 378.377  41
  -2 -11  -7 6383.07 360.639  55
  -2 -11  -7 6932.66 399.166  50
  -2 -11  -8 685.126 105.833  41
  -2 -11  -8 829.898 123.367  50
  -2 -11  -8 865.352 119.371  55
  -2 -11  -9 4631.89 263.262  41
  -2 -11  -9 4783.66 272.521  50
  -2 -11  -9 4427.73 253.319  55
   2 -10 -12 661.527 91.2382  33
   2 -10 -12 845.286 109.394  55
   2 -10 -11 131.565 45.4885  41
   2 -10 -11 185.648 58.6314  60
   2 -10 -11 216.808 56.0143  55
   2 -10 -10 5350.17 348.231  47
   2 -10 -10 4815.13 326.247  43
   2 -10 -10 5384.69 341.559  41
   2 -10 -10 5177.85 337.763  31
   2 -10 -10 5527.70 355.720  60
   2 -10  -9 3138.25 267.777  47
   2 -10  -9 3114.97 257.356  43
   2 -10  -9 3160.12 252.448  50
   2 -10  -9 3398.78 276.024  31
   2 -10  -9 3482.98 284.553  60
   2 -10  -8 1155.85 167.945  47
   2 -10  -8 1153.03 161.831  43
   2 -10  -8 1197.65 170.188  31
   2 -10  -8 1258.79 175.626  60
   2 -10  -7 3302.94 288.021  31
   2 -10  -7 2953.68 270.502  47
   2 -10  -7 2868.19 253.891  42
   2 -10  -7 2921.83 265.375  43
   2 -10  -6 34404.2 1161.81  47
   2 -10  -6 35039.1 1132.71  42
   2 -10  -5 9196.33 502.395  47
   2 -10  -5 10296.9 508.451  32
   2 -10  -4 10531.5 529.497  32
  -2 -10  -5 13589.6 622.845  55
  -2 -10  -5 13185.1 586.240  31
  -2 -10  -6 17048.0 684.776  31
  -2 -10  -6 17017.4 694.242  60
  -2 -10  -6 18390.4 752.748  41
  -2 -10  -6 16793.9 722.220  55
  -2 -10  -7 18234.0 754.423  50
  -2 -10  -7 17377.3 669.991  31
  -2 -10  -7 16340.5 676.535  60
  -2 -10  -7 17273.5 720.508  41
  -2 -10  -7 16616.8 711.967  55
  -2 -10  -8 17634.5 720.258  55
  -2 -10  -8 18263.4 723.700  41
  -2 -10  -8 19259.9 751.386  50
  -2 -10  -9 595.298 98.8407  41
  -2 -10  -9 680.862 112.652  50
  -2 -10  -9 589.748 100.960  55
  -2 -10  -9 712.683 107.368  33
  -2 -10 -10 2923.89 212.119  50
  -2 -10 -10 3002.10 217.960  55
  -2 -10 -10 2518.01 183.046  33
  -2 -10 -10 2668.95 195.100  46
  -2 -10 -10 2862.37 208.700  41
   2  -9 -13 3746.94 231.729  33
   2  -9 -13 3643.95 227.923  55
   2  -9 -12 3542.26 238.376  41
   2  -9 -12 3862.93 275.004  55
   2  -9 -11 3156.27 265.941  47
   2  -9 -11 3330.22 267.383  60
   2  -9 -11 3175.27 246.394  41
   2  -9 -10 15988.8 673.535  41
   2  -9 -10 15704.1 672.367  43
   2  -9 -10 16228.1 703.619  47
   2  -9 -10 15629.2 686.808  60
   2  -9 -10 15340.9 665.475  31
   2  -9  -9 4048.02 330.195  47
   2  -9  -9 4197.01 330.936  60
   2  -9  -9 4285.20 324.439  43
   2  -9  -9 4339.66 329.575  31
   2  -9  -8 31105.0 1098.65  31
   2  -9  -8 31533.2 1084.88  42
   2  -9  -8 31110.2 1033.44  32
   2  -9  -8 31532.9 1095.30  43
   2  -9  -8 31431.9 1116.17  47
   2  -9  -7 8927.84 512.206  47
   2  -9  -7 9353.82 509.055  43
   2  -9  -7 8975.59 474.955  32
   2  -9  -7 8757.65 483.790  42
   2  -9  -6 684.943 116.358  32
   2  -9  -6 728.118 131.989  47
   2  -9  -6 812.954 135.611  42
   2  -9  -5 4484.32 318.762  32
   2  -9  -5 4278.07 317.317  42
   2  -9  -4 2184.28 219.692  42
  -2  -9  -5 257.512 75.4416  31
  -2  -9  -5 183.439 75.2291  60
  -2  -9  -6 5655.86 381.675  60
  -2  -9  -6 6119.33 383.171  31
  -2  -9  -6 6041.92 413.286  55
  -2  -9  -7 3377.81 300.939  50
  -2  -9  -7 3490.73 278.784  31
  -2  -9  -7 3290.47 279.928  60
  -2  -9  -7 3609.75 305.210  41
  -2  -9  -7 3351.59 300.776  55
  -2  -9  -8 5988.63 402.183  41
  -2  -9  -8 6194.50 407.944  50
  -2  -9  -8 6226.14 416.743  55
  -2  -9  -9 515.228 97.5482  55
  -2  -9  -9 493.603 106.360  50
  -2  -9  -9 507.310 100.639  41
  -2  -9 -10 4364.11 284.841  33
  -2  -9 -10 4432.07 301.639  41
  -2  -9 -10 4375.89 304.051  50
  -2  -9 -10 4336.67 288.404  46
  -2  -9 -10 4301.38 302.998  55
  -2  -9 -11 3017.97 208.470  33
  -2  -9 -11 3105.78 227.808  55
  -2  -9 -11 3041.63 217.298  50
   2  -8 -14 3163.34 209.182  33
   2  -8 -13 390.558 74.2453  55
   2  -8 -13 413.017 82.1439  33
   2  -8 -12 1320.61 168.264  55
   2  -8 -12 1221.84 163.201  47
   2  -8 -12 1168.33 147.319  41
   2  -8 -12 1255.21 160.444  60
   2  -8 -11 6983.37 436.746  47
   2  -8 -11 7100.28 411.827  41
   2  -8 -11 6970.45 425.434  60
   2  -8 -10 741.895 137.001  43
   2  -8 -10 728.588 137.832  60
   2  -8 -10 763.016 142.641  31
   2  -8 -10 961.613 158.424  47
   2  -8  -9 4848.47 372.840  47
   2  -8  -9 4817.75 360.757  43
   2  -8  -9 5165.57 368.902  31
   2  -8  -9 5177.54 375.756  60
   2  -8  -8 33029.6 1152.78  47
   2  -8  -8 32301.5 1121.78  31
   2  -8  -8 31633.2 1114.76  43
   2  -8  -8 31824.0 1069.00  32
   2  -8  -8 32367.1 1110.17  42
   2  -8  -7 18247.4 769.547  47
   2  -8  -7 17202.8 728.303  42
   2  -8  -7 17580.5 711.339  32
   2  -8  -6 10168.0 511.602  32
   2  -8  -6 11190.1 550.328  42
   2  -8  -6 10890.7 546.602  40
   2  -8  -5 2601.28 232.008  32
   2  -8  -5 2738.29 240.958  42
   2  -8  -4 48867.9 1870.34  28
   2  -8  -4 51330.4 2004.50  25
   2  -8  -3 50143.0 1906.16  25
   2  -8  -3 46449.1 1821.26  21
   2  -8  -2 32910.0 1409.81  21
   2  -8  -2 33387.4 1582.79  29
   2  -8  -2 33369.2 1470.28  25
   2  -8  -1 6905.20 672.415  29
   2  -8   0 79682.0 2803.60  29
   2  -8   1 8820.71 761.371  29
   2  -8   2 31134.5 1547.70  29
  -2  -8  -3 32777.3 1448.69  30
  -2  -8  -4 11202.7 522.929  31
  -2  -8  -5 15611.8 652.382  31
  -2  -8  -5 14617.9 647.034  60
  -2  -8  -6 4413.59 319.968  31
  -2  -8  -6 4178.62 324.808  60
  -2  -8  -7 9256.46 508.006  60
  -2  -8  -7 9399.94 529.176  41
  -2  -8  -7 9171.76 536.302  55
  -2  -8  -7 9184.21 489.277  31
  -2  -8  -7 9536.46 542.901  50
  -2  -8  -8 5500.54 385.638  60
  -2  -8  -8 5437.49 387.863  41
  -2  -8  -8 5313.90 393.408  55
  -2  -8  -8 5440.72 396.208  50
  -2  -8  -9 7814.42 479.465  55
  -2  -8  -9 7952.46 475.675  50
  -2  -8  -9 7652.13 460.696  41
  -2  -8 -10 14903.3 663.364  55
  -2  -8 -10 14813.7 649.670  50
  -2  -8 -10 15311.6 640.365  33
  -2  -8 -10 13859.5 634.199  41
  -2  -8 -11 898.899 127.413  50
  -2  -8 -11 728.883 118.570  55
  -2  -8 -11 817.936 117.620  33
  -2  -8 -12 1066.90 119.378  33
  -2  -8 -12 1002.08 114.346  50
   2  -7 -14 10912.9 447.605  55
   2  -7 -14 12049.2 497.040  33
   2  -7 -13 2393.56 219.647  55
   2  -7 -13 2391.78 222.309  33
   2  -7 -12 832.604 133.599  58
   2  -7 -12 713.844 126.345  55
   2  -7 -12 612.652 113.791  47
   2  -7 -12 618.500 104.379  41
   2  -7 -12 762.486 127.576  60
   2  -7 -11 381.242 88.6796  58
   2  -7 -11 395.998 108.107  47
   2  -7 -11 368.766 88.2649  41
   2  -7 -11 239.370 73.2827  60
   2  -7 -10 26732.9 987.911  43
   2  -7 -10 26485.9 996.709  60
   2  -7 -10 26755.9 1018.98  47
   2  -7 -10 26690.4 985.415  31
   2  -7  -9 3187.18 294.221  60
   2  -7  -9 3056.48 276.911  31
   2  -7  -9 2949.20 261.618  32
   2  -7  -9 2641.62 257.642  43
   2  -7  -9 3096.20 292.530  47
   2  -7  -9 2858.50 269.812  42
   2  -7  -8 57070.4 1649.85  32
   2  -7  -8 59548.4 1709.69  43
   2  -7  -8 57893.2 1697.47  42
   2  -7  -8 60111.3 1744.10  47
   2  -7  -8 60012.6 1720.33  31
   2  -7  -7 20740.6 784.545  32
   2  -7  -7 21500.2 812.578  42
   2  -7  -7 21567.7 837.838  40
   2  -7  -6 17030.2 1032.71  21
   2  -7  -6 16441.4 986.999  23
   2  -7  -6 15038.4 935.989  28
   2  -7  -5 43365.0 1682.02  23
   2  -7  -5 44461.9 1763.32  21
   2  -7  -5 45599.4 1757.89  25
   2  -7  -5 43714.5 1689.93  28
   2  -7  -4 24985.5 1150.88  28
   2  -7  -4 27262.7 1248.69  21
   2  -7  -4 25431.8 1214.25  25
   2  -7  -3 13140.6 767.905  28
   2  -7  -3 14369.3 905.123  29
   2  -7  -3 13482.3 804.211  21
   2  -7  -3 13790.2 828.295  25
   2  -7  -2 42667.1 1540.32  28
   2  -7  -2 37666.8 1677.26  29
   2  -7  -1 21443.3 1153.52  29
   2  -7  -1 22384.1 998.219  28
   2  -7  -1 21972.9 979.730  21
   2  -7   0 58558.6 1863.66  28
  -2  -7   0 59921.6 1839.82  25
   2  -7   1 21504.6 1148.53  29
   2  -7   1 21427.3 968.655  28
   2  -7   2 25586.7 1288.78  29
  -2  -7  -3 32933.2 1390.69  30
   2  -7   3 35467.6 1572.90  29
   2  -7   4 40736.7 1752.50  29
  -2  -7  -4 39289.0 1612.64  30
  -2  -7  -6 66158.2 1808.39  31
  -2  -7  -6 64834.5 1828.13  47
  -2  -7  -6 65980.1 1838.47  60
  -2  -7  -7 9238.55 528.196  55
  -2  -7  -7 9560.55 519.803  47
  -2  -7  -7 9927.57 546.904  50
  -2  -7  -7 9383.96 493.520  31
  -2  -7  -7 9777.79 529.365  41
  -2  -7  -7 9010.84 502.948  60
  -2  -7  -8 7853.97 476.122  60
  -2  -7  -8 8399.19 495.062  41
  -2  -7  -8 8190.63 497.592  50
  -2  -7  -8 8000.77 495.438  55
  -2  -7  -9 11516.1 604.391  50
  -2  -7  -9 11810.6 603.219  41
  -2  -7  -9 11883.2 617.769  55
  -2  -7 -10 9732.24 546.424  55
  -2  -7 -10 10647.3 563.728  50
  -2  -7 -10 10287.5 550.784  41
  -2  -7 -10 10166.1 538.923  33
  -2  -7 -11 271.111 67.0854  33
  -2  -7 -11 252.147 63.6355  55
  -2  -7 -11 246.033 72.0867  50
  -2  -7 -12 1813.18 179.261  50
  -2  -7 -12 1758.95 177.908  33
  -2  -7 -13 586.382 85.0257  33
   2  -6 -15 6748.98 332.294  33
   2  -6 -14 502.929 95.1217  37
   2  -6 -14 448.291 96.5913  33
   2  -6 -13 1790.61 196.559  37
   2  -6 -13 1725.74 198.176  33
   2  -6 -13 1558.68 182.019  55
   2  -6 -13 1798.02 189.929  58
   2  -6 -12 2692.64 249.760  41
   2  -6 -12 2846.57 262.893  58
   2  -6 -12 2853.53 271.371  55
   2  -6 -12 2850.30 265.000  37
   2  -6 -12 2819.16 280.100  47
   2  -6 -12 2724.44 264.754  60
   2  -6 -11 17648.6 782.558  47
   2  -6 -11 17771.1 763.482  60
   2  -6 -11 18032.0 753.958  58
   2  -6 -11 17886.1 741.236  41
   2  -6 -10 34501.2 1179.41  43
   2  -6 -10 35269.1 1182.18  31
   2  -6 -10 34623.8 1206.18  47
   2  -6 -10 35181.0 1189.14  60
   2  -6  -9 98710.8 2567.17  47
   2  -6  -9 95447.3 2478.77  32
   2  -6  -9 93345.5 2515.13  43
   2  -6  -9 98380.5 2540.73  60
   2  -6  -9 95479.8 2527.78  42
   2  -6  -9 98083.9 2526.87  31
   2  -6  -8 9645.18 502.967  42
   2  -6  -8 9047.82 471.634  32
   2  -6  -8 10198.2 510.765  43
   2  -6  -8 10380.3 532.631  47
   2  -6  -8 10564.5 517.657  31
   2  -6  -7 19881.6 1082.45  28
   2  -6  -7 19873.9 1094.90  23
   2  -6  -7 19189.0 1076.87  21
   2  -6  -6 19075.0 1022.85  23
   2  -6  -6 19933.7 1059.26  21
   2  -6  -5 70277.9 2338.72  21
   2  -6  -5 74534.2 2324.27  23
   2  -6  -5 74629.6 2338.54  25
   2  -6  -5 74888.8 2323.62  28
  -2  -6   4 105214. 2988.73  29
   2  -6  -4 123125. 3142.53  23
   2  -6  -4 123110. 3234.44  21
   2  -6  -4 106057. 3111.94  25
   2  -6  -4 109247. 3085.51  28
   2  -6  -3 300360. 6992.59  29
   2  -6  -3 276844. 6747.68  25
   2  -6  -3 281995. 6698.04  28
   2  -6  -3 276937. 6727.41  21
   2  -6  -3 285646. 6615.60  23
   2  -6  -2 239408. 5937.72  29
   2  -6  -2 240044. 5689.33  28
   2  -6  -2 233536. 5687.99  21
   2  -6  -1 27993.9 1215.57  29
  -2  -6   1 25973.1 960.566  25
   2  -6  -1 26553.7 1047.35  28
   2  -6  -1 26026.1 1019.45  21
   2  -6   0 32510.8 1359.33  29
   2  -6   0 35181.9 1162.50  21
  -2  -6   0 33428.4 1173.24  25
   2  -6   0 32842.5 1208.72  28
   2  -6   1 95633.6 2633.95  28
   2  -6   1 97030.1 2841.38  29
   2  -6   2 44573.3 1674.84  29
  -2  -6  -3 63603.7 2078.77  30
   2  -6   3 71133.6 2272.49  29
   2  -6   4 8185.76 664.971  29
  -2  -6  -4 9587.63 664.859  30
   2  -6   5 43260.9 1744.40  29
  -2  -6  -5 38388.9 1595.83  30
   2  -6   6 11474.6 856.980  29
  -2  -6  -6 11043.8 796.383  30
  -2  -6  -7 40652.8 1316.85  55
  -2  -6  -7 40536.8 1292.94  47
  -2  -6  -7 42675.0 1338.62  50
  -2  -6  -7 40149.4 1299.58  41
  -2  -6  -7 40847.9 1292.26  60
  -2  -6  -7 39965.9 1252.35  31
  -2  -6  -8 15416.0 708.539  41
  -2  -6  -8 15275.0 717.557  55
  -2  -6  -8 15987.9 734.290  50
  -2  -6  -8 14601.8 683.948  60
  -2  -6  -9 10623.6 581.626  55
  -2  -6  -9 10131.0 560.577  41
  -2  -6  -9 9907.36 558.830  50
  -2  -6 -10 18716.1 791.297  33
  -2  -6 -10 18265.4 790.641  41
  -2  -6 -10 18707.0 810.920  55
  -2  -6 -10 19008.3 812.363  50
  -2  -6 -11 1949.60 218.539  50
  -2  -6 -11 1894.75 219.986  55
  -2  -6 -11 2187.84 228.375  33
  -2  -6 -12 5604.73 354.514  50
  -2  -6 -12 5928.77 366.261  33
  -2  -6 -13 328.604 77.3676  33
  -2  -6 -13 219.603 57.5790  50
   2  -5 -15 616.001 92.4308  33
   2  -5 -14 1147.12 156.620  37
   2  -5 -14 993.631 158.650  33
   2  -5 -14 892.383 134.070  58
   2  -5 -13 6957.41 439.735  33
   2  -5 -13 6899.42 429.031  37
   2  -5 -13 7037.65 412.221  55
   2  -5 -13 6838.18 415.768  58
   2  -5 -12 4017.01 332.422  47
   2  -5 -12 3467.06 306.669  37
   2  -5 -12 3161.55 291.094  58
   2  -5 -12 3839.84 318.170  60
   2  -5 -12 3493.28 300.330  55
   2  -5 -11 2242.63 248.273  47
   2  -5 -11 2293.41 237.487  60
   2  -5 -11 2082.15 232.806  58
   2  -5 -10 11796.9 578.246  60
   2  -5 -10 11094.1 576.260  47
   2  -5 -10 11130.3 552.020  41
   2  -5 -10 10663.1 560.308  43
   2  -5 -10 11334.5 566.558  31
   2  -5  -9 39667.2 1253.84  43
   2  -5  -9 39123.5 1266.24  47
   2  -5  -9 39398.5 1251.56  60
   2  -5  -9 40650.2 1262.06  31
   2  -5  -9 38697.6 1246.73  42
   2  -5  -8 1185.47 244.370  30
   2  -5  -8 1577.69 280.711  21
   2  -5  -8 1461.10 270.366  23
   2  -5  -7 29176.2 1320.91  23
   2  -5  -7 27830.6 1283.75  21
   2  -5  -7 30186.7 1318.15  28
   2  -5  -6 210766. 5229.99  23
   2  -5  -6 208558. 5227.05  21
   2  -5  -6 199302. 5165.80  28
   2  -5  -5 55852.9 1801.20  25
   2  -5  -5 54237.0 1795.29  23
   2  -5  -5 52928.5 1812.85  21
   2  -5  -5 55257.7 1794.95  28
   2  -5  -4 109409. 2872.75  21
   2  -5  -4 93456.7 2743.86  25
   2  -5  -4 94539.2 2740.21  28
   2  -5  -4 111409. 2811.62  23
   2  -5  -3 149686. 3766.45  23
   2  -5  -3 155404. 3844.34  28
   2  -5  -3 149022. 3848.58  21
   2  -5  -2 239120. 6021.75  29
   2  -5  -2 251186. 5854.49  21
  -2  -5   2 255881. 5730.97  29
   2  -5  -2 252209. 5860.98  28
  -2  -5   2 248788. 5649.29  25
   2  -5  -2 252976. 5732.14  23
   2  -5  -1 180317. 4352.94  28
  -2  -5   1 182488. 4221.05  25
   2  -5  -1 179837. 4298.79  21
   2  -5  -1 179859. 4525.69  29
   2  -5   0 33301.4 1057.58  26
  -2  -5   0 34309.2 1104.49  25
   2  -5   0 31337.2 1242.14  29
   2  -5   0 33103.6 1155.92  28
   2  -5   1 36109.6 1121.07  26
   2  -5   1 34768.0 1119.68   9
   2  -5   1 33208.1 1284.21  29
   2  -5   2 27334.2 1123.57  29
   2  -5   3 109235. 3009.93  29
   2  -5   3 103348. 2824.00  17
  -2  -5  -3 106667. 2882.07  30
   2  -5   4 14035.1 764.642  17
   2  -5   4 12303.4 691.962  27
   2  -5   5 75386.8 2241.81  27
  -2  -5  -5 67342.8 2254.46  30
   2  -5   5 71631.3 2278.64  17
  -2  -5  -6 9491.87 703.469  30
   2  -5   6 8307.44 659.841  17
   2  -5   6 8864.80 645.358  27
   2  -5   7 14903.1 918.639  27
  -2  -5  -7 16906.7 1020.13  30
   2  -5   7 15478.6 980.575  17
  -2  -5  -8 27804.7 1019.56  41
  -2  -5  -8 26780.3 992.431  60
  -2  -5  -8 29520.8 1057.63  50
  -2  -5  -8 28173.8 1030.90  55
  -2  -5  -9 23279.6 925.374  50
  -2  -5  -9 22378.9 901.219  41
  -2  -5  -9 22347.8 905.839  55
  -2  -5 -10 14072.3 679.985  33
  -2  -5 -10 14648.7 700.663  50
  -2  -5 -10 13773.0 681.288  55
  -2  -5 -10 13860.4 674.434  41
  -2  -5 -11 1065.78 162.743  33
  -2  -5 -11 1135.45 170.465  50
  -2  -5 -11 1056.45 166.970  55
  -2  -5 -12 8051.74 459.034  50
  -2  -5 -12 7506.01 452.367  33
  -2  -5 -13 1317.72 152.375  50
  -2  -5 -13 1366.67 158.696  33
  -2  -5 -14 6007.24 311.617  33
   2  -4 -16 7984.41 359.083  13
   2  -4 -15 2281.39 207.531  33
   2  -4 -15 2272.79 206.095  37
   2  -4 -14 8329.55 473.737  33
   2  -4 -14 8122.78 463.960  37
   2  -4 -14 8167.15 454.681  58
   2  -4 -13 3441.55 300.103  58
   2  -4 -13 3922.35 324.492  37
   2  -4 -13 4024.37 336.669  33
   2  -4 -12 29386.0 1078.30  58
   2  -4 -12 31902.1 1133.08  33
   2  -4 -12 30116.8 1104.14  37
   2  -4 -12 29291.3 1079.09  47
   2  -4 -11 16013.8 718.690  58
   2  -4 -11 15620.3 714.403  47
   2  -4 -11 15323.0 687.698  60
   2  -4 -10 38238.3 1240.66  47
   2  -4 -10 36695.5 1224.07  43
   2  -4 -10 38028.4 1225.24  60
   2  -4 -10 37378.7 1227.79  31
   2  -4  -9 28821.2 1354.04  21
   2  -4  -9 32974.0 1424.72  30
   2  -4  -8 76725.1 2444.52  30
   2  -4  -8 77891.7 2542.70  23
   2  -4  -8 76136.4 2449.08  21
   2  -4  -7 45285.9 1662.68  21
   2  -4  -7 47293.1 1692.67  28
   2  -4  -7 45212.9 1693.49  23
   2  -4  -7 47894.1 1579.35   2
   2  -4  -6 24660.9 967.139   2
   2  -4  -6 25147.3 1082.25  21
   2  -4  -6 25729.7 1101.22  23
   2  -4  -6 23384.7 1043.97  28
   2  -4  -5 134695. 3421.97  28
   2  -4  -5 131760. 3241.16   2
   2  -4  -5 133644. 3400.04  25
   2  -4  -5 131901. 3429.73  23
   2  -4  -5 129077. 3425.91  21
   2  -4  -4 400079. 9104.57  21
   2  -4  -4 397535. 8859.14   2
   2  -4  -4 399985. 9061.46  23
   2  -4  -4 401153. 9066.41  25
   2  -4  -4 413758. 9085.89  28
   2  -4  -3 459850. 11148.2  23
   2  -4  -3 476025. 11219.6  28
   2  -4  -3 455088. 11207.9  21
   2  -4  -2 227882. 5250.64  23
   2  -4  -2 229805. 5520.80  29
  -2  -4   2 240118. 5158.33  25
   2  -4  -2 222422. 5332.48  21
   2  -4  -2 232929. 5364.92  28
   2  -4  -1 44888.9 1217.38  23
   2  -4  -1 44841.9 1467.35  29
   2  -4  -1 42716.7 1307.90  21
   2  -4  -1 43178.3 1351.63  28
  -2  -4   1 46485.6 1254.14  25
   2  -4  -1 49233.7 1229.28   9
  -2  -4   1 48335.1 1246.79  29
   2  -4  -1 45402.1 1151.50   1
   2  -4   0 71715.2 1799.39  26
   2  -4   0 69231.6 1771.10   9
  -2  -4   0 68110.5 1774.08  25
   2  -4   0 68527.0 1952.02  29
   2  -4   0 72230.1 1776.32  21
   2  -4   1 75819.9 2068.44  29
   2  -4   1 70947.5 1772.21  21
   2  -4   2 33135.8 1098.73  17
   2  -4   2 31723.4 1171.02  29
   2  -4   3 40808.8 1324.70  27
  -2  -4  -3 41288.0 1352.89  30
   2  -4   3 39226.1 1328.74  17
   2  -4   4 157804. 4039.67  17
   2  -4   4 148786. 3950.78  27
   2  -4   5 34321.9 1294.50  27
  -2  -4  -5 31430.5 1290.48  30
   2  -4   5 33581.7 1322.10  17
   2  -4   6 22250.2 1073.25  27
  -2  -4  -6 24985.4 1095.01  24
   2  -4   6 23060.9 1128.17  17
  -2  -4  -6 24458.3 1153.52  30
  -2  -4  -7 13869.8 890.820  30
   2  -4   7 14250.6 878.611  27
   2  -4   7 14608.6 923.709  17
  -2  -4  -8 77613.9 2164.07  55
  -2  -4  -8 80312.4 2181.38  41
  -2  -4  -8 83408.3 2219.56  50
  -2  -4  -9 16160.6 740.884  50
  -2  -4  -9 16020.6 728.753  33
  -2  -4  -9 16640.4 735.969  55
  -2  -4  -9 16068.5 726.701  41
  -2  -4 -10 21261.4 883.354  55
  -2  -4 -10 22375.3 909.123  33
  -2  -4 -10 21544.0 888.747  41
  -2  -4 -10 22019.7 911.971  50
  -2  -4 -11 5772.79 419.049  50
  -2  -4 -11 6075.59 415.675  55
  -2  -4 -11 6056.86 425.615  33
  -2  -4 -12 1066.93 171.730  50
  -2  -4 -12 1127.75 170.522  33
  -2  -4 -13 9207.25 470.118  50
  -2  -4 -13 9910.98 504.044  33
  -2  -4 -14 2577.27 211.178  33
   2  -3 -16 93.3186 31.8478  33
   2  -3 -16 92.7384 29.3386  13
   2  -3 -15 701.481 117.330  37
   2  -3 -15 591.144 107.038  33
   2  -3 -14 12135.2 609.068  37
   2  -3 -14 11915.9 604.881  33
   2  -3 -13 12652.3 644.027  33
   2  -3 -13 10980.0 591.924  58
   2  -3 -13 11218.0 607.127  37
   2  -3 -12 7456.72 489.867  37
   2  -3 -12 7395.09 494.603  33
   2  -3 -12 7405.81 478.791  58
   2  -3 -12 8267.16 488.830  47
   2  -3 -11 32185.7 1100.08  60
   2  -3 -11 33905.4 1155.61  58
   2  -3 -11 32555.0 1126.67  47
   2  -3 -11 32209.9 1114.08   3
   2  -3 -10 79578.6 2162.87  58
   2  -3  -9 69377.0 2294.05  30
   2  -3  -8 37861.1 1446.48  30
   2  -3  -8 36144.2 1419.89   2
   2  -3  -8 35865.9 1419.15  21
   2  -3  -7 10339.0 614.437   2
   2  -3  -7 9278.72 601.972  21
   2  -3  -7 10338.8 620.188  30
   2  -3  -7 9443.85 640.504  23
   2  -3  -7 10100.3 641.111  28
   2  -3  -6 182865. 4491.52  28
   2  -3  -6 182770. 4509.83  23
   2  -3  -6 176381. 4454.23  21
   2  -3  -6 182003. 4385.67   2
   2  -3  -5 38455.8 1311.47  23
   2  -3  -5 39101.9 1223.00   2
   2  -3  -5 37095.0 1277.75  21
   2  -3  -5 38997.2 1294.44  28
   2  -3  -5 39667.7 1269.57  25
   2  -3  -4 208422. 4757.08  21
   2  -3  -4 193521. 4669.12  25
   2  -3  -4 209847. 4750.47  23
   2  -3  -4 193996. 4714.49  28
   2  -3  -3 252785. 5735.28  23
   2  -3  -3 248530. 5765.73  21
   2  -3  -3 258877. 5781.93  28
  -2  -3   2 132611. 2846.45  25
   2  -3  -2 128490. 2926.09   1
   2  -3  -2 136396. 3076.67  21
   2  -3  -2 124005. 3050.28  28
   2  -3  -2 133609. 3001.46  23
  -2  -3   2 123940. 2909.79  19
   2  -3  -1 108207. 2577.58  28
  -2  -3   1 102038. 2410.21  25
  -2  -3   1 102623. 2380.70  29
   2  -3  -1 102205. 2424.01  23
   2  -3  -1 101106. 2506.01  21
   2  -3  -1 112015. 2480.88   9
   2  -3  -1 109783. 2521.85  26
   2  -3  -1 104603. 2660.61  29
   2  -3   0 140244. 3217.46  26
   2  -3   0 144573. 3160.26  21
  -2  -3   0 132345. 3043.09  29
   2  -3   0 135479. 3204.81   9
   2  -3   0 139952. 3329.73  29
   2  -3   1 280072. 6340.63  29
   2  -3   2 135157. 3276.90  17
   2  -3   2 129036. 3246.64  27
  -2  -3  -2 140993. 3280.71  30
   2  -3   3 152856. 3711.54  17
   2  -3   3 155127. 3693.74  27
  -2  -3  -3 145558. 3675.92  30
  -2  -3  -4 160536. 3903.33  30
   2  -3   4 154197. 3899.85  17
   2  -3   4 151686. 3854.51  27
   2  -3   5 38272.8 1345.26  27
   2  -3   5 36426.0 1355.14  17
  -2  -3  -6 73025.4 2146.41  24
   2  -3   6 69183.8 2243.30  17
  -2  -3  -6 75884.2 2312.18  30
  -2  -3  -7 16526.6 948.232  23
   2  -3   7 19289.8 1009.73  27
   2  -3   7 19191.2 1037.45  17
  -2  -3  -7 17091.9 987.878  30
   2  -3   8 14703.0 965.502  17
  -2  -3  -8 17460.9 1055.77  30
  -2  -3  -8 16913.2 997.115  23
  -2  -3  -9 4238.32 344.881  50
  -2  -3  -9 4277.36 345.944  33
  -2  -3  -9 4463.16 344.908  55
  -2  -3  -9 4568.95 352.101  41
  -2  -3 -10 21528.8 904.192  50
  -2  -3 -10 21030.1 886.123  33
  -2  -3 -10 20566.0 856.396  55
  -2  -3 -11 227.657 74.5112  55
  -2  -3 -11 126.450 36.9371  50
  -2  -3 -12 689.691 144.265  33
  -2  -3 -12 888.015 162.547  50
  -2  -3 -13 13215.1 600.527  50
  -2  -3 -13 13725.3 637.713  33
  -2  -3 -14 2747.01 234.519  33
   2  -2 -16 393.166 79.3650  13
   2  -2 -16 503.472 91.9330  33
   2  -2 -15 3640.74 288.213  33
   2  -2 -15 3221.54 276.016  37
   2  -2 -15 3395.69 284.723  13
   2  -2 -14 8119.14 493.382  33
   2  -2 -14 8112.01 493.642  37
   2  -2 -13 12826.2 662.510  33
   2  -2 -13 12602.5 657.022  37
   2  -2 -13 12595.3 647.406  58
   2  -2 -12 7184.47 485.202  58
   2  -2 -12 8028.81 505.149  37
   2  -2 -12 7491.68 506.113  33
   2  -2 -11 101724. 2705.34  47
   2  -2 -11 104159. 2767.98  58
   2  -2 -11 106327. 2740.84   3
   2  -2 -11 110440. 2814.09  33
   2  -2  -9 5768.93 524.124   2
   2  -2  -8 27301.7 1192.78   2
   2  -2  -8 29162.5 1183.93  30
   2  -2  -7 22283.8 969.004   2
   2  -2  -7 22494.1 950.151  21
   2  -2  -7 23313.5 960.420  30
   2  -2  -6 102269. 2729.77  28
   2  -2  -6 103437. 2765.37  23
   2  -2  -6 101406. 2690.37   2
   2  -2  -6 100809. 2688.75  21
   2  -2  -5 15280.2 690.562  28
   2  -2  -5 15398.9 679.335  21
   2  -2  -5 15215.8 663.610   2
   2  -2  -5 15605.4 709.030  23
   2  -2  -4 60098.3 1648.81  28
   2  -2  -4 56242.6 1629.53  21
   2  -2  -4 61987.2 1475.96  15
   2  -2  -4 58872.0 1655.68  23
   2  -2  -4 58984.8 1594.63  25
   2  -2  -3 485336. 10850.9  23
   2  -2  -3 494979. 10873.3  28
  -2  -2   3 510283. 10691.7  24
   2  -2  -2 446315. 10442.4  29
   2  -2  -2 504478. 10381.9  28
   2  -2  -1 344541. 7219.66  26
   2  -2  -1 327587. 7299.04  29
   2  -2  -1 346499. 7197.58   9
  -2  -2   1 334170. 7156.29  19
   2  -2   0 64028.9 1653.13  29
  -2  -2   0 66857.6 1558.52  30
  -2  -2  -1 178127. 4147.42  30
   2  -2   1 191082. 4208.12  27
   2  -2   2 150498. 3549.50  27
   2  -2   2 148536. 3558.04  17
  -2  -2  -2 151632. 3540.14  30
   2  -2   3 126016. 3042.57  27
   2  -2   3 119670. 3038.84  17
  -2  -2  -3 120731. 3031.25  30
   2  -2   4 6837.26 450.324  27
  -2  -2  -4 7836.59 488.750  30
   2  -2   4 6914.55 459.327  17
  -2  -2  -5 16669.6 817.681  30
   2  -2   5 17033.6 809.782  27
  -2  -2  -5 17017.5 751.593  24
   2  -2   5 16920.3 821.509  17
  -2  -2  -6 48554.1 1532.85  24
  -2  -2  -6 46367.9 1541.79  20
  -2  -2  -6 47715.2 1679.76  30
   2  -2   6 44377.6 1624.25  17
  -2  -2  -7 60206.1 2071.78  23
  -2  -2  -7 60858.0 2155.61  30
   2  -2   7 68503.2 2226.59  17
   2  -2   7 68036.7 2188.85  27
  -2  -2  -7 61694.1 2022.72  20
   2  -2   8 55778.4 1901.56  27
   2  -2   8 54214.6 1906.30  17
  -2  -2  -9 924.246 151.629  33
  -2  -2  -9 1242.81 164.687  37
  -2  -2  -9 938.685 154.406  50
  -2  -2  -9 1142.26 161.680  55
  -2  -2 -10 9303.33 560.876  50
  -2  -2 -10 8908.41 540.612  33
  -2  -2 -10 8237.39 498.026  55
  -2  -2 -11 15860.8 763.121  50
  -2  -2 -11 16121.0 771.074  33
  -2  -2 -12 13511.6 681.288  50
  -2  -2 -12 12380.1 663.202  33
  -2  -2 -13 2491.28 254.754  33
  -2  -2 -13 2294.69 231.771  50
  -2  -2 -14 3891.23 288.115  33
  -2  -2 -15 22.9528 7.34413  33
   2  -1 -16 1528.43 166.741  13
   2  -1 -16 1233.52 140.429  33
   2  -1 -15 743.117 130.584  33
   2  -1 -15 633.614 126.491  13
   2  -1 -14 2071.30 245.387  33
   2  -1 -14 2499.67 266.630  37
   2  -1 -13 10080.4 583.899  33
   2  -1 -13 9623.60 571.076  37
   2  -1 -12 8006.19 527.915  33
   2  -1 -12 8588.93 529.705  37
   2  -1 -12 7926.21 511.908  58
   2  -1 -11 18653.4 811.950  58
   2  -1 -11 19455.1 833.586  33
   2  -1 -11 18906.8 786.047   3
   2  -1 -11 19542.9 819.741  37
   2  -1 -11 17787.0 751.705  52
   2  -1  -9 5813.15 529.735   2
   2  -1  -8 19466.0 963.946   2
   2  -1  -8 20408.7 919.996  30
   2  -1  -7 36340.6 1273.42  20
   2  -1  -7 35538.6 1231.22  30
   2  -1  -7 35353.3 1293.13   2
   2  -1  -6 120253. 3182.08  28
   2  -1  -6 123284. 3105.62  30
   2  -1  -6 125974. 3201.39   2
   2  -1  -6 131434. 3021.26  15
   2  -1  -5 122542. 3097.48  28
   2  -1  -5 128705. 2975.87  15
   2  -1  -4 62239.0 1662.28  28
   2  -1  -4 61520.0 1589.35  25
   2  -1  -4 64630.2 1586.24  15
   2  -1  -3 176507. 3959.48  25
   2  -1  -3 185482. 3995.40  15
   2  -1  -3 180925. 4056.08   1
   2  -1  -3 174971. 4036.03  28
   2  -1  -2 185012. 4478.70  28
   2  -1  -2 200693. 4499.79   1
   2  -1  -1 184620. 4186.35  29
   2  -1  -1 189341. 4158.86  26
  -2  -1   1 186499. 4133.50  24
  -2  -1   1 184685. 4134.95  19
   2  -1  -1 186931. 4156.68   9
  -2  -1   0 339581. 7010.31  24
   2  -1   0 322876. 6965.27  29
  -2  -1  -1 263670. 6003.88  24
  -2  -1  -1 264337. 5971.04  30
   2  -1   2 326606. 7007.45  27
  -2  -1  -2 309271. 6970.12  24
  -2  -1  -2 303717. 6975.90  30
   2  -1   2 312756. 7002.89  17
   2  -1   2 337214. 6782.89  14
   2  -1   3 264754. 6028.57  17
  -2  -1  -3 252942. 6012.12  30
  -2  -1  -3 260485. 5961.95  24
   2  -1   4 199627. 4855.79  17
   2  -1   4 198083. 4841.40  27
  -2  -1  -4 210507. 4897.25  30
  -2  -1  -4 212821. 4793.93  24
  -2  -1  -5 22568.5 973.707  30
   2  -1   5 23431.0 965.368  17
   2  -1   5 22862.3 959.407  27
  -2  -1  -5 22871.1 875.003  24
   2  -1   6 32062.5 1281.84  17
   2  -1   6 33890.6 1305.85  27
   2  -1   7 67416.4 2177.29  17
  -2  -1  -7 63741.5 2080.96  20
   2  -1   7 67907.7 2189.33  27
  -2  -1  -7 61297.4 2039.64  23
  -2  -1  -8 25449.1 1206.11  20
   2  -1   8 26484.4 1280.38  27
   2  -1   8 26931.5 1297.15  17
  -2  -1  -9 27552.5 1055.98  50
  -2  -1  -9 25033.5 1288.47  20
  -2  -1  -9 28821.2 1003.69  37
  -2  -1  -9 28642.5 1045.70  33
  -2  -1 -10 10188.9 600.380  50
  -2  -1 -10 9352.35 568.367  33
  -2  -1 -11 21642.1 933.780  33
  -2  -1 -11 20790.0 922.042  50
  -2  -1 -12 13823.3 693.270  50
  -2  -1 -12 14194.8 713.405  33
  -2  -1 -13 4325.09 350.532  33
  -2  -1 -14 2285.49 232.709  33
  -2  -1 -15 367.291 68.9385  33
   2   0 -16 130.253 45.0107  13
   2   0 -16 127.974 36.5484  33
   2   0 -15 469.532 101.388  33
   2   0 -15 429.160 95.5882  13
   2   0 -14 8590.71 536.313  13
   2   0 -14 7761.94 494.579  33
   2   0 -14 8848.85 526.231  37
   2   0 -13 18002.3 766.848  52
   2   0 -13 18273.6 828.833  33
   2   0 -13 17310.1 814.172  37
   2   0 -12 37265.9 1332.33  58
   2   0 -12 39124.1 1286.29  52
   2   0 -12 38154.7 1334.16  37
   2   0 -12 39912.2 1360.94  33
   2   0 -11 8577.08 515.849  58
   2   0 -11 8530.91 493.587   3
   2   0 -11 8476.87 487.255  52
   2   0 -11 8698.12 513.766  37
   2   0 -11 8728.67 520.301  33
   2   0  -9 5380.68 504.885   2
   2   0  -9 5324.78 493.546  20
   2   0  -8 55626.7 1884.63   2
   2   0  -8 57949.1 1879.75  20
   2   0  -7 15764.8 771.860   2
   2   0  -7 15115.3 680.586  30
   2   0  -7 15951.9 687.619  15
   2   0  -7 15916.3 766.575  20
   2   0  -6 186229. 4482.59   2
   2   0  -6 196245. 4486.12  20
   2   0  -6 190775. 4373.61  15
   2   0  -5 6669.93 378.645  28
   2   0  -5 6670.28 361.221  15
   2   0  -5 6140.11 376.692  20
   2   0  -5 5709.99 305.780  30
   2   0  -4 93926.0 2344.36  28
   2   0  -4 92644.1 2340.56  15
   2   0  -3 5340.88 291.942   1
   2   0  -3 5990.54 295.260  15
   2   0  -3 5712.95 270.280  28
   2   0  -2 267621. 5870.17  28
   2   0  -2 277945. 5945.43   1
   2   0  -2 268637. 5952.78  15
   2   0   2 90983.5 2456.90  27
   2   0   2 91906.1 2375.32  14
   2   0   3 102109. 2469.07  27
   2   0   3 98131.8 2451.42  17
  -2   0  -3 95970.3 2182.17  22
   2   0   4 74898.6 2047.80  17
   2   0   5 2205.24 251.448  17
   2   0   6 45748.1 1548.05  17
  -2   0  -6 42003.3 1422.95  23
  -2   0  -7 124093. 3502.87  20
   2   0   7 126701. 3515.07  17
   2   0   7 131878. 3559.31  27
   2   0   8 78381.0 2529.92  17
   2   0   8 76314.2 2535.01  27
  -2   0  -8 77506.0 2528.01  20
  -2   0  -9 57852.9 1769.91  33
   2   0   9 62734.3 2244.67  17
  -2   0 -10 5582.33 440.285  50
  -2   0 -10 4906.06 399.707  33
  -2   0 -11 950.009 173.228  33
  -2   0 -11 836.499 158.478  50
  -2   0 -12 10631.2 620.380  33
  -2   0 -12 10684.1 600.394  50
  -2   0 -13 718.537 142.944  33
  -2   0 -14 6016.47 385.821  33
  -2   0 -15 37.4644 19.5236  33
   2   1 -16 1132.73 145.111  13
   2   1 -15 649.628 130.914  13
   2   1 -15 519.122 109.624  33
   2   1 -14 1934.13 246.748  13
   2   1 -14 1683.56 222.031  33
   2   1 -13 10094.1 560.422  52
   2   1 -13 10767.6 607.504  33
   2   1 -13 10478.8 618.455  13
   2   1 -13 10395.5 598.726  37
   2   1 -12 9679.71 576.062  37
   2   1 -12 8598.35 546.781  33
   2   1 -12 9173.97 532.723  52
   2   1 -11 20792.0 851.342  52
   2   1 -11 20812.5 835.278   3
   2   1 -11 20847.0 872.270  37
   2   1 -11 19903.8 863.094  33
   2   1 -10 65126.8 2297.20  20
   2   1  -9 6069.41 542.014   2
   2   1  -9 6381.67 549.779  20
   2   1  -8 21056.0 995.798  20
   2   1  -8 20779.2 1000.34   2
   2   1  -8 21091.8 927.179  15
   2   1  -7 35250.4 1289.10   2
   2   1  -7 35710.2 1294.43  20
   2   1  -7 34994.0 1227.27  15
   2   1  -6 140521. 3495.83   2
   2   1  -6 140988. 3505.75  20
   2   1  -6 137784. 3443.86  15
   2   1  -5 139240. 3386.46  20
   2   1  -5 138994. 3367.99  15
   2   1  -4 58973.2 1604.49  15
   2   1  -3 187723. 4219.99  28
   2   1  -3 189934. 4375.42  15
   2   1  -3 195233. 4357.19   1
   2   1  -2 204479. 4635.02   1
   2   1  -2 197908. 4667.15  15
   2   1  -1 203584. 4269.74  26
   2   1  -1 204707. 4320.64  14
   2   1  -1 193362. 4349.93  15
   2   1   0 294124. 6689.73   9
   2   1   0 320002. 6692.27  14
   2   1   1 261536. 5998.75   9
   2   1   1 280308. 5984.81  14
   2   1   1 273661. 5948.30  27
   2   1   2 320252. 6962.25  27
   2   1   2 332101. 6974.36  14
   2   1   3 277949. 6245.61  17
   2   1   4 187008. 4459.53  17
  -2   1  -4 190986. 4256.04  22
  -2   1  -4 189198. 4287.64  23
   2   1   5 22429.2 903.775  17
   2   1   6 22929.1 983.689  17
   2   1   7 61594.7 1973.72  17
  -2   1  -7 55625.0 1980.81  20
   2   1   8 23730.7 1186.18  27
  -2   1  -8 24535.2 1222.76  20
   2   1   8 24416.8 1169.80  17
  -2   1  -9 28682.5 1103.93  50
  -2   1  -9 30230.5 1105.17  33
   2   1   9 29839.8 1400.45  17
  -2   1 -10 11656.9 662.674  50
  -2   1 -10 11189.5 638.443  33
  -2   1 -11 22041.2 967.703  50
  -2   1 -11 22253.4 975.913  33
  -2   1 -12 14425.8 723.353  50
  -2   1 -12 15245.2 764.766  33
  -2   1 -13 3782.26 335.812  33
  -2   1 -14 1876.98 213.787  33
  -2   1 -15 268.152 68.0829  33
   2   2 -16 488.663 95.9847  13
   2   2 -15 2775.25 245.901  33
   2   2 -15 2547.77 251.578  13
   2   2 -14 7898.26 511.748  13
   2   2 -14 8180.38 493.319  33
   2   2 -13 14682.5 760.728  13
   2   2 -13 15015.5 732.024  33
   2   2 -12 8635.99 520.669  52
   2   2 -12 5907.15 447.813  33
   2   2 -12 8674.81 540.099  37
   2   2 -12 5472.52 468.877  13
   2   2 -11 101622. 2702.30  52
   2   2 -11 104194. 2779.38  13
   2   2 -11 102615. 2662.26   3
   2   2 -11 101003. 2707.89  33
   2   2 -11 98355.8 2693.76  37
   2   2 -10 27688.4 1378.41  20
   2   2  -9 6500.87 558.233  20
   2   2  -9 5590.78 511.176   2
   2   2  -9 5985.43 503.010  15
   2   2  -8 29259.1 1195.44  15
   2   2  -8 30141.6 1260.78  20
   2   2  -8 29161.1 1235.27   2
   2   2  -7 28483.9 1132.28   2
   2   2  -7 29983.9 1166.03  20
   2   2  -7 28445.5 1121.63  15
   2   2  -6 97061.6 2614.08   2
   2   2  -6 100195. 2652.70  20
   2   2  -6 98295.2 2640.51  15
   2   2  -5 14686.6 638.482   2
   2   2  -5 14460.5 667.667  15
   2   2  -5 14970.8 655.028  20
   2   2  -4 73018.5 1900.99  20
   2   2  -4 71221.7 1940.46  15
   2   2  -3 526664. 11475.1  15
   2   2  -2 517583. 10979.7  15
   2   2  -2 495915. 10910.9  14
   2   2  -1 300525. 6693.09  15
   2   2  -1 315125. 6693.11  14
  -2   2   1 299407. 6635.56  19
  -2   2   0 64521.9 1542.04  18
   2   2   0 61652.6 1554.30   9
   2   2   0 62714.7 1614.43  14
   2   2   0 64398.9 1481.62  26
   2   2   0 62581.9 1534.47  18
   2   2   0 62943.8 1586.93  15
   2   2   1 194538. 4140.66  27
   2   2   1 190446. 4274.60  14
   2   2   1 183953. 4182.62  15
   2   2   1 187016. 4206.65   9
   2   2   2 128677. 3212.98  14
   2   2   2 140620. 3136.76  27
   2   2   3 126260. 3020.54  17
  -2   2  -4 7951.78 413.456  22
   2   2   4 8453.23 453.284  17
   2   2   5 17022.8 745.303  17
   2   2   6 40146.8 1394.54  17
  -2   2  -7 56251.4 2030.55  20
   2   2   7 60977.3 1944.52  17
   2   2   8 57642.8 2030.23  27
   2   2   8 57379.8 1970.24  17
  -2   2  -8 53465.0 2056.20  20
  -2   2  -9 1001.96 164.049  50
  -2   2  -9 2290.51 260.548  33
  -2   2 -10 9185.83 580.365  50
  -2   2 -10 9351.72 582.902  33
  -2   2 -11 14658.0 754.938  50
  -2   2 -11 14648.3 763.616  33
  -2   2 -12 10831.7 619.916  50
  -2   2 -12 11448.2 665.911  33
  -2   2 -13 2471.10 263.699  33
  -2   2 -14 3894.36 272.460  36
  -2   2 -14 4082.55 311.223  33
  -2   2 -15 75.3796 33.4624  12
  -2   2 -15 66.0339 37.8675  33
   2   3 -16 85.0594 18.6366  12
   2   3 -16 152.822 51.7303  13
   2   3 -15 795.778 133.775  13
   2   3 -14 10555.2 559.082  33
   2   3 -14 10130.7 591.601  13
   2   3 -13 10156.3 533.973  48
   2   3 -13 10128.2 611.401  13
   2   3 -13 11079.7 599.275  33
   2   3 -12 5561.81 463.229  13
   2   3 -12 5287.86 418.206  33
   2   3 -11 33531.2 1182.49  33
   2   3 -11 33906.7 1145.50   3
   2   3 -11 33378.5 1200.09  52
   2   3 -11 33398.7 1235.72  13
   2   3 -11 31541.3 1166.27  37
   2   3 -10 85458.9 2274.67  52
   2   3 -10 80826.1 2653.84  15
   2   3 -10 78492.1 2266.08  13
   2   3  -9 62198.0 2152.96  15
   2   3  -9 64531.3 2219.57  20
   2   3  -8 37184.0 1437.68  20
   2   3  -8 33692.1 1388.08  15
   2   3  -8 33318.3 1366.37   2
   2   3  -7 9201.99 594.523  20
   2   3  -7 8752.07 596.524  15
   2   3  -7 8964.93 573.087   2
   2   3  -6 176770. 4318.30   2
   2   3  -6 183686. 4386.61  20
   2   3  -6 172554. 4418.07  15
   2   3  -5 36464.6 1215.22  20
   2   3  -5 36504.9 1176.33   2
   2   3  -5 37328.5 1283.51  15
   2   3  -4 207314. 4740.01  20
   2   3  -4 201117. 4834.17  15
   2   3  -3 241243. 5545.03  15
   2   3  -2 147611. 3338.97  22
  -2   3   2 133293. 3193.02  19
   2   3  -2 147889. 3216.59   1
   2   3  -2 144049. 3368.61  15
   2   3  -2 130843. 3269.14  14
   2   3  -1 111640. 2643.92  14
   2   3  -1 107655. 2615.14  18
   2   3  -1 109575. 2610.62  22
   2   3  -1 108404. 2636.50  15
   2   3   0 139000. 3248.18  18
  -2   3   0 134835. 3238.41  18
   2   3   0 136530. 3288.69  14
   2   3   0 144035. 3222.22  15
   2   3   1 300832. 6327.60  27
   2   3   1 287075. 6386.32   9
   2   3   1 290176. 6578.31  14
   2   3   1 288924. 6399.80  15
   2   3   2 148457. 3366.38  27
   2   3   2 149973. 3593.51  14
   2   3   2 157605. 3335.09  15
   2   3   3 159458. 3692.86  27
   2   3   3 157817. 3878.17  14
  -2   3  -4 157885. 3827.07  22
   2   3   5 30607.7 1075.49  17
  -2   3  -5 30730.3 1079.47  22
  -2   3  -7 18488.6 1029.48  20
   2   3   8 13843.9 859.975  27
  -2   3  -8 16224.4 1014.86  20
  -2   3  -9 4833.34 400.694  50
  -2   3  -9 5131.21 402.961  33
  -2   3 -10 20759.3 930.219  50
  -2   3 -10 20476.4 932.943  33
  -2   3 -11 132.464 50.5941  33
  -2   3 -11 232.153 89.9916  50
  -2   3 -12 632.914 147.343  33
  -2   3 -13 13094.1 657.798  33
  -2   3 -13 12909.2 622.486  36
  -2   3 -14 1933.87 194.583  36
  -2   3 -14 2669.92 235.420  12
  -2   3 -14 2725.51 255.564  33
   2   4 -16 6717.97 334.799  13
   2   4 -15 2890.93 250.724  13
   2   4 -15 2839.56 242.806  12
   2   4 -14 8699.14 453.865  48
   2   4 -14 8187.56 506.669  13
   2   4 -13 3224.72 288.378  48
   2   4 -13 3445.51 330.634  13
   2   4 -12 30282.0 1094.79  48
   2   4 -12 30294.2 1182.06  13
   2   4 -11 15988.9 726.986  48
   2   4 -11 16190.3 786.123  13
   2   4 -10 41267.2 1342.18  52
   2   4 -10 39211.9 1228.67   3
   2   4  -9 29250.9 1365.37  20
   2   4  -9 27555.3 1334.43  15
   2   4  -8 73219.5 2355.73  20
   2   4  -8 71605.2 2382.77  15
   2   4  -7 50973.2 1698.18   2
   2   4  -7 53512.7 1779.62  20
   2   4  -7 51894.1 1835.03  15
   2   4  -6 23782.6 937.668   2
   2   4  -6 22654.9 1032.65  15
   2   4  -6 21636.6 957.003  20
   2   4  -5 135821. 3349.65  20
   2   4  -5 128990. 3457.93  15
   2   4  -5 132545. 3264.00   2
   2   4  -4 416244. 9439.04  15
   2   4  -4 436866. 9195.55   2
   2   4  -3 522819. 11242.6  22
   2   4  -3 520687. 11133.5  14
   2   4  -2 253271. 5821.34  15
   2   4  -2 262286. 5822.48  22
  -2   4   2 246157. 5596.67  19
   2   4  -2 260885. 5764.30  14
   2   4  -1 44397.1 1287.15  14
   2   4  -1 42532.7 1256.87  22
   2   4  -1 42557.4 1094.32   1
   2   4  -1 41424.8 1277.09  18
   2   4  -1 42239.1 1255.93  15
   2   4   0 60989.0 1740.56  14
  -2   4   0 64004.3 1761.34  18
   2   4   0 61871.2 1737.16  18
   2   4   0 65253.4 1666.24  15
   2   4   0 63046.3 1660.34  22
   2   4   1 73866.8 1792.77  15
   2   4   1 70812.5 1804.50  22
   2   4   1 72322.8 1977.39  18
   2   4   1 71634.1 1988.26  14
   2   4   2 30178.3 1092.60  14
   2   4   3 39028.3 1347.08  14
  -2   4  -4 176131. 4265.36  22
   2   4   4 167032. 4315.32  14
  -2   4  -5 40367.1 1405.31  22
  -2   4  -7 16282.9 990.207  20
   2   4   7 16815.5 968.503  14
   2   4   8 80630.5 2117.49  39
  -2   4  -8 76401.9 2224.25  50
  -2   4  -8 78584.4 2221.58  33
  -2   4  -9 16415.4 807.296  50
  -2   4  -9 16541.2 805.187  33
  -2   4 -10 20890.8 949.784  33
  -2   4 -10 22131.8 964.223  50
  -2   4 -11 5729.82 448.802  33
  -2   4 -12 920.205 169.700  36
  -2   4 -12 1114.38 186.759  33
  -2   4 -13 9734.56 520.695  12
  -2   4 -13 9610.34 505.630  36
  -2   4 -13 10023.8 544.864  33
  -2   4 -14 2758.27 225.588  12
  -2   4 -14 2693.37 235.607  33
   2   5 -15 577.247 100.389  13
   2   5 -15 507.938 95.7608  12
   2   5 -14 1257.75 166.722  48
   2   5 -14 795.875 147.313  12
   2   5 -14 850.610 169.178  13
   2   5 -13 6761.52 426.688  48
   2   5 -13 6492.13 456.079  13
   2   5 -13 7108.72 452.905  12
   2   5 -12 2531.18 289.948  12
   2   5 -12 3147.33 335.613  13
   2   5 -11 1567.96 210.679  48
   2   5 -11 1859.02 239.820  13
  -2   5  10 10091.3 519.816  53
   2   5 -10 9392.00 560.292  13
  -2   5  10 10589.6 533.263  11
   2   5 -10 9507.83 543.534  48
   2   5  -9 31295.8 1111.16  48
  -2   5   9 32933.0 1090.64  11
   2   5  -9 34015.0 1165.97  13
   2   5  -8 1810.37 310.265  15
   2   5  -7 26500.6 1165.89  20
   2   5  -7 26094.2 1241.95  15
   2   5  -6 194667. 5009.34  15
   2   5  -5 60239.4 1968.66  15
   2   5  -4 101268. 2764.91  22
   2   5  -4 98854.3 2789.32  15
   2   5  -3 158780. 3914.06  22
   2   5  -3 150647. 3906.14  15
   2   5  -3 158977. 3782.06  14
   2   5  -2 234732. 5547.43  14
   2   5  -2 237957. 5617.26  15
   2   5  -2 249839. 5644.83  22
  -2   5   1 164675. 4185.93  18
   2   5  -1 171237. 4048.49  22
   2   5  -1 168962. 4117.52  18
   2   5  -1 165119. 4005.61  15
   2   5  -1 170823. 4058.72  14
   2   5   0 39304.3 1198.20  22
   2   5   0 37800.3 1284.46  18
  -2   5   0 36647.7 1285.95  18
   2   5   0 37094.2 1259.24  14
   2   5   0 38213.0 1148.09  15
   2   5   1 39077.7 1312.45  18
   2   5   1 36298.0 1274.61  14
   2   5   1 36439.2 1124.32  22
   2   5   2 25599.9 1047.33  14
   2   5   3 105691. 2938.63  14
  -2   5  -4 14538.0 790.868  22
   2   5   4 14337.1 815.236  14
  -2   5  -5 71356.6 2305.01  22
   2   5   5 81427.6 2469.77  14
  -2   5  -6 11340.5 782.363  20
   2   5   6 11299.0 785.580  14
  -2   5  -6 10885.1 699.078  22
   2   5   7 16208.0 993.611  14
  -2   5  -7 13100.8 910.894  20
  -2   5  -8 24556.6 990.484  50
  -2   5  -8 27709.3 1029.17  33
  -2   5  -9 24709.5 1051.47  36
  -2   5  -9 25045.7 1049.88  33
   2   5  10 15216.7 667.918  39
  -2   5 -10 13263.8 724.799  36
  -2   5 -10 14468.2 754.577  33
  -2   5 -11 837.184 157.817  36
   2   5  11 1319.67 165.337  39
  -2   5 -11 1122.69 185.764  12
  -2   5 -11 959.118 172.200  33
  -2   5 -12 7862.25 494.145  12
  -2   5 -12 6906.07 468.311  36
  -2   5 -12 8752.52 536.962  33
  -2   5 -13 1175.67 158.134  12
  -2   5 -13 1094.08 146.333  36
  -2   5 -13 1123.10 160.810  33
  -2   5 -14 5728.29 315.799  12
   2   6 -15 5851.09 304.612  12
   2   6 -15 6672.51 349.704  13
   2   6 -14 236.858 74.9734  13
   2   6 -14 241.289 72.2852  12
   2   6 -13 1910.52 214.265  48
   2   6 -13 1928.36 214.240  12
   2   6 -13 1763.49 218.098  13
  -2   6  12 2120.95 220.475  53
   2   6 -12 1780.67 238.280  12
   2   6 -12 2687.40 277.784  48
  -2   6  12 2031.03 211.592  11
   2   6 -12 2156.21 264.618  13
  -2   6  11 19674.2 799.115  11
   2   6 -11 18478.1 830.114  48
   2   6 -11 20350.8 850.470  12
  -2   6  11 20139.7 805.006  53
   2   6 -11 19382.0 872.821  13
  -2   6  10 36637.5 1202.57  53
   2   6 -10 34768.0 1214.60  12
   2   6 -10 33480.2 1223.17  48
  -2   6  10 36679.3 1202.58  11
   2   6 -10 36219.5 1273.47  13
   2   6  -9 93560.9 2566.46  48
   2   6  -9 94423.9 2536.35  12
  -2   6   9 100241. 2548.87  11
   2   6  -9 98279.7 2603.98  13
   2   6  -8 8635.54 490.015  48
  -2   6   8 8675.24 476.349  11
   2   6  -8 8572.07 493.961  13
   2   6  -7 19265.1 1104.93  15
   2   6  -6 20043.9 1088.14  15
   2   6  -5 69438.0 2271.24  15
   2   6  -4 110556. 3052.04  22
   2   6  -4 105404. 3039.17  15
   2   6  -3 253021. 6256.15  15
   2   6  -3 266437. 6297.25  22
   2   6  -3 268690. 6121.60  14
   2   6  -2 230918. 5487.40  22
  -2   6   2 214831. 5656.13  18
   2   6  -2 230954. 5451.10  15
   2   6  -2 231294. 5392.62  14
   2   6  -1 24844.9 987.605  14
   2   6  -1 25305.2 993.945  22
  -2   6   1 24089.4 1097.51  18
   2   6  -1 24355.5 940.798  15
  -2   6   0 27132.8 1143.04  18
   2   6   0 28862.7 1043.60  22
   2   6   0 26875.8 1084.58  14
   2   6   0 27837.7 1144.11  18
   2   6   1 86601.1 2503.55  14
   2   6   1 87131.2 2308.21  22
   2   6   1 86319.5 2544.19  18
   2   6   2 50996.4 1761.53  18
   2   6   2 48800.8 1718.49  14
  -2   6  -3 68897.0 2266.55  22
   2   6   3 73112.9 2291.77  14
  -2   6  -4 8846.89 607.538  20
  -2   6  -4 9129.85 665.232  22
   2   6   4 8061.63 636.467  14
   2   6   5 42940.6 1619.34  14
  -2   6  -5 38053.7 1489.42  22
   2   6   6 12987.7 886.491  14
  -2   6  -6 10697.5 778.228  20
  -2   6  -6 10886.0 762.385  22
  -2   6  -7 38174.6 1319.86  12
   2   6   7 45252.1 1353.09  11
   2   6   7 44716.3 1347.96  53
   2   6   7 42917.6 1332.49  39
  -2   6  -7 38322.6 1362.15  36
  -2   6  -7 39193.8 1360.95  33
  -2   6  -8 12647.3 648.480  12
  -2   6  -8 11326.2 648.134  36
  -2   6  -8 13624.7 700.324  33
  -2   6  -9 10476.5 601.514  12
   2   6   9 11109.6 575.370  39
  -2   6  -9 10475.2 627.841  36
  -2   6  -9 11066.4 640.950  33
  -2   6 -10 17525.3 837.970  33
   2   6  10 18172.6 754.631  39
  -2   6 -10 16951.6 798.025  12
  -2   6 -10 16541.4 816.130  36
  -2   6 -11 2150.69 247.252  12
   2   6  11 2512.37 228.197  39
  -2   6 -11 1820.38 237.564  33
  -2   6 -11 1986.63 241.996  36
  -2   6 -12 5829.04 392.196  12
  -2   6 -12 5123.83 369.592  36
  -2   6 -13 315.252 76.6131  12
  -2   6 -13 323.012 70.2230  36
   2   7 -14 12382.4 510.011  12
   2   7 -13 2394.39 225.725  12
   2   7 -13 2441.80 245.226  13
  -2   7  13 2465.94 211.677  39
   2   7 -12 602.403 125.620  13
  -2   7  12 584.093 106.104  53
   2   7 -12 521.290 110.378  48
   2   7 -12 577.837 118.787  12
  -2   7  12 587.866 100.951  11
   2   7 -11 320.750 85.8197  48
  -2   7  11 381.673 98.7235  53
   2   7 -11 276.756 65.5786  12
   2   7 -11 450.932 105.936  13
  -2   7  11 380.533 98.5919  11
  -2   7  10 25258.4 961.512  53
  -2   7  10 25532.8 966.040  11
   2   7 -10 25613.6 979.066  12
   2   7 -10 25875.4 1022.89  13
   2   7 -10 24671.0 997.397  48
  -2   7   9 3069.98 283.324  53
  -2   7   9 2695.18 269.781  11
   2   7  -9 3185.34 301.268  13
   2   7  -9 2831.40 271.453  12
   2   7  -9 2627.94 268.638  48
   2   7  -8 60659.3 1758.23  48
  -2   7   8 58298.2 1726.35  11
   2   7  -8 58060.0 1743.10  13
   2   7  -8 58088.4 1699.94  12
   2   7  -7 24627.4 912.007  48
  -2   7   7 23245.5 895.687  11
   2   7  -7 23573.2 876.044  12
   2   7  -7 25444.3 927.704  13
   2   7  -6 19172.5 1112.60  15
   2   7  -5 40540.7 1649.99  15
   2   7  -4 28340.5 1268.06  22
   2   7  -4 26781.3 1236.80  15
   2   7  -3 8513.31 621.297  22
   2   7  -3 7777.47 582.784  15
   2   7  -2 39298.9 1427.63  22
  -2   7   2 34050.2 1532.72  18
   2   7  -2 32149.7 1269.93  14
   2   7  -2 37567.7 1361.45  15
  -2   7   1 20504.7 1088.28  18
   2   7  -1 21689.2 975.888  14
   2   7  -1 21838.4 981.663  22
   2   7   0 54804.9 1877.07  14
   2   7   0 58165.0 2000.94  18
   2   7   0 58734.5 1838.36  22
   2   7   1 18781.5 956.819  14
   2   7   1 19654.9 1015.26  18
   2   7   2 26078.6 1231.70  14
   2   7   2 27769.8 1303.20  18
   2   7   3 44948.4 1763.41  18
  -2   7  -3 39885.3 1679.98  22
   2   7   3 42803.6 1700.49  14
   2   7   4 40873.8 1705.92  18
  -2   7  -4 35782.2 1602.07  22
   2   7   4 39672.4 1660.41  14
   2   7   5 29512.1 1011.59  11
  -2   7  -5 27929.3 998.814  12
   2   7   5 29765.2 1012.59  53
  -2   7  -5 27772.8 1032.30  36
   2   7   6 71991.9 1984.01  53
  -2   7  -6 68877.9 1984.64  12
  -2   7  -6 68080.5 2021.88  36
   2   7   6 72938.5 1989.10  39
   2   7   6 71537.5 1983.15  11
   2   7   7 12598.3 613.993  53
   2   7   7 11768.0 600.399  39
  -2   7  -7 10553.7 608.573  36
  -2   7  -7 11190.6 600.034  12
   2   7   7 11725.0 596.093  11
  -2   7  -8 8644.44 533.704  12
   2   7   8 8653.67 507.109  39
  -2   7  -8 8087.33 539.374  36
  -2   7  -9 9360.44 565.409  12
   2   7   9 10847.8 562.878  39
  -2   7  -9 9548.29 588.093  36
  -2   7 -10 10342.1 583.973  12
  -2   7 -10 9188.18 569.821  36
   2   7  11 253.089 66.1710  39
  -2   7 -11 303.844 91.7594  36
  -2   7 -11 258.175 55.6090  12
  -2   7 -12 1945.84 207.450  12
   2   7  12 1364.23 144.287  39
  -2   7 -12 1638.35 183.796  36
  -2   7 -13 866.924 114.503  12
  -2   8  13 360.359 72.7505  39
   2   8 -12 895.610 137.807  12
  -2   8  12 736.083 118.372  53
  -2   8  12 724.400 114.880  11
  -2   8  11 7288.64 433.432  53
   2   8 -11 7837.88 493.342  13
  -2   8  11 7287.54 434.027  11
   2   8 -11 7942.38 463.231  12
   2   8 -11 7414.08 472.093  48
  -2   8  10 602.490 122.199  11
  -2   8  10 664.378 126.178  53
   2   8 -10 929.079 162.200  48
   2   8 -10 566.051 138.880  13
   2   8 -10 600.883 132.760  12
  -2   8   9 3379.98 300.430  53
   2   8  -9 3339.25 314.379  48
   2   8  -9 3906.38 318.590  12
   2   8  -9 4200.26 350.836  13
  -2   8   9 3263.37 298.286  11
   2   8  -8 31905.3 1124.66  12
   2   8  -8 33237.2 1160.90  48
  -2   8   8 31629.4 1135.54  11
   2   8  -8 32173.7 1164.31  13
  -2   8   7 15742.8 712.976  11
   2   8  -7 16865.1 741.376  13
   2   8  -7 15411.0 682.199  12
   2   8  -7 15874.0 685.215  36
   2   8  -7 15437.6 699.407  48
   2   8  -6 10123.3 523.555  12
   2   8  -6 10054.2 525.382  36
  -2   8   6 9353.79 518.793  11
   2   8  -6 11079.8 549.137  48
   2   8  -5 2675.77 249.631  36
   2   8  -5 4752.12 339.606   6
  -2   8   4 55473.9 2321.64  18
   2   8  -4 53937.4 2007.17  15
   2   8  -3 47831.7 1815.08  22
  -2   8   3 46407.6 2023.63  18
   2   8  -2 30124.7 1334.82  22
  -2   8   2 31683.6 1539.75  18
   2   8  -1 7646.11 587.128  22
  -2   8   1 8234.31 704.436  18
   2   8   0 88172.5 2713.77  14
   2   8   1 7065.40 606.133  14
  -2   8  -1 7404.35 667.813  22
   2   8   1 8311.17 690.331  18
  -2   8  -2 32529.1 1530.42  22
   2   8   2 31312.9 1489.68  18
   2   8   2 29835.0 1407.77  14
   2   8   3 41891.7 1791.29  18
  -2   8  -3 39001.4 1264.16  36
   2   8   3 38590.8 1691.57  14
   2   8   4 11160.5 553.225  11
   2   8   4 10543.8 539.474  53
  -2   8  -4 11338.9 557.334   6
   2   8   4 10639.8 543.953  39
   2   8   4 10098.9 500.107   7
  -2   8  -4 12820.1 613.609  36
  -2   8  -4 12803.5 605.016  12
   2   8   5 17769.9 759.148  53
   2   8   5 19082.4 779.968  11
   2   8   5 18295.8 769.804  39
  -2   8  -5 18162.7 798.180  36
  -2   8  -5 18743.0 791.095  12
   2   8   6 3961.84 328.629  53
  -2   8  -6 4894.52 376.045  12
   2   8   6 3902.26 324.061  39
  -2   8  -6 4415.04 366.251  36
   2   8   6 3977.70 330.096  11
   2   8   7 10559.4 566.868  53
  -2   8  -7 10634.5 590.830  12
   2   8   7 10819.5 576.804  39
  -2   8  -7 9974.78 595.771  36
  -2   8  -8 4776.71 400.127  36
   2   8   8 4876.64 367.418  39
  -2   8  -8 5185.14 399.577  12
  -2   8  -9 6891.82 462.197  12
   2   8   9 7678.31 451.116  39
  -2   8  -9 7015.79 477.914  36
  -2   8 -10 15670.6 713.154  12
   2   8  10 15590.7 659.399  39
  -2   8 -10 14996.0 710.439  36
   2   8  11 814.606 120.774  39
  -2   8 -11 592.686 107.643  12
  -2   8 -11 626.837 117.197  36
   2   8  12 1046.29 113.318  39
  -2   8 -12 932.236 122.008  36
  -2   9  13 4174.39 237.384  39
  -2   9  12 2972.21 231.620  39
  -2   9  11 3101.71 254.874  53
  -2   9  11 3349.70 264.856  11
  -2   9  10 13431.9 621.641  11
  -2   9  10 13256.5 618.825  53
  -2   9   9 3943.98 322.012  53
  -2   9   9 4065.95 325.186  11
  -2   9   8 31278.9 1144.40  11
   2   9  -8 36315.4 1207.95  48
  -2   9   8 30720.5 1133.78  53
   2   9  -8 35221.8 1147.91  36
   2   9  -7 10866.4 575.755  48
   2   9  -7 11683.2 572.553  36
  -2   9   7 10240.0 566.259  11
  -2   9   6 943.994 151.976  11
   2   9  -6 1096.51 162.585  36
   2   9  -5 3383.70 265.669   7
  -2   9   5 3537.97 300.052  11
   2   9  -4 2066.26 212.398   7
   2   9  -4 2075.21 236.977   6
  -2   9   4 1730.88 207.791  11
  -2   9   4 1908.05 200.930   7
   2   9  -3 58260.5 1683.26   7
   2   9  -3 63515.6 1786.69   6
   2   9  -2 45350.4 1391.58   6
   2   9  -2 41707.5 1305.60   7
   2   9  -1 21420.5 819.202   7
   2   9  -1 22848.3 880.092   6
   2   9   0 7164.18 421.105   7
  -2   9   0 9016.26 488.527  36
   2   9   1 45163.9 1364.18   7
  -2   9  -1 42343.2 1401.08   6
  -2   9  -1 47378.0 1419.31  36
   2   9   2 10568.2 531.657   7
  -2   9  -2 11044.8 587.156   6
   2   9   3 76037.0 2043.37  11
   2   9   3 75279.0 2039.60  53
  -2   9  -3 69543.5 2046.91   6
   2   9   3 76776.2 2043.14  39
  -2   9  -3 73766.0 2082.11  36
   2   9   3 75580.0 2020.65   7
   2   9   4 26817.6 971.761  39
  -2   9  -4 24860.6 962.123   6
  -2   9  -4 25556.0 992.557  36
   2   9   4 26119.0 960.409  53
   2   9   4 25658.2 954.145  11
   2   9   4 26776.3 920.114   7
   2   9   5-33.3714 43.3999  53
   2   9   5 82.3651 59.4321  39
   2   9   5 29.5870 36.4871  11
  -2   9  -5-3.32434 12.4606  36
   2   9   6 4097.30 333.255  53
   2   9   6 3958.60 330.600  39
  -2   9  -7 3127.35 305.127  12
   2   9   7 3466.26 300.884  39
  -2   9  -7 3047.92 301.446  36
  -2   9  -8 6866.41 456.547  12
   2   9   8 6672.19 426.097  39
  -2   9  -8 6413.26 448.398  36
   2   9   9 299.307 71.8150  39
  -2   9  -9 289.000 94.2974  36
   2   9  10 4502.47 299.714  39
  -2   9 -10 4589.97 334.110  36
   2   9  11 3238.73 220.880  39
  -2   9 -11 3065.91 238.906  36
  -2  10  12 603.650 86.4370  39
  -2  10  11 61.2086 31.5664  53
  -2  10  11 116.523 51.4088  39
  -2  10  11 94.0000 25.8612  11
  -2  10  10 3542.56 276.600  53
  -2  10  10 3956.52 291.034  11
  -2  10   9 3499.91 286.030  53
  -2  10   9 3549.64 287.576  11
  -2  10   8 1291.09 182.544  11
  -2  10   8 1252.24 175.946  53
  -2  10   7 2913.89 277.073  53
  -2  10   7 3052.83 282.417  11
  -2  10   6 31077.9 1097.29  53
  -2  10   6 30887.6 1096.46  11
  -2  10   5 9610.84 525.032  11
   2  10  -5 8966.20 474.643   7
  -2  10   4 11877.7 564.476   7
   2  10  -4 13077.2 656.263   6
  -2  10   4 11933.8 597.657  11
   2  10  -4 12406.8 581.281   7
  -2  10   3 7090.80 417.797   7
   2  10  -3 7829.04 483.882   6
   2  10  -3 7419.94 426.571   7
   2  10  -2 18738.3 759.637   7
   2  10  -2 17546.6 800.195   6
   2  10  -1 86527.3 2365.16   6
   2  10  -1 84231.8 2272.16   7
  -2  10   0 17425.9 812.409   6
   2  10   0 18818.2 767.583   7
   2  10   0 18484.1 808.852   6
   2  10   1 10098.6 522.082   7
  -2  10  -1 9501.01 559.571   6
   2  10   2 40511.2 1310.49   7
  -2  10  -2 40879.4 1386.33   6
   2  10   3 4837.15 341.970  53
   2  10   3 5205.14 352.208   7
  -2  10  -3 4825.82 372.888   6
   2  10   3 5288.54 357.593  39
  -2  10  -3 5163.81 389.052  36
   2  10   4 13141.9 590.752   7
   2  10   4 12756.0 611.567  39
  -2  10  -4 13616.4 671.403  36
   2  10   4 11997.4 595.014  53
   2  10   5 14030.4 648.809  39
  -2  10  -5 13901.5 687.215  36
   2  10   6 18471.1 768.106  39
  -2  10  -6 18666.7 823.398  36
   2  10   7 19164.6 770.707  39
  -2  10  -7 18931.4 822.407  36
   2  10   8 18269.8 717.939  39
  -2  10  -8 17295.3 758.735  36
   2  10   9 1010.39 131.675  39
  -2  10  -9 910.644 144.393  36
   2  10  10 3090.45 215.938  39
  -2  10 -10 3102.30 241.529  36
  -2  11  11 1769.64 147.211  39
  -2  11  10 15321.5 576.764  11
  -2  11  10 15444.6 578.403  53
  -2  11  10 14763.8 568.246  39
  -2  11   9 7463.79 402.605  11
  -2  11   9 7808.20 406.568  39
  -2  11   9 8101.95 414.471  53
  -2  11   8 781.948 123.754  53
  -2  11   8 866.923 136.015  11
  -2  11   7 3067.56 268.671  11
  -2  11   7 3131.92 269.429  53
  -2  11   6 3494.30 291.265  53
  -2  11   6 3520.23 292.508  11
  -2  11   5 2487.44 220.857   7
  -2  11   5 2515.37 245.593  11
  -2  11   5 2548.55 247.055  53
   2  11  -5 2264.14 218.037   7
  -2  11   4 3166.62 276.245  53
  -2  11   4 3643.85 285.311   7
  -2  11   4 3439.23 288.545  11
   2  11  -4 3210.76 269.878   7
  -2  11   3 2475.04 238.523   7
   2  11  -3 2449.28 239.770   7
   2  11  -3 2499.53 271.280   6
  -2  11   2 1622.70 196.242   7
   2  11  -2 1620.41 220.181   6
   2  11  -2 1680.09 201.646   7
   2  11  -1 15790.1 691.384   7
  -2  11   1 14887.9 674.487   7
   2  11  -1 15901.0 747.742   6
  -2  11   1 14568.3 748.116   6
  -2  11   0 19576.2 814.723   7
   2  11   0 21440.6 892.111   6
  -2  11   0 19688.7 887.696   6
   2  11   0 21194.9 826.560   7
  -2  11  -1 1208.18 173.774   7
   2  11   1 1676.99 199.186   7
  -2  11  -1 1424.78 203.952   6
   2  11   1 1668.79 214.327   6
  -2  11  -2 31455.5 1171.91   6
   2  11   2 34939.3 1122.26   7
  -2  11  -2 30200.9 1106.83   7
   2  11   2 35809.3 1208.60   6
  -2  11  -3 15409.5 701.190   7
  -2  11  -3 16491.0 753.659   6
   2  11   3 16992.6 692.476   7
   2  11   4 5153.29 334.153   7
  -2  11  -4 4782.27 345.560   7
   2  11   4 5599.73 358.809  39
  -2  11  -4 5399.59 394.158  36
  -2  11  -5 447.689 103.841  36
   2  11   5 435.290 98.3143  39
  -2  11  -5 370.305 82.8174   7
   2  11   6 4759.18 328.533  39
  -2  11  -6 6069.99 408.054  36
   2  11   7 6776.09 379.782  39
  -2  11  -7 7136.15 430.468  36
  -2  11  -8 717.864 124.472  36
   2  11   8 462.951 88.4783  39
   2  11   9 4731.70 261.726  39
  -2  12   9 296.277 59.2457  39
  -2  12   8 4706.46 284.092  53
  -2  12   8 4454.88 272.815  39
  -2  12   8 4852.40 288.889  11
  -2  12   7 1464.76 161.276  11
  -2  12   7 1446.05 153.956  39
  -2  12   7 1496.67 163.095  53
  -2  12   6 691.530 112.825  53
  -2  12   6 684.331 112.211  11
  -2  12   5 12146.6 541.818  11
  -2  12   5 12405.4 548.364  53
   2  12  -5 11851.9 521.145   7
   2  12  -4 11637.4 534.964   7
  -2  12   4 11637.3 521.644   7
   2  12  -3 3197.41 262.977   7
  -2  12   3 3170.98 259.625   7
   2  12  -3 3620.72 315.345   6
  -2  12   3 3121.25 306.492   6
   2  12  -2 4739.68 332.671   7
  -2  12   2 4954.24 340.745   7
   2  12  -2 5012.21 377.034   6
  -2  12   2 4854.10 388.191   6
   2  12  -1 3378.90 307.547   6
   2  12  -1 2962.89 261.005   7
  -2  12   1 2833.97 290.166   6
  -2  12   1 2834.25 261.577   7
  -2  12   0 13566.4 628.675   7
   2  12   0 14483.4 632.092   7
   2  12   0 14016.0 672.443   6
  -2  12   0 13071.1 673.772   6
  -2  12  -1 1650.84 195.294   7
   2  12   1 1772.32 214.084   6
  -2  12  -1 1631.45 209.516   6
   2  12   1 1690.60 190.426   7
  -2  12  -2 1785.68 202.736   7
  -2  12  -2 1889.34 222.759   6
   2  12   2 1958.94 219.510   6
   2  12   2 1784.17 190.533   7
   2  12   3 2389.07 211.119   7
  -2  12  -3 2023.26 214.915   7
   2  12   3 2330.24 231.677   6
   2  12   4 5638.14 321.198   7
  -2  12  -4 4974.17 333.504   7
   2  12   4 5156.98 340.992   6
  -2  12  -5 6381.79 358.485   7
   2  12   5 6724.89 371.499   6
   2  12   6 3460.66 232.120  39
   2  12   6 3435.43 233.801   6
   2  12   7 8061.69 358.679  39
  -2  13   7 3280.86 224.867   6
  -2  13   6 856.628 118.039   6
   2  13  -5 5242.44 283.919   7
  -2  13   5 5313.77 338.582   6
   2  13  -4 445.320 85.3162   7
  -2  13   4 422.931 78.4435   7
  -2  13   4 259.455 71.0914   6
   2  13  -3 1750.65 173.093   7
  -2  13   3 1502.31 187.275   6
  -2  13   3 1593.72 160.994   7
  -2  13   2 1016.04 150.661   6
   2  13  -2 920.281 124.039   7
  -2  13   2 984.449 128.577   7
   2  13  -1 24.6363 21.8560   7
   2  13  -1 53.9877 29.3680   6
  -2  13   1 110.983 71.2034   6
  -2  13   1 60.6173 14.1497   7
  -2  13   0 4047.95 287.515   7
  -2  13   0 3785.55 307.306   6
   2  13   0 4064.91 282.060   7
   2  13   0 4314.38 317.102   6
   2  13   1 6459.18 354.660   7
   2  13   1 6285.36 379.785   6
  -2  13  -1 6015.55 388.564   6
  -2  13  -1 6061.81 361.744   7
   2  13   2 533.330 93.7488   7
   2  13   2 372.082 84.9598   6
  -2  13  -2 585.342 105.076   7
   2  13   3 138.786 41.8877   6
   2  13   3 138.318 41.4679   7
  -2  13  -3 115.959 45.9750   7
   2  13   4 1399.06 130.155   7
  -2  13  -4 1534.79 155.821   7
   2  13   4 1330.42 140.713   6
   2  13   5 1173.99 116.517   6
  -2  14   4 2331.09 182.083   6
  -2  14   3 332.720 57.2296   7
   2  14  -3 405.743 70.3406   7
  -2  14   3 380.993 75.4370   6
   2  14  -2 840.565 103.964   7
  -2  14   2 743.445 109.352   6
  -2  14   2 810.597 100.022   7
   2  14  -1 2375.92 181.123   7
  -2  14   1 1897.61 161.222   7
  -2  14   1 1880.87 177.013   6
   2  14   0 4243.73 247.075   7
  -2  14   0 4289.50 255.510   7
   2  14   1 11715.0 445.001   7
  -2  14  -1 11553.3 462.274   7
   2  14   2 623.546 83.8857   7
  -2  14  -2 718.875 97.1011   7
   3 -14  -3 184.570 38.1914  31
   3 -13  -7 543.870 74.6032  31
   3 -13  -7 571.371 78.0947  60
   3 -13  -6 183.271 51.6416  31
   3 -13  -6 150.398 43.3370  43
   3 -13  -6 175.253 52.6451  60
   3 -13  -5 2040.49 176.468  31
   3 -13  -5 1782.23 151.868  43
   3 -13  -5 1753.50 155.532  60
   3 -13  -4 3972.25 248.003  43
   3 -13  -1 952.725 117.363  32
  -3 -13  -3 4706.23 277.528  50
  -3 -13  -4 4449.67 257.624  50
   3 -12  -9 6269.59 311.557  60
   3 -12  -9 6475.96 310.987  31
   3 -12  -9 6251.69 300.667  43
   3 -12  -9 6787.90 316.180  41
   3 -12  -8 6202.30 324.702  31
   3 -12  -8 5834.64 320.034  60
   3 -12  -8 5852.19 308.579  43
   3 -12  -8 5456.33 293.414  47
   3 -12  -7 2578.39 216.180  60
   3 -12  -7 2474.80 201.824  43
   3 -12  -7 2390.55 191.915  47
   3 -12  -7 3034.77 229.596  31
   3 -12  -6 3385.01 263.749  31
   3 -12  -6 3389.79 252.683  43
   3 -12  -5 617.235 96.9336  32
   3 -12  -4 7710.52 399.845  32
   3 -12  -3 14511.3 600.615  32
  -3 -12  -4 5327.37 339.094  50
  -3 -12  -5 4781.12 300.439  50
  -3 -12  -5 4332.74 259.640  41
  -3 -12  -6 12685.2 502.445  50
  -3 -12  -6 11270.9 443.547  41
  -3 -12  -7 139.562 43.3683  50
   3 -11 -11 2823.05 197.290  55
   3 -11 -11 2942.84 193.525  60
   3 -11 -10 3858.89 257.098  60
   3 -11 -10 3432.90 242.294  31
   3 -11 -10 3536.47 236.337  41
   3 -11 -10 3390.17 241.083  47
   3 -11 -10 3451.60 240.834  43
   3 -11  -9 1311.58 146.435  43
   3 -11  -9 1583.12 163.489  31
   3 -11  -9 1376.67 151.687  47
   3 -11  -9 1382.86 156.760  60
   3 -11  -8 2220.61 214.008  60
   3 -11  -8 2361.70 217.400  31
   3 -11  -8 1955.11 199.486  47
   3 -11  -8 2423.67 217.371  43
   3 -11  -7 4219.63 309.638  31
   3 -11  -7 4501.09 293.396  32
   3 -11  -7 4275.94 308.894  47
   3 -11  -7 4485.91 313.144  43
   3 -11  -7 3981.84 285.780  42
   3 -11  -6 12630.9 554.706  32
   3 -11  -6 11844.2 542.510  42
   3 -11  -6 11722.6 556.880  47
   3 -11  -5 2529.47 226.099  42
   3 -11  -5 2484.20 234.062  32
   3 -11  -5 2363.04 229.782  47
   3 -11  -4 4785.96 338.564  32
  -3 -11  -4 4185.33 295.777  41
  -3 -11  -5 10086.7 486.487  41
  -3 -11  -5 10749.8 533.836  50
  -3 -11  -6 3886.42 292.910  50
  -3 -11  -6 3356.48 250.768  41
  -3 -11  -7 5130.64 303.993  41
  -3 -11  -7 5690.41 337.847  50
  -3 -11  -8 294.397 62.1231  50
  -3 -11  -8 156.015 34.7231  41
   3 -10 -12 2153.35 176.091  55
   3 -10 -12 2023.34 166.389  33
   3 -10 -11 8245.88 412.177  47
   3 -10 -11 8065.08 375.583  41
   3 -10 -11 8382.37 407.496  60
   3 -10 -10 19423.5 750.148  47
   3 -10 -10 19460.1 734.004  43
   3 -10 -10 20560.8 739.256  41
   3 -10 -10 19666.7 730.386  31
   3 -10 -10 20837.9 764.120  60
   3 -10  -9 257.336 64.8173  43
   3 -10  -9 313.406 85.0673  47
   3 -10  -9 232.248 72.1361  60
   3 -10  -9 237.189 71.1002  31
   3 -10  -8 4915.78 355.421  47
   3 -10  -8 4485.34 325.168  42
   3 -10  -8 4674.31 340.394  31
   3 -10  -8 4800.14 321.953  32
   3 -10  -8 4900.65 346.655  43
   3 -10  -7 3203.11 265.544  32
   3 -10  -7 3173.48 277.314  43
   3 -10  -7 2990.64 264.398  42
   3 -10  -7 2899.16 268.964  47
   3 -10  -6 21810.1 864.019  47
   3 -10  -6 22655.4 847.366  32
   3 -10  -6 22596.7 855.812  42
   3 -10  -5 2878.19 258.225  42
   3 -10  -5 2780.74 256.029  32
   3 -10  -4 12286.7 582.928  42
  -3 -10  -5 2415.28 236.584  41
  -3 -10  -6 7777.73 438.586  55
  -3 -10  -6 7559.84 439.046  41
  -3 -10  -6 8220.61 483.442  50
  -3 -10  -7 500.449 100.489  50
  -3 -10  -7 567.170 101.997  55
  -3 -10  -7 467.948 96.4951  41
  -3 -10  -8 5257.91 327.084  55
  -3 -10  -8 5643.18 349.489  50
  -3 -10  -8 5071.83 320.773  41
  -3 -10  -9 5370.37 318.235  50
  -3 -10  -9 5626.33 321.882  46
   3  -9 -13 776.763 99.9141  55
   3  -9 -13 802.546 102.163  33
   3  -9 -12 1796.78 182.100  55
   3  -9 -12 1913.05 187.552  47
   3  -9 -12 1603.09 147.269  41
   3  -9 -12 1843.61 179.574  60
   3  -9 -11 840.274 121.518  58
   3  -9 -11 698.827 119.873  47
   3  -9 -11 687.428 119.150  60
   3  -9 -11 792.413 125.189  43
   3  -9 -11 762.178 113.793  41
   3  -9 -10 3205.02 282.280  60
   3  -9 -10 3397.94 300.269  47
   3  -9 -10 2925.77 268.278  31
   3  -9 -10 3069.06 278.797  43
   3  -9  -9 2991.62 267.886  31
   3  -9  -9 2866.50 266.356  43
   3  -9  -9 2932.53 279.360  47
   3  -9  -9 3167.90 276.840  42
   3  -9  -9 2943.77 253.313  32
   3  -9  -8 6727.64 431.202  31
   3  -9  -8 6927.60 434.525  42
   3  -9  -8 7357.03 463.963  47
   3  -9  -8 7010.24 422.938  32
   3  -9  -8 6879.27 438.629  43
   3  -9  -7 25830.2 928.630  32
   3  -9  -7 24904.4 961.228  47
   3  -9  -7 24789.6 937.233  42
   3  -9  -6 3738.67 303.316  32
   3  -9  -6 3866.70 309.128  40
   3  -9  -6 3494.55 300.164  42
   3  -9  -5 4878.16 346.149  42
   3  -9  -5 4812.82 341.053  32
  -3  -9  -5 15423.2 695.450  55
  -3  -9  -5 16829.0 720.966  41
  -3  -9  -6 3965.78 321.620  55
  -3  -9  -6 3519.44 299.563  41
  -3  -9  -6 4194.48 338.981  50
  -3  -9  -7 6785.36 430.941  55
  -3  -9  -7 7311.74 439.834  41
  -3  -9  -7 7517.31 459.684  50
  -3  -9  -8 2998.90 263.203  41
  -3  -9  -8 3394.10 286.979  50
  -3  -9  -8 2877.45 262.992  55
  -3  -9  -9 11145.9 532.250  55
  -3  -9  -9 11544.6 528.886  41
  -3  -9  -9 11702.5 542.652  50
  -3  -9 -10 2395.93 210.063  50
  -3  -9 -10 2172.79 193.125  46
   3  -8 -14 3497.87 216.325  33
   3  -8 -13 9569.88 423.214  58
   3  -8 -13 10248.3 460.643  33
   3  -8 -13 9832.69 449.330  55
   3  -8 -12 6553.87 385.611  60
   3  -8 -12 6958.25 387.238  58
   3  -8 -12 7266.66 421.594  47
   3  -8 -11 6886.94 418.728  60
   3  -8 -11 7217.91 444.725  47
   3  -8 -11 7153.85 426.023  43
   3  -8 -11 7351.97 405.699  41
   3  -8 -11 6894.74 410.841  31
   3  -8 -10 2553.67 242.776  31
   3  -8 -10 2505.47 260.008  47
   3  -8 -10 2528.70 247.579  43
   3  -8 -10 2664.47 260.945  60
   3  -8  -9 13605.8 643.236  31
   3  -8  -9 13639.5 668.036  47
   3  -8  -9 13453.7 641.703  42
   3  -8  -9 13959.5 653.553  43
   3  -8  -9 13855.0 625.352  32
   3  -8  -8 30275.4 1067.79  42
   3  -8  -8 29651.8 1084.72  47
   3  -8  -8 30095.6 1062.46  43
   3  -8  -8 29380.1 1050.27  31
   3  -8  -8 29280.9 1028.42  32
   3  -8  -7 7993.69 478.569  40
   3  -8  -7 8061.65 439.956  38
   3  -8  -7 8395.79 460.686  32
   3  -8  -7 7855.80 460.525  42
   3  -8  -6 1699.04 201.290  40
   3  -8  -6 1254.95 171.026  32
   3  -8  -6 1257.95 171.899  42
   3  -8  -6 1062.17 151.745  38
   3  -8  -6 1351.78 174.695  49
   3  -8  -5 28515.4 985.764  49
   3  -8  -5 30067.4 982.403  38
   3  -8  -5 28119.8 989.235  40
   3  -8  -4 55736.3 2070.70  28
   3  -8  -4 60301.5 2173.70  21
   3  -8  -3 55439.7 2069.09  21
   3  -8  -3 59091.7 2103.51  28
   3  -8  -2 51935.8 1918.00  28
   3  -8  -2 54494.9 2209.86  29
   3  -8  -1 8280.02 762.223  29
   3  -8  -1 7562.96 611.562  28
   3  -8   0 2993.46 449.495  29
   3  -8   1 9718.73 835.366  29
  -3  -8  -4 69774.0 1934.54  55
  -3  -8  -5 30708.0 1075.26  55
  -3  -8  -5 29964.2 1024.33  60
  -3  -8  -6 8303.97 502.509  50
  -3  -8  -6 8121.96 475.896  41
  -3  -8  -6 7997.13 485.064  55
  -3  -8  -6 7690.68 451.997  60
  -3  -8  -7 222.952 88.2593  50
  -3  -8  -7 146.487 56.4085  41
  -3  -8  -7 308.630 92.8022  55
  -3  -8  -8 10902.8 575.668  50
  -3  -8  -8 10498.9 568.092  55
  -3  -8  -8 10874.4 561.288  41
  -3  -8  -9 5395.56 374.992  55
  -3  -8  -9 5975.74 393.219  50
  -3  -8  -9 5655.51 374.123  41
  -3  -8  -9 5689.77 351.465  33
  -3  -8 -10 6117.62 347.582  33
  -3  -8 -10 6615.07 380.170  46
  -3  -8 -10 5960.61 375.179  55
  -3  -8 -10 6424.07 387.233  50
  -3  -8 -11 294.961 64.9472  50
  -3  -8 -11 281.992 56.4722  33
   3  -7 -14 4742.46 288.935  33
   3  -7 -14 4539.77 271.897  58
   3  -7 -13 941.442 128.805  37
   3  -7 -13 878.269 131.494  55
   3  -7 -13 933.526 135.904  47
   3  -7 -13 952.782 134.388  33
   3  -7 -13 938.577 131.059  58
   3  -7 -12 3852.99 312.977  47
   3  -7 -12 3805.68 301.958  58
   3  -7 -12 4234.24 312.825  37
   3  -7 -12 3891.57 302.407  60
   3  -7 -11 4838.40 364.537  47
   3  -7 -11 4602.42 345.129  43
   3  -7 -11 4818.44 350.749  60
   3  -7 -11 5091.46 339.482  41
   3  -7 -11 4755.63 342.245  31
   3  -7 -10 6584.00 432.722  31
   3  -7 -10 7162.72 461.461  42
   3  -7 -10 6724.68 442.142  43
   3  -7 -10 7227.26 472.758  47
   3  -7 -10 7341.53 461.477  60
   3  -7  -9 30782.0 1069.38  31
   3  -7  -9 30665.4 1050.04  32
   3  -7  -9 29667.7 1098.00  47
   3  -7  -9 29870.8 1071.89  42
   3  -7  -9 30609.6 1073.82  43
   3  -7  -8 31675.3 1092.20  42
   3  -7  -8 28858.7 1040.85  32
   3  -7  -8 30161.8 1072.14  43
   3  -7  -8 30201.8 1066.10  31
   3  -7  -7 48302.3 1407.61  32
   3  -7  -7 45051.0 1371.40  38
   3  -7  -7 47372.2 1418.91  42
   3  -7  -7 46493.5 1440.95  40
   3  -7  -6 4579.93 510.420  28
   3  -7  -6 4819.34 517.741  25
   3  -7  -5 56919.5 2037.67  25
   3  -7  -5 54269.9 2025.73  21
   3  -7  -5 53373.2 1973.61  28
   3  -7  -4 15830.6 934.054  25
   3  -7  -4 14905.5 890.824  28
   3  -7  -4 16811.6 954.968  21
   3  -7  -3 28089.5 1385.47  29
   3  -7  -3 25859.7 1188.44  28
   3  -7  -3 27046.5 1245.55  25
   3  -7  -3 24596.9 1158.38  21
   3  -7  -2 90691.9 2937.76  29
   3  -7  -2 87698.1 2660.11  28
   3  -7  -2 85887.1 2581.54  21
   3  -7  -1 29349.5 1441.42  29
   3  -7  -1 30237.9 1272.81  28
   3  -7   0 44192.5 1855.98  29
   3  -7   0 45883.3 1662.34  28
   3  -7   1 17970.0 1091.73  29
   3  -7   1 17800.7 928.629  28
   3  -7   2 37816.6 1503.18  28
  -3  -7  -2 36820.4 1466.89  30
  -3  -7  -3 10938.3 749.522  30
   3  -7   3 14155.3 969.351  29
  -3  -7  -4 29780.2 1373.23  30
  -3  -7  -5 7842.44 456.712  55
  -3  -7  -5 7273.07 419.656  60
  -3  -7  -6 4029.43 332.042  55
  -3  -7  -6 4143.14 341.555  50
  -3  -7  -6 3637.22 308.868  41
  -3  -7  -6 3759.32 304.958  60
  -3  -7  -7 3484.97 306.621  41
  -3  -7  -7 3572.94 317.757  55
  -3  -7  -7 3309.65 308.270  50
  -3  -7  -8 7173.70 465.643  55
  -3  -7  -8 7238.14 473.546  50
  -3  -7  -8 6656.13 442.163  41
  -3  -7  -9 8539.48 470.548  33
  -3  -7  -9 8733.30 498.277  41
  -3  -7  -9 9119.25 519.106  50
  -3  -7  -9 8290.46 498.397  55
  -3  -7 -10 7266.85 411.911  33
  -3  -7 -10 7486.32 447.738  55
  -3  -7 -10 7487.51 432.281  46
  -3  -7 -10 7439.98 447.450  50
  -3  -7 -11 913.657 125.245  33
  -3  -7 -11 939.602 134.167  50
  -3  -7 -12 4432.33 270.552  50
  -3  -7 -12 4126.08 246.433  33
   3  -6 -15 6078.76 307.547  37
   3  -6 -15 6397.81 317.765  33
   3  -6 -14 10374.3 482.407  33
   3  -6 -14 10109.9 476.839  37
   3  -6 -14 9502.57 462.292  58
   3  -6 -13 1941.72 207.005  33
   3  -6 -13 1827.67 199.113  58
   3  -6 -13 1890.76 206.438  47
   3  -6 -13 1771.39 190.315  55
   3  -6 -13 2050.03 214.674  37
   3  -6 -12 2714.07 266.147  47
   3  -6 -12 2793.65 256.519  60
   3  -6 -12 2873.41 269.597  58
   3  -6 -11 127.411 50.9211  31
   3  -6 -11 195.918 69.6398  43
   3  -6 -11 196.312 61.4976  60
   3  -6 -11 268.837 83.2546  47
   3  -6 -10 9301.55 523.151  31
   3  -6 -10 9468.17 537.967  42
   3  -6 -10 10190.0 563.872  47
   3  -6 -10 9764.42 543.009  43
   3  -6 -10 9975.98 540.524  60
   3  -6  -9 29278.8 1010.90  31
   3  -6  -9 28235.8 1034.18  47
   3  -6  -9 28945.5 1019.42  43
   3  -6  -9 28738.6 1021.03  42
   3  -6  -9 27862.5 991.503  32
   3  -6  -8 20931.0 810.541  42
   3  -6  -8 20723.6 804.474  43
   3  -6  -8 21932.3 846.013  40
   3  -6  -8 19816.8 772.345  38
   3  -6  -8 20937.9 797.533  32
   3  -6  -8 20807.8 798.188  31
   3  -6  -7 47662.5 1905.70  21
   3  -6  -7 50610.5 1920.13  28
   3  -6  -6 73266.0 2398.97  25
   3  -6  -6 73786.2 2457.74  21
   3  -6  -6 74666.5 2432.68  28
   3  -6  -5 103876. 2964.27  28
   3  -6  -5 102487. 2942.69  25
   3  -6  -5 94954.0 2933.16  21
   3  -6  -5 97526.8 2872.94  23
   3  -6  -4 30390.3 1171.18  23
   3  -6  -4 26649.0 1200.42  25
   3  -6  -4 28795.0 1231.17  21
   3  -6  -4 26728.6 1194.94  28
   3  -6  -3 64270.9 2066.43  28
   3  -6  -3 62096.2 2028.08  21
   3  -6  -2 186963. 4874.41  29
   3  -6  -2 177905. 4514.92  21
   3  -6  -2 183558. 4604.82  28
   3  -6  -1 5207.25 441.357  28
   3  -6  -1 5671.41 415.287  21
   3  -6  -1 5278.70 507.873  29
   3  -6   0 3835.92 372.736  28
   3  -6   0 3892.51 436.175  29
  -3  -6  -1 6638.20 468.687  30
   3  -6   1 6864.24 584.618  29
   3  -6   1 7351.71 529.019  28
   3  -6   2 38835.9 1654.82  29
  -3  -6  -2 45517.6 1544.25  30
  -3  -6  -3 60974.4 2045.29  30
   3  -6   3 67239.3 2286.23  29
   3  -6   4 3757.57 475.803  29
  -3  -6  -4 4425.02 455.513  30
  -3  -6  -5 15772.3 976.999  24
  -3  -6  -5 16968.0 992.313  30
   3  -6   5 18490.0 1104.69  29
  -3  -6  -6 36144.4 1189.87  55
  -3  -6  -6 33570.5 1125.58  60
  -3  -6  -6 34332.6 1151.97  41
  -3  -6  -6 36235.2 1198.17  50
  -3  -6  -7 42954.3 1387.01  50
  -3  -6  -7 41904.9 1352.28  41
  -3  -6  -7 42093.6 1377.57  55
  -3  -6  -8 17216.4 782.002  55
  -3  -6  -8 17877.7 778.612  41
  -3  -6  -8 18422.7 805.689  50
  -3  -6  -9 13232.0 662.077  55
  -3  -6  -9 14107.0 685.420  50
  -3  -6  -9 13061.5 648.596  41
  -3  -6  -9 14283.4 653.395  33
  -3  -6 -10 20942.6 819.910  33
  -3  -6 -10 21181.4 861.008  50
  -3  -6 -10 21272.0 836.121  46
  -3  -6 -10 20779.4 855.077  55
  -3  -6 -11 9009.18 493.046  50
  -3  -6 -11 9559.48 481.109  33
  -3  -6 -12 2396.35 217.225  50
  -3  -6 -12 2054.27 190.104  33
   3  -5 -16 11655.9 446.791  13
   3  -5 -15 1540.44 161.788  37
   3  -5 -15 1400.37 147.730  33
   3  -5 -14 4666.09 322.661  58
   3  -5 -14 4564.74 323.779  37
   3  -5 -14 4469.30 316.633  33
   3  -5 -13 882.990 142.814  58
   3  -5 -13 1028.16 156.137  33
   3  -5 -13 742.736 128.873  47
   3  -5 -13 919.713 147.233  37
   3  -5 -12 13701.0 664.364  47
   3  -5 -12 13919.4 637.814  60
   3  -5 -12 14248.4 670.543  58
   3  -5 -11 36471.7 1238.37  47
   3  -5 -11 37001.9 1207.26  60
   3  -5 -11 36306.1 1223.41  43
   3  -5 -10 2108.40 234.870  31
   3  -5 -10 2061.90 235.461  47
   3  -5 -10 1699.82 212.553  42
   3  -5 -10 2055.19 235.388  43
   3  -5 -10 2067.61 228.283  60
   3  -5  -9 23158.0 853.592  32
   3  -5  -9 22005.2 856.798  42
   3  -5  -9 23339.0 863.927  43
   3  -5  -9 22887.1 873.676  47
   3  -5  -9 23906.6 861.497  31
   3  -5  -9 22585.5 881.811  40
   3  -5  -8 90057.9 2905.40  28
   3  -5  -8 93553.2 2943.46  21
   3  -5  -7 16721.0 947.699  28
   3  -5  -7 16210.7 944.152  21
   3  -5  -6 86282.9 2664.02  28
   3  -5  -6 83134.6 2596.97  25
   3  -5  -5 48731.5 1725.47  21
   3  -5  -5 51017.6 1706.41  25
   3  -5  -5 50018.7 1699.80  23
   3  -5  -5 51704.9 1745.66  28
   3  -5  -4 71632.0 2202.30  28
   3  -5  -4 71998.6 2188.71  25
   3  -5  -4 76916.3 2168.81  23
   3  -5  -4 74851.1 2233.95  21
   3  -5  -3 41820.7 1449.23  28
   3  -5  -3 39193.2 1405.38  21
   3  -5  -2 14112.3 672.030  21
   3  -5  -2 11862.5 649.305  28
   3  -5  -1 19590.3 957.505  29
   3  -5  -1 20001.7 871.843  28
   3  -5  -1 18933.6 783.819  21
   3  -5   0 36911.0 1436.80  29
  -3  -5   0 41438.6 1252.64  30
   3  -5   0 37303.9 1257.11  26
   3  -5   0 39831.4 1248.27   9
   3  -5   0 37114.7 1334.52  28
   3  -5   1 18408.1 795.988  26
   3  -5   1 17976.4 912.641  29
   3  -5   1 17709.6 793.261   9
  -3  -5  -1 17347.5 763.263  30
   3  -5   2 12883.4 677.298  26
   3  -5   2 12010.7 690.431   9
   3  -5   2 13014.2 778.444  29
  -3  -5  -2 14066.5 702.690  30
  -3  -5  -3 78994.9 2406.00  30
   3  -5   3 89383.1 2624.66  29
   3  -5   4 7460.28 605.031  29
  -3  -5  -4 6822.00 541.210  30
  -3  -5  -5 32750.3 1408.73  30
  -3  -5  -5 29484.7 1343.96  24
   3  -5   5 33085.2 1468.63  29
  -3  -5  -6 25976.3 1272.13  24
  -3  -5  -6 28577.9 1360.41  30
  -3  -5  -7 10819.9 554.398  41
  -3  -5  -7 11129.1 580.248  50
  -3  -5  -7 10477.9 555.164  55
  -3  -5  -8 31220.7 1113.48  41
  -3  -5  -8 32348.0 1150.24  50
  -3  -5  -8 30312.1 1113.83  55
  -3  -5  -8 30859.4 1083.11  33
  -3  -5  -9 8332.19 502.266  46
  -3  -5  -9 8021.94 497.065  55
  -3  -5  -9 8206.43 484.091  33
  -3  -5  -9 8240.52 509.143  50
  -3  -5  -9 8106.53 496.104  41
  -3  -5 -10 1972.09 217.194  33
  -3  -5 -10 1926.19 237.293  50
  -3  -5 -10 1914.05 224.516  46
  -3  -5 -10 1650.10 212.627  55
  -3  -5 -11 15480.4 705.878  50
  -3  -5 -11 15861.4 685.000  33
  -3  -5 -12 8108.96 443.085  50
  -3  -5 -12 7889.39 428.319  33
  -3  -5 -13 1269.13 138.932  50
  -3  -5 -13 1407.63 145.370  33
   3  -4 -16 159.164 50.4439  13
   3  -4 -15 2078.73 203.616  37
   3  -4 -15 2129.36 196.281  33
   3  -4 -14 2526.32 245.718  58
   3  -4 -14 2683.85 258.576  37
   3  -4 -14 2665.43 245.660  33
   3  -4 -13 13179.1 644.183  58
   3  -4 -13 13060.6 653.426  37
   3  -4 -13 13445.7 643.145  33
   3  -4 -12 19687.1 824.716  47
   3  -4 -12 20255.0 847.111  33
   3  -4 -12 20112.1 846.645  58
   3  -4 -11 5982.99 395.532  47
   3  -4 -11 5743.71 376.611   3
   3  -4 -10 77641.3 2112.56  47
   3  -4 -10 78789.4 2117.49  43
   3  -4 -10 78135.4 2095.66  31
   3  -4 -10 75339.5 2068.49  60
   3  -4  -8 35914.8 1507.86  28
   3  -4  -8 35388.1 1405.73   2
   3  -4  -8 35767.5 1424.72  30
   3  -4  -7 39176.9 1508.65  28
   3  -4  -7 37998.5 1380.77   2
   3  -4  -7 36710.9 1471.19  21
   3  -4  -6 39533.1 1401.71  25
   3  -4  -6 40589.8 1473.43  28
   3  -4  -6 39699.4 1349.28   2
   3  -4  -6 39553.5 1471.65  21
   3  -4  -5 76744.6 2244.27  28
   3  -4  -5 72560.2 2221.21  21
   3  -4  -5 78141.2 2192.12  25
   3  -4  -4 305402. 7243.62  25
   3  -4  -4 315715. 7317.79  28
   3  -4  -4 330559. 7341.09  21
  -3  -4   3 196896. 4707.98  24
   3  -4  -3 194315. 4821.31  21
   3  -4  -3 208708. 4891.99  28
  -3  -4   3 203455. 4659.10  19
   3  -4  -2 93080.4 2683.80  29
   3  -4  -2 100794. 2375.84   1
   3  -4  -2 96972.3 2566.33  28
   3  -4  -2 92843.0 2492.96  21
   3  -4  -1 62159.8 1711.31  26
   3  -4  -1 58059.1 1847.37  29
   3  -4  -1 59319.8 1755.68  28
   3  -4  -1 61622.1 1653.14   9
  -3  -4   1 59789.8 1561.21  30
   3  -4   0 233139. 5736.16  29
   3  -4   0 242213. 5584.00  26
   3  -4   0 235342. 5562.32   9
  -3  -4   0 251655. 5492.93  30
   3  -4   1 44526.9 1390.49  26
   3  -4   1 43194.0 1395.30   9
   3  -4   2 52436.5 1706.29  29
  -3  -4  -2 52424.5 1598.05  30
   3  -4   3 149983. 3710.22  29
  -3  -4  -3 129084. 3508.16  30
  -3  -4  -4 66868.9 1968.94  24
  -3  -4  -4 71238.0 1989.38  30
  -3  -4  -5 8432.13 610.853  24
  -3  -4  -5 8953.25 647.081  30
   3  -4   5 8879.23 656.095  17
   3  -4   5 9004.22 639.209  27
   3  -4   6 29512.1 1321.67  27
  -3  -4  -6 25400.7 1254.19  30
   3  -4   6 27987.8 1327.39  17
  -3  -4  -6 24208.4 1177.19  24
   3  -4   7 12005.6 842.046  27
  -3  -4  -7 11477.3 570.437  55
  -3  -4  -7 11495.2 565.181  41
   3  -4   7 11034.5 840.968  17
  -3  -4  -7 11902.6 593.450  50
  -3  -4  -8 32147.7 1126.59  55
  -3  -4  -8 33521.7 1171.20  50
  -3  -4  -8 31232.3 1089.05  33
  -3  -4  -8 30642.8 1110.99  41
  -3  -4  -9 6456.81 432.246  46
  -3  -4  -9 5274.99 406.246  50
  -3  -4  -9 5600.96 391.111  33
  -3  -4  -9 5096.87 385.384  41
  -3  -4  -9 5214.96 389.614  55
  -3  -4 -10 14415.0 693.573  33
  -3  -4 -10 14424.5 703.813  55
  -3  -4 -10 16248.7 768.090  50
  -3  -4 -11 18731.3 811.602  50
  -3  -4 -11 18257.5 780.625  33
  -3  -4 -12 6942.98 424.335  50
  -3  -4 -12 6734.16 408.930  33
  -3  -4 -13 59.2698 35.1377  33
  -3  -4 -13 90.8395 41.2626  50
   3  -3 -16 4035.48 268.189  13
   3  -3 -16 3470.70 224.985  33
   3  -3 -15 9999.14 511.251  37
   3  -3 -15 10286.4 492.952  33
   3  -3 -14 4489.90 352.081  37
   3  -3 -14 4300.86 330.404  33
   3  -3 -14 4344.27 342.182  58
   3  -3 -13 5905.43 409.484  33
   3  -3 -13 5530.15 414.531  37
   3  -3 -13 5836.74 416.339  58
   3  -3 -12 54460.9 1707.93  58
   3  -3 -12 56818.4 1692.69   3
   3  -3 -12 56282.3 1678.14  47
   3  -3 -12 58646.8 1726.72  33
   3  -3 -11 16658.8 725.771  47
   3  -3 -11 16336.2 719.419   3
   3  -3 -11 17712.4 770.630  58
   3  -3 -10 73994.6 2007.48  43
   3  -3 -10 71433.1 2501.06   2
   3  -3  -9 28653.7 1304.63   2
   3  -3  -8 14292.1 777.653  30
   3  -3  -8 13583.2 796.730   2
   3  -3  -8 13656.3 832.236  28
   3  -3  -7 49896.4 1658.29   2
   3  -3  -7 49045.7 1715.69  28
   3  -3  -6 299572. 6987.01  28
   3  -3  -6 300621. 6879.44  25
   3  -3  -6 294302. 6900.24   2
   3  -3  -5 288526. 6564.79  25
   3  -3  -5 279475. 6648.09  21
   3  -3  -5 292333. 6667.62  28
  -3  -3   4 39864.1 1076.23  24
   3  -3  -4 36266.9 1182.58  25
   3  -3  -4 38686.1 1107.48  15
   3  -3  -4 34925.6 1224.79  21
   3  -3  -4 35979.2 1233.86  28
  -3  -3   3 19108.9 687.905  24
   3  -3  -3 20387.7 727.259   1
   3  -3  -3 18095.1 754.367  21
   3  -3  -3 19039.7 777.894  28
  -3  -3   3 18173.7 692.739  19
  -3  -3   2 207789. 4810.59  19
   3  -3  -2 204864. 4926.19  28
  -3  -3   2 214674. 4871.29  24
  -3  -3   2 218091. 4617.68  30
   3  -3  -2 217460. 4821.50   1
   3  -3  -1 44665.2 1419.65  29
   3  -3  -1 45227.2 1327.91  26
   3  -3  -1 47201.3 1309.87   9
  -3  -3   1 43627.4 1160.62  30
  -3  -3   0 8175.64 382.450  30
   3  -3   0 7620.95 426.674  26
   3  -3   0 7629.97 456.813  29
   3  -3   0 8001.32 438.526   9
   3  -3   1 27119.1 964.438  29
   3  -3   1 26285.1 955.019   9
   3  -3   2 82183.9 2217.53  29
  -3  -3  -2 76345.0 2178.22  24
  -3  -3  -2 78168.3 2122.33  30
  -3  -3  -3 98689.0 2709.15  24
  -3  -3  -3 94455.7 2669.31  30
  -3  -3  -4 127132. 2863.89  30
  -3  -3  -4 129844. 2846.87  24
  -3  -3  -5 12689.6 755.643  30
  -3  -3  -5 12677.6 723.243  24
   3  -3   5 12379.0 763.988  17
   3  -3   5 12989.4 767.189  27
  -3  -3  -6 80933.9 2625.17  30
   3  -3   6 83425.2 2677.04  17
   3  -3   6 87558.9 2673.80  27
  -3  -3  -6 82870.7 2534.49  24
   3  -3   7 42800.4 1760.20  27
   3  -3   7 43259.8 1807.34  17
  -3  -3  -8 25626.9 969.444  46
  -3  -3  -8 24934.8 930.454  33
  -3  -3  -8 24153.2 939.933  41
  -3  -3  -8 25465.9 951.984  55
  -3  -3  -8 25595.0 987.921  50
  -3  -3  -9 5376.01 408.729  50
  -3  -3  -9 4994.68 377.193  55
  -3  -3  -9 5154.69 380.561  33
  -3  -3 -10 44176.9 1466.57  50
  -3  -3 -10 41838.6 1395.59  33
  -3  -3 -11 14079.7 699.373  50
  -3  -3 -11 13833.1 672.897  33
  -3  -3 -12 7162.82 437.256  33
  -3  -3 -12 6786.79 437.505  50
  -3  -3 -13 1897.84 194.878  33
  -3  -3 -13 1688.76 186.318  50
  -3  -3 -14 3234.58 221.463  33
   3  -2 -16 2907.86 236.473  13
   3  -2 -15 4206.16 321.671  37
   3  -2 -15 4386.50 310.566  33
   3  -2 -14 4655.30 368.451  37
   3  -2 -14 4724.25 352.076  33
   3  -2 -14 4386.89 356.369  58
   3  -2 -13 23787.7 935.222  33
   3  -2 -13 22194.7 934.458  37
   3  -2 -13 22516.5 933.399  58
   3  -2 -12 55434.5 1693.48   3
   3  -2 -12 58127.9 1731.68  33
   3  -2 -12 56208.4 1740.48  58
   3  -2 -11 44675.6 1422.45   3
   3  -2 -11 45265.3 1405.01  52
   3  -2 -11 45952.4 1468.46  58
   3  -2 -11 46735.8 1454.73  33
   3  -2 -10 68075.1 2394.01   2
   3  -2  -9 1838.81 302.285   2
   3  -2  -8 9967.01 665.332   2
   3  -2  -7 1920.42 230.820  30
   3  -2  -7 1706.73 237.460   2
   3  -2  -6 58655.3 1799.00  28
   3  -2  -5 344348. 7714.71  25
   3  -2  -5 342380. 7824.58  28
   3  -2  -5 350791. 7657.55  15
   3  -2  -4 124072. 3043.34  28
   3  -2  -4 122625. 2933.79  25
   3  -2  -4 120168. 2915.15  15
   3  -2  -3 99603.5 2508.32  28
  -3  -2   3 99189.7 2386.15  24
   3  -2  -3 100787. 2473.62   1
   3  -2  -2 128746. 3111.45  28
  -3  -2   2 127905. 3065.69  19
  -3  -2   1 245367. 5541.55  24
  -3  -2   1 241003. 5352.91  30
   3  -2  -1 254904. 5558.42   9
   3  -2  -1 255109. 5571.33  26
   3  -2  -1 246027. 5608.50  29
   3  -2   0 182358. 4360.33  29
   3  -2   0 181764. 4362.52  26
   3  -2   0 179982. 4374.49   9
  -3  -2   0 193102. 4391.81  24
   3  -2   1 53892.3 1477.66  29
  -3  -2  -1 48174.4 1474.08  24
   3  -2   1 54909.2 1548.16   9
  -3  -2  -1 49835.6 1409.63  30
  -3  -2  -2 57408.9 1571.49  24
  -3  -2  -2 55247.8 1517.45  30
  -3  -2  -3 50653.9 1611.36  24
  -3  -2  -3 50801.6 1618.34  30
   3  -2   3 55130.4 1685.06  17
  -3  -2  -4 103786. 2742.79  30
   3  -2   4 93161.1 2716.74  17
   3  -2   4 91916.2 2681.47  27
  -3  -2  -4 104955. 2709.19  24
  -3  -2  -5 73906.6 2292.81  30
   3  -2   5 72660.7 2308.20  17
   3  -2   5 77800.1 2321.37  27
  -3  -2  -5 75657.9 2226.65  24
   3  -2   6 47092.8 1849.55  27
   3  -2   6 51073.5 1927.87  17
   3  -2   7 40567.7 1658.53  17
   3  -2   7 41510.3 1642.07  27
  -3  -2  -8 24598.8 924.934  55
  -3  -2  -8 25507.9 981.572  50
  -3  -2  -8 24216.4 915.094  33
  -3  -2  -9 10182.3 586.265  50
  -3  -2  -9 9945.64 553.362  33
  -3  -2  -9 9590.06 538.680  55
  -3  -2 -10 12958.4 704.756  50
  -3  -2 -10 11773.1 636.264  33
  -3  -2 -11 14689.3 734.348  50
  -3  -2 -11 14487.6 707.572  33
  -3  -2 -12 7370.56 469.802  50
  -3  -2 -12 7722.29 472.616  33
  -3  -2 -13 3464.82 273.681  50
  -3  -2 -13 3300.40 272.266  33
  -3  -2 -14 487.767 86.0438  33
   3  -1 -17 1859.83 154.282  13
   3  -1 -16 5829.50 354.589  13
   3  -1 -15 2578.88 258.096  13
   3  -1 -15 2364.88 244.384  37
   3  -1 -15 2340.28 223.868  33
   3  -1 -14 4097.62 346.820  33
   3  -1 -14 4588.38 377.934  37
   3  -1 -13 7501.37 464.515  52
   3  -1 -13 7297.80 491.170  58
   3  -1 -13 7671.14 481.836  33
   3  -1 -13 7572.48 499.542  37
   3  -1 -12 45395.5 1390.58   3
   3  -1 -12 45445.7 1429.31  37
   3  -1 -12 45694.5 1372.73  52
   3  -1 -12 45412.0 1435.49  58
   3  -1 -11 30909.7 1086.14   3
   3  -1 -11 29732.8 1108.13  58
   3  -1 -11 31405.9 1096.46  33
   3  -1 -11 29900.1 1073.09  52
   3  -1 -10 20374.3 1135.49   2
   3  -1  -9 9377.67 680.891   2
   3  -1  -8 44976.3 1632.00   2
   3  -1  -7 3949.41 363.114  28
   3  -1  -7 3876.59 361.119   2
   3  -1  -6 90823.7 2314.21  30
   3  -1  -6 88365.0 2449.85  28
   3  -1  -6 93405.4 2359.92  15
   3  -1  -5 26920.8 966.970  28
   3  -1  -5 29385.8 940.061  15
   3  -1  -4 111727. 2620.14  25
   3  -1  -4 110403. 2746.46  28
   3  -1  -4 111387. 2792.56   1
   3  -1  -4 114639. 2744.23  15
   3  -1  -3 170001. 4018.42  28
   3  -1  -3 172430. 4055.04   1
   3  -1  -3 183543. 4072.48  15
   3  -1  -2 102195. 2364.33  28
  -3  -1   2 106775. 2404.39  19
   3  -1  -1 358536. 7644.09  26
  -3  -1   1 329902. 7607.75  19
   3  -1  -1 368480. 7664.91   9
   3  -1  -1 348523. 7626.72  29
  -3  -1   1 330193. 7603.79  24
   3  -1   1 202607. 4406.10  29
   3  -1   1 194462. 4540.30   9
   3  -1   1 197416. 4274.07  14
   3  -1   2 176046. 4508.66  27
   3  -1   2 181088. 4258.27  14
  -3  -1  -3 1536.76 197.055  24
   3  -1   3 1628.72 209.490  27
   3  -1   4 28735.4 1090.54  27
  -3  -1  -4 26828.1 1034.79  24
   3  -1   4 26748.0 1083.62  17
   3  -1   5 29392.7 1226.55  17
   3  -1   5 33585.9 1279.45  27
   3  -1   6 73707.5 2315.16  27
   3  -1   6 69914.2 2304.11  17
   3  -1   7 14058.1 876.206  27
   3  -1   7 13058.1 855.869  17
   3  -1   8 25986.6 1327.87  17
  -3  -1  -8 22955.8 1204.91  20
  -3  -1  -9 10778.9 621.990  50
  -3  -1  -9 11321.5 603.925  33
  -3  -1 -10 6076.03 468.644  50
  -3  -1 -10 5256.25 413.997  33
  -3  -1 -11 1226.87 190.520  33
  -3  -1 -11 1061.24 175.786  50
  -3  -1 -12 5199.05 404.859  50
  -3  -1 -12 4557.85 371.237  33
  -3  -1 -13 8339.00 463.136  50
  -3  -1 -13 8703.34 477.036  33
  -3  -1 -14 2917.22 226.258  33
   3   0 -17 2720.45 190.994  13
   3   0 -16 1719.26 201.555  13
   3   0 -15 868.309 145.730  13
   3   0 -15 794.142 136.257  37
   3   0 -14 9119.67 557.464  13
   3   0 -14 8649.62 530.151  37
   3   0 -14 8296.69 489.248  52
   3   0 -13 4298.90 351.453  33
   3   0 -13 4494.70 379.246  37
   3   0 -13 4475.26 358.937  52
   3   0 -13 4444.84 358.533   3
   3   0 -12 5687.05 436.450  58
   3   0 -12 5900.95 432.871  37
   3   0 -12 6386.25 430.276   3
   3   0 -12 6265.35 433.379  52
   3   0 -11 56168.2 1686.56   3
   3   0 -11 58334.7 1721.99  52
   3   0 -11 58324.4 1740.62  37
   3   0 -11 55734.1 1730.68  58
   3   0 -10 17887.9 1050.36   2
   3   0  -9 2743.50 357.163   2
   3   0  -8 7793.14 502.743  15
   3   0  -8 6616.40 524.793   2
   3   0  -7 3226.83 326.386   2
   3   0  -7 3212.70 296.518  15
   3   0  -6 134242. 3274.95  28
   3   0  -6 125885. 3239.88  15
   3   0  -5 37565.9 1016.00  30
   3   0  -5 39259.7 1194.12  28
   3   0  -5 41555.0 1239.83  15
   3   0  -4 247117. 5705.03   1
   3   0  -4 251923. 5668.45  15
   3   0  -4 249132. 5586.32  28
   3   0  -3 340575. 7454.07  28
   3   0  -3 340979. 7555.45   1
   3   0  -3 342316. 7574.72  15
   3   0  -2 403275. 8720.36  28
   3   0  -1 119332. 2934.88   9
   3   0  -1 118409. 2898.65  26
   3   0   0 322306. 6902.10  29
   3   0   0 309926. 7082.70   9
   3   0   0 320413. 6968.07  14
   3   0   1 962685. 20676.6   9
   3   0   2 24089.3 761.560  14
   3   0   2 23691.8 852.066  27
   3   0   3 45185.7 1426.39  27
   3   0   3 47809.9 1309.94  14
   3   0   4 184547. 4550.54  27
   3   0   4 173548. 4531.88  17
   3   0   5 32926.9 1249.99  27
   3   0   5 30499.8 1224.63  17
   3   0   6 130319. 3592.67  17
   3   0   6 131301. 3587.65  27
   3   0   7 231652. 5741.00  27
   3   0   7 215663. 5681.65  17
   3   0   8 46788.5 1847.32  27
   3   0   8 44844.5 1819.60  17
  -3   0  -9 18097.9 858.336  50
  -3   0  -9 20548.7 856.433  33
  -3   0 -10 9125.31 581.212  50
  -3   0 -10 8947.59 549.801  33
  -3   0 -11 10284.6 612.671  50
  -3   0 -11 10119.7 591.941  33
  -3   0 -12 11283.1 622.595  50
  -3   0 -12 12503.1 641.359  33
  -3   0 -13 505.556 101.046  50
  -3   0 -13 741.900 133.037  33
  -3   0 -14 283.031 71.0145  33
   3   1 -17 1787.10 153.989  13
   3   1 -16 5918.04 361.239  13
   3   1 -15 1918.68 228.078  13
   3   1 -14 5171.22 407.198  37
   3   1 -14 3888.16 373.183  13
   3   1 -14 4677.14 370.299  52
   3   1 -13 8102.35 539.916  13
   3   1 -13 7192.58 492.083  37
   3   1 -13 8023.78 502.863  52
   3   1 -12 45547.4 1521.95  37
   3   1 -12 45568.7 1468.88   3
   3   1 -12 46145.9 1503.48  52
   3   1 -11 27621.2 1030.01  52
   3   1 -11 27025.6 995.571   3
   3   1 -11 26471.3 1020.63  37
   3   1 -11 26146.9 1035.26  58
   3   1 -10 20253.8 1133.88   2
   3   1  -9 8879.57 663.936   2
   3   1  -8 41469.5 1550.88   2
   3   1  -8 41790.0 1481.67  15
   3   1  -7 6104.50 463.040   2
   3   1  -7 5971.37 442.122  15
   3   1  -6 80264.6 2247.53  15
   3   1  -5 29628.4 1051.17  15
   3   1  -4 100465. 2424.06  28
   3   1  -4 105234. 2626.29  15
   3   1  -4 103172. 2597.68   1
   3   1  -3 172976. 3812.07  28
   3   1  -3 171874. 3991.50   1
   3   1  -3 170875. 4035.09  15
   3   1  -2 107299. 2391.55  28
  -3   1   2 101169. 2546.06  19
   3   1  -2 105864. 2619.36  15
  -3   1   1 369444. 8323.83  19
   3   1  -1 381943. 8273.14  26
   3   1  -1 380834. 8338.92   9
   3   1  -1 374432. 8379.41  15
   3   1  -1 389090. 8303.75  14
   3   1   1 215706. 4785.91  14
   3   1   1 205166. 4851.07   9
   3   1   2 167935. 4022.46  27
   3   1   2 176223. 4016.84  14
   3   1   3 862.124 139.105  27
   3   1   3 1311.93 161.929  14
   3   1   4 32237.9 1156.17  27
   3   1   4 32535.0 1105.08  14
   3   1   5 31151.2 1112.65  14
   3   1   5 29170.3 1161.65  17
   3   1   5 29339.8 1165.32  27
   3   1   6 77127.3 2367.49  27
   3   1   6 75536.6 2346.69  17
   3   1   7 11405.7 764.846  27
   3   1   7 11492.6 760.546  17
   3   1   8 28351.7 1358.18  27
  -3   1  -8 26180.3 1346.54  20
  -3   1  -9 11404.8 653.982  50
  -3   1  -9 11954.1 637.099  33
  -3   1 -10 6798.48 507.554  50
  -3   1 -10 6113.49 460.616  33
  -3   1 -11 1673.65 230.986  33
  -3   1 -11 1507.14 222.347  50
  -3   1 -12 4461.03 376.796  50
  -3   1 -12 3950.37 352.423  33
  -3   1 -13 9853.72 522.904  33
  -3   1 -13 8921.26 489.526  50
  -3   1 -14 3022.78 223.941  36
  -3   1 -14 3328.55 249.031  33
   3   2 -16 2849.29 239.210  13
   3   2 -15 4007.39 334.895  13
   3   2 -14 4268.40 367.828  13
   3   2 -14 4065.43 308.140  48
   3   2 -13 21491.3 925.686  52
   3   2 -13 23022.1 982.419  13
   3   2 -13 21176.3 918.628  37
   3   2 -12 51514.7 1718.78  13
   3   2 -12 54440.0 1646.42   3
   3   2 -12 53470.0 1696.81  52
   3   2 -12 53361.1 1682.14  37
   3   2 -11 46558.3 1453.44   3
   3   2 -11 49189.4 1559.11  13
   3   2 -11 43800.1 1464.74  37
   3   2 -11 46012.0 1507.89  52
   3   2 -10 72204.2 2508.74   2
   3   2  -9 517.506 142.263  15
   3   2  -9 1203.44 240.587   2
   3   2  -8 9721.31 660.369   2
   3   2  -8 9714.52 651.185  15
   3   2  -7 3630.99 353.696   2
   3   2  -7 3627.81 362.409  15
   3   2  -6 59785.1 1854.84  15
   3   2  -5 364799. 8291.16  15
   3   2  -4 129397. 3266.01  15
   3   2  -3 100606. 2509.28   1
   3   2  -3 101383. 2597.17  15
  -3   2   2 126797. 2984.15  19
   3   2  -2 126708. 3065.53  15
   3   2  -2 127797. 3011.69  14
   3   2  -1 243558. 5575.13  15
   3   2  -1 269021. 5566.73  14
   3   2   0 188326. 4241.55  26
   3   2   0 183813. 4331.36   9
   3   2   0 195019. 4170.81  18
   3   2   0 186532. 4360.67  14
   3   2   0 183347. 4362.98  15
  -3   2   0 196995. 4170.84  18
   3   2   1 55385.4 1524.25   9
   3   2   1 53208.9 1524.64  14
   3   2   2 49208.8 1427.49  14
   3   2   2 47648.8 1349.49  27
   3   2   2 45054.9 1391.56   9
   3   2   3 57920.1 1687.93  14
   3   2   3 56790.7 1629.14  27
   3   2   4 87548.6 2393.88  27
   3   2   4 89226.2 2438.85  14
   3   2   5 80515.5 2284.41  14
   3   2   5 75307.2 2247.92  27
   3   2   6 55377.0 1870.19  27
   3   2   6 55657.8 1839.31  14
   3   2   7 42297.0 1635.98  27
  -3   2  -8 22066.8 950.433  50
   3   2   8 23426.3 1196.67  27
  -3   2  -8 22560.7 912.845  33
  -3   2  -9 8765.85 545.728  33
  -3   2  -9 9586.07 592.164  50
  -3   2 -10 12692.2 720.988  50
  -3   2 -10 11905.1 672.007  33
  -3   2 -11 16958.6 833.728  50
  -3   2 -11 17328.3 825.820  33
  -3   2 -12 7624.84 491.634  50
  -3   2 -12 7609.25 491.496  33
  -3   2 -13 3067.97 259.563  50
  -3   2 -13 3139.31 277.897  33
  -3   2 -14 724.407 101.208  12
  -3   2 -14 618.011 95.6631  36
  -3   2 -14 926.036 126.094  33
   3   3 -16 3741.80 265.514  13
   3   3 -16 3445.57 223.427  12
   3   3 -15 10931.0 564.203  13
   3   3 -14 4595.08 381.762  13
   3   3 -14 4558.27 331.535  48
   3   3 -13 6026.60 454.125  13
   3   3 -13 5861.84 402.291  48
   3   3 -12 50054.2 1700.18  13
   3   3 -12 52352.2 1662.62  37
   3   3 -12 53813.9 1634.79   3
   3   3 -12 54983.2 1717.08  52
   3   3 -11 16016.7 771.888  13
   3   3 -11 15551.1 697.431   3
   3   3 -11 15650.6 756.772  52
   3   3 -11 14247.8 698.653  37
   3   3 -11 15861.2 702.303  34
   3   3 -10 71054.4 1974.55  52
   3   3 -10 62760.7 1912.43  13
   3   3 -10 64499.3 2321.37  15
   3   3 -10 67800.9 2397.63   2
   3   3 -10 65885.9 1860.38  34
   3   3  -9 25656.0 1236.48   2
   3   3  -9 25743.8 1245.17  15
   3   3  -8 13183.0 791.640   2
   3   3  -8 13506.6 822.932  15
   3   3  -7 49574.0 1671.00   2
   3   3  -7 50739.5 1766.77  15
   3   3  -6 287808. 6746.28   2
   3   3  -6 292491. 6891.56  15
   3   3  -5 295890. 6934.90  15
   3   3  -4 27455.7 1055.65  15
   3   3  -3 11280.9 515.962   1
  -3   3   3 12068.9 522.984  19
   3   3  -3 10679.8 569.699  15
   3   3  -3 10830.5 529.899  14
   3   3  -2 198726. 4517.14   1
  -3   3   2 193337. 4519.38  19
   3   3  -2 195773. 4642.73  15
   3   3  -2 198929. 4589.01  14
   3   3  -1 47638.6 1375.99  14
  -3   3   1 46415.3 1299.72  18
   3   3  -1 44620.9 1358.79  15
   3   3   0 7425.48 428.000  14
   3   3   0 7802.29 328.233  26
   3   3   0 7418.74 365.577  18
  -3   3   0 8296.11 379.837  18
   3   3   0 8128.41 420.823  15
   3   3   1 24481.3 914.492  14
   3   3   1 25473.1 842.177   9
   3   3   1 24738.5 806.063  18
   3   3   1 23888.2 827.037  15
   3   3   2 93796.9 2321.18  27
   3   3   2 97432.5 2414.10   9
   3   3   2 92586.6 2316.09  15
   3   3   2 90142.8 2483.41  14
   3   3   3 109451. 2718.79  27
   3   3   3 113288. 2802.97   9
   3   3   4 67307.7 1860.28  27
   3   3   4 71297.4 2016.49  14
   3   3   5 9638.19 580.315  27
   3   3   5 9920.01 639.590  14
   3   3   6 87835.0 2557.18  27
   3   3   6 85546.6 2630.08  14
   3   3   7 45600.7 1750.46  14
   3   3   7 47325.6 1731.72  27
  -3   3  -8 27632.0 1097.41  50
   3   3   8 26702.7 936.951  39
  -3   3  -8 28134.5 1058.84  33
  -3   3  -9 4392.75 394.759  50
  -3   3  -9 5331.45 415.760  33
  -3   3 -10 40749.5 1432.82  33
  -3   3 -10 40517.8 1468.33  50
  -3   3 -11 13120.5 710.492  50
  -3   3 -11 13622.4 711.199  33
  -3   3 -12 6762.78 456.872  50
  -3   3 -12 7290.22 477.120  33
  -3   3 -13 1738.21 197.915  36
  -3   3 -13 1790.20 185.316  12
  -3   3 -13 1890.03 206.401  33
  -3   3 -14 3077.32 212.961  12
  -3   3 -14 3707.75 254.043  33
   3   4 -16 208.499 64.7660  13
   3   4 -15 2059.94 192.973  12
   3   4 -15 2247.52 201.014  48
   3   4 -15 2231.21 223.571  13
   3   4 -14 2402.63 262.004  13
   3   4 -14 2265.61 230.571  12
   3   4 -14 2304.68 230.902  48
   3   4 -13 12510.4 632.499  48
   3   4 -13 13186.9 699.078  13
   3   4 -12 19152.8 842.452  48
   3   4 -12 19329.4 891.866  13
   3   4 -11 5834.12 436.942  52
   3   4 -11 6668.68 466.717  13
   3   4 -10 67905.6 1990.01  52
   3   4 -10 63654.2 1859.83   3
   3   4 -10 70745.8 1943.61  34
   3   4 -10 67419.4 1972.66  13
   3   4  -9 97494.2 3047.71  15
   3   4  -9 92459.6 2923.71   2
   3   4  -8 36305.7 1453.25   2
   3   4  -8 36017.2 1544.96  15
   3   4  -7 39647.1 1435.47   2
   3   4  -7 39106.5 1564.79  15
   3   4  -6 41185.1 1399.04   2
   3   4  -6 40578.2 1550.53  15
   3   4  -5 75917.6 2309.98  15
   3   4  -4 318981. 7431.91  15
   3   4  -3 183787. 4635.71  15
   3   4  -3 192055. 4549.75  14
  -3   4   3 195280. 4445.17  19
   3   4  -2 90625.5 2281.99   1
   3   4  -2 90575.5 2456.68  15
   3   4  -2 92443.6 2407.71  14
  -3   4   1 55029.4 1600.72  18
   3   4  -1 53718.7 1601.81  15
   3   4  -1 56543.8 1638.55  14
   3   4   0 234800. 5690.80  14
   3   4   0 246769. 5589.11  18
  -3   4   0 245962. 5604.98  18
   3   4   0 249011. 5611.66  15
   3   4   1 43637.8 1450.77  14
   3   4   1 45873.3 1365.76  18
   3   4   1 45362.4 1301.31  15
   3   4   2 56263.1 1762.39  14
   3   4   3 142551. 3713.41  14
  -3   4  -4 58283.5 1730.77  22
   3   4   4 41538.1 1628.59  14
   3   4   5 9037.54 644.256  14
   3   4   6 27288.5 1273.01  14
  -3   4  -7 10550.7 601.189  50
   3   4   7 12251.9 832.911  14
  -3   4  -7 11364.0 592.768  33
  -3   4  -8 30281.1 1133.87  50
  -3   4  -8 31371.7 1097.52  33
   3   4   9 6417.00 400.442  39
  -3   4  -9 5444.35 458.136  50
  -3   4  -9 5746.50 446.171  33
  -3   4 -10 15721.1 820.297  50
  -3   4 -10 15735.9 797.188  33
  -3   4 -11 19816.0 888.915  33
  -3   4 -12 7497.69 449.695  12
  -3   4 -12 6679.89 454.698  36
  -3   4 -12 7535.05 484.003  33
  -3   4 -13 148.792 52.1591  12
  -3   4 -13 177.368 55.6595  33
  -3   4 -13 170.252 59.9426  36
   3   5 -16 12098.1 476.548  13
   3   5 -15 1165.93 152.144  13
   3   5 -15 1212.90 138.312  48
   3   5 -14 4235.74 304.766  12
   3   5 -14 4365.12 320.109  48
   3   5 -14 4273.37 344.392  13
   3   5 -13 1106.48 176.272  13
   3   5 -13 1149.39 172.996  48
   3   5 -13 1230.18 170.988  12
   3   5 -12 14782.0 682.001  12
   3   5 -12 14166.0 708.139  48
   3   5 -12 13930.1 731.953  13
   3   5 -11 35740.8 1279.37  13
   3   5 -11 32588.1 1226.79  48
   3   5 -11 36758.7 1205.54  12
  -3   5  10 1973.97 218.074  11
   3   5 -10 2120.91 261.058  13
   3   5 -10 3248.54 324.939  52
   3   5 -10 3372.98 315.714  34
   3   5  -9 24441.8 919.571  13
  -3   5   9 21797.2 842.750  11
   3   5  -9 21731.1 886.996  34
   3   5  -9 22927.9 918.429  52
   3   5  -8 93367.9 3024.23  15
   3   5  -7 16699.7 985.024  15
   3   5  -6 86006.4 2704.76  15
   3   5  -5 44554.3 1661.38  15
   3   5  -4 78636.2 2375.80  15
   3   5  -3 36495.3 1358.43  15
   3   5  -3 38749.2 1303.68  14
   3   5  -2 16724.3 778.477  15
   3   5  -2 14864.9 721.076  14
  -3   5   1 18366.6 814.670  18
   3   5  -1 16586.2 742.280  15
   3   5  -1 16629.4 774.311  14
   3   5   0 37113.4 1324.64  14
   3   5   0 38347.2 1281.80  18
  -3   5   0 36176.5 1271.20  18
   3   5   0 39542.0 1228.99  15
   3   5   1 17523.5 785.874  18
   3   5   1 17185.8 832.718  14
   3   5   2 13147.7 681.100  18
   3   5   2 12274.8 715.321  14
   3   5   3 89687.2 2671.37  14
  -3   5  -4 8460.43 613.668  22
   3   5   4 9226.88 656.443  14
  -3   5  -5 27835.5 1245.74  22
   3   5   5 33643.9 1420.45  14
   3   5   6 27499.3 1342.49  14
  -3   5  -7 9273.10 575.057  50
  -3   5  -7 9330.69 519.363  12
  -3   5  -7 9847.63 562.922  33
  -3   5  -8 27858.7 1063.00  12
  -3   5  -8 28830.7 1154.31  50
   3   5   8 26547.3 999.507  39
   3   5   9 8493.82 481.027  39
  -3   5  -9 8083.81 509.727  12
  -3   5  -9 7714.94 537.692  36
  -3   5  -9 8138.20 536.997  33
  -3   5 -10 1751.52 242.059  36
  -3   5 -10 1813.57 236.981  12
  -3   5 -10 1931.39 251.273  33
   3   5  10 1963.65 208.292  39
  -3   5 -11 15685.7 717.647  12
  -3   5 -11 15018.4 749.551  36
  -3   5 -11 16099.8 769.428  33
  -3   5 -12 8271.71 456.789  12
  -3   5 -12 7320.91 458.139  36
  -3   5 -12 8691.99 499.564  33
  -3   5 -13 1429.20 159.141  36
  -3   5 -13 1561.57 161.013  12
   3   6 -15 6828.06 369.832  13
   3   6 -14 10026.9 530.075  13
   3   6 -14 10596.8 516.069  48
   3   6 -13 2240.89 248.645  13
   3   6 -13 2040.40 234.268  48
   3   6 -13 2483.89 235.775  12
   3   6 -12 2764.21 294.930  13
   3   6 -12 2456.61 249.080  12
  -3   6  12 2540.97 239.485  11
   3   6 -12 2673.12 280.691  48
  -3   6  12 2557.38 237.533  53
   3   6 -11 300.179 96.7472  13
   3   6 -11 288.706 80.5182  48
   3   6 -11 143.535 45.2612  12
  -3   6  11 211.265 80.3451  11
  -3   6  11 170.253 56.3188  53
   3   6 -10 7755.82 518.207  13
  -3   6  10 8673.71 491.147  11
   3   6  -9 26240.8 1025.12  48
  -3   6   9 28374.1 1011.19  11
   3   6  -9 29102.4 1052.89  13
   3   6  -9 27652.9 1060.90  34
   3   6  -8 20526.4 834.361  13
   3   6  -8 22440.9 874.270   5
   3   6  -8 22156.6 887.241  34
   3   6  -7 47675.3 1936.12  15
   3   6  -6 75241.7 2542.90  15
   3   6  -5 96755.9 2953.41  15
   3   6  -4 29824.1 1289.12  15
   3   6  -3 57852.7 1920.90  15
   3   6  -3 59857.2 1855.45  14
  -3   6   2 166447. 4441.24  18
   3   6  -2 170362. 4290.03  15
   3   6  -2 173676. 4295.88  14
  -3   6   1 3735.30 384.103  18
   3   6  -1 4085.21 353.110  15
   3   6  -1 4234.41 387.577  14
   3   6   0 6376.41 481.083  18
  -3   6   0 6626.87 502.401  18
   3   6   0 6695.88 506.551  14
   3   6   1 6441.75 521.539  14
   3   6   1 6973.66 511.046  18
   3   6   2 42162.4 1530.66  18
   3   6   2 40478.1 1563.52  14
   3   6   3 70900.6 2248.77  18
   3   6   3 69920.0 2323.08  14
  -3   6  -4 4566.21 478.517  22
   3   6   4 4426.57 476.774  14
  -3   6  -5 13897.0 890.346  22
  -3   6  -5 13688.8 915.852  20
  -3   6  -6 29968.4 1051.88  12
   3   6   6 29452.0 1044.42  39
  -3   6  -6 28655.7 1099.12  36
  -3   6  -6 30428.4 1104.52  33
  -3   6  -7 39967.5 1439.19  36
  -3   6  -7 43266.1 1406.46  12
  -3   6  -7 41953.6 1439.15  33
  -3   6  -8 19560.9 846.499  12
   3   6   8 20446.5 827.779  39
  -3   6  -8 18030.2 875.815  36
  -3   6  -8 19759.9 891.231  33
  -3   6  -9 14287.6 706.790  12
  -3   6  -9 13292.7 736.522  36
  -3   6  -9 14054.7 739.461  33
  -3   6 -10 19846.5 847.326  12
  -3   6 -10 18066.8 872.114  36
  -3   6 -10 19459.1 887.725  33
   3   6  11 10033.2 471.207  39
  -3   6 -11 8702.42 496.009  12
  -3   6 -11 8672.01 524.482  36
  -3   6 -12 1991.36 199.063  12
  -3   6 -12 1929.42 210.882  36
  -3   6 -13 314.523 61.3221  12
   3   7 -14 3901.03 296.057  13
   3   7 -13 1150.65 162.219  48
   3   7 -13 1106.68 168.305  13
   3   7 -12 4251.93 358.697  13
  -3   7  12 3860.36 295.643  53
  -3   7  12 4168.22 307.761  11
   3   7 -12 4056.79 307.517  12
   3   7 -12 4093.14 346.961  48
   3   7 -11 3499.00 328.325  48
   3   7 -11 3860.15 304.454  12
  -3   7  11 3393.92 291.682  53
   3   7 -11 4006.11 348.223  13
  -3   7  11 3652.89 302.566  11
   3   7 -10 5487.31 429.705  13
  -3   7  10 5935.98 410.565  53
   3   7 -10 6338.84 419.912  12
  -3   7  10 6244.06 422.588  11
   3   7  -9 29587.1 1078.24  13
   3   7  -9 26818.7 1050.88  48
  -3   7   9 27929.6 1032.58  11
   3   7  -8 25373.3 1058.04  13
   3   7  -8 35114.2 1169.45  48
  -3   7   8 29958.5 1086.36  11
   3   7  -8 39166.5 1244.44  34
   3   7  -7 46594.9 1481.03   5
   3   7  -7 49987.3 1473.67  13
   3   7  -7 48647.9 1510.32  34
   3   7  -7 46578.4 1445.03  48
   3   7  -6 3845.35 484.366  15
   3   7  -5 54122.1 2043.47  15
   3   7  -4 18022.2 1001.91  15
  -3   7   3 24166.8 1271.68  18
   3   7  -3 22955.5 1099.35  15
   3   7  -3 24063.0 1068.03  14
  -3   7   2 87992.5 2830.28  18
   3   7  -2 90035.2 2636.84  14
  -3   7   1 27008.8 1275.25  18
   3   7  -1 29956.4 1240.99  14
   3   7   0 40993.4 1580.62  14
   3   7   1 20119.7 1021.87  18
   3   7   1 19422.5 1025.14  14
   3   7   2 38594.5 1590.78  14
   3   7   2 37607.9 1534.54  18
   3   7   3 13034.1 839.070  18
  -3   7  -3 11863.9 866.702  22
   3   7   3 13685.1 888.457  14
   3   7   4 33974.9 1110.67  53
   3   7   4 33642.1 1106.06  11
   3   7   4 32462.1 1104.97  39
  -3   7  -4 33485.1 1150.13  36
  -3   7  -5 8869.46 498.426  12
   3   7   5 8649.12 491.687  39
  -3   7  -5 8864.99 525.524  36
  -3   7  -6 3773.01 322.535  12
   3   7   6 3444.43 302.752  39
  -3   7  -6 3432.93 330.689  36
  -3   7  -7 3633.72 320.971  12
   3   7   7 3672.35 319.420  39
  -3   7  -7 3478.23 334.666  36
   3   7   8 5667.73 404.291  39
  -3   7  -8 6500.38 485.064  36
  -3   7  -9 7854.35 491.273  12
   3   7   9 8894.89 492.453  39
  -3   7  -9 7136.22 503.413  36
  -3   7 -10 8618.38 497.239  12
   3   7  10 8283.68 449.795  39
  -3   7 -10 7901.61 511.382  36
  -3   7 -11 769.019 126.496  12
   3   7  11 980.166 126.199  39
  -3   7 -11 869.412 142.943  36
  -3   7 -12 4794.99 294.458  12
  -3   7 -12 4100.98 282.813  36
  -3   8  13 9867.57 430.870  53
  -3   8  12 6190.84 368.773  53
   3   8 -12 7130.58 439.765  48
  -3   8  12 6339.66 371.933  11
   3   8 -11 6671.45 449.835  13
  -3   8  11 6404.10 404.406  53
  -3   8  11 6413.60 406.712  11
   3   8 -11 6231.69 429.308  48
  -3   8  10 2755.88 265.790  53
   3   8 -10 2823.78 291.717  48
  -3   8  10 3087.92 285.061  11
   3   8 -10 2782.13 286.747  13
   3   8 -10 2774.71 253.781  12
   3   8  -9 11488.9 622.269  48
  -3   8   9 12810.2 636.192  11
   3   8  -9 13253.5 662.375  13
   3   8  -8 29045.3 1060.51  48
   3   8  -8 29171.8 1071.75  13
  -3   8   8 27094.6 1036.85  11
   3   8  -7 10003.6 536.493  48
   3   8  -7 10107.8 566.627   5
   3   8  -6 1601.20 207.565   5
   3   8  -6 1424.91 182.947  48
   3   8  -6 1407.44 196.307  44
   3   8  -6 1930.19 223.980  34
   3   8  -5 27936.3 1013.27  44
   3   8  -5 28687.9 998.938  34
   3   8  -5 26574.2 991.360   5
   3   8  -4 50205.6 1927.11  15
  -3   8   3 58335.1 2309.75  18
  -3   8   2 56780.7 2196.88  18
   3   8  -1 6488.20 567.211  14
  -3   8   1 6526.55 621.107  18
   3   8   0 2644.24 357.714  14
   3   8   1 7360.88 641.863  14
   3   8   1 7288.02 636.267  18
   3   8   2 18151.9 713.498   7
  -3   8  -2 19199.2 764.632  36
   3   8   3 3866.23 287.616   7
   3   8   3 3746.96 293.644  39
  -3   8  -3 3256.99 288.528  36
   3   8   4 71507.4 1935.18   7
  -3   8  -4 76820.8 2055.84  12
   3   8   4 70864.9 2005.44  39
  -3   8  -4 71135.7 2052.10  36
  -3   8  -5 34415.7 1191.87  12
   3   8   5 36332.7 1198.27  39
  -3   8  -5 32565.7 1209.06  36
  -3   8  -6 9977.88 558.534  12
   3   8   6 9713.60 539.485  39
  -3   8  -6 9362.41 571.956  36
  -3   8  -7-17.6772 19.7828  12
   3   8   7 56.6237 54.8804  39
  -3   8  -8 11480.3 605.318  12
   3   8   8 11786.3 591.036  39
  -3   8  -8 11172.1 634.019  36
  -3   8  -9 6300.39 419.314  12
   3   8   9 6656.37 405.585  39
  -3   8  -9 5264.47 409.600  36
  -3   8 -10 5956.66 380.238  12
   3   8  10 5486.84 338.232  39
  -3   8 -10 5728.47 396.142  36
  -3   8 -11 334.673 74.9373  36
   3   8  11 310.857 65.4670  39
  -3   9  13 822.334 101.739  39
  -3   9  12 1769.68 173.008  53
  -3   9  12 1901.70 177.544  11
  -3   9  11 732.201 121.268  53
  -3   9  11 786.950 126.273  11
  -3   9  10 2897.06 271.644  53
  -3   9  10 2830.23 268.843  11
  -3   9   9 3395.86 300.598  53
   3   9  -9 3572.10 310.401  48
  -3   9   9 3302.62 297.820  11
   3   9  -8 7811.23 473.531  48
  -3   9   8 6486.30 441.244  11
   3   9  -7 21506.8 846.818  48
  -3   9   7 21031.1 866.988  11
   3   9  -6 4039.43 307.858  48
  -3   9   6 3350.29 300.474  11
   3   9  -5 4806.39 318.969   7
   3   9  -5 4619.44 357.894  44
   3   9  -4 20945.5 840.930   6
   3   9  -4 20515.8 848.492  44
   3   9  -4 19784.2 770.679   7
   3   9  -3 23997.8 867.387   7
   3   9  -3 25020.6 914.673   6
   3   9  -2 41589.3 1303.99   6
   3   9  -2 42173.9 1273.63   7
   3   9  -1 292.977 82.6434   7
   3   9  -1 291.219 81.6691  44
   3   9  -1 392.555 94.1826   6
   3   9   0 6665.19 399.481   7
   3   9   0 5411.34 400.934  44
  -3   9   0 5570.90 397.460   6
   3   9   0 6429.89 407.310   6
  -3   9   0 6902.63 420.892  36
   3   9   1 85822.1 2174.50   7
  -3   9  -1 82660.0 2199.31  36
   3   9   2 23030.5 814.793   7
   3   9   2 21101.3 790.946  39
  -3   9  -2 23940.1 873.964  36
  -3   9  -3 1675.58 200.195   6
   3   9   3 1965.81 213.365  39
   3   9   3 2019.72 212.890   7
  -3   9  -3 1679.90 209.228  36
   3   9   4 12602.0 572.374   7
   3   9   4 12635.4 612.408  39
  -3   9  -4 11361.6 618.157  36
   3   9   5 20427.9 832.865  39
  -3   9  -5 19891.9 865.343  36
   3   9   6 2569.31 256.583  39
  -3   9  -6 2894.37 301.455  36
   3   9   7 7151.27 436.883  39
  -3   9  -7 6400.67 457.963  36
   3   9   8 2887.91 256.700  39
  -3   9  -8 2834.49 285.905  36
  -3   9  -9 11457.4 584.966  36
   3   9   9 12658.0 551.582  39
  -3   9 -10 1874.74 205.156  36
   3   9  10 1337.46 146.925  39
  -3  10  12 1970.16 164.014  39
  -3  10  11 8631.25 417.885  11
  -3  10  11 8840.84 420.490  53
  -3  10  10 19206.0 738.218  53
  -3  10  10 19553.3 743.188  11
  -3  10   9 633.028 116.583  53
  -3  10   9 658.566 121.126  11
  -3  10   8 4772.21 354.920  11
  -3  10   8 4691.03 349.939  53
  -3  10   7 2784.63 269.197  11
  -3  10   6 22544.6 896.984  11
   3  10  -5 2850.04 250.254   7
  -3  10   5 2759.61 267.876  11
   3  10  -4 13094.0 596.476   7
  -3  10   4 11985.5 569.296   7
  -3  10   4 12278.6 612.935  11
   3  10  -4 12453.8 631.884  44
   3  10  -4 14173.2 671.313   6
   3  10  -3 2761.42 254.258   7
   3  10  -3 2015.39 232.735  44
   3  10  -3 2674.94 266.691   6
   3  10  -2 22834.3 874.763   7
   3  10  -2 23418.8 917.115   6
   3  10  -1 13336.4 633.929   7
   3  10  -1 14628.5 678.184   6
   3  10   0 28904.7 1031.82   7
  -3  10   0 30065.7 1106.63   6
   3  10   0 29760.9 1068.09   6
   3  10   1 3207.03 274.750   7
  -3  10  -1 2681.23 273.227   6
   3  10   1 3233.67 288.186   6
  -3  10  -1 3550.74 309.774  36
   3  10   2 35962.1 1171.46   7
  -3  10  -2 36221.0 1233.37  36
  -3  10  -2 34879.4 1203.37   6
  -3  10  -3 9697.08 532.676   6
   3  10   3 10647.8 530.929  39
  -3  10  -3 9792.69 558.881  36
   3  10   3 10862.7 531.524   7
   3  10   4 14597.7 630.563   7
   3  10   4 15037.4 665.806  39
  -3  10  -4 13991.7 692.276  36
   3  10   5 2380.46 235.272  39
  -3  10  -5 2232.93 251.466  36
   3  10   6 4519.34 336.134  39
  -3  10  -6 6907.98 453.975  36
   3  10   7 724.931 124.201  39
  -3  10  -7 657.719 122.853  36
   3  10   8 5200.98 326.852  39
  -3  10  -8 5404.96 368.956  36
   3  10   9 5881.05 321.077  39
  -3  10  -9 6435.39 376.424  36
   3  10  10 1191.26 118.529  39
  -3  11  11 2896.77 193.649  53
  -3  11  11 3048.24 199.273  39
  -3  11  10 3099.63 228.592  11
  -3  11  10 3016.55 225.871  53
  -3  11   9 1529.48 167.951  53
  -3  11   9 1318.41 155.239  11
  -3  11   8 1890.28 197.601  11
  -3  11   8 1738.28 189.432  53
  -3  11   7 3976.90 304.507  53
  -3  11   7 3869.45 303.029  11
  -3  11   6 11620.6 569.895  53
  -3  11   6 11710.1 574.261  11
  -3  11   5 1991.80 218.130  53
  -3  11   5 1962.24 194.285   7
  -3  11   5 2113.18 225.311  11
   3  11  -5 2066.94 205.728   7
  -3  11   4 5787.65 369.575   7
   3  11  -4 6326.66 385.891   7
  -3  11   4 6076.81 393.902  11
   3  11  -3 4331.81 321.455   7
  -3  11   3 4026.22 312.181   7
   3  11  -3 4518.21 355.004   6
   3  11  -2 10861.9 553.242   7
  -3  11   2 11252.1 564.740   7
   3  11  -2 11663.5 604.186   6
  -3  11   2 11105.3 624.878   6
   3  11  -1 12617.5 625.491   6
  -3  11   1 11286.2 619.034   6
   3  11  -1 12012.0 583.826   7
   3  11   0 848.092 139.174   7
   3  11   0 1093.90 169.361   6
  -3  11  -1 6331.21 432.280   6
   3  11   1 6742.09 416.142   7
   3  11   1 7033.44 437.381   6
   3  11   2 14082.2 627.656   7
  -3  11  -2 14412.6 669.418   6
   3  11   2 14431.7 655.801   6
   3  11   3 5023.93 337.056   7
   3  11   3 5016.57 345.506   6
  -3  11  -3 5173.90 380.808  36
   3  11   4 4109.48 288.639   7
   3  11   4 4055.95 297.674  39
  -3  11  -4 4928.60 363.797  36
  -3  11  -4 3917.84 306.188   7
   3  11   5 11554.1 520.744  39
  -3  11  -5 11439.6 571.953  36
   3  11   6 4008.99 280.137  39
  -3  11  -6 4301.14 326.690  36
   3  11   7 5185.75 305.504  39
  -3  11  -7 4905.60 338.821  36
   3  11   8 235.483 56.0200  39
  -3  11  -8 363.603 82.7915  36
  -3  12   9 5599.32 290.442  53
  -3  12   9 5570.98 289.840  11
  -3  12   9 5740.26 286.955  39
  -3  12   8 5171.45 298.445  53
  -3  12   8 5207.29 300.020  11
  -3  12   8 4931.79 284.617  39
  -3  12   7 2943.10 231.078  11
  -3  12   7 3005.47 231.793  53
  -3  12   6 3136.22 249.228  53
  -3  12   6 3262.13 252.770  11
  -3  12   5 1017.76 138.682  53
   3  12  -5 864.079 125.014   7
  -3  12   5 1020.10 140.846  11
   3  12  -4 8316.56 429.535   7
  -3  12   4 7854.90 411.371   7
   3  12  -3 15539.6 634.615   7
  -3  12   3 13663.4 602.680   7
  -3  12   3 14088.6 682.861   6
   3  12  -2 1482.89 175.456   7
  -3  12   2 1516.22 179.069   7
   3  12  -2 1370.90 181.002   6
  -3  12   2 1100.74 167.683   6
   3  12  -1 5162.75 359.181   6
   3  12  -1 4785.43 326.341   7
  -3  12   1 4380.95 321.931   7
  -3  12   1 4440.79 348.462   6
  -3  12   0 17561.4 736.164   7
  -3  12   0 17959.7 771.696   6
   3  12   0 18826.1 762.564   6
   3  12   0 18916.9 735.831   7
  -3  12  -1 3628.56 296.378   7
  -3  12  -1 3262.55 287.096   6
   3  12   1 4049.26 303.551   6
   3  12   1 4010.28 290.985   7
   3  12   2 8733.63 447.349   6
   3  12   2 7947.86 419.578   7
   3  12   3 2280.42 200.075   7
  -3  12  -3 1847.12 197.476   7
   3  12   3 2302.55 207.048   6
   3  12   4 3756.43 248.844   7
  -3  12  -4 4459.43 303.924   7
   3  12   5 5478.02 292.063  39
  -3  12  -5 4470.92 283.035   7
   3  12   6 11957.8 457.058  39
  -3  13   7 590.081 88.3213   6
  -3  13   6 136.426 43.0293   6
  -3  13   5 1577.38 170.675   6
   3  13  -4 3485.15 237.860   7
  -3  13   4 3644.70 232.807   7
  -3  13   4 3878.14 282.209   6
  -3  13   3 4375.25 309.319   6
  -3  13   3 4483.68 276.565   7
   3  13  -3 4576.89 281.843   7
   3  13  -2 3198.78 236.966   7
  -3  13   2 2599.24 236.742   6
  -3  13   2 2830.26 220.670   7
   3  13  -1 783.196 109.730   7
  -3  13   1 820.745 122.780   7
  -3  13   1 757.123 123.674   6
   3  13   0 7055.91 368.394   7
  -3  13   0 6318.30 365.669   7
  -3  13   0 6768.85 388.905   6
   3  13   0 7120.84 382.222   6
   3  13   1 6838.04 361.109   6
   3  13   1 6664.16 350.930   7
  -3  13  -1 6538.87 367.044   7
   3  13   2 222.224 58.0948   7
  -3  13  -2 192.117 50.9973   7
   3  13   2 212.061 60.6453   6
   3  13   3 4546.78 252.847   7
  -3  13  -3 4534.40 282.314   7
  -3  13  -4 4919.92 272.102   7
   3  13   4 5040.81 242.023   7
   3  14  -2 4570.94 241.251   7
  -3  14   2 4079.60 230.251   7
   3  14  -1 4285.67 236.471   7
  -3  14   1 4115.58 238.341   7
  -3  14   0 6797.39 324.313   7
   3  14   0 7477.66 323.300   7
   3  14   1 2887.39 178.910   7
  -3  14  -1 2886.46 194.480   7
   4 -13  -6 1159.46 119.297  31
   4 -13  -6 1043.73 110.828  43
   4 -13  -6 1068.60 112.034  60
   4 -13  -5 1339.45 135.990  31
   4 -13  -5 1188.70 123.025  43
   4 -13  -5 1158.36 110.923  32
   4 -13  -4 2367.59 174.481  32
   4 -13  -3 2427.60 183.446  32
   4 -13  -2 1032.25 117.008  32
   4 -13  -1 303.884 69.5405  32
  -4 -13  -2 225.189 57.7567  50
   4 -12  -9 5992.52 283.318  31
   4 -12  -9 5888.19 283.761  43
   4 -12  -9 5661.62 287.464  60
   4 -12  -8 2557.31 193.475  31
   4 -12  -8 2177.30 175.184  47
   4 -12  -8 2367.46 186.499  43
   4 -12  -8 2522.22 197.173  60
   4 -12  -7 606.622 92.9421  47
   4 -12  -7 626.433 86.5461  32
   4 -12  -7 629.912 100.533  31
   4 -12  -7 726.891 105.061  43
   4 -12  -7 680.458 93.7498  42
   4 -12  -6 5241.72 318.250  31
   4 -12  -6 5064.42 295.177  32
   4 -12  -6 4688.14 287.070  47
   4 -12  -6 5068.85 312.135  43
   4 -12  -6 4949.88 287.484  42
   4 -12  -5 448.561 88.2144  32
   4 -12  -4 3939.34 277.878  32
   4 -12  -3 5957.12 354.184  32
  -4 -12  -3 2790.77 224.931  50
  -4 -12  -4 5989.24 332.048  50
  -4 -12  -5 2409.85 191.937  50
  -4 -12  -6 7472.83 335.361  50
   4 -11 -11 184.663 46.7443  55
   4 -11 -11 197.031 47.6171  60
   4 -11 -10 7255.58 341.576  31
   4 -11 -10 6811.53 348.509  47
   4 -11 -10 7040.33 346.178  43
   4 -11 -10 7349.64 334.058  41
   4 -11 -10 7405.18 359.832  60
   4 -11  -9 5813.99 337.086  47
   4 -11  -9 6221.01 343.165  43
   4 -11  -9 6013.00 332.113  31
   4 -11  -9 6122.18 346.288  60
   4 -11  -8 2340.87 209.897  31
   4 -11  -8 2213.46 209.599  47
   4 -11  -8 2481.24 217.603  43
   4 -11  -8 2392.30 210.732  42
   4 -11  -8 2541.39 208.511  32
   4 -11  -7 696.820 109.039  32
   4 -11  -7 840.748 138.020  31
   4 -11  -7 637.393 101.468  43
   4 -11  -7 665.983 109.379  42
   4 -11  -7 674.035 111.105  47
   4 -11  -6 11836.5 556.448  47
   4 -11  -6 11316.4 536.634  42
   4 -11  -6 12181.2 548.132  32
   4 -11  -5 2393.59 226.746  32
   4 -11  -5 2403.87 226.983  42
   4 -11  -4 1169.85 166.341  32
   4 -11  -4 987.305 142.207  42
  -4 -11  -4 1318.94 166.517  50
  -4 -11  -5 1782.96 187.884  50
  -4 -11  -6 2665.10 223.147  50
  -4 -11  -6 2157.92 182.858  41
  -4 -11  -7 6484.15 337.264  50
   4 -10 -12 1141.65 123.238  55
   4 -10 -12 1187.02 126.050  47
   4 -10 -12 1107.27 115.958  60
   4 -10 -11 47.2662 39.8147  47
   4 -10 -11 87.1998 36.1205  43
   4 -10 -11 70.5363 31.5810  41
   4 -10 -11-15.1596 25.4209  60
   4 -10 -10 4816.65 305.958  31
   4 -10 -10 4815.57 322.245  47
   4 -10 -10 4779.62 312.533  43
   4 -10 -10 4873.22 319.106  60
   4 -10  -9 3304.38 277.083  47
   4 -10  -9 3282.99 260.477  31
   4 -10  -9 3592.24 279.813  43
   4 -10  -9 3055.47 256.399  42
   4 -10  -9 3299.88 253.485  32
   4 -10  -8 5724.94 371.934  42
   4 -10  -8 5634.56 365.596  31
   4 -10  -8 5695.90 359.083  32
   4 -10  -8 5627.15 370.628  43
   4 -10  -8 5401.12 372.695  47
   4 -10  -7 3147.70 283.534  47
   4 -10  -7 3324.84 278.039  32
   4 -10  -7 3225.00 277.385  42
   4 -10  -6 13034.8 618.246  42
   4 -10  -6 13909.9 603.944  38
   4 -10  -6 13267.3 618.428  32
   4 -10  -5 10291.6 537.842  32
   4 -10  -5 10219.9 532.838  42
   4 -10  -5 10656.3 520.515  38
   4 -10  -4 18540.0 739.955  38
  -4 -10  -4 18266.4 767.382  50
  -4 -10  -5 4176.44 322.764  50
  -4 -10  -5 4371.33 307.821  41
  -4 -10  -6 23849.2 872.102  50
  -4 -10  -6 22728.2 816.202  41
  -4 -10  -7 1247.20 162.264  50
  -4 -10  -7 1033.27 128.533  41
  -4 -10  -8 20816.5 738.960  50
  -4 -10  -8 21533.2 754.285  46
  -4 -10  -9 1615.37 147.738  50
   4  -9 -13 2582.13 185.365  55
   4  -9 -13 2675.29 183.875  33
   4  -9 -12 4849.16 305.344  47
   4  -9 -12 4681.64 287.233  60
   4  -9 -12 4759.56 285.902  58
   4  -9 -11 8718.62 431.085  31
   4  -9 -11 8760.21 465.549  47
   4  -9 -11 8796.04 446.901  43
   4  -9 -11 9048.10 453.553  60
   4  -9 -10 3712.86 283.671  31
   4  -9 -10 3541.43 300.575  47
   4  -9 -10 3438.69 280.939  43
   4  -9 -10 3863.61 302.939  60
   4  -9  -9 11836.7 569.581  31
   4  -9  -9 12086.6 583.581  43
   4  -9  -9 11710.7 579.947  42
   4  -9  -9 12002.2 565.729  32
   4  -9  -9 12037.3 603.892  47
   4  -9  -8 4231.48 332.680  31
   4  -9  -8 4972.52 374.802  47
   4  -9  -8 4178.00 328.108  32
   4  -9  -8 4278.53 340.493  43
   4  -9  -8 4392.24 342.272  42
   4  -9  -7 11281.4 575.423  42
   4  -9  -7 11198.8 563.798  32
   4  -9  -7 11020.3 572.095  40
   4  -9  -7 11401.4 548.173  38
   4  -9  -6 3179.22 290.648  32
   4  -9  -6 3765.53 306.878  49
   4  -9  -6 3518.11 304.802  42
   4  -9  -6 3718.16 308.311  40
   4  -9  -6 3637.03 293.470  38
   4  -9  -5 3976.01 311.300  49
   4  -9  -5 3889.13 309.523  40
   4  -9  -5 4210.42 316.008  38
   4  -9  -4 8901.26 480.875  49
  -4  -9  -4 23472.4 874.758  41
  -4  -9  -5 1957.79 211.068  55
  -4  -9  -5 2099.23 230.671  50
  -4  -9  -5 2065.03 219.976  41
  -4  -9  -6 5064.63 355.380  55
  -4  -9  -6 4830.76 362.743  50
  -4  -9  -6 4528.92 332.252  41
  -4  -9  -7 1167.97 159.842  55
  -4  -9  -7 1327.15 180.037  50
  -4  -9  -7 1277.03 161.649  41
  -4  -9  -8 4225.94 307.106  50
  -4  -9  -8 3614.67 272.906  41
  -4  -9  -9 1012.88 134.067  50
  -4  -9  -9 1059.22 136.559  46
  -4  -9 -10 3635.57 232.744  50
   4  -8 -13 5405.33 324.547  47
   4  -8 -13 6019.30 327.742  55
   4  -8 -13 5769.06 318.510  33
   4  -8 -13 5565.58 306.205  60
   4  -8 -13 5807.34 320.893  58
   4  -8 -12 2130.27 205.226  58
   4  -8 -12 2305.73 221.536  47
   4  -8 -12 2266.74 210.887  60
   4  -8 -11 1059.91 150.136  43
   4  -8 -11 980.210 151.256  47
   4  -8 -11 1047.28 148.656  60
   4  -8 -10 5605.09 398.746  47
   4  -8 -10 5532.61 370.657  32
   4  -8 -10 5485.15 366.648  31
   4  -8 -10 5396.62 377.572  43
   4  -8 -10 5600.81 389.905  42
   4  -8 -10 5814.23 390.243  60
   4  -8  -9 62.8268 30.1524  43
   4  -8  -9 41.6797 37.8845  32
   4  -8  -9 105.761 40.1622  31
   4  -8  -9 83.3901 16.6684  42
   4  -8  -8 35576.8 1181.82  31
   4  -8  -8 37335.5 1196.32  32
   4  -8  -8 35269.6 1202.94  42
   4  -8  -8 34867.4 1220.06  40
   4  -8  -8 34848.3 1164.56  38
   4  -8  -7 41539.7 1327.14  49
   4  -8  -7 41936.2 1320.09  32
   4  -8  -7 41749.0 1330.02  42
   4  -8  -7 39835.1 1282.22  38
   4  -8  -7 41446.1 1347.89  40
   4  -8  -6 27572.2 1008.56  32
   4  -8  -6 29303.6 1032.78  49
   4  -8  -6 30719.8 1060.96  40
   4  -8  -6 28321.7 1000.91  38
   4  -8  -5 6133.83 394.105  49
   4  -8  -5 5901.10 388.326  40
   4  -8  -5 6576.16 400.231  38
   4  -8  -4 24083.7 873.112  49
   4  -8  -4 22805.2 858.651  40
  -4  -8  -4 14323.1 639.621  41
  -4  -8  -5 5895.63 399.185  55
  -4  -8  -5 5650.76 405.685  50
  -4  -8  -5 5576.86 378.300  41
  -4  -8  -6 5025.48 376.965  50
  -4  -8  -6 4658.88 348.556  41
  -4  -8  -6 4806.28 366.021  55
  -4  -8  -7 2208.48 240.383  50
  -4  -8  -7 1985.58 223.810  41
  -4  -8  -7 1969.28 223.363  55
  -4  -8  -8 6740.88 426.095  50
  -4  -8  -8 6632.53 404.774  41
  -4  -8  -8 6547.02 414.056  55
  -4  -8  -9 8245.00 449.431  50
  -4  -8  -9 7924.07 441.000  46
  -4  -8 -10 1157.60 147.914  50
  -4  -8 -10 1096.75 133.581  46
  -4  -8 -11 891.918 104.371  50
   4  -7 -14 8755.41 397.218  33
   4  -7 -14 9023.97 412.471  58
   4  -7 -14 9084.30 410.406  37
   4  -7 -13 5544.66 347.048  47
   4  -7 -13 5458.25 340.524  37
   4  -7 -13 5273.76 327.861  33
   4  -7 -13 5115.97 312.204  60
   4  -7 -13 5198.69 332.650  58
   4  -7 -12 699.143 126.267  47
   4  -7 -12 737.701 129.129  58
   4  -7 -12 651.738 113.179  60
   4  -7 -11 692.096 121.061  31
   4  -7 -11 758.667 130.059  43
   4  -7 -11 691.647 125.619  60
   4  -7 -11 734.367 141.390  47
   4  -7 -10 6124.23 399.969  32
   4  -7 -10 6109.58 424.097  47
   4  -7 -10 6541.18 407.369  31
   4  -7 -10 6084.16 408.214  43
   4  -7 -10 5885.85 407.083  42
   4  -7  -9 18955.6 762.113  31
   4  -7  -9 17857.6 786.304  47
   4  -7  -9 18028.6 776.319  42
   4  -7  -9 18269.5 802.685  40
   4  -7  -9 18364.9 771.870  43
   4  -7  -9 18640.2 765.608  32
   4  -7  -8 15080.0 672.854  31
   4  -7  -8 16772.0 744.366  40
   4  -7  -8 15243.5 700.081  42
   4  -7  -8 15558.2 680.570  38
   4  -7  -8 15215.8 678.573  32
   4  -7  -7 33554.1 1129.28  49
   4  -7  -7 33503.7 1108.79  32
   4  -7  -7 32183.4 1107.93  42
   4  -7  -7 32058.6 1127.60  40
   4  -7  -7 33181.5 1090.66  38
   4  -7  -6 13822.7 628.560  49
   4  -7  -6 14095.2 643.665  40
   4  -7  -6 14281.3 618.968  38
   4  -7  -6 12976.0 594.394  59
   4  -7  -5 63770.1 2262.29  25
   4  -7  -5 64316.8 2286.99  28
   4  -7  -4 13244.0 869.674  28
   4  -7  -4 12593.5 856.654  25
   4  -7  -3 8090.38 653.474  28
   4  -7  -3 9376.19 777.790  29
   4  -7  -2 7282.86 611.258  28
   4  -7  -2 3334.56 506.488  29
   4  -7  -1 59370.3 2075.88  28
   4  -7  -1 58579.3 2301.49  29
   4  -7   0 33176.1 1428.04  28
   4  -7   0 32561.6 1607.84  29
   4  -7   1 15532.3 1056.19  29
   4  -7   1 15050.0 909.731  28
   4  -7   2 16196.0 1133.11  29
   4  -7   2 16232.9 983.160  28
  -4  -7  -4 26741.8 965.054  55
  -4  -7  -4 26554.0 942.077  41
  -4  -7  -5 14078.0 670.738  50
  -4  -7  -5 13558.9 647.801  55
  -4  -7  -5 14348.0 646.194  41
  -4  -7  -6 8341.23 502.228  55
  -4  -7  -6 8597.83 516.267  50
  -4  -7  -6 8609.22 491.647  41
  -4  -7  -7 32397.7 1148.52  55
  -4  -7  -7 32781.3 1160.53  50
  -4  -7  -7 32018.6 1126.58  41
  -4  -7  -8 5873.22 410.407  50
  -4  -7  -8 5399.80 383.211  41
  -4  -7  -8 5720.85 404.036  55
  -4  -7  -9 6183.00 403.160  46
  -4  -7  -9 6240.70 411.426  50
  -4  -7 -10 5182.88 340.198  46
  -4  -7 -10 5218.76 354.629  50
  -4  -7 -11 1079.75 134.876  50
   4  -6 -15 4629.45 260.835  58
   4  -6 -15 4713.65 264.805  37
   4  -6 -14 8201.02 430.461  58
   4  -6 -14 8472.01 416.960  33
   4  -6 -14 8785.72 448.869  37
   4  -6 -13 2860.97 253.888  47
   4  -6 -13 2898.89 258.859  58
   4  -6 -13 3300.31 278.052  37
   4  -6 -13 3032.93 253.937  33
   4  -6 -13 2952.70 237.303  60
   4  -6 -12 8012.28 470.217  47
   4  -6 -12 7809.74 439.308  60
   4  -6 -12 8213.12 476.441  58
   4  -6 -11 14025.3 625.859  31
   4  -6 -11 13861.9 667.945  47
   4  -6 -11 13992.2 648.873  43
   4  -6 -11 13477.6 629.156  60
   4  -6 -10 11398.1 579.571  43
   4  -6 -10 11602.7 592.507  42
   4  -6 -10 11993.0 575.047  31
   4  -6 -10 12170.9 613.110  47
   4  -6 -10 11391.5 577.745  32
   4  -6  -9 31533.2 1064.65  31
   4  -6  -9 31069.6 1078.40  43
   4  -6  -9 31162.5 1093.19  42
   4  -6  -9 31780.6 1132.75  40
   4  -6  -9 31847.2 1079.63  32
   4  -6  -8 25346.3 903.211  31
   4  -6  -8 24783.7 929.138  49
   4  -6  -8 25213.3 905.771  38
   4  -6  -8 25321.4 912.931  32
   4  -6  -8 25110.3 921.349  42
   4  -6  -8 25006.2 951.418  40
   4  -6  -7 11568.8 821.752  28
   4  -6  -7 10525.4 742.197  25
   4  -6  -6 124162. 3581.24  28
   4  -6  -6 120536. 3487.10  25
   4  -6  -5 33358.4 1433.76  28
   4  -6  -5 33568.0 1406.74  25
   4  -6  -4 19111.4 1000.37  28
   4  -6  -4 18673.7 974.708  25
   4  -6  -3 46849.0 1854.51  29
   4  -6  -3 44791.3 1675.09  28
   4  -6  -2 77722.2 2380.21  28
  -4  -6   2 72627.8 2286.16  24
   4  -6  -2 75045.1 2557.95  29
   4  -6  -1 67151.0 2344.11  29
   4  -6  -1 65848.3 2133.71  28
  -4  -6   1 61919.3 2080.33  24
   4  -6   0 4589.02 502.557  29
   4  -6   0 3522.33 389.551  28
   4  -6   1 22105.4 1081.78  28
  -4  -6  -1 22566.5 1118.23  24
   4  -6   1 24013.9 1239.51  29
   4  -6   2 27918.3 1464.67  29
  -4  -6  -2 45377.6 1665.98  24
   4  -6   3 23063.0 1262.16  29
  -4  -6  -3 21764.5 1080.34  30
  -4  -6  -3 23606.9 1198.71  24
  -4  -6  -4 22225.8 1148.74  30
  -4  -6  -5 10928.6 560.600  55
  -4  -6  -5 11766.5 582.620  50
  -4  -6  -5 11054.6 544.591  41
  -4  -6  -6 7893.77 481.914  55
  -4  -6  -6 7870.90 485.495  50
  -4  -6  -6 7663.19 461.272  41
  -4  -6  -7 1906.41 227.413  55
  -4  -6  -7 1928.06 229.739  50
  -4  -6  -7 2104.73 232.220  41
  -4  -6  -8 10569.6 580.601  55
  -4  -6  -8 10735.1 590.011  50
  -4  -6  -8 10670.4 571.581  41
  -4  -6  -9 58.4977 35.8604  55
  -4  -6  -9 2.23492 18.8022  50
  -4  -6 -10 5019.40 359.803  50
  -4  -6 -10 4932.76 348.518  46
  -4  -6 -11 645.722 108.168  50
  -4  -6 -12 3181.18 225.379  50
   4  -5 -16 2482.79 181.425  13
   4  -5 -15 806.588 112.964  37
   4  -5 -15 1042.24 131.418  58
   4  -5 -14 2737.41 237.734  33
   4  -5 -14 2980.09 265.733  37
   4  -5 -14 2532.74 242.053  58
   4  -5 -13 1112.01 157.237  47
   4  -5 -13 1315.51 168.543  33
   4  -5 -13 1275.00 172.508  58
   4  -5 -12 8669.31 493.823  47
   4  -5 -12 8582.63 509.766  58
   4  -5 -11 1018.89 157.333  47
   4  -5 -11 870.773 133.469  60
   4  -5 -11 1054.02 157.838  43
   4  -5 -10 25062.6 911.864  31
   4  -5 -10 25315.5 971.134  40
   4  -5 -10 24786.6 930.639  43
   4  -5 -10 24909.0 943.960  42
   4  -5 -10 24941.9 943.185  47
   4  -5  -9 3806.05 291.204  31
   4  -5  -9 3825.98 297.779  43
   4  -5  -9 4135.90 315.105  42
   4  -5  -9 3792.78 313.366  40
   4  -5  -9 4358.48 318.514  32
   4  -5  -8 76710.1 2590.24  28
   4  -5  -7 45719.8 1779.21  28
   4  -5  -7 46907.6 1700.94  25
   4  -5  -6 23719.5 1139.46  28
   4  -5  -6 23135.6 1072.49  25
   4  -5  -5 51726.3 1764.28  25
   4  -5  -5 54235.6 1857.51  28
   4  -5  -4 36051.2 1400.57  28
   4  -5  -3 29293.0 1304.44  29
   4  -5  -3 27871.6 1165.93  28
  -4  -5   3 26547.3 1060.46  24
   4  -5  -2 16549.3 923.371  29
   4  -5  -2 14199.9 779.591  28
  -4  -5   2 15715.1 779.779  24
   4  -5  -1 46404.1 1747.75  29
   4  -5  -1 46995.8 1623.55  28
  -4  -5   1 47580.5 1614.31  24
   4  -5   0 160539. 4092.05  26
   4  -5   0 153543. 4302.10  29
   4  -5   0 163689. 4066.38   9
   4  -5   1 25215.2 1198.40  29
  -4  -5  -1 24169.1 1111.55  24
   4  -5   1 26173.9 1091.32  26
  -4  -5  -1 25808.2 1006.09  30
   4  -5   1 27199.7 1115.85   9
   4  -5   2 61028.9 2172.71  29
   4  -5   2 59867.2 2015.66  26
  -4  -5  -2 69764.9 2181.55  24
  -4  -5  -2 70869.4 2044.70  30
   4  -5   2 59266.3 2061.62   9
   4  -5   3 46808.6 1768.67  29
   4  -5   3 44685.2 1624.25  26
  -4  -5  -3 40018.2 1610.31  24
  -4  -5  -3 38416.8 1513.64  30
   4  -5   3 43631.3 1685.87   9
   4  -5   4 6526.94 615.378  29
  -4  -5  -4 8155.74 655.743  24
  -4  -5  -4 8148.93 630.286  30
   4  -5   4 6596.73 615.619   9
  -4  -5  -5 3437.08 422.802  24
  -4  -5  -5 3130.82 406.657  30
  -4  -5  -6 6933.54 444.166  55
  -4  -5  -6 7922.26 469.751  50
  -4  -5  -6 7940.15 450.896  41
  -4  -5  -7 20800.8 863.907  50
  -4  -5  -7 20132.0 830.873  41
  -4  -5  -7 20232.4 848.433  55
  -4  -5  -8 16268.6 762.032  46
  -4  -5  -8 15962.5 751.155  50
  -4  -5  -8 14494.4 699.255  41
  -4  -5  -8 14918.1 720.390  55
  -4  -5  -9 5504.49 413.725  50
  -4  -5  -9 5247.79 390.791  46
  -4  -5  -9 5737.51 379.005  33
  -4  -5 -10 16663.5 747.128  50
  -4  -5 -10 16315.9 711.319  46
  -4  -5 -10 16119.9 683.594  33
  -4  -5 -11 1568.35 187.140  50
  -4  -5 -11 1513.39 168.143  33
  -4  -5 -12 1538.49 168.166  50
  -4  -5 -12 1230.05 136.058  33
   4  -4 -16 692.810 103.105  13
   4  -4 -16 786.064 105.711  37
   4  -4 -15 2750.03 241.222  37
   4  -4 -15 2764.62 237.208  58
   4  -4 -14 1252.82 160.453  33
   4  -4 -14 1346.23 188.824  37
   4  -4 -14 1418.74 185.952  58
   4  -4 -13 14614.7 658.484  47
   4  -4 -13 15814.4 680.363  33
   4  -4 -13 14869.2 703.954  58
   4  -4 -12 20815.0 831.601  33
   4  -4 -12 20647.2 825.841   3
   4  -4 -12 20462.9 831.989  47
   4  -4 -12 19460.0 849.523  58
   4  -4 -11 19206.4 781.623   3
   4  -4 -11 19080.1 793.747  47
   4  -4 -11 19089.3 785.012  43
   4  -4 -10 117021. 2983.99  47
   4  -4 -10 116789. 2944.74  31
   4  -4 -10 117694. 2976.68  43
   4  -4 -10 120654. 3002.28  42
   4  -4 -10 120769. 3038.16  40
   4  -4  -9 35673.6 1594.31  28
   4  -4  -8 6244.49 584.131  28
   4  -4  -8 6821.32 557.716   2
   4  -4  -7 16851.4 929.218  28
   4  -4  -7 16354.5 845.427   2
   4  -4  -6 40638.2 1443.83  25
   4  -4  -6 42032.8 1544.88  28
   4  -4  -5 166784. 4243.53  28
   4  -4  -5 157925. 4114.81  25
  -4  -4   5 171643. 4089.17  19
  -4  -4   4 319510. 7164.33  19
   4  -4  -4 307960. 7337.62  28
   4  -4  -3 202144. 4727.93   1
  -4  -4   3 193658. 4766.86  24
  -4  -4   3 200249. 4732.81  19
   4  -4  -3 214385. 5110.90  29
   4  -4  -3 200948. 4910.48  28
   4  -4  -2 55878.5 1570.98   1
   4  -4  -2 53071.3 1696.83  28
  -4  -4   2 55103.3 1671.26  24
   4  -4  -1 38491.8 1308.77  26
   4  -4  -1 36736.7 1409.46  29
   4  -4  -1 36908.4 1329.49  28
  -4  -4   1 36008.3 1298.96  24
   4  -4  -1 40843.7 1292.59   9
   4  -4   0 29379.9 1214.25  29
   4  -4   0 30252.6 1137.59  26
  -4  -4   0 30906.2 1178.96  24
   4  -4   0 28971.2 1114.59   9
  -4  -4   0 32327.1 1035.05  30
   4  -4   1 9766.51 641.489  29
  -4  -4  -1 10510.8 640.932  24
   4  -4   1 11585.9 643.918  26
   4  -4   1 12060.1 669.090   9
  -4  -4  -1 10516.9 559.455  30
   4  -4   2 16391.7 859.471  29
  -4  -4  -2 16117.9 839.544  24
  -4  -4  -2 15765.9 763.349  30
   4  -4   2 14248.6 808.927   9
  -4  -4  -3 42749.1 1549.02  30
  -4  -4  -3 41897.0 1596.45  24
   4  -4   3 48333.7 1724.87   9
   4  -4   3 46339.4 1667.80  29
   4  -4   4 41931.7 1621.54  29
  -4  -4  -4 38231.6 1541.40  24
  -4  -4  -4 39224.7 1527.65  30
  -4  -4  -5 98576.3 3026.17  24
  -4  -4  -5 95644.9 3008.70  30
  -4  -4  -6 17423.3 725.203  55
  -4  -4  -6 18383.7 756.860  50
  -4  -4  -6 15640.4 968.047  24
  -4  -4  -6 16787.0 707.114  41
  -4  -4  -7 1697.81 208.485  55
  -4  -4  -7 2094.67 235.825  50
  -4  -4  -7 1786.12 209.859  41
  -4  -4  -8 26460.8 1034.93  50
  -4  -4  -8 27562.4 1042.92  46
  -4  -4  -8 25531.9 999.764  55
  -4  -4  -8 26217.6 960.072  33
  -4  -4  -9 76803.9 2099.02  33
  -4  -4  -9 76039.9 2154.93  46
  -4  -4  -9 74411.2 2173.84  50
  -4  -4 -10 10025.2 574.934  50
  -4  -4 -10 9810.87 540.298  46
  -4  -4 -10 10107.9 529.410  33
  -4  -4 -11 926.895 146.553  50
  -4  -4 -11 970.717 139.883  33
  -4  -4 -12 599.984 112.988  50
  -4  -4 -12 558.566 103.540  33
  -4  -4 -13 2593.18 193.174  50
   4  -3 -16 2580.34 213.784  13
   4  -3 -16 2514.59 212.787  37
   4  -3 -15 4382.93 325.275  37
   4  -3 -14 4508.10 356.150  58
   4  -3 -14 4618.81 363.977  37
   4  -3 -13 10454.0 579.987  58
   4  -3 -13 10916.4 570.028   3
   4  -3 -12 26031.6 983.972   3
   4  -3 -12 26760.0 1025.15  58
   4  -3 -11 29553.9 1050.99  52
   4  -3 -11 28938.8 1040.40   3
   4  -3 -11 29626.4 1032.49  47
   4  -3 -10 46817.7 1432.78  43
   4  -3 -10 47854.2 1451.33  42
   4  -3 -10 48248.0 1457.74  40
   4  -3 -10 49602.7 1477.22  16
   4  -3 -10 47537.3 1442.51   3
   4  -3  -9 78471.5 2558.27   2
   4  -3  -8 19315.1 1021.42  28
   4  -3  -8 18188.8 964.689   2
   4  -3  -7 17300.1 903.150  28
   4  -3  -6 6715.88 506.359  28
   4  -3  -6 7594.29 475.785  25
   4  -3  -5 603.689 137.392  28
   4  -3  -5 989.033 154.691  25
   4  -3  -5 844.716 133.115  15
   4  -3  -4 185603. 4452.48   1
   4  -3  -4 183070. 4517.72  28
  -4  -3   4 186064. 4428.90  19
   4  -3  -3 21068.6 833.823   1
   4  -3  -3 23507.9 990.315  29
  -4  -3   3 22395.9 839.377  24
   4  -3  -3 20350.6 867.514  28
  -4  -3   3 23766.7 865.895  19
   4  -3  -2 13633.4 813.530  29
   4  -3  -2 23051.5 907.046  28
   4  -3  -1 52431.0 1590.30  26
  -4  -3   1 49957.6 1579.79  24
   4  -3  -1 54151.3 1586.32   9
   4  -3  -1 53740.2 1679.80  29
  -4  -3   0 43071.3 1405.66  24
   4  -3   0 41505.8 1381.36   9
   4  -3   0 40714.3 1399.62  29
  -4  -3   0 43396.4 1252.36  30
   4  -3   0 41911.2 1387.79  26
   4  -3   1 61312.7 1811.25  26
  -4  -3  -1 55565.6 1782.42  24
   4  -3   1 59926.4 1842.69   9
   4  -3   1 60503.9 1814.23  29
  -4  -3  -1 56563.8 1665.29  30
   4  -3   2 30839.9 1234.83  29
  -4  -3  -2 41635.5 1297.24  30
  -4  -3  -2 40717.0 1378.11  24
   4  -3   2 29385.1 1260.41   9
  -4  -3  -3 161229. 4200.07  30
  -4  -3  -3 158614. 4250.85  24
  -4  -3  -4 43507.5 1609.53  30
  -4  -3  -4 46200.8 1657.24  24
   4  -3   5 8319.95 643.583  27
  -4  -3  -5 6027.94 535.406  24
  -4  -3  -6 9448.41 691.426  24
   4  -3   6 6566.18 618.234  27
  -4  -3  -7 9426.86 521.450  55
  -4  -3  -7 9169.49 535.178  50
  -4  -3  -7 10132.9 557.057  46
  -4  -3  -8 20714.2 883.857  50
  -4  -3  -8 21264.4 889.122  46
  -4  -3  -8 18516.8 789.493  33
  -4  -3  -9 1629.23 222.604  50
  -4  -3  -9 1762.69 212.987  33
  -4  -3  -9 1650.61 221.944  46
  -4  -3 -10 13449.5 698.111  50
  -4  -3 -10 12826.1 635.572  33
  -4  -3 -11 434.633 97.8769  33
  -4  -3 -11 450.162 117.742  50
  -4  -3 -12 8055.73 452.862  50
  -4  -3 -12 7651.92 416.169  33
  -4  -3 -13 971.507 117.552  33
  -4  -3 -13 1204.68 136.416  50
   4  -2 -17 3924.00 230.083  13
   4  -2 -16 1071.18 141.943  13
   4  -2 -16 1259.41 152.435  37
   4  -2 -15 11505.0 571.800  37
   4  -2 -14 2891.83 261.856  52
   4  -2 -14 2920.45 287.748  37
   4  -2 -14 2932.08 290.774  58
   4  -2 -13 6989.95 443.852  52
   4  -2 -13 6957.43 471.954  37
   4  -2 -13 7502.61 471.713   3
   4  -2 -13 7118.26 477.044  58
   4  -2 -12 27034.1 1023.07   3
   4  -2 -12 27597.3 1024.56  52
   4  -2 -12 27605.0 1063.17  58
   4  -2 -11 24592.4 939.586   3
   4  -2 -11 25495.2 959.129  52
   4  -2 -11 25238.8 984.386  58
   4  -2 -10 59343.4 2214.95   2
   4  -2  -9 28205.1 1309.43   2
   4  -2  -8 28138.6 1233.11  28
   4  -2  -8 26926.5 1210.52   2
   4  -2  -7 41595.3 1501.40  28
   4  -2  -6 406787. 9066.68  25
   4  -2  -6 391133. 9230.96  28
   4  -2  -6 421363. 9109.55  15
   4  -2  -5 14059.0 601.537  25
   4  -2  -5 13637.6 674.723  28
   4  -2  -5 14533.5 644.632  15
   4  -2  -4 8154.88 484.759  28
   4  -2  -4 8509.91 492.170   1
  -4  -2   4 9527.42 508.688  19
   4  -2  -4 8734.82 478.469  15
   4  -2  -3 26789.9 956.886   1
  -4  -2   3 27406.8 963.806  19
   4  -2  -3 26543.7 959.674  28
   4  -2  -2 92273.9 2423.98  28
   4  -2  -2 95587.0 2447.44   9
  -4  -2   2 92609.9 2428.45  19
   4  -2  -2 93673.2 2508.95  29
  -4  -2   2 94095.5 2420.53  24
   4  -2  -1 242393. 5655.51  29
   4  -2  -1 246685. 5650.90  26
   4  -2  -1 257367. 5662.21   9
   4  -2   0 180300. 4305.83  29
  -4  -2   0 189363. 4388.69  24
   4  -2   0 178131. 4341.65  26
   4  -2   0 177091. 4362.85   9
   4  -2   1 126280. 3169.70   9
   4  -2   1 125704. 3042.54  29
   4  -2   2 75989.0 2112.19  29
   4  -2   2 72051.9 2228.21   9
  -4  -2  -2 79994.8 2234.25  24
  -4  -2  -3 14040.9 743.578  24
   4  -2   4 29251.5 1251.18  27
  -4  -2  -4 31307.0 1255.08  24
   4  -2   5 16008.9 913.368  27
   4  -2   6 196259. 5219.22  27
  -4  -2  -7 22753.5 913.321  50
  -4  -2  -8 10538.5 598.041  50
  -4  -2  -8 10475.8 586.382  46
  -4  -2  -8 10399.5 547.913  33
  -4  -2  -9 19919.6 865.346  50
  -4  -2  -9 20910.8 820.726  33
  -4  -2 -10 4414.88 353.049  33
  -4  -2 -10 4238.56 373.512  50
  -4  -2 -11 7109.87 471.208  50
  -4  -2 -11 6594.95 425.553  33
  -4  -2 -12 4274.83 331.166  50
  -4  -2 -12 4350.55 312.314  33
  -4  -2 -13 527.196 91.6653  50
  -4  -2 -13 594.240 95.3590  33
   4  -1 -17 4169.71 245.914  13
   4  -1 -16 3445.98 271.160  13
   4  -1 -16 3271.95 259.825  37
   4  -1 -15 15875.8 658.421  52
   4  -1 -15 15710.9 702.864  37
   4  -1 -15 16568.0 724.176  13
   4  -1 -14 17241.9 745.864  52
   4  -1 -14 17230.5 784.008  37
   4  -1 -14 16895.6 782.238  58
   4  -1 -13 3707.28 323.325  52
   4  -1 -13 3859.79 350.919  58
   4  -1 -13 3951.39 337.393   3
   4  -1 -13 3579.48 331.546  37
   4  -1 -12 19095.2 825.965  52
   4  -1 -12 19173.0 821.140   3
   4  -1 -12 18947.9 850.187  58
   4  -1 -11 53887.2 1635.10  52
   4  -1 -11 52137.6 1595.16   3
   4  -1 -11 52419.4 1604.01  16
   4  -1 -11 54154.8 1655.36  58
   4  -1 -10 35546.1 1591.29   2
   4  -1  -9 14884.4 902.220   2
   4  -1  -8 24935.6 1149.03   2
   4  -1  -7 19980.1 918.193  28
   4  -1  -7 20263.7 869.783  15
   4  -1  -6 197726. 4776.08  28
   4  -1  -6 197911. 4740.21  15
   4  -1  -5 198681. 4834.88  28
   4  -1  -5 205725. 4942.57   1
   4  -1  -5 210515. 4864.88  15
   4  -1  -5 207293. 4639.66  25
   4  -1  -4 198309. 4716.27   1
   4  -1  -4 203844. 4722.48  15
   4  -1  -4 195739. 4648.15  28
   4  -1  -3 135916. 3307.53   1
  -4  -1   3 135039. 3306.68  19
   4  -1  -3 133403. 3241.44  28
   4  -1  -2 505861. 11531.9  28
  -4  -1   2 511743. 11608.0  19
   4  -1  -1 241544. 5551.26  26
   4  -1  -1 241889. 5580.19   9
   4  -1  -1 240849. 5499.02  29
   4  -1   0 540420. 11622.7  26
   4  -1   0 533824. 11510.0  29
   4  -1   0 519506. 11660.6   9
   4  -1   1 30754.6 956.815  29
   4  -1   1 29111.6 1088.59   9
   4  -1   1 27888.7 853.807  14
   4  -1   2 424491. 8989.02  29
   4  -1   2 403205. 9219.94   9
   4  -1   3 10840.6 634.899  27
   4  -1   4 129953. 3511.63  27
   4  -1   5 13144.5 799.976  27
   4  -1   6 118623. 3488.34  27
   4  -1   7 44138.2 1831.74  27
  -4  -1  -8 7586.11 504.893  50
  -4  -1  -8 7368.63 490.915  46
  -4  -1  -9 2117.87 264.118  50
  -4  -1  -9 2264.63 247.443  33
  -4  -1 -10 18402.4 817.520  33
  -4  -1 -10 19472.7 897.608  50
  -4  -1 -11 16668.1 799.928  50
  -4  -1 -11 17762.8 773.249  33
  -4  -1 -12 5131.90 384.673  50
  -4  -1 -12 4612.46 344.146  33
  -4  -1 -13 322.666 76.7651  50
  -4  -1 -13 355.237 80.3344  33
   4   0 -17 3.53412 25.3610  13
   4   0 -16 1131.19 152.420  13
   4   0 -15 314.952 86.2015  13
   4   0 -15 378.822 91.7864  37
   4   0 -15 398.878 93.6248  52
   4   0 -14 8768.76 518.403  52
   4   0 -14 8843.59 548.915  13
   4   0 -14 8755.60 533.024  37
   4   0 -13 4488.11 366.132   3
   4   0 -13 4416.81 367.188  52
   4   0 -13 4121.63 357.168  37
   4   0 -13 3960.90 355.988  58
   4   0 -12 9707.95 552.167   3
   4   0 -12 10095.1 592.215  37
   4   0 -12 9243.28 563.980  52
   4   0 -11 19302.8 805.797   3
   4   0 -11 20027.5 849.076  52
   4   0 -11 19324.2 844.642  58
   4   0 -11 19865.8 818.078  16
   4   0 -10 2519.71 379.554   2
   4   0  -9 2818.08 364.468   2
   4   0  -8 233997. 5885.10   2
   4   0  -8 239987. 5756.73  15
   4   0  -7 9937.34 586.439  28
   4   0  -7 9834.07 592.093  15
   4   0  -6 87343.6 2343.80  28
   4   0  -6 84947.8 2401.01  15
   4   0  -5 1537.09 178.322  28
   4   0  -5 1362.89 201.202   1
   4   0  -5 1459.61 197.791  15
   4   0  -4 23565.5 806.559  28
   4   0  -4 23439.5 900.435   1
   4   0  -4 21621.5 886.045  15
   4   0  -3 355.424 75.3379  28
  -4   0   3 312.837 79.2085  19
   4   0  -2 3973.83 259.114  28
  -4   0   2 4570.26 329.600  19
   4   0  -1 1218.69 160.189  26
   4   0  -1 1427.04 180.868   9
   4   0   0 139585. 3419.32  26
   4   0   0 140376. 3476.57   9
   4   0   0 145973. 3331.59  14
   4   0   0 138396. 3240.60  29
   4   0   1 42263.5 1408.53   9
   4   0   1 39363.3 1226.14  14
   4   0   2 181829. 4037.63  14
   4   0   2 156719. 4230.18   9
   4   0   3 147706. 3759.35  27
   4   0   3 147622. 3526.74  14
   4   0   4 50426.9 1705.29  27
   4   0   5 39449.7 1521.46  27
   4   0   6 477.967 152.244  27
   4   0   7 24874.2 1279.38  27
  -4   0  -8 21058.5 917.255  50
  -4   0  -8 19110.7 853.733  46
  -4   0  -8 19002.5 813.672  33
  -4   0  -9 14825.8 711.094  33
  -4   0  -9 13936.6 747.934  50
  -4   0 -10 13156.5 726.912  50
  -4   0 -10 10823.0 610.255  33
  -4   0 -11 81.3899 57.7689  50
  -4   0 -11 54.1907 26.3692  33
  -4   0 -12 444.088 105.046  50
  -4   0 -12 325.890 85.8777  33
  -4   0 -13 12722.4 556.651  50
  -4   0 -13 13288.5 559.112  33
   4   1 -17 4213.36 247.992  13
   4   1 -16 3442.31 270.071  13
   4   1 -15 17245.4 752.013  13
   4   1 -15 16142.7 711.918  37
   4   1 -14 15105.1 725.914  52
   4   1 -14 16482.9 781.078  13
   4   1 -14 15851.2 747.472  37
   4   1 -13 3109.48 306.982  52
   4   1 -13 3232.56 324.993  13
   4   1 -13 2910.10 300.910  37
   4   1 -13 3100.49 296.222   3
   4   1 -12 19043.8 854.291  52
   4   1 -12 18365.6 803.451   3
   4   1 -12 17794.4 823.545  37
   4   1 -12 18253.5 842.620  58
   4   1 -11 55579.6 1712.95  52
   4   1 -11 55082.7 1650.87   3
   4   1 -11 54725.4 1703.99  58
   4   1 -11 54611.3 1683.87  37
   4   1 -10 35909.5 1611.46   2
   4   1  -9 11524.4 789.114   2
   4   1  -9 12391.4 761.314  15
   4   1  -8 22628.2 1086.67   2
   4   1  -8 22687.6 1046.76  15
   4   1  -7 21985.0 994.428  15
   4   1  -6 203961. 5004.09  15
   4   1  -5 162756. 3870.42  28
   4   1  -5 169455. 4145.83  15
   4   1  -5 168207. 4119.71   1
   4   1  -4 207157. 5009.02  15
   4   1  -4 210617. 4737.97  28
   4   1  -4 211244. 4957.16   1
   4   1  -3 121643. 2848.11  28
  -4   1   3 123759. 3057.08  19
   4   1  -3 123883. 3062.65   1
   4   1  -3 121767. 3130.96  15
   4   1  -2 533183. 11451.1  28
  -4   1   2 523932. 11680.7  19
   4   1  -2 541475. 11778.7  15
   4   1  -1 227568. 5261.57  26
   4   1  -1 235442. 5361.13   9
   4   1  -1 230572. 5281.31  14
   4   1   0 536595. 11782.0  26
   4   1   0 527853. 11859.6   9
   4   1   0 552346. 11781.7  14
   4   1   1 33706.4 1153.83   9
   4   1   1 32293.3 1063.10  14
   4   1   2 399408. 8950.21  14
   4   1   2 406401. 9116.37   9
   4   1   3 12216.3 642.911  27
   4   1   3 11895.4 673.490   9
   4   1   3 12139.7 597.780  14
   4   1   4 131220. 3492.47  27
   4   1   4 133437. 3368.95  14
   4   1   5 12927.5 764.775  27
   4   1   6 109534. 3220.66  27
   4   1   7 32234.2 1476.54  27
  -4   1  -8 6774.37 488.381  50
  -4   1  -8 5313.83 399.026  33
  -4   1  -9 1480.34 221.724  50
  -4   1  -9 1906.57 232.820  33
  -4   1 -10 21061.2 957.892  50
  -4   1 -10 20003.8 876.874  33
  -4   1 -11 17151.2 829.121  50
  -4   1 -11 18541.2 808.798  33
  -4   1 -12 5072.93 384.773  50
  -4   1 -12 4575.52 350.102  33
  -4   1 -13 541.793 105.860  50
  -4   1 -13 513.831 96.1898  33
   4   2 -17 4011.58 236.323  13
   4   2 -16 1111.79 147.428  13
   4   2 -15 12440.0 618.429  13
   4   2 -15 11701.0 528.467  48
   4   2 -14 1870.85 242.555  13
   4   2 -14 2401.78 269.599  52
   4   2 -14 2558.16 269.894  37
   4   2 -13 6434.35 464.198  52
   4   2 -13 6503.45 471.603  13
   4   2 -13 6243.79 444.716  37
   4   2 -13 6221.50 433.000   3
   4   2 -12 25931.4 995.950   3
   4   2 -12 25408.1 1044.61  52
   4   2 -12 24573.1 1004.06  37
   4   2 -12 27750.2 1076.86  13
   4   2 -11 22063.8 935.176  52
   4   2 -11 23583.3 940.460  13
   4   2 -11 22030.6 875.848   3
   4   2 -11 20215.5 869.490  37
   4   2 -11 21617.5 844.752  34
   4   2 -10 57229.7 1712.34  52
   4   2 -10 55387.8 2134.47   2
   4   2 -10 50973.7 1986.60  15
   4   2  -9 28921.9 1334.49   2
   4   2  -9 27566.4 1289.13  15
   4   2  -8 31610.4 1341.42   2
   4   2  -8 30795.1 1332.48  15
   4   2  -7 43164.1 1593.38  15
   4   2  -6 392134. 9056.48  15
   4   2  -5 17753.4 858.055  15
   4   2  -4 7708.16 473.161   1
  -4   2   4 7402.67 454.512  19
   4   2  -4 8231.59 526.335  15
   4   2  -3 21388.3 825.144   1
  -4   2   3 19886.6 801.637  19
   4   2  -3 20849.3 886.538  15
   4   2  -2 100642. 2250.40  28
  -4   2   2 97478.4 2560.32  19
   4   2  -2 95369.1 2623.76  15
   4   2  -2 99170.2 2554.29  14
   4   2  -1 256408. 5722.17  26
   4   2  -1 249024. 5896.75  15
   4   2  -1 253605. 5820.62  14
   4   2   0 163789. 3932.76  26
   4   2   0 169539. 4046.48   9
   4   2   0 167780. 4080.17  15
   4   2   0 171873. 4031.04  14
   4   2   1 115949. 3010.04  14
   4   2   1 123365. 3064.35   9
   4   2   2 74955.6 2148.14   9
   4   2   2 76092.2 2120.96  14
   4   2   3 11215.0 602.292  27
   4   2   3 11092.5 642.736   9
   4   2   3 11799.4 628.772  14
   4   2   4 29137.9 1157.81  27
   4   2   4 29472.9 1213.37   9
   4   2   4 30794.1 1174.11  14
   4   2   5 14691.2 812.378  27
   4   2   5 14917.0 796.514  14
   4   2   5 14608.4 845.070   9
   4   2   6 185178. 4865.22   9
   4   2   6 181534. 4782.57  27
  -4   2  -7 21385.3 933.143  50
  -4   2  -7 22413.5 881.451  33
  -4   2  -8 11790.8 677.460  50
  -4   2  -8 12025.9 626.180  33
  -4   2  -9 19285.6 931.355  50
  -4   2  -9 21198.6 897.724  33
  -4   2 -10 3349.73 348.473  50
  -4   2 -10 3321.84 327.488  33
  -4   2 -11 5734.11 442.065  50
  -4   2 -11 6458.71 437.382  33
  -4   2 -12 3803.26 320.609  50
  -4   2 -12 4254.20 327.549  33
  -4   2 -13 697.746 99.9238  12
  -4   2 -13 684.407 116.380  36
  -4   2 -13 756.964 116.582  33
   4   3 -16 2465.25 215.245  13
   4   3 -15 4394.07 338.754  13
   4   3 -15 4480.44 303.024  48
   4   3 -14 3922.29 349.730  13
   4   3 -14 4238.86 334.912  48
   4   3 -13 10114.7 599.132  13
   4   3 -13 9169.14 574.670  52
   4   3 -13 9513.10 541.700   3
   4   3 -12 25503.5 990.280   3
   4   3 -12 25423.5 1055.98  52
   4   3 -12 26751.6 1061.86  13
   4   3 -12 25758.4 975.432  34
   4   3 -11 28620.0 1131.58  52
   4   3 -11 31600.6 1142.27  13
   4   3 -11 28524.7 1054.23   3
   4   3 -11 29396.7 1059.96  34
   4   3 -10 50770.4 1628.46  52
   4   3 -10 52633.6 1602.43  13
   4   3 -10 50927.5 1543.96   3
   4   3 -10 53073.9 1578.53  34
   4   3  -9 76480.1 2536.41   2
   4   3  -9 75688.4 2565.17  15
   4   3  -8 20104.7 1041.91   2
   4   3  -8 20801.8 1107.64  15
   4   3  -7 14932.8 871.698  15
   4   3  -6 7797.65 589.393  15
   4   3  -5 176.089 87.2523  15
   4   3  -4 178858. 4443.45   1
  -4   3   4 188411. 4433.42  19
   4   3  -4 184858. 4622.67  15
   4   3  -3 21711.0 850.999   1
  -4   3   3 20209.1 822.616  19
   4   3  -3 20471.0 920.902  15
   4   3  -3 22510.6 881.732  14
   4   3  -2 23473.0 955.949  15
   4   3  -2 20318.7 853.412  14
   4   3  -1 53592.8 1671.92  15
   4   3  -1 57069.5 1670.32  14
   4   3   0 43708.8 1223.19  26
   4   3   0 40990.8 1344.70  15
   4   3   0 39243.6 1343.31  14
   4   3   1 65744.5 1761.29  26
   4   3   1 61801.4 1904.54  14
   4   3   1 60902.0 1844.72  15
   4   3   2 19446.6 856.455   9
   4   3   2 22094.4 935.240  14
   4   3   2 21783.8 840.027  15
   4   3   3 193496. 4584.32   9
   4   3   3 176117. 4580.35  14
   4   3   4 23031.3 986.854  27
   4   3   4 25789.0 1106.68  14
   4   3   5 8178.75 606.418  14
   4   3   6 7081.75 585.704  14
  -4   3  -7 7831.45 524.658  50
  -4   3  -7 8198.22 497.230  33
  -4   3  -8 23826.3 1015.46  50
  -4   3  -8 22722.6 933.027  33
  -4   3  -9 2064.83 271.993  50
  -4   3  -9 2292.07 263.426  33
  -4   3 -10 13876.7 763.139  50
  -4   3 -10 13758.6 712.371  33
  -4   3 -11 1163.94 182.750  50
  -4   3 -11 920.817 158.508  33
  -4   3 -12 7716.62 418.034  12
  -4   3 -12 8290.45 486.338  36
  -4   3 -12 8388.75 471.314  33
  -4   3 -13 1076.73 119.304  12
  -4   3 -13 1356.37 155.324  36
  -4   3 -13 1393.85 153.079  33
   4   4 -16 613.160 98.4393  13
   4   4 -16 554.485 80.2435  48
   4   4 -15 2513.91 238.746  13
   4   4 -15 2453.77 217.568  48
   4   4 -14 1245.72 191.313  13
   4   4 -14 1208.48 177.188  48
   4   4 -13 16498.4 779.485  13
   4   4 -13 15002.0 726.095  48
   4   4 -12 17275.6 835.816  52
   4   4 -12 17445.3 758.907   3
   4   4 -11 21633.4 899.634  13
   4   4 -11 19848.5 906.588  52
   4   4 -11 20886.1 865.681  34
   4   4 -10 118961. 3014.91  13
   4   4 -10 111830. 3044.86  52
   4   4 -10 112378. 2928.64   3
   4   4 -10 120424. 3020.51  34
   4   4  -9 27416.5 1335.49   2
   4   4  -9 30069.8 1470.77  15
   4   4  -8 7069.55 593.236   2
   4   4  -8 7613.01 672.204  15
   4   4  -7 16093.8 862.807   2
   4   4  -7 16098.5 960.336  15
   4   4  -6 47120.7 1780.87  15
  -4   4   5 162765. 3957.79  19
   4   4  -5 149824. 4161.14  15
  -4   4   4 285735. 6601.28  19
   4   4  -4 285599. 6871.36  15
   4   4  -3 213727. 5130.68   1
   4   4  -3 208846. 5332.13  15
  -4   4   3 221879. 5166.74  19
   4   4  -3 228631. 5257.85  14
   4   4  -2 53118.2 1600.35   1
   4   4  -2 51539.1 1716.50  15
   4   4  -2 51187.7 1661.39  14
  -4   4   1 36513.9 1150.04  18
   4   4  -1 34249.6 1250.68  15
   4   4  -1 36449.7 1270.73  14
   4   4   0 28852.1 1105.35  15
   4   4   0 35940.1 1245.21  14
   4   4   1 11151.6 648.232  14
   4   4   1 11532.0 580.752  15
   4   4   2 14298.3 770.011  14
   4   4   3 46941.2 1671.33  14
   4   4   4 40897.6 1575.85  14
   4   4   5 110531. 3254.05  14
  -4   4  -6 22286.7 892.656  50
   4   4   6 14147.1 662.356  39
  -4   4  -6 21188.4 815.228  33
   4   4   6 14109.6 925.499  14
  -4   4  -7 1585.48 227.443  50
   4   4   7 2046.05 217.482  39
  -4   4  -7 1859.64 229.472  33
  -4   4  -8 24298.8 1083.62  50
  -4   4  -8 26146.6 1042.72  33
  -4   4  -9 72949.7 2357.26  50
  -4   4  -9 78207.8 2307.82  33
  -4   4 -10 9041.44 594.680  50
  -4   4 -10 8914.53 512.536  12
  -4   4 -10 9549.41 565.948  33
  -4   4 -11 999.310 145.020  12
  -4   4 -11 991.801 174.177  36
  -4   4 -11 901.805 144.987  33
  -4   4 -12 551.848 108.342  12
  -4   4 -12 539.786 119.066  36
  -4   4 -12 589.128 113.605  33
  -4   4 -13 2722.68 210.708  36
   4   5 -16 2293.65 185.806  13
   4   5 -15 1105.47 144.270  13
   4   5 -15 1221.83 147.884  48
   4   5 -14 2692.45 256.428  48
   4   5 -14 2381.30 255.382  13
   4   5 -13 1630.73 217.145  13
   4   5 -13 1633.35 211.762  48
   4   5 -12 6523.02 466.006  48
   4   5 -12 7468.49 492.611  13
   4   5 -11 1027.07 165.817  13
   4   5 -11 856.256 164.348  52
   4   5 -11 1080.18 177.943  34
   4   5 -10 24988.7 985.354  13
   4   5 -10 25012.8 1023.36  52
  -4   5  10 25747.3 935.861  11
   4   5 -10 25184.0 1009.45  34
   4   5  -9 6023.95 402.110  13
   4   5  -9 5734.31 419.054  52
   4   5  -9 6618.98 425.131   5
   4   5  -9 5237.25 397.406  34
   4   5  -8 67495.2 2486.71  15
   4   5  -7 43913.0 1834.84  15
   4   5  -6 23856.0 1228.33  15
   4   5  -5 40244.9 1615.66  15
   4   5  -4 37697.9 1498.78  15
   4   5  -3 25341.8 1145.24  15
   4   5  -3 28801.2 1128.63  14
  -4   5   2 19790.8 888.356  18
   4   5  -2 19082.8 913.283  15
   4   5  -2 18832.5 892.068  14
  -4   5   1 45239.6 1498.39  18
   4   5  -1 46551.4 1568.02  15
   4   5  -1 49340.6 1625.27  14
   4   5   0 163068. 4183.18  14
   4   5   1 25217.4 1110.70  14
   4   5   2 62404.1 2074.47  14
   4   5   3 37027.2 1503.66  14
   4   5   4 7449.86 626.463  14
  -4   5  -4 8220.63 630.298  22
   4   5   5 4478.60 495.217  14
  -4   5  -6 7208.78 498.538  50
  -4   5  -6 7188.47 432.055  12
   4   5   6 7363.59 440.888  39
  -4   5  -6 7067.02 481.993  46
  -4   5  -6 7896.19 487.953  33
  -4   5  -7 17936.0 873.377  50
  -4   5  -7 17334.3 764.186  12
  -4   5  -7 18187.1 823.468  33
  -4   5  -8 14832.4 688.360  12
  -4   5  -8 16055.6 761.119  33
   4   5   9 6849.55 422.997  39
  -4   5  -9 6086.20 469.939  36
  -4   5  -9 6691.03 437.548  12
  -4   5  -9 6360.18 461.303  33
  -4   5 -10 17228.2 743.409  12
   4   5  10 18840.3 715.220  39
  -4   5 -10 16043.5 805.820  36
  -4   5 -10 17391.9 802.282  33
  -4   5 -11 1501.54 177.071  12
  -4   5 -11 1290.04 191.925  36
  -4   5 -11 1601.87 200.016  33
  -4   5 -12 1284.07 145.011  12
  -4   5 -12 1244.11 165.362  36
   4   6 -15 4757.90 289.162  48
   4   6 -15 4887.62 304.062  13
   4   6 -14 8523.39 479.656  13
   4   6 -14 9035.64 483.180  48
   4   6 -13 3063.08 291.550  13
   4   6 -13 2805.58 275.838  48
   4   6 -12 9419.61 550.261  13
  -4   6  12 8887.64 474.203  53
   4   6 -12 8584.32 536.897  48
   4   6 -11 12545.2 654.992  13
   4   6 -11 11516.5 642.976  48
  -4   6  11 12396.7 600.455  11
   4   6 -10 13331.3 692.459  48
  -4   6  10 13033.7 632.173  11
   4   6 -10 13589.6 674.322  13
   4   6 -10 14137.8 721.614  34
   4   6  -9 36789.6 1218.71  13
   4   6  -9 35181.0 1236.00   5
   4   6  -9 33874.5 1249.80  34
   4   6  -8 29567.3 1009.66  13
   4   6  -8 26548.1 996.366  52
   4   6  -8 27332.6 1054.93  34
   4   6  -8 27923.6 1042.12   5
   4   6  -7 11843.2 903.444  15
   4   6  -6 116881. 3594.24  15
   4   6  -5 29159.4 1379.65  15
   4   6  -4 19327.1 1037.88  15
  -4   6   3 44436.4 1652.26  18
   4   6  -3 39185.0 1557.70  15
   4   6  -3 41736.6 1529.73  14
  -4   6   2 78867.4 2353.99  18
   4   6  -2 72615.9 2285.33  15
   4   6  -2 72461.4 2291.00  14
   4   6  -1 68857.3 2189.90  14
   4   6   0 3003.73 355.619  14
   4   6   1 21581.6 1071.07  14
   4   6   2 28423.0 1315.32  14
   4   6   3 23445.6 1204.06  14
  -4   6  -4 16884.5 1014.37  22
   4   6   4 16675.9 1016.57  14
   4   6   4 16546.7 700.175  39
  -4   6  -5 12795.9 604.285  12
  -4   6  -5 13530.9 683.536  46
   4   6   5 14524.1 652.791  39
  -4   6  -5 12418.4 647.518  36
  -4   6  -6 6916.61 479.021  46
   4   6   6 7228.11 453.727  39
  -4   6  -6 6922.48 482.768  36
  -4   6  -6 7975.65 500.614  33
  -4   6  -6 7421.63 452.017  12
  -4   6  -7 1897.06 223.116  12
   4   6   7 2262.86 240.647  39
  -4   6  -7 1483.30 213.701  36
  -4   6  -7 1748.02 231.814  33
  -4   6  -8 9974.47 545.485  12
   4   6   8 8617.58 503.438  39
  -4   6  -8 9938.53 616.909  36
  -4   6  -9 67.2852 6.82810  12
  -4   6  -9 14.4252 40.2799  36
  -4   6 -10 6155.68 391.287  12
   4   6  10 6051.88 364.418  39
  -4   6 -10 5673.56 425.992  36
  -4   6 -11 602.722 106.755  12
  -4   6 -11 445.810 97.9704  36
  -4   6 -12 3050.67 209.749  12
  -4   6 -12 3009.73 236.745  36
   4   7 -14 10424.6 498.440  48
   4   7 -14 11194.8 515.071  13
   4   7 -13 5059.51 364.226  48
   4   7 -13 5791.43 385.493  13
  -4   7  12 506.097 104.405  53
   4   7 -12 563.651 120.810  48
  -4   7  12 477.318 97.1342  11
   4   7 -12 615.332 127.707  13
   4   7 -11 391.939 105.681  13
   4   7 -11 379.982 101.102  48
  -4   7  11 550.863 118.960  53
  -4   7  11 511.617 108.145  11
   4   7 -10 5934.42 425.187  13
   4   7 -10 5388.72 416.497  48
  -4   7  10 6025.77 408.375  11
   4   7  -9 16605.5 773.094  48
   4   7  -9 18882.5 797.853  13
   4   7  -9 17189.4 815.984  34
   4   7  -8 15919.1 729.200  48
   4   7  -8 17780.0 803.003  34
   4   7  -8 17897.0 794.777   5
   4   7  -7 29503.3 1063.94  48
   4   7  -7 32397.2 1130.64  44
   4   7  -7 31090.4 1141.83  34
   4   7  -7 30038.1 1125.23   5
   4   7  -6 15134.5 685.242  44
   4   7  -6 15650.2 657.123  13
   4   7  -6 14675.2 689.601  34
   4   7  -6 15344.0 702.226   5
   4   7  -5 61849.5 2298.99  15
  -4   7   4 13818.3 950.454  18
   4   7  -4 14190.3 910.751  15
  -4   7   3 6390.53 596.879  18
   4   7  -3 6035.59 542.359  15
   4   7  -3 5767.43 513.167  14
  -4   7   2 9446.90 697.672  18
   4   7  -2 6203.86 551.292  14
   4   7  -1 55745.4 1983.73  14
   4   7   0 34513.6 1473.01  14
   4   7   1 14042.0 891.972  14
   4   7   2 15134.2 971.227  14
  -4   7  -3 16759.2 763.910  46
   4   7   3 17417.5 678.675   7
  -4   7  -3 16120.0 685.480  12
   4   7   3 17331.8 713.197  39
  -4   7  -3 15321.3 699.244  36
   4   7   4 21254.5 802.898   7
  -4   7  -4 22822.4 948.255  46
   4   7   4 21497.4 861.516  39
  -4   7  -4 23152.2 917.766  36
  -4   7  -5 14540.9 672.621  12
  -4   7  -5 14727.8 734.157  46
   4   7   5 15399.4 696.787  39
  -4   7  -5 14090.1 707.496  36
  -4   7  -6 8107.43 480.146  12
   4   7   6 6854.75 451.625  39
  -4   7  -6 7898.32 519.955  36
  -4   7  -7 32798.6 1147.35  12
   4   7   7 33671.4 1151.22  39
  -4   7  -7 30878.3 1208.78  36
  -4   7  -8 5587.40 395.620  12
   4   7   8 4608.65 350.833  39
  -4   7  -8 5696.39 442.545  36
  -4   7  -9 5384.42 371.270  12
   4   7   9 5700.43 367.459  39
  -4   7  -9 5023.84 400.618  36
  -4   7 -10 4858.61 323.695  12
  -4   7 -10 4660.64 365.873  36
  -4   7 -11 890.670 115.621  12
  -4   7 -11 1046.68 143.683  36
  -4   8  13 5553.90 303.964  53
   4   8 -13 5787.24 362.442  48
  -4   8  13 5759.59 309.175  11
  -4   8  12 2274.10 212.493  53
   4   8 -12 2424.15 248.507  48
  -4   8  12 2206.94 210.471  11
  -4   8  11 1284.42 169.733  53
   4   8 -11 1267.81 187.130  48
  -4   8  11 1410.83 178.896  11
   4   8 -10 6278.38 438.947  48
  -4   8  10 6215.37 413.381  11
   4   8 -10 6643.22 447.274  13
   4   8  -9 139.305 50.3023  48
  -4   8   9 54.5585 51.9088  11
   4   8  -8 30953.0 1103.60  48
   4   8  -8 31840.8 1180.05   5
   4   8  -8 31067.7 1171.80  34
   4   8  -7 43046.9 1336.78  48
   4   8  -7 42520.7 1418.11  34
   4   8  -7 41259.3 1410.62   5
   4   8  -6 28605.7 1072.17  44
   4   8  -6 29637.1 1072.67  34
   4   8  -6 28580.7 1082.41   5
   4   8  -5 6605.26 438.286  44
   4   8  -5 5722.47 408.920   5
   4   8  -4 24191.4 952.345   5
   4   8  -4 25873.7 899.903   7
   4   8  -4 25631.9 985.066  44
   4   8  -4 27845.6 946.414   6
   4   8  -3 91838.7 2327.41   7
   4   8  -3 87291.1 2423.68  44
  -4   8   2 16660.8 706.616  10
   4   8  -2 14505.3 693.802  44
   4   8  -2 15528.9 645.652   7
   4   8  -1 36379.2 1121.10   7
   4   8  -1 32195.7 1173.39  44
   4   8  -1 32740.7 1500.52  14
   4   8   0 15696.7 663.946   7
  -4   8   0 15849.7 670.195  36
  -4   8  -1 29218.0 1058.90  10
   4   8   1 31878.6 1041.86  39
  -4   8  -1 29801.0 1046.14  36
   4   8   2 25865.1 919.090   7
   4   8   2 23530.0 906.248  39
   4   8   3 23270.9 843.614   7
   4   8   3 22678.6 865.677  39
   4   8   4 13287.9 606.297   7
   4   8   4 13149.5 644.601  39
  -4   8  -5 6456.45 427.261  12
   4   8   5 5799.61 407.349  39
  -4   8  -5 5987.94 436.670  36
  -4   8  -6 4750.14 364.570  12
   4   8   6 4505.52 351.263  39
  -4   8  -6 5046.46 400.470  36
  -4   8  -7 2527.70 257.128  12
   4   8   7 2672.30 263.114  39
  -4   8  -7 2288.01 264.600  36
  -4   8  -8 7087.24 437.430  12
   4   8   8 6510.30 407.391  39
  -4   8  -8 6871.92 464.343  36
   4   8   9 8746.52 443.200  39
  -4   8  -9 7716.43 478.263  36
   4   8  10 1102.35 130.751  39
  -4   8 -10 1480.77 178.392  36
  -4   8 -11 1132.33 131.721  36
  -4   9  13 2287.68 167.313  53
  -4   9  13 2444.41 179.870  39
  -4   9  12 4931.65 297.925  53
  -4   9  12 5209.73 307.570  11
  -4   9  11 7678.67 423.669  53
   4   9 -11 8447.92 468.485  48
  -4   9  11 7811.89 426.135  11
  -4   9  10 2911.63 261.392  53
   4   9 -10 2917.07 275.396  48
  -4   9  10 2944.47 264.245  11
   4   9  -9 11592.3 584.841  48
  -4   9   9 11972.1 595.870  11
   4   9  -8 4936.10 359.084  48
  -4   9   8 4677.42 363.316  11
   4   9  -7 11997.1 641.635   5
   4   9  -6 4453.11 373.504  44
   4   9  -6 5106.06 396.542   5
   4   9  -5 3685.21 326.416  44
   4   9  -5 3254.60 302.135   5
   4   9  -4 10574.3 524.622   7
   4   9  -4 11521.7 620.233  44
   4   9  -4 10580.1 553.391   6
   4   9  -4 11701.0 598.793   5
   4   9  -3 19983.1 776.944   7
   4   9  -3 18080.6 827.226  44
   4   9  -3 20088.8 791.467   6
   4   9  -2 23829.9 878.237   7
   4   9  -2 22596.8 941.983  44
   4   9  -2 23522.6 875.666   6
   4   9  -1 42713.9 1293.85   7
   4   9  -1 37452.9 1340.35  44
   4   9   0 18233.7 765.165   7
   4   9   0 17786.7 829.890  44
  -4   9   0 21345.2 832.055  10
  -4   9   0 21219.8 820.091  36
   4   9   1 15812.0 760.033  44
   4   9   1 16211.9 694.612   7
  -4   9  -1 15718.7 701.486  36
   4   9   2 39180.2 1261.21   7
   4   9   2 39045.2 1255.70  39
  -4   9  -2 41706.4 1334.97  36
   4   9   3 16095.2 676.339   7
   4   9   3 15973.6 692.275  39
  -4   9  -3 14316.8 695.180  36
   4   9   4 24406.6 867.886   7
   4   9   4 23024.7 896.901  39
  -4   9  -4 22051.7 924.308  36
   4   9   5 1667.98 205.678  39
  -4   9  -5 1887.98 231.636  36
   4   9   6 2321.07 247.365  39
  -4   9  -6 4750.60 376.720  36
   4   9   7 1243.21 166.527  39
  -4   9  -7 1201.73 177.839  36
   4   9   8 3550.74 271.999  39
  -4   9  -8 4246.74 332.667  36
   4   9   9 1008.14 124.117  39
  -4   9  -9 859.348 137.521  36
  -4   9 -10 3202.63 233.406  36
  -4  10  12 907.688 104.793  53
  -4  10  12 1042.73 112.631  11
  -4  10  11 19.6705 25.7571  53
  -4  10  11-5.70265 19.2707  11
  -4  10  10 4290.68 301.720  53
  -4  10  10 4139.89 294.937  11
  -4  10   9 3252.01 272.027  53
  -4  10   9 3026.21 265.114  11
  -4  10   8 5304.64 372.517  11
  -4  10   7 3801.47 317.101  11
  -4  10   6 12712.8 626.150  11
   4  10  -5 10231.7 506.448   7
   4  10  -5 10353.3 578.832  44
  -4  10   5 9254.16 474.356   7
   4  10  -4 18112.3 729.524   7
   4  10  -4 17592.8 801.631  44
   4  10  -3 27.6738 31.1783   7
   4  10  -3 21.0404 36.1845  44
   4  10  -3 70.2874 40.3088   6
   4  10  -2 15489.6 679.349   7
   4  10  -2 15497.3 747.725  44
   4  10  -2 15644.8 688.733   6
   4  10  -1 37752.7 1326.70  44
  -4  10   1 36870.3 1266.22   6
   4  10   0 40676.7 1282.43   7
   4  10   0 38474.6 1343.93  44
   4  10   1 10586.8 542.637   7
   4  10   1 9764.47 569.147  44
  -4  10  -1 10850.4 564.658  36
   4  10   2 7529.18 442.574   7
   4  10   2 7375.98 475.330  44
  -4  10  -2 7828.79 477.135  36
   4  10   3 7139.75 416.445   7
   4  10   3 7176.09 424.270  39
   4  10   3 6997.50 451.654  44
  -4  10  -3 6717.22 444.847  36
   4  10   4 20002.1 743.622   7
   4  10   4 18399.2 754.587  39
  -4  10  -4 18715.1 807.807  36
   4  10   5 4628.07 327.753  39
  -4  10  -5 4492.05 352.064  36
   4  10   6 25187.4 882.459  39
  -4  10  -6 24145.6 934.363  36
   4  10   7 912.983 125.676  39
  -4  10  -7 924.237 143.163  36
   4  10   8 23325.3 760.090  39
  -4  10  -8 21361.8 803.661  36
  -4  10  -9 1669.01 163.660  36
  -4  11  11 387.844 65.4755  53
  -4  11  11 253.900 48.6744  11
  -4  11  11 315.443 55.8333  39
  -4  11  10 6853.08 349.311  53
  -4  11  10 7065.99 352.524  11
  -4  11   9 5239.91 320.714  53
  -4  11   9 5244.00 321.018  11
  -4  11   8 2617.21 234.078  53
  -4  11   8 2576.02 231.978  11
  -4  11   7 610.429 114.184  53
  -4  11   7 587.331 112.126  11
  -4  11   6 12049.0 579.358  11
   4  11  -5 2106.02 206.608   7
  -4  11   5 2287.71 206.770   7
  -4  11   5 2267.53 231.850  11
  -4  11   4 1014.79 155.233  11
   4  11  -4 886.201 135.990   7
   4  11  -4 1281.85 185.071  44
  -4  11   4 1001.67 143.915   7
   4  11  -3 4448.23 320.672   7
   4  11  -3 4190.24 339.535  44
   4  11  -2 2401.51 239.847   7
   4  11  -2 3052.60 289.952  44
   4  11  -2 2670.55 255.890   6
  -4  11   2 2719.65 271.793   6
   4  11  -1 20656.6 798.489   7
   4  11  -1 21259.5 810.257   6
  -4  11   0 1851.06 211.092   6
   4  11   0 1891.50 203.918   7
   4  11   1 10162.0 514.463   7
   4  11   2 11526.7 543.384   7
   4  11   3 21726.3 784.829   7
  -4  11  -3 20816.3 836.737  36
   4  11   4 868.935 123.547   7
   4  11   4 851.977 127.240  39
  -4  11  -5 1088.79 143.640   7
   4  11   5 1631.23 168.740  39
  -4  11  -5 1329.89 168.562  36
   4  11   6 536.651 99.7134  39
  -4  11  -6 2103.49 211.910  36
  -4  11  -7 7521.98 396.721  36
  -4  12   9 5686.34 285.829  53
  -4  12   9 5596.02 283.791  11
  -4  12   8 2591.28 199.630  53
  -4  12   8 2523.14 196.593  11
  -4  12   7 833.144 118.715  53
  -4  12   7 834.977 114.882  11
  -4  12   6 4649.38 301.427  53
  -4  12   6 4765.76 305.474  11
  -4  12   5 546.670 105.916  53
  -4  12   5 451.349 92.7768  11
   4  12  -5 461.677 82.1310   7
  -4  12   5 381.560 86.8436   6
   4  12  -4 4610.91 296.309   7
  -4  12   4 4220.40 283.218   7
  -4  12   4 4280.38 320.601   6
  -4  12   3 4788.19 316.921   7
  -4  12   3 4962.35 349.218   6
  -4  12   2 1646.70 186.064   7
   4  12  -2 1426.64 172.170   7
  -4  12   2 1663.12 193.075   6
   4  12  -1 3771.89 277.880   7
  -4  12   1 3030.90 258.172   7
   4  12  -1 3470.78 266.012   6
  -4  12   1 2932.83 256.019   6
  -4  12   0 5113.05 346.861   7
   4  12   0 5591.90 344.728   7
  -4  12   0 4969.13 329.615   6
   4  12   1 4187.60 290.034   7
  -4  12  -1 3502.03 280.994   7
   4  12   2 7360.77 384.205   7
  -4  12  -2 7099.19 409.893   7
   4  12   3 2787.93 211.921   7
  -4  12  -3 2363.06 216.443   7
  -4  12  -4 4660.49 298.053   7
   4  12   4 5882.10 291.126   7
  -4  13   6 1156.75 122.229   6
  -4  13   5 1359.04 141.974   6
   4  13  -4 2695.76 192.925   7
  -4  13   4 2315.43 174.378   7
  -4  13   4 2402.32 199.532   6
   4  13  -3 3005.58 213.134   7
  -4  13   3 2617.08 201.080   7
  -4  13   3 2721.28 212.375   6
   4  13  -2 662.738 102.291   7
  -4  13   2 465.794 80.3959   7
  -4  13   2 617.888 98.6268   6
   4  13  -1 196.854 45.9731   7
  -4  13   1 194.145 54.7606   7
   4  13   0 10124.1 435.893   7
  -4  13   0 9812.92 453.167   7
   4  13   1 131.462 49.9974   7
  -4  13  -1 133.506 58.3141   7
   4  13   2 126.544 40.6514   7
  -4  13  -2 223.172 58.2693   7
   4  13   3 242.346 46.6584   7
  -4  13  -3 353.565 71.7390   7
   5 -13  -5 4056.14 231.331  31
   5 -13  -5 4204.57 232.257  43
   5 -13  -5 3775.26 209.010  32
   5 -13  -4 1665.71 142.047  32
   5 -13  -3 3216.07 206.200  32
   5 -13  -2 284.911 61.6880  32
   5 -13  -1 311.127 58.5357  32
   5 -12  -8 11105.4 423.265  31
   5 -12  -8 11172.5 443.565  60
   5 -12  -8 9996.36 411.004  47
   5 -12  -8 10838.1 429.812  43
   5 -12  -7 1678.84 153.070  31
   5 -12  -7 1641.39 150.937  47
   5 -12  -7 1755.68 161.675  43
   5 -12  -7 1569.50 145.762  42
   5 -12  -7 1654.74 148.047  32
   5 -12  -6 3565.45 244.053  31
   5 -12  -6 3400.02 232.920  47
   5 -12  -6 3494.33 244.374  43
   5 -12  -6 3504.21 234.334  42
   5 -12  -6 3399.46 235.001  32
   5 -12  -5 1978.43 175.295  42
   5 -12  -5 1795.91 166.038  47
   5 -12  -5 1998.15 179.271  32
   5 -12  -4 13119.8 543.233  32
   5 -12  -4 12725.6 520.264  42
   5 -12  -3 1228.30 149.767  32
   5 -12  -3 1008.60 127.015  42
   5 -12  -2 4820.03 290.160  42
   5 -12  -1 2006.47 176.050  38
  -5 -12  -3 752.441 98.8358  50
   5 -12   3 758.207 94.9320  56
  -5 -12  -4 3219.20 200.432  50
   5 -12   4 1242.65 124.766  56
   5 -11 -10 4443.02 244.137  31
   5 -11 -10 4491.37 265.126  47
   5 -11 -10 4561.09 261.715  43
   5 -11 -10 4714.52 267.434  60
   5 -11  -9 2983.00 210.446  31
   5 -11  -9 2764.67 216.881  47
   5 -11  -9 3016.51 224.240  43
   5 -11  -9 3147.90 231.328  60
   5 -11  -8 537.554 94.7046  32
   5 -11  -8 489.322 94.5141  42
   5 -11  -8 552.066 98.3051  31
   5 -11  -8 624.675 108.972  47
   5 -11  -8 421.097 92.6863  43
   5 -11  -7 490.782 87.0076  32
   5 -11  -7 430.988 87.1312  31
   5 -11  -7 550.194 100.761  47
   5 -11  -7 596.489 107.446  43
   5 -11  -7 412.005 84.6944  42
   5 -11  -6 9412.46 470.564  32
   5 -11  -6 8946.65 460.955  42
   5 -11  -6 9186.52 441.606  38
   5 -11  -5 4123.84 302.295  32
   5 -11  -5 3952.56 290.123  42
   5 -11  -5 4195.09 287.390  38
   5 -11  -4 2859.13 256.704  32
   5 -11  -4 2917.55 253.826  42
   5 -11  -4 2855.99 238.881  38
   5 -11  -3 9280.22 467.624  38
   5 -11   0 3355.96 261.896  56
  -5 -11  -2 11044.0 513.739  50
  -5 -11  -3 79.6881 26.0977  50
  -5 -11  -4 2054.60 194.272  50
  -5 -11  -5 2574.31 207.721  50
  -5 -11  -6 2342.62 183.852  50
  -5 -11  -6 2446.21 197.652  46
   5 -10 -12 1492.12 142.763  47
   5 -10 -11 9290.70 428.471  47
   5 -10 -11 9250.30 410.603  43
   5 -10 -11 9415.19 413.034  60
   5 -10 -10 2610.03 226.225  47
   5 -10 -10 2528.44 199.526  31
   5 -10 -10 2537.48 213.220  43
   5 -10 -10 2473.42 211.319  60
   5 -10  -9 18035.7 720.169  47
   5 -10  -9 18403.1 707.030  43
   5 -10  -9 18157.5 707.327  42
   5 -10  -9 18108.1 690.644  32
   5 -10  -9 18004.4 679.154  31
   5 -10  -8 4066.83 300.224  31
   5 -10  -8 3747.19 293.345  32
   5 -10  -8 4356.27 330.464  47
   5 -10  -8 4231.85 316.075  43
   5 -10  -8 3898.64 308.035  42
   5 -10  -7 2338.11 225.916  32
   5 -10  -7 2339.08 231.207  42
   5 -10  -7 2393.48 220.889  38
   5 -10  -7 2111.27 215.396  40
   5 -10  -6 7237.90 442.989  32
   5 -10  -6 8004.36 458.197  42
   5 -10  -6 8003.34 449.249  40
   5 -10  -6 7464.66 431.533  38
   5 -10  -6 7329.13 433.127  49
   5 -10  -5 3017.71 275.477  32
   5 -10  -5 2988.06 258.187  49
   5 -10  -5 3315.07 274.429  38
   5 -10  -4 3875.99 300.375  49
   5 -10  -4 3391.53 287.976  38
   5 -10  -1 8859.05 483.819  56
  -5 -10  -2 11035.5 546.574  50
  -5 -10  -3 16104.2 682.299  50
  -5 -10  -4 938.192 146.486  50
  -5 -10  -5 5173.06 339.705  50
  -5 -10  -6 4476.88 301.602  50
  -5 -10  -7 1022.56 130.169  50
  -5 -10  -7 962.454 129.094  46
  -5 -10  -8 3360.70 223.247  50
  -5 -10  -8 3929.82 243.475  46
   5  -9 -13 807.142 99.0862  47
   5  -9 -13 791.941 92.4429  58
   5  -9 -12 1995.11 185.575  47
   5  -9 -12 1943.85 171.776  60
   5  -9 -12 2058.74 182.717  58
   5  -9 -11 3244.58 232.133  31
   5  -9 -11 3027.58 250.251  47
   5  -9 -11 3228.65 248.659  43
   5  -9 -11 3349.50 250.965  60
   5  -9 -10 5180.07 361.078  47
   5  -9 -10 4939.85 321.747  31
   5  -9 -10 4883.99 338.358  43
   5  -9 -10 4776.01 342.801  42
   5  -9 -10 4708.79 323.379  32
   5  -9 -10 4947.60 339.635  60
   5  -9  -9 7169.80 409.511  31
   5  -9  -9 7707.16 441.454  43
   5  -9  -9 7395.17 437.623  42
   5  -9  -9 7305.39 446.813  47
   5  -9  -9 7420.00 427.023  32
   5  -9  -8 17868.8 761.149  40
   5  -9  -8 17683.9 722.842  31
   5  -9  -8 17742.7 736.024  32
   5  -9  -8 18149.7 750.028  43
   5  -9  -8 16710.7 739.718  42
   5  -9  -8 17300.2 718.907  38
   5  -9  -7 7704.77 464.174  49
   5  -9  -7 8075.53 468.065  32
   5  -9  -7 8076.83 473.702  42
   5  -9  -7 7901.12 474.649  40
   5  -9  -7 8048.83 457.736  38
   5  -9  -6 10997.8 566.809  32
   5  -9  -6 10968.3 564.599  49
   5  -9  -6 10949.6 570.987  42
   5  -9  -6 10699.9 563.012  40
   5  -9  -6 11136.4 556.920  38
   5  -9  -5 2361.20 241.044  40
   5  -9  -5 2774.34 257.664  38
   5  -9  -5 2613.71 239.640  59
   5  -9  -5 2539.49 249.616  49
   5  -9  -4 3660.58 304.298  49
   5  -9  -4 3840.41 303.476  40
   5  -9  -4 4213.25 311.784  59
   5  -9  -3 20765.9 826.744  49
   5  -9  -3 22124.7 838.146  56
   5  -9  -3 22048.9 823.431  59
   5  -9  -2 24365.9 937.929  56
   5  -9  -2 28195.4 958.525  59
  -5  -9  -3 5455.80 377.480  50
  -5  -9  -4 11658.0 585.580  50
  -5  -9  -5 16499.7 713.579  50
  -5  -9  -6 2898.97 259.683  50
  -5  -9  -6 2699.71 231.746  41
  -5  -9  -7 4885.77 329.411  50
  -5  -9  -7 5101.64 348.510  46
  -5  -9  -8 4205.67 282.838  50
  -5  -9  -8 3881.86 277.828  46
  -5  -9  -9 3631.30 235.079  50
  -5  -9  -9 3619.31 232.569  46
   5  -8 -14 4125.05 230.923  58
   5  -8 -13 1544.46 145.068  33
   5  -8 -13 1517.84 158.170  47
   5  -8 -13 1665.00 161.486  37
   5  -8 -13 1627.65 145.251  60
   5  -8 -13 1711.38 165.010  58
   5  -8 -12 9481.67 478.288  47
   5  -8 -12 9227.78 439.141  60
   5  -8 -11 3108.27 243.390  31
   5  -8 -11 3332.10 279.704  47
   5  -8 -11 3431.44 273.812  43
   5  -8 -11 3157.18 258.243  60
   5  -8 -10 7079.94 403.776  31
   5  -8 -10 6918.43 444.188  47
   5  -8 -10 7073.29 423.124  43
   5  -8 -10 7129.14 437.662  42
   5  -8 -10 7062.40 423.576  32
   5  -8  -9 9442.78 485.316  31
   5  -8  -9 9045.30 490.721  32
   5  -8  -9 8167.81 477.728  43
   5  -8  -9 9314.84 512.670  42
   5  -8  -9 8881.09 523.568  40
   5  -8  -8 16998.3 710.138  31
   5  -8  -8 17035.7 732.369  32
   5  -8  -8 17086.7 748.587  42
   5  -8  -8 16624.7 758.002  40
   5  -8  -8 17545.3 731.307  38
   5  -8  -7 13767.7 663.264  49
   5  -8  -7 14350.8 668.429  42
   5  -8  -7 14122.5 674.166  40
   5  -8  -7 15242.3 664.817  38
   5  -8  -7 13676.0 645.370  32
   5  -8  -6 2564.44 253.193  32
   5  -8  -6 3034.38 280.723  49
   5  -8  -6 3065.30 284.083  40
   5  -8  -6 2670.44 254.836  38
   5  -8  -6 2886.83 265.799  59
   5  -8  -5 1066.41 157.124  40
   5  -8  -5 1225.15 174.537  49
   5  -8  -5 1055.98 153.923  38
   5  -8  -5 1090.57 155.273  59
   5  -8  -4 51614.0 1533.76  49
   5  -8  -4 48719.0 1476.88  56
   5  -8  -4 51635.8 1531.49  40
   5  -8  -4 51646.4 1504.29  59
   5  -8  -3 4484.42 332.492  40
   5  -8  -3 5071.27 344.777  59
  -5  -8  -3 2504.43 251.303  50
  -5  -8  -4 49147.6 1518.90  50
  -5  -8  -5 3458.58 292.084  55
  -5  -8  -5 3126.45 285.663  50
  -5  -8  -5 3337.79 278.461  41
  -5  -8  -6 17808.1 761.400  50
  -5  -8  -6 17027.6 709.158  41
  -5  -8  -7 4762.60 348.388  50
  -5  -8  -7 5164.01 378.150  46
  -5  -8  -8 4283.75 314.083  50
  -5  -8  -8 4249.12 316.637  46
  -5  -8  -9 1528.88 167.547  50
  -5  -8  -9 1545.66 168.916  46
   5  -8   9 1397.40 139.958  51
  -5  -8 -10 6430.02 325.032  50
   5  -7 -14 4006.16 264.039  37
   5  -7 -14 3624.18 252.675  58
   5  -7 -13 4893.83 319.028  47
   5  -7 -13 5499.45 310.345  33
   5  -7 -13 5125.68 330.072  58
   5  -7 -12 995.061 146.334  43
   5  -7 -12 1110.80 160.924  47
   5  -7 -12 822.029 124.043  60
   5  -7 -11 8030.79 425.941  31
   5  -7 -11 8103.98 478.710  47
   5  -7 -11 8023.84 449.674  43
   5  -7 -11 7876.90 465.611  42
   5  -7 -11 7945.15 445.845  60
   5  -7 -10 10369.1 517.282  31
   5  -7 -10 9703.13 527.596  43
   5  -7 -10 10443.6 556.564  42
   5  -7 -10 11111.4 596.586  40
   5  -7 -10 9812.40 529.375  32
   5  -7 -10 10387.1 564.681  47
   5  -7  -9 6723.65 403.018  31
   5  -7  -9 6886.74 425.652  43
   5  -7  -9 6849.28 439.096  42
   5  -7  -9 6816.13 455.176  40
   5  -7  -9 6815.25 426.756  38
   5  -7  -9 7177.15 436.654  32
   5  -7  -8 12065.8 575.018  31
   5  -7  -8 11376.1 585.848  32
   5  -7  -8 12571.9 636.038  40
   5  -7  -8 12206.8 610.606  42
   5  -7  -8 12158.1 622.939  49
   5  -7  -8 11701.1 587.225  38
   5  -7  -7 5104.44 360.104  32
   5  -7  -7 5510.68 381.864  42
   5  -7  -7 5389.93 390.428  40
   5  -7  -7 5042.89 368.174  49
   5  -7  -7 5392.10 366.159  38
   5  -7  -6 21831.5 860.721  32
   5  -7  -6 21367.9 819.036  56
   5  -7  -6 25608.8 941.216  40
   5  -7  -6 24179.7 888.874  59
   5  -7  -6 23228.2 880.515  38
   5  -7  -6 25477.4 925.203  49
   5  -7  -5 13502.8 617.547  49
   5  -7  -5 13051.1 581.577  56
   5  -7  -5 12489.6 603.824  40
   5  -7  -5 13346.3 599.801  59
   5  -7  -4 17558.2 717.306  40
   5  -7  -4 15984.8 672.203  59
   5  -7  -3 55290.4 2244.64  29
   5  -7  -3 50398.5 1997.29  28
   5  -7  -2 88403.0 2806.77  28
   5  -7  -2 94485.5 3104.71  29
   5  -7  -1 36764.8 1599.12  28
  -5  -7   1 34424.9 1554.11  24
  -5  -7  -3 12592.3 600.452  50
  -5  -7  -4 18129.5 774.053  50
  -5  -7  -4 17788.2 728.239  41
  -5  -7  -4 18442.4 764.905  55
  -5  -7  -5 19485.4 819.674  50
  -5  -7  -5 20296.7 826.197  55
  -5  -7  -5 19501.9 791.223  41
  -5  -7  -6 7129.78 458.276  50
  -5  -7  -6 6893.33 426.659  41
  -5  -7  -6 6762.81 439.337  55
  -5  -7  -7 128.381 49.5866  50
  -5  -7  -7 80.7750 48.0542  46
  -5  -7  -8 5714.88 395.051  50
  -5  -7  -8 5877.31 407.779  46
  -5  -7  -9 2227.55 220.117  50
  -5  -7  -9 2015.57 208.944  46
   5  -7  10 2995.27 215.391  51
  -5  -7 -10 3226.94 245.804  50
  -5  -7 -10 2731.52 217.969  46
   5  -6 -15 4898.17 281.212  37
   5  -6 -15 5269.66 287.967  58
   5  -6 -14 1166.95 151.113  37
   5  -6 -14 1311.72 157.014  58
   5  -6 -13 9359.91 479.157  47
   5  -6 -13 9920.62 511.126  58
   5  -6 -12 3847.64 313.256  47
   5  -6 -12 3792.73 296.496  43
   5  -6 -11 3432.09 266.274  31
   5  -6 -11 3241.37 289.967  47
   5  -6 -11 2900.44 263.771  43
   5  -6 -11 3400.62 292.133  42
   5  -6 -11 3532.28 280.643  60
   5  -6 -10 3388.61 309.941  47
   5  -6 -10 3294.45 295.905  43
   5  -6 -10 3272.38 302.201  42
   5  -6 -10 3285.93 318.174  40
   5  -6 -10 2991.12 290.282  32
   5  -6 -10 3438.31 284.268  31
   5  -6  -9 6430.92 399.835  43
   5  -6  -9 6311.26 409.905  42
   5  -6  -9 6778.89 416.391  32
   5  -6  -9 6140.95 398.110  38
   5  -6  -9 6160.56 424.384  40
   5  -6  -8 74069.5 2025.51  31
   5  -6  -8 76850.1 2085.21  32
   5  -6  -8 77915.4 2125.09  49
   5  -6  -8 76959.8 2095.51  42
   5  -6  -8 78635.0 2151.86  40
   5  -6  -8 76430.7 2082.22  38
   5  -6  -7 24622.8 914.211  49
   5  -6  -7 24743.6 899.373  32
   5  -6  -7 24653.2 928.181  40
   5  -6  -7 24954.4 895.580  38
   5  -6  -7 24557.5 899.969  59
   5  -6  -6 4218.52 489.540  28
   5  -6  -6 3545.05 418.238  25
   5  -6  -5 104066. 3143.57  25
   5  -6  -5 110056. 3278.14  28
   5  -6  -4 14234.2 891.006  28
   5  -6  -3 41155.9 1778.83  29
   5  -6  -3 38658.4 1601.02  28
   5  -6  -2 129923. 3625.69  28
   5  -6  -2 131773. 3865.21  29
   5  -6  -1 25092.2 1207.84  28
  -5  -6   1 23421.3 1170.16  24
   5  -6  -1 24475.3 1315.17  29
   5  -6   0 43010.1 1744.02  28
   5  -6   0 43748.8 1895.57  29
   5  -6   1 14446.3 996.705  29
   5  -6   1 14865.6 877.069  26
  -5  -6  -1 14960.8 938.207  24
   5  -6   1 15414.8 937.575  28
   5  -6   2 28976.8 1513.84  29
   5  -6   2 27110.5 1311.52  26
  -5  -6  -3 47.5952 391.931  55
  -5  -6  -3 29429.6 898.361  50
  -5  -6  -4 9224.44 501.815  55
  -5  -6  -4 9279.33 508.200  50
  -5  -6  -4 8845.98 474.294  41
  -5  -6  -5 43192.1 1381.26  55
  -5  -6  -5 43072.8 1382.71  50
  -5  -6  -5 42589.3 1337.39  41
  -5  -6  -6 7382.84 469.769  55
  -5  -6  -6 7667.05 486.138  50
  -5  -6  -6 7079.60 446.162  41
  -5  -6  -7 14198.6 692.277  50
  -5  -6  -7 15320.9 732.974  46
  -5  -6  -8 1416.85 196.701  50
  -5  -6  -8 1216.81 182.652  46
  -5  -6  -9 2317.13 239.295  50
  -5  -6  -9 2420.39 242.785  46
  -5  -6 -10 3490.73 281.107  50
  -5  -6 -10 3147.37 254.387  46
  -5  -6 -11 3770.27 256.664  50
   5  -5 -15 2473.51 212.949  37
   5  -5 -15 2677.01 217.511  58
   5  -5 -14 5648.00 363.064  58
   5  -5 -14 5811.31 376.240  37
   5  -5 -13 960.321 142.975  47
   5  -5 -13 880.980 143.943  58
   5  -5 -12 20712.7 824.167  47
   5  -5 -11 4402.51 341.357  47
   5  -5 -11 4539.42 336.695  43
   5  -5 -11 4316.69 336.689  42
   5  -5 -10 25761.3 957.822  47
   5  -5 -10 25914.0 937.871  43
   5  -5 -10 25069.0 949.437  42
   5  -5 -10 25824.4 991.842  40
   5  -5 -10 25181.0 945.143  32
   5  -5  -9 27247.8 962.002  43
   5  -5  -9 27755.8 991.893  42
   5  -5  -9 27680.7 1021.92  40
   5  -5  -9 28452.9 994.435  32
   5  -5  -9 27239.7 983.393  38
   5  -5  -8 36231.9 1192.79  49
   5  -5  -8 36593.4 1178.02  42
   5  -5  -8 38409.3 1231.81  40
   5  -5  -8 35503.1 1165.03  32
   5  -5  -8 36454.5 1173.21  38
   5  -5  -7 42991.4 1741.35  28
   5  -5  -6 8351.52 664.016  28
   5  -5  -6 8154.50 593.235  25
   5  -5  -5 7706.56 612.244  28
   5  -5  -5 7558.34 562.820  25
   5  -5  -4 2008.68 305.046  28
   5  -5  -3 104887. 3069.07  28
  -5  -5   3 102690. 2941.09  24
   5  -5  -3 112396. 3263.08  29
  -5  -5   2 92717.2 2687.54  24
   5  -5  -2 90395.1 2728.28  28
   5  -5  -2 89695.0 2864.60  29
   5  -5  -1 28356.6 1330.25  29
   5  -5  -1 27850.5 1231.96  28
  -5  -5   1 26259.0 1197.00  24
   5  -5  -1 29584.5 1164.73   9
   5  -5   0 4672.49 442.027  26
  -5  -5   0 6087.72 524.363  24
   5  -5   0 5028.85 516.249  29
   5  -5   0 5117.39 447.759   9
   5  -5   1 15039.6 928.550  29
   5  -5   1 14856.3 846.226  26
  -5  -5  -1 12037.1 801.903  24
   5  -5   1 15101.4 852.718   9
   5  -5   2 25202.8 1275.10  29
   5  -5   2 24123.5 1185.63   9
   5  -5   2 23803.5 1168.61  26
  -5  -5  -2 23831.1 1200.61  24
   5  -5   3 16370.8 969.005  26
   5  -5   3 16888.5 1035.38  29
  -5  -5  -3 14136.8 921.680  24
   5  -5   3 16347.5 1001.90   9
  -5  -5  -4 15921.4 688.273  55
  -5  -5  -4 16803.7 702.883  50
   5  -5   4 15213.2 1019.04   9
  -5  -5  -5 40118.7 1293.38  55
  -5  -5  -5 40311.6 1297.56  50
  -5  -5  -5 38107.7 1246.18  41
  -5  -5  -6 19966.0 839.999  55
  -5  -5  -6 20592.9 856.403  50
  -5  -5  -6 19144.4 799.679  41
  -5  -5  -7 221.108 82.4970  50
  -5  -5  -7 240.785 56.6794  46
  -5  -5  -8 6496.37 449.224  50
  -5  -5  -8 6227.93 442.317  46
  -5  -5  -9 2666.76 274.295  50
  -5  -5  -9 2743.97 269.297  46
  -5  -5 -10 3299.72 285.761  50
  -5  -5 -10 3347.64 274.558  46
  -5  -5 -11 1054.32 142.930  50
   5  -5  12 6420.92 305.798  51
  -5  -5 -12 7024.58 335.022  50
   5  -4 -16 1257.60 132.445  13
   5  -4 -16 1164.08 128.982  37
   5  -4 -15 3378.17 267.277  37
   5  -4 -15 3330.59 262.705  58
   5  -4 -14 5912.77 399.482  37
   5  -4 -14 5711.92 390.473  58
   5  -4 -13 4097.55 316.299   3
   5  -4 -13 4104.31 338.168  58
   5  -4 -12 5309.59 373.312  52
   5  -4 -12 5434.06 369.845  47
   5  -4 -12 5127.92 363.437   3
   5  -4 -12 5169.15 391.088  58
   5  -4 -11 1844.52 212.634   3
   5  -4 -11 1669.11 198.445  47
   5  -4 -11 1544.23 184.370  43
   5  -4 -10 6464.07 422.585  47
   5  -4 -10 6443.22 417.744  42
   5  -4 -10 6016.50 396.295  43
   5  -4 -10 7242.08 455.005  40
   5  -4 -10 7339.45 449.894  16
   5  -4  -9 38056.3 1197.25  43
   5  -4  -9 38654.5 1224.98  42
   5  -4  -9 39478.2 1257.86  40
   5  -4  -9 37041.4 1219.18  16
   5  -4  -9 40137.8 1246.77  32
   5  -4  -8 28716.1 1368.20  28
   5  -4  -7 31564.6 1377.26  28
  -5  -4   7 30529.3 1284.38  19
   5  -4  -6 24232.3 1034.27  25
  -5  -4   6 25399.8 1080.97  19
   5  -4  -6 24048.8 1142.34  28
   5  -4  -5 3621.62 384.128  28
   5  -4  -5 3544.44 345.725  25
  -5  -4   5 3957.47 365.220  19
  -5  -4   4 184372. 4732.75  19
   5  -4  -4 194335. 4904.56  28
   5  -4  -3 14105.5 775.415  28
  -5  -4   3 14227.6 736.729  24
   5  -4  -3 15739.8 882.978  29
   5  -4  -3 14660.0 719.524   1
   5  -4  -2 19615.9 839.146   1
   5  -4  -2 16788.2 932.158  29
   5  -4  -2 17937.5 900.255  28
  -5  -4   2 19986.3 918.072  24
   5  -4  -1 7781.22 594.041  29
   5  -4  -1 8942.22 595.086  28
   5  -4  -1 7509.00 538.914  26
  -5  -4   1 8482.38 583.640  24
   5  -4  -1 8207.17 541.165   9
   5  -4   0 94275.2 2901.90  29
   5  -4   0 99065.5 2850.13  26
   5  -4   0 99254.3 2823.89   9
   5  -4   1 3770.83 394.096  26
  -5  -4  -1 3169.79 363.308  24
   5  -4   1 3638.64 397.987  29
   5  -4   1 3557.46 387.426   9
   5  -4   2 27832.3 1259.99  29
  -5  -4  -2 28689.7 1284.23  24
   5  -4   2 27238.5 1236.22  26
   5  -4   2 27719.9 1268.08   9
   5  -4   3 68559.3 2278.36  29
   5  -4   3 67570.4 2257.19  26
   5  -4   3 67630.3 2334.72   9
   5  -4   4 50048.8 1952.41  29
   5  -4   4 48266.8 2012.86   9
  -5  -4  -5 2547.59 248.331  55
  -5  -4  -5 2544.66 254.142  50
  -5  -4  -5 2425.54 232.500  41
  -5  -4  -6 28230.7 1058.52  50
  -5  -4  -6 29584.2 1094.91  46
  -5  -4  -7 2600.82 271.975  50
  -5  -4  -7 2404.48 270.477  46
  -5  -4  -8 13719.8 698.906  50
  -5  -4  -8 13932.2 706.554  46
  -5  -4  -9 3098.07 298.911  50
  -5  -4  -9 2929.89 288.657  46
  -5  -4 -10 2698.18 267.682  50
  -5  -4 -10 2598.90 253.740  46
  -5  -4 -11 1162.75 157.988  50
  -5  -4 -12 1240.72 142.149  50
   5  -3 -16 2033.97 184.170  13
   5  -3 -16 2143.89 195.256  37
   5  -3 -15 722.864 127.379  37
   5  -3 -15 558.334 108.485  58
   5  -3 -14 16649.5 692.095  52
   5  -3 -14 17134.4 755.952  37
   5  -3 -14 16690.4 739.161  58
   5  -3 -13 4621.74 350.799   3
   5  -3 -13 5005.05 362.317  52
   5  -3 -13 4575.76 364.254  58
   5  -3 -12 25007.6 956.605   3
   5  -3 -12 24585.2 953.668  52
   5  -3 -12 24158.8 971.701  58
   5  -3 -11 42830.2 1379.57   3
   5  -3 -11 44621.2 1416.56  16
   5  -3 -10 17770.6 751.023  40
   5  -3 -10 17027.6 725.771  42
   5  -3 -10 17926.9 764.291  16
   5  -3  -9 31509.6 1449.40  28
   5  -3  -9 31488.0 1433.88   2
   5  -3  -8 49317.4 1848.57  28
   5  -3  -7 54392.6 1894.26  28
   5  -3  -6 89059.4 2614.04  28
  -5  -3   6 88294.0 2570.90  19
   5  -3  -5 71138.0 2054.21  25
   5  -3  -5 69668.1 2194.82  28
  -5  -3   5 76450.8 2197.17  19
   5  -3  -5 71684.8 2191.32   1
   5  -3  -5 76916.1 2133.84  15
   5  -3  -4 357704. 8405.77  28
   5  -3  -4 367954. 8370.80   1
  -5  -3   4 370346. 8376.08  19
   5  -3  -3 49913.3 1667.96  28
  -5  -3   3 52272.4 1659.55  19
   5  -3  -3 56493.0 1817.76  29
   5  -3  -3 52203.2 1644.38   1
   5  -3  -2 73423.4 2177.66  28
  -5  -3   2 72260.2 2159.06  24
   5  -3  -2 78202.1 2290.23  29
   5  -3  -1 152206. 3865.58  26
  -5  -3   1 143279. 3845.18  24
   5  -3  -1 158029. 3870.54   9
   5  -3  -1 149488. 3905.11  29
  -5  -3   0 3149.04 345.335  24
   5  -3   0 3300.78 344.701  26
   5  -3   0 3968.90 378.239   9
   5  -3   1 85138.4 2460.24  29
   5  -3   1 86706.7 2497.68  26
   5  -3   1 84764.8 2505.21   9
   5  -3   2 82030.2 2454.95  26
   5  -3   2 79836.7 2497.29   9
   5  -3   2 81252.1 2401.69  29
   5  -3   3 55671.8 1850.60  29
   5  -3   3 54359.8 1977.05   9
   5  -3   4 42758.2 1835.75   9
   5  -3   4 42285.6 1689.32  29
   5  -3   5 40194.7 1803.24   9
  -5  -3  -6 37453.6 1278.58  50
  -5  -3  -6 38870.8 1312.91  46
  -5  -3  -7 1208.98 187.786  50
  -5  -3  -7 1335.84 190.673  46
  -5  -3  -8 52898.9 1705.06  50
  -5  -3  -8 55394.0 1720.66  46
  -5  -3  -9 4769.98 378.496  46
  -5  -3  -9 5230.36 407.073  50
  -5  -3 -10 7087.94 473.885  50
  -5  -3 -10 7044.32 453.418  46
  -5  -3 -11 8636.62 482.565  50
  -5  -3 -12 4954.85 313.485  50
   5  -2 -16 1760.68 182.097  13
   5  -2 -16 1997.89 192.255  37
   5  -2 -15 2444.88 222.389  52
   5  -2 -15 2559.45 249.111  37
   5  -2 -15 2527.73 237.655  13
   5  -2 -14 2620.46 262.719  52
   5  -2 -14 2967.79 295.482  37
   5  -2 -14 3182.07 292.178   3
   5  -2 -14 2466.61 269.993  58
   5  -2 -13 20643.6 857.725   3
   5  -2 -13 20173.4 849.601  52
   5  -2 -13 21056.4 888.127  58
   5  -2 -12 34638.9 1227.02   3
   5  -2 -12 36924.3 1261.78  52
   5  -2 -12 36340.4 1268.79  58
   5  -2 -11 25055.9 959.593   3
   5  -2 -11 25228.9 970.851  16
   5  -2 -11 26137.0 999.036  58
   5  -2 -10 24014.6 901.124  40
   5  -2 -10 26549.9 967.612  16
   5  -2  -9 44946.2 1769.83  28
   5  -2  -9 45214.6 1802.69   2
   5  -2  -8 34284.7 1424.51  28
   5  -2  -7 45864.4 1628.53  28
   5  -2  -6 49704.2 1686.66  28
   5  -2  -6 52894.8 1656.06  15
   5  -2  -5 110657. 3083.76   1
   5  -2  -5 111163. 3034.11  28
  -5  -2   5 115161. 3085.41  19
   5  -2  -5 121465. 3056.30  15
   5  -2  -4 127305. 3346.39  28
  -5  -2   4 131591. 3385.29  19
   5  -2  -4 130977. 3388.39   1
   5  -2  -4 133785. 3394.44  15
   5  -2  -3 105405. 2816.50  28
  -5  -2   3 109184. 2881.79  19
   5  -2  -3 108162. 2852.16   1
   5  -2  -2 72147.5 2085.08  29
   5  -2  -2 68666.9 2019.92  28
   5  -2  -2 72534.1 2072.10   9
   5  -2  -1 282868. 6644.47  26
   5  -2  -1 284958. 6663.49   9
   5  -2  -1 286844. 6629.64  29
   5  -2   0 55279.8 1755.40  26
   5  -2   0 54577.2 1772.16   9
   5  -2   0 54266.7 1692.51  29
   5  -2   1 46353.4 1616.66  26
   5  -2   1 48845.5 1673.69   9
   5  -2   1 48531.9 1544.08  29
   5  -2   2 73971.1 2130.41  29
   5  -2   2 69881.1 2282.22   9
   5  -2   3 10469.9 628.762  29
   5  -2   3 10643.6 740.425   9
   5  -2   4 20983.4 1161.16   9
   5  -2   5 103704. 3307.92   9
  -5  -2  -6 44818.6 1451.07  50
  -5  -2  -6 46146.9 1479.75  46
  -5  -2  -7 85127.6 2417.51  50
  -5  -2  -7 88118.7 2427.92  46
  -5  -2  -8 25303.8 1048.28  50
  -5  -2  -8 26343.1 1056.83  46
  -5  -2  -9 1294.64 200.875  50
  -5  -2  -9 1504.18 207.136  46
  -5  -2  -9 1289.89 170.286  33
  -5  -2 -10 8048.37 514.781  50
  -5  -2 -10 7391.23 438.688  33
  -5  -2 -11 9826.40 541.931  50
  -5  -2 -11 10465.2 497.909  33
  -5  -2 -12 2201.73 212.440  50
  -5  -2 -12 2226.36 185.768  33
   5  -1 -17 1422.07 133.221  13
   5  -1 -16 2731.44 230.993  37
   5  -1 -16 2635.62 229.171  13
   5  -1 -15 185.237 66.0041  52
   5  -1 -15 240.899 71.4802  37
   5  -1 -15 267.136 66.9644  13
   5  -1 -14 5156.73 379.827  52
   5  -1 -14 5258.24 392.867  37
   5  -1 -14 5276.58 395.182  58
   5  -1 -14 5105.88 378.056   3
   5  -1 -13 6832.30 456.039   3
   5  -1 -13 7464.44 485.126  52
   5  -1 -13 7342.71 489.264  58
   5  -1 -13 7407.79 487.055  37
   5  -1 -12 19483.3 837.210   3
   5  -1 -12 20073.9 864.459  52
   5  -1 -12 19423.9 860.900  58
   5  -1 -11 41770.3 1382.11  52
   5  -1 -11 40374.0 1328.63   3
   5  -1 -11 39455.4 1328.12  16
   5  -1 -11 41350.1 1369.06  58
   5  -1 -10 51883.2 1568.69  16
   5  -1 -10 53247.0 1601.85  58
   5  -1  -9 2798.84 378.884   2
   5  -1  -8 54680.7 1877.77  28
   5  -1  -7 9380.67 602.367  28
   5  -1  -7 9881.31 615.494  15
   5  -1  -6 10694.5 612.238  28
   5  -1  -6 11189.9 643.669  15
   5  -1  -5 12166.0 678.304   1
   5  -1  -5 11879.4 618.094  28
  -5  -1   5 11257.2 645.661  19
   5  -1  -5 13105.0 681.599  15
   5  -1  -4 17655.8 811.347   1
   5  -1  -4 17281.4 745.543  28
  -5  -1   4 17067.6 796.317  19
   5  -1  -4 17132.0 808.294  15
   5  -1  -3 24609.8 897.939  28
  -5  -1   3 21959.0 931.801  19
   5  -1  -2 87975.7 2303.23  28
   5  -1  -2 82591.3 2342.78  26
   5  -1  -1 2885.62 262.331  29
   5  -1  -1 2589.42 268.615  26
   5  -1  -1 3227.49 311.124   9
   5  -1   0 781961. 16845.3  29
   5  -1   0 771914. 17062.7   9
   5  -1   0 778134. 17015.7  26
   5  -1   1 690854. 14654.3  29
   5  -1   1 656932. 14853.5  26
   5  -1   1 661697. 14923.8   9
   5  -1   2 96926.2 2828.69   9
   5  -1   3 1395.17 241.450   9
   5  -1   4 20282.7 1103.86   9
   5  -1   5 25348.7 1316.39   9
  -5  -1  -6 15070.6 710.803  50
  -5  -1  -6 15252.8 726.264  46
  -5  -1  -7 16161.0 770.688  50
  -5  -1  -7 15721.6 763.887  46
  -5  -1  -8 17798.3 851.019  50
  -5  -1  -8 19177.1 861.379  46
  -5  -1  -8 16092.6 726.427  33
  -5  -1  -9 20829.1 939.469  50
  -5  -1  -9 21334.3 916.749  46
  -5  -1  -9 22944.7 885.210  33
  -5  -1 -10 9171.03 564.075  50
  -5  -1 -10 7672.37 459.913  33
  -5  -1 -11 589.565 111.759  33
  -5  -1 -11 596.667 120.049  50
  -5  -1 -12 5630.32 360.851  50
  -5  -1 -12 5123.76 308.518  33
   5   0 -17 1056.88 112.912  13
   5   0 -16 10747.3 498.457  13
   5   0 -15 132.356 36.9087  13
   5   0 -15 164.470 63.3770  37
   5   0 -15 240.088 76.7556  52
   5   0 -14 8231.15 506.727  52
   5   0 -14 7611.63 492.738  13
   5   0 -14 8062.47 495.642   3
   5   0 -14 8192.22 506.165  37
   5   0 -13 5423.49 416.428  52
   5   0 -13 5442.90 412.988  37
   5   0 -13 5223.31 397.873   3
   5   0 -13 5419.95 416.427  58
   5   0 -12 49350.7 1585.51  52
   5   0 -12 48052.8 1531.18   3
   5   0 -12 47316.4 1555.97  58
   5   0 -11 32504.0 1153.74   3
   5   0 -11 32856.3 1158.68  16
   5   0 -11 34260.0 1223.60  52
   5   0 -11 34038.7 1199.93  58
   5   0 -10 3406.30 315.332  52
   5   0 -10 3329.54 293.058  16
   5   0  -9 26172.6 1287.07   2
   5   0  -8 63872.0 2099.32  15
   5   0  -7 7611.17 511.674  28
   5   0  -7 7499.26 554.900  15
   5   0  -6 11505.1 600.499  28
   5   0  -6 9758.81 635.678  15
   5   0  -5 2944.97 268.815  28
   5   0  -5 2760.60 301.367   1
  -5   0   5 3145.51 314.307  19
   5   0  -5 3025.77 324.918  15
   5   0  -4 114076. 3026.96   1
   5   0  -4 115434. 2863.45  28
  -5   0   4 112996. 3014.36  19
   5   0  -4 113932. 3069.73  15
   5   0  -3 2232.07 211.409  28
  -5   0   3 2039.30 245.447  19
   5   0  -3 2325.05 271.188  15
   5   0  -1 3234.59 297.085  26
   5   0  -1 2899.43 295.628   9
   5   0   0 63768.1 1897.07  26
   5   0   0 63469.5 1936.94   9
   5   0   0 65219.6 1787.15  14
   5   0   1 538369. 12033.9  26
   5   0   1 542851. 12124.8   9
   5   0   1 539446. 11835.7  14
   5   0   2 9242.19 623.870   9
   5   0   3 22466.2 1083.81   9
   5   0   4 122794. 3552.10   9
   5   0   5 10033.2 770.449   9
   5   0   6 103196. 3337.26  27
   5   0   6 98312.6 3370.69   9
  -5   0  -7 65568.3 1967.09  50
  -5   0  -7 63488.0 1948.81  46
  -5   0  -8 199215. 4981.24  50
  -5   0  -8 199584. 4962.20  46
  -5   0  -8 209440. 4853.82  33
  -5   0  -9 3544.37 329.928  46
  -5   0  -9 3408.75 347.890  50
  -5   0  -9 3471.15 307.264  33
  -5   0 -10 16255.5 789.660  50
  -5   0 -10 13424.2 656.628  33
  -5   0 -11 150.148 76.6672  50
  -5   0 -11 130.284 64.0691  33
  -5   0 -12 711.119 111.496  33
  -5   0 -12 648.952 117.422  50
   5   1 -17 1243.94 123.441  13
   5   1 -16 2492.49 222.008  13
   5   1 -15 253.933 80.5945  52
   5   1 -15 349.758 99.7578  13
   5   1 -15 166.348 59.1936  37
   5   1 -14 4906.34 389.898  52
   5   1 -14 4554.51 370.851  13
   5   1 -14 5092.42 383.040   3
   5   1 -14 5193.77 386.682  37
   5   1 -13 7977.34 505.587  13
   5   1 -13 7132.85 473.144   3
   5   1 -13 7599.83 493.511  37
   5   1 -13 7380.95 503.930  52
   5   1 -12 21198.3 934.866  52
   5   1 -12 21621.5 909.592  13
   5   1 -12 20854.2 880.288   3
   5   1 -12 21872.1 911.537  37
   5   1 -12 20411.8 899.163  58
   5   1 -11 40225.0 1372.15  52
   5   1 -11 39034.2 1292.78   3
   5   1 -11 37610.4 1279.11  16
   5   1 -11 38243.4 1313.01  58
   5   1 -10 50369.4 1593.83  52
   5   1  -9 3133.19 405.555   2
   5   1  -9 3226.70 394.877  15
   5   1  -8 60279.0 2085.72  15
   5   1  -7 8289.83 615.769  15
   5   1  -6 14211.7 805.362  15
   5   1  -5 10005.0 618.006   1
  -5   1   5 12017.5 654.362  19
   5   1  -5 10353.8 653.374  15
   5   1  -4 14592.3 736.222   1
  -5   1   4 14858.1 734.524  19
   5   1  -4 14752.3 780.893  15
   5   1  -3 27287.9 864.370  28
  -5   1   3 27662.1 1061.99  19
   5   1  -3 26021.4 1088.41  15
   5   1  -2 81890.9 2036.55  28
   5   1  -2 75463.5 2299.53  15
   5   1  -1 1809.47 221.552  26
   5   1  -1 1519.55 202.964  14
   5   1   0 759377. 16700.8   9
   5   1   0 758204. 16605.2  26
   5   1   0 768413. 16581.4  14
   5   1   1 646042. 14431.6  26
   5   1   1 665749. 14550.8   9
   5   1   1 659433. 14373.4  14
   5   1   2 87989.0 2636.92   9
   5   1   2 95147.1 2511.19  14
   5   1   3 1253.28 225.158   9
   5   1   4 19300.7 1030.37   9
   5   1   5 23861.3 1222.05   9
  -5   1  -6 19503.4 849.821  50
   5   1   6 19400.1 1096.85  27
   5   1   6 19608.6 1134.70   9
  -5   1  -7 16157.8 789.603  50
  -5   1  -7 14940.6 766.626  46
  -5   1  -7 16771.1 722.220  33
  -5   1  -8 20306.9 937.900  50
  -5   1  -8 20811.5 926.130  46
  -5   1  -8 18045.3 804.427  33
  -5   1  -9 19479.4 928.862  50
  -5   1  -9 21386.4 872.605  33
  -5   1 -10 9982.24 602.455  50
  -5   1 -10 8184.71 497.146  33
  -5   1 -11 450.632 106.414  50
  -5   1 -11 534.262 107.370  33
  -5   1 -12 4604.48 326.344  50
  -5   1 -12 4552.81 295.976  33
  -5   1 -13 587.907 88.7957  36
   5   2 -16 1509.75 167.684  13
   5   2 -16 1548.89 150.018  48
   5   2 -15 2510.87 246.528  13
   5   2 -15 2200.03 212.002  48
   5   2 -14 2608.94 282.393  13
   5   2 -14 3240.47 317.600  52
   5   2 -14 2908.11 278.869  37
   5   2 -14 3185.58 298.368   3
   5   2 -13 22110.4 962.452  52
   5   2 -13 23274.0 954.889  13
   5   2 -13 22116.8 910.724   3
   5   2 -13 21730.9 903.524  37
   5   2 -12 33442.9 1270.92  52
   5   2 -12 35347.1 1241.72  13
   5   2 -12 33724.0 1206.31   3
   5   2 -11 21604.3 955.064  52
   5   2 -11 24209.8 937.142  13
   5   2 -11 22636.6 903.520   3
   5   2 -11 21643.2 880.619  16
   5   2 -11 23065.1 890.537  34
   5   2 -10 28896.2 1084.61  52
   5   2 -10 25249.1 967.298  13
   5   2 -10 27505.4 986.859  16
   5   2 -10 27216.5 992.243  34
   5   2  -9 51123.6 1974.99   2
   5   2  -9 50478.5 1961.91  15
   5   2  -8 35285.0 1532.37  15
   5   2  -7 39322.2 1592.60  15
   5   2  -6 55564.5 1947.83  15
   5   2  -5 114915. 3153.18   1
  -5   2   5 118004. 3123.20  19
   5   2  -5 114948. 3261.75  15
  -5   2   4 132715. 3418.38  19
   5   2  -4 131055. 3557.02  15
   5   2  -4 131162. 3432.69   1
   5   2  -3 107824. 2847.11   1
  -5   2   3 102690. 2835.13  19
   5   2  -3 107328. 2953.49  15
   5   2  -2 62240.7 1981.41  15
   5   2  -2 65110.4 1903.42  14
   5   2  -1 299694. 6812.92  26
   5   2  -1 298227. 7018.14  15
   5   2  -1 298562. 6899.99  14
   5   2   0 57398.7 1712.08  26
   5   2   0 60250.0 1827.89   9
   5   2   0 58624.7 1850.56  15
   5   2   0 58142.5 1775.29  14
   5   2   1 50058.5 1569.30  26
   5   2   1 51944.3 1669.31   9
   5   2   1 51667.9 1663.95  15
   5   2   1 48625.4 1591.73  14
   5   2   2 64564.1 2068.72   9
   5   2   2 69150.1 2033.79  14
   5   2   3 10952.5 648.614  14
   5   2   3 11680.6 717.369   9
   5   2   4 15637.7 910.703   9
   5   2   4 19730.2 941.247  14
   5   2   5 104560. 3152.41   9
  -5   2  -6 43812.5 1409.90  50
  -5   2  -6 45522.2 1447.77  46
  -5   2  -7 79724.5 2334.85  50
  -5   2  -7 77774.1 2310.81  46
  -5   2  -7 81653.2 2215.69  33
  -5   2  -8 20125.6 954.915  46
  -5   2  -8 22833.8 930.982  33
  -5   2  -9 1132.35 194.731  50
  -5   2  -9 1100.62 172.320  33
  -5   2 -10 9213.50 581.655  50
  -5   2 -10 9018.90 518.864  33
  -5   2 -11 10145.5 569.685  50
  -5   2 -11 10332.0 526.962  33
  -5   2 -12 2129.69 214.453  50
  -5   2 -12 2159.34 199.211  33
   5   3 -16 1674.25 176.568  13
   5   3 -16 1828.40 163.483  48
   5   3 -15 462.899 92.4373  13
   5   3 -15 530.476 99.8698  48
   5   3 -14 18455.4 804.421  13
   5   3 -14 18256.8 825.938  52
   5   3 -13 4830.58 373.790   3
   5   3 -13 5618.91 416.647  13
   5   3 -13 5086.79 414.524  52
   5   3 -12 25577.0 1008.65  13
   5   3 -12 25096.2 1060.09  52
   5   3 -12 24614.9 975.783   3
   5   3 -12 24822.3 967.561  34
   5   3 -11 40474.6 1317.92  13
   5   3 -11 37853.1 1367.42  52
   5   3 -11 37578.1 1268.95   3
   5   3 -11 39589.7 1300.04  34
   5   3 -10 17143.8 800.362  52
   5   3 -10 16015.6 702.498  16
   5   3 -10 16867.4 709.299   5
   5   3 -10 17975.6 771.241  34
   5   3  -9 31521.0 1461.34   2
   5   3  -9 30757.6 1495.49  15
   5   3  -8 45470.3 1862.04  15
   5   3  -7 51108.4 1960.25  15
  -5   3   6 88817.7 2587.81  19
   5   3  -6 88455.2 2803.24  15
  -5   3   5 67174.2 2057.49  19
   5   3  -5 65851.2 2234.05  15
   5   3  -5 69826.2 2135.51   1
   5   3  -4 369751. 8643.85   1
  -5   3   4 389277. 8653.45  19
   5   3  -4 369443. 8831.34  15
  -5   3   3 45141.3 1531.73  19
   5   3  -3 45079.9 1637.95  15
   5   3  -3 47760.6 1551.90   1
   5   3  -2 75624.6 2327.78  15
   5   3  -2 79323.5 2257.86  14
   5   3  -1 138975. 3692.04  15
   5   3  -1 144056. 3651.03  14
   5   3   0 2204.13 275.228  15
   5   3   0 2202.21 271.550  14
   5   3   1 90373.8 2472.03   9
   5   3   1 84125.5 2423.76  15
   5   3   1 81762.6 2444.31  14
   5   3   2 97200.3 2624.71   9
   5   3   2 83165.0 2562.12  14
   5   3   3 50887.8 1773.81  14
   5   3   4 41187.6 1577.42  14
  -5   3  -6 39359.8 1350.49  50
  -5   3  -6 38031.3 1342.67  46
  -5   3  -6 36837.7 1228.42  33
  -5   3  -7 1154.04 194.380  46
   5   3   7 962.266 143.288  39
  -5   3  -7 1182.86 199.296  50
  -5   3  -7 1285.73 185.477  33
  -5   3  -8 55293.4 1829.49  50
  -5   3  -8 55396.1 1709.03  33
  -5   3  -9 3768.91 369.520  50
  -5   3  -9 3479.37 317.692  33
  -5   3 -10 7294.94 513.650  50
  -5   3 -10 6004.34 422.349  33
  -5   3 -11 8294.13 502.208  50
  -5   3 -11 8784.32 474.929  33
  -5   3 -12 5422.58 345.731  36
  -5   3 -12 5692.89 326.626  33
   5   4 -16 1345.03 140.117  13
   5   4 -16 1355.53 131.720  48
   5   4 -15 3493.53 275.238  13
   5   4 -15 3132.64 253.786  48
   5   4 -14 5605.29 395.702  48
   5   4 -14 5673.75 398.842  13
   5   4 -13 4298.48 352.614  13
   5   4 -13 4004.30 364.976  52
   5   4 -13 3990.37 325.387   3
   5   4 -12 4662.75 377.896  13
   5   4 -12 4711.63 404.868  52
   5   4 -12 4740.94 363.583   3
   5   4 -12 4849.58 381.448  34
   5   4 -11 1634.00 211.766  13
   5   4 -11 1422.70 213.600  52
   5   4 -11 1596.50 201.235   3
   5   4 -11 1337.44 198.895  34
   5   4 -10 8371.20 530.065  52
   5   4 -10 7333.48 461.524   3
   5   4 -10 7592.46 470.366   5
   5   4 -10 8984.71 538.702  34
   5   4  -9 31430.4 1072.56  13
   5   4  -9 30758.0 1149.85  52
   5   4  -9 32055.8 1152.56  34
   5   4  -9 33100.6 1115.99   5
   5   4  -8 32089.1 1456.04   2
   5   4  -8 35969.5 1661.56  15
  -5   4   7 29177.3 1262.62  19
   5   4  -7 28285.4 1410.31  15
  -5   4   6 26583.9 1139.45  19
   5   4  -6 27058.4 1332.17  15
  -5   4   5 3976.95 375.461  19
   5   4  -5 3400.71 417.725  15
   5   4  -4 178252. 4587.92   1
   5   4  -4 169011. 4776.56  15
   5   4  -3 14453.9 846.536  15
   5   4  -3 15146.9 794.875  14
   5   4  -3 14314.0 750.190   1
   5   4  -2 16641.2 802.441   1
   5   4  -2 16068.5 875.474  15
   5   4  -2 16676.6 835.473  14
   5   4  -1 6745.38 516.940  15
   5   4  -1 6875.19 513.651  14
   5   4   0 92188.2 2628.07  15
   5   4   0 92744.6 2674.87  14
   5   4   1 8327.60 591.531  14
   5   4   2 23830.3 1117.19  14
   5   4   3 69190.1 2283.63  14
   5   4   4 43171.8 1712.28  14
  -5   4  -5 1788.08 233.364  50
  -5   4  -5 1932.10 243.984  46
   5   4   5 2216.34 221.513  39
  -5   4  -5 1579.67 194.991  33
  -5   4  -6 27086.8 1109.38  46
  -5   4  -6 29271.1 1141.39  50
   5   4   6 26429.6 977.793  39
  -5   4  -6 27899.1 1033.47  33
  -5   4  -7 3384.39 341.546  50
  -5   4  -7 3274.08 335.999  46
   5   4   7 3639.59 302.199  39
  -5   4  -7 3444.89 318.699  33
  -5   4  -8 12720.9 715.354  50
  -5   4  -8 11594.0 615.537  33
  -5   4  -9 1962.84 264.956  50
  -5   4  -9 2468.89 266.173  33
  -5   4 -10 2631.78 287.401  36
  -5   4 -10 2972.58 284.091  33
  -5   4 -11 1379.56 176.198  36
  -5   4 -11 1409.36 168.801  33
  -5   4 -12 1247.91 153.107  36
   5   5 -16 6138.83 305.673  13
   5   5 -15 2506.67 217.774  13
   5   5 -15 2459.39 213.469  48
   5   5 -14 5652.91 374.417  13
   5   5 -14 4699.94 346.316  48
   5   5 -13 1168.15 171.596  13
   5   5 -13 963.835 159.502  48
   5   5 -12 21878.8 895.944  13
   5   5 -12 20527.4 932.812  52
   5   5 -12 22032.2 922.442  34
   5   5 -11 4655.54 360.792  13
   5   5 -11 3796.06 362.789  52
   5   5 -11 4105.29 357.979  34
   5   5 -10 25919.2 982.106  13
   5   5 -10 25471.0 1043.22  52
   5   5 -10 26981.2 1023.15   5
   5   5 -10 27038.3 1068.62  34
   5   5  -9 26240.3 943.116  13
   5   5  -9 24598.3 984.645  52
   5   5  -9 24522.9 1010.72  34
   5   5  -9 26087.7 986.142   5
   5   5  -8 36476.6 1210.94  44
   5   5  -8 37377.8 1283.71  34
   5   5  -8 36328.5 1234.47   5
   5   5  -7 44663.1 1932.12  15
   5   5  -6 6822.14 653.894  15
   5   5  -5 7763.09 672.143  15
   5   5  -4 2666.34 375.422  15
   5   5  -3 95184.4 2975.93  15
   5   5  -3 103358. 2911.59  14
   5   5  -2 81032.5 2550.13  15
   5   5  -2 83898.1 2523.26  14
   5   5  -1 24999.7 1124.84  15
   5   5  -1 26470.5 1163.65  14
   5   5   0 3702.07 398.094  14
   5   5   1 11318.1 742.593  14
   5   5   2 23674.4 1171.42  14
   5   5   3 18769.5 1046.76  14
  -5   5  -4 13824.5 689.848  50
  -5   5  -4 13844.1 705.433  46
   5   5   4 13542.5 624.533  39
  -5   5  -5 40045.4 1430.83  50
  -5   5  -5 40864.8 1446.33  46
  -5   5  -5 42278.3 1372.51  33
  -5   5  -6 18897.8 869.818  50
  -5   5  -6 17643.5 841.953  46
  -5   5  -6 18642.7 793.518  33
  -5   5  -7 437.410 128.041  46
   5   5   7 191.316 66.0430  39
  -5   5  -7 412.642 123.956  33
  -5   5  -8 5205.65 360.299  12
   5   5   8 4563.85 343.889  39
  -5   5  -8 5304.51 441.767  36
  -5   5  -8 5653.29 418.930  33
  -5   5  -9 3160.99 264.605  12
  -5   5  -9 2944.20 307.618  36
  -5   5  -9 2971.86 288.180  33
  -5   5 -10 3266.49 250.734  12
  -5   5 -10 3464.04 316.973  36
  -5   5 -11 1308.12 173.098  36
  -5   5 -12 7277.82 361.836  36
   5   6 -15 4908.25 297.729  48
   5   6 -15 5889.87 320.719  13
   5   6 -14 1480.46 182.458  48
   5   6 -14 1723.89 188.212  13
   5   6 -13 10731.8 544.807  13
   5   6 -13 8745.92 520.834  48
   5   6 -12 4049.95 334.001  13
   5   6 -12 3796.71 348.943  48
   5   6 -11 2903.44 282.439  13
   5   6 -11 2675.42 287.744  48
  -5   6  11 2703.33 254.071  11
   5   6 -11 2763.89 299.593  34
   5   6 -10 3876.21 349.396   5
   5   6 -10 4659.94 396.812  34
   5   6  -9 6073.30 397.110  13
   5   6  -9 5734.78 439.877  34
   5   6  -9 5769.57 417.892   5
   5   6  -8 76308.1 2069.21  13
   5   6  -8 80621.8 2163.64  44
   5   6  -8 72801.0 2192.25  34
   5   6  -8 76803.8 2174.15   5
   5   6  -7 26123.0 1001.38   5
   5   6  -7 28001.8 996.111  44
   5   6  -7 24433.3 999.715  34
   5   6  -6 3798.83 507.183  15
   5   6  -5 102566. 3293.85  15
   5   6  -4 11364.9 823.860  15
   5   6  -3 33993.4 1501.97  15
   5   6  -3 37269.7 1487.84  14
   5   6  -2 116008. 3373.99  15
   5   6  -2 119773. 3406.64  14
   5   6  -1 23361.4 1154.09  14
   5   6   0 45061.7 1750.72  14
   5   6   1 16710.5 979.934  14
   5   6   2 30374.1 1420.43  14
   5   6   3 30439.4 987.716   7
  -5   6  -3 29281.7 1108.43  46
   5   6   3 30023.8 1031.38  39
  -5   6  -3 26846.2 1005.36  36
  -5   6  -4 9997.85 597.195  46
   5   6   4 10325.7 545.672  39
  -5   6  -4 10415.6 567.236  36
   5   6   4 10179.3 496.663   7
  -5   6  -5 39854.6 1435.68  46
  -5   6  -5 38628.2 1367.46  36
  -5   6  -6 7124.86 503.316  46
  -5   6  -6 7873.56 514.389  36
  -5   6  -7 16297.3 702.285  12
   5   6   7 16941.2 734.483  39
  -5   6  -7 14715.7 764.026  36
  -5   6  -8 1570.43 184.549  12
   5   6   8 1144.31 163.014  39
  -5   6  -8 1681.06 231.271  36
  -5   6  -9 2835.98 242.638  12
  -5   6  -9 2565.04 273.536  36
  -5   6 -10 2718.61 216.821  12
  -5   6 -10 2855.26 277.265  36
  -5   6 -11 3402.87 254.129  36
   5   7 -14 4226.13 300.046  48
   5   7 -13 4792.50 350.579  48
   5   7 -13 5826.95 370.541  13
   5   7 -12 813.036 139.831  13
  -5   7  12 1027.96 142.314  53
   5   7 -12 925.357 159.171  48
  -5   7  12 955.180 139.517  11
   5   7 -11 8272.21 524.222  48
  -5   7  11 9529.64 514.043  11
   5   7 -11 10120.5 541.338  13
   5   7 -10 11098.2 617.977  48
  -5   7  10 11131.5 580.500  11
   5   7 -10 11629.0 598.426  13
   5   7 -10 12383.5 678.574  34
   5   7  -9 5282.99 395.197  48
   5   7  -9 5813.42 394.752  13
   5   7  -9 5366.06 418.688   5
   5   7  -9 5361.40 433.074  34
   5   7  -8 10525.3 571.789  48
   5   7  -8 11744.2 644.585   5
   5   7  -8 10435.2 552.198  13
   5   7  -7 7414.81 425.838  13
   5   7  -7 5992.75 392.345  48
   5   7  -7 6889.93 449.674  44
   5   7  -7 6362.45 453.987  34
   5   7  -7 6118.09 441.746   5
   5   7  -6 27623.3 1058.64   5
   5   7  -6 26043.6 1013.29  44
   5   7  -6 28474.5 1062.42  34
   5   7  -5 10052.0 568.799   5
   5   7  -5 11200.9 578.925  44
   5   7  -5 9940.86 541.235  34
   5   7  -4 17233.1 769.285  44
   5   7  -4 15425.2 1023.74  15
   5   7  -2 86554.6 2783.87  14
   5   7  -1 41976.9 1724.34  14
   5   7   0 2202.29 215.571   7
   5   7   1 19018.8 732.247   7
  -5   7  -1 16683.4 781.625  46
  -5   7  -1 16277.5 739.520  10
   5   7   1 18934.4 735.623  39
   5   7   2 24334.2 904.036   7
  -5   7  -2 28834.1 1069.78  46
  -5   7  -2 28004.2 1015.55  10
   5   7   2 23086.2 908.504  39
  -5   7  -2 27734.9 971.565  36
   5   7   3 11939.8 553.932   7
  -5   7  -3 11388.5 638.360  46
   5   7   3 11424.9 576.370  39
  -5   7  -3 10721.7 571.266  36
  -5   7  -4 23240.1 988.542  46
   5   7   4 22170.5 886.614  39
   5   7   4 22860.6 832.213   7
  -5   7  -4 21842.2 907.291  36
  -5   7  -5 20128.9 808.077  12
  -5   7  -5 19599.7 903.732  46
  -5   7  -5 17959.8 837.728  36
  -5   7  -6 7368.38 440.578  12
  -5   7  -6 6548.35 477.999  46
   5   7   6 7120.01 445.868  39
  -5   7  -6 6781.10 476.001  36
  -5   7  -7 232.739 66.0006  12
   5   7   7 268.761 80.4697  39
  -5   7  -7 362.822 100.538  36
  -5   7  -8 5512.89 350.262  12
  -5   7  -8 5771.00 424.062  36
  -5   7  -9 2286.85 204.363  12
  -5   7  -9 2173.93 234.743  36
  -5   7 -10 3162.76 258.500  36
  -5   8  13 2036.43 170.337  53
   5   8 -13 2017.56 196.863  48
  -5   8  13 2130.41 174.950  11
  -5   8  12 9274.53 457.333  53
   5   8 -12 9536.69 509.080  48
  -5   8  12 9573.66 463.584  11
  -5   8  11 3259.72 275.653  53
   5   8 -11 3313.07 295.411  48
  -5   8  11 3412.73 280.651  11
   5   8 -10 7582.29 470.324  48
  -5   8  10 7728.79 464.088  11
   5   8  -9 8496.53 494.956  48
   5   8  -9 8289.39 539.288  34
   5   8  -8 18372.5 767.095  48
   5   8  -8 17774.6 834.202  34
   5   8  -8 18057.8 842.321   5
   5   8  -7 13691.4 680.821  44
   5   8  -7 12905.5 670.577  34
   5   8  -7 12096.5 666.559   5
   5   8  -6 3162.22 308.693  44
   5   8  -6 3447.64 316.486  34
   5   8  -6 3664.00 336.751   5
   5   8  -5 614.167 135.714   5
   5   8  -5 648.468 114.882   7
   5   8  -5 622.138 134.883  44
   5   8  -4 53503.8 1685.37   5
   5   8  -4 54646.8 1694.03  44
   5   8  -4 55142.3 1565.87   7
   5   8  -3 5682.43 367.470   7
  -5   8   3 5619.82 397.880  10
   5   8  -3 4985.20 391.931  44
   5   8  -2 42296.2 1434.46  44
  -5   8   2 44270.9 1411.31  10
   5   8  -2 44198.0 1340.27   7
   5   8  -1 21386.1 814.803   7
   5   8  -1 19828.4 880.466  44
  -5   8   1 21297.2 860.390  10
   5   8   0 729.378 127.710   7
  -5   8   0 681.902 142.681  10
   5   8   1 7762.04 449.531   7
  -5   8  -1 7668.12 476.056  10
   5   8   1 7908.96 452.339  39
  -5   8  -1 7648.16 448.156  36
   5   8   2 32955.0 1070.58   7
  -5   8  -2 28397.2 1082.81  10
   5   8   2 31236.8 1072.10  39
  -5   8  -2 29992.4 1076.14  36
   5   8   3 3054.30 263.533   7
   5   8   3 2748.80 260.770  39
  -5   8  -3 2209.73 245.321  36
   5   8   4 45447.4 1437.44  39
   5   8   4 48057.0 1390.65   7
  -5   8  -4 43798.6 1463.47  36
   5   8   5 3935.87 326.802  39
  -5   8  -5 4326.41 357.832  36
   5   8   6 18345.8 758.794  39
  -5   8  -6 16112.1 765.894  36
   5   8   7 5978.89 381.290  39
  -5   8  -7 5024.14 382.927  36
   5   8   8 4949.46 323.145  39
  -5   8  -8 4397.17 343.614  36
  -5   8  -9 1562.52 183.628  36
  -5   8 -10 5606.69 316.088  36
  -5   9  12 1801.26 168.568  53
  -5   9  12 1868.73 172.244  11
  -5   9  11 2881.00 240.172  53
   5   9 -11 3083.50 256.920  48
  -5   9  11 3019.64 248.120  11
   5   9 -10 5249.71 357.551  48
  -5   9  10 4927.12 348.905  11
   5   9  -9 7457.65 432.838  48
  -5   9   9 6901.08 437.038  11
   5   9  -8 19756.4 877.135   5
   5   9  -7 6956.82 481.650   5
   5   9  -6 10057.8 586.029  44
   5   9  -6 9605.80 572.044   5
   5   9  -5 2692.31 241.629   7
   5   9  -5 2222.99 257.160  44
   5   9  -5 2320.25 262.948   5
   5   9  -4 4052.45 306.242   7
   5   9  -4 4417.53 360.812   5
   5   9  -4 3779.37 348.331  44
   5   9  -3 22996.0 849.352   7
   5   9  -3 20482.0 914.613  44
   5   9  -2 27632.4 978.243   7
   5   9  -2 26005.4 1062.55  44
   5   9  -1 37381.4 1208.61   7
  -5   9   1 36133.9 1248.00  10
   5   9  -1 35585.8 1292.86  44
   5   9   0 4312.27 332.138   7
  -5   9   0 5052.59 379.233  10
   5   9   0 4531.22 383.160  44
   5   9   1 43415.0 1333.12   7
   5   9   1 42432.0 1438.01  44
  -5   9  -1 41187.5 1351.43  10
  -5   9  -1 39444.3 1303.75  36
   5   9   2 511.282 108.774   7
   5   9   2 659.384 122.602  39
   5   9   3 5587.82 367.756   7
   5   9   3 5827.71 384.890  39
  -5   9  -3 5586.41 393.804  36
   5   9   4 9626.53 486.138   7
   5   9   4 9411.24 513.853  39
  -5   9  -4 10980.5 575.166  36
   5   9   5 19082.3 763.841  39
  -5   9  -5 17643.9 780.036  36
   5   9   6 3561.13 282.005  39
  -5   9  -6 3412.24 301.647  36
   5   9   7 5662.09 346.533  39
  -5   9  -7 5161.05 361.380  36
  -5   9  -8 3213.22 260.619  36
  -5   9  -9 3916.01 258.484  36
  -5  10  12 1219.30 120.796  53
  -5  10  12 1239.53 120.638  11
  -5  10  11 9031.64 415.117  53
  -5  10  11 9033.59 416.398  11
  -5  10  10 2573.68 223.839  53
  -5  10  10 2744.18 229.280  11
  -5  10   9 18342.4 731.933  11
  -5  10   8 4206.63 327.450  11
  -5  10   7 2539.81 252.043  11
   5  10  -6 8510.02 529.852  44
   5  10  -6 8811.65 524.878   5
   5  10  -5 3176.24 260.200   7
   5  10  -5 2957.71 299.124  44
   5  10  -5 3118.59 292.475   5
   5  10  -4 3541.13 286.608   7
   5  10  -4 4252.85 367.627  44
   5  10  -3 201.789 68.9676   7
   5  10  -3 135.766 68.8017  44
   5  10  -2 5191.72 361.608   7
   5  10  -2 4957.19 402.129  44
   5  10  -1 7893.79 456.423   7
   5  10  -1 7326.68 491.399  44
   5  10   0 19780.8 791.460   7
   5  10   0 18611.9 844.159  44
   5  10   1 1470.50 184.526   7
   5  10   1 1678.84 226.435  44
  -5  10  -1 1881.54 212.165  36
   5  10   2 8791.57 471.109   7
   5  10   2 8535.70 513.713  44
   5  10   2 8350.74 452.055  39
  -5  10  -2 9749.83 517.783  36
   5  10   3 18477.6 711.707   7
   5  10   3 17638.7 766.591  44
   5  10   3 18007.0 718.809  39
  -5  10  -3 16879.1 734.324  36
   5  10   4 452.176 88.0994   7
   5  10   4 518.160 111.120  44
   5  10   4 451.855 97.7757  39
  -5  10  -4 506.039 113.899  36
   5  10   5 5979.48 367.213  44
   5  10   5 6446.21 372.395  39
  -5  10  -5 6069.90 390.203  36
   5  10   6 3692.24 259.096  44
  -5  10  -6 4579.55 318.860  36
  -5  10  -7 1101.33 141.814  36
  -5  10  -8 3239.57 233.303  36
  -5  11  10 4076.47 251.051  53
  -5  11  10 4362.49 258.531  11
  -5  11   9 3066.50 231.793  53
  -5  11   9 3194.23 237.366  11
  -5  11   8 468.373 91.4578  53
  -5  11   8 464.778 96.5586  11
  -5  11   7 637.778 116.687  11
  -5  11   6 8569.93 461.615  11
   5  11  -5 3435.62 254.996   7
  -5  11   5 3217.00 243.497   7
  -5  11   5 3363.54 278.345  11
   5  11  -4 2416.85 220.414   7
  -5  11   4 2313.53 230.482  11
   5  11  -4 2634.20 265.657  44
  -5  11   4 2375.84 229.215   6
   5  11  -3 9157.42 467.262   7
   5  11  -3 8025.83 492.698  44
   5  11  -2 6690.73 402.676   7
   5  11  -2 6417.98 432.972  44
   5  11  -1 6901.82 404.982   7
   5  11  -1 6041.61 415.024  44
   5  11   0 3376.62 270.628   7
   5  11   0 3172.23 286.941  44
   5  11   1 4472.27 310.170   7
   5  11   1 3912.17 312.417  44
   5  11   2 9357.74 458.804   7
   5  11   2 8983.66 479.583  44
   5  11   3 190.060 59.9354   7
   5  11   3 136.995 59.0654  44
   5  11   4 1571.34 153.962   7
  -5  11  -4 2533.19 224.595  36
  -5  11  -5 2663.52 225.357  36
  -5  12   8 9756.08 406.943  53
  -5  12   8 9728.65 406.654  11
  -5  12   8 9095.25 387.222   6
  -5  12   7 1654.52 157.524  53
  -5  12   7 1589.21 154.715  11
  -5  12   7 1663.03 155.187   6
  -5  12   6 3725.30 254.437  53
  -5  12   6 3566.71 249.909  11
  -5  12   6 3575.97 249.124   6
   5  12  -5 1829.18 161.105   7
  -5  12   5 1737.97 172.419  11
  -5  12   5 1761.75 171.832  53
  -5  12   5 1635.10 164.297   6
   5  12  -4 13243.3 521.436   7
  -5  12   4 11208.5 489.369   7
   5  12  -3 796.508 125.129  44
   5  12  -3 831.396 114.672   7
  -5  12   3 757.062 113.147   7
  -5  12   2 5438.32 336.960   7
   5  12  -2 5849.15 343.277   7
   5  12  -1 2517.28 215.032   7
  -5  12   1 2077.32 203.016   7
   5  12   0 9171.79 438.298   7
   5  12   1 1213.73 138.956   7
  -5  12  -1 1110.99 144.989   7
  -5  12  -2 1487.74 167.968   7
   5  12   2 1577.65 154.319   7
   5  12   3 974.135 109.129   7
  -5  12  -3 731.784 109.236   7
  -5  12  -4 2396.98 185.212   7
   5  12   4 1663.60 130.782   7
  -5  13   4 1655.04 135.569   7
   5  13  -4 1436.75 129.819   7
   5  13  -3 3943.23 230.297   7
  -5  13   3 3354.25 215.462   7
   5  13  -2 416.760 71.6650   7
  -5  13   2 383.852 76.3096   7
   5  13  -1 302.608 63.2028   7
  -5  13   1 128.471 34.6131   7
   5  13   0 2376.71 176.180   7
  -5  13   0 2357.30 189.962   7
  -5  13  -1 6294.68 323.182   7
   5  13   1 6998.91 309.898   7
   6 -12  -8 734.125 87.1232  43
   6 -12  -8 820.286 95.6473  60
   6 -12  -7 2008.04 157.400  32
   6 -12  -7 2166.52 154.667  31
   6 -12  -7 1973.85 156.790  47
   6 -12  -7 2281.64 172.133  43
   6 -12  -7 2096.51 160.072  42
   6 -12  -6 4537.07 256.463  31
   6 -12  -6 4104.88 246.715  47
   6 -12  -6 4505.01 261.597  32
   6 -12  -6 4336.65 265.305  43
   6 -12  -6 4151.05 250.592  42
   6 -12  -5 4865.11 275.199  47
   6 -12  -5 5499.94 299.349  32
   6 -12  -5 4952.36 279.793  42
   6 -12  -5 4925.65 264.405  38
   6 -12  -4 2692.22 212.011  32
   6 -12  -4 2498.99 195.137  42
   6 -12  -4 2682.99 193.526  38
   6 -12  -3 468.627 86.6985  32
   6 -12  -3 439.892 79.2731  42
   6 -12  -3 405.889 71.4844  38
   6 -12  -2 1358.91 147.740  32
   6 -12  -2 1178.47 127.012  38
   6 -12  -1 1905.97 165.189  38
   6 -12   1 6086.69 292.527  56
   6 -12   2 376.562 66.7313  56
   6 -11 -10 2485.93 180.323  47
   6 -11 -10 2678.02 178.809  43
   6 -11  -9 3890.38 220.681  31
   6 -11  -9 4130.00 255.400  47
   6 -11  -9 4126.03 248.992  43
   6 -11  -9 3965.62 245.200  42
   6 -11  -9 4005.53 245.709  60
   6 -11  -8 1936.94 172.847  32
   6 -11  -8 1968.34 181.191  47
   6 -11  -8 1987.85 164.881  31
   6 -11  -8 2091.75 182.871  43
   6 -11  -8 1917.49 175.295  42
   6 -11  -7 2491.13 200.865  31
   6 -11  -7 2631.63 213.536  32
   6 -11  -7 2547.42 218.144  47
   6 -11  -7 2659.22 217.793  43
   6 -11  -7 2378.56 206.319  42
   6 -11  -7 2267.20 188.852  38
   6 -11  -6 1654.36 177.577  32
   6 -11  -6 1521.64 169.906  42
   6 -11  -6 1393.64 158.458  38
   6 -11  -5 9440.44 467.054  32
   6 -11  -5 8877.82 453.097  42
   6 -11  -5 9324.87 447.576  38
   6 -11  -4 3260.84 260.788  32
   6 -11  -4 3228.85 249.809  38
   6 -11  -3 3334.06 261.083  38
   6 -11  -1 8136.67 415.868  56
   6 -11   0 4157.12 285.731  56
   6 -11   1 287.512 64.0487  56
   6 -11   2 1585.44 168.614  56
  -6 -11  -3 9317.70 446.724  46
  -6 -11  -4 157.339 39.7216  50
  -6 -11  -4 369.452 80.3381  46
  -6 -11  -5 825.928 103.280  46
   6 -10 -11 5179.24 285.772  47
   6 -10 -11 4781.21 261.025  43
   6 -10 -11 4569.89 253.090  60
   6 -10 -10 4093.63 239.257  31
   6 -10 -10 4105.86 281.414  47
   6 -10 -10 4327.17 271.725  43
   6 -10 -10 4106.15 272.871  42
   6 -10 -10 4111.23 268.650  60
   6 -10  -9 6751.13 341.257  31
   6 -10  -9 6423.39 382.268  47
   6 -10  -9 6684.96 365.141  32
   6 -10  -9 6921.04 372.718  43
   6 -10  -9 6762.90 378.277  42
   6 -10  -8 3300.61 250.613  31
   6 -10  -8 2983.54 258.146  43
   6 -10  -8 2940.54 257.607  42
   6 -10  -8 3159.15 265.056  32
   6 -10  -7 2120.56 210.856  32
   6 -10  -7 1706.91 191.030  42
   6 -10  -7 1658.85 184.613  40
   6 -10  -7 1816.63 191.497  38
   6 -10  -6 17743.8 724.364  42
   6 -10  -6 16390.8 690.120  40
   6 -10  -6 17825.2 709.094  38
   6 -10  -6 17643.8 718.318  32
   6 -10  -6 17178.9 706.689  49
   6 -10  -5 2055.92 224.238  32
   6 -10  -5 2003.54 207.143  49
   6 -10  -5 1714.19 189.480  40
   6 -10  -5 2002.81 211.250  38
   6 -10  -4 5609.38 367.855  49
   6 -10  -4 5770.17 381.728  38
   6 -10  -4 5850.66 368.443  59
   6 -10  -3 1857.98 192.635  59
   6 -10  -3 1956.35 205.038  49
   6 -10  -3 2143.98 212.130  56
   6 -10  -2 8406.07 462.070  56
   6 -10  -2 8245.08 445.403  49
   6 -10  -2 8587.03 452.413  59
   6 -10  -1 2479.62 227.817  59
   6 -10  -1 2517.99 241.088  56
   6 -10   0 23730.9 848.612  59
  -6 -10  -3 2675.39 226.878  50
  -6 -10  -4 3297.80 250.036  50
  -6 -10  -5 404.300 78.0827  50
  -6 -10  -5 436.649 94.0733  46
  -6 -10  -6 6666.34 336.211  50
  -6 -10  -6 7146.97 370.615  46
   6  -9 -12 10909.5 463.024  47
   6  -9 -12 10494.3 416.138  60
   6  -9 -12 11478.1 465.499  58
   6  -9 -11 2746.32 227.055  47
   6  -9 -11 2447.50 200.639  43
   6  -9 -11 2514.14 198.353  60
   6  -9 -10 1051.53 126.361  31
   6  -9 -10 1282.44 163.117  47
   6  -9 -10 1168.41 144.696  43
   6  -9 -10 1215.25 157.118  42
   6  -9 -10 1221.18 148.334  32
   6  -9  -9 8768.47 433.008  31
   6  -9  -9 8462.79 478.945  47
   6  -9  -9 8859.25 462.496  43
   6  -9  -9 9198.60 481.910  42
   6  -9  -9 8450.84 478.931  40
   6  -9  -9 8893.18 463.724  32
   6  -9  -8 3138.48 254.235  31
   6  -9  -8 3027.75 269.458  32
   6  -9  -8 3356.75 289.248  42
   6  -9  -8 3137.96 283.656  40
   6  -9  -8 3105.69 268.113  38
   6  -9  -7 489.247 100.234  32
   6  -9  -7 600.237 121.227  49
   6  -9  -7 589.542 117.126  42
   6  -9  -7 544.312 113.650  40
   6  -9  -7 522.181 109.024  38
   6  -9  -6 2661.28 258.817  32
   6  -9  -6 2463.45 252.357  49
   6  -9  -6 2550.01 252.926  40
   6  -9  -6 2725.84 260.135  38
   6  -9  -5 960.964 140.114  56
   6  -9  -5 958.352 156.262  32
   6  -9  -5 688.848 121.955  49
   6  -9  -5 750.406 135.394  40
   6  -9  -5 848.705 144.305  38
   6  -9  -5 837.982 133.459  59
   6  -9  -4 10205.6 528.439  59
   6  -9  -4 10129.1 539.316  49
   6  -9  -4 9947.83 530.619  40
   6  -9  -4 9670.28 513.226  56
   6  -9  -3 7039.55 431.701  49
   6  -9  -3 7494.04 442.515  56
   6  -9  -3 6405.53 402.788  40
   6  -9  -3 7335.98 433.179  59
   6  -9  -2 2135.67 228.953  56
   6  -9  -2 2343.50 230.908  59
   6  -9   0 19216.3 761.152  45
  -6  -9  -3 9836.56 501.830  50
  -6  -9  -4 4309.34 318.155  50
  -6  -9  -5 2262.28 220.479  50
  -6  -9  -5 2332.03 237.117  46
  -6  -9  -6 5246.83 328.386  50
  -6  -9  -6 5490.24 357.492  46
  -6  -9  -7 626.191 100.105  50
  -6  -9  -7 771.881 116.224  46
  -6  -9  -8 2983.43 205.811  50
  -6  -9  -8 3259.95 220.267  46
   6  -8 -13 6921.77 346.364  47
   6  -8 -13 7357.07 360.324  58
   6  -8 -12 294.228 75.4297  47
   6  -8 -12 240.388 58.2197  60
   6  -8 -11 223.636 66.1469  43
   6  -8 -11 167.271 63.1957  42
   6  -8 -11 206.616 73.5461  47
   6  -8 -11 197.795 59.6980  60
   6  -8 -10 13944.9 641.053  47
   6  -8 -10 13268.3 593.943  43
   6  -8 -10 13615.3 618.865  42
   6  -8 -10 13135.5 640.808  40
   6  -8 -10 13807.0 612.252  32
   6  -8  -9 3963.15 279.852  31
   6  -8  -9 3539.61 288.897  43
   6  -8  -9 3488.13 301.471  42
   6  -8  -9 3608.17 318.358  40
   6  -8  -9 3588.28 295.505  38
   6  -8  -9 3664.85 298.222  32
   6  -8  -8 6116.35 399.908  32
   6  -8  -8 6273.18 374.603  31
   6  -8  -8 6250.72 424.679  49
   6  -8  -8 6148.07 408.751  42
   6  -8  -8 6075.83 421.204  40
   6  -8  -8 6251.41 403.044  38
   6  -8  -7 51580.6 1573.22  32
   6  -8  -7 52821.5 1607.49  49
   6  -8  -7 54498.2 1610.82  42
   6  -8  -7 51032.5 1611.62  40
   6  -8  -7 53239.8 1583.74  38
   6  -8  -6 4042.87 330.853  32
   6  -8  -6 4249.51 321.343  56
   6  -8  -6 4514.19 355.889  49
   6  -8  -6 4409.81 353.170  40
   6  -8  -6 4443.51 345.647  38
   6  -8  -6 4224.25 333.546  59
   6  -8  -5 5789.93 377.744  56
   6  -8  -5 5472.36 388.612  49
   6  -8  -5 5659.76 391.923  40
   6  -8  -5 5715.91 383.994  59
   6  -8  -4 24627.4 915.187  56
   6  -8  -4 24986.5 925.801  59
   6  -8  -4 23868.6 922.190  40
   6  -8  -3 86031.3 2311.54  56
   6  -8  -3 88724.2 2310.50  59
   6  -8  -3 82384.5 2282.92  40
   6  -8  -3 86829.5 2274.20  35
   6  -8  -2 5188.49 361.459  40
   6  -8  -2 4895.58 349.952  35
   6  -8  -1 39981.3 1263.41  45
  -6  -8  -3 29124.6 1022.17  50
  -6  -8  -4 4542.07 338.006  50
   6  -8   4 3434.28 279.613  57
  -6  -8  -5 9324.90 508.354  50
   6  -8   5 9915.51 489.165  57
  -6  -8  -5 10087.5 557.939  46
  -6  -8  -6 1431.16 180.003  50
  -6  -8  -6 1412.54 182.279  46
  -6  -8  -7 680.927 119.494  50
  -6  -8  -7 630.425 118.525  46
   6  -8   7 555.256 89.5083  57
  -6  -8  -8 6283.27 351.499  50
   6  -8   8 5508.87 292.936  57
  -6  -8  -8 6425.61 362.510  46
  -6  -8  -9 1562.12 143.076  50
   6  -7 -14 7845.55 355.340  47
   6  -7 -14 8641.86 394.481  37
   6  -7 -14 8945.08 397.999  58
   6  -7 -13 3812.32 262.290  47
   6  -7 -13 3859.13 274.070  58
   6  -7 -12 881.152 135.848  47
   6  -7 -12 901.575 128.553  43
   6  -7 -11 4641.74 342.893  47
   6  -7 -11 5247.66 339.676  43
   6  -7 -11 5005.56 349.526  42
   6  -7 -11 5258.22 334.370  60
   6  -7 -10 6343.19 417.803  47
   6  -7 -10 6120.21 391.109  43
   6  -7 -10 6286.04 409.787  42
   6  -7 -10 6431.58 436.475  40
   6  -7 -10 6045.48 393.752  32
   6  -7  -9 10149.1 520.696  43
   6  -7  -9 9749.45 534.912  42
   6  -7  -9 10134.6 569.970  40
   6  -7  -9 10192.1 530.444  32
   6  -7  -9 9838.18 527.665  38
   6  -7  -8 6439.19 417.372  32
   6  -7  -8 6767.26 442.602  49
   6  -7  -8 6419.13 423.382  42
   6  -7  -8 6859.13 455.417  40
   6  -7  -8 6720.72 426.257  38
   6  -7  -7 13109.8 630.123  59
   6  -7  -7 12705.9 632.347  49
   6  -7  -7 12817.8 616.281  32
   6  -7  -7 13003.1 647.457  40
   6  -7  -7 13026.2 618.787  38
   6  -7  -6 7849.40 444.348  56
   6  -7  -6 7330.62 447.196  32
   6  -7  -6 8106.62 469.861  59
   6  -7  -6 7882.78 472.927  49
   6  -7  -6 7668.21 472.637  40
   6  -7  -6 8345.77 471.484  38
   6  -7  -5 38554.8 1224.40  56
   6  -7  -5 38043.4 1252.96  49
   6  -7  -5 37558.3 1185.62  45
   6  -7  -5 38118.2 1265.99  40
   6  -7  -5 39017.1 1243.88  59
   6  -7  -4 26815.0 947.872  45
   6  -7  -4 27440.9 983.929  56
   6  -7  -4 28459.7 1016.15  40
   6  -7  -4 27694.1 982.160  35
   6  -7  -4 29028.4 1001.50  59
   6  -7  -3 55582.2 1596.17  45
   6  -7  -3 55614.9 1617.96  35
   6  -7  -3 56910.2 1640.20  56
   6  -7  -2 43875.7 1349.95  45
   6  -7  -2 45406.3 1367.61  35
   6  -7  -1 63964.9 1787.38  35
   6  -7   0 28256.1 970.680  57
   6  -7   0 27682.8 976.979  35
   6  -7   1 7774.49 444.454  57
   6  -7   2 8703.33 481.702  57
  -6  -7  -3 4062.17 315.857  50
   6  -7   4 5049.37 366.641  51
  -6  -7  -4 9603.00 506.513  50
   6  -7   5 3261.76 278.227  51
  -6  -7  -5 3608.73 310.280  50
  -6  -7  -6 8943.84 502.477  50
  -6  -7  -6 9692.48 547.924  46
   6  -7   6 8081.73 456.955  51
  -6  -7  -7 7027.67 432.459  50
  -6  -7  -7 7051.35 446.245  46
   6  -7   7 8008.96 428.993  51
  -6  -7  -8 4712.96 325.110  50
  -6  -7  -8 4639.48 327.257  46
   6  -7   8 4330.96 288.781  51
   6  -7   9 4652.80 270.257  51
  -6  -7  -9 4137.76 277.003  50
  -6  -7  -9 3821.04 265.179  46
   6  -6 -15 3736.65 235.469  37
   6  -6 -15 3700.58 230.956  58
   6  -6 -14 5097.63 285.493  47
   6  -6 -14 5040.15 322.783  37
   6  -6 -14 5250.28 319.868  58
   6  -6 -13 185.737 65.1235  47
   6  -6 -13 203.678 61.8913  58
   6  -6 -12 3268.83 273.257  47
   6  -6 -12 3325.67 261.583  43
   6  -6 -11 1087.35 164.893  47
   6  -6 -11 1205.15 159.065  43
   6  -6 -11 1079.98 158.681  42
   6  -6 -11 1195.56 172.710  40
   6  -6 -10 5088.84 349.962  43
   6  -6 -10 4821.14 359.702  42
   6  -6 -10 5075.00 387.033  40
   6  -6 -10 4188.11 330.302  32
   6  -6  -9 873.730 143.488  32
   6  -6  -9 537.298 109.280  49
   6  -6  -9 584.294 105.685  43
   6  -6  -9 621.693 127.191  42
   6  -6  -9 585.626 121.237  40
   6  -6  -9 576.254 118.524  38
   6  -6  -8 33439.5 1156.73  49
   6  -6  -8 33519.7 1136.55  42
   6  -6  -8 33875.6 1183.14  40
   6  -6  -8 33072.1 1133.53  38
   6  -6  -8 33098.6 1123.59  32
   6  -6  -7 3105.60 283.082  49
   6  -6  -7 2941.46 281.483  40
   6  -6  -7 3260.75 278.249  38
   6  -6  -7 3358.76 283.774  32
   6  -6  -7 3275.15 283.462  59
   6  -6  -6 27595.8 978.417  32
   6  -6  -6 28573.0 1018.47  49
   6  -6  -6 28354.0 979.289  56
   6  -6  -6 29438.4 1042.28  40
   6  -6  -6 28852.7 1005.82  59
   6  -6  -6 27640.9 988.447  38
   6  -6  -5 29062.5 1363.39  25
   6  -6  -5 31898.2 1034.73  45
   6  -6  -5 32359.0 1062.43  56
   6  -6  -5 31633.0 1090.87  40
   6  -6  -5 32576.9 1075.12  59
   6  -6  -4 34929.0 1132.33  59
   6  -6  -3 26983.0 1420.56  29
   6  -6  -3 24620.0 1277.14  28
   6  -6  -2 51028.4 2111.18  29
   6  -6  -2 51188.3 1980.20  28
  -6  -6   2 48397.9 1911.14  24
  -6  -6   1 16079.8 1004.15  24
   6  -6  -1 18363.1 1166.58  29
   6  -6   0 35520.9 1139.11  57
   6  -6   2 1938.86 199.455  51
   6  -6   3 22915.6 864.200  51
  -6  -6  -3 22197.4 858.498  50
  -6  -6  -4 103199. 2692.67  50
  -6  -6  -5 1339.53 191.227  50
  -6  -6  -5 1592.39 218.471  46
  -6  -6  -6 8361.15 505.943  50
  -6  -6  -6 8042.21 519.094  46
  -6  -6  -7 1847.60 219.377  50
  -6  -6  -7 1809.90 221.187  46
  -6  -6  -8 4751.67 344.443  50
  -6  -6  -8 4590.08 344.873  46
   6  -6   9 477.244 92.5728  51
  -6  -6  -9 464.226 101.202  50
  -6  -6  -9 277.595 73.3729  46
  -6  -6 -10 278.384 66.7663  50
  -6  -6 -10 236.831 55.5351  46
   6  -6  10 158.744 43.4553  51
   6  -5 -15 4705.66 294.759  37
   6  -5 -15 4623.43 286.983  58
   6  -5 -14 2865.65 244.433  58
   6  -5 -13 792.903 133.972  58
   6  -5 -13 830.671 123.712  47
   6  -5 -12 4500.87 328.013  47
   6  -5 -12 4823.80 346.075  52
   6  -5 -11 646.235 122.023  47
   6  -5 -11 729.249 128.444  43
   6  -5 -11 659.987 127.585  42
   6  -5 -11 1108.31 171.243  40
   6  -5 -10 14172.5 635.041  43
   6  -5 -10 14408.5 662.888  42
   6  -5 -10 15194.6 713.211  40
   6  -5 -10 15177.3 675.153  16
   6  -5 -10 15046.1 673.988  32
   6  -5  -9 4678.08 352.743  49
   6  -5  -9 4857.83 350.379  32
   6  -5  -9 4661.04 326.180  43
   6  -5  -9 4913.54 349.573  42
   6  -5  -9 4786.39 365.735  40
   6  -5  -9 5085.23 357.897  38
   6  -5  -8 59558.2 1733.00  49
   6  -5  -8 59454.6 1697.40  32
   6  -5  -8 60188.2 1705.58  42
   6  -5  -8 58944.6 1751.22  40
   6  -5  -8 60055.3 1712.89  38
   6  -5  -7 37729.6 1173.59  49
   6  -5  -7 33556.0 1158.86  40
   6  -5  -7 33470.1 1118.39  38
   6  -5  -7 34174.8 1117.57  32
   6  -5  -7 34231.0 1135.70  59
   6  -5  -6 20274.2 1123.54  28
   6  -5  -5 27894.6 1327.02  28
   6  -5  -5 27627.1 1221.03  25
   6  -5  -4 20153.2 1084.62  28
   6  -5  -3 22833.0 1210.43  29
   6  -5  -3 20741.8 1090.30  28
  -6  -5   3 19157.7 1013.32  24
   6  -5  -2 11379.4 782.395  28
  -6  -5   2 13452.1 828.186  24
   6  -5  -1 21507.9 1117.16  28
   6  -5  -1 21563.0 1194.29  29
  -6  -5   1 18933.1 1061.16  24
   6  -5  -1 21796.2 1053.35   9
   6  -5   0 56811.3 2081.12  28
   6  -5   0 54945.2 2014.16  26
  -6  -5   0 60933.3 2147.26  24
   6  -5   0 54771.0 1973.80   9
   6  -5   0 52726.8 2105.71  29
   6  -5   1 28316.9 1431.23  29
   6  -5   1 29386.2 1365.60  26
  -6  -5  -1 27956.3 1381.70  24
   6  -5   1 28427.4 1343.67   9
   6  -5   2 49799.6 2062.44  29
   6  -5   2 53179.1 2038.62   9
  -6  -5  -3 13503.9 616.085  50
  -6  -5  -4 10553.7 552.945  50
  -6  -5  -5 3995.46 329.607  50
  -6  -5  -5 4276.31 362.595  46
  -6  -5  -6 11894.7 617.607  50
  -6  -5  -6 12134.9 646.112  46
  -6  -5  -7 17289.7 777.959  50
  -6  -5  -7 17682.0 801.442  46
  -6  -5  -8 1527.62 202.292  50
  -6  -5  -8 1328.16 190.475  46
  -6  -5  -9 2751.99 251.351  46
  -6  -5  -9 3084.00 271.838  50
   6  -5  10 7511.01 385.372  51
  -6  -5 -10 7830.14 416.727  50
  -6  -5 -10 7461.95 390.214  46
   6  -5  11 408.655 66.8262  51
  -6  -5 -11 285.852 61.3756  50
   6  -4 -16 1015.19 115.185  13
   6  -4 -16 1205.46 132.906  37
   6  -4 -15 6404.27 369.037  37
   6  -4 -15 6632.43 368.388  58
   6  -4 -14 561.496 118.302  58
   6  -4 -13 11089.3 551.350  52
   6  -4 -13 11162.2 546.121   3
   6  -4 -13 10733.7 563.674  58
   6  -4 -12 2126.18 236.971  52
   6  -4 -12 2089.70 222.827   3
   6  -4 -11 41281.0 1291.59  47
   6  -4 -11 40838.7 1306.09   3
   6  -4 -11 40251.4 1291.77  42
   6  -4 -11 40502.2 1332.78  40
   6  -4 -11 40652.4 1331.34  16
   6  -4 -10 27032.1 980.750  42
   6  -4 -10 28072.0 1024.09  40
   6  -4 -10 27911.8 1013.66  16
   6  -4 -10 27009.0 989.311  32
   6  -4  -9 4594.27 341.744  49
   6  -4  -9 4676.04 335.678  32
   6  -4  -9 4607.96 329.704  42
   6  -4  -9 4325.16 336.432  40
   6  -4  -9 4622.92 339.401  38
   6  -4  -9 4440.04 337.196  16
   6  -4  -8 37370.1 1190.54  49
   6  -4  -8 36392.9 1158.02  42
   6  -4  -8 37074.7 1205.63  40
   6  -4  -8 35693.1 1167.82  38
   6  -4  -8 35438.6 1161.23  32
   6  -4  -7 47380.7 1833.94  28
   6  -4  -6 9791.16 716.376  28
   6  -4  -5 38834.7 1550.95  28
  -6  -4   5 37193.8 1456.20  19
   6  -4  -5 38077.7 1489.96   1
   6  -4  -4 10318.3 722.803  28
   6  -4  -4 11129.2 694.786   1
   6  -4  -3 255225. 6257.41   1
   6  -4  -3 250068. 6366.65  28
   6  -4  -2 16015.2 950.427  29
   6  -4  -2 17298.3 937.353  28
   6  -4  -2 18719.7 899.830   1
   6  -4  -1 6299.54 544.392  28
   6  -4  -1 6871.23 560.089  26
   6  -4  -1 6946.65 595.684  29
  -6  -4   1 5059.54 490.594  24
   6  -4  -1 6294.39 525.060   9
   6  -4   0 10398.3 747.087  29
   6  -4   0 11277.6 750.615  26
  -6  -4   0 11960.7 785.343  24
   6  -4   0 11041.5 736.102   9
   6  -4   1 14235.7 894.746  29
   6  -4   1 14324.6 882.352  26
  -6  -4  -1 13346.5 873.695  24
   6  -4   1 14946.0 903.456   9
   6  -4   2 31531.9 1465.47  29
   6  -4   2 32558.3 1486.49  26
   6  -4   2 31976.5 1494.58   9
   6  -4   3 2768.88 402.678   9
  -6  -4  -4 38210.2 1265.23  50
  -6  -4  -4 41221.9 1345.49  46
  -6  -4  -5 37190.1 1258.35  50
  -6  -4  -5 38158.2 1310.37  46
  -6  -4  -6 10732.8 592.887  50
  -6  -4  -6 11314.8 629.579  46
  -6  -4  -7 594.058 117.866  50
  -6  -4  -7 713.580 144.292  46
  -6  -4  -8 1436.61 201.219  50
  -6  -4  -8 1316.64 190.022  46
  -6  -4  -9 16123.2 724.349  50
  -6  -4  -9 15644.7 706.861  46
  -6  -4 -10 448.616 104.893  50
  -6  -4 -10 290.292 79.6626  46
   6  -4  11 7225.84 345.018  51
  -6  -4 -11 6461.67 353.685  50
   6  -3 -16 354.125 74.1355  13
   6  -3 -16 389.311 75.5782  37
   6  -3 -15 1717.09 173.343  52
   6  -3 -15 1699.90 189.041  37
   6  -3 -15 1502.45 172.980  58
   6  -3 -14 6961.29 416.062  52
   6  -3 -14 6805.25 413.171   3
   6  -3 -14 6499.17 419.188  58
   6  -3 -13 2524.76 257.693  52
   6  -3 -13 3065.38 277.699   3
   6  -3 -13 2584.57 262.356  58
   6  -3 -12 35147.6 1220.00  52
   6  -3 -12 33586.0 1177.25   3
   6  -3 -12 34747.5 1214.32  58
   6  -3 -11 7736.02 469.227   3
   6  -3 -11 7866.07 471.805  40
   6  -3 -11 8013.29 491.188  16
   6  -3 -10 17923.6 736.291  42
   6  -3 -10 17513.3 759.360  40
   6  -3 -10 19000.8 798.848  16
   6  -3  -9 26816.4 948.894  49
   6  -3  -9 25227.2 912.118  42
   6  -3  -9 27542.7 970.940  40
   6  -3  -9 26614.7 967.292  16
   6  -3  -9 26666.3 946.896  32
   6  -3  -8 31248.8 1407.60  28
  -6  -3   8 29618.3 1368.80  19
   6  -3  -7 3381.55 396.720  28
  -6  -3   7 3533.49 404.063  19
   6  -3  -6 47570.2 1765.61  28
  -6  -3   6 51572.9 1799.41  19
   6  -3  -5 33547.6 1365.32   1
   6  -3  -5 33447.6 1356.19  28
  -6  -3   5 33779.8 1368.84  19
   6  -3  -5 35776.3 1344.12  15
   6  -3  -4 123173. 3406.00  28
   6  -3  -4 126343. 3400.88   1
   6  -3  -3 35864.6 1384.97  28
   6  -3  -3 37603.8 1403.27   1
   6  -3  -2 22326.6 1010.81  28
   6  -3  -2 16730.8 915.770  29
   6  -3  -1 225783. 5596.25  29
   6  -3  -1 218432. 5558.78  26
   6  -3  -1 228766. 5585.04   9
   6  -3   0 51262.3 1849.50  29
   6  -3   0 55850.9 1924.50  26
   6  -3   0 57841.4 1942.26   9
   6  -3   1 10982.5 746.632  26
   6  -3   1 11670.7 767.882   9
   6  -3   2 28926.7 1349.08  26
   6  -3   2 28951.4 1372.25   9
   6  -3   3 21175.1 1155.11  26
   6  -3   3 20458.4 1177.97   9
  -6  -3  -4 35690.1 1205.63  50
  -6  -3  -4 38588.4 1284.52  46
  -6  -3  -5 527.031 125.650  50
  -6  -3  -5 868.426 157.216  46
  -6  -3  -6 5556.69 419.558  50
  -6  -3  -6 6458.65 462.146  46
  -6  -3  -7 620.147 120.028  50
  -6  -3  -7 622.206 139.630  46
  -6  -3  -8 2114.13 256.109  50
  -6  -3  -8 2157.22 254.649  46
  -6  -3  -9 1696.64 215.768  50
  -6  -3  -9 1568.87 207.643  46
  -6  -3 -10 2564.40 252.498  50
  -6  -3 -10 2313.95 227.114  46
  -6  -3 -11 154.490 46.9005  50
   6  -3  11 51.1294 33.9370  51
   6  -2 -16 1194.46 130.143  52
   6  -2 -16 1421.56 146.282  13
   6  -2 -16 1396.90 151.046  37
   6  -2 -15 25.9969 18.3451  52
   6  -2 -15 59.8692 24.9774  13
   6  -2 -15 92.4366 41.2129  37
   6  -2 -14 16332.4 711.616   3
   6  -2 -14 16111.3 707.369  52
   6  -2 -14 16010.7 719.755  37
   6  -2 -14 15503.4 705.258  58
   6  -2 -13 16059.7 725.741   3
   6  -2 -13 16128.3 740.015  52
   6  -2 -13 15743.1 734.309  58
   6  -2 -12 16252.8 748.760  58
   6  -2 -12 16125.9 742.253   3
   6  -2 -12 16275.4 749.711  16
   6  -2 -12 16885.9 775.715  52
   6  -2 -11 6041.11 423.699  16
   6  -2 -11 6387.16 431.557  58
   6  -2 -10 69018.0 1933.63  40
   6  -2 -10 72121.9 2010.35  16
   6  -2  -9 23679.2 1211.67  28
   6  -2  -9 25128.7 927.009  16
   6  -2  -8 12168.6 801.864  28
  -6  -2   8 12909.9 852.256  19
   6  -2  -7 34007.3 1384.00  28
  -6  -2   7 35391.1 1452.06  19
   6  -2  -6 128143. 3513.34  28
  -6  -2   6 128645. 3590.05  19
   6  -2  -6 132003. 3649.24   1
   6  -2  -6 134283. 3544.63  15
   6  -2  -5 170210. 4438.15  28
   6  -2  -5 170936. 4523.68   1
  -6  -2   5 183248. 4574.93  19
   6  -2  -5 183420. 4533.72  15
   6  -2  -4 20296.6 980.167   1
   6  -2  -4 20391.9 937.743  28
  -6  -2   4 22274.0 1020.23  19
   6  -2  -4 21111.9 986.681  15
   6  -2  -3 21653.2 951.655  28
   6  -2  -3 21577.0 984.320   1
   6  -2  -2 127848. 3562.01  28
   6  -2  -2 151344. 3671.71  29
   6  -2  -1 53164.7 1818.33  26
   6  -2  -1 54863.4 1838.16   9
   6  -2   0 126392. 3444.16  26
   6  -2   0 122176. 3436.61   9
   6  -2   1 53138.6 1875.19  26
   6  -2   1 52596.0 1895.43   9
   6  -2   2 91176.2 2798.80  26
   6  -2   2 88640.3 2825.19   9
   6  -2   3 5138.97 510.787  26
   6  -2   3 2729.29 386.033   9
   6  -2   4 16170.1 1068.40   9
  -6  -2  -5 64760.9 1905.90  50
  -6  -2  -5 67628.0 1960.83  46
  -6  -2  -6 124315. 3267.40  50
  -6  -2  -6 129424. 3323.80  46
  -6  -2  -7 17587.6 819.237  50
  -6  -2  -7 17823.9 835.840  46
  -6  -2  -8 12784.8 688.386  50
  -6  -2  -8 14060.7 719.040  46
  -6  -2  -9 4170.58 354.678  50
  -6  -2  -9 4141.58 347.097  46
  -6  -2 -10 7332.46 457.954  50
  -6  -2 -10 6882.84 421.216  46
   6  -2  11 318.723 70.6918  51
  -6  -2 -11 466.034 96.7110  50
  -6  -2 -12 277.165 63.3046  50
   6  -1 -16 1961.27 181.305  52
   6  -1 -16 1960.65 179.889  13
   6  -1 -16 1939.74 183.789  37
   6  -1 -15 6893.57 404.423  13
   6  -1 -15 6849.29 406.723  52
   6  -1 -15 6807.31 409.867  37
   6  -1 -15 6988.66 412.042   3
   6  -1 -14 2152.63 231.179  13
   6  -1 -14 2104.02 235.374   3
   6  -1 -14 2107.95 239.423  52
   6  -1 -14 2282.09 247.555  37
   6  -1 -14 2360.05 248.830  58
   6  -1 -13 18470.8 827.264  52
   6  -1 -13 18408.6 803.361   3
   6  -1 -13 18782.0 818.578  58
   6  -1 -12 5818.41 448.680  52
   6  -1 -12 6526.21 444.458   3
   6  -1 -12 6293.73 442.670  16
   6  -1 -12 5107.60 399.943  58
   6  -1 -11 22126.0 905.966  16
   6  -1 -11 22801.8 914.108  58
   6  -1 -10 3971.34 325.705  16
   6  -1 -10 3778.72 315.756  58
  -6  -1   8 20032.9 1078.98  19
   6  -1  -7 3702.74 373.399  28
  -6  -1   7 3234.21 387.410  19
   6  -1  -7 3594.06 392.037  15
   6  -1  -6 51004.2 1688.80  28
  -6  -1   6 51731.3 1807.95  19
   6  -1  -6 49284.4 1762.28  15
   6  -1  -6 51141.1 1828.20   1
   6  -1  -5 39641.7 1389.34  28
   6  -1  -5 38410.4 1487.22   1
  -6  -1   5 41037.8 1510.60  19
   6  -1  -5 41326.6 1516.77  15
   6  -1  -4 81397.3 2339.41  28
   6  -1  -4 84011.0 2479.28   1
  -6  -1   4 84216.2 2499.18  19
   6  -1  -4 85611.4 2523.79  15
   6  -1  -3 4037.19 349.626  28
   6  -1  -2 217936. 5214.53  28
   6  -1  -1 90986.6 2643.70  26
   6  -1  -1 94799.1 2699.79   9
   6  -1   0 18974.4 937.890  26
   6  -1   0 20202.7 979.256   9
   6  -1   1 12288.1 747.059  26
   6  -1   1 13299.3 800.178   9
   6  -1   2 27687.3 1246.54  26
   6  -1   2 27820.5 1293.53   9
   6  -1   3 107046. 3286.89   9
   6  -1   4 52276.9 2070.14   9
  -6  -1  -5 31491.3 1137.12  50
  -6  -1  -5 32948.8 1187.59  46
  -6  -1  -6 41231.4 1415.14  50
  -6  -1  -6 43164.5 1466.06  46
  -6  -1  -7 46657.6 1556.05  50
  -6  -1  -7 46472.7 1565.43  46
  -6  -1  -8 7892.80 528.347  50
  -6  -1  -8 8081.87 538.687  46
  -6  -1  -9 654.517 143.649  50
  -6  -1  -9 540.395 117.584  46
  -6  -1 -10 5949.02 415.205  50
   6  -1  11 1275.82 136.194  51
  -6  -1 -11 1146.50 153.701  50
  -6  -1 -12 3174.66 224.019  50
   6   0 -16 32.8789 8.80590  52
   6   0 -16 67.4412 31.8186  13
   6   0 -16 43.7884 45.3506  37
   6   0 -15 448.030 93.9021  52
   6   0 -15 344.458 85.3619  13
   6   0 -15 430.206 96.5802   3
   6   0 -15 398.221 95.0833  37
   6   0 -14 53.8900 48.5633  52
   6   0 -14 80.5257 27.9082  13
   6   0 -14 187.650 67.7774   3
   6   0 -14 58.2352 37.8508  37
   6   0 -13 1418.64 202.529  52
   6   0 -13 1347.83 186.419  13
   6   0 -13 1399.77 192.171   3
   6   0 -13 1323.55 192.002  37
   6   0 -13 1548.79 207.894  58
   6   0 -12 2960.07 318.454  52
   6   0 -12 3272.84 314.649   3
   6   0 -12 2899.91 296.192  16
   6   0 -12 2630.66 283.385  58
   6   0 -11 5654.51 433.694  52
   6   0 -11 5175.56 385.835  16
   6   0 -11 5334.40 388.624  58
   6   0 -10 4728.96 355.679  16
   6   0 -10 4711.21 353.124  58
  -6   0   8 72272.8 2410.46  19
   6   0  -8 71489.5 2393.04  15
  -6   0   7 14585.0 862.264  19
   6   0  -7 13936.4 849.775  15
   6   0  -6 62281.1 2098.80   1
  -6   0   6 61685.3 2059.50  19
   6   0  -6 61133.6 2073.93  15
   6   0  -5 366.865 112.822   1
  -6   0   5 357.227 120.776  19
   6   0  -5 660.718 169.425  15
   6   0  -4 23029.3 898.133  28
  -6   0   4 22726.5 1040.34  19
   6   0  -4 22734.3 1034.44   1
   6   0  -4 22722.1 1064.41  15
   6   0  -3 205200. 4973.17  28
   6   0  -3 225134. 5347.05  15
   6   0  -2 21113.0 852.297  28
   6   0  -1 3086.39 326.678  26
   6   0  -1 3000.72 333.017   9
   6   0   0 38007.9 1421.82  26
   6   0   0 40207.8 1485.08   9
   6   0   1 48606.1 1712.38  26
   6   0   1 49648.3 1771.63   9
   6   0   2 8478.26 624.782  26
   6   0   2 9185.42 674.682   9
   6   0   3 14335.7 897.668   9
   6   0   4 25495.9 1319.77   9
  -6   0  -5 52544.7 1624.96  50
  -6   0  -5 52990.1 1678.25  46
  -6   0  -6 106348. 2896.85  50
  -6   0  -6 110146. 2948.65  46
  -6   0  -7 56804.3 1804.22  50
  -6   0  -7 56891.9 1822.27  46
  -6   0  -8 36174.6 1320.61  46
  -6   0  -8 35493.4 1318.20  50
  -6   0  -9 13490.8 706.914  50
  -6   0  -9 13474.3 684.886  46
   6   0  10 490.243 94.8428  51
  -6   0 -10 463.767 106.995  50
  -6   0 -11 70.8417 31.9273  50
  -6   0 -12 1157.55 135.601  50
   6   1 -16 2346.92 200.003  13
   6   1 -16 2260.63 183.028  48
   6   1 -15 6818.28 405.971  13
   6   1 -15 6552.28 417.819  52
   6   1 -15 6923.59 395.555  37
   6   1 -15 6843.81 412.847   3
   6   1 -14 2737.03 277.921   3
   6   1 -14 2966.41 296.674  52
   6   1 -14 2832.16 270.113  13
   6   1 -14 2677.11 264.211  37
   6   1 -13 17084.9 813.208  52
   6   1 -13 16409.2 759.407   3
   6   1 -13 17352.6 764.020  13
   6   1 -13 16958.9 764.691  37
   6   1 -12 7026.95 499.465  52
   6   1 -12 5830.63 419.902  13
   6   1 -12 6761.45 456.893   3
   6   1 -12 6582.12 455.366  16
   6   1 -12 6794.17 457.478  37
   6   1 -12 5332.55 415.032  58
   6   1 -11 24350.5 1008.53  52
   6   1 -11 24794.2 921.379  13
   6   1 -11 22532.4 917.271  16
   6   1 -11 23324.3 897.182  34
   6   1 -11 22461.0 908.068  58
   6   1 -10 4906.53 388.770  52
   6   1 -10 4168.77 337.977  16
   6   1  -9 4312.29 493.132  15
  -6   1   8 22464.2 1148.72  19
   6   1  -8 22376.2 1190.64  15
  -6   1   7 4631.95 464.804  19
   6   1  -7 4149.18 461.657  15
  -6   1   6 48943.9 1779.33  19
   6   1  -6 52555.8 1909.46  15
   6   1  -6 52936.7 1870.62   1
   6   1  -5 38586.1 1480.55   1
  -6   1   5 37581.4 1447.99  19
   6   1  -5 39384.6 1547.90  15
   6   1  -4 82885.0 2479.31   1
  -6   1   4 84769.1 2505.88  19
   6   1  -4 81948.3 2558.54  15
   6   1  -3 5153.20 468.094  15
   6   1  -2 245141. 6023.93  15
   6   1  -1 89775.1 2589.03  26
   6   1  -1 97858.9 2785.88  15
   6   1   0 19100.5 902.678  26
   6   1   0 19620.3 952.999   9
   6   1   0 19941.8 879.236  14
   6   1   1 11559.5 690.000  26
   6   1   1 11537.0 724.024   9
   6   1   1 11919.1 655.222  14
   6   1   2 28483.0 1218.18  26
   6   1   2 28443.2 1275.20   9
   6   1   3 105273. 3161.11   9
   6   1   4 47625.1 1895.09   9
  -6   1  -5 31061.7 1140.74  50
  -6   1  -5 31306.8 1180.14  46
  -6   1  -6 42955.2 1488.50  50
  -6   1  -6 45125.3 1544.99  46
  -6   1  -7 42839.6 1483.58  50
  -6   1  -7 41887.1 1484.36  46
  -6   1  -8 7858.84 540.562  50
  -6   1  -8 7966.79 544.662  46
  -6   1  -9 577.924 133.432  50
  -6   1  -9 397.996 98.9818  46
  -6   1 -10 6626.24 449.430  50
  -6   1 -10 6499.48 383.728  33
  -6   1 -11 1178.94 160.578  50
   6   2 -16 1517.82 155.548  13
   6   2 -16 1561.23 148.929  48
   6   2 -15 117.319 58.2520  52
   6   2 -15 142.896 58.3792  13
   6   2 -14 15714.4 711.815   3
   6   2 -14 16092.8 708.024  13
   6   2 -14 15746.9 751.957  52
   6   2 -13 16682.9 810.987  52
   6   2 -13 15714.7 734.837   3
   6   2 -13 16892.2 746.709  13
   6   2 -12 15054.5 776.594  52
   6   2 -12 16342.3 727.462  13
   6   2 -12 15432.9 731.906   3
   6   2 -12 15103.8 712.969  16
   6   2 -12 15643.3 711.148  34
   6   2 -11 5248.68 424.647  52
   6   2 -11 4913.67 360.159  13
   6   2 -11 5211.62 382.555  16
   6   2 -11 4967.12 376.816  34
   6   2 -10 68716.7 2018.78  52
   6   2 -10 68346.0 1912.97   4
   6   2 -10 66092.3 1863.34  13
   6   2 -10 64738.9 1893.15  16
   6   2  -9 25604.5 998.885  52
   6   2  -9 24639.4 1333.60  15
  -6   2   8 12684.6 844.149  19
   6   2  -8 13923.2 952.070  15
  -6   2   7 36712.8 1491.43  19
   6   2  -7 34998.1 1580.98  15
  -6   2   6 124227. 3418.03  19
   6   2  -6 120131. 3469.22   1
   6   2  -6 121109. 3583.52  15
   6   2  -5 175409. 4538.14   1
  -6   2   5 173190. 4508.44  19
   6   2  -5 174564. 4686.67  15
   6   2  -4 25330.4 1128.05   1
  -6   2   4 24093.9 1105.91  19
   6   2  -4 25400.4 1200.91  15
   6   2  -3 21697.3 1002.65   1
   6   2  -3 21337.4 1067.86  15
   6   2  -2 137514. 3765.50  15
   6   2  -1 63147.5 2038.00  15
   6   2  -1 57179.8 1882.08  14
   6   2   0 133326. 3522.07  26
   6   2   0 136727. 3655.21   9
   6   2   0 138474. 3706.35  15
   6   2   0 134540. 3571.18  14
   6   2   1 55985.9 1820.76  26
   6   2   1 57285.2 1922.94   9
   6   2   1 57765.0 1922.74  15
   6   2   1 54391.3 1820.93  14
   6   2   2 83272.5 2463.62  26
   6   2   2 80264.2 2534.42   9
   6   2   2 82716.4 2501.59  15
   6   2   2 81977.0 2454.20  14
   6   2   3 2647.20 339.431  26
   6   2   3 2376.72 329.234   9
   6   2   4 11656.1 809.966   9
  -6   2  -5 67920.6 2006.89  50
  -6   2  -5 68146.3 2051.18  46
  -6   2  -6 126850. 3342.84  50
  -6   2  -6 127348. 3377.53  46
  -6   2  -7 18749.8 878.047  50
  -6   2  -7 17652.0 860.958  46
  -6   2  -8 13978.7 741.690  50
  -6   2  -8 13773.2 729.290  46
  -6   2  -9 3474.75 338.454  50
  -6   2  -9 3418.09 291.247  33
  -6   2 -10 7052.18 467.567  50
  -6   2 -10 6455.17 386.921  33
  -6   2 -11 215.368 67.6564  50
  -6   2 -11 174.917 48.3951  33
  -6   2 -12 365.169 70.3235  36
   6   3 -16 242.251 55.6816  13
   6   3 -16 293.466 64.2569  48
   6   3 -15 1314.06 161.061  13
   6   3 -15 1498.35 175.733  48
   6   3 -14 6819.17 425.424   3
   6   3 -14 6183.09 404.151  13
   6   3 -14 6977.23 469.918  52
   6   3 -13 2342.40 248.383  13
   6   3 -13 2247.53 268.448  52
   6   3 -13 2117.36 233.977   3
   6   3 -13 2414.70 245.624  34
   6   3 -12 36025.3 1207.43  13
   6   3 -12 33733.3 1289.60  52
   6   3 -12 34430.9 1210.24   3
   6   3 -12 33833.8 1206.12  34
   6   3 -11 9930.11 533.396  13
   6   3 -11 9129.56 583.260  52
   6   3 -11 9546.11 543.992   3
   6   3 -11 9326.88 529.313  16
   6   3 -11 9884.31 525.578   5
   6   3 -11 9188.37 549.546  34
   6   3 -10 15437.8 702.765  13
   6   3 -10 18815.8 857.416  52
   6   3 -10 18311.5 776.686   4
   6   3 -10 18396.4 777.530  16
   6   3 -10 18897.9 833.096  34
   6   3 -10 18585.7 764.776   5
   6   3  -9 26943.1 974.619   5
   6   3  -9 27375.0 1052.94  52
   6   3  -9 29042.3 996.701   4
   6   3  -9 25287.0 955.213  16
  -6   3   8 29551.1 1360.65  19
   6   3  -8 29254.6 1496.32  15
  -6   3   7 2745.04 358.085  19
   6   3  -7 2193.13 356.014  15
  -6   3   6 52215.1 1844.96  19
   6   3  -6 51875.1 2048.74  15
   6   3  -5 32782.5 1370.97   1
  -6   3   5 33241.4 1350.54  19
   6   3  -5 31010.6 1463.18  15
  -6   3   4 128415. 3416.66  19
   6   3  -4 119940. 3368.96   1
   6   3  -4 116868. 3535.98  15
   6   3  -3 33770.7 1336.75   1
   6   3  -3 31677.9 1403.42  15
   6   3  -2 21238.0 1088.81  15
   6   3  -2 23007.7 1053.17  14
   6   3  -1 204950. 5298.86  15
   6   3  -1 213317. 5232.45  14
   6   3   0 52304.1 1852.60  15
   6   3   0 53528.9 1826.89  14
   6   3   1 9888.51 654.431  15
   6   3   1 9927.55 663.254  14
   6   3   2 22804.7 1100.77  14
   6   3   3 24095.4 1157.47  14
  -6   3  -4 36550.1 1273.60  50
  -6   3  -4 37600.9 1331.93  46
  -6   3  -5 199.946 58.7899  50
  -6   3  -5 300.177 114.280  46
  -6   3  -6 7217.58 517.305  50
  -6   3  -6 7757.92 551.918  46
  -6   3  -7 670.181 147.932  50
  -6   3  -7 791.425 153.434  46
  -6   3  -7 750.712 135.383  33
  -6   3  -8 2481.99 293.164  50
  -6   3  -8 2463.16 290.257  46
  -6   3  -8 1839.59 219.390  33
  -6   3  -9 1652.79 224.657  50
  -6   3  -9 1666.15 199.938  33
  -6   3 -10 2444.70 261.612  50
  -6   3 -10 2585.71 230.584  33
  -6   3 -11-45.9034 34.8406  36
   6   4 -16 1106.80 125.520  13
   6   4 -16 1442.62 151.794  48
   6   4 -15 7339.16 383.546  13
   6   4 -15 6569.41 382.182  48
   6   4 -14 482.900 109.808  13
   6   4 -13 10868.5 561.917   3
   6   4 -13 11073.6 565.507  13
   6   4 -13 10481.0 606.305  52
   6   4 -13 10580.1 568.365  34
   6   4 -12 1514.23 224.625  52
   6   4 -12 1077.12 166.541  13
   6   4 -12 1670.42 212.124   3
   6   4 -12 1269.32 201.427  34
   6   4 -11 40875.8 1301.10  13
   6   4 -11 38008.2 1391.39  52
   6   4 -11 38112.4 1301.49   3
   6   4 -11 41228.8 1325.83   5
   6   4 -11 38162.6 1359.77  34
   6   4 -10 25951.8 1010.97  52
   6   4 -10 25643.8 926.091   4
   6   4 -10 26669.2 1018.16  34
   6   4 -10 25899.0 944.822   5
   6   4  -9 4553.68 374.697  52
   6   4  -9 5232.93 363.832   4
   6   4  -9 5597.39 389.751   5
   6   4  -8 36233.6 1202.27   5
   6   4  -8 34859.8 1156.16  44
  -6   4   8 32671.5 1485.00  19
  -6   4   7 45302.3 1736.87  19
   6   4  -7 45081.6 1977.05  15
  -6   4   6 9452.61 693.464  19
   6   4  -6 13478.2 954.766  15
  -6   4   5 35196.9 1420.61  19
   6   4  -5 32480.6 1561.74  15
   6   4  -5 34461.7 1455.99   1
   6   4  -4 9678.60 688.905   1
   6   4  -4 11128.4 821.153  15
   6   4  -3 247285. 5972.44   1
   6   4  -3 233206. 6129.85  15
   6   4  -2 17482.2 993.196  15
   6   4  -2 18888.1 970.860  14
   6   4  -1 7126.09 579.805  15
   6   4  -1 6827.93 558.235  14
   6   4   0 9255.57 653.025  15
   6   4   0 9186.83 666.628  14
   6   4   1 18344.3 994.652  14
   6   4   2 29670.6 1342.92  14
   6   4   3 2386.04 344.299  14
  -6   4  -3 2717.86 280.429  46
   6   4   3 2530.57 240.798  39
  -6   4  -4 38117.7 1318.59  50
  -6   4  -4 38614.6 1369.00  46
   6   4   4 40414.8 1260.69  39
   6   4   4 36139.8 1156.77   7
  -6   4  -5 34279.0 1276.68  50
  -6   4  -5 34524.8 1308.83  46
   6   4   5 37657.2 1215.16  39
  -6   4  -5 35048.5 1191.71  33
  -6   4  -6 13813.3 743.794  50
  -6   4  -6 13492.9 741.992  46
  -6   4  -6 13805.4 663.533  33
  -6   4  -7 1373.69 209.682  50
  -6   4  -7 826.026 161.326  46
  -6   4  -7 1099.04 169.799  33
  -6   4  -8 996.752 179.069  50
  -6   4  -8 937.600 167.464  46
  -6   4  -8 987.318 158.461  33
  -6   4  -9 16155.2 752.858  36
  -6   4 -10 267.880 84.8736  36
  -6   4 -11 5923.21 343.021  36
   6   5 -15 5189.25 299.952  13
   6   5 -15 4752.37 305.659  48
   6   5 -14 2825.13 238.485  13
   6   5 -14 2665.29 256.624  48
   6   5 -13 622.352 118.427  13
   6   5 -13 443.246 99.1193  48
   6   5 -12 3961.77 317.085  13
   6   5 -12 3480.58 332.414  52
   6   5 -12 3594.16 332.999  34
   6   5 -11 501.268 118.800  52
   6   5 -11 732.914 132.821  13
   6   5 -11 724.431 143.042   5
   6   5 -11 628.242 137.998  34
   6   5 -10 14351.2 651.227  13
   6   5 -10 14535.1 723.321  52
   6   5 -10 14167.2 742.761  34
   6   5 -10 14405.8 702.779   5
   6   5  -9 5723.99 413.631  52
   6   5  -9 6526.22 466.868  34
   6   5  -9 6454.78 435.925   5
   6   5  -8 60892.7 1801.40   5
   6   5  -8 57096.9 1700.69   4
   6   5  -8 62724.6 1765.41  44
   6   5  -7 33169.6 1177.12   5
   6   5  -7 34719.9 1148.21  44
   6   5  -6 21804.5 1303.13  15
   6   5  -5 24226.2 1347.02  15
   6   5  -4 16054.3 1034.57  15
   6   5  -3 19039.7 1104.01  15
   6   5  -2 10572.0 775.868  15
   6   5  -2 11027.7 761.634  14
   6   5  -1 23404.8 1159.16  14
   6   5   0 55937.9 2032.27  14
   6   5   1 31301.9 1425.02  14
  -6   5  -2 61887.7 1839.48  46
   6   5   2 57932.2 1650.65   7
   6   5   2 60283.4 1710.81  39
  -6   5  -3 11575.9 654.748  46
   6   5   3 12972.0 568.475   7
   6   5   3 13693.5 622.372  39
  -6   5  -3 10402.6 557.663  36
  -6   5  -4 10069.7 594.020  46
  -6   5  -4 9194.68 510.160  36
   6   5   5 5147.34 374.565  39
  -6   5  -5 5346.34 435.661  46
  -6   5  -5 4719.56 382.445  36
  -6   5  -6 10962.0 657.397  46
  -6   5  -6 10764.9 620.380  36
  -6   5  -7 15346.3 772.096  46
  -6   5  -7 14929.4 743.937  36
  -6   5  -8 1854.65 233.443  36
  -6   5  -9 3215.51 292.827  36
  -6   5 -10 7896.45 437.996  36
  -6   5 -11 487.328 79.8446  36
   6   6 -15 3536.59 235.800  48
   6   6 -14 4691.89 325.519  48
   6   6 -14 4809.52 301.690  13
   6   6 -13 164.691 63.1080  13
   6   6 -13 185.531 71.4860  48
   6   6 -12 3677.11 294.236  13
   6   6 -12 3441.53 316.218  48
   6   6 -12 3648.02 331.733  34
   6   6 -11 768.620 130.357  13
  -6   6  11 1062.25 162.481  11
   6   6 -11 845.617 160.222  34
   6   6 -10 6168.48 398.081  13
   6   6 -10 5650.23 413.445  52
   6   6 -10 5785.36 456.443  34
   6   6 -10 6297.30 447.332   5
   6   6  -9 461.962 122.764   5
   6   6  -9 321.140 77.4148  13
   6   6  -9 405.055 122.262  34
   6   6  -8 35820.0 1287.47   5
   6   6  -8 38748.1 1272.46  44
   6   6  -8 35025.9 1311.86  34
   6   6  -7 4049.50 344.636   5
   6   6  -7 3752.74 319.174  44
   6   6  -7 3381.90 329.022  34
   6   6  -6 27854.0 1025.93  44
  -6   6   5 31202.0 1104.42  10
   6   6  -5 30978.8 1091.14  44
   6   6  -4 33893.4 1144.76  44
   6   6  -4 30202.8 1534.82  15
   6   6  -3 19976.5 1146.13  15
   6   6  -2 55906.0 2076.16  14
   6   6  -1 20989.9 1147.94  14
   6   6   0 34514.7 1130.93   7
  -6   6   0 37872.1 1270.26  46
   6   6   1 27502.5 945.412   7
   6   6   1 27923.2 962.813  39
  -6   6  -2 3220.71 323.200  46
   6   6   2 2895.86 255.090   7
   6   6   2 2825.48 265.947  39
   6   6   3 23039.2 840.156   7
  -6   6  -3 22021.7 960.360  46
   6   6   3 23210.0 887.894  39
  -6   6  -4 101767. 2918.64  46
   6   6   4 113290. 2824.17  39
  -6   6  -4 99813.0 2783.13  36
   6   6   4 111803. 2714.28   7
  -6   6  -5 1306.52 209.392  46
   6   6   5 1786.41 218.091  39
  -6   6  -5 1223.51 179.809  36
  -6   6  -6 7561.50 520.824  46
  -6   6  -6 7639.75 489.859  36
  -6   6  -7 1687.51 223.976  46
  -6   6  -7 1473.18 205.834  36
  -6   6  -8 4453.80 351.435  36
  -6   6  -9 431.759 88.8547  36
  -6   6 -10 334.731 75.5518  36
   6   7 -14 9717.32 451.456  48
   6   7 -13 3580.13 283.455  48
  -6   7  12 739.831 118.756  53
   6   7 -12 757.538 141.503  48
  -6   7  12 884.404 132.631  11
   6   7 -11 4597.87 360.933  48
  -6   7  11 4654.61 338.702  11
   6   7 -11 5302.80 354.269  13
   6   7 -11 4621.58 384.433  34
   6   7 -10 5257.74 395.558  48
   6   7 -10 5813.75 430.787   5
   6   7 -10 5979.79 457.246  34
   6   7 -10 5995.09 385.859  13
   6   7  -9 10115.2 550.518  48
   6   7  -9 9648.99 599.079  34
   6   7  -9 9921.95 589.383   5
   6   7  -8 6030.51 403.763  48
   6   7  -8 6799.38 459.541  44
   6   7  -8 6206.63 468.736  34
   6   7  -8 6641.75 477.203   5
   6   7  -7 13618.9 715.556   5
   6   7  -7 14406.1 696.336  44
   6   7  -7 13339.6 704.178  34
   6   7  -6 7336.18 499.156   5
   6   7  -6 8117.06 497.468  44
   6   7  -6 7400.77 490.308  34
   6   7  -5 38245.3 1155.68   7
   6   7  -5 38091.0 1286.45  44
   6   7  -4 26065.7 918.988   7
  -6   7   4 28382.7 1038.80  10
   6   7  -4 25575.7 1009.95  44
   6   7  -3 59730.7 1660.16   7
   6   7  -3 57925.7 1758.91  44
  -6   7   3 56662.0 1737.06  10
   6   7  -2 44820.4 1353.71   7
   6   7  -2 42975.6 1441.09  44
  -6   7   2 44702.0 1437.42  10
   6   7  -1 69257.8 1871.77   7
  -6   7   1 64311.6 1926.16  10
   6   7   0 29201.8 1039.84   7
  -6   7   0 32957.7 1190.22  46
  -6   7   0 32886.7 1156.13  10
   6   7   1 7335.91 429.333   7
  -6   7  -1 6816.56 482.691  46
  -6   7  -1 6437.60 443.908  10
   6   7   1 7001.68 425.064  39
  -6   7  -2 18651.2 831.218  46
  -6   7  -2 19323.0 806.047  10
   6   7   2 10940.8 591.709  39
   6   7   3 4177.52 311.166   7
  -6   7  -3 4024.78 368.258  46
   6   7   3 3875.73 321.848  39
  -6   7  -3 3400.22 299.976  36
  -6   7  -4 9590.65 596.194  46
   6   7   4 6431.60 440.155  39
  -6   7  -4 10072.0 548.268  36
   6   7   4 6279.59 395.540   7
  -6   7  -5 3536.62 346.587  46
   6   7   5 3659.26 308.061  39
  -6   7  -5 2590.24 278.100  36
  -6   7  -6 8207.97 503.769  36
  -6   7  -7 7991.23 484.244  36
  -6   7  -8 4139.47 320.761  36
  -6   7  -9 4008.89 285.418  36
  -6   8  13 5967.88 299.627  53
   6   8 -13 6603.51 354.115  48
  -6   8  13 5834.15 297.884  11
  -6   8  12 255.962 68.1213  53
   6   8 -12 274.304 72.9673  48
  -6   8  12 202.728 58.7143  11
   6   8 -11 369.671 91.0036  48
  -6   8  11 463.053 100.697  11
   6   8 -10 14429.5 647.883  48
  -6   8  10 13561.5 635.885  11
   6   8  -9 4283.31 324.762  48
   6   8  -9 4501.90 379.640   5
   6   8  -9 4222.83 369.867  34
   6   8  -8 4707.51 396.426  34
   6   8  -8 4807.08 403.000   5
   6   8  -7 51852.5 1612.22  44
   6   8  -7 48593.6 1584.30  34
   6   8  -7 47392.7 1607.27   5
   6   8  -6 4193.13 376.619   5
   6   8  -6 4180.01 365.013  44
   6   8  -6 4472.21 365.642  34
   6   8  -5 6142.32 452.666   5
   6   8  -5 5424.91 354.089   7
   6   8  -5 6098.96 438.234  44
   6   8  -4 24536.6 874.573   7
   6   8  -4 21861.1 950.454   5
   6   8  -4 22650.8 952.023  44
   6   8  -3 83396.3 2198.25   7
  -6   8   3 82360.8 2308.17  10
   6   8  -3 80423.8 2328.48  44
   6   8  -2 4117.25 321.847   7
   6   8  -2 4602.25 398.190  44
   6   8  -1 37355.5 1192.92   7
   6   8  -1 33815.0 1271.60  44
  -6   8   1 35979.4 1256.73  10
   6   8   0 366.707 101.075   7
  -6   8   0 525.533 125.238  10
   6   8   1 21426.2 834.089   7
  -6   8  -1 20613.0 878.157  10
   6   8   2 37823.5 1220.29   7
  -6   8  -2 37749.8 1307.79  10
   6   8   3 33174.6 1071.26   7
  -6   8  -3 30702.0 1130.77  10
   6   8   3 32403.0 1102.37  39
  -6   8  -4 5441.39 393.395  10
   6   8   4 3664.73 310.693  39
  -6   8  -4 5149.99 371.623  36
   6   8   4 3803.91 287.250   7
  -6   8  -5 11123.3 579.663  36
  -6   8  -6 1270.16 183.373  36
  -6   8  -7 657.776 114.546  36
  -6   8  -8 6769.53 380.042  36
  -6   8  -9 2289.87 183.785  36
  -6   9  12 11292.4 458.477  53
  -6   9  12 11081.4 456.154  11
  -6   9  11 2284.80 204.571  53
   6   9 -11 2758.37 224.447  48
  -6   9  11 2543.14 217.560  11
   6   9 -10 741.260 114.874  48
  -6   9  10 669.304 121.431  11
  -6   9   9 7505.86 445.546  11
   6   9  -8 3647.14 336.289   5
   6   9  -7 528.546 130.558   5
   6   9  -7 577.225 125.059  44
   6   9  -7 608.145 123.269  34
   6   9  -6 2875.92 298.910  44
   6   9  -6 2933.47 303.578   5
   6   9  -5 1077.16 145.622   7
   6   9  -5 1072.51 179.715  44
   6   9  -5 995.192 171.811   5
   6   9  -4 11690.3 626.659   5
   6   9  -4 10549.7 528.349   7
   6   9  -4 10083.8 606.085  44
   6   9  -3 6733.24 461.293   5
   6   9  -3 8160.80 451.774   7
   6   9  -3 7424.34 500.762  44
   6   9  -2 1644.31 194.397   7
   6   9  -2 1556.94 220.765  44
   6   9  -1 23343.3 881.725   7
  -6   9   1 23113.2 936.012  10
   6   9  -1 22223.9 963.605  44
   6   9   0 20826.1 822.101   7
   6   9   0 20164.2 904.143  44
  -6   9   0 21484.5 884.910  10
   6   9   1 2990.03 267.443   7
   6   9   1 2945.05 304.512  44
  -6   9  -1 3358.36 305.723  10
  -6   9  -2 17873.0 761.339  10
  -6   9  -2 17131.3 707.559  36
   6   9   3 11663.0 531.506   7
  -6   9  -3 9656.18 522.331  36
  -6   9  -4 3528.22 294.073  36
   6   9   4 3193.03 248.057   7
  -6   9  -5 2165.00 222.205  36
  -6   9  -6 6098.24 372.176  36
  -6   9  -7 567.497 98.9791  36
  -6   9  -8 2826.01 205.550  36
  -6  10  11 4770.14 272.790  53
  -6  10  11 4887.16 276.675  11
  -6  10  10 3642.85 260.087  53
  -6  10  10 3862.54 268.426  11
  -6  10   9 5499.17 347.853  11
  -6  10   8 3627.95 290.677  11
   6  10  -7 2481.73 256.016   5
   6  10  -6 17222.8 772.858  44
   6  10  -6 16153.7 742.248   5
   6  10  -5 1858.41 193.225   7
   6  10  -5 1605.15 205.897   5
   6  10  -5 1604.92 215.650  44
   6  10  -4 6469.98 389.481   7
   6  10  -4 6723.07 465.270  44
   6  10  -4 7542.29 459.746   5
   6  10  -3 1452.97 178.723   7
   6  10  -3 1212.95 187.707  44
   6  10  -2 10852.1 535.652   7
   6  10  -2 9758.71 577.437  44
   6  10  -1 3242.70 273.069   7
   6  10  -1 3230.58 311.765  44
   6  10   0 24287.4 886.187   7
   6  10   0 23427.9 954.563  44
   6  10   1 4530.32 322.027   7
   6  10   1 4495.37 359.325  44
   6  10   2 2243.49 241.316  44
   6  10   2 2162.14 210.846   7
   6  10   3 3443.40 253.314   7
   6  10   3 3148.54 276.825  44
  -6  10  -3 3218.57 264.059  36
   6  10   4 3372.74 269.310  44
  -6  10  -4 3302.29 260.470  36
   6  10   4 3444.98 234.515   7
   6  10   5 520.198 90.2978  44
  -6  10  -5 592.760 100.962  36
   6  10   6 6323.44 316.974  44
  -6  10  -6 7282.40 363.250  36
  -6  11  10 2335.85 174.797  53
  -6  11  10 2497.63 179.068  11
  -6  11   9 3791.67 248.020  53
  -6  11   9 3782.96 249.641  11
  -6  11   8 1757.92 172.863  53
  -6  11   8 1970.48 183.658  11
  -6  11   7 2518.31 220.613  11
  -6  11   6 1118.75 146.030  11
   6  11  -5 9631.75 437.866   7
  -6  11   5 9153.78 472.214  11
   6  11  -5 9228.05 509.825  44
   6  11  -4 2674.26 221.366   7
   6  11  -4 2772.55 266.266  44
   6  11  -3 3146.81 249.076   7
   6  11  -3 2898.21 273.068  44
   6  11  -2 13923.9 591.121   7
   6  11  -2 13549.1 646.692  44
   6  11  -1 8814.04 450.401   7
   6  11  -1 8788.72 493.544  44
   6  11   0 3901.50 277.609   7
   6  11   0 3540.52 295.173  44
   6  11   1 242.089 66.0746   7
   6  11   1 182.678 70.1537  44
   6  11   2 1889.74 176.506   7
   6  11   2 1727.05 183.183  44
   6  11   3 10223.4 459.911  44
   6  11   3 10770.1 441.228   7
   6  11   4 92.9976 28.1570   7
   6  11   4 98.2226 39.4838  44
  -6  12   7 2130.30 167.181  53
  -6  12   7 2104.62 166.237  11
  -6  12   6 3828.98 242.060  53
  -6  12   6 4067.89 250.790  11
   6  12  -5 4953.55 258.092   7
  -6  12   5 4751.30 276.208  53
  -6  12   5 4952.51 282.454  11
   6  12  -4 2495.11 191.805   7
  -6  12   4 2859.67 203.254   7
   6  12  -3 888.437 109.797   7
   6  12  -3 919.237 130.687  44
  -6  12   3 799.561 109.353   7
   6  12  -2 998.801 124.498   7
   6  12  -2 1063.21 134.650  44
  -6  12   2 996.003 130.271   7
   6  12  -1 1803.10 166.421   7
   6  12  -1 1730.37 170.918  44
   6  12   0 3497.22 230.090   7
   6  12   0 2731.49 209.864  44
  -6  12  -1 6146.14 344.856   7
   6  12   1 7540.91 343.804   7
   6  12   2 453.301 71.0288   7
  -6  12  -2 537.111 91.7950   7
  -6  13   1 1144.46 114.816   7
   7 -12  -6 7779.44 331.084  32
   7 -12  -6 8199.22 339.714  43
   7 -12  -6 7410.72 323.582  42
   7 -12  -5 2953.41 189.080  47
   7 -12  -5 2944.00 191.623  42
   7 -12  -5 2930.00 183.378  38
   7 -12  -5 3166.61 200.665  32
   7 -12  -4 8227.90 358.601  42
   7 -12  -4 9048.76 379.108  32
   7 -12  -4 8384.98 352.438  38
   7 -12  -3 724.536 96.9244  32
   7 -12  -3 614.005 83.3782  42
   7 -12  -3 776.319 95.0910  38
   7 -12  -2 1370.01 133.919  32
   7 -12  -2 1236.31 121.749  42
   7 -12  -2 1372.09 127.504  38
   7 -12  -1 103.390 42.1106  32
   7 -12  -1 77.1559 26.7667  38
   7 -12   0 385.018 59.6682  38
   7 -11  -9 3242.65 206.959  47
   7 -11  -9 3496.30 202.573  43
   7 -11  -9 3424.22 206.210  42
   7 -11  -8 301.968 61.1002  32
   7 -11  -8 269.794 59.9394  47
   7 -11  -8 343.339 65.1131  43
   7 -11  -8 346.941 62.3868  42
   7 -11  -7 498.959 83.2401  32
   7 -11  -7 526.556 93.3981  47
   7 -11  -7 596.123 91.2252  43
   7 -11  -7 525.089 88.7537  42
   7 -11  -7 514.683 84.0531  38
   7 -11  -6 7383.54 368.503  32
   7 -11  -6 6908.35 328.930  31
   7 -11  -6 6988.12 364.768  42
   7 -11  -6 6817.80 351.339  38
   7 -11  -5 3235.34 227.839  49
   7 -11  -5 3277.80 241.937  42
   7 -11  -5 3387.70 247.905  32
   7 -11  -5 3415.95 242.638  38
   7 -11  -4 3600.48 260.526  32
   7 -11  -4 3604.12 259.695  42
   7 -11  -4 3734.83 259.178  38
   7 -11  -4 3626.85 246.391  49
   7 -11  -3 1776.57 162.072  56
   7 -11  -3 1848.59 186.004  32
   7 -11  -3 1822.42 176.421  38
   7 -11  -2 3113.48 226.561  56
   7 -11  -2 2973.87 234.506  38
   7 -11  -1 449.178 81.0557  56
   7 -11   0 9405.85 430.762  56
   7 -11   1 425.371 83.0967  56
   7 -11   2 827.539 108.558  56
   7 -11   3 1087.87 115.081  56
   7 -10 -11 848.791 99.5233  47
   7 -10 -10 658.043 100.124  47
   7 -10 -10 649.713 92.6664  43
   7 -10 -10 612.158 97.0019  42
   7 -10 -10 689.358 92.7114  60
   7 -10  -9 9687.27 453.049  47
   7 -10  -9 9751.90 428.410  43
   7 -10  -9 9434.55 437.043  42
   7 -10  -9 9905.96 435.734  32
   7 -10  -8 2841.42 227.674  32
   7 -10  -8 2825.11 225.279  43
   7 -10  -8 2786.02 232.686  42
   7 -10  -8 2670.19 226.921  40
   7 -10  -7 730.921 117.765  32
   7 -10  -7 660.919 109.002  42
   7 -10  -7 620.974 106.816  40
   7 -10  -7 788.880 121.054  38
   7 -10  -6 6080.41 377.596  49
   7 -10  -6 6190.75 380.470  32
   7 -10  -6 5956.51 377.794  42
   7 -10  -6 5901.37 367.020  40
   7 -10  -6 5736.91 364.956  38
   7 -10  -5 7196.05 407.619  32
   7 -10  -5 6697.47 391.509  49
   7 -10  -5 6367.56 379.062  40
   7 -10  -5 7222.21 406.324  38
   7 -10  -4 1010.73 147.071  32
   7 -10  -4 967.971 137.535  49
   7 -10  -4 1142.33 146.616  56
   7 -10  -4 939.074 138.334  38
   7 -10  -4 964.770 136.950  59
   7 -10  -3 778.636 121.452  56
   7 -10  -3 794.008 127.128  49
   7 -10  -3 788.311 125.514  59
   7 -10  -2 2597.56 235.218  56
   7 -10  -2 2342.52 216.693  49
   7 -10  -2 2399.99 221.415  59
   7 -10  -1 1012.86 137.024  49
   7 -10  -1 1109.31 148.711  56
   7 -10  -1 1178.56 151.278  59
   7 -10   0 2265.40 220.660  56
   7 -10   0 2207.83 205.948  59
   7 -10   1 2442.21 225.026  56
   7 -10   1 2720.86 216.996  45
   7 -10   1 2433.32 211.129  59
  -7 -10  -2 5500.80 339.975  46
   7 -10   2 4929.48 298.382  45
  -7 -10  -3 12158.7 539.153  46
   7 -10   3 13041.7 509.001  45
  -7 -10  -4 2228.38 194.951  46
   7 -10   4 1943.80 162.035  45
  -7 -10  -5 1196.12 130.831  46
   7 -10   5 1242.40 114.834  45
   7  -9 -12 584.775 86.9580  58
   7  -9 -12 512.027 81.8437  47
   7  -9 -11 870.114 116.706  47
   7  -9 -11 847.893 103.864  43
   7  -9 -11 759.561 94.4227  60
   7  -9 -10 1862.92 189.924  47
   7  -9 -10 1717.67 167.240  43
   7  -9 -10 1850.11 184.519  42
   7  -9  -9 3546.47 264.462  43
   7  -9  -9 3738.41 280.843  42
   7  -9  -9 3612.60 289.072  40
   7  -9  -9 3572.53 268.000  32
   7  -9  -8 625.711 120.592  32
   7  -9  -8 603.917 113.818  43
   7  -9  -8 690.046 125.211  42
   7  -9  -8 709.635 133.116  40
   7  -9  -8 748.520 123.604  38
   7  -9  -7 10105.4 507.066  32
   7  -9  -7 9906.71 518.641  49
   7  -9  -7 9999.01 519.889  42
   7  -9  -7 9198.85 508.755  40
   7  -9  -7 10051.6 510.956  38
   7  -9  -6 13073.5 624.650  49
   7  -9  -6 12774.5 617.259  40
   7  -9  -6 13873.0 627.945  38
   7  -9  -6 13601.6 621.859  32
   7  -9  -5 660.825 128.859  32
   7  -9  -5 552.359 112.389  49
   7  -9  -5 617.863 118.832  56
   7  -9  -5 656.544 121.757  40
   7  -9  -5 455.975 102.100  38
   7  -9  -5 591.732 120.159  59
   7  -9  -4 13656.7 640.623  49
   7  -9  -4 13073.4 621.203  40
   7  -9  -4 13766.7 629.549  59
   7  -9  -4 13817.0 621.275  56
   7  -9  -3 6716.82 415.578  59
   7  -9  -3 6650.81 419.997  49
   7  -9  -3 7472.18 440.400  56
   7  -9  -3 6906.58 419.521  40
   7  -9  -2 23612.7 896.237  56
   7  -9  -2 23849.4 851.539  45
   7  -9  -2 22297.5 863.739  59
   7  -9  -1 4639.11 346.845  56
   7  -9  -1 4682.46 323.556  45
   7  -9  -1 4386.66 326.099  59
   7  -9   0 14433.8 631.703  45
  -7  -9  -1 20532.9 814.774  46
   7  -9   1 20317.7 782.456  45
  -7  -9  -2 2309.45 234.802  46
  -7  -9  -3 2180.90 227.411  46
  -7  -9  -4 2636.50 243.694  46
  -7  -9  -5 4540.32 280.042  50
  -7  -9  -5 4794.89 316.415  46
  -7  -9  -6 5325.35 287.393  50
  -7  -9  -6 6075.30 334.404  46
   7  -8 -13 4179.40 236.092  47
   7  -8 -13 4513.02 256.969  58
   7  -8 -12 4901.43 295.090  47
   7  -8 -11 1337.43 160.297  47
   7  -8 -11 1219.64 136.038  43
   7  -8 -11 1357.55 156.256  42
   7  -8 -10 5580.78 367.875  47
   7  -8 -10 5230.99 332.511  43
   7  -8 -10 4928.81 342.416  42
   7  -8 -10 5729.16 385.856  40
   7  -8 -10 5378.12 345.321  32
   7  -8  -9 1073.88 155.905  32
   7  -8  -9 968.572 142.573  43
   7  -8  -9 868.662 140.827  42
   7  -8  -9 1167.44 171.424  40
   7  -8  -9 1128.12 154.730  38
   7  -8  -8 2949.21 280.934  49
   7  -8  -8 2928.47 269.520  32
   7  -8  -8 2898.26 276.928  42
   7  -8  -8 3016.97 289.940  40
   7  -8  -8 2896.73 273.185  38
   7  -8  -7 3760.96 315.810  49
   7  -8  -7 3546.48 292.981  32
   7  -8  -7 3580.79 303.873  42
   7  -8  -7 3552.67 308.353  40
   7  -8  -7 3495.87 295.750  38
   7  -8  -6 5940.41 397.851  32
   7  -8  -6 5931.91 408.897  49
   7  -8  -6 5736.42 375.156  56
   7  -8  -6 5955.32 415.590  40
   7  -8  -6 5935.89 400.067  38
   7  -8  -6 5698.27 390.720  59
   7  -8  -5 3568.46 301.336  32
   7  -8  -5 3420.17 305.721  49
   7  -8  -5 3959.56 311.661  56
   7  -8  -5 3374.58 301.719  40
   7  -8  -5 3452.81 302.834  38
   7  -8  -5 3670.32 309.613  59
   7  -8  -4 24337.9 931.397  56
   7  -8  -4 25437.6 909.577  45
   7  -8  -4 25455.2 963.638  40
   7  -8  -4 24994.7 942.883  59
   7  -8  -3 5936.94 404.748  56
   7  -8  -3 5940.54 381.559  45
   7  -8  -3 6383.24 412.456  40
   7  -8  -3 5689.32 381.005  35
   7  -8  -3 5952.01 398.381  59
   7  -8  -2 24595.8 903.494  45
   7  -8  -2 23241.5 899.175  40
   7  -8  -2 23343.4 918.946  56
   7  -8  -2 24068.5 899.127  35
   7  -8  -1 21651.0 831.896  45
   7  -8  -1 19812.7 798.895  35
   7  -8   0 11897.4 571.926  35
   7  -8   1 34709.9 1105.87  57
   7  -8   1 32438.1 1096.92  35
  -7  -8  -2 18558.6 799.366  46
   7  -8   2 19199.3 741.824  57
   7  -8   2 17920.7 732.129  35
  -7  -8  -3 278.048 76.6409  46
   7  -8   3 420.425 92.6059  57
   7  -8   3 286.664 71.4273  35
  -7  -8  -4 7929.62 431.533  50
  -7  -8  -4 8626.98 487.298  46
   7  -8   4 6633.62 381.502  35
   7  -8   4 6534.98 385.589  57
   7  -8   5 18606.4 682.054  57
  -7  -8  -5 17374.5 689.908  50
  -7  -8  -5 17366.6 735.569  46
  -7  -8  -6 11492.8 502.941  50
  -7  -8  -6 11842.4 542.284  46
   7  -8   7 1001.88 108.832  57
  -7  -8  -7 1038.31 126.943  50
  -7  -8  -7 927.286 124.699  46
   7  -7 -14 6372.42 314.722  37
   7  -7 -14 6137.51 305.310  58
   7  -7 -13 720.781 107.230  58
   7  -7 -13 552.731 88.3496  47
   7  -7 -12 341.149 79.2324  47
   7  -7 -11 539.010 106.441  47
   7  -7 -11 545.240 91.3378  43
   7  -7 -11 508.113 101.183  42
   7  -7 -11 378.079 84.4528  40
   7  -7 -10 21092.4 783.049  43
   7  -7 -10 21886.5 835.519  42
   7  -7 -10 22166.5 880.848  40
   7  -7 -10 21241.4 813.153  32
   7  -7  -9 224.173 88.6750  32
   7  -7  -9 142.740 64.3941  49
   7  -7  -9 236.380 65.8339  43
   7  -7  -9 71.0276 32.9837  42
   7  -7  -9 115.477 63.7829  40
   7  -7  -9 311.174 79.6643  38
   7  -7  -8 9641.39 541.581  49
   7  -7  -8 9827.34 516.842  32
   7  -7  -8 9520.41 520.214  42
   7  -7  -8 9825.67 559.091  40
   7  -7  -8 9774.86 526.640  38
   7  -7  -7 12184.5 625.772  49
   7  -7  -7 12473.8 600.599  32
   7  -7  -7 12757.8 647.457  40
   7  -7  -7 12680.6 613.368  38
   7  -7  -7 12826.9 622.610  59
   7  -7  -6 12339.7 598.472  32
   7  -7  -6 12370.9 623.916  49
   7  -7  -6 12485.3 635.718  40
   7  -7  -6 12657.4 611.924  38
   7  -7  -6 12712.6 619.821  59
   7  -7  -6 12593.5 601.370  56
   7  -7  -5 4231.80 326.407  56
   7  -7  -5 4198.48 314.363  45
   7  -7  -5 4002.45 331.278  40
   7  -7  -5 3983.03 324.193  59
   7  -7  -4 12147.5 585.440  45
   7  -7  -4 11967.6 596.149  56
   7  -7  -4 12370.0 620.713  40
   7  -7  -4 12079.1 603.535  35
   7  -7  -4 12626.2 615.470  59
   7  -7  -3 19880.1 813.320  56
   7  -7  -3 19814.2 790.954  45
   7  -7  -3 19577.8 801.617  35
   7  -7  -3 20250.4 817.063  59
   7  -7  -2 49957.3 1470.85  57
   7  -7  -2 48004.4 1512.98  56
   7  -7  -2 50320.9 1499.50  45
   7  -7  -2 48340.9 1492.03  35
   7  -7  -1 42030.2 1299.17  57
   7  -7  -1 40226.3 1307.09  35
   7  -7   0 1106.40 163.021  35
   7  -7   0 1006.79 149.488  57
   7  -7   1 3390.89 294.991  57
   7  -7   1 3466.80 297.145  35
  -7  -7  -2 36142.1 1205.52  46
   7  -7   2 29077.5 1070.45  57
   7  -7   3 10515.4 536.034  57
  -7  -7  -3 9508.84 553.903  46
   7  -7   4 4915.77 354.171  57
   7  -7   4 5068.37 351.717  51
  -7  -7  -4 6531.42 403.310  50
  -7  -7  -4 7051.45 455.213  46
   7  -7   5 8983.24 458.719  51
  -7  -7  -5 7127.90 431.551  50
  -7  -7  -5 7450.10 470.820  46
   7  -7   5 8613.16 460.783  57
   7  -7   6 2532.52 228.553  51
  -7  -7  -6 4277.01 307.402  50
  -7  -7  -6 4890.21 348.920  46
   7  -7   6 2418.61 227.320  57
   7  -7   7 4780.85 300.006  57
   7  -7   7 5077.38 300.709  51
  -7  -7  -7 4308.60 296.862  50
  -7  -7  -7 4696.06 324.944  46
   7  -7   8 1484.08 141.903  57
   7  -7   8 1305.36 131.085  51
  -7  -7  -8 1482.29 153.983  50
  -7  -7  -8 1748.60 173.470  46
   7  -6 -14 2056.44 181.090  58
   7  -6 -13 6002.03 333.014  47
   7  -6 -13 6810.75 380.234  58
   7  -6 -12 2867.99 249.431  47
   7  -6 -11 6005.42 385.816  47
   7  -6 -11 6256.63 359.079  43
   7  -6 -11 5949.87 380.611  42
   7  -6 -11 5901.37 407.612  40
   7  -6 -10 6761.07 420.313  32
   7  -6 -10 7445.92 413.588  43
   7  -6 -10 7029.69 431.285  42
   7  -6 -10 7174.18 467.715  40
   7  -6  -9 13559.7 623.279  32
   7  -6  -9 13543.9 652.290  49
   7  -6  -9 13443.4 593.165  43
   7  -6  -9 12930.3 623.165  42
   7  -6  -9 14129.9 677.190  40
   7  -6  -9 13249.2 632.796  38
   7  -6  -8 8391.34 477.061  32
   7  -6  -8 8035.29 493.417  49
   7  -6  -8 8421.14 481.888  42
   7  -6  -8 8798.14 522.253  40
   7  -6  -8 8139.64 478.269  38
   7  -6  -7 13732.8 624.302  32
   7  -6  -7 13255.9 641.360  49
   7  -6  -7 12941.2 655.331  40
   7  -6  -7 13031.7 621.563  38
   7  -6  -7 13495.8 639.822  59
   7  -6  -6 7911.52 449.909  32
   7  -6  -6 8017.69 481.632  49
   7  -6  -6 7971.52 463.299  56
   7  -6  -6 8274.07 500.294  40
   7  -6  -6 8388.14 476.343  38
   7  -6  -6 8180.81 475.633  59
   7  -6  -5 87478.7 2289.73  56
   7  -6  -5 84168.1 2249.97  45
   7  -6  -5 85220.8 2331.34  40
   7  -6  -5 84303.5 2292.66  35
   7  -6  -5 86416.5 2296.12  59
   7  -6  -4 6333.65 398.120  45
   7  -6  -4 5973.60 395.846  56
   7  -6  -4 6556.18 416.354  35
   7  -6  -4 6612.20 417.782  59
   7  -6  -3 34911.0 1154.58  57
   7  -6  -3 36552.6 1171.49  45
   7  -6  -3 35577.2 1187.95  56
   7  -6  -3 35414.7 1177.34  35
   7  -6  -2 2990.14 262.307  57
   7  -6  -2 3112.10 272.899  45
   7  -6  -2 2879.68 265.851  35
   7  -6  -1 87891.5 2336.27  35
   7  -6  -1 87456.6 2320.33  57
   7  -6   0 6424.14 410.144  57
   7  -6   1 1956.81 210.481  51
   7  -6   1 1937.63 218.584  57
   7  -6   2 1270.81 182.294  51
   7  -6   2 1592.12 211.267  57
   7  -6   3 251.619 80.4829  51
  -7  -6  -3 365.669 84.1917  46
   7  -6   4 18917.6 774.287  51
  -7  -6  -4 17237.6 743.593  50
  -7  -6  -4 17563.4 805.038  46
   7  -6   5 2766.23 261.439  51
  -7  -6  -5 2527.60 248.736  50
  -7  -6  -5 2500.40 269.195  46
   7  -6   6 6936.67 418.782  51
  -7  -6  -6 6468.02 412.911  50
  -7  -6  -6 6973.10 453.071  46
   7  -6   7 8327.99 437.939  51
  -7  -6  -7 6959.99 417.885  50
  -7  -6  -7 7429.17 449.562  46
  -7  -6  -8 2869.10 235.475  50
  -7  -6  -8 2573.49 232.994  46
   7  -6   9 722.457 96.6538  57
   7  -6   9 812.569 100.707  51
  -7  -6  -9 480.619 84.6081  50
  -7  -6  -9 526.142 89.5552  46
   7  -5 -15 4013.96 253.387  37
   7  -5 -15 3823.56 241.071  58
   7  -5 -14 7819.24 405.290  58
   7  -5 -13 4535.24 311.236  52
   7  -5 -13 4281.44 312.903  58
   7  -5 -12 2861.19 244.006  47
   7  -5 -11 7353.24 427.436  47
   7  -5 -11 7064.71 419.557  42
   7  -5 -11 7259.90 455.195  40
   7  -5 -11 6900.33 425.944  16
   7  -5 -10 10148.9 530.580  42
   7  -5 -10 10643.8 577.642  40
   7  -5 -10 11113.9 560.268  16
   7  -5 -10 10455.3 540.974  32
   7  -5  -9 9547.68 505.704  32
   7  -5  -9 9576.86 530.793  49
   7  -5  -9 9439.99 502.890  42
   7  -5  -9 9503.81 540.255  40
   7  -5  -9 9592.94 517.278  38
   7  -5  -8 39532.4 1286.14  49
   7  -5  -8 39128.0 1245.38  42
   7  -5  -8 38950.6 1246.49  32
   7  -5  -8 39257.8 1310.46  40
   7  -5  -8 38832.3 1262.12  38
   7  -5  -7 23334.3 892.528  49
   7  -5  -7 22719.2 854.185  32
   7  -5  -7 22866.2 908.345  40
   7  -5  -7 23652.3 880.196  38
   7  -5  -7 23268.6 888.009  59
   7  -5  -6 3517.50 293.304  56
   7  -5  -6 3695.00 290.611  32
   7  -5  -6 4128.91 331.107  40
   7  -5  -6 4380.38 320.754  38
   7  -5  -6 3883.07 312.617  59
   7  -5  -5 6366.42 390.808  45
   7  -5  -5 7552.82 428.409  56
   7  -5  -5 6578.48 410.612  35
   7  -5  -5 6748.92 409.081  59
   7  -5  -4 11398.3 546.107  45
   7  -5  -4 11050.9 550.849  56
   7  -5  -4 11699.5 562.165  35
   7  -5  -4 11856.2 562.780  59
   7  -5  -3 107561. 2687.27  57
   7  -5  -3 104374. 2696.18  56
   7  -5  -3 107988. 2694.41  45
   7  -5  -3 104630. 2698.61  35
   7  -5  -2 42102.5 1304.45  57
   7  -5  -2 39344.4 1793.68  29
   7  -5  -2 43493.2 1325.26  35
   7  -5  -1 4711.28 329.188  57
   7  -5  -1 3683.90 286.124  51
   7  -5   0 425.384 95.4916  57
   7  -5   0 455.558 98.2319  51
  -7  -5   0 501.881 100.353  46
   7  -5   1 6882.12 419.269  51
  -7  -5  -1 6295.74 420.644  46
   7  -5   2 8304.49 484.560  51
  -7  -5  -2 9949.38 548.751  46
  -7  -5  -3 2923.65 296.155  46
   7  -5   3 2759.86 263.874  51
  -7  -5  -4 14299.2 661.278  50
  -7  -5  -4 14891.2 723.482  46
   7  -5   4 12765.9 638.937  51
   7  -5   5 5337.04 380.978  51
  -7  -5  -5 4674.33 358.536  50
  -7  -5  -5 4907.68 392.424  46
  -7  -5  -6 10573.5 554.619  50
  -7  -5  -6 10780.8 595.458  46
   7  -5   7 404.614 87.3696  51
  -7  -5  -7 222.352 57.6034  50
  -7  -5  -7 217.238 77.0619  46
   7  -5   8 5237.24 336.893  51
  -7  -5  -8 5271.99 350.739  50
  -7  -5  -8 5013.33 350.181  46
  -7  -5  -9 1704.52 174.148  50
   7  -5   9 2154.78 185.390  51
  -7  -5  -9 1685.32 175.412  46
   7  -5  10 2132.92 157.687  51
   7  -4 -15 948.038 111.123  13
   7  -4 -15 1149.22 141.025  37
   7  -4 -15 1082.82 134.718  58
   7  -4 -14 3281.62 264.300  52
   7  -4 -14 3744.49 266.387   3
   7  -4 -14 3460.61 274.836  58
   7  -4 -13 1010.92 150.866  58
   7  -4 -13 1008.11 153.587  52
   7  -4 -13 979.218 146.650   3
   7  -4 -12 15411.8 672.564   3
   7  -4 -12 14930.6 686.361  58
   7  -4 -11 431.431 88.1600  42
   7  -4 -11 426.542 97.1992  40
   7  -4 -11 613.719 114.739   3
   7  -4 -11 553.057 116.427  16
   7  -4 -10 4579.27 340.461  42
   7  -4 -10 4618.11 367.202  40
   7  -4 -10 4570.68 360.239  16
   7  -4  -9 2325.77 231.069  32
   7  -4  -9 2199.96 233.408  49
   7  -4  -9 2186.58 220.052  42
   7  -4  -9 2791.58 265.946  40
   7  -4  -9 2277.16 236.498  38
   7  -4  -9 2223.62 237.781  16
   7  -4  -8 68788.3 1872.05  32
   7  -4  -8 68241.6 1904.27  49
   7  -4  -8 66865.3 1860.23  42
   7  -4  -8 68569.2 1936.55  40
   7  -4  -8 69247.8 1898.74  38
   7  -4  -8 66603.9 1901.86  16
   7  -4  -7 2197.45 211.924  32
   7  -4  -7 2385.48 234.244  49
   7  -4  -7 2163.61 226.388  40
   7  -4  -7 2151.66 217.132  38
   7  -4  -7 2167.44 220.791  59
   7  -4  -6 37094.4 1183.72  56
   7  -4  -6 36564.9 1587.04  28
   7  -4  -6 36448.9 1161.37  45
   7  -4  -6 37799.8 1184.56  59
   7  -4  -5 3938.42 454.816  28
   7  -4  -4 71776.1 2425.85  28
   7  -4  -3 918.521 221.659  28
   7  -4  -2 45342.6 1782.07  28
   7  -4  -1 18693.6 1058.28  28
   7  -4   0 36945.4 1619.58  26
   7  -4   0 36550.3 1596.18   9
   7  -4   1 30436.1 1024.27  51
  -7  -4  -1 28184.9 1030.01  46
   7  -4   2 44370.3 1420.20  51
  -7  -4  -2 50638.7 1524.43  46
   7  -4   3 33707.7 1138.66  51
  -7  -4  -3 30612.0 1146.55  46
  -7  -4  -4 18710.9 767.973  50
  -7  -4  -4 18420.7 820.060  46
  -7  -4  -5 25152.8 973.054  50
  -7  -4  -5 25650.3 1025.74  46
  -7  -4  -6 17285.8 776.488  50
  -7  -4  -6 18547.3 833.918  46
  -7  -4  -7 1840.05 222.402  50
   7  -4   7 2045.23 226.443  51
  -7  -4  -7 1869.71 232.342  46
  -7  -4  -8 2197.15 235.988  50
  -7  -4  -8 2379.46 254.070  46
   7  -4   9 230.180 65.8398  51
  -7  -4  -9 119.569 43.6324  50
  -7  -4  -9 214.988 71.3319  46
   7  -4  10 4149.55 254.930  51
  -7  -4 -10 6639.76 340.173  50
   7  -3 -16 376.728 73.5430  37
   7  -3 -15 2391.42 204.035  52
   7  -3 -15 2605.13 200.624  13
   7  -3 -15 2281.98 209.326  37
   7  -3 -15 2408.41 206.971  58
   7  -3 -14 10536.9 515.155   3
   7  -3 -14 10885.8 533.819  52
   7  -3 -14 10730.2 526.004  58
   7  -3 -13 1323.31 182.871  52
   7  -3 -13 1347.74 177.345   3
   7  -3 -13 1332.08 178.672  58
   7  -3 -12 4481.62 342.395   3
   7  -3 -12 4408.69 351.721  16
   7  -3 -12 4509.34 348.949  58
   7  -3 -11 23159.1 894.299  40
   7  -3 -11 22916.9 926.115  16
   7  -3 -10 13044.0 633.492  40
   7  -3 -10 13591.0 661.669  16
   7  -3  -9 9291.19 501.876  49
   7  -3  -9 9498.38 494.636  32
   7  -3  -9 9380.39 512.674  40
   7  -3  -9 9186.30 520.209  16
   7  -3  -8 12865.6 585.687  32
   7  -3  -8 13410.4 609.783  54
   7  -3  -8 13884.0 622.089  49
   7  -3  -8 14020.3 637.731  40
   7  -3  -8 14032.2 618.551  38
   7  -3  -7 13322.6 850.390  28
  -7  -3   7 13941.5 902.302  19
   7  -3  -6 23390.8 1152.74  28
  -7  -3   6 22744.2 1170.26  19
   7  -3  -5 34741.8 1450.21  28
   7  -3  -5 33643.5 1465.05   1
   7  -3  -5 35913.9 1456.20  15
   7  -3  -4 80916.8 2562.10  28
   7  -3  -4 84132.1 2603.36  15
   7  -3  -4 80809.1 2577.65   1
   7  -3  -3 136177. 3794.44   1
   7  -3  -3 138723. 3791.50  28
   7  -3  -2 56974.9 1999.76  28
   7  -3  -1 22363.4 1131.60  28
   7  -3  -1 22868.9 1162.65  26
   7  -3  -1 23488.0 1165.56   9
   7  -3   0 8261.72 675.623  26
   7  -3   0 8434.86 678.200   9
   7  -3   1 28688.4 1381.75  26
   7  -3   1 25590.7 1319.90   9
   7  -3   2 3558.53 311.729  51
  -7  -3  -2 11936.4 569.558  46
   7  -3   3 21280.0 832.808  51
  -7  -3  -3 18582.6 829.329  46
  -7  -3  -4 37218.9 1257.66  50
  -7  -3  -4 38976.6 1332.38  46
  -7  -3  -5 10929.9 588.654  50
  -7  -3  -5 10605.7 613.018  46
  -7  -3  -6 10739.9 597.513  50
  -7  -3  -6 11549.0 642.658  46
  -7  -3  -7 3088.61 292.825  50
  -7  -3  -7 3179.28 313.507  46
  -7  -3  -8 16417.1 749.624  50
  -7  -3  -8 16512.7 759.875  46
   7  -3   9 2889.78 240.664  51
  -7  -3  -9 2695.00 247.613  50
  -7  -3  -9 2345.84 230.840  46
  -7  -3 -10 3328.25 252.704  50
  -7  -3 -10 2975.90 221.869  46
   7  -2 -16 847.660 107.254  52
   7  -2 -16 622.535 83.4774  13
   7  -2 -16 875.906 109.152  37
   7  -2 -15 847.899 128.981  52
   7  -2 -15 687.556 105.428  13
   7  -2 -15 936.267 130.589   3
   7  -2 -15 900.112 133.798  37
   7  -2 -14 1248.53 178.105  52
   7  -2 -14 1345.21 164.393  13
   7  -2 -14 1403.83 184.802   3
   7  -2 -14 1319.25 172.610  58
   7  -2 -13 10756.7 585.430  52
   7  -2 -13 10252.2 551.654   3
   7  -2 -13 10751.2 557.283  58
   7  -2 -12 5907.40 439.102  52
   7  -2 -12 6006.54 418.195   3
   7  -2 -12 6245.65 433.678  16
   7  -2 -12 5652.75 401.697  58
   7  -2 -11 505.223 100.827  58
   7  -2 -11 700.886 143.908  16
   7  -2 -10 9511.30 543.782  16
   7  -2  -9 42101.6 1325.77  40
   7  -2  -9 44181.7 1388.94  16
   7  -2  -8 16741.2 703.785  54
  -7  -2   7 768.637 198.325  19
   7  -2  -6 29273.4 1278.77  28
   7  -2  -6 30122.6 1409.72   1
   7  -2  -5 135158. 3706.28  28
   7  -2  -5 133852. 3812.40   1
  -7  -2   5 137703. 3856.37  19
   7  -2  -5 141549. 3829.14  15
   7  -2  -4 120226. 3367.41  28
   7  -2  -4 120689. 3478.10   1
   7  -2  -4 128793. 3539.41  15
   7  -2  -3 1293.21 224.051  28
   7  -2  -3 1550.21 260.423   1
   7  -2  -2 67734.9 2182.64  28
   7  -2  -1 20087.3 1053.54  26
   7  -2  -1 20347.2 1067.63   9
   7  -2   0 16960.9 975.269  26
   7  -2   0 17402.2 1002.10   9
   7  -2   1 11591.6 811.044  26
   7  -2   1 12373.0 846.133   9
   7  -2   2 19777.9 1124.00  26
   7  -2   2 18879.6 1130.33   9
   7  -2   3 66190.1 1810.01  51
  -7  -2  -3 58517.0 1829.30  46
  -7  -2  -4 46790.5 1504.49  50
  -7  -2  -4 51503.9 1616.22  46
  -7  -2  -5 34281.7 1206.35  50
  -7  -2  -5 34349.4 1261.81  46
  -7  -2  -6 1942.64 239.375  50
  -7  -2  -6 1855.28 246.780  46
  -7  -2  -7 13212.4 672.973  50
  -7  -2  -7 13036.0 689.665  46
   7  -2   8 11693.6 559.326  51
  -7  -2  -8 10157.0 572.740  50
  -7  -2  -8 10451.8 585.030  46
   7  -2   9 6874.08 385.377  51
  -7  -2  -9 5714.52 388.940  50
  -7  -2  -9 5734.13 385.424  46
   7  -2  10 4524.01 269.266  51
  -7  -2 -10 3973.55 287.371  50
  -7  -2 -10 3687.04 258.642  46
  -7  -2 -11 1191.89 126.935  50
   7  -1 -16 554.832 91.9225  52
   7  -1 -16 570.840 83.2040  13
   7  -1 -16 550.058 85.7425  37
   7  -1 -15 2004.16 207.131  52
   7  -1 -15 1949.13 192.001  13
   7  -1 -15 2067.64 201.856  37
   7  -1 -15 2103.41 208.024   3
   7  -1 -14 1064.60 165.269  52
   7  -1 -14 1122.76 150.382  13
   7  -1 -14 997.463 153.777   3
   7  -1 -14 1064.23 157.849  37
   7  -1 -14 1255.41 168.502  58
   7  -1 -13 3508.99 280.817  13
   7  -1 -13 3318.42 312.317  52
   7  -1 -13 3279.63 302.680   3
   7  -1 -13 3411.53 306.876  16
   7  -1 -13 3035.47 281.637  58
   7  -1 -12 10461.7 604.618  52
   7  -1 -12 10385.9 574.472   3
   7  -1 -12 10221.9 579.855  16
   7  -1 -12 10477.7 563.798  58
   7  -1 -11 16689.6 772.756  16
   7  -1 -11 18099.2 766.895  58
   7  -1 -10 23277.6 927.359  16
   7  -1  -9 11194.4 566.038  54
   7  -1  -9 11193.1 564.075   4
  -7  -1   7 60591.4 2148.01  19
   7  -1  -7 56297.2 2070.89  15
   7  -1  -6 101540. 3107.04   1
  -7  -1   6 104897. 3118.46  19
   7  -1  -6 97999.0 3042.69  15
  -7  -1   5 14551.4 879.181  19
   7  -1  -5 13343.7 842.473   1
   7  -1  -5 14808.8 882.599  15
   7  -1  -4 10186.2 626.228  28
   7  -1  -4 10364.8 712.291   1
   7  -1  -4 9530.48 697.932  15
   7  -1  -3 58293.0 1889.33  28
   7  -1  -3 63500.7 2128.10  15
   7  -1  -2 13544.7 750.491  28
   7  -1  -1 99.2060 32.7386  26
   7  -1  -1 100.012 45.2886   9
   7  -1   0 79275.2 2565.36  26
   7  -1   0 82377.0 2618.70   9
   7  -1   1 116300. 3427.39  26
   7  -1   1 116477. 3467.88   9
   7  -1   2 60524.2 2205.44  26
   7  -1   2 61807.7 2256.59   9
   7  -1   3 12272.3 581.364  51
  -7  -1  -3 11409.3 614.332  46
  -7  -1  -4 4174.36 338.962  50
  -7  -1  -4 4426.19 370.422  46
  -7  -1  -5 8631.52 522.757  50
  -7  -1  -5 8563.03 552.141  46
  -7  -1  -6 7747.60 509.954  50
  -7  -1  -6 6917.96 506.678  46
   7  -1   7 2117.52 227.394  51
  -7  -1  -7 2014.01 241.221  50
  -7  -1  -7 1684.80 240.717  46
   7  -1   8 5485.82 368.876  51
  -7  -1  -8 6403.57 449.520  50
  -7  -1  -8 6430.15 455.565  46
   7  -1   9 3580.49 264.538  51
  -7  -1  -9 2817.32 274.378  50
  -7  -1  -9 2979.25 277.171  46
   7  -1  10 1081.69 123.009  51
  -7  -1 -10 1463.23 177.391  50
  -7  -1 -10 1519.94 164.622  46
  -7  -1 -11 868.683 112.978  50
   7   0 -16 6927.79 330.252  13
   7   0 -16 7780.63 385.367  52
   7   0 -15 200.541 62.7665  52
   7   0 -15 155.989 49.5627  13
   7   0 -15 181.326 67.2397   3
   7   0 -15 164.584 58.7927  37
   7   0 -14 2303.79 251.437  52
   7   0 -14 1888.27 200.684  13
   7   0 -14 2082.16 231.546   3
   7   0 -14 1968.16 216.667  37
   7   0 -13 1908.01 237.345  52
   7   0 -13 1422.00 179.131  13
   7   0 -13 1456.11 197.017   3
   7   0 -13 1487.69 198.874  16
   7   0 -13 1559.04 198.364  37
   7   0 -13 1480.46 193.704  58
   7   0 -12 55048.1 1738.93  52
   7   0 -12 52560.4 1657.13  16
   7   0 -12 54972.6 1637.17  58
   7   0 -11 2805.13 298.416  52
   7   0 -11 2916.49 290.695  16
   7   0 -10 13005.3 634.390   4
   7   0 -10 12997.4 645.250  16
   7   0  -9 28985.7 1034.29   4
   7   0  -8 12918.1 895.158  15
  -7   0   7 1035.25 229.070  19
   7   0  -7 755.625 184.350  15
   7   0  -6 4098.48 454.011   1
  -7   0   6 4459.64 468.830  19
  -7   0   5 10783.9 742.262  19
   7   0  -5 10243.8 724.552   1
   7   0  -5 10013.7 731.240  15
   7   0  -4 99727.7 2969.80   1
   7   0  -4 100215. 3048.98  15
   7   0  -3 375.110 137.313  15
   7   0  -2 13889.3 858.197  15
   7   0  -1 1036.39 203.642  26
   7   0   0 20147.0 1035.08  26
   7   0   0 20869.1 1082.09   9
   7   0   1 11960.4 787.104  26
   7   0   1 12374.0 828.048   9
   7   0   2 38475.5 1609.27  26
   7   0   2 38747.4 1663.50   9
   7   0   3 17139.6 696.910  51
  -7   0  -3 14882.1 732.558  46
  -7   0  -4 33072.4 1194.24  50
  -7   0  -4 32988.2 1252.14  46
   7   0   5 347.406 83.0462  51
  -7   0  -5 292.418 95.7788  50
  -7   0  -5 334.749 109.927  46
  -7   0  -6 5504.88 422.278  50
  -7   0  -6 5894.38 465.511  46
  -7   0  -7 6623.57 474.153  50
   7   0   7 7604.44 440.734  51
  -7   0  -7 6443.56 480.250  46
  -7   0  -8 1009.13 178.516  50
  -7   0  -8 1127.82 189.940  46
  -7   0  -9 13688.9 673.184  50
  -7   0  -9 12941.4 642.194  46
  -7   0 -10 8828.31 472.487  50
  -7   0 -11 2608.52 201.377  50
   7   1 -16 649.144 105.003  52
   7   1 -16 548.776 83.7766  13
   7   1 -15 1685.12 170.513  13
   7   1 -15 1589.17 190.594  52
   7   1 -15 1594.28 180.324   3
   7   1 -14 808.335 149.052  52
   7   1 -14 746.230 124.589  13
   7   1 -14 718.812 135.072   3
   7   1 -13 3425.60 281.816  13
   7   1 -13 3696.18 342.844  52
   7   1 -13 3391.97 308.273   3
   7   1 -12 11121.3 644.652  52
   7   1 -12 10901.2 597.778   3
   7   1 -12 10527.8 584.543  16
   7   1 -11 17261.2 823.270  52
   7   1 -11 16790.1 763.597  16
   7   1 -10 21024.0 913.684  52
   7   1 -10 20888.6 855.149   4
   7   1 -10 20742.6 859.178  16
   7   1  -9 12041.4 596.102   4
   7   1  -8 12548.2 615.425  54
   7   1  -8 11956.8 901.133  15
  -7   1   7 55649.2 2068.45  19
   7   1  -7 57264.4 2183.01  15
  -7   1   6 101772. 3091.49  19
   7   1  -6 101185. 3173.17  15
   7   1  -6 100214. 3109.16   1
  -7   1   5 15756.1 930.076  19
   7   1  -5 16745.5 959.669   1
   7   1  -5 17626.5 1017.81  15
   7   1  -4 9128.97 666.954   1
   7   1  -4 7955.41 662.160  15
   7   1  -3 67708.8 2319.51  15
   7   1  -2 11946.3 804.589  15
   7   1  -1 397.053 118.602  15
   7   1   0 81197.7 2524.38  26
   7   1   0 84432.2 2640.89   9
   7   1   0 82688.5 2654.69  15
   7   1   1 117584. 3426.82  26
   7   1   1 126485. 3572.61   9
   7   1   2 56570.0 2045.28  26
   7   1   2 58611.2 2132.61   9
  -7   1  -3 9836.96 543.314  50
  -7   1  -3 10929.2 610.086  46
   7   1   4 4576.45 335.010  51
  -7   1  -4 4955.79 383.942  50
  -7   1  -4 5499.20 436.873  46
  -7   1  -5 9387.59 571.428  50
  -7   1  -5 8890.50 584.151  46
  -7   1  -6 6219.45 454.077  50
  -7   1  -6 6296.24 488.570  46
   7   1   7 1941.51 201.005  51
  -7   1  -7 1752.58 228.844  50
  -7   1  -7 1500.33 221.290  46
  -7   1  -8 6086.76 445.537  50
  -7   1  -8 6460.43 460.529  46
  -7   1  -9 3228.76 296.632  50
  -7   1  -9 2750.63 259.069  46
  -7   1 -10 1810.35 200.902  50
   7   2 -16 897.194 100.607  13
   7   2 -16 867.453 110.683  48
   7   2 -15 602.824 115.763  52
   7   2 -15 617.168 101.349  13
   7   2 -15 613.561 105.579   3
   7   2 -14 1481.60 174.899  13
   7   2 -14 1696.95 217.639  52
   7   2 -14 1536.70 195.802   3
   7   2 -13 11803.7 559.823  13
   7   2 -13 10739.4 580.454   3
   7   2 -13 11118.2 627.155  52
   7   2 -13 11001.9 553.993  34
   7   2 -12 5465.30 441.190  52
   7   2 -12 5855.02 421.101   3
   7   2 -12 6088.00 423.013  16
   7   2 -12 5866.54 413.053  34
   7   2 -11 290.743 93.0356  52
   7   2 -11 173.698 76.6511  16
   7   2 -11 160.178 52.3978  34
   7   2 -10 8808.50 556.903  52
   7   2 -10 9299.94 523.541   4
   7   2 -10 8636.55 511.525  16
   7   2  -9 47795.9 1546.90  52
   7   2  -9 47187.2 1469.64   4
   7   2  -8 17210.5 762.920  54
   7   2  -8 16998.0 722.957   4
  -7   2   7 932.343 217.443  19
   7   2  -7 706.750 209.581  15
  -7   2   6 36026.9 1543.44  19
   7   2  -6 35068.9 1654.15  15
   7   2  -6 34127.9 1565.00   1
   7   2  -5 137694. 3855.28   1
  -7   2   5 133364. 3821.78  19
   7   2  -5 136735. 3996.67  15
   7   2  -4 116621. 3435.05   1
   7   2  -4 124252. 3625.79  15
   7   2  -3 1111.33 228.317   1
   7   2  -3 1210.50 250.700  15
   7   2  -2 74530.8 2502.86  15
   7   2  -1 25381.3 1238.04  15
   7   2   0 18230.1 1014.54  15
   7   2   0 17084.8 919.560  14
   7   2   1 11955.4 793.385   9
   7   2   1 10585.4 752.298  15
   7   2   2 15377.4 940.568   9
  -7   2  -3 64126.4 1884.56  50
  -7   2  -3 67480.0 1990.20  46
  -7   2  -4 50833.2 1646.17  50
  -7   2  -4 55078.3 1752.64  46
  -7   2  -5 36636.4 1305.14  50
  -7   2  -5 36220.5 1354.46  46
  -7   2  -6 1861.06 248.019  50
  -7   2  -6 1770.68 248.739  46
  -7   2  -7 10556.3 618.651  50
  -7   2  -7 10378.3 626.700  46
  -7   2  -8 9717.51 574.068  50
  -7   2  -8 9387.74 560.880  46
  -7   2  -9 6138.75 422.059  50
  -7   2  -9 5585.10 374.458  46
  -7   2 -10 4568.38 321.458  50
   7   3 -16 320.556 68.4159  48
   7   3 -15 2264.42 186.766  13
   7   3 -14 11488.3 525.678  13
   7   3 -14 11827.4 568.747   3
   7   3 -14 11722.3 606.537  52
   7   3 -14 12167.5 551.301  34
   7   3 -13 1330.29 196.002  52
   7   3 -13 1374.78 171.282  13
   7   3 -13 1262.44 179.407   3
   7   3 -13 1276.34 176.482  34
   7   3 -12 3602.73 352.203  52
   7   3 -12 3584.57 318.479   3
   7   3 -12 3910.33 322.500  16
   7   3 -12 3420.12 315.562  34
   7   3 -11 21410.2 945.514  52
   7   3 -11 21219.2 870.010  16
   7   3 -11 20988.6 835.408   5
   7   3 -11 22598.1 934.697  34
   7   3 -10 14759.1 749.740  52
   7   3 -10 15791.9 715.835   4
   7   3 -10 15253.1 709.223  16
   7   3 -10 15461.8 688.241   5
   7   3  -9 9061.82 500.849   5
   7   3  -9 8878.04 540.718  52
   7   3  -9 8780.96 503.139   4
   7   3  -9 8503.92 495.416  16
   7   3  -8 12685.3 605.604   5
   7   3  -8 11345.5 608.244  52
   7   3  -8 12605.7 609.867   4
  -7   3   7 12738.3 875.231  19
   7   3  -7 13912.1 1022.84  15
  -7   3   6 20933.9 1116.90  19
   7   3  -6 20210.9 1231.78  15
   7   3  -5 29916.1 1389.20   1
   7   3  -5 29495.7 1500.57  15
   7   3  -4 82707.3 2825.62  15
   7   3  -4 83002.3 2654.79   1
   7   3  -3 154697. 4216.53   1
   7   3  -3 153838. 4370.68  15
   7   3  -2 62303.0 2233.34  15
   7   3  -1 25128.9 1235.66  15
   7   3  -1 23163.8 1147.79  14
   7   3   0 6905.84 600.434  15
   7   3   0 7377.27 599.712  14
   7   3   1 23340.2 1158.58  14
  -7   3  -2 12286.2 626.334  46
   7   3   2 4002.27 306.129   7
  -7   3  -3 16933.4 770.020  50
  -7   3  -3 17811.1 836.167  46
   7   3   3 18160.6 707.005   7
  -7   3  -4 36595.6 1292.56  50
  -7   3  -4 37287.4 1365.98  46
  -7   3  -5 9717.83 588.639  50
  -7   3  -5 9629.05 614.696  46
  -7   3  -6 11704.5 663.657  50
  -7   3  -6 11350.2 678.210  46
  -7   3  -7 3783.12 348.484  50
  -7   3  -7 3354.62 336.902  46
  -7   3  -8 18859.6 837.328  50
  -7   3  -8 17637.0 801.343  46
  -7   3 -10 3033.57 242.403  36
   7   4 -15 950.943 113.186  13
   7   4 -15 1005.62 132.020  48
   7   4 -14 3110.96 240.832  13
   7   4 -14 3222.35 287.508  52
   7   4 -14 3464.48 268.576   3
   7   4 -13 783.666 146.413  52
   7   4 -13 1010.64 142.219  13
   7   4 -13 744.425 129.585   3
   7   4 -13 854.644 141.649  34
   7   4 -12 14933.3 743.307  52
   7   4 -12 15324.3 698.412   3
   7   4 -12 14794.1 722.859  34
   7   4 -11 667.162 132.739   5
   7   4 -11 784.288 158.761  52
   7   4 -11 846.203 148.224   3
   7   4 -11 726.613 144.401  34
   7   4 -10 3923.77 360.820  52
   7   4 -10 4550.01 371.268   4
   7   4 -10 5361.63 435.737  34
   7   4 -10 5024.77 386.849   5
   7   4  -9 2855.25 280.716   5
   7   4  -9 2769.55 287.615  52
   7   4  -9 3280.15 291.894   4
   7   4  -8 62508.8 1839.07   5
   7   4  -8 64252.6 1798.80  44
   7   4  -8 61941.1 1809.20   4
   7   4  -7 2010.59 213.422  44
   7   4  -7 2254.22 230.390   4
   7   4  -5 3895.13 516.944  15
   7   4  -5 3606.14 444.513   1
   7   4  -4 69794.8 2389.71   1
   7   4  -4 70100.7 2594.03  15
   7   4  -3 484.224 146.768   1
   7   4  -3 440.366 148.799  15
   7   4  -2 47285.9 1800.53   1
   7   4  -2 45558.1 1881.60  15
   7   4  -1 16550.4 998.341  15
   7   4  -1 17156.5 996.516  14
   7   4   0 30891.7 1417.36  14
  -7   4  -1 24444.4 1013.03  46
   7   4   1 29119.3 957.882   7
  -7   4  -2 52597.4 1664.75  46
   7   4   2 49373.2 1471.34   7
  -7   4  -3 28695.8 1103.21  50
  -7   4  -3 29387.5 1175.36  46
   7   4   3 32181.2 1035.03   7
  -7   4  -4 20956.9 892.904  50
  -7   4  -4 21318.9 953.099  46
  -7   4  -5 26242.0 1065.94  50
  -7   4  -5 25762.9 1103.56  46
  -7   4  -6 17285.7 834.527  50
  -7   4  -6 17569.2 857.656  46
  -7   4  -7 2003.05 247.419  46
  -7   4  -7 1961.59 230.511  36
  -7   4  -8 1797.54 228.626  46
  -7   4  -8 2077.99 231.244  36
  -7   4  -9 376.411 89.3648  36
  -7   4 -10 6618.35 350.337  36
   7   5 -15 3617.54 244.739  48
   7   5 -14 7136.40 420.218  48
   7   5 -14 8083.93 382.280  13
   7   5 -13 5037.29 316.382  13
   7   5 -13 4749.11 355.274  34
   7   5 -12 2833.32 289.558  52
   7   5 -12 3100.35 310.729  34
   7   5 -11 7715.95 495.383  52
   7   5 -11 7862.12 483.577   5
   7   5 -11 7618.60 520.078  34
   7   5 -10 11002.6 575.686   4
   7   5 -10 10909.1 642.709  34
   7   5 -10 11181.0 603.248   5
   7   5  -9 9467.63 525.934   4
   7   5  -9 8654.13 574.148  34
   7   5  -9 9549.31 555.475   5
   7   5  -8 35999.2 1282.17   5
   7   5  -8 36978.5 1240.38   4
   7   5  -8 38276.2 1251.15  44
   7   5  -7 24299.2 920.615  44
   7   5  -7 23937.0 910.882   4
   7   5  -6 4182.99 329.457  44
   7   5  -6 3818.09 311.722   4
   7   5  -5 6812.99 425.688  44
  -7   5   5 6793.34 437.397  10
   7   5  -4 11555.1 577.437  44
  -7   5   4 13025.3 626.305  10
   7   5  -3 102704. 2602.63  44
  -7   5   3 98420.9 2623.37  10
   7   5  -3 93183.8 3204.76  15
  -7   5   2 43957.5 1389.96  46
  -7   5   2 45696.6 1415.02  10
   7   5  -1 5623.57 356.697   7
  -7   5   1 5086.78 379.714  46
  -7   5   0 618.032 124.850  46
   7   5   0 655.333 116.049   7
  -7   5  -1 6291.29 461.078  46
   7   5   1 6963.87 410.102   7
  -7   5  -2 8870.31 561.245  46
   7   5   2 7288.51 429.322   7
  -7   5  -3 2642.22 302.223  46
   7   5   3 3521.34 280.776   7
  -7   5  -4 13723.2 746.297  46
  -7   5  -4 12962.7 640.044  36
   7   5   4 13189.7 588.846   7
  -7   5  -5 5981.87 466.968  46
  -7   5  -5 5632.11 409.085  36
  -7   5  -6 10274.7 618.738  46
  -7   5  -6 9063.36 536.454  36
  -7   5  -7 403.881 114.491  46
  -7   5  -7 286.048 84.9953  36
  -7   5  -8 4749.33 339.697  46
  -7   5  -8 5073.59 353.688  36
  -7   5  -9 2012.55 195.849  36
   7   6 -14 2168.52 200.478  48
   7   6 -13 6133.61 389.634  48
   7   6 -12 2878.21 275.997  48
   7   6 -12 3167.85 305.746  34
   7   6 -11 6001.97 418.939   5
   7   6 -11 6094.01 451.645  34
   7   6 -10 8204.72 549.808  34
   7   6 -10 8041.53 516.911   5
   7   6  -9 12644.0 668.479   5
   7   6  -9 12050.2 691.531  34
   7   6  -8 9905.52 586.305   5
   7   6  -8 10014.3 549.053  44
   7   6  -8 9947.88 612.160  34
   7   6  -7 13654.0 709.260   5
   7   6  -7 14226.6 672.582  44
   7   6  -7 12574.6 617.561   4
   7   6  -6 8611.72 509.491  44
   7   6  -6 8414.92 487.040   4
   7   6  -5 87435.3 2206.27   7
   7   6  -5 85341.6 2328.85  44
  -7   6   5 82597.0 2345.98  10
   7   6  -5 84056.9 2282.79   4
   7   6  -4 5869.89 371.636   7
   7   6  -4 6646.95 441.041  44
   7   6  -3 35739.9 1144.31   7
   7   6  -3 35115.7 1215.67  44
  -7   6   3 35260.0 1237.34  10
  -7   6   2 2207.14 249.345  46
   7   6  -2 2607.78 270.018  44
  -7   6   2 2127.69 248.560  10
   7   6  -2 2344.15 230.828   7
  -7   6   1 81656.4 2341.22  46
  -7   6   1 80749.3 2331.08  10
  -7   6   0 7594.05 504.752  46
   7   6   0 7174.88 426.455   7
   7   6   1 1795.39 203.659   7
  -7   6  -1 1548.89 225.258  46
  -7   6  -2 3498.87 349.357  46
   7   6   2 1581.14 191.449   7
  -7   6  -3 433.933 123.550  46
   7   6   3 840.040 129.579   7
  -7   6  -4 17825.0 869.128  46
  -7   6  -4 16853.0 755.002  36
   7   6   4 18802.2 721.267   7
  -7   6  -5 2440.74 290.599  46
  -7   6  -5 2260.26 243.915  36
  -7   6  -6 6747.08 474.587  46
  -7   6  -6 6711.30 429.433  36
  -7   6  -7 7146.72 451.536  46
  -7   6  -7 7233.98 431.287  36
  -7   6  -8 2426.44 224.765  36
  -7   6  -9 621.077 94.5873  36
   7   7 -14 5828.33 307.282  48
   7   7 -13 425.145 87.6388  48
   7   7 -12 341.926 85.0724  48
  -7   7  12 420.742 87.3277  11
   7   7 -11 549.724 112.070  48
  -7   7  11 609.767 110.788  11
   7   7 -11 606.971 127.063  34
   7   7 -10 20347.2 818.823  48
   7   7 -10 20974.1 885.098   5
   7   7 -10 20432.1 909.002  34
   7   7  -9 80.2899 44.0858   5
   7   7  -9 79.8000 38.6899  48
   7   7  -9 90.2548 62.7026  34
   7   7  -8 11511.8 601.081  44
   7   7  -8 9944.79 611.903  34
   7   7  -8 10340.2 616.613   5
   7   7  -7 11047.6 637.560   5
   7   7  -7 11632.2 614.258  44
   7   7  -7 10824.6 625.936  34
   7   7  -6 12603.3 688.636   5
   7   7  -6 12915.9 660.022  44
   7   7  -6 12408.2 659.984  34
   7   7  -5 3966.91 340.688  44
   7   7  -5 3349.59 304.975  34
   7   7  -4 10569.8 528.463   7
   7   7  -4 10746.6 604.750  44
   7   7  -3 21624.3 821.183   7
   7   7  -3 20135.8 879.250  44
  -7   7   3 20343.5 882.008  10
   7   7  -2 48498.5 1438.52   7
   7   7  -2 46741.4 1527.29  44
  -7   7   2 45227.9 1516.09  10
   7   7  -1 39428.2 1252.06   7
   7   7  -1 38470.4 1343.91  44
  -7   7   1 37958.0 1333.58  10
  -7   7   0 1314.16 202.112  46
   7   7   0 915.679 143.775   7
  -7   7   0 1251.92 192.501  10
   7   7   1 2285.04 231.525   7
  -7   7  -1 1862.74 249.284  46
  -7   7  -1 2005.87 250.301  10
  -7   7  -2 31182.2 1203.55  46
  -7   7  -2 31335.0 1161.48  10
   7   7   2 29122.3 1027.18   7
  -7   7  -3 10620.2 632.272  46
  -7   7  -3 9922.91 582.280  10
   7   7   3 10864.1 529.406   7
  -7   7  -4 9503.83 587.700  46
  -7   7  -4 9186.02 543.717  10
  -7   7  -4 8566.17 483.248  36
  -7   7  -5 6207.23 453.989  46
  -7   7  -5 6382.29 425.534  10
  -7   7  -5 6203.26 400.535  36
  -7   7  -6 4326.61 327.965  10
  -7   7  -6 3932.74 307.684  36
  -7   7  -7 4598.39 312.030  36
  -7   7  -8 1615.40 162.163  36
   7   8 -13 4612.67 261.270  48
  -7   8  12 4408.03 274.608  53
   7   8 -12 5053.03 300.704  48
  -7   8  12 4446.48 276.327  11
   7   8 -11 904.284 125.676  48
  -7   8  11 927.681 130.930  11
   7   8 -10 5730.21 421.918  34
   7   8  -9 1052.29 172.277   5
   7   8  -9 947.780 162.443  34
   7   8  -8 3138.05 318.010  34
   7   8  -8 3391.49 334.592   5
   7   8  -7 3746.87 328.746  44
   7   8  -7 3283.99 314.806  34
   7   8  -7 3655.08 348.328   5
   7   8  -6 5585.18 439.237   5
   7   8  -6 5983.61 431.792  44
   7   8  -6 5399.80 400.002  34
   7   8  -5 3178.93 322.147   5
   7   8  -5 3880.17 290.196   7
   7   8  -5 3580.02 330.138  44
   7   8  -4 26062.0 943.219   7
   7   8  -4 28412.7 1084.75  44
   7   8  -3 5819.46 377.143   7
  -7   8   3 5657.16 422.198  10
   7   8  -3 5898.00 435.794  44
   7   8  -2 22757.9 886.495   7
   7   8  -2 23749.6 990.897  44
  -7   8   2 26074.0 1013.74  10
   7   8  -1 19024.8 766.093   7
   7   8  -1 18168.7 834.576  44
  -7   8   1 16837.8 794.640  10
   7   8   0 14185.1 714.971  44
  -7   8   0 13740.5 696.729  10
   7   8   0 13514.7 630.003   7
   7   8   1 33181.7 1095.69   7
  -7   8  -1 29848.8 1140.80  10
  -7   8  -2 16325.4 773.747  10
   7   8   2 18827.1 737.059   7
   7   8   3 486.092 103.427   7
  -7   8  -3 219.815 89.9826  10
  -7   8  -4 7878.64 466.532  10
  -7   8  -4 7370.79 420.744  36
   7   8   4 6413.54 364.383   7
  -7   8  -5 15090.3 635.714  36
  -7   8  -6 11147.3 505.534  36
  -7   8  -7 1042.05 124.473  36
  -7   9  12 627.371 88.7526  53
  -7   9  12 617.369 86.6348  11
  -7   9  11 668.966 103.696  53
  -7   9  11 586.401 98.9585  11
  -7   9  10 1796.67 186.346  11
   7   9  -9 3304.10 298.643   5
   7   9  -8 859.763 155.773   5
   7   9  -8 662.832 129.546  34
   7   9  -7 12118.4 621.094  44
   7   9  -7 11071.0 615.755   5
   7   9  -6 11321.7 611.284  44
   7   9  -6 10935.3 612.590   5
   7   9  -5 461.362 109.959   5
   7   9  -5 474.986 98.8721   7
   7   9  -5 606.945 131.630  44
   7   9  -4 13434.1 596.580   7
   7   9  -4 13052.7 673.778   5
   7   9  -4 13277.1 683.925  44
   7   9  -3 6143.78 430.438   5
   7   9  -3 6554.42 397.972   7
   7   9  -3 6237.02 449.687  44
   7   9  -2 21066.6 808.456   7
   7   9  -2 19191.2 831.662   5
  -7   9   2 21972.4 898.269  10
   7   9  -2 20781.5 903.062  44
   7   9  -1 6020.24 381.177   7
  -7   9   1 4936.50 382.985  10
   7   9  -1 5620.39 421.388  44
   7   9   0 16439.6 697.787   7
   7   9   0 16503.8 781.146  44
  -7   9   0 17454.9 775.696  10
   7   9   1 23405.6 855.189   7
   7   9   1 24361.7 954.135  44
  -7   9  -1 21674.3 890.862  10
   7   9   2 2599.08 265.301  44
  -7   9  -2 3069.73 280.731  10
   7   9   2 2771.48 238.435   7
   7   9   3 2369.17 243.301  44
  -7   9  -3 2086.85 217.983  10
   7   9   3 2470.52 212.919   7
   7   9   4 1780.54 164.768   7
  -7   9  -5 4652.33 286.120  36
   7   9   6 6836.37 337.330  44
  -7   9  -6 6067.80 316.637  36
  -7  10  11 1070.79 111.560  53
  -7  10  11 995.686 109.056  11
  -7  10  10 650.066 99.2947  53
  -7  10  10 761.545 104.267  11
  -7  10   9 8171.29 412.207  11
  -7  10   8 2883.63 243.529  11
   7  10  -7 838.140 144.649   5
   7  10  -6 6253.38 428.871  44
   7  10  -6 6513.15 424.278   5
   7  10  -5 5441.75 322.849   7
   7  10  -5 5365.47 390.765  44
   7  10  -5 4834.54 357.248   5
   7  10  -4 1230.91 171.643   5
   7  10  -4 1045.92 142.390   7
   7  10  -4 980.915 161.929  44
   7  10  -3 1057.26 144.094   7
   7  10  -3 713.844 125.634  44
   7  10  -2 2030.84 202.677   7
   7  10  -2 2123.68 239.885  44
   7  10  -1 1249.43 156.972   7
   7  10  -1 1112.45 169.453  44
   7  10   0 2454.25 250.903  44
   7  10   0 2588.82 227.871   7
   7  10   1 2974.92 236.676   7
   7  10   1 2882.65 265.654  44
   7  10   2 5480.66 361.015  44
   7  10   2 5623.35 325.419   7
   7  10   3 13625.4 580.846  44
   7  10   3 13865.8 526.688   7
   7  10   4 2596.99 207.330  44
   7  10   4 2385.04 168.284   7
   7  10   5 1571.24 139.180  44
  -7  11   9 3210.97 209.692  53
  -7  11   9 3430.25 214.898  11
  -7  11   8 367.412 72.7768  11
  -7  11   7 585.730 97.1142  11
  -7  11   6 7320.45 383.474  11
  -7  11   5 2481.36 214.553  11
   7  11  -5 2730.58 243.991  44
   7  11  -5 2753.60 198.135   7
   7  11  -4 3498.51 281.246  44
   7  11  -4 3034.11 221.880   7
   7  11  -3 1406.28 149.335   7
   7  11  -3 1659.83 189.163  44
   7  11  -2 2960.18 227.989   7
   7  11  -2 2864.91 253.501  44
   7  11  -1 727.866 111.009   7
   7  11  -1 525.679 103.084  44
   7  11   0 11123.6 472.153   7
   7  11   0 10560.3 502.130  44
   7  11   1 510.940 83.5554   7
   7  11   1 581.199 96.7997  44
   7  11   2 1080.88 128.965  44
   7  11   2 1082.42 117.569   7
   7  11   3 1338.77 128.867  44
   7  11   3 1508.30 125.113   7
  -7  12   4 6609.26 307.406   7
   7  12  -4 8048.98 326.032   7
   7  12  -3 702.276 91.6696   7
   7  12  -3 656.915 94.6355  44
  -7  12   3 641.334 86.3903   7
   7  12  -2 1017.05 118.984  44
  -7  12   2 896.357 110.175   7
   7  12  -2 1193.67 119.804   7
   7  12  -1 52.4320 16.2278   7
   7  12  -1 69.8841 29.2312  44
  -7  12   1 23.5656 8.33868   7
   7  12   0 328.264 56.1273   7
  -7  12   0 323.477 64.6505   7
   7  12   1 391.531 59.3264   7
  -7  12  -1 266.021 53.5820   7
   8 -11  -7 6199.41 307.014  47
   8 -11  -7 6862.21 300.130  43
   8 -11  -7 6470.67 309.319  42
   8 -11  -7 6675.55 305.104  32
   8 -11  -6 680.277 94.7830  32
   8 -11  -6 647.379 91.3858  43
   8 -11  -6 744.718 102.809  42
   8 -11  -6 679.080 94.8536  38
   8 -11  -5 2395.87 184.052  32
   8 -11  -5 2253.22 182.806  42
   8 -11  -5 2367.60 181.533  38
   8 -11  -4 709.003 95.3123  32
   8 -11  -4 650.298 91.5155  49
   8 -11  -4 592.655 89.2720  42
   8 -11  -4 661.744 93.5297  38
   8 -11  -3 4436.83 260.735  32
   8 -11  -3 3640.26 225.277  49
   8 -11  -3 4210.82 254.766  38
   8 -11  -2 4643.13 265.496  32
   8 -11  -2 4724.42 259.162  56
   8 -11  -2 4733.90 271.003  38
   8 -11  -2 4177.88 237.823  59
   8 -11  -1 2263.10 174.532  32
   8 -11  -1 2315.14 172.354  56
   8 -11  -1 2210.85 176.657  38
   8 -11  -1 2057.17 153.917  59
   8 -11   0 2422.13 176.009  56
   8 -11   1 152.983 39.3269  56
   8 -10 -10 5482.22 272.850  47
   8 -10  -9 487.093 83.7808  47
   8 -10  -9 502.095 73.1385  43
   8 -10  -9 510.591 78.4706  42
   8 -10  -9 446.354 73.7298  32
   8 -10  -8 3184.13 227.479  32
   8 -10  -8 3478.86 226.993  43
   8 -10  -8 3211.52 233.258  42
   8 -10  -8 3127.84 235.493  40
   8 -10  -7 2672.95 203.696  43
   8 -10  -7 2568.37 210.766  42
   8 -10  -7 2342.67 199.435  40
   8 -10  -7 2751.02 217.057  38
   8 -10  -7 2467.16 198.969  32
   8 -10  -6 5645.02 322.140  32
   8 -10  -6 5131.74 320.006  49
   8 -10  -6 5337.94 324.177  42
   8 -10  -6 5251.70 317.544  40
   8 -10  -6 5320.08 319.315  38
   8 -10  -5 280.356 78.2899  32
   8 -10  -5 219.987 56.9724  49
   8 -10  -5 393.151 85.1388  40
   8 -10  -5 229.521 57.8397  38
   8 -10  -4 1604.92 165.849  56
   8 -10  -4 1599.25 171.278  32
   8 -10  -4 1546.90 168.589  49
   8 -10  -4 1419.48 155.869  40
   8 -10  -4 1638.54 174.976  38
   8 -10  -4 1503.90 165.380  59
   8 -10  -3 19.5935 32.5413  32
   8 -10  -3 166.649 58.5608  49
   8 -10  -3 128.918 32.6137  56
   8 -10  -3 79.1808 25.4884  38
   8 -10  -3 46.5140 18.0406  59
   8 -10  -2 4983.66 312.642  56
   8 -10  -2 4563.86 299.081  49
   8 -10  -2 4772.66 301.884  59
   8 -10  -1 294.131 77.1815  56
   8 -10  -1 311.451 65.6776  49
   8 -10  -1 291.860 62.1224  45
   8 -10  -1 391.444 82.1821  59
   8 -10   0 6648.25 345.024  49
   8 -10   0 6719.75 337.751  45
   8 -10   0 6598.63 365.968  56
   8 -10   0 6643.78 349.834  59
   8 -10   1 132.068 44.5516  56
   8 -10   1 153.892 46.2758  45
   8 -10   1 139.817 43.0588  59
   8 -10   2 2885.03 196.762  45
   8 -10   2 3163.61 212.147  59
   8 -10   2 3203.87 223.943  56
   8 -10   3 547.357 81.0439  56
   8 -10   3 457.511 66.2395  45
   8 -10   3 442.889 66.6948  59
   8  -9 -11 2145.33 167.511  47
   8  -9 -10 5572.44 315.937  47
   8  -9 -10 5367.29 274.712  43
   8  -9 -10 5318.36 298.054  42
   8  -9 -10 5256.51 272.189  60
   8  -9  -9 458.738 86.6146  32
   8  -9  -9 466.747 78.8074  43
   8  -9  -9 528.704 98.7327  42
   8  -9  -9 521.196 98.1818  40
   8  -9  -8 4569.44 286.233  43
   8  -9  -8 4550.15 308.625  42
   8  -9  -8 4598.02 320.456  40
   8  -9  -8 4960.16 315.431  38
   8  -9  -8 4615.01 298.908  32
   8  -9  -7 761.279 116.113  32
   8  -9  -7 725.254 128.453  49
   8  -9  -7 926.248 132.894  42
   8  -9  -7 765.230 126.420  40
   8  -9  -7 778.288 124.507  38
   8  -9  -6 1853.85 192.634  32
   8  -9  -6 1564.13 191.270  49
   8  -9  -6 1552.37 189.594  40
   8  -9  -6 1570.42 187.835  38
   8  -9  -5 3262.90 263.137  32
   8  -9  -5 2975.20 261.446  49
   8  -9  -5 3204.82 259.448  56
   8  -9  -5 2781.80 255.693  40
   8  -9  -5 3044.79 262.587  38
   8  -9  -5 2886.90 253.766  59
   8  -9  -4 2264.86 221.656  56
   8  -9  -4 2195.71 213.362  32
   8  -9  -4 2046.64 217.472  49
   8  -9  -4 1931.75 211.555  40
   8  -9  -4 1901.18 204.014  59
   8  -9  -4 2112.14 216.887  38
   8  -9  -3 6181.37 383.728  56
   8  -9  -3 5717.37 374.114  49
   8  -9  -3 6057.18 355.750  45
   8  -9  -3 5335.17 353.078  40
   8  -9  -3 5852.94 371.581  59
   8  -9  -2 1911.86 205.215  56
   8  -9  -2 1912.90 196.485  45
   8  -9  -2 1872.04 201.646  59
   8  -9  -2 1880.57 197.063  40
   8  -9  -1 1269.05 160.084  45
   8  -9  -1 1112.43 146.738  35
   8  -9  -1 1053.72 150.585  56
   8  -9  -1 1134.10 155.612  59
   8  -9   0 1122.05 161.846  56
   8  -9   0 1178.44 152.734  45
   8  -9   0 932.453 127.790  35
   8  -9   0 1138.54 156.405  59
   8  -9   1 2354.57 224.752  56
   8  -9   1 2611.25 223.016  45
   8  -9   2 4245.92 300.643  56
   8  -9   2 4261.48 290.688  45
   8  -9   3 167.669 48.7399  56
  -8  -9  -3 234.734 67.4532  46
   8  -9   3 324.580 71.8889  45
   8  -9   4 6719.47 340.174  56
  -8  -9  -4 6107.00 338.470  46
   8  -9   4 6716.77 331.101  45
   8  -9   5 6553.23 303.252  56
  -8  -9  -5 5986.84 313.831  46
   8  -9   5 6780.01 303.115  45
   8  -8 -12 795.837 102.041  58
   8  -8 -12 720.742 93.7987  47
   8  -8 -11 1693.30 164.600  47
   8  -8 -11 1697.41 162.308  42
   8  -8 -10 3908.85 285.569  47
   8  -8 -10 3923.91 248.691  43
   8  -8 -10 4138.25 284.254  42
   8  -8 -10 4048.00 299.601  40
   8  -8  -9 733.758 115.966  32
   8  -8  -9 829.222 114.283  43
   8  -8  -9 833.653 128.895  42
   8  -8  -9 704.800 117.196  40
   8  -8  -8 3531.90 299.901  49
   8  -8  -8 3305.95 256.025  43
   8  -8  -8 3272.27 274.110  42
   8  -8  -8 3547.99 300.470  40
   8  -8  -8 3400.01 269.489  32
   8  -8  -8 3595.57 286.631  38
   8  -8  -7 29286.2 990.837  32
   8  -8  -7 29078.9 1035.35  49
   8  -8  -7 29790.1 1020.21  42
   8  -8  -7 28778.2 1041.93  40
   8  -8  -7 29051.8 1012.65  38
   8  -8  -6 4272.72 321.122  32
   8  -8  -6 4883.26 363.728  49
   8  -8  -6 4563.69 355.164  40
   8  -8  -6 4618.53 345.889  38
   8  -8  -6 5006.92 363.737  59
   8  -8  -5 1627.24 188.295  56
   8  -8  -5 1509.85 180.543  32
   8  -8  -5 1793.83 211.306  49
   8  -8  -5 1789.81 209.961  40
   8  -8  -5 1580.34 197.274  38
   8  -8  -5 1582.94 198.202  59
   8  -8  -4 8140.77 469.964  56
   8  -8  -4 8020.10 469.553  59
   8  -8  -4 7707.38 438.203  45
   8  -8  -4 7781.89 469.527  40
   8  -8  -3 35972.9 1182.90  56
   8  -8  -3 35751.0 1150.48  45
   8  -8  -3 33118.2 1157.78  40
   8  -8  -3 34123.5 1152.15  35
   8  -8  -3 34780.8 1172.65  59
   8  -8  -2 2020.91 240.285  56
   8  -8  -2 2429.86 248.714  45
   8  -8  -2 2921.97 270.950  40
   8  -8  -2 2993.63 273.639  35
   8  -8  -2 2743.70 268.218  59
   8  -8  -1 3070.31 254.680  57
   8  -8  -1 3302.42 288.357  56
   8  -8  -1 3285.00 275.535  45
   8  -8  -1 3199.38 270.421  35
   8  -8   0 18626.2 729.029  57
   8  -8   0 17394.6 755.511  56
   8  -8   0 18245.7 749.053  45
   8  -8   0 18248.1 735.243  35
  -8  -8  -1 7324.66 440.394  46
   8  -8   1 8376.20 458.872  45
   8  -8   1 8266.11 444.372  35
   8  -8   1 8287.35 437.840  57
   8  -8   2 9289.54 464.095  57
  -8  -8  -2 9925.59 520.647  46
   8  -8   2 9555.92 473.091  35
  -8  -8  -3 575.636 114.902  46
   8  -8   3 625.809 106.374  57
   8  -8   3 615.988 103.289  35
   8  -8   4 1539.62 158.440  57
   8  -8   4 1396.89 151.295  35
   8  -8   5 7248.48 340.123  57
  -8  -8  -5 6325.38 364.904  46
   8  -8   5 6470.82 319.646  35
   8  -8   6 490.691 74.6702  56
  -8  -8  -6 909.936 116.884  46
   8  -7 -13 9212.74 400.164  58
   8  -7 -12 2575.22 201.504  47
   8  -7 -11 133.760 49.7730  47
   8  -7 -11 111.424 41.3548  42
   8  -7 -11 221.059 73.2065  40
   8  -7 -10 1319.44 169.619  32
   8  -7 -10 1208.86 160.515  42
   8  -7 -10 1524.11 197.123  40
   8  -7  -9 384.797 85.2014  32
   8  -7  -9 402.109 97.7506  49
   8  -7  -9 225.499 58.4330  42
   8  -7  -9 312.723 78.3754  40
   8  -7  -9 254.568 79.7617  38
   8  -7  -8 6805.84 404.533  32
   8  -7  -8 6945.13 438.394  49
   8  -7  -8 6602.16 410.920  42
   8  -7  -8 6504.59 435.086  40
   8  -7  -8 6729.82 417.905  38
   8  -7  -7 1636.77 201.576  59
   8  -7  -7 1587.51 201.702  49
   8  -7  -7 1636.01 190.188  32
   8  -7  -7 1802.62 214.793  40
   8  -7  -7 1658.90 197.186  38
   8  -7  -6 4938.36 354.115  56
   8  -7  -6 4716.48 342.655  32
   8  -7  -6 4805.54 365.145  49
   8  -7  -6 5015.62 381.973  40
   8  -7  -6 4750.90 354.549  38
   8  -7  -6 4789.52 361.662  59
   8  -7  -5 5929.60 391.293  56
   8  -7  -5 6010.57 385.940  32
   8  -7  -5 5796.92 377.862  45
   8  -7  -5 5674.58 411.287  40
   8  -7  -5 5828.05 393.026  38
   8  -7  -5 5443.27 385.272  59
   8  -7  -4 21742.7 856.855  56
   8  -7  -4 21178.7 831.361  45
   8  -7  -4 20793.3 871.776  40
   8  -7  -4 21448.8 856.975  35
   8  -7  -4 21715.0 863.644  59
   8  -7  -3 3047.12 276.914  56
   8  -7  -3 2944.86 270.341  45
   8  -7  -3 3006.81 276.411  35
   8  -7  -3 3099.23 284.234  59
   8  -7  -2 30432.7 1057.60  57
   8  -7  -2 29922.1 1076.72  56
   8  -7  -2 30782.1 1071.51  45
   8  -7  -2 30098.4 1074.35  35
   8  -7  -1 43129.4 1341.09  57
   8  -7  -1 42212.2 1378.97  56
   8  -7  -1 43251.3 1362.59  45
   8  -7  -1 41958.5 1350.68  35
   8  -7   0 4892.30 351.444  57
   8  -7   0 4675.74 353.383  45
   8  -7   0 5408.08 373.880  35
   8  -7   1 5664.83 378.373  57
  -8  -7  -1 4820.06 362.592  46
   8  -7   1 5530.38 379.425  35
   8  -7   2 621.867 121.527  57
  -8  -7  -2 697.612 125.749  46
   8  -7   2 674.105 119.269  35
   8  -7   3 5421.22 342.761  51
  -8  -7  -3 4973.07 368.244  46
   8  -7   3 5540.71 359.949  57
   8  -7   3 5263.70 352.401  35
   8  -7   4 10833.4 522.188  57
   8  -7   4 11432.4 515.008  51
  -8  -7  -4 11224.1 569.540  46
   8  -7   5 3024.82 239.707  57
  -8  -7  -5 2785.28 250.351  46
   8  -7   5 2964.87 227.334  51
   8  -7   6 5373.07 306.035  57
   8  -7   6 5469.32 298.405  51
  -8  -7  -6 5713.43 313.726  50
  -8  -7  -6 5548.08 341.569  46
   8  -7   6 4998.50 292.347  35
   8  -7   7 318.432 62.1358  57
   8  -7   7 314.033 58.2911  51
  -8  -7  -7 256.308 60.5550  46
   8  -6 -14 8092.17 360.191  58
   8  -6 -13 253.851 63.4590  58
   8  -6 -13 245.221 63.2565  52
   8  -6 -12 2631.08 215.737  47
   8  -6 -11 1225.89 156.613  47
   8  -6 -11 1393.95 163.790  42
   8  -6 -11 1291.77 168.880  40
   8  -6 -10 3801.69 299.178  42
   8  -6 -10 4249.58 347.376  40
   8  -6 -10 3925.49 301.243  32
   8  -6  -9 11388.6 582.641  49
   8  -6  -9 11384.7 546.252  32
   8  -6  -9 11123.1 546.540  42
   8  -6  -9 11377.7 596.316  40
   8  -6  -9 11595.2 566.717  38
   8  -6  -8 14012.4 625.336  32
   8  -6  -8 13769.8 659.670  49
   8  -6  -8 14123.1 637.105  42
   8  -6  -8 13892.0 681.484  40
   8  -6  -8 13958.1 642.043  38
   8  -6  -7 3342.92 278.339  32
   8  -6  -7 3840.88 321.043  49
   8  -6  -7 3478.75 314.434  40
   8  -6  -7 3391.42 289.368  38
   8  -6  -7 3411.73 296.277  59
   8  -6  -6 19542.5 789.617  56
   8  -6  -6 18717.6 749.930  32
   8  -6  -6 19047.3 808.674  49
   8  -6  -6 19111.5 822.978  40
   8  -6  -6 18711.0 777.734  38
   8  -6  -6 18793.5 792.670  59
   8  -6  -5 10675.5 546.835  56
   8  -6  -5 10589.3 522.693  32
   8  -6  -5 10116.6 530.400  45
   8  -6  -5 10296.3 570.925  40
   8  -6  -5 10143.9 550.595  35
   8  -6  -5 9776.68 536.330  59
   8  -6  -4 20914.4 867.719  56
   8  -6  -4 21571.2 861.529  45
   8  -6  -4 24098.1 919.149  35
   8  -6  -4 22577.1 896.314  59
   8  -6  -3 2779.92 260.918  57
   8  -6  -3 2710.23 271.898  56
   8  -6  -3 3145.91 283.399  45
   8  -6  -3 2824.09 271.784  35
   8  -6  -2 9020.79 502.579  57
   8  -6  -2 9276.49 524.499  56
   8  -6  -2 9483.81 518.425  45
   8  -6  -2 9613.38 526.586  35
   8  -6  -1 21434.5 849.090  57
   8  -6  -1 20454.3 849.849  56
   8  -6  -1 21571.7 855.943  45
   8  -6  -1 22001.0 865.962  35
   8  -6   0 10265.9 521.954  51
   8  -6   0 10209.2 542.965  57
   8  -6   0 10119.3 549.513  35
   8  -6   1 3392.95 296.997  57
   8  -6   1 3468.19 285.616  51
  -8  -6  -1 2841.35 280.672  46
   8  -6   2 15294.9 683.066  57
   8  -6   2 15247.8 671.324  51
   8  -6   3 34914.2 1134.48  51
   8  -6   3 34016.2 1141.21  57
   8  -6   4 11165.8 566.393  57
   8  -6   4 10632.4 547.452  51
   8  -6   5 6404.76 383.678  51
  -8  -6  -5 5394.32 350.940  50
  -8  -6  -5 5864.12 400.812  46
   8  -6   5 6399.91 386.885  57
   8  -6   6 239.240 68.6837  57
   8  -6   6 127.654 53.3428  51
  -8  -6  -7 1308.65 145.402  50
   8  -6   7 1592.41 157.393  51
  -8  -6  -7 1456.25 169.054  46
   8  -6   7 1562.37 156.124  57
   8  -6   8 3019.19 193.755  57
   8  -6   8 2860.09 187.629  51
  -8  -6  -8 3111.86 216.706  46
   8  -5 -15 253.451 54.5232  37
   8  -5 -14 82.6804 16.6756  52
   8  -5 -14 149.364 43.2850  58
   8  -5 -13 6794.99 381.906  52
   8  -5 -13 6509.97 366.380  58
   8  -5 -12 14408.8 619.214  58
   8  -5 -11 1389.24 163.490  42
   8  -5 -11 1452.61 189.901  40
   8  -5 -11 1503.21 179.010  16
   8  -5 -10 1480.61 174.870  42
   8  -5 -10 1626.49 204.233  40
   8  -5 -10 1508.05 183.771  16
   8  -5  -9 6055.92 381.787  32
   8  -5  -9 5970.50 404.683  49
   8  -5  -9 6523.15 396.084  42
   8  -5  -9 6173.46 423.928  40
   8  -5  -9 6137.63 401.236  38
   8  -5  -8 24856.3 885.766  32
   8  -5  -8 24302.6 930.628  49
   8  -5  -8 24339.3 887.630  42
   8  -5  -8 23435.7 948.752  40
   8  -5  -8 23453.8 899.893  38
   8  -5  -7 12575.1 579.932  32
   8  -5  -7 12532.1 614.628  49
   8  -5  -7 12989.7 649.304  40
   8  -5  -7 12307.7 593.333  38
   8  -5  -7 12514.6 615.077  59
   8  -5  -6 33188.6 1120.81  56
   8  -5  -6 32255.2 1062.86  32
   8  -5  -6 32645.4 1155.12  40
   8  -5  -6 33368.3 1109.96  38
   8  -5  -6 31587.8 1110.40  59
   8  -5  -5 32694.7 1094.67  56
   8  -5  -5 31462.3 1035.62  32
   8  -5  -5 32135.5 1094.40  59
   8  -5  -5 31429.4 1077.73  45
   8  -5  -5 30468.9 1091.30  35
   8  -5  -4 25290.2 930.121  56
   8  -5  -4 24742.4 917.041  45
   8  -5  -4 24863.1 938.419  35
   8  -5  -4 25094.9 931.844  59
   8  -5  -3 26179.9 954.274  57
   8  -5  -3 25197.8 948.698  56
   8  -5  -3 26504.7 960.803  45
   8  -5  -3 26762.3 977.150  35
   8  -5  -2 7616.42 454.946  57
   8  -5  -2 7540.74 452.068  56
   8  -5  -2 7882.04 463.924  45
   8  -5  -2 8052.80 474.504  35
   8  -5  -1 25271.8 922.581  51
   8  -5  -1 25392.5 946.473  57
   8  -5  -1 24809.7 946.442  35
   8  -5   0 24627.1 955.067  57
   8  -5   0 25277.4 944.531  51
   8  -5   1 16627.8 731.454  57
   8  -5   1 17156.9 727.565  51
  -8  -5  -1 14769.3 711.923  46
   8  -5   2 17814.8 782.063  57
   8  -5   2 16357.5 749.038  51
   8  -5   3 3364.46 295.318  51
  -8  -5  -3 2995.93 298.055  46
   8  -5   3 3386.18 301.807  57
   8  -5   4 6984.27 435.742  51
  -8  -5  -4 7006.79 473.182  46
   8  -5   5 1745.71 202.366  51
  -8  -5  -5 1457.99 178.035  50
  -8  -5  -5 1552.44 205.291  46
  -8  -5  -6 11109.7 540.295  50
   8  -5   6 11320.7 539.674  51
  -8  -5  -6 11314.6 583.050  46
   8  -5   7 3014.10 236.212  51
  -8  -5  -7 2421.15 215.294  50
  -8  -5  -7 2325.04 226.914  46
   8  -5   8 2897.05 210.761  57
   8  -5   8 2917.12 210.315  51
  -8  -5  -8 2850.70 216.202  50
  -8  -5  -8 3064.05 236.472  46
   8  -4 -15 5670.16 291.692  52
   8  -4 -15 5887.19 308.818  37
   8  -4 -15 5722.96 290.305  58
   8  -4 -14 2235.52 188.289   3
   8  -4 -14 2494.02 215.116  52
   8  -4 -14 2210.68 195.338  58
   8  -4 -13 5620.16 365.424  52
   8  -4 -13 5813.94 346.855   3
   8  -4 -13 5394.44 342.176  58
   8  -4 -12 2222.83 222.522   3
   8  -4 -12 2402.80 239.919  16
   8  -4 -12 2443.18 230.106  58
   8  -4 -11 17775.6 747.823  40
   8  -4 -11 17267.4 749.269  16
   8  -4 -10 28385.0 1036.28  40
   8  -4 -10 28822.7 1043.41  16
   8  -4  -9 21043.6 793.226  32
   8  -4  -9 20483.7 824.540  49
   8  -4  -9 20868.6 848.855  40
   8  -4  -9 20113.4 805.981  38
   8  -4  -9 20486.5 837.532  16
   8  -4  -8 8518.52 485.609  49
   8  -4  -8 8927.20 511.308  40
   8  -4  -8 8831.73 484.688  38
   8  -4  -7 14923.5 673.518  49
   8  -4  -7 15889.2 710.058  40
   8  -4  -7 15610.6 669.082  38
   8  -4  -7 15217.4 679.437  59
   8  -4  -6 28796.4 1008.30  56
   8  -4  -6 28220.9 983.927  54
   8  -4  -6 27724.0 998.593  59
   8  -4  -6 28404.6 984.514  38
   8  -4  -5 48282.2 1428.98  56
   8  -4  -5 46643.9 1415.17  45
   8  -4  -5 45203.1 1421.16  35
   8  -4  -5 45649.2 1405.53  59
   8  -4  -4 15062.5 668.872  56
   8  -4  -4 15202.9 670.139  45
   8  -4  -4 16618.8 706.987  35
   8  -4  -4 15438.1 674.215  59
   8  -4  -3 3894.72 304.218  57
   8  -4  -3 3719.52 299.458  56
   8  -4  -3 3622.17 295.343  45
   8  -4  -3 4029.75 314.747  35
   8  -4  -2 40761.9 1262.33  57
   8  -4  -2 37441.6 1223.67  56
   8  -4  -2 36904.3 1220.76  45
   8  -4  -2 39690.6 1265.64  35
   8  -4  -1 3760.31 300.352  56
   8  -4  -1 3829.73 303.922  51
   8  -4  -1 3835.93 309.547  57
   8  -4   0 3359.70 288.898  57
   8  -4   0 3265.68 285.415  51
  -8  -4   0 3289.65 291.772  46
   8  -4   1 14013.3 656.680  57
   8  -4   1 14594.7 663.628  51
   8  -4   1 14375.9 636.481   8
   8  -4   2 7474.67 483.009  51
   8  -4   2 8628.03 497.816   8
   8  -4   3 1425.50 190.812  51
  -8  -4  -3 1771.72 228.992  46
   8  -4   3 1766.29 203.278   8
   8  -4   4 12319.1 623.807  51
  -8  -4  -4 13020.8 678.876  46
   8  -4   5 9139.49 508.433  51
  -8  -4  -5 7413.29 456.403  50
  -8  -4  -5 8007.36 509.742  46
   8  -4   6 3473.20 290.264  51
  -8  -4  -6 3272.82 283.118  50
  -8  -4  -6 3428.81 313.921  46
   8  -4   7 873.038 132.178  51
  -8  -4  -7 833.798 130.564  50
  -8  -4  -7 704.576 127.623  46
   8  -4   8 296.247 68.0329  51
  -8  -4  -8 471.473 91.8870  50
  -8  -4  -8 378.057 86.3909  46
   8  -4   8 384.006 72.2710   8
   8  -4   9 1179.93 119.453  57
   8  -4   9 1348.96 126.972  51
  -8  -4  -9 1068.46 116.835  50
   8  -3 -15 472.381 85.3406  52
   8  -3 -15 502.552 82.6615  37
   8  -3 -15 498.442 86.2927   3
   8  -3 -14 371.501 98.2352  52
   8  -3 -14 476.366 98.6288   3
   8  -3 -14 486.721 95.4986  58
   8  -3 -13 6845.10 428.898  52
   8  -3 -13 6612.98 399.241   3
   8  -3 -13 6638.53 391.341  58
   8  -3 -12 2813.68 265.374   3
   8  -3 -12 2669.95 259.794  16
   8  -3 -12 2902.72 260.262  58
   8  -3 -11 11216.1 556.884  40
   8  -3 -11 10951.2 580.615  16
   8  -3 -10 32083.3 1111.23  40
   8  -3 -10 31427.2 1143.34  16
   8  -3  -9 37514.8 1222.89  54
   8  -3  -9 36866.2 1208.31  49
   8  -3  -9 37763.6 1236.80  40
   8  -3  -9 36807.7 1256.46  16
   8  -3  -8 23457.5 890.199  54
   8  -3  -8 23551.6 877.140  49
   8  -3  -8 23462.0 901.270  40
   8  -3  -8 23402.3 869.417  38
   8  -3  -7 3106.33 272.476  54
   8  -3  -7 2981.57 262.273  49
   8  -3  -7 2920.05 268.510  40
   8  -3  -7 3106.59 260.324  38
   8  -3  -7 2953.42 265.867  59
   8  -3  -6 35255.7 1149.78  54
   8  -3  -6 33674.4 1102.01  38
   8  -3  -6 34626.8 1131.43  59
   8  -3  -6 34347.3 1143.02  35
   8  -3  -5 98311.8 2430.83  56
   8  -3  -5 94256.2 2415.59  45
   8  -3  -5 90538.8 2399.29   8
   8  -3  -5 94467.3 2422.22  35
   8  -3  -5 93266.4 2399.26  59
   8  -3  -4 40849.7 1278.19  57
   8  -3  -4 39813.6 1662.43  28
   8  -3  -4 42013.7 1279.69  45
   8  -3  -4 41842.9 1274.74  56
   8  -3  -4 41154.7 1285.71  35
   8  -3  -4 39692.1 1707.32   1
   8  -3  -4 41347.9 1262.29  59
   8  -3  -3 12925.2 594.371  57
   8  -3  -3 13629.7 597.660  56
   8  -3  -3 11872.2 823.358  28
   8  -3  -3 13547.5 600.737  45
   8  -3  -3 12502.7 865.719   1
   8  -3  -3 13182.6 601.400  35
   8  -3  -2 28631.1 990.787  57
   8  -3  -2 28537.3 981.684  45
   8  -3  -2 28103.7 967.912  56
   8  -3  -2 28156.6 987.421   8
   8  -3  -2 28585.6 994.922  35
   8  -3  -1 70125.0 1903.24  57
   8  -3  -1 70089.4 1896.60  51
   8  -3  -1 69946.2 1893.61   8
   8  -3   0 29222.2 1053.81  57
   8  -3   0 29035.1 1049.00  51
  -8  -3   0 34172.6 1130.05  46
   8  -3   0 32167.1 1075.04   8
   8  -3   1 43057.0 1351.90  57
   8  -3   1 42607.5 1352.21  51
   8  -3   1 44133.3 1355.15   8
   8  -3   2 12658.4 661.191  51
  -8  -3  -2 23043.0 883.817  46
   8  -3   3 6661.16 438.604  51
  -8  -3  -3 6033.53 439.714  46
  -8  -3  -4 8811.23 497.198  50
  -8  -3  -4 8543.70 536.461  46
  -8  -3  -5 757.424 131.308  50
  -8  -3  -5 722.723 154.053  46
   8  -3   6 15304.6 678.612  51
  -8  -3  -6 13830.5 656.804  50
  -8  -3  -6 13875.6 699.583  46
   8  -3   7 1450.66 174.964  51
  -8  -3  -7 1137.64 163.632  50
  -8  -3  -7 1209.55 175.974  46
  -8  -3  -8 2046.35 204.842  50
  -8  -3  -8 2239.48 223.569  46
   8  -3   9 2750.22 195.420  57
   8  -3   9 2968.84 204.270  51
  -8  -3  -9 2358.11 195.482  50
  -8  -3  -9 2163.74 187.702  46
   8  -3   9 2760.78 190.967   8
   8  -2 -15 1733.08 169.500   3
   8  -2 -15 1752.78 175.140  52
   8  -2 -15 1438.69 153.912  37
   8  -2 -14 7963.18 449.610  52
   8  -2 -14 8268.63 443.174   3
   8  -2 -14 7878.93 409.603  58
   8  -2 -13 504.493 115.737  52
   8  -2 -13 755.161 137.536   3
   8  -2 -13 772.197 138.141  16
   8  -2 -13 522.731 99.7463  58
   8  -2 -12 26662.5 1021.55  52
   8  -2 -12 25503.9 982.540  16
   8  -2 -12 26024.9 936.379  58
   8  -2 -11 13496.7 669.448  16
   8  -2 -11 13969.1 631.470  58
   8  -2 -10 30071.2 1105.07  16
   8  -2  -9 9179.06 513.273  54
   8  -2  -9 9183.22 510.955   4
   8  -2  -9 9523.31 505.215  40
   8  -2  -8 4567.88 343.317  54
   8  -2  -8 4328.23 326.838   4
   8  -2  -8 3792.46 312.390  40
   8  -2  -8 3925.68 301.088  38
   8  -2  -7 23197.4 861.310  54
   8  -2  -7 20679.2 803.143   4
   8  -2  -7 21008.1 819.536  40
   8  -2  -7 21541.1 817.861  59
   8  -2  -6 48589.3 1424.05  54
   8  -2  -6 45535.1 1379.63  35
   8  -2  -6 43918.3 1354.62  59
   8  -2  -5 26560.4 924.285  45
   8  -2  -5 25188.0 1296.01   1
   8  -2  -5 26547.0 1320.91  15
   8  -2  -4 99641.7 3171.55   1
   8  -2  -4 107274. 3250.35  15
   8  -2  -3 28714.3 1306.46  28
   8  -2  -3 31260.0 1440.09   1
   8  -2  -3 33309.5 1497.29  15
   8  -2  -2 32860.0 1418.05  28
   8  -2  -1 12327.3 574.435  57
   8  -2  -1 12107.2 811.707  28
   8  -2  -1 12646.3 584.516  51
   8  -2   0 73448.7 2051.36  57
   8  -2   0 73353.1 2059.36  51
   8  -2   0 77465.8 2088.24   8
   8  -2   1 6967.41 424.790  51
  -8  -2  -1 6293.08 436.385  46
   8  -2   2 39156.3 1290.43  51
  -8  -2  -2 39948.9 1358.92  46
   8  -2   3 23607.9 904.767  51
  -8  -2  -3 20638.7 918.789  46
  -8  -2  -4 10388.6 535.602  50
  -8  -2  -4 11437.3 615.969  46
   8  -2   5 3082.41 282.690  51
  -8  -2  -5 2720.33 277.127  50
  -8  -2  -5 2805.77 296.324  46
   8  -2   6 6199.95 411.480  51
  -8  -2  -6 6510.51 432.498  50
  -8  -2  -6 6852.80 473.238  46
  -8  -2  -7 7986.73 480.439  50
  -8  -2  -7 8390.84 508.454  46
   8  -2   8 1855.08 187.224  51
  -8  -2  -8 2126.63 215.416  50
  -8  -2  -8 2199.98 226.934  46
   8  -2   9 3647.58 229.886  51
  -8  -2  -9 3029.28 237.075  50
  -8  -2  -9 2901.12 227.663  46
   8  -1 -16 2886.35 203.957  52
   8  -1 -15 2824.17 230.894   3
   8  -1 -15 2866.40 239.069  52
   8  -1 -15 2849.66 216.008  37
   8  -1 -14 355.700 98.4054  52
   8  -1 -14 373.568 97.8167   3
   8  -1 -14 340.039 87.5644  37
   8  -1 -13 10417.6 569.642  52
   8  -1 -13 9524.36 524.724   3
   8  -1 -13 9548.21 527.197  16
   8  -1 -12 6616.41 466.773  52
   8  -1 -12 6701.71 448.673  16
   8  -1 -11 12852.2 651.263  16
   8  -1 -10 12774.6 647.793  16
   8  -1  -9 20486.1 840.433  54
   8  -1  -9 20199.7 828.553   4
   8  -1  -8 12790.1 625.919  54
   8  -1  -8 12718.9 608.933   4
   8  -1  -7 600.335 116.010  54
   8  -1  -7 647.718 119.584   4
   8  -1  -6 8859.00 486.466  54
   8  -1  -6 8423.99 718.221  15
   8  -1  -5 4507.05 503.330   1
   8  -1  -5 4670.95 518.854  15
   8  -1  -4 85469.0 2822.71   1
   8  -1  -4 90634.1 2890.39  15
   8  -1  -3 19217.6 1084.26   1
   8  -1  -3 19029.9 1100.71  15
   8  -1  -2 58745.7 2199.57  15
   8  -1   0 296.424 77.8598  57
   8  -1   0 308.407 85.5133  51
  -8  -1   0 409.016 109.770  46
   8  -1   0 254.884 61.1184   8
   8  -1   1 7898.78 441.774  57
   8  -1   1 8363.16 465.189  51
   8  -1   2 10214.3 544.383  51
  -8  -1  -2 11587.8 625.856  46
   8  -1   3 16651.6 712.698  51
  -8  -1  -3 13318.4 716.242  46
  -8  -1  -4 3527.74 313.364  50
  -8  -1  -4 3434.33 337.680  46
  -8  -1  -5 8884.29 535.597  50
  -8  -1  -5 9081.18 581.474  46
  -8  -1  -6 13231.6 644.159  50
  -8  -1  -6 13047.1 678.627  46
  -8  -1  -7 14842.7 701.442  50
  -8  -1  -7 14659.8 727.632  46
  -8  -1  -8 12474.6 583.390  50
  -8  -1  -8 12616.6 598.692  46
   8  -1   9 3527.20 220.980  51
  -8  -1  -9 3023.47 242.435  50
  -8  -1  -9 2728.88 229.791  46
   8   0 -16 795.168 109.094  52
   8   0 -15 4698.95 307.099   3
   8   0 -15 4971.75 328.283  52
   8   0 -14 310.088 97.8865  52
   8   0 -14 426.115 102.073   3
   8   0 -13 227.055 77.2061  52
   8   0 -13 157.588 61.3461   3
   8   0 -13 166.188 61.6973  16
   8   0 -12 4055.23 364.889  52
   8   0 -12 3840.02 338.152  16
   8   0 -11 33554.7 1221.27  52
   8   0 -11 31517.4 1154.04  16
   8   0 -10 3193.54 300.741   4
   8   0 -10 3029.67 299.294  16
   8   0  -9 24293.1 947.763  54
   8   0  -9 23799.3 926.553   4
   8   0  -8 15765.2 717.812  54
   8   0  -8 15941.2 707.158   4
   8   0  -7 609.355 122.440  54
   8   0  -7 551.693 98.2442   4
   8   0  -6 132015. 3287.72  54
   8   0  -6 133708. 3929.22   1
   8   0  -6 130990. 3942.97  15
   8   0  -5 39898.2 1714.94   1
   8   0  -5 42727.1 1794.86  15
   8   0  -4 21346.5 1157.07   1
   8   0  -4 21109.6 1180.46  15
   8   0  -3 10355.6 774.508   1
   8   0  -3 11710.4 844.902  15
   8   0  -2 9824.03 784.151  15
   8   0  -1 37960.2 1662.88  15
   8   0   0 31776.0 1459.08  26
   8   0   0 33057.9 1096.85  51
   8   0   0 34186.1 1125.13   8
   8   0   1 30374.2 1002.88  57
   8   0   1 31671.2 1050.46  51
   8   0   2 9571.79 537.886  51
  -8   0  -2 17346.5 772.441  46
   8   0   3 10600.4 543.211  51
  -8   0  -3 8783.00 562.429  46
   8   0   4 2567.07 250.612  51
  -8   0  -4 2420.65 256.684  50
  -8   0  -4 2104.60 263.568  46
  -8   0  -5 25466.8 1018.19  50
  -8   0  -5 24562.1 1064.46  46
   8   0   6 7050.39 418.583  51
  -8   0  -6 5929.85 428.104  50
  -8   0  -6 6023.12 456.439  46
  -8   0  -7 4375.68 352.339  50
  -8   0  -7 4419.48 370.065  46
  -8   0  -8 4175.80 319.595  50
  -8   0  -8 4145.29 323.463  46
  -8   0  -9 1681.83 175.990  50
  -8   0  -9 1623.62 171.104  46
   8   1 -16 2996.82 214.918  52
   8   1 -15 2468.36 216.011   3
   8   1 -15 2662.26 234.297  52
   8   1 -14 443.707 113.739  52
   8   1 -14 429.464 105.286   3
   8   1 -13 10194.8 574.094  52
   8   1 -13 9785.38 538.465   3
   8   1 -13 9885.79 536.143  16
   8   1 -12 5911.72 448.026  52
   8   1 -12 5594.98 408.178  16
   8   1 -12 6179.44 409.675  34
   8   1 -11 12784.4 680.864  52
   8   1 -11 12105.3 627.317  16
   8   1 -10 13656.4 707.835  52
   8   1 -10 13112.9 651.958   4
   8   1 -10 12997.6 655.905  16
   8   1  -9 19986.9 828.974   4
   8   1  -8 15166.5 706.415  54
   8   1  -8 14553.9 672.948   4
   8   1  -7 331.179 97.9309  54
   8   1  -7 451.684 102.171   4
   8   1  -6 8724.82 501.185  54
   8   1  -6 9010.31 483.098   4
   8   1  -5 5908.43 586.473   1
   8   1  -5 6524.85 647.478  15
   8   1  -4 92355.9 2979.00   1
   8   1  -4 95410.6 3097.74  15
   8   1  -3 18608.4 1079.43   1
   8   1  -3 20693.5 1181.42  15
   8   1  -2 55605.1 2134.10  15
   8   1  -1 31020.8 1473.96  15
   8   1   0 586.046 113.422  51
   8   1   0 699.422 191.752  26
  -8   1   0 571.761 124.714  46
   8   1   0 650.359 119.910   8
   8   1   1 7637.17 436.680  51
  -8   1  -1 6799.17 464.929  46
   8   1   2 9799.92 523.041  51
  -8   1  -2 12275.6 650.957  46
   8   1   3 14165.6 642.288  51
  -8   1  -3 13771.9 726.976  46
  -8   1  -4 3404.49 312.458  50
  -8   1  -4 3325.24 345.627  46
   8   1   5 10373.2 514.411  51
  -8   1  -5 9069.50 547.183  50
  -8   1  -5 9066.14 585.956  46
  -8   1  -6 12083.0 626.795  50
  -8   1  -6 13478.9 702.910  46
  -8   1  -7 15392.9 714.293  50
  -8   1  -7 14516.2 724.733  46
  -8   1  -8 12008.6 585.040  50
  -8   1  -8 11593.2 582.115  46
  -8   1  -9 2932.81 241.496  50
  -8   1  -9 2878.65 226.771  46
   8   2 -16 1077.34 114.941  48
   8   2 -15 1892.13 182.692   3
   8   2 -15 1883.16 194.278  52
   8   2 -14 7811.95 460.707  52
   8   2 -14 7409.90 428.857   3
   8   2 -13 767.294 144.881  52
   8   2 -13 936.069 152.223   3
   8   2 -13 690.785 127.921  16
   8   2 -13 654.391 124.164  34
   8   2 -12 26904.7 1060.97  52
   8   2 -12 26326.3 994.559  16
   8   2 -12 26992.6 1009.44  34
   8   2 -11 13386.4 703.533  52
   8   2 -11 13010.0 648.766  16
   8   2 -10 30546.2 1145.16  52
   8   2 -10 28636.9 1070.27   4
   8   2 -10 29166.0 1076.97  16
   8   2  -9 8794.66 537.688  52
   8   2  -9 8714.41 506.448   4
   8   2  -8 3568.11 326.709  54
   8   2  -8 3388.79 304.914   4
   8   2  -7 20497.4 854.468  54
   8   2  -7 20424.7 821.249   4
   8   2  -6 46650.2 1470.61  54
   8   2  -6 46814.8 1436.79   4
   8   2  -5 27985.1 1393.84   1
   8   2  -4 114040. 3520.01   1
   8   2  -4 122061. 3719.53  15
   8   2  -3 27951.5 1367.66   1
   8   2  -3 28697.0 1449.31  15
   8   2  -2 36699.4 1667.48  15
   8   2  -1 15827.8 1010.41  15
  -8   2   0 90885.4 2429.42  46
   8   2   0 85792.4 2321.01   8
   8   2   1 8300.22 449.542  51
  -8   2  -1 7256.19 490.096  46
   8   2   2 44108.5 1314.99  51
  -8   2  -2 39477.7 1430.20  46
  -8   2  -3 22078.6 894.784  50
  -8   2  -3 21793.4 964.801  46
  -8   2  -4 10437.5 594.554  50
  -8   2  -4 11353.6 673.754  46
  -8   2  -5 2212.51 253.390  50
  -8   2  -5 1995.98 261.256  46
  -8   2  -6 8091.85 512.278  50
  -8   2  -6 8398.27 549.437  46
  -8   2  -7 9224.87 529.616  50
  -8   2  -7 8765.28 535.867  46
  -8   2  -8 2374.91 236.538  50
  -8   2  -8 1916.32 215.372  46
  -8   2  -9 2370.99 197.387  46
  -8   2  -9 2655.43 209.490  36
   8   3 -15 577.524 94.1648   3
   8   3 -14 464.745 103.869  52
   8   3 -14 485.179 102.052   3
   8   3 -14 480.582 101.962  34
   8   3 -13 5638.72 401.716  52
   8   3 -13 5648.26 379.185   3
   8   3 -13 5592.54 378.113  34
   8   3 -12 2901.07 298.161  52
   8   3 -12 2595.47 260.140   3
   8   3 -12 2937.62 269.468  16
   8   3 -12 2794.17 277.183  34
   8   3 -11 11411.2 625.876  52
   8   3 -11 10974.5 576.203  16
   8   3 -11 10897.7 615.350  34
   8   3 -10 33766.9 1221.74  52
   8   3 -10 33183.5 1174.94   4
   8   3 -10 33801.4 1179.91  16
   8   3 -10 33437.2 1140.22   5
   8   3  -9 36790.9 1158.43   5
   8   3  -9 36411.7 1173.42   4
   8   3  -8 21608.3 874.174   4
   8   3  -7 2986.45 296.435  54
   8   3  -7 4505.44 341.353   4
   8   3  -6 30796.0 1110.22  54
   8   3  -6 30409.1 1068.76   4
   8   3  -5 93199.6 2190.16  54
   8   3  -5 96611.0 2158.41   8
   8   3  -4 38857.9 1266.06  54
   8   3  -3 12003.0 851.654   1
   8   3  -3 11862.5 539.447   7
   8   3  -2 27188.2 950.091   8
   8   3  -2 27022.0 910.447   7
   8   3  -1 70176.9 1871.36   8
   8   3  -1 66714.2 1803.81   7
  -8   3   0 34916.4 1213.51  46
   8   3   0 33303.7 1109.95   8
  -8   3  -1 38021.6 1406.49  46
   8   3   1 42149.2 1304.79   7
  -8   3  -2 19610.7 900.637  46
  -8   3  -3 8441.15 510.644  50
  -8   3  -3 8143.06 555.696  46
  -8   3  -4 9880.56 571.549  50
  -8   3  -4 9617.90 618.185  46
  -8   3  -5 763.822 148.343  50
  -8   3  -5 661.525 145.204  46
  -8   3  -6 13033.0 667.260  50
  -8   3  -6 13173.1 701.727  46
  -8   3  -7 1073.29 172.360  46
  -8   3  -8 2012.55 215.283  46
  -8   3  -8 1811.50 191.955  36
  -8   3  -9 2101.48 177.914  36
   8   3   9 2689.35 183.266   8
   8   4 -15 6260.92 333.885  48
   8   4 -14 2706.88 219.936   3
   8   4 -14 3010.33 238.799  34
   8   4 -13 6162.18 403.385  52
   8   4 -13 6017.65 376.788   3
   8   4 -13 6242.69 401.876  34
   8   4 -12 2485.32 259.558  52
   8   4 -12 2396.43 242.352   3
   8   4 -12 2161.78 244.053  34
   8   4 -11 16964.1 771.646  52
   8   4 -11 16590.1 801.169  34
   8   4 -11 17542.4 739.985   5
   8   4 -10 27258.5 1012.11   4
   8   4 -10 26697.2 1002.32   5
   8   4  -9 19692.3 832.051   5
   8   4  -9 19815.4 831.549   4
   8   4  -8 8448.91 516.743   5
   8   4  -8 8994.16 493.193  44
   8   4  -8 8419.25 507.917   4
   8   4  -7 14835.5 658.495  44
   8   4  -7 15251.8 696.749   4
   8   4  -6 27364.4 968.622  44
  -8   4   6 28972.6 1034.41  10
   8   4  -6 27788.5 1009.25   4
   8   4  -5 39833.6 1344.41  54
   8   4  -5 42162.1 1305.33  44
  -8   4   5 42330.6 1360.44  10
   8   4  -4 17510.7 727.231  44
   8   4  -4 15869.1 712.229   8
   8   4  -4 15520.4 661.803   7
   8   4  -3 1978.89 213.120  44
  -8   4   3 1994.76 231.611  10
   8   4  -3 2108.94 223.433   8
   8   4  -3 2214.89 216.687   7
   8   4  -2 36146.3 1205.40   8
   8   4  -2 36595.9 1186.62   7
  -8   4   1 3171.07 310.286  46
   8   4  -1 3133.12 277.863   8
   8   4  -1 3563.03 284.079   7
   8   4   0 3005.44 273.261   8
   8   4   0 3134.98 270.366   7
  -8   4  -1 12414.9 668.889  46
   8   4   1 13389.2 591.706   7
   8   4   2 7942.85 476.564   8
   8   4   2 7493.61 450.445   7
  -8   4  -3 1494.15 222.473  46
   8   4   3 2156.19 229.107   8
  -8   4  -4 13473.4 740.386  46
  -8   4  -5 6850.37 494.328  46
  -8   4  -6 2772.70 291.534  46
  -8   4  -6 2972.10 264.147  36
  -8   4  -7 957.474 157.472  46
  -8   4  -7 988.956 142.000  36
  -8   4  -8 411.100 85.0880  46
  -8   4  -8 269.535 64.7269  36
   8   4   8 361.355 71.5744   8
   8   5 -15 367.895 67.8932  48
   8   5 -14 69.1125 32.6453  48
   8   5 -13 6068.85 388.292  34
   8   5 -12 13645.1 623.642  52
   8   5 -12 13585.7 666.988  34
   8   5 -11 1810.18 210.395   5
   8   5 -11 1613.49 224.162  34
   8   5 -10 1343.05 190.137   5
   8   5 -10 1569.76 201.955   4
   8   5 -10 1750.13 238.078  34
   8   5  -9 5450.22 406.542   5
   8   5  -9 5827.02 402.617   4
   8   5  -8 24411.8 992.823   5
   8   5  -8 25090.1 941.378  44
   8   5  -8 24376.3 945.299   4
   8   5  -7 12528.7 614.509  44
   8   5  -7 12216.1 615.867   4
   8   5  -6 34964.2 1191.74  44
  -8   5   6 34935.9 1236.33  10
   8   5  -6 36214.5 1213.39   4
   8   5  -5 29837.3 1055.64  44
  -8   5   5 28477.1 1087.38  10
   8   5  -5 30032.2 988.569   7
   8   5  -4 26381.3 979.269  44
  -8   5   4 25276.7 1013.31  10
   8   5  -4 27827.3 939.406   7
  -8   5   3 22919.0 929.819  46
   8   5  -3 25086.6 941.390  44
  -8   5   3 23893.6 970.521  10
   8   5  -3 24751.1 886.483   7
  -8   5   2 8506.66 520.232  46
   8   5  -2 8026.81 485.493  44
  -8   5   2 9310.97 546.673  10
   8   5  -2 7672.68 445.886   7
  -8   5   1 19744.9 882.456  46
   8   5  -1 21517.8 817.388   7
  -8   5   0 28231.7 1087.03  46
   8   5   0 24615.8 929.034   7
  -8   5  -1 13566.5 732.637  46
   8   5   1 15249.8 659.207   7
  -8   5  -2 24377.2 998.664  46
   8   5   2 17815.2 753.040   7
  -8   5  -3 3593.69 350.047  46
   8   5   3 3941.93 295.324   7
  -8   5  -4 6184.13 471.370  46
  -8   5  -5 1621.62 225.823  46
  -8   5  -6 10842.1 598.269  46
  -8   5  -6 11056.7 531.019  36
  -8   5  -7 1797.70 200.291  46
  -8   5  -7 1942.32 188.096  36
  -8   5  -8 3032.43 215.928  36
   8   6 -14 8279.16 383.262  48
   8   6 -13 180.061 52.0616  48
   8   6 -12 2618.50 242.591  48
   8   6 -12 2901.54 277.884  34
   8   6 -11 1219.24 173.475   5
   8   6 -11 925.138 160.846  34
   8   6 -10 5060.11 364.208   4
   8   6 -10 4524.64 394.941  34
   8   6 -10 4957.24 386.002   5
   8   6  -9 12345.4 597.169   4
   8   6  -9 11789.8 668.107  34
   8   6  -9 11780.3 636.592   5
   8   6  -8 13286.4 690.211   5
   8   6  -8 13936.7 652.352   4
   8   6  -8 13671.1 657.942  44
   8   6  -8 12585.8 701.690  34
   8   6  -7 3719.49 345.146   5
   8   6  -7 4075.28 335.163  44
   8   6  -7 4430.27 343.424   4
   8   6  -6 18266.9 790.306  44
   8   6  -6 18418.6 786.787   4
   8   6  -5 9157.21 531.475  44
  -8   6   5 10155.6 575.802  10
   8   6  -5 9019.97 521.111   4
   8   6  -5 9472.78 481.428   7
   8   6  -4 27035.1 1031.87  44
   8   6  -4 21018.3 876.524   7
   8   6  -3 2326.05 249.955  44
  -8   6   3 2560.29 278.181  10
   8   6  -3 2433.18 236.952   7
  -8   6   2 11555.8 621.248  46
   8   6  -2 11163.7 603.141  44
  -8   6   2 10311.0 602.614  10
   8   6  -2 11418.0 557.616   7
  -8   6   1 21211.2 909.004  46
  -8   6   1 19438.4 881.039  10
   8   6  -1 21231.0 820.691   7
  -8   6   0 11007.9 636.886  46
  -8   6   0 11169.8 630.922  10
   8   6   0 10948.2 554.277   7
  -8   6  -1 2291.31 274.273  46
   8   6   1 2524.90 242.658   7
  -8   6  -2 15440.1 786.720  46
   8   6   2 16236.0 682.948   7
  -8   6  -3 28980.4 1165.73  46
   8   6   3 31399.7 1024.28   7
  -8   6  -4 14332.2 741.144  46
  -8   6  -5 4809.29 383.340  46
  -8   6  -6 661.010 130.546  46
  -8   6  -6 563.271 98.3430  36
  -8   6  -7 1119.03 135.890  10
  -8   6  -7 1076.13 127.124  36
   8   7 -13 9409.73 406.696  48
   8   7 -12 2235.52 195.765  48
  -8   7  12 1928.19 177.329  11
   8   7 -11 36.1575 23.4706  48
   8   7 -11 188.157 67.8586  34
   8   7 -10 1466.03 204.313   5
   8   7 -10 1243.07 192.276  34
   8   7  -9 504.547 119.132   5
   8   7  -9 527.240 123.484  34
   8   7  -8 6699.92 440.269  44
   8   7  -8 7549.19 497.796   5
   8   7  -8 6450.96 467.820  34
   8   7  -7 1379.03 218.230   5
   8   7  -7 1475.19 196.051  44
   8   7  -7 1518.62 186.505   4
   8   7  -7 1208.86 188.663  34
   8   7  -6 5458.67 434.623   5
   8   7  -6 6093.20 425.266  44
   8   7  -6 5783.94 395.086   4
   8   7  -6 5376.29 409.227  34
   8   7  -5 6075.06 430.538  44
   8   7  -5 6450.78 422.117   4
   8   7  -5 7028.40 400.545   7
   8   7  -4 19834.7 847.647  44
  -8   7   4 18438.6 844.318  10
   8   7  -4 19757.7 765.994   7
   8   7  -3 2607.36 244.318   7
   8   7  -3 2501.96 266.090  44
  -8   7   3 2237.47 258.365  10
   8   7  -2 32552.3 1191.22  44
  -8   7   2 33223.6 1215.07  10
   8   7  -2 32916.3 1112.02   7
   8   7  -1 43058.8 1418.24  44
  -8   7   1 40119.5 1406.62  10
   8   7  -1 42907.3 1330.65   7
   8   7   0 3801.97 306.191   7
  -8   7   0 4551.69 380.318  10
  -8   7  -1 5168.19 420.008  46
  -8   7  -1 4946.94 399.323  10
   8   7   1 6299.43 387.294   7
  -8   7  -2 974.747 175.428  46
   8   7   2 1083.47 149.462   7
  -8   7  -2 968.250 161.040  10
  -8   7  -3 5174.55 409.228  46
  -8   7  -3 4956.49 386.353  10
   8   7   3 5502.89 340.902   7
  -8   7  -4 11916.1 602.891  10
  -8   7  -5 2483.77 234.312  10
  -8   7  -6 5536.71 330.997  10
  -8   8  12 464.964 75.0244  53
  -8   8  12 677.691 91.0863  11
  -8   8  11 1414.17 153.414  11
   8   8 -10 4858.64 350.591   5
   8   8 -10 4395.54 337.962  34
   8   8  -9 622.230 127.296   5
   8   8  -9 575.403 118.943  34
   8   8  -8 3614.20 315.923  34
   8   8  -8 3551.49 326.944   5
   8   8  -7 26676.2 1066.13   5
   8   8  -7 29726.4 1057.77  44
   8   8  -7 27937.3 1029.35  34
   8   8  -6 5520.75 429.551   5
   8   8  -6 5803.35 418.227  44
   8   8  -5 1497.75 214.215   5
   8   8  -5 1668.69 209.653  44
   8   8  -5 1725.44 188.693   7
   8   8  -4 7608.71 490.685  44
   8   8  -4 7793.32 431.145   7
   8   8  -3 35190.7 1134.02   7
  -8   8   3 33206.4 1215.86  10
   8   8  -3 34644.2 1227.29  44
   8   8  -2 3668.92 340.931  44
   8   8  -2 2578.65 254.198   7
   8   8  -1 4530.03 362.694  44
  -8   8   1 3997.95 350.300  10
   8   8  -1 4117.77 313.820   7
   8   8   0 18251.1 812.715  44
  -8   8   0 19970.9 844.345  10
   8   8   0 17421.2 724.531   7
   8   8   1 9431.38 536.502  44
   8   8   1 9369.74 473.159   7
  -8   8  -2 8949.10 514.459  10
   8   8   2 8809.62 447.804   7
   8   8   3 728.158 109.603   7
  -8   8  -3 759.417 128.882  10
  -8   8  -4 2701.78 245.154  10
  -8   8  -5 6662.41 359.888  10
  -8   9  11 2061.04 167.110  53
  -8   9  11 2023.40 167.241  11
  -8   9  10 4830.47 297.534  11
   8   9  -9 632.838 116.785   5
   8   9  -8 4402.15 307.818  34
   8   9  -8 4564.30 346.193   5
   8   9  -7 804.748 143.763   5
   8   9  -7 867.141 141.790  44
   8   9  -6 1489.26 202.710   5
   8   9  -6 1480.87 194.308  44
   8   9  -5 3271.38 302.625   5
   8   9  -5 3799.72 321.838  44
   8   9  -5 3651.94 261.569   7
   8   9  -4 2261.80 250.169   5
   8   9  -4 2305.69 252.692  44
   8   9  -4 2213.34 206.723   7
   8   9  -3 5151.86 375.658   5
   8   9  -3 5631.80 403.269  44
   8   9  -3 5514.45 346.909   7
   8   9  -2 1355.04 179.914   5
   8   9  -2 1451.46 171.860   7
   8   9  -2 1469.62 194.172  44
   8   9  -1 1503.45 170.859   7
   8   9  -1 1699.02 207.987  44
  -8   9   1 1181.99 172.094  10
   8   9   0 1061.71 145.133   7
   8   9   0 844.367 137.841  44
  -8   9   0 1154.83 170.572  10
   8   9   1 2291.55 231.987  44
  -8   9  -1 2248.14 227.341  10
   8   9   1 2167.53 201.097   7
   8   9   2 4251.37 312.296  44
   8   9   2 3934.33 268.030   7
   8   9   3 143.196 43.5265   7
   8   9   3 43.5903 32.9976  44
  -8   9  -3 107.747 56.6865  10
   8   9   4 6440.72 344.486  44
   8   9   5 8053.55 355.862  44
  -8  10  10 4779.31 255.611  53
  -8  10  10 4839.72 258.271  11
  -8  10   9 404.554 76.2252  11
  -8  10   8 4147.30 278.560  11
   8  10  -7 2885.18 245.354   5
   8  10  -6 5294.28 351.202  44
   8  10  -6 4952.10 335.282   5
   8  10  -5 159.650 52.8556   5
   8  10  -5 216.452 58.4600   7
   8  10  -5 171.855 62.8810  44
   8  10  -4 1533.06 187.716  44
   8  10  -4 1464.12 170.835   5
   8  10  -4 1539.22 160.678   7
   8  10  -3 56.2522 28.5886   7
   8  10  -3 35.4477 4.48870  44
   8  10  -2 4639.47 335.003  44
   8  10  -2 4256.40 283.965   7
   8  10  -1 209.357 63.0529   7
   8  10  -1 410.983 94.3644  44
   8  10   0 8128.15 442.142  44
   8  10   0 8546.76 406.700   7
   8  10   1 195.990 45.6975   7
   8  10   1 347.419 78.0956  44
   8  10   2 3402.99 242.866  44
   8  10   2 3145.08 208.248   7
   8  10   3 485.824 79.9843  44
  -8  11   7 5455.34 284.087  11
  -8  11   6 630.952 95.1051  11
  -8  11   5 1594.41 151.005  11
   8  11  -4 803.631 95.7538   7
  -8  11   4 660.390 95.6674  11
   8  11  -4 901.213 123.764  44
   8  11  -3 4451.53 288.847  44
   8  11  -3 4492.30 251.476   7
   8  11  -2 4717.54 294.091  44
   8  11  -2 4540.08 259.401   7
   8  11  -1 2542.21 205.338  44
   8  11  -1 2620.92 188.138   7
   8  11   0 2433.12 191.697  44
   8  11   0 2504.15 176.239   7
   8  11   1 119.429 33.5243   7
   9 -10  -8 8853.98 375.343  47
   9 -10  -8 9323.17 371.329  42
   9 -10  -7 639.788 85.6385  32
   9 -10  -7 760.605 97.2235  42
   9 -10  -7 636.614 88.5873  40
   9 -10  -7 665.474 91.8283  38
   9 -10  -6 2709.23 188.854  32
   9 -10  -6 2431.64 194.241  49
   9 -10  -6 2537.03 175.208  43
   9 -10  -6 2716.73 201.356  42
   9 -10  -6 2364.37 187.580  40
   9 -10  -6 2800.62 203.811  38
   9 -10  -5 4098.74 243.445  32
   9 -10  -5 3915.07 250.894  49
   9 -10  -5 4411.24 266.527  42
   9 -10  -5 3725.96 237.855  40
   9 -10  -5 4408.99 264.769  38
   9 -10  -4 2731.90 195.366  32
   9 -10  -4 2669.20 204.183  49
   9 -10  -4 2432.33 185.857  40
   9 -10  -4 2891.26 212.824  38
   9 -10  -4 2570.79 197.391  59
   9 -10  -3 1906.84 158.743  32
   9 -10  -3 1861.84 165.012  49
   9 -10  -3 2103.29 175.461  38
   9 -10  -3 1896.60 165.714  59
   9 -10  -2 5524.85 296.790  56
   9 -10  -2 5252.65 276.201  32
   9 -10  -2 4961.92 282.030  49
   9 -10  -2 5776.58 306.024  38
   9 -10  -2 5456.44 294.557  59
   9 -10  -1 624.040 88.8012  56
   9 -10  -1 519.904 77.6312  32
   9 -10  -1 547.414 81.2652  49
   9 -10  -1 703.728 96.6914  38
   9 -10  -1 584.411 86.2524  59
   9 -10   0 1268.76 125.567  56
   9 -10   0 1114.34 113.706  49
   9 -10   0 1120.04 109.088  45
   9 -10   0 1215.42 121.074  59
   9 -10   1 1620.01 136.044  56
   9  -9 -10 416.246 71.3094  47
   9  -9 -10 358.984 65.9931  42
   9  -9  -9 642.245 97.2637  47
   9  -9  -9 696.821 95.7022  42
   9  -9  -9 619.014 93.6394  40
   9  -9  -8 1071.19 123.423  32
   9  -9  -8 1066.73 129.851  42
   9  -9  -8 1095.82 139.643  40
   9  -9  -8 1339.56 145.957  38
   9  -9  -7 3922.28 256.558  32
   9  -9  -7 4013.47 275.953  49
   9  -9  -7 4310.84 249.345  43
   9  -9  -7 3711.92 259.676  42
   9  -9  -7 4121.91 282.883  40
   9  -9  -7 4142.48 274.984  38
   9  -9  -6 3402.14 242.632  32
   9  -9  -6 3447.41 264.765  49
   9  -9  -6 3516.36 256.598  42
   9  -9  -6 3579.24 269.101  40
   9  -9  -6 3523.95 258.377  38
   9  -9  -5 5710.59 326.170  32
   9  -9  -5 5645.34 349.328  49
   9  -9  -5 5405.76 339.269  40
   9  -9  -5 6083.93 350.519  38
   9  -9  -5 5671.79 340.739  59
   9  -9  -4 3466.55 258.932  56
   9  -9  -4 3180.67 235.416  32
   9  -9  -4 3394.71 264.582  49
   9  -9  -4 3295.26 253.350  40
   9  -9  -4 3568.74 263.428  38
   9  -9  -4 3531.38 264.424  59
   9  -9  -3 4200.18 284.705  56
   9  -9  -3 3721.33 258.675  32
   9  -9  -3 3700.62 271.419  49
   9  -9  -3 3615.73 265.935  40
   9  -9  -3 4094.29 282.378  38
   9  -9  -3 3638.14 268.062  59
   9  -9  -2 8452.52 423.651  56
   9  -9  -2 7775.52 384.520  32
   9  -9  -2 7555.37 405.744  49
   9  -9  -2 7678.59 390.707  45
   9  -9  -2 7374.37 388.165  40
   9  -9  -2 7919.43 413.478  59
   9  -9  -1 3458.51 253.864  56
   9  -9  -1 3129.74 230.442  45
   9  -9  -1 2820.94 216.520  40
   9  -9  -1 3188.55 244.688  59
   9  -9   0 5162.67 315.026  56
   9  -9   0 5055.43 298.402  45
   9  -9   0 4796.75 281.255  35
   9  -9   0 5123.01 310.515  59
   9  -9   1 6761.36 347.659  56
   9  -9   1 6527.19 332.811  45
   9  -9   1 6124.52 308.412  35
   9  -9   1 6563.50 340.990  59
   9  -9   2 428.604 72.4718  56
   9  -9   2 470.345 78.2446  45
   9  -9   2 509.427 78.0663  59
   9  -9   3 632.607 82.6466  56
   9  -9   3 597.763 80.4910  45
   9  -9   3 597.628 81.2042  59
   9  -8 -11 1264.07 122.331  47
   9  -8 -10 1338.20 145.075  47
   9  -8 -10 1127.43 124.868  42
   9  -8 -10 1383.81 153.643  40
   9  -8  -9 3540.00 242.881  32
   9  -8  -9 3696.54 252.654  42
   9  -8  -9 3906.30 284.784  40
   9  -8  -8 910.113 125.407  32
   9  -8  -8 1054.38 151.765  49
   9  -8  -8 920.392 131.783  42
   9  -8  -8 974.705 145.837  40
   9  -8  -8 1067.19 144.297  38
   9  -8  -7 3190.60 242.004  32
   9  -8  -7 3130.31 261.367  49
   9  -8  -7 3295.30 256.878  42
   9  -8  -7 3086.19 266.756  40
   9  -8  -7 3336.47 263.652  38
   9  -8  -6 3524.19 262.115  32
   9  -8  -6 3498.21 284.354  49
   9  -8  -6 3325.19 278.659  40
   9  -8  -6 3536.86 277.903  38
   9  -8  -6 3439.77 276.179  59
   9  -8  -5 1507.31 165.910  32
   9  -8  -5 1294.33 167.969  49
   9  -8  -5 1295.36 168.810  40
   9  -8  -5 1539.64 179.262  38
   9  -8  -5 1446.52 176.514  59
   9  -8  -4 8908.18 469.895  56
   9  -8  -4 8627.27 440.497  32
   9  -8  -4 8738.36 480.721  49
   9  -8  -4 8372.07 470.065  40
   9  -8  -4 8760.11 468.002  38
   9  -8  -4 8752.46 474.852  59
   9  -8  -3 1764.97 201.528  56
   9  -8  -3 1763.15 185.766  32
   9  -8  -3 1682.44 187.617  45
   9  -8  -3 1813.68 199.688  40
   9  -8  -3 2063.27 215.106  59
   9  -8  -2 4356.02 324.710  59
   9  -8  -2 4280.73 318.095  56
   9  -8  -2 4576.06 316.001  45
   9  -8  -2 3972.61 304.713  40
   9  -8  -2 4089.01 305.957  35
   9  -8  -1 15930.4 659.928  56
   9  -8  -1 15874.0 650.148  45
   9  -8  -1 14004.0 619.728  40
   9  -8  -1 14778.2 630.983  35
   9  -8  -1 15998.9 664.500  59
   9  -8   0 7892.36 433.353  56
   9  -8   0 7904.97 424.418  45
   9  -8   0 7413.88 409.625  35
   9  -8   1 4013.65 271.329  57
   9  -8   1 4361.56 299.245  56
   9  -8   1 4378.68 296.737  45
   9  -8   1 4120.88 283.585  35
   9  -8   2 6439.72 343.912  57
   9  -8   2 5974.06 349.644  56
   9  -8   2 6222.82 355.427  45
   9  -8   2 6529.91 351.149  35
   9  -8   3 4425.80 259.895  57
   9  -8   3 4679.46 275.469  56
   9  -8   3 4734.56 282.937  45
   9  -8   3 4397.61 260.206  35
   9  -8   4 2329.84 166.473  57
   9  -8   4 2359.48 170.451  56
  -9  -8  -4 2326.73 188.373  46
   9  -8   4 2472.14 182.535  45
   9  -8   4 2177.11 160.765  35
   9  -7 -12 4005.82 241.371  52
   9  -7 -12 4631.19 256.759  58
   9  -7 -11 1578.08 152.284  47
   9  -7 -11 1447.13 142.006  42
   9  -7 -11 1673.14 172.245  40
   9  -7 -10 11982.1 506.293  42
   9  -7 -10 12437.9 561.275  40
   9  -7  -9 1663.83 170.615  32
   9  -7  -9 1585.06 182.222  49
   9  -7  -9 1699.51 178.687  42
   9  -7  -9 1922.61 207.583  40
   9  -7  -8 12128.1 530.336  32
   9  -7  -8 11938.3 574.373  49
   9  -7  -8 11923.0 543.754  42
   9  -7  -8 11862.3 589.227  40
   9  -7  -8 12236.8 560.031  38
   9  -7  -7 2840.89 237.711  32
   9  -7  -7 2992.85 269.785  49
   9  -7  -7 3002.24 257.328  42
   9  -7  -7 3310.24 291.119  40
   9  -7  -7 3003.90 259.496  38
   9  -7  -6 6326.09 376.697  32
   9  -7  -6 6800.20 427.368  49
   9  -7  -6 6478.09 433.400  40
   9  -7  -6 6299.39 398.308  38
   9  -7  -6 6455.32 412.832  59
   9  -7  -5 2072.76 222.919  56
   9  -7  -5 2022.19 197.435  32
   9  -7  -5 2111.07 226.451  49
   9  -7  -5 2090.49 232.637  40
   9  -7  -5 2127.48 224.624  38
   9  -7  -5 2133.26 226.751  59
   9  -7  -4 10828.9 545.273  56
   9  -7  -4 10483.6 501.179  32
   9  -7  -4 10564.1 533.567  45
   9  -7  -4 10256.4 553.814  40
   9  -7  -4 10260.2 542.782  35
   9  -7  -4 10601.8 552.021  59
   9  -7  -3 3176.69 279.504  56
   9  -7  -3 2987.29 245.840  32
   9  -7  -3 3118.46 269.519  45
   9  -7  -3 2842.71 268.282  35
   9  -7  -3 3305.93 287.937  59
   9  -7  -2 201.890 64.9668  56
   9  -7  -2 243.285 75.0446  45
   9  -7  -2 200.854 62.1140  35
   9  -7  -2 136.622 57.9111  59
   9  -7  -1 41526.6 1276.09  57
   9  -7  -1 40334.8 1290.47  56
   9  -7  -1 40237.1 1281.87  45
   9  -7  -1 39386.1 1279.20  35
   9  -7   0 4171.15 308.768  57
   9  -7   0 3968.25 308.493  56
   9  -7   0 3952.40 306.862  45
   9  -7   0 3965.02 309.252  35
   9  -7   1 243.355 70.1591  57
   9  -7   1 145.124 45.1559  56
  -9  -7  -1 273.537 81.5242  46
   9  -7   1 105.620 25.4890  45
   9  -7   1 168.077 59.9640  35
   9  -7   2 4545.03 314.751  56
  -9  -7  -2 5491.27 356.267  46
   9  -7   2 4772.67 327.696  45
   9  -7   2 4671.86 319.531  35
   9  -7   2 4747.55 322.835  57
   9  -7   3 1708.61 176.890  57
   9  -7   3 1729.64 174.059  56
  -9  -7  -3 1242.22 158.756  46
   9  -7   3 1507.24 166.467  45
   9  -7   3 1569.78 167.003  35
   9  -7   4 4157.29 266.025  57
   9  -7   4 3688.31 241.853  56
  -9  -7  -4 3556.81 267.120  46
   9  -7   4 4231.51 270.235  45
   9  -7   4 4094.89 261.377  35
   9  -7   5 687.501 91.5948  57
   9  -7   5 466.239 67.6658  56
  -9  -7  -5 549.632 89.6898  46
   9  -7   5 779.837 99.5132  45
   9  -7   5 753.356 97.1277  35
   9  -6 -13 9442.15 400.343  52
   9  -6 -13 9632.31 391.230  58
   9  -6 -12 4802.26 284.261  58
   9  -6 -11 6150.87 327.903  42
   9  -6 -11 6029.40 367.139  40
   9  -6 -10 2761.92 225.946  42
   9  -6 -10 2914.71 262.867  40
   9  -6  -9 8560.10 431.137  32
   9  -6  -9 7806.74 453.102  49
   9  -6  -9 7981.86 424.235  42
   9  -6  -9 8258.60 476.343  40
   9  -6  -9 8553.56 452.996  38
   9  -6  -8 2004.18 197.471  32
   9  -6  -8 2099.19 223.992  49
   9  -6  -8 1972.94 205.239  42
   9  -6  -8 2293.02 245.379  40
   9  -6  -8 2062.06 211.636  38
   9  -6  -7 281.103 86.6463  32
   9  -6  -7 174.293 62.1446  49
   9  -6  -7 243.613 77.6984  40
   9  -6  -7 157.691 56.1053  38
   9  -6  -7 158.916 61.6458  59
   9  -6  -6 19420.5 732.703  32
   9  -6  -6 19921.6 811.263  49
   9  -6  -6 18888.0 820.144  40
   9  -6  -6 18829.9 764.852  38
   9  -6  -6 19284.6 796.752  59
   9  -6  -5 9645.73 515.847  56
   9  -6  -5 9564.50 512.456  45
   9  -6  -5 9087.40 532.222  40
   9  -6  -5 9574.13 506.602  38
   9  -6  -5 9443.86 518.504  59
   9  -6  -4 3288.95 294.916  56
   9  -6  -4 3606.88 309.139  45
   9  -6  -4 4087.25 332.578  35
   9  -6  -4 3606.08 312.248  59
   9  -6  -3 4033.07 322.356  56
   9  -6  -3 4093.19 323.152  45
   9  -6  -3 4178.10 331.515  35
   9  -6  -3 4122.87 332.858  59
   9  -6  -2 2413.76 254.826  57
   9  -6  -2 1776.59 220.833  56
   9  -6  -2 2213.95 245.342  45
   9  -6  -2 2533.20 261.988  35
   9  -6  -1 14068.5 647.366  57
   9  -6  -1 13840.5 643.527  56
   9  -6  -1 13968.1 651.207  45
   9  -6  -1 13731.8 655.365  35
   9  -6   0 34752.0 1161.87  57
   9  -6   0 32801.7 1135.48  56
   9  -6   0 34078.0 1155.76  45
   9  -6   0 34858.7 1175.17  35
   9  -6   1 7466.12 443.094  57
   9  -6   1 6961.37 419.680  56
   9  -6   1 7407.20 440.764  45
   9  -6   1 7578.91 447.455  35
   9  -6   2 3506.57 288.897  57
   9  -6   2 3125.62 266.943  56
   9  -6   2 3304.49 273.401  51
   9  -6   2 3448.03 287.821  35
   9  -6   3 95.9887 43.7892  57
   9  -6   3 117.203 53.3075  56
   9  -6   3 128.101 51.3521  51
  -9  -6  -3 180.127 77.2177  46
   9  -6   3 92.8472 53.8660  35
   9  -6   4 4875.00 320.511  57
   9  -6   4 4719.31 308.498  51
   9  -6   5 3357.23 236.285  51
  -9  -6  -5 2772.38 240.761  46
   9  -6   5 3225.52 236.532  35
   9  -6   5 3621.34 250.458  57
   9  -6   6 1871.01 157.009  57
   9  -6   6 1667.02 146.666  51
  -9  -6  -6 1784.87 170.499  46
   9  -6   6 1596.68 141.065  45
   9  -6   6 1916.92 160.030  35
   9  -5 -14 7645.41 342.132  52
   9  -5 -13 173.698 49.7402  52
   9  -5 -13 171.433 44.7261  58
   9  -5 -12 8336.08 406.068  58
   9  -5 -11 11561.2 548.169  40
   9  -5 -11 11308.5 524.647  16
   9  -5 -10 5234.72 370.945  40
   9  -5 -10 5528.88 362.153  16
   9  -5  -9 13576.9 579.857  32
   9  -5  -9 13800.7 633.563  49
   9  -5  -9 13826.6 655.312  40
   9  -5  -9 13884.4 618.749  38
   9  -5  -8 8419.45 480.046  49
   9  -5  -8 8636.86 449.184  42
   9  -5  -8 8241.91 495.903  40
   9  -5  -8 7752.59 447.374  38
   9  -5  -7 1323.69 183.583  49
   9  -5  -7 1418.23 181.488  38
   9  -5  -7 1333.85 179.635  59
   9  -5  -6 1706.88 217.450  49
   9  -5  -6 1755.65 231.285  40
   9  -5  -6 1668.08 195.882  38
   9  -5  -6 1798.80 226.682  59
   9  -5  -5 725.139 125.237  56
   9  -5  -5 477.493 96.5278  45
   9  -5  -5 659.521 125.120  38
   9  -5  -5 632.507 124.349  35
   9  -5  -5 691.632 126.543  59
   9  -5  -4 8512.26 485.788  56
   9  -5  -4 8457.44 490.630  45
   9  -5  -4 8776.14 506.583  35
   9  -5  -4 8730.64 496.202  59
   9  -5  -3 42518.0 1351.07  57
   9  -5  -3 42727.0 1341.74  56
   9  -5  -3 42578.1 1342.60  45
   9  -5  -3 40325.5 1347.81  35
   9  -5  -3 41572.4 1339.37  59
   9  -5  -2 28933.3 1040.18  57
   9  -5  -2 28384.5 1021.51  56
   9  -5  -2 28486.1 1029.12  45
   9  -5  -2 29021.2 1052.18  35
   9  -5  -1 4530.83 346.522  57
   9  -5  -1 4774.27 350.005  56
   9  -5  -1 4146.69 333.649  45
   9  -5  -1 4144.79 338.173  35
   9  -5   0 16889.9 736.308  57
   9  -5   0 15015.2 684.087  56
   9  -5   0 15592.9 706.077  45
   9  -5   0 16750.2 736.867  35
   9  -5   1 2154.67 230.017  57
   9  -5   1 2291.06 228.313  56
   9  -5   1 2209.09 235.410  51
  -9  -5  -1 1851.98 220.701  46
   9  -5   2 2155.39 232.187  57
   9  -5   2 1809.19 197.859  56
   9  -5   2 1992.59 220.594  51
  -9  -5  -2 1759.62 217.558  46
   9  -5   3 48.7576 30.1202  56
   9  -5   3 108.733 59.0683  51
  -9  -5  -3 70.8273 31.8104  46
   9  -5   3 113.166 46.8930  57
   9  -5   4 8814.64 478.975  57
   9  -5   4 8998.17 479.214  51
   9  -5   5 1904.25 189.388  57
   9  -5   5 2046.64 193.149  51
  -9  -5  -5 1590.25 188.895  46
   9  -5   6 9784.51 438.545  57
   9  -5   6 9647.60 434.162  51
  -9  -5  -6 8930.47 456.365  46
   9  -5   7 545.095 79.6795  57
   9  -5   7 513.819 76.1225  51
  -9  -5  -7 437.042 74.8023  46
   9  -4 -14 3481.74 237.146  52
   9  -4 -14 3044.57 200.547  58
   9  -4 -13 1627.12 177.185  52
   9  -4 -13 1564.18 157.956   3
   9  -4 -13 1714.28 161.955  58
   9  -4 -12 8501.92 436.183   3
   9  -4 -12 8390.07 433.390  40
   9  -4 -12 8708.76 458.941  16
   9  -4 -12 8487.32 422.496  58
   9  -4 -11 8195.44 450.870  40
   9  -4 -11 7432.31 443.247  16
   9  -4 -10 5733.52 384.123  40
   9  -4 -10 5743.41 391.623  16
   9  -4  -9 1961.46 213.929  49
   9  -4  -9 1777.47 213.286  40
   9  -4  -9 1861.15 214.614  16
   9  -4  -8 18723.2 767.139  49
   9  -4  -8 18204.7 794.821  40
   9  -4  -8 19419.7 759.352  38
   9  -4  -7 89933.0 2364.95  54
   9  -4  -7 87536.7 2356.95  49
   9  -4  -7 89214.0 2415.77  40
   9  -4  -7 90416.8 2333.59  38
   9  -4  -7 87851.7 2365.36  59
   9  -4  -6 7393.14 440.846  54
   9  -4  -6 6607.59 402.715  38
   9  -4  -6 6568.50 420.054  59
   9  -4  -5 9171.93 501.118  56
   9  -4  -5 8567.86 484.440  45
   9  -4  -5 9080.04 471.119  38
   9  -4  -5 9049.66 507.214  35
   9  -4  -5 8706.24 484.453  59
   9  -4  -4 20330.4 812.834  56
   9  -4  -4 19829.2 808.877  45
   9  -4  -4 20789.7 810.554   8
   9  -4  -4 20767.6 835.795  35
   9  -4  -4 20416.5 813.764  59
   9  -4  -3 24689.8 937.635  57
   9  -4  -3 25217.2 927.461  56
   9  -4  -3 24981.2 932.622  45
   9  -4  -3 24710.4 917.917   8
   9  -4  -3 25456.6 955.891  35
   9  -4  -2 39273.7 1279.66  57
   9  -4  -2 38956.1 1253.50  56
   9  -4  -2 38058.5 1261.19  45
   9  -4  -2 40198.7 1262.47   8
   9  -4  -2 38561.9 1284.48  35
   9  -4  -1 1465.78 188.329  57
   9  -4  -1 1404.85 181.787  56
   9  -4  -1 1459.76 183.284  45
   9  -4  -1 1672.94 196.439   8
   9  -4  -1 1239.78 180.765  35
   9  -4   0 3721.72 318.571  57
   9  -4   0 3790.92 298.993  56
   9  -4   0 3727.66 311.705  51
  -9  -4   0 4862.46 368.592  46
   9  -4   0 3579.69 300.357  45
   9  -4   0 3907.71 314.472   8
   9  -4   1 24584.0 943.224  57
   9  -4   1 23088.3 870.188  56
   9  -4   1 25442.7 947.145  51
  -9  -4  -1 22570.1 935.393  46
   9  -4   1 25090.4 921.729   8
   9  -4   2 1893.31 228.433  57
   9  -4   2 1356.49 170.008  56
   9  -4   2 1719.79 215.484  51
   9  -4   2 2237.10 235.926   8
   9  -4   3 8922.24 501.775  57
   9  -4   3 9160.86 505.703  51
  -9  -4  -3 7750.63 496.406  46
   9  -4   3 9344.22 490.333   8
   9  -4   4 9061.10 487.816  57
   9  -4   4 8778.51 487.495  51
  -9  -4  -4 7446.89 482.508  46
   9  -4   4 9223.29 470.626   8
   9  -4   5 7821.00 428.221  57
   9  -4   5 7549.30 421.783  51
   9  -4   5 7904.63 407.921   8
   9  -4   6 2521.86 220.620  57
   9  -4   6 2762.35 215.667   8
   9  -4   7 840.366 105.802  57
   9  -4   7 982.470 117.639  51
  -9  -4  -7 612.467 89.3590  50
  -9  -4  -7 745.571 115.338  46
   9  -4   7 695.832 87.2045  45
   9  -3 -15 2179.67 170.023  52
   9  -3 -14 9032.43 437.859  52
   9  -3 -14 8577.73 406.365   3
   9  -3 -13 1524.87 182.863  52
   9  -3 -13 1324.31 156.988   3
   9  -3 -12 4399.16 319.824   3
   9  -3 -12 4291.50 328.885  16
   9  -3 -11 3583.81 280.878  40
   9  -3 -11 3732.65 312.870  16
   9  -3 -10 15757.1 680.192  40
   9  -3 -10 15346.8 710.421  16
   9  -3  -9 7850.74 462.768  54
   9  -3  -9 7675.57 436.968  49
   9  -3  -9 8005.34 467.244  40
   9  -3  -9 8043.30 489.071  16
   9  -3  -8 27062.7 992.784  54
   9  -3  -8 26354.6 951.852  49
   9  -3  -8 26246.4 981.899  40
   9  -3  -8 26171.5 926.625  38
   9  -3  -7 15978.4 699.545  54
   9  -3  -7 14932.3 660.741  49
   9  -3  -7 15285.8 693.150  40
   9  -3  -7 15506.4 678.493  59
   9  -3  -6 12855.6 618.630  54
   9  -3  -6 12496.6 591.500  59
   9  -3  -5 33476.0 1101.51  56
   9  -3  -5 31300.5 1087.01  45
   9  -3  -5 31556.7 1095.30   8
   9  -3  -5 31934.8 1102.89  35
   9  -3  -5 32295.2 1077.43  59
   9  -3  -4 26573.1 956.171  56
   9  -3  -4 26377.3 963.131  45
   9  -3  -4 27555.5 985.524   8
   9  -3  -4 26909.9 977.046  35
   9  -3  -4 26818.8 953.327  59
   9  -3  -3 55127.1 1635.98  57
   9  -3  -3 56805.5 1615.31  56
   9  -3  -3 55219.8 1624.50  45
   9  -3  -3 55892.1 1639.45   8
   9  -3  -3 54348.2 1634.90  35
   9  -3  -2 30138.2 1035.04  56
   9  -3  -2 31409.2 1084.53  57
   9  -3  -2 30046.8 1053.01  45
   9  -3  -2 31624.3 1088.59   8
   9  -3  -2 31229.9 1083.63  35
   9  -3  -1 3167.55 289.074  57
   9  -3  -1 3461.47 279.372  56
   9  -3  -1 3468.32 290.594  45
   9  -3  -1 3559.39 300.716   8
   9  -3   0 2378.14 246.761  57
   9  -3   0 2355.61 246.083  51
  -9  -3   0 2707.27 275.846  46
   9  -3   0 2164.17 227.393  45
   9  -3   0 2293.14 240.100   8
   9  -3   1 658.867 120.539  57
   9  -3   1 759.011 136.155  51
  -9  -3  -1 427.181 101.232  46
   9  -3   1 804.276 137.303   8
   9  -3   2 1932.37 225.230  57
   9  -3   2 1783.96 217.201  51
  -9  -3  -2 2266.49 259.296  46
   9  -3   2 2133.62 229.847   8
   9  -3   3 1098.81 171.979  57
   9  -3   3 1045.62 155.572  51
  -9  -3  -3 798.641 145.116  46
   9  -3   3 1036.91 159.032   8
   9  -3   4 1284.74 180.915  57
   9  -3   4 1247.10 176.206  51
   9  -3   4 1464.94 184.032   8
   9  -3   5 5976.50 373.872  57
   9  -3   5 5602.92 367.282  51
  -9  -3  -5 4697.44 372.862  46
   9  -3   5 5775.83 364.827   8
   9  -3   6 7097.63 389.376  57
   9  -3   6 7082.38 393.807  51
  -9  -3  -6 6768.39 385.894  50
  -9  -3  -6 7441.67 442.241  46
   9  -3   6 7199.24 391.456   8
   9  -3   7 5554.94 305.599  57
   9  -3   7 5620.32 309.969  51
  -9  -3  -7 4092.68 273.400  50
  -9  -3  -7 4287.35 305.772  46
   9  -3   7 5519.54 302.076   8
   9  -3   8 765.784 92.9671  51
  -9  -3  -8 1143.63 129.749  46
   9  -2 -15 149.181 44.9374  52
   9  -2 -15 112.620 37.5620   3
   9  -2 -14 1529.90 175.089  52
   9  -2 -14 1521.76 167.424   3
   9  -2 -14 1374.47 150.757  37
   9  -2 -13 7017.43 424.126  52
   9  -2 -13 7124.83 413.501   3
   9  -2 -13 6944.00 412.296  16
   9  -2 -12 1633.52 225.963  52
   9  -2 -12 1813.96 222.038  16
   9  -2 -11 85.8817 26.4891  16
   9  -2 -10 2978.41 288.353  16
   9  -2  -9 22512.8 900.489  54
   9  -2  -9 24168.0 907.964   4
   9  -2  -8 50384.3 1555.69  54
   9  -2  -8 50566.9 1516.77   4
   9  -2  -8 50446.9 1512.35  40
   9  -2  -7 39555.8 1266.30  54
   9  -2  -7 39487.8 1235.73  40
   9  -2  -6 41831.5 1254.34  54
   9  -2  -6 28788.7 1069.68  59
   9  -2  -5 85951.2 2262.32  45
   9  -2  -5 86632.4 2303.77   8
   9  -2  -5 83457.2 2254.62  35
   9  -2  -5 84988.3 2229.04  59
   9  -2  -4 100306. 2535.69  56
   9  -2  -4 100099. 2547.84  45
   9  -2  -4 99293.3 2587.44   8
   9  -2  -4 98046.8 2546.83  35
   9  -2  -4 95700.3 2499.64  59
   9  -2  -3 1321.34 174.867  57
   9  -2  -3 1256.79 155.524  56
   9  -2  -3 1239.30 165.489  45
   9  -2  -3 1466.28 181.777  35
   9  -2  -3 1237.66 172.009   8
   9  -2  -2 18090.4 759.437  57
   9  -2  -2 17819.1 732.803  45
   9  -2  -2 20160.7 813.124   8
   9  -2  -2 18347.8 761.400  35
   9  -2  -1 2097.23 225.290  57
   9  -2  -1 2186.57 224.194  45
   9  -2  -1 2193.69 238.207   8
   9  -2   0 7546.37 452.157  57
   9  -2   0 7148.31 446.109  51
  -9  -2   0 7723.46 486.879  46
   9  -2   0 7815.13 440.150  45
   9  -2   0 7467.26 465.442   8
   9  -2   1 4056.47 323.559  57
   9  -2   1 4072.32 333.801  51
  -9  -2  -1 4008.10 346.693  46
   9  -2   1 4529.83 348.998   8
   9  -2   2 24522.8 938.894  57
   9  -2   2 24863.2 957.400  51
  -9  -2  -2 24213.2 1004.90  46
   9  -2   2 26988.2 990.884   8
   9  -2   3 9171.66 504.507  57
   9  -2   3 8930.25 509.507  51
  -9  -2  -3 7837.11 519.384  46
   9  -2   3 9620.88 532.618   8
   9  -2   4 10030.0 535.080  57
   9  -2   4 10344.5 546.255  51
   9  -2   5 3405.94 275.326  57
   9  -2   5 3750.91 295.442  51
  -9  -2  -5 2912.32 261.508  50
  -9  -2  -5 2546.19 271.890  46
   9  -2   6 3527.66 264.485  57
   9  -2   6 3446.71 264.216  51
  -9  -2  -6 2616.86 237.214  50
  -9  -2  -6 2548.39 255.180  46
   9  -2   6 3766.55 280.965   8
   9  -2   7 8633.43 397.575  57
   9  -2   7 8793.91 409.956  51
  -9  -2  -7 6888.74 385.286  50
  -9  -2  -7 6947.91 415.786  46
   9  -2   7 9266.08 428.475   8
   9  -2   8 2782.18 187.088  57
   9  -2   8 2892.02 195.911  51
  -9  -2  -8 4985.71 271.737  50
  -9  -2  -8 5247.03 295.000  46
   9  -2   8 3060.76 209.471   8
   9  -1 -15 1432.35 146.775   3
   9  -1 -15 1555.32 156.865  52
   9  -1 -14 4727.34 323.848  52
   9  -1 -14 4566.25 308.725   3
   9  -1 -13 204.881 64.3775  52
   9  -1 -13 176.243 57.6358   3
   9  -1 -13 276.137 83.9667  16
   9  -1 -12 12085.8 619.318  52
   9  -1 -12 11448.4 589.089  16
   9  -1 -11 4103.55 343.971  16
   9  -1 -10 16713.2 761.641  16
   9  -1  -9 10402.0 569.402  54
   9  -1  -9 10435.0 556.467   4
   9  -1  -8 27933.5 1038.28  54
   9  -1  -8 27996.1 1015.11   4
   9  -1  -7 39766.0 1310.27  54
   9  -1  -7 39360.5 1271.91   4
   9  -1  -6 63012.7 1809.68  54
   9  -1  -6 60392.5 1748.94   4
   9  -1  -5 74607.2 2011.03   4
   9  -1  -5 72976.5 2044.33   8
   9  -1  -5 73237.3 1985.37  35
   9  -1  -4 5013.85 346.022  45
   9  -1  -4 5669.43 388.402   8
   9  -1  -4 5884.40 369.872  35
   9  -1  -3 32612.5 1080.43  45
   9  -1  -3 34882.3 1162.97   8
   9  -1  -3 32619.0 1087.05  35
   9  -1  -3 33811.5 1107.57  57
   9  -1  -2 8384.98 467.481  57
   9  -1  -2 8313.00 450.413  45
   9  -1  -2 9682.40 523.913   8
   9  -1  -2 7926.47 449.022  35
   9  -1  -1 9886.05 511.704  57
   9  -1  -1 10092.6 494.790  45
   9  -1  -1 9831.21 537.744   8
   9  -1   0 21974.9 860.486  57
   9  -1   0 22338.8 882.434  51
  -9  -1   0 25208.1 976.542  46
   9  -1   0 23558.5 919.874   8
   9  -1   1 1458.20 185.277  57
   9  -1   1 1544.99 197.275  51
  -9  -1  -1 1354.02 196.907  46
   9  -1   1 1517.20 200.368   8
   9  -1   2 19475.5 787.976  57
   9  -1   2 18819.3 799.900  51
  -9  -1  -2 18845.3 864.708  46
   9  -1   2 20843.8 852.028   8
   9  -1   3 19191.6 769.134  57
   9  -1   3 19104.6 792.072  51
  -9  -1  -3 17304.0 831.653  46
   9  -1   4 21029.3 811.446  57
   9  -1   4 20707.0 829.508  51
  -9  -1  -4 21775.6 933.591  46
   9  -1   5 13118.5 575.248  57
   9  -1   5 13133.0 592.163  51
  -9  -1  -5 10720.0 557.630  50
  -9  -1  -5 10991.5 618.418  46
   9  -1   6 4499.27 296.293  57
   9  -1   6 4713.34 310.725  51
  -9  -1  -6 4034.03 311.626  50
  -9  -1  -6 4228.67 343.358  46
   9  -1   7 4620.62 272.195  57
   9  -1   7 4782.64 284.838  51
  -9  -1  -7 3763.44 280.652  50
  -9  -1  -7 3650.34 296.343  46
   9  -1   7 5160.27 317.294   8
   9  -1   8 2926.11 193.428  51
  -9  -1  -8 3953.88 253.531  50
  -9  -1  -8 4484.94 284.401  46
   9  -1   8 3294.56 225.911   8
   9   0 -15 4997.47 295.229   3
   9   0 -15 5227.61 310.343  52
   9   0 -14 6174.35 379.465  52
   9   0 -14 5785.91 361.023   3
   9   0 -13 35.8813 22.6638  52
   9   0 -13 65.8366 38.4319   3
   9   0 -12 5536.74 409.262  52
   9   0 -12 5376.47 389.331  16
   9   0 -11 11927.5 636.117  52
   9   0 -11 11400.6 600.714  16
   9   0 -10 24518.3 942.219   4
   9   0 -10 23553.3 946.410  16
   9   0  -9 9334.49 541.235  54
   9   0  -9 8942.31 517.774   4
   9   0  -8 68632.4 2029.30  54
   9   0  -8 72825.9 2025.29   4
   9   0  -7 9455.77 540.968  54
   9   0  -7 9643.96 527.940   4
   9   0  -6 70250.5 2000.72  54
   9   0  -6 70280.8 1968.72   4
   9   0  -5 21962.1 849.782   4
   9   0  -5 21827.8 864.582   8
   9   0  -4 8781.82 501.889   8
   9   0  -3 1799.17 209.914   8
   9   0  -2 26875.7 942.719  57
   9   0  -2 27642.8 1010.98   8
   9   0  -1 22677.1 834.203  57
   9   0  -1 23672.7 898.006   8
   9   0   0 3453.42 280.696  57
  -9   0   0 4248.22 359.109  46
   9   0   0 3659.34 316.141   8
   9   0   1 17.5275 21.9741  57
   9   0   1 49.9288 38.1753  51
  -9   0  -1 117.800 58.6893  46
   9   0   1 66.3145 21.8341   8
   9   0   2 6068.24 387.097  57
   9   0   2 6054.22 408.411  51
   9   0   2 6655.30 446.747   8
   9   0   3 330.155 78.7602  57
   9   0   3 417.569 90.2171  51
  -9   0  -3 467.972 125.427  46
   9   0   4 8912.26 458.708  57
   9   0   4 8866.99 480.931  51
   9   0   5 438.095 83.2675  57
   9   0   5 404.097 93.3115  51
  -9   0  -5 288.886 80.4133  50
  -9   0  -5 294.232 99.1535  46
  -9   0  -6 5426.90 358.793  50
  -9   0  -6 6221.61 425.551  46
  -9   0  -7 5590.04 351.448  50
  -9   0  -7 6017.04 386.969  46
  -9   0  -8 762.441 107.485  50
  -9   0  -8 768.968 110.482  46
   9   0   8 1038.27 122.320   8
   9   1 -15 1429.51 148.050   3
   9   1 -15 1529.11 157.131  52
   9   1 -14 4526.45 318.530  52
   9   1 -14 4285.96 302.003   3
   9   1 -13 386.669 102.059  52
   9   1 -13 398.666 98.9840   3
   9   1 -13 300.875 76.9706  16
   9   1 -12 12526.6 637.909  52
   9   1 -12 11911.8 597.292  16
   9   1 -12 12076.6 589.469  34
   9   1 -11 3440.20 321.038  52
   9   1 -11 3472.53 305.912  16
   9   1 -10 15682.8 756.657  52
   9   1 -10 15772.1 727.029   4
   9   1 -10 15367.2 723.376  16
   9   1  -9 8612.17 511.140   4
   9   1  -8 25630.2 1010.50  54
   9   1  -8 25903.4 983.483   4
   9   1  -7 40802.0 1363.24  54
   9   1  -7 41585.7 1340.81   4
   9   1  -6 56754.1 1716.60  54
   9   1  -6 56804.7 1681.80   4
   9   1  -5 76426.4 2101.72  54
   9   1  -5 71901.6 2056.58   8
   9   1  -5 75018.0 2060.26   4
   9   1  -4 4684.20 349.619   8
   9   1  -3 36909.6 1230.83   8
   9   1  -2 10369.9 552.697   8
  -9   1   1 7843.16 496.568  46
   9   1  -1 9911.92 531.078   8
  -9   1   0 26192.5 1022.37  46
   9   1   0 24118.8 949.073   8
  -9   1  -1 1325.48 204.556  46
   9   1   1 1308.01 183.201   8
   9   1   2 24233.2 898.926  51
  -9   1  -2 22528.1 985.765  46
   9   1   2 24525.3 952.369   8
   9   1   3 19869.7 763.477  51
  -9   1  -3 15642.7 805.871  46
   9   1   4 20183.1 780.929  51
  -9   1  -4 20709.5 921.790  46
  -9   1  -5 10854.4 571.393  50
  -9   1  -5 10998.0 626.660  46
  -9   1  -6 3841.17 302.153  50
  -9   1  -6 3876.44 329.966  46
  -9   1  -7 3629.58 276.713  50
  -9   1  -7 3397.09 282.749  46
   9   1   7 4319.65 287.040   8
  -9   1  -8 3683.56 253.554  46
   9   1   8 3120.45 218.613   8
   9   2 -15 146.449 48.4469  52
   9   2 -15 116.844 46.0879   3
   9   2 -14 1444.11 172.520  52
   9   2 -14 1289.26 156.974   3
   9   2 -13 6809.97 419.734  52
   9   2 -13 6235.13 392.735   3
   9   2 -13 6075.70 378.357  16
   9   2 -13 6352.11 382.332  34
   9   2 -12 1395.03 201.563  52
   9   2 -12 1423.33 193.418  16
   9   2 -12 1239.38 188.134  34
   9   2 -11 173.326 68.2520  52
   9   2 -11 169.841 68.3808  16
   9   2 -10 3676.99 331.780  52
   9   2 -10 3704.94 319.593   4
   9   2 -10 3774.66 324.679  16
   9   2  -9 28080.4 1051.15  52
   9   2  -9 27010.4 1024.86   4
   9   2  -8 47370.2 1525.21  54
   9   2  -8 45431.2 1467.45   4
   9   2  -7 39484.3 1347.04  54
   9   2  -7 39406.1 1305.21   4
   9   2  -6 41314.8 1394.15  54
   9   2  -6 43364.1 1393.22   4
   9   2  -5 77785.5 2150.34  54
   9   2  -5 75648.6 2107.09   8
   9   2  -5 74454.9 2097.63   4
   9   2  -4 96389.1 2558.89  54
   9   2  -4 95076.4 2530.21   8
   9   2  -3 1523.86 195.872   8
   9   2  -2 17509.3 760.169   8
  -9   2   1 1524.14 209.558  46
   9   2  -1 2166.27 229.359   8
  -9   2   0 7986.90 517.534  46
   9   2   0 7347.53 461.615   8
  -9   2  -1 2936.40 305.977  46
   9   2   1 3175.24 290.898   8
  -9   2  -2 25938.7 1071.73  46
   9   2   2 26413.8 992.676   8
  -9   2  -3 8165.84 547.885  46
   9   2   3 9683.48 529.274   8
  -9   2  -4 12212.6 602.807  50
  -9   2  -4 12653.9 685.708  46
  -9   2  -5 2971.40 270.955  50
  -9   2  -5 2735.03 293.413  46
  -9   2  -6 3352.76 307.338  46
   9   2   6 3969.77 290.840   8
  -9   2  -7 7021.07 421.652  46
   9   2   7 8739.41 412.066   8
  -9   2  -8 5452.49 299.769  46
   9   2   8 3198.52 215.847   8
   9   3 -14 8593.32 430.710  52
   9   3 -14 8391.04 411.920   3
   9   3 -14 8573.39 405.641  34
   9   3 -13 1044.00 147.633  52
   9   3 -13 1085.80 146.758   3
   9   3 -13 1187.45 155.225  34
   9   3 -12 3791.39 314.343  52
   9   3 -12 3638.59 301.612   3
   9   3 -12 3702.78 293.102  16
   9   3 -12 3710.64 318.271  34
   9   3 -11 3333.27 298.356  52
   9   3 -11 3436.61 294.488   4
   9   3 -11 3412.47 291.651  16
   9   3 -11 3285.61 309.938  34
   9   3 -10 13809.8 670.623  52
   9   3 -10 14128.7 677.835   4
   9   3 -10 14355.3 678.003  16
   9   3 -10 15031.2 657.590   5
   9   3  -9 9109.49 504.124   5
   9   3  -9 8744.67 518.235   4
   9   3  -8 27546.5 1040.12   4
   9   3  -7 14187.2 708.005  54
   9   3  -7 14547.5 690.232   4
   9   3  -6 10571.6 587.010  54
   9   3  -6 10785.4 570.963   4
   9   3  -5 28733.8 1073.47  54
   9   3  -5 29441.5 1053.87   8
   9   3  -4 26335.5 1013.35  54
   9   3  -4 26241.6 996.633   8
   9   3  -3 53290.1 1601.52  54
  -9   3   3 50212.9 1608.16  10
   9   3  -3 53696.2 1589.16   8
  -9   3   2 34511.4 1237.94  46
   9   3  -2 37177.4 1215.77   8
  -9   3   1 2070.14 248.279  46
   9   3  -1 2970.31 278.773   8
  -9   3   0 2344.30 272.218  46
   9   3   0 2295.13 240.828   8
  -9   3  -1 311.926 87.0087  46
   9   3   1 301.297 98.4833   8
  -9   3  -2 2116.91 272.174  46
   9   3   2 1731.51 210.267   8
  -9   3  -3 807.393 165.029  46
   9   3   3 954.503 147.858   8
  -9   3  -4 2909.07 308.493  46
   9   3   4 1683.26 200.057   8
  -9   3  -5 4608.99 379.401  46
   9   3   5 5863.46 363.030   8
  -9   3  -6 7051.85 444.680  46
   9   3   6 6621.46 371.255   8
  -9   3  -7 4330.22 306.594  46
   9   3   7 5244.25 288.688   8
   9   4 -14 3174.31 217.353   3
   9   4 -14 3795.27 250.403  34
   9   4 -13 1945.94 193.222  52
   9   4 -13 1847.61 180.557   3
   9   4 -13 1662.81 184.307  34
   9   4 -12 8062.05 443.203  52
   9   4 -12 7971.41 440.282   3
   9   4 -12 8156.59 480.425  34
   9   4 -11 8776.89 531.461  34
   9   4 -11 8871.39 471.876   5
   9   4 -10 6322.27 419.805   4
   9   4 -10 6392.48 415.993   5
   9   4  -9 1805.29 215.100   5
   9   4  -9 1829.84 216.923   4
   9   4  -8 21253.5 884.816   5
   9   4  -8 21817.6 880.045   4
   9   4  -7 88016.4 2389.72   4
   9   4  -6 5864.88 430.401  54
  -9   4   6 7269.00 459.990  10
   9   4  -6 6377.77 433.577   4
   9   4  -5 9409.34 534.008  54
  -9   4   5 9044.43 535.036  10
   9   4  -4 18623.3 759.788  44
   9   4  -4 18026.5 771.286   8
   9   4  -4 17998.8 727.829   7
   9   4  -3 26522.1 961.047  44
  -9   4   3 26434.6 1034.39  10
   9   4  -3 26648.3 977.684   8
   9   4  -3 26426.4 935.697   7
  -9   4   2 39191.5 1355.75  46
   9   4  -2 42227.7 1316.59  44
  -9   4   2 39187.6 1377.74  10
   9   4  -2 41886.1 1319.44   8
   9   4  -2 40657.4 1279.72   7
  -9   4   1 1237.36 187.895  46
   9   4  -1 1673.42 196.954   8
   9   4  -1 1087.15 157.802   7
  -9   4   0 4532.08 385.088  46
   9   4   0 4699.67 349.638   8
  -9   4  -1 22212.1 1001.06  46
   9   4   1 28328.1 978.322   8
  -9   4  -2 5928.38 451.402  46
   9   4   2 1758.21 213.782   8
  -9   4  -3 6184.04 468.089  46
   9   4   3 7931.74 439.318   8
  -9   4  -4 8375.56 539.537  46
   9   4   4 9328.89 469.074   8
  -9   4  -5 6226.56 437.080  46
   9   4   5 7146.35 380.993   8
  -9   4  -6 8123.69 444.072  46
   9   4   6 2578.44 209.354   8
  -9   4  -7 834.338 118.393  46
   9   5 -14 7842.18 358.190  48
   9   5 -13 203.988 62.2187  48
   9   5 -13 153.672 48.6421  34
   9   5 -12 8610.51 484.818  34
   9   5 -11 10663.6 527.057   5
   9   5 -11 10513.9 578.994  34
   9   5 -10 6629.22 421.932   4
   9   5 -10 5989.73 446.504  34
   9   5 -10 6288.89 416.829   5
   9   5  -9 14252.1 681.452   5
   9   5  -9 14601.0 669.429   4
   9   5  -8 6939.37 464.703   5
   9   5  -8 7785.15 445.739  44
   9   5  -8 6932.33 447.590   4
   9   5  -7 1211.84 161.886  44
   9   5  -7 1265.83 184.721   4
   9   5  -6 1922.25 230.792  44
   9   5  -6 1962.22 240.151   4
   9   5  -5 527.249 94.3299   7
  -9   5   5 514.443 113.948  10
   9   5  -5 590.724 121.433   4
   9   5  -4 9396.49 516.864  44
   9   5  -4 8609.30 472.507   7
  -9   5   3 40260.5 1375.34  46
   9   5  -3 44390.1 1374.80  44
  -9   5   3 39477.7 1399.41  10
   9   5  -3 43819.8 1325.05   7
  -9   5   2 28237.7 1074.56  46
   9   5  -2 27836.3 1020.42  44
  -9   5   2 27426.4 1081.33  10
   9   5  -2 27080.2 970.579   7
  -9   5   1 4575.44 385.172  46
   9   5  -1 5384.77 382.453  44
  -9   5   1 4615.08 387.398  10
   9   5  -1 5777.85 376.706   7
  -9   5   0 18731.8 839.406  46
   9   5   0 15062.3 676.976   7
  -9   5  -1 2666.45 296.354  46
  -9   5  -2 1349.57 208.141  46
  -9   5  -3 251.948 98.1334  46
  -9   5  -4 11075.0 610.937  46
  -9   5  -5 1169.53 169.375  46
  -9   5  -6 9033.78 468.668  46
  -9   5  -7 447.671 79.2899  10
   9   6 -13 9669.08 405.105  48
   9   6 -12 4785.81 291.429  48
   9   6 -12 5058.66 340.953  34
   9   6 -11 5734.53 335.130  48
   9   6 -11 5980.79 370.650   5
   9   6 -11 5668.61 395.493  34
   9   6 -10 2737.23 246.112   4
   9   6 -10 2475.45 267.049  34
   9   6 -10 2512.20 250.994   5
   9   6  -9 9573.33 506.467   4
   9   6  -9 9277.45 558.421  34
   9   6  -9 9705.97 539.991   5
   9   6  -8 1996.70 233.728   5
   9   6  -8 1921.76 217.561   4
   9   6  -8 2193.47 230.737  44
   9   6  -8 2029.72 246.234  34
   9   6  -7 153.680 68.9502   5
   9   6  -7 167.972 63.7871  44
   9   6  -7 308.282 78.1530   4
   9   6  -6 18749.0 788.592  44
   9   6  -6 19390.7 806.309   4
   9   6  -5 9232.61 512.257  44
  -9   6   5 8192.34 516.240  10
   9   6  -5 8598.53 504.205   4
   9   6  -5 8783.10 458.806   7
   9   6  -4 4829.10 368.875  44
   9   6  -4 4076.95 314.171   7
   9   6  -3 3593.35 309.346  44
  -9   6   3 3307.74 321.284  10
   9   6  -3 3662.25 289.559   7
   9   6  -2 1590.33 197.327   7
   9   6  -2 2451.64 265.225  44
  -9   6   1 15997.1 776.845  46
   9   6  -1 17689.4 763.860  44
  -9   6   1 16178.8 780.413  10
   9   6  -1 17361.0 716.824   7
  -9   6   0 39756.3 1362.58  46
   9   6   0 38170.2 1271.94  44
  -9   6   0 39585.2 1349.74  10
   9   6   0 35629.3 1191.13   7
  -9   6  -1 6993.58 482.118  46
  -9   6  -1 7011.81 470.321  10
   9   6   1 7033.91 409.629   7
  -9   6  -2 4158.76 363.459  46
  -9   6  -2 3837.49 340.209  10
  -9   6  -3 136.472 52.1461  46
  -9   6  -3 198.008 69.6247  10
  -9   6  -4 8109.17 489.392  46
  -9   6  -4 7952.31 463.991  10
  -9   6  -5 3025.78 252.432  10
  -9   6  -6 1936.35 176.709  10
   9   7 -11 1408.75 174.360  34
   9   7 -10 11796.5 587.311  34
   9   7 -10 12212.5 578.114   5
   9   7  -9 1841.04 218.217  34
   9   7  -9 2079.30 228.464   5
   9   7  -8 11610.9 613.786   5
   9   7  -8 12786.3 573.686   4
   9   7  -8 11745.2 609.614  34
   9   7  -7 3998.44 345.204   5
   9   7  -7 4046.35 310.543   4
   9   7  -7 4028.03 315.410  44
   9   7  -7 3615.39 317.684  34
   9   7  -6 7267.57 485.739   5
   9   7  -6 6908.99 439.173  44
   9   7  -6 6920.76 431.920   4
   9   7  -6 6622.26 430.889  34
   9   7  -5 2319.63 244.845  44
   9   7  -5 2423.76 245.109   4
   9   7  -5 2267.49 211.782   7
   9   7  -4 9778.81 541.687  44
  -9   7   4 9725.05 561.899  10
   9   7  -4 9456.14 518.068   4
   9   7  -4 9847.42 489.513   7
   9   7  -3 2843.53 272.692  44
  -9   7   3 2932.84 292.319  10
   9   7  -3 2894.33 255.516   7
   9   7  -2 183.729 66.4220   7
   9   7  -2 187.536 58.0772  44
  -9   7   2 292.527 83.4669  10
   9   7  -1 38494.2 1257.72  44
  -9   7   1 34526.4 1258.74  10
   9   7  -1 37970.9 1189.23   7
   9   7   0 4682.50 353.217  44
  -9   7   0 4343.62 359.090  10
   9   7   0 4526.83 317.209   7
   9   7   1 190.491 49.5918   7
   9   7   1 89.9234 55.5801  44
  -9   7  -1 90.4017 24.8795  10
  -9   7  -2 5289.82 378.784  10
  -9   7  -3 1234.73 164.370  10
  -9   7  -4 3967.73 288.867  10
  -9   7  -5 924.901 118.579  10
  -9   8  11 813.099 102.599  11
   9   8 -10 1386.51 165.693   5
   9   8 -10 1262.03 155.018  34
   9   8  -9 3386.96 271.039  34
   9   8  -9 3906.96 298.339   5
   9   8  -8 1249.05 180.142   5
   9   8  -8 1122.08 156.657  34
   9   8  -7 3204.11 271.135  44
   9   8  -7 2871.74 250.300  34
   9   8  -7 2907.84 279.293   5
   9   8  -6 4078.83 337.066   5
   9   8  -6 3940.51 312.665  44
   9   8  -5 1477.61 201.853   5
   9   8  -5 1227.78 144.046   7
   9   8  -5 1518.82 192.313  44
   9   8  -5 1424.44 171.691   4
   9   8  -4 9421.15 515.433  44
   9   8  -4 9124.89 476.803   4
   9   8  -4 8869.99 445.088   7
  -9   8   3 2874.86 279.947  10
   9   8  -3 2891.72 268.400  44
   9   8  -3 2625.08 240.115   4
   9   8  -3 2848.07 240.887   7
   9   8  -2 4306.60 336.738  44
   9   8  -2 3792.58 286.021   7
   9   8  -1 14137.7 647.721  44
  -9   8   1 13213.6 647.873  10
   9   8  -1 13960.6 592.483   7
   9   8   0 7134.92 431.122  44
  -9   8   0 7971.89 465.697  10
   9   8   0 7190.20 393.115   7
   9   8   1 4694.12 324.869  44
  -9   8  -1 4118.59 319.038  10
   9   8   1 4491.02 290.211   7
   9   8   2 7146.72 404.867  44
  -9   8  -2 8672.65 454.801  10
   9   8   3 4593.21 289.926  44
  -9   8  -3 4154.79 285.324  10
   9   8   4 2248.47 182.337  44
  -9   8  -4 2103.70 179.021  10
  -9   9  10 684.375 95.8804  11
   9   9  -9 547.657 96.0949   5
   9   9  -8 1685.98 184.239   5
   9   9  -7 4427.87 316.834   5
   9   9  -6 3264.17 268.361  44
   9   9  -6 3059.97 268.824   5
   9   9  -5 5766.27 370.869   5
   9   9  -5 5335.12 350.951  44
   9   9  -5 5076.67 288.146   7
   9   9  -4 3379.14 277.885   5
   9   9  -4 3378.36 278.170  44
   9   9  -4 3151.79 229.094   7
   9   9  -3 3227.26 263.924   5
   9   9  -3 3274.54 272.973  44
   9   9  -3 3255.56 237.993   7
   9   9  -2 7539.42 409.394   5
   9   9  -2 8163.65 446.725  44
   9   9  -2 7955.14 397.326   7
   9   9  -1 3497.99 275.298  44
   9   9  -1 3375.11 243.519   7
  -9   9   0 5314.40 342.534  10
   9   9   0 4851.26 320.499  44
   9   9   0 4663.12 284.523   7
  -9   9  -1 6541.52 371.228  10
   9   9   1 7292.07 382.207  44
   9   9   1 6761.85 334.864   7
  -9   9  -2 640.925 100.174  10
   9   9   2 595.647 94.5487  44
   9   9   3 602.059 86.0582  44
  -9  10   8 7800.82 355.269  11
   9  10  -7 613.027 96.0180   5
   9  10  -6 2605.34 207.352   5
   9  10  -5 4377.57 284.338  44
   9  10  -5 3989.79 261.583   5
   9  10  -4 2504.49 213.375  44
   9  10  -4 2245.16 170.032   7
   9  10  -4 2093.30 178.693   5
   9  10  -3 1869.82 182.116  44
   9  10  -3 1671.67 146.174   7
   9  10  -2 5425.34 316.176  44
   9  10  -2 4758.81 267.157   7
   9  10  -1 650.487 88.8956   7
   9  10  -1 646.664 98.3890  44
   9  10   0 1460.10 145.188  44
   9  10   0 1308.04 122.303   7
   9  10   1 1918.90 156.889  44
  10  -9  -8 4089.97 239.443  40
  10  -9  -7 1218.46 127.997  49
  10  -9  -7 1323.01 126.332  42
  10  -9  -7 1266.28 130.877  40
  10  -9  -7 1396.73 131.069  38
  10  -9  -6 832.645 93.1601  32
  10  -9  -6 929.668 123.263  49
  10  -9  -6 983.525 117.183  42
  10  -9  -6 861.661 117.812  40
  10  -9  -6 1025.78 120.464  38
  10  -9  -5 1889.59 168.200  49
  10  -9  -5 2028.03 171.010  42
  10  -9  -5 1708.77 158.926  40
  10  -9  -5 2008.34 166.807  38
  10  -9  -4 912.337 123.680  49
  10  -9  -4 973.531 122.889  40
  10  -9  -4 1004.61 122.229  38
  10  -9  -4 981.228 125.510  59
  10  -9  -3 8147.34 381.872  49
  10  -9  -3 7367.22 357.688  40
  10  -9  -3 8781.26 380.108  38
  10  -9  -3 8598.85 387.100  59
  10  -9  -2 322.704 64.7435  56
  10  -9  -2 350.398 69.0551  49
  10  -9  -2 366.231 67.4928  40
  10  -9  -2 379.707 67.9455  38
  10  -9  -2 352.524 65.7729  59
  10  -9  -1 296.465 59.4740  56
  10  -9  -1 261.666 54.9217  49
  10  -9  -1 275.626 53.0984  38
  10  -9  -1 308.312 62.9207  59
  10  -9   0 617.283 82.8421  56
  10  -9   0 587.473 81.4183  49
  10  -9   0 543.841 76.6478  45
  10  -9   0 584.260 80.5159  59
  10  -8 -10 1893.71 162.760  40
  10  -8  -9 1285.03 121.901  42
  10  -8  -9 1509.72 151.421  40
  10  -8  -8 4168.75 234.268  32
  10  -8  -8 4609.10 284.192  49
  10  -8  -8 4443.30 258.263  42
  10  -8  -8 4544.23 289.365  40
  10  -8  -7 600.430 84.8656  32
  10  -8  -7 610.166 105.184  49
  10  -8  -7 499.924 84.4085  42
  10  -8  -7 627.817 106.589  40
  10  -8  -7 654.701 97.9378  38
  10  -8  -6 11701.6 521.739  49
  10  -8  -6 11837.0 496.938  42
  10  -8  -6 11820.4 531.164  40
  10  -8  -6 11524.7 496.043  38
  10  -8  -5 4341.02 294.706  49
  10  -8  -5 4037.51 289.462  40
  10  -8  -5 4550.70 285.287  38
  10  -8  -5 4020.51 282.526  59
  10  -8  -4 4121.08 288.678  49
  10  -8  -4 3877.48 281.086  40
  10  -8  -4 4099.37 273.461  38
  10  -8  -4 4293.32 292.008  59
  10  -8  -3 8187.34 412.569  56
  10  -8  -3 7938.76 417.797  49
  10  -8  -3 7656.02 408.576  40
  10  -8  -3 8056.42 400.457  38
  10  -8  -3 8216.50 417.747  59
  10  -8  -2 10611.3 472.726  56
  10  -8  -2 10230.5 462.068  45
  10  -8  -2 10002.3 468.971  40
  10  -8  -2 10352.3 462.221  38
  10  -8  -2 10753.2 481.599  59
  10  -8  -1 7498.61 373.369  56
  10  -8  -1 7199.25 367.985  45
  10  -8  -1 6372.07 347.386  40
  10  -8  -1 6813.31 359.799  35
  10  -8  -1 7386.23 378.725  59
  10  -8   0 6457.55 334.841  56
  10  -8   0 6441.92 337.338  45
  10  -8   0 6055.63 321.058  40
  10  -8   0 6231.98 329.178  35
  10  -8   0 6870.00 352.174  59
  10  -8   1 202.635 49.7937  56
  10  -8   1 376.628 75.1710  45
  10  -8   1 213.862 48.4336  40
  10  -8   1 244.332 54.6990  35
  10  -8   1 256.777 59.5522  59
  10  -8   2 7814.29 340.968  45
  10  -8   2 7859.98 345.559  59
  10  -7 -10 584.495 91.2087  47
  10  -7 -10 625.135 106.021  40
  10  -7  -9 971.287 113.432  42
  10  -7  -9 958.396 133.050  40
  10  -7  -8 3045.37 244.654  49
  10  -7  -8 3184.66 226.821  42
  10  -7  -8 3261.97 259.623  40
  10  -7  -8 3005.99 230.410  38
  10  -7  -7 1906.96 196.571  49
  10  -7  -7 2184.68 193.601  42
  10  -7  -7 1861.35 201.022  40
  10  -7  -7 1862.94 182.624  38
  10  -7  -6 6959.11 407.579  49
  10  -7  -6 6898.71 412.189  40
  10  -7  -6 7011.50 385.543  38
  10  -7  -6 6858.61 397.258  59
  10  -7  -5 3655.38 286.636  49
  10  -7  -5 3519.45 287.886  40
  10  -7  -5 3334.19 260.564  38
  10  -7  -5 3689.26 284.753  59
  10  -7  -4 9561.13 476.494  56
  10  -7  -4 9188.83 493.480  40
  10  -7  -4 9098.77 456.525  38
  10  -7  -4 9242.89 479.098  59
  10  -7  -3 9291.07 465.054  56
  10  -7  -3 8549.64 447.513  45
  10  -7  -3 8240.10 458.992  40
  10  -7  -3 8623.31 437.101  38
  10  -7  -3 8234.36 452.506  35
  10  -7  -3 8799.29 462.667  59
  10  -7  -2 4338.77 302.573  56
  10  -7  -2 4558.70 314.354  45
  10  -7  -2 4423.99 315.000  35
  10  -7  -2 4609.97 317.552  59
  10  -7  -1 7902.88 417.766  56
  10  -7  -1 7981.42 424.839  45
  10  -7  -1 8039.45 430.836  35
  10  -7  -1 7989.58 427.093  59
  10  -7   0 1684.70 173.845  56
  10  -7   0 1801.82 181.226  45
  10  -7   0 1591.95 176.855  35
  10  -7   0 1891.44 190.837  59
  10  -7   1 1710.41 168.619  57
  10  -7   1 1760.68 166.449  56
  10  -7   1 1821.53 175.394  45
  10  -7   1 1631.44 169.734  35
  10  -7   2 711.228 104.111  57
  10  -7   2 592.863 92.3638  56
  10  -7   2 772.360 109.251  45
  10  -7   2 831.085 116.489  35
  10  -7   3 2953.94 198.029  57
  10  -7   3 3203.18 208.890  45
  10  -7   3 2974.49 200.929  35
  10  -6 -12 3824.66 238.794  52
  10  -6 -11 1546.97 157.767  40
  10  -6 -10 5926.53 353.319  40
  10  -6  -9 10833.1 503.162  49
  10  -6  -9 11019.5 528.763  40
  10  -6  -8 616.669 119.449  49
  10  -6  -8 741.434 130.894  40
  10  -6  -8 721.175 116.990  38
  10  -6  -7 1048.57 148.294  49
  10  -6  -7 743.730 111.992  42
  10  -6  -7 830.789 139.093  40
  10  -6  -7 859.268 126.032  38
  10  -6  -6 3144.85 276.830  49
  10  -6  -6 3771.84 311.117  40
  10  -6  -6 3552.28 271.281  38
  10  -6  -6 3384.64 279.826  59
  10  -6  -5 11142.4 554.513  49
  10  -6  -5 10879.8 565.720  40
  10  -6  -5 10928.0 514.839  38
  10  -6  -5 11173.2 548.869  59
  10  -6  -4 17180.2 703.870  56
  10  -6  -4 16799.0 700.635  45
  10  -6  -4 16805.4 675.477  38
  10  -6  -4 16586.5 718.278  35
  10  -6  -4 16895.6 707.172  59
  10  -6  -3 1082.56 150.883  56
  10  -6  -3 940.411 141.293  45
  10  -6  -3 863.702 140.217  35
  10  -6  -3 939.915 148.048  59
  10  -6  -2 4670.94 325.560  56
  10  -6  -2 4638.49 330.747  45
  10  -6  -2 4305.89 325.197  35
  10  -6  -2 4399.83 322.109  59
  10  -6  -1 4663.96 330.644  57
  10  -6  -1 4952.28 330.574  56
  10  -6  -1 5143.99 345.414  45
  10  -6  -1 4694.96 337.000  35
  10  -6  -1 4953.24 343.052  59
  10  -6   0 1261.59 162.195  57
  10  -6   0 1120.16 146.578  56
  10  -6   0 1307.72 166.281  45
  10  -6   0 1228.01 165.744  35
  10  -6   1 1878.22 191.978  57
  10  -6   1 1790.96 177.776  56
  10  -6   1 1823.02 189.910  45
  10  -6   1 2014.55 201.220  35
  10  -6   2 1840.23 187.035  57
  10  -6   2 1850.43 167.214  56
 -10  -6  -2 2287.79 211.688  46
  10  -6   2 1746.39 176.860  45
  10  -6   2 1680.46 177.244  35
  10  -6   3 10592.2 463.248  57
  10  -6   3 10578.9 454.148  45
  10  -6   3 11182.4 473.251  35
  10  -6   4 1614.90 149.203  57
  10  -6   4 1357.49 133.979  45
  10  -6   4 1581.41 149.370  35
  10  -5 -13 818.732 103.212  52
  10  -5 -11 4152.87 277.876  40
  10  -5 -10 1646.21 185.974  40
  10  -5  -9 678.972 118.484  49
  10  -5  -9 619.274 113.899  40
  10  -5  -8 1691.27 187.773  49
  10  -5  -8 1692.62 203.546  40
  10  -5  -8 1801.75 185.563  38
  10  -5  -7 11127.1 546.587  49
  10  -5  -7 11389.1 580.022  40
  10  -5  -7 11289.2 521.891  38
  10  -5  -7 11566.9 557.085  59
  10  -5  -6 13413.9 624.842  49
  10  -5  -6 13442.9 649.905  40
  10  -5  -6 13971.6 594.983  38
  10  -5  -6 13863.2 629.166  59
  10  -5  -5 5123.51 344.011  54
  10  -5  -5 4638.85 312.518  38
  10  -5  -5 4118.82 318.339  59
  10  -5  -4 4866.05 342.190  56
  10  -5  -4 4872.13 346.645  45
  10  -5  -4 5042.58 328.267  38
  10  -5  -4 4575.06 347.407  35
  10  -5  -4 4962.93 350.635  59
  10  -5  -3 7593.33 433.905  56
  10  -5  -3 6976.05 424.974  45
  10  -5  -3 6868.37 436.612  35
  10  -5  -3 7091.85 426.647  59
  10  -5  -2 814.158 134.120  57
  10  -5  -2 848.097 134.378  56
  10  -5  -2 993.152 154.829  45
  10  -5  -2 817.181 150.602  35
  10  -5  -2 980.341 148.157  59
  10  -5  -1 6699.58 417.960  57
  10  -5  -1 6931.80 401.874  56
  10  -5  -1 6591.49 411.674  45
  10  -5  -1 6357.58 417.034  35
  10  -5   0 4400.84 331.835  57
  10  -5   0 4600.63 311.869  56
  10  -5   0 4414.73 323.121  45
  10  -5   0 4467.56 336.269  35
  10  -5   1 5353.26 352.094  57
  10  -5   1 4776.04 306.235  56
 -10  -5  -1 4355.78 328.517  46
  10  -5   1 5000.04 337.202  45
  10  -5   1 5275.94 356.631  35
  10  -5   2 1387.54 172.000  57
  10  -5   2 1209.99 155.919  45
  10  -5   2 1505.12 182.820  35
  10  -5   3 7471.11 397.800  57
  10  -5   3 7149.06 374.456  45
  10  -5   3 7653.25 407.803  35
  10  -5   4 1065.20 128.708  57
 -10  -5  -4 1279.12 155.679  46
  10  -5   4 900.044 112.644  45
  10  -5   4 995.190 126.721  35
  10  -5   5 1681.96 145.642  57
 -10  -5  -5 1201.23 134.626  46
  10  -5   5 1619.15 131.461  45
  10  -5   5 1634.38 148.587  35
  10  -4 -13 3141.61 230.128  52
  10  -4 -12 1330.96 151.227  16
  10  -4 -12 1106.56 127.600   3
  10  -4 -11 14016.4 577.415  40
  10  -4 -11 14074.1 599.913  16
  10  -4 -10 3481.73 272.020  40
  10  -4 -10 3258.69 270.116  16
  10  -4  -9 1568.14 175.896  49
  10  -4  -9 1668.91 196.740  40
  10  -4  -9 1485.22 182.122  16
  10  -4  -8 1722.78 194.765  54
  10  -4  -8 1552.21 181.608  49
  10  -4  -8 1564.96 189.889  40
  10  -4  -8 1568.99 171.391  38
  10  -4  -7 254.583 70.5569  54
  10  -4  -7 162.579 34.5507  49
  10  -4  -7 242.764 82.3010  40
  10  -4  -7 166.768 60.0292  59
  10  -4  -6 11541.2 576.963  54
  10  -4  -6 11641.4 569.200  49
  10  -4  -6 12270.9 611.608  40
  10  -4  -6 11167.4 561.557  59
  10  -4  -5 5923.18 392.957  54
  10  -4  -5 6103.04 402.705  35
  10  -4  -5 5667.26 375.481  59
  10  -4  -4 12807.4 594.181  56
  10  -4  -4 12534.8 600.874  45
  10  -4  -4 12767.3 621.020  35
  10  -4  -4 12452.2 594.122  59
  10  -4  -3 1639.64 190.405  56
  10  -4  -3 1673.91 202.382  45
  10  -4  -3 2031.91 214.076   8
  10  -4  -3 1837.24 215.493  35
  10  -4  -3 1585.08 188.835  59
  10  -4  -2 15031.2 680.216  57
  10  -4  -2 14697.0 641.835  56
  10  -4  -2 15085.1 668.787  45
  10  -4  -2 14990.7 662.483   8
  10  -4  -2 15356.1 690.578  35
  10  -4  -1 2794.92 265.486  57
  10  -4  -1 2596.06 235.449  56
  10  -4  -1 2545.93 246.100  45
  10  -4  -1 2893.72 259.629   8
  10  -4  -1 2611.30 256.280  35
  10  -4   0 2616.21 257.480  57
  10  -4   0 2417.20 220.393  56
  10  -4   0 2291.70 232.606  45
  10  -4   0 2582.64 243.188   8
  10  -4   0 2720.75 264.799  35
  10  -4   1 4993.77 353.639  57
 -10  -4  -1 4476.95 346.784  46
  10  -4   1 4937.96 337.114  45
  10  -4   1 5549.24 357.907   8
  10  -4   1 5032.97 361.282  35
  10  -4   2 8317.37 456.276  57
 -10  -4  -2 7118.00 446.819  46
  10  -4   2 7850.00 425.578  45
  10  -4   2 8509.39 442.088   8
  10  -4   3 3806.79 283.305  57
 -10  -4  -3 2917.45 268.444  46
  10  -4   3 3609.45 260.700  45
  10  -4   3 3893.31 271.255   8
  10  -4   4 995.461 133.833  57
 -10  -4  -4 1018.11 140.168  46
  10  -4   4 848.915 110.968  45
  10  -4   4 1100.24 129.893   8
 -10  -4  -5 3181.65 250.916  46
  10  -4   5 3544.01 211.896  45
  10  -4   6 4020.64 221.837  57
  10  -4   6 4002.48 230.541  35
  10  -3 -14 3156.28 203.337   3
  10  -3 -14 3558.18 232.069  52
  10  -3 -13 3326.26 249.429  52
  10  -3 -13 2959.18 222.190   3
  10  -3 -12 5040.80 344.612  52
  10  -3 -12 5226.94 327.272   3
  10  -3 -12 5091.33 333.296  16
  10  -3 -11 5096.71 348.138  16
  10  -3 -10 11688.6 537.894  40
  10  -3 -10 11284.4 570.409  16
  10  -3  -9 2958.96 266.833  54
  10  -3  -9 2626.09 245.681  40
  10  -3  -9 2584.38 257.122  16
  10  -3  -8 4440.98 337.906  54
  10  -3  -8 4501.53 335.566  40
  10  -3  -7 15799.7 701.311  54
  10  -3  -7 15324.1 654.376  49
  10  -3  -7 15616.7 694.352  40
  10  -3  -6 12674.0 622.137  54
  10  -3  -6 12682.5 585.363  49
  10  -3  -6 12650.3 584.951  59
  10  -3  -5 22263.3 883.509  54
  10  -3  -5 21588.0 854.234  35
  10  -3  -5 22606.3 837.622  59
  10  -3  -4 8763.99 485.982  45
  10  -3  -4 9108.13 507.810   8
  10  -3  -4 8844.46 496.731  35
  10  -3  -4 9078.71 478.504  59
  10  -3  -3 37588.1 1184.68  56
  10  -3  -3 36515.9 1207.52  45
  10  -3  -3 38323.3 1247.48   8
  10  -3  -3 36139.1 1223.31  35
  10  -3  -3 37929.7 1192.41  59
  10  -3  -2 2371.44 247.361  57
  10  -3  -2 2599.01 231.781  56
  10  -3  -2 2361.87 238.759  45
  10  -3  -2 2503.35 249.638   8
  10  -3  -2 2371.54 244.159  35
  10  -3  -1 619.061 118.420  57
  10  -3  -1 588.427 103.518  45
  10  -3  -1 602.606 119.638  35
  10  -3  -1 613.087 114.204   8
  10  -3   0 11221.4 570.171  57
 -10  -3   0 12060.2 611.596  46
  10  -3   0 10845.0 542.359  45
  10  -3   0 11884.6 590.418   8
  10  -3   0 11275.2 576.744  35
  10  -3   1 8878.19 490.956  57
 -10  -3  -1 8143.79 501.434  46
  10  -3   1 9228.25 473.472  45
  10  -3   1 9314.87 503.723   8
  10  -3   2 2618.74 250.609  57
  10  -3   2 2184.28 216.509  45
  10  -3   3 3986.96 296.967  57
  10  -3   3 4113.67 306.512  51
 -10  -3  -3 3248.39 294.708  46
  10  -3   3 4109.22 275.328  45
  10  -3   3 4325.85 307.923   8
  10  -3   4 16371.4 646.432  57
  10  -3   4 16355.7 653.513  51
 -10  -3  -4 15725.1 689.030  46
  10  -3   4 16360.6 645.723   8
  10  -3   5 2.56424 37.0076  57
 -10  -3  -5-0.67177 13.5448  46
  10  -3   5 56.0700 33.9047   8
  10  -3   6 7530.84 330.324  57
  10  -3   6 7325.65 327.613   8
  10  -2 -14 863.141 114.798  52
  10  -2 -14 884.325 109.932   3
  10  -2 -13 5400.96 336.893  52
  10  -2 -13 5293.42 322.870   3
  10  -2 -13 5191.86 323.625  16
  10  -2 -12 2936.90 259.440  52
  10  -2 -12 2638.81 244.235  16
  10  -2 -11 1340.40 178.483  16
  10  -2 -10 9727.32 535.091  16
  10  -2  -9 11599.7 585.958  54
  10  -2  -8 21975.7 883.878  54
  10  -2  -8 22417.8 846.057  40
  10  -2  -7 1703.57 209.126  54
  10  -2  -7 1825.27 203.128  40
  10  -2  -6 1692.12 213.548  54
  10  -2  -5 1362.63 182.866   8
  10  -2  -5 1222.56 169.564  35
  10  -2  -4 24647.6 912.954  45
  10  -2  -4 25120.0 959.010   8
  10  -2  -4 26055.6 938.113  35
  10  -2  -3 25639.7 920.288  45
  10  -2  -3 25314.6 966.464   8
  10  -2  -3 25170.5 930.848  35
  10  -2  -2 14593.4 672.457  57
  10  -2  -2 14991.4 657.063  45
  10  -2  -2 16157.1 720.970   8
  10  -2  -2 15350.8 681.305  35
  10  -2  -1 14253.0 662.107  57
  10  -2  -1 15033.1 648.519  45
  10  -2  -1 15614.3 707.415   8
  10  -2  -1 15050.1 673.949  35
  10  -2   0 4342.73 332.596  57
 -10  -2   0 4638.71 370.814  46
  10  -2   0 4347.07 311.466  45
  10  -2   0 4915.54 368.676   8
  10  -2   0 4466.61 337.032  35
  10  -2   1 8007.27 458.053  57
 -10  -2  -1 6733.74 462.243  46
  10  -2   1 7686.19 416.358  45
  10  -2   1 8176.12 478.966   8
  10  -2   2 5558.60 367.371  57
 -10  -2  -2 4934.91 384.191  46
  10  -2   2 5829.69 390.465   8
  10  -2   3 8131.80 441.319  57
  10  -2   3 8351.49 455.959  51
  10  -2   3 9112.05 483.539   8
  10  -2   4 1805.65 180.678  57
  10  -2   4 1879.71 193.836  51
 -10  -2  -4 1516.37 191.741  46
  10  -2   4 1861.52 195.418   8
  10  -2   5 2209.58 187.755  57
 -10  -2  -5 1646.56 186.096  46
  10  -2   5 2106.62 195.973   8
  10  -2   6 391.144 66.1295  57
 -10  -2  -6 331.283 72.5257  46
  10  -2   6 303.309 59.9757   8
  10  -1 -14 2507.93 208.399  52
  10  -1 -14 2595.95 205.090   3
  10  -1 -13 1368.17 163.725  52
  10  -1 -13 1360.46 162.033  16
  10  -1 -13 1346.46 161.029   3
  10  -1 -12 12955.0 610.416  52
  10  -1 -12 13325.9 606.475  16
  10  -1 -11 512.819 103.387  16
  10  -1 -10 13994.7 669.888  16
  10  -1  -9 3830.96 322.918  54
  10  -1  -9 3820.12 314.909   4
  10  -1  -8 15871.6 723.592  54
  10  -1  -8 15257.5 684.979   4
  10  -1  -7 9014.08 522.129  54
  10  -1  -7 9353.48 506.439   4
  10  -1  -6 12390.3 624.058  54
  10  -1  -6 12542.1 600.245   4
  10  -1  -5 20690.7 847.352  54
  10  -1  -5 19155.9 776.794   4
  10  -1  -5 19688.3 820.269   8
  10  -1  -5 19139.0 761.255  35
  10  -1  -4 6159.08 414.323   8
  10  -1  -4 5611.96 368.625  35
  10  -1  -3 31148.6 1032.17  45
  10  -1  -3 30635.5 1104.25   8
  10  -1  -3 30796.2 1043.29  35
  10  -1  -2 10431.5 533.777  57
  10  -1  -2 10322.7 508.698  45
  10  -1  -2 11154.5 588.352   8
  10  -1  -2 10168.8 525.240  35
  10  -1  -1 10461.8 531.366  57
  10  -1  -1 10655.3 571.771   8
  10  -1  -1 10210.7 523.929  35
  10  -1   0 892.792 137.856  57
 -10  -1   0 1059.93 167.341  46
  10  -1   0 999.120 163.848   8
  10  -1   1 4919.76 343.051  57
  10  -1   1 5505.99 387.020   8
  10  -1   2 3097.61 269.171  57
  10  -1   2 3641.16 315.329   8
  10  -1   3 3137.54 254.922  57
 -10  -1  -3 2642.64 274.719  46
  10  -1   3 3595.68 296.869   8
  10  -1   4 4519.60 299.947  57
  10  -1   4 4898.59 338.840   8
  10  -1   5 1143.68 128.791  57
 -10  -1  -5 1085.31 155.323  46
  10  -1   5 1128.94 148.417   8
 -10  -1  -6 4821.60 314.386  46
  10  -1   6 3166.35 233.883   8
  10  -1   7 1989.74 152.869   8
  10   0 -15 828.438 97.3743   3
  10   0 -14 1260.67 145.071  52
  10   0 -14 1322.94 146.025   3
  10   0 -13 327.453 85.9007  52
  10   0 -13 329.904 74.8591   3
  10   0 -13 290.109 71.6445  16
  10   0 -12 335.712 87.8769  52
  10   0 -12 220.619 62.7505  16
  10   0 -11 10923.4 566.933  52
  10   0 -11 10050.6 540.419  16
  10   0 -10 28244.4 1011.16   4
  10   0 -10 26967.0 1017.18  16
  10   0  -9 20244.6 852.109  54
  10   0  -9 20547.7 832.450   4
  10   0  -8 30781.8 1127.33  54
  10   0  -8 31108.5 1097.63   4
  10   0  -7 1363.04 191.805  54
  10   0  -7 1717.37 206.943   4
  10   0  -6 8998.58 527.085  54
  10   0  -6 9056.86 505.618   4
  10   0  -5 18862.4 810.412  54
  10   0  -5 18600.9 777.124   4
  10   0  -5 18310.2 788.835   8
  10   0  -4 565.975 132.541   8
  10   0  -4 790.967 144.235   4
  10   0  -3 4121.45 338.626   8
  10   0  -2 13988.9 675.866   8
  10   0  -1 11686.7 546.232  57
  10   0  -1 12114.5 612.342   8
  10   0   0 22571.2 843.387  57
 -10   0   0 24731.6 978.857  46
  10   0   0 23251.6 927.867   8
  10   0   1 606.062 110.931  57
 -10   0  -1 754.271 155.162  46
  10   0   1 835.021 140.947   8
  10   0   2 13979.5 586.515  57
  10   0   2 13935.6 656.926   8
 -10   0  -3 1426.43 201.652  46
  10   0   3 1819.41 208.388   8
 -10   0  -4 530.194 118.076  46
  10   0   4 533.410 106.654   8
 -10   0  -5 3862.40 309.416  46
  10   0   5 5196.80 327.792   8
 -10   0  -6 4624.80 314.924  46
  10   0   6 5576.81 312.819   8
 -10   0  -7 54.7558 15.0082  46
  10   0   7 70.9492 32.3513   8
  10   1 -14 2692.05 211.415  52
  10   1 -14 2287.72 195.670   3
  10   1 -13 1053.14 140.697  52
  10   1 -13 967.729 136.594   3
  10   1 -13 882.293 127.417  16
  10   1 -13 1033.76 127.563  34
  10   1 -12 13409.4 611.454  52
  10   1 -12 13215.2 600.296  16
  10   1 -12 13153.2 589.099  34
  10   1 -11 594.308 118.562  52
  10   1 -11 602.260 116.782  16
  10   1 -10 15724.3 703.630  52
  10   1 -10 15484.1 696.295   4
  10   1 -10 15106.9 697.203  16
  10   1  -9 2934.50 279.427   4
  10   1  -8 15037.6 721.519  54
  10   1  -8 15309.9 704.668   4
  10   1  -7 9442.13 550.571  54
  10   1  -7 10035.1 546.765   4
  10   1  -6 11897.1 625.686  54
  10   1  -6 11579.0 596.793   4
  10   1  -5 20456.2 854.219  54
  10   1  -5 20174.2 827.960   4
  10   1  -5 19764.1 828.459   8
  10   1  -4 6837.45 449.869  54
  10   1  -4 7080.96 449.888   8
  10   1  -4 7297.84 449.514   4
  10   1  -3 29849.0 1079.42   8
  10   1  -2 10923.0 585.820   8
 -10   1   1 8486.78 525.164  46
  10   1  -1 10508.9 565.607   8
 -10   1   0 1212.45 192.318  46
  10   1   0 1234.27 179.965   8
 -10   1  -1 4180.41 361.155  46
  10   1   1 4695.93 357.786   8
 -10   1  -2 6774.87 461.415  46
  10   1   2 2816.84 278.888   8
 -10   1  -3 2789.63 289.143  46
  10   1   3 3541.51 295.983   8
 -10   1  -4 7291.09 456.042  46
  10   1   4 4369.99 324.895   8
 -10   1  -5 1121.60 165.551  46
  10   1   5 1471.97 166.844   8
 -10   1  -6 5603.14 338.175  46
  10   1   6 3267.98 237.926   8
  10   1   7 2526.47 173.243   8
  10   2 -14 629.474 95.4799  52
  10   2 -14 551.680 88.1713   3
  10   2 -13 5948.87 345.891  52
  10   2 -13 5704.90 343.646   3
  10   2 -13 5907.27 338.675  16
  10   2 -13 5713.51 334.336  34
  10   2 -12 3191.62 263.724  52
  10   2 -12 3056.76 258.334  16
  10   2 -12 3181.81 268.656  34
  10   2 -11 1547.06 189.338  52
  10   2 -11 1433.02 183.191  16
  10   2 -10 8424.01 484.065   4
  10   2 -10 7837.74 470.305  16
  10   2  -9 11873.6 599.408   4
  10   2  -8 24008.7 961.615  54
  10   2  -8 23850.3 937.431   4
  10   2  -7 1758.27 218.843  54
  10   2  -7 2072.46 228.680   4
  10   2  -6 1532.83 211.367  54
  10   2  -6 1678.03 213.449   4
  10   2  -5 2181.16 243.118  54
  10   2  -5 2203.53 241.821   4
  10   2  -5 2060.87 229.890   8
  10   2  -4 27841.4 1026.01  54
  10   2  -4 26083.7 993.840   8
  10   2  -3 27658.2 1020.49   8
  10   2  -2 14195.4 675.681   8
 -10   2   1 14381.5 716.435  46
  10   2  -1 16197.2 721.055   8
 -10   2   0 5473.30 418.667  46
  10   2   0 5382.72 383.507   8
 -10   2  -1 7453.13 504.307  46
  10   2   1 8947.67 498.543   8
 -10   2  -2 4633.02 384.986  46
  10   2   2 5527.95 379.881   8
 -10   2  -3 7277.14 483.669  46
  10   2   3 8863.85 473.626   8
 -10   2  -4 1693.00 207.222  46
  10   2   4 1479.91 172.834   8
 -10   2  -5 1472.12 183.150  46
  10   2   5 2117.53 192.161   8
 -10   2  -6 473.371 92.0851  46
  10   2   6 325.798 65.8200   8
  10   3 -14 3446.32 216.530   3
  10   3 -14 3200.66 205.392  34
  10   3 -13 3228.76 229.266  52
  10   3 -13 3128.05 232.246   3
  10   3 -13 3066.96 236.125  34
  10   3 -12 5273.26 342.123   3
  10   3 -12 5348.60 328.823  16
  10   3 -12 5329.68 357.542  34
  10   3 -11 4357.94 311.140  16
  10   3 -11 4407.55 340.114  34
  10   3 -10 11098.3 565.008   4
  10   3 -10 10913.9 549.034  16
  10   3  -9 2131.79 220.953   5
  10   3  -9 2121.66 232.561   4
  10   3  -8 4308.34 343.579   4
  10   3  -7 13216.2 662.982  54
  10   3  -7 13443.2 655.186   4
  10   3  -6 11667.9 611.117  54
  10   3  -6 11444.6 595.832   4
  10   3  -5 21501.3 880.144  54
  10   3  -5 21860.0 878.161   4
  10   3  -4 9127.97 522.142  54
 -10   3   4 9393.78 537.368  10
  10   3  -4 9280.97 519.533   8
  10   3  -3 36048.4 1196.30  54
 -10   3   3 32710.6 1202.42  10
  10   3  -3 36067.3 1195.42   8
  10   3  -2 2350.98 239.757  54
 -10   3   2 2226.17 249.372  46
 -10   3   2 2654.96 276.835  10
  10   3  -2 2131.28 233.406   8
 -10   3   1 573.860 123.884  46
  10   3  -1 790.359 133.424   8
 -10   3   0 12893.4 663.703  46
  10   3   0 10999.9 571.980   8
 -10   3  -1 6470.19 461.848  46
  10   3   1 8188.76 461.319   8
 -10   3  -2 6357.31 441.034  46
  10   3   2 2614.33 253.407   8
 -10   3  -3 3705.36 332.478  46
  10   3   3 4388.95 309.511   8
 -10   3  -4 16786.8 738.198  46
  10   3   4 16831.9 651.101   8
 -10   3  -5 61.1790 37.0446  46
  10   3   5 89.4478 31.5200   8
 -10   3  -6 5896.95 340.104  46
  10   3   6 6878.45 309.208   8
  10   4 -13 3296.37 219.649   3
  10   4 -13 3839.15 259.122  34
  10   4 -12 1542.45 161.667   3
  10   4 -12 1525.26 178.986  34
  10   4 -11 15171.1 602.778   5
  10   4 -11 14332.7 666.302  34
  10   4 -10 2405.98 234.737   4
  10   4 -10 2417.38 229.470   5
  10   4  -9 1590.34 192.475   5
  10   4  -9 1594.00 185.615  16
  10   4  -9 1578.29 191.821   4
  10   4  -8 1620.80 204.767   5
  10   4  -8 1758.29 210.172   4
  10   4  -7 28.8913 20.5214   4
  10   4  -6 9941.39 549.629  54
  10   4  -6 10162.2 561.798   4
  10   4  -5 5694.27 396.283  54
 -10   4   5 5914.71 412.938  10
  10   4  -5 5629.78 401.625   4
 -10   4   4 13010.8 658.242  10
 -10   4   3 1098.08 169.783  10
  10   4  -3 1905.72 212.275   8
 -10   4   2 15490.7 733.980  46
 -10   4   2 14718.4 732.657  10
 -10   4   1 2361.17 262.650  46
 -10   4   1 2538.42 272.074  10
  10   4  -1 2685.69 249.325   8
 -10   4   0 2499.65 272.266  46
  10   4   0 2532.87 236.636  44
  10   4   0 2467.80 238.244   8
 -10   4  -1 3638.25 332.548  46
  10   4   1 4696.07 323.164   8
 -10   4  -2 8477.35 515.756  46
  10   4   2 8250.30 436.610   8
 -10   4  -3 3221.58 301.900  46
  10   4   3 3570.61 258.198   8
 -10   4  -4 980.421 157.031  46
  10   4   4 954.454 120.163   8
 -10   4  -5 3497.73 267.492  46
  10   4   5 3753.39 222.094   8
 -10   4  -6 2854.11 207.773  46
 -10   4  -6 2877.30 205.882  10
  10   5 -13 1266.89 135.385  34
  10   5 -12 2958.20 209.278  48
  10   5 -12 3519.60 263.328  34
  10   5 -11 4198.46 281.878   5
  10   5 -11 4199.03 317.420  34
  10   5 -10 1717.71 190.159   4
  10   5 -10 1675.16 207.496  34
  10   5 -10 1833.88 197.082   5
  10   5  -9 815.501 132.574   5
  10   5  -9 880.759 136.070   4
  10   5  -8 1372.10 186.616   5
  10   5  -8 1303.34 175.587   4
  10   5  -7 12048.1 600.197   4
  10   5  -6 13446.3 643.006   4
  10   5  -5 4694.88 331.578  44
 -10   5   5 4375.57 354.433  10
  10   5  -5 4699.75 350.763   4
  10   5  -4 5855.37 378.283  44
 -10   5   4 6177.98 432.445  10
  10   5  -3 7404.83 431.995  44
 -10   5   3 6824.05 466.462  10
 -10   5   2 1401.04 193.435  46
  10   5  -2 1039.50 151.602  44
 -10   5   2 1731.49 222.184  10
 -10   5   1 5007.46 384.937  46
  10   5  -1 5742.59 371.102  44
 -10   5   1 5200.06 396.476  10
 -10   5   0 4400.56 356.530  46
  10   5   0 3674.88 293.489  44
 -10   5   0 4304.00 359.384  10
 -10   5  -1 4781.49 375.518  46
  10   5   1 5450.97 348.662  44
 -10   5  -1 4937.15 373.627  10
 -10   5  -2 4161.86 345.890  46
 -10   5  -2 4132.48 333.866  10
 -10   5  -3 6993.09 432.165  46
 -10   5  -3 6927.37 418.545  10
 -10   5  -4 1146.82 157.036  46
 -10   5  -4 1100.27 145.467  10
 -10   5  -5 1499.68 156.636  46
 -10   5  -5 1398.62 147.911  10
  10   6 -12 4358.98 277.111  34
  10   6 -11 1795.44 174.041   5
  10   6 -11 1713.05 183.713  34
  10   6 -10 6043.81 351.182   4
  10   6 -10 6323.66 394.064  34
  10   6 -10 6094.50 364.537   5
  10   6  -9 11301.2 530.680   4
  10   6  -9 11591.5 581.571  34
  10   6  -9 11890.0 563.700   5
  10   6  -8 824.578 146.547   5
  10   6  -8 796.850 140.598   4
  10   6  -8 541.688 122.204  34
  10   6  -7 571.269 120.716   5
  10   6  -7 520.008 95.8433  44
  10   6  -7 516.262 105.502   4
  10   6  -6 4356.47 316.526  44
  10   6  -6 4432.55 334.769   4
  10   6  -5 10491.6 523.449  44
  10   6  -5 10786.6 550.966   4
  10   6  -4 17352.6 719.152  44
 -10   6   4 17334.9 771.635  10
  10   6  -4 16979.7 733.469   4
  10   6  -3 1060.56 155.537  44
 -10   6   3 1092.94 170.204  10
  10   6  -2 4338.09 318.735  44
 -10   6   2 4076.31 344.423  10
  10   6  -1 5725.08 371.736  44
 -10   6   1 5118.28 381.878  10
  10   6   0 1016.10 143.280  44
 -10   6   0 1525.68 199.224  10
  10   6   1 1334.01 159.772  44
 -10   6  -1 1384.20 183.794  10
  10   6   2 1683.04 174.437  44
 -10   6  -2 2332.30 231.375  10
  10   6   3 10640.3 461.348  44
 -10   6  -3 9907.11 488.718  10
  10   6   4 1569.93 145.609  44
 -10   6  -4 2447.23 201.293  10
 -10   7  11 1352.39 130.716  11
  10   7 -11 1853.04 168.327  34
  10   7 -10 653.862 112.852   5
  10   7 -10 559.600 105.981  34
  10   7  -9 1092.72 149.867   5
  10   7  -9 1009.55 126.199   4
  10   7  -9 998.649 138.569  34
  10   7  -8 3562.10 261.804   4
  10   7  -8 3310.56 269.823  34
  10   7  -8 3621.86 291.275   5
  10   7  -7 1714.00 200.780   5
  10   7  -7 2014.47 196.260   4
  10   7  -7 1961.95 195.518  44
  10   7  -7 1903.65 198.393  34
  10   7  -6 7725.42 465.164   5
  10   7  -6 7503.38 418.833  44
  10   7  -6 7882.80 426.538   4
  10   7  -5 3871.01 290.713  44
  10   7  -5 3833.00 291.788   4
  10   7  -4 9221.48 481.906  44
  10   7  -4 9224.83 482.142   4
  10   7  -3 9818.54 496.493  44
 -10   7   3 8997.76 512.418  10
  10   7  -3 9699.11 491.933   4
  10   7  -2 4209.36 313.372  44
 -10   7   2 5210.69 369.004  10
  10   7  -1 8109.61 434.296  44
 -10   7   1 6715.10 431.425  10
  10   7   0 1439.07 166.991  44
 -10   7   0 2001.02 216.384  10
  10   7   1 1606.01 169.462  44
 -10   7  -1 1465.15 176.634  10
  10   7   2 885.214 123.893  44
 -10   7  -2 1752.66 180.178  10
  10   7   3 3011.90 206.589  44
 -10   7  -3 2872.16 219.920  10
 -10   8  10 2260.96 174.142  11
  10   8  -9 1326.82 147.856   5
  10   8  -9 1074.43 121.123  34
  10   8  -8 4822.49 314.830   5
  10   8  -7 326.010 80.3613   5
  10   8  -6 12093.6 564.613   5
  10   8  -6 12149.0 503.555   4
  10   8  -6 12082.1 527.184  44
  10   8  -5 4385.80 316.818   5
  10   8  -5 4337.27 295.969  44
  10   8  -5 4475.86 286.647   4
  10   8  -4 4419.14 316.505   5
  10   8  -4 4379.80 297.213  44
  10   8  -4 4149.87 281.857   4
  10   8  -3 8380.26 433.894  44
  10   8  -3 8337.02 416.500   4
 -10   8   2 11564.3 544.862  10
  10   8  -2 10863.6 502.724  44
  10   8  -2 11041.3 490.426   4
  10   8  -1 7365.68 386.773  44
 -10   8   1 6481.01 388.135  10
  10   8   0 7087.72 371.339  44
 -10   8   0 7467.83 404.271  10
  10   8   1 172.742 54.3418  44
 -10   8  -1 177.834 49.0921  10
  10   8   2 7278.51 341.223  44
 -10   8  -2 8602.87 385.397  10
  10   9  -8 5080.22 282.225   5
  10   9  -7 1515.43 152.677   5
  10   9  -6 742.129 110.515   5
  10   9  -5 2071.77 183.372  44
  10   9  -5 2151.30 188.927   5
  10   9  -4 927.622 122.768   5
  10   9  -4 1108.15 135.650  44
  10   9  -3 7154.79 356.275   5
  10   9  -3 7884.44 380.587  44
  10   9  -2 228.630 50.5284   5
  10   9  -2 362.832 72.9555  44
  10   9  -1 193.388 53.4504  44
  10   9   0 702.871 95.5406  44
  11  -8  -7 1412.25 128.192  49
  11  -8  -7 1304.03 128.445  40
  11  -8  -6 868.701 103.487  49
  11  -8  -6 831.424 106.978  40
  11  -8  -6 782.936 89.5620  38
  11  -8  -5 84.2817 28.7569  49
  11  -8  -5 50.1914 32.8258  40
  11  -8  -5 83.3967 28.1927  38
  11  -8  -4 1178.70 125.647  49
  11  -8  -4 1247.78 119.679  42
  11  -8  -4 1129.53 125.338  40
  11  -8  -4 1051.40 105.742  38
  11  -8  -4 1205.83 125.559  59
  11  -8  -3 2085.21 166.866  49
  11  -8  -3 2016.35 164.592  40
  11  -8  -3 2121.29 165.713  59
  11  -8  -2 8266.27 357.830  49
  11  -8  -2 8016.01 348.897  59
  11  -8  -1 3690.14 216.377  49
  11  -7  -9 1562.86 145.484  40
  11  -7  -8 1227.27 127.728  49
  11  -7  -8 1145.07 130.213  40
  11  -7  -7 6954.75 351.871  49
  11  -7  -7 7212.16 371.266  40
  11  -7  -6 3497.46 245.742  49
  11  -7  -6 3545.32 257.914  40
  11  -7  -6 3310.46 215.742  38
  11  -7  -5 7177.65 371.963  49
  11  -7  -5 6968.02 331.426  42
  11  -7  -5 7209.94 383.540  40
  11  -7  -5 7119.55 335.370  38
  11  -7  -5 7157.44 365.972  59
  11  -7  -4 1058.54 135.743  49
  11  -7  -4 1121.40 146.257  40
  11  -7  -4 828.445 103.991  38
  11  -7  -4 971.622 127.813  59
  11  -7  -3 7479.79 378.856  49
  11  -7  -3 7269.43 381.669  40
  11  -7  -3 7323.68 336.723  38
  11  -7  -3 7516.66 373.797  59
  11  -7  -2 5282.85 310.628  40
  11  -7  -2 5205.35 266.989  38
  11  -7  -2 5510.17 303.936  59
  11  -7  -1 4846.11 272.908  45
  11  -7  -1 4517.88 272.574  40
  11  -7  -1 4752.49 279.007  35
  11  -7  -1 4949.63 278.978  59
  11  -7   0 375.742 67.2361  45
  11  -7   0 381.382 70.3684  40
  11  -7   0 356.278 64.6285  35
  11  -7   0 348.399 62.6910  59
  11  -7   1 3882.77 215.233  45
  11  -7   1 3718.15 214.763  35
  11  -6 -10 471.731 81.4638  40
  11  -6  -9 469.626 84.2072  40
  11  -6  -8 6169.70 331.634  49
  11  -6  -8 6235.60 355.671  40
  11  -6  -7 688.013 106.846  49
  11  -6  -7 424.696 90.1075  40
  11  -6  -7 461.189 81.5585  38
  11  -6  -6 1598.71 169.751  49
  11  -6  -6 1662.55 181.276  40
  11  -6  -6 1658.26 153.504  38
  11  -6  -5 940.618 136.143  49
  11  -6  -5 967.037 138.504  40
  11  -6  -5 1034.29 121.094  38
  11  -6  -5 942.844 128.511  59
  11  -6  -4 12960.4 558.717  49
  11  -6  -4 12874.8 580.802  40
  11  -6  -4 12859.3 552.682  59
  11  -6  -3 4128.02 296.923  40
  11  -6  -3 4194.37 292.920  35
  11  -6  -3 4341.39 289.965  59
  11  -6  -2 2695.74 221.433  45
  11  -6  -2 3162.96 247.439  35
  11  -6  -2 3129.12 239.555  59
  11  -6  -1 1212.58 131.119  56
  11  -6  -1 1131.50 138.473  45
  11  -6  -1 1263.28 151.476  35
  11  -6  -1 1138.02 138.766  59
  11  -6   0 17502.7 599.579  56
  11  -6   0 18131.2 645.087  45
  11  -6   0 19055.6 671.426  35
  11  -6   0 18450.0 646.415  59
  11  -6   1 2036.02 166.437  45
  11  -6   1 1922.51 169.182  35
  11  -6   1 2236.49 176.703  59
  11  -6   2 1239.62 116.359  45
  11  -6   2 1284.07 126.203  35
  11  -6   2 1205.44 116.397  59
  11  -5 -12 5686.08 290.036  52
  11  -5 -11 1234.02 121.681  40
  11  -5 -10 4925.94 290.975  40
  11  -5  -9 4066.88 277.817  40
  11  -5  -8 2807.50 222.759  49
  11  -5  -8 2883.00 242.657  40
  11  -5  -7 1047.81 138.382  49
  11  -5  -7 1056.44 147.196  40
  11  -5  -6 6715.55 383.448  49
  11  -5  -6 6874.42 413.052  40
  11  -5  -6 6685.87 379.466  59
  11  -5  -5 6576.27 374.207  54
  11  -5  -5 6178.56 370.207  49
  11  -5  -5 6517.31 404.747  40
  11  -5  -5 6256.25 369.745  59
  11  -5  -4 13644.4 583.834  54
  11  -5  -4 13162.6 572.382  59
  11  -5  -3 2256.86 212.799  45
  11  -5  -3 2354.28 222.037  35
  11  -5  -3 2200.76 206.067  59
  11  -5  -2 9512.66 468.209  45
  11  -5  -2 10154.9 495.222  35
  11  -5  -2 9799.31 467.819  59
  11  -5  -1 456.944 86.5381  56
  11  -5  -1 404.734 83.9342  45
  11  -5  -1 389.257 80.3439  35
  11  -5  -1 423.258 83.8797  59
  11  -5   0 320.507 70.0691  45
  11  -5   0 480.839 96.5904  35
  11  -5   0 445.253 83.7918  59
  11  -5   1 2450.25 204.257  57
  11  -5   1 2116.85 182.451  45
  11  -5   1 2652.97 217.842  35
  11  -5   1 2501.49 195.806  59
  11  -5   2 2611.29 199.054  57
 -11  -5  -2 2010.21 175.545  46
  11  -5   2 2617.06 186.748  45
  11  -5   2 2777.31 206.583  35
  11  -5   2 2715.84 189.873  59
  11  -5   3 6885.39 317.759  57
  11  -5   3 6919.32 321.035  35
  11  -4 -12 2043.23 176.999  52
  11  -4 -11 13943.4 542.443  16
  11  -4 -10 717.628 103.827  40
  11  -4 -10 891.711 119.891  16
  11  -4  -9 932.064 131.762  40
  11  -4  -9 843.949 122.808  16
  11  -4  -8 4395.61 295.885  54
  11  -4  -8 4192.55 300.759  40
  11  -4  -8 4187.13 298.749  16
  11  -4  -7 30160.5 991.707  54
  11  -4  -7 28797.6 947.403  49
  11  -4  -7 29280.1 1005.39  40
  11  -4  -6 1523.95 181.712  54
  11  -4  -6 1556.88 176.653  49
  11  -4  -6 1577.42 190.223  40
  11  -4  -6 1615.83 174.545  59
  11  -4  -5 6011.69 381.753  54
  11  -4  -5 6164.40 369.683  49
  11  -4  -5 6035.52 361.240  59
  11  -4  -4 2811.67 256.872  54
  11  -4  -4 2603.99 248.145  35
  11  -4  -4 2554.18 227.101  59
  11  -4  -3 9895.96 491.639  45
  11  -4  -3 10271.1 517.144  35
  11  -4  -3 10299.3 488.428  59
  11  -4  -2 2853.05 247.195  45
  11  -4  -2 3490.46 269.907   8
  11  -4  -2 3114.16 267.521  35
  11  -4  -2 3259.68 254.328  59
  11  -4  -1 2299.27 209.328  45
  11  -4  -1 2736.93 231.913   8
  11  -4  -1 2407.15 225.867  35
  11  -4  -1 2526.15 217.002  59
  11  -4   0 551.772 102.866  57
  11  -4   0 399.572 76.6617  45
  11  -4   0 513.804 101.951  35
  11  -4   0 519.449 95.9336   8
  11  -4   0 465.416 82.6984  59
  11  -4   1 2059.77 193.673  57
  11  -4   1 1935.24 175.699  45
  11  -4   1 2023.33 182.353   8
  11  -4   1 2132.07 202.225  35
  11  -4   2 5120.20 309.845  57
  11  -4   2 4883.03 281.075  45
  11  -4   2 5487.61 299.577   8
  11  -4   2 5467.19 323.408  35
  11  -4   3 5817.91 299.040  57
 -11  -4  -3 4422.31 283.704  46
  11  -4   3 4920.37 249.678  45
  11  -4   3 6146.27 312.638  35
  11  -4   4 130.770 39.9556  35
  11  -3 -13 1104.51 119.578  52
  11  -3 -12 3155.00 234.464  52
  11  -3 -12 3050.94 217.068   3
  11  -3 -12 3050.87 225.618  16
  11  -3 -11 419.404 88.0908  16
  11  -3 -10 2346.08 223.001  16
  11  -3  -9 9453.82 457.794  40
  11  -3  -9 9631.40 494.105  16
  11  -3  -8 3233.11 278.356  54
  11  -3  -8 2934.86 257.166  40
  11  -3  -7 6508.94 403.443  54
  11  -3  -7 6917.65 404.385  40
  11  -3  -6 5226.41 364.834  54
  11  -3  -6 4793.57 347.770  40
  11  -3  -5 11156.6 562.044  54
  11  -3  -4 5313.60 357.251  35
  11  -3  -3 1721.79 190.171  45
  11  -3  -3 2223.28 226.522   8
  11  -3  -3 1650.39 187.819  35
  11  -3  -2 13803.2 598.057  45
  11  -3  -2 14743.1 640.965   8
  11  -3  -2 14225.3 626.560  35
  11  -3  -1 1595.65 175.474  45
  11  -3  -1 2225.52 221.248   8
  11  -3  -1 1724.69 192.288  35
  11  -3   0 2734.29 237.972  57
  11  -3   0 2436.42 207.827  45
  11  -3   0 2762.63 239.498   8
  11  -3   0 2552.31 234.010  35
  11  -3   1 2940.65 241.775  57
 -11  -3  -1 2447.06 231.804  46
  11  -3   1 2743.06 210.985  45
  11  -3   1 3184.32 250.404   8
  11  -3   1 3023.00 246.903  35
  11  -3   2 4331.26 282.122  57
 -11  -3  -2 4518.27 310.838  46
  11  -3   2 4248.57 282.012   8
  11  -3   2 3905.08 277.832  35
  11  -3   3 258.135 59.6467  57
 -11  -3  -3 179.053 59.1272  46
  11  -3   3 262.815 61.5698  35
  11  -3   3 137.147 47.3097   8
  11  -3   4 1466.35 130.454  57
 -11  -3  -4 1526.16 155.172  46
  11  -3   4 1482.27 132.265   8
  11  -3   4 1656.32 143.353  35
  11  -2 -13 4683.73 271.537  52
  11  -2 -13 4558.56 260.942   3
  11  -2 -13 4322.40 261.266  16
  11  -2 -12 2709.16 222.854  52
  11  -2 -12 2695.58 222.775  16
  11  -2 -11 477.816 92.2694  52
  11  -2 -11 398.075 89.9926  16
  11  -2 -10 9256.71 485.585  16
  11  -2  -9 2740.27 253.515  16
  11  -2  -8 1885.53 219.890  54
  11  -2  -7 1099.86 160.034  54
  11  -2  -7 1242.49 155.496  40
  11  -2  -6 6847.80 435.885  54
  11  -2  -6 7136.98 420.863  40
  11  -2  -5 4789.59 355.049  54
  11  -2  -4 15919.6 706.460   8
  11  -2  -4 15987.2 669.039  35
  11  -2  -3 1327.02 166.564  35
  11  -2  -3 1506.20 183.358   8
  11  -2  -2 1209.36 152.927  45
  11  -2  -2 1329.42 169.273  35
  11  -2  -2 1523.48 190.030   8
  11  -2  -1 1047.51 136.263  45
  11  -2  -1 1288.85 164.329  35
  11  -2  -1 1380.80 182.082   8
  11  -2   0 13991.2 608.951  57
  11  -2   0 15169.8 658.300   8
  11  -2   0 14545.8 622.240  35
  11  -2   1 2073.42 200.013  57
 -11  -2  -1 1975.10 213.204  46
  11  -2   1 2238.64 217.885   8
  11  -2   1 2106.76 202.663  35
  11  -2   2 1654.49 167.566  57
 -11  -2  -2 1501.96 180.858  46
  11  -2   2 1823.61 189.912   8
  11  -2   2 1724.57 169.665  35
  11  -2   3 4855.27 280.596  57
  11  -2   3 5355.78 316.293   8
  11  -2   3 5062.46 293.642  35
  11  -2   4 7328.55 334.189  57
  11  -2   4 8405.50 380.744   8
  11  -2   4 7976.49 359.410  35
  11  -1 -13 3604.28 239.306  52
  11  -1 -13 3621.73 240.496   3
  11  -1 -13 3689.49 243.007  16
  11  -1 -12 4151.65 284.037  52
  11  -1 -12 4247.46 287.182  16
  11  -1 -11 1244.41 153.765  52
  11  -1 -11 1335.36 166.201  16
  11  -1 -10 2091.09 224.063  16
  11  -1  -9 8050.77 465.406  54
  11  -1  -9 8448.42 450.395   4
  11  -1  -8 6469.07 421.969  54
  11  -1  -8 6642.65 399.733   4
  11  -1  -7 6444.19 420.481  54
  11  -1  -7 6378.96 389.796   4
  11  -1  -6 18650.6 791.857  54
  11  -1  -5 35182.2 1200.20  54
  11  -1  -4 14780.2 681.527   8
  11  -1  -3 991.300 140.903  35
  11  -1  -3 986.369 155.393   8
  11  -1  -2 15361.5 692.555   8
  11  -1  -2 14888.0 626.078  35
  11  -1  -1 976.032 135.692  35
  11  -1  -1 926.505 148.472   8
  11  -1   0 497.684 100.441  57
  11  -1   0 487.278 95.0263  35
  11  -1   0 401.116 80.7127   8
  11  -1   1 2657.35 220.380  57
 -11  -1  -1 2329.60 238.890  46
  11  -1   1 3249.64 272.957   8
  11  -1   1 2627.00 221.152  35
  11  -1   2 16664.7 613.814  57
  11  -1   2 18082.2 698.795   8
  11  -1   2 16425.9 623.835  35
  11  -1   3 2507.66 187.993  57
  11  -1   3 2848.66 231.468   8
  11  -1   3 2524.57 197.493  35
  11  -1   4 1984.41 180.492   8
  11  -1   4 1742.92 147.918  35
 -11  -1  -5 1289.37 136.329  46
  11  -1   5 1452.10 132.478   8
  11   0 -13 95.5995 41.0970  52
  11   0 -13 80.4651 28.1992   3
  11   0 -13 88.6529 35.4880  16
  11   0 -12 730.657 111.218  52
  11   0 -12 712.847 114.058  16
  11   0 -12 727.938 103.527  34
  11   0 -11 4176.07 296.340  52
  11   0 -11 4299.58 307.336  16
  11   0 -10 177.083 52.0241  52
  11   0 -10 313.956 89.6497  16
  11   0  -9 296.041 77.4796   4
  11   0  -8 2563.59 256.563  54
  11   0  -8 2456.05 244.798   4
  11   0  -7 322.078 86.4780  54
  11   0  -7 447.370 102.969   4
  11   0  -6 923.368 158.656  54
  11   0  -6 1037.00 161.926   4
  11   0  -5 10494.2 562.229  54
  11   0  -5 10392.5 532.986   4
  11   0  -4 1573.94 207.039  54
  11   0  -4 1479.45 195.526   8
  11   0  -4 1436.37 183.887   4
  11   0  -3 9931.78 509.108   4
  11   0  -3 9903.73 538.605   8
  11   0  -2 2021.83 232.190   8
  11   0  -1 15571.8 699.089   8
 -11   0   0 27.1979 57.3575  46
  11   0   0 92.2969 37.7920   8
 -11   0  -1 9594.18 535.684  46
  11   0   1 11901.4 562.349   8
 -11   0  -2 6874.39 427.005  46
  11   0   2 7249.46 415.422   8
 -11   0  -3 254.620 71.3192  46
  11   0   3 354.490 83.7145   8
 -11   0  -4 532.988 101.588  46
  11   0   4 197.373 53.4021   8
 -11   0  -5 3843.72 253.502  46
  11   0   5 4977.12 261.430   8
  11   1 -13 3407.31 221.371  52
  11   1 -13 3508.13 235.152   3
  11   1 -13 3235.17 222.831  16
  11   1 -13 3106.59 204.487  34
  11   1 -12 4237.57 273.844  52
  11   1 -12 4231.87 285.004  16
  11   1 -12 4487.47 286.577  34
  11   1 -11 1453.90 162.747  52
  11   1 -11 1632.43 183.191  16
  11   1 -10 2284.06 226.442   4
  11   1 -10 2363.69 236.078  16
  11   1  -9 6889.98 418.606   4
  11   1  -8 6743.30 436.610  54
  11   1  -8 6889.47 425.423   4
  11   1  -7 6898.32 441.994  54
  11   1  -7 6879.00 428.120   4
  11   1  -6 19235.7 817.717  54
  11   1  -6 19699.7 795.995   4
  11   1  -5 32866.5 1148.68  54
  11   1  -5 33428.7 1131.77   4
  11   1  -4 14278.5 676.224  54
  11   1  -4 15366.8 679.303   4
  11   1  -4 14739.4 681.651   8
  11   1  -3 1182.44 175.605  54
  11   1  -3 1382.02 183.891   8
  11   1  -3 1046.50 156.284   4
  11   1  -2 17601.1 750.741   8
 -11   1   1 593.527 111.854  46
  11   1  -1 569.888 106.670   8
 -11   1   0 584.432 116.187  46
  11   1   0 663.951 124.553   8
 -11   1  -1 2777.74 267.100  46
  11   1   1 3378.86 275.067   8
 -11   1  -2 15644.5 715.210  46
  11   1   2 20191.4 742.066   8
 -11   1  -3 2368.72 229.679  46
  11   1   3 3098.35 238.856   8
 -11   1  -4 3028.75 242.135  46
  11   1   4 1731.36 168.134   8
 -11   1  -5 1078.61 127.045  46
  11   1   5 1443.30 130.009   8
  11   2 -13 4560.63 263.594   3
  11   2 -13 4529.28 255.816  34
  11   2 -12 2396.15 202.247  16
  11   2 -12 2272.61 201.795  34
  11   2 -11 501.551 95.1875  16
  11   2 -10 9842.73 495.530   4
  11   2 -10 9273.99 484.870  16
  11   2  -9 3208.23 275.979   4
  11   2  -8 2252.30 241.697   4
  11   2  -7 1360.98 181.127  54
  11   2  -7 1437.70 182.193   4
  11   2  -6 5587.70 395.041  54
  11   2  -6 5943.27 401.591   4
  11   2  -5 4244.02 334.735  54
  11   2  -5 4343.84 333.995   4
  11   2  -4 13989.8 659.964  54
  11   2  -4 14939.8 674.145   4
  11   2  -4 14536.1 666.287   8
  11   2  -3 1159.11 169.392  54
  11   2  -3 1041.05 156.250   8
  11   2  -2 1226.43 168.146  54
  11   2  -2 1213.29 172.822   8
 -11   2   1 1352.19 181.132  46
 -11   2   1 941.654 148.679  10
  11   2  -1 1355.51 177.630   8
 -11   2   0 17011.3 739.236  46
  11   2   0 15748.9 681.456   8
 -11   2  -1 1616.83 198.034  46
  11   2   1 2158.78 215.932   8
 -11   2  -2 1836.19 205.556  46
  11   2   2 2106.59 198.919   8
 -11   2  -3 4128.53 309.407  46
  11   2   3 5206.90 307.275   8
 -11   2  -4 9852.77 458.888  46
  11   2   4 8218.83 381.956   8
  11   3 -13 1078.64 116.985  34
  11   3 -12 2586.09 205.643   3
  11   3 -12 2885.08 204.451  16
  11   3 -12 2795.50 223.535  34
  11   3 -11 626.454 96.7708  16
  11   3 -11 642.358 115.495  34
  11   3 -10 2448.57 225.052   4
  11   3 -10 2328.01 210.845  16
  11   3  -9 10866.8 531.502   4
  11   3  -9 10316.7 511.590  16
  11   3  -8 3011.61 263.267   5
  11   3  -8 3279.03 294.943   4
  11   3  -7 6497.49 419.266  54
  11   3  -7 7305.54 438.451   4
  11   3  -6 5523.07 381.177  54
  11   3  -6 5599.17 384.630   4
  11   3  -5 10195.5 532.613  54
  11   3  -5 10206.1 539.106   4
  11   3  -4 5113.16 354.244  54
  11   3  -4 5126.11 366.706   4
  11   3  -3 1438.06 175.540  54
 -11   3   3 1431.34 192.325  10
  11   3  -3 1558.82 186.030   8
  11   3  -2 14995.3 627.025  54
 -11   3   2 13843.5 657.447  10
  11   3  -2 14478.3 639.355   8
 -11   3   1 2024.69 223.010  46
 -11   3   1 1970.36 224.428  10
  11   3  -1 1857.85 201.509   8
 -11   3   0 2920.57 272.105  46
 -11   3   0 2815.52 267.332  10
  11   3   0 2324.07 222.347   8
 -11   3  -1 3165.49 277.990  46
  11   3   1 3521.47 262.702   8
 -11   3  -2 4566.87 334.812  46
  11   3   2 4509.31 289.042   8
 -11   3  -3 76.3826 14.6352  46
  11   3   3 175.188 48.9980   8
 -11   3  -4 1430.18 156.550  46
 -11   3  -4 1432.18 148.599  10
  11   3   4 1386.19 127.008   8
  11   4 -12 1764.16 165.559  34
  11   4 -11 15272.4 572.412   3
  11   4 -11 15924.8 637.542  34
  11   4 -10 867.433 114.982   5
  11   4 -10 914.765 136.603   4
  11   4 -10 1031.73 148.395  34
  11   4  -9 743.609 120.281   5
  11   4  -9 680.105 116.614   4
  11   4  -8 4847.56 331.959   5
  11   4  -8 4907.91 339.117   4
  11   4  -7 30508.5 1046.38   4
  11   4  -6 1827.24 208.617   4
  11   4  -5 4845.35 330.477  54
  11   4  -5 5211.20 360.563   4
 -11   4   4 3717.79 299.532  10
  11   4  -4 2124.64 236.144   4
 -11   4   3 9533.82 521.014  10
 -11   4   2 4540.71 332.764  46
 -11   4   2 4855.93 355.198  10
 -11   4   1 2392.46 239.272  46
 -11   4   1 2443.48 241.974  10
  11   4  -1 2752.55 228.370   8
 -11   4   0 564.317 117.089  46
 -11   4   0 606.868 120.264  10
  11   4   0 621.153 102.429   8
 -11   4  -1 1727.66 196.793  46
 -11   4  -1 1857.20 204.395  10
  11   4   1 2089.00 181.004   8
 -11   4  -2 7716.76 422.542  46
 -11   4  -2 8043.69 421.286  10
 -11   4  -3 4704.74 305.326  46
 -11   4  -3 4584.95 293.565  10
 -11   4  -4 394.856 80.7833  46
 -11   4  -4 243.197 54.6368  10
  11   5 -12 5978.68 306.744  34
  11   5 -11 883.539 106.068   5
  11   5 -11 997.476 127.776  34
  11   5 -10 5572.57 323.435   4
  11   5 -10 5629.94 350.499  34
  11   5 -10 5435.07 312.502   5
  11   5  -9 4314.68 291.305   4
  11   5  -9 4188.70 307.532  34
  11   5  -9 3933.17 278.238   5
  11   5  -8 2694.65 241.185   5
  11   5  -8 2782.11 239.201   4
  11   5  -7 628.790 112.905   5
  11   5  -7 724.668 119.873   4
  11   5  -6 7179.85 423.456   4
  11   5  -5 5571.03 362.732   4
 -11   5   4 13657.5 632.394  10
  11   5  -4 14406.0 632.079   4
 -11   5   3 2214.13 228.736  10
  11   5  -3 2413.63 236.611   4
 -11   5   2 7781.52 456.653  10
 -11   5   1 471.767 99.8361  10
 -11   5   0 589.677 113.486  10
 -11   5  -1 2165.25 207.370  46
 -11   5  -1 2446.69 222.873  10
 -11   5  -2 2136.68 195.926  10
 -11   5  -3 6126.27 324.140  10
  11   6 -11 235.855 57.5221  34
  11   6 -10 404.196 72.5801   5
  11   6 -10 285.703 64.9850  34
  11   6  -9 528.353 91.5068   5
  11   6  -9 771.407 108.739   4
  11   6  -9 706.325 112.962  34
  11   6  -8 6399.69 369.526   5
  11   6  -8 6463.06 356.401   4
  11   6  -8 6574.53 370.890  34
  11   6  -7 537.243 104.689   5
  11   6  -7 601.511 103.746   4
  11   6  -7 562.139 105.418  34
  11   6  -6 1490.43 175.730   5
  11   6  -6 1383.32 161.702   4
  11   6  -6 1321.35 155.734  34
  11   6  -5 1365.91 161.795   4
  11   6  -4 12940.0 530.870  44
 -11   6   4 13149.5 595.364  10
  11   6  -4 13165.3 573.551   4
  11   6  -3 4059.46 267.466  44
 -11   6   3 3677.62 293.211  10
  11   6  -3 4153.13 290.889   4
  11   6  -2 2898.82 222.760  44
 -11   6   2 3328.64 274.208  10
  11   6  -2 3412.67 259.475   4
  11   6  -1 1062.76 129.850  44
 -11   6   1 940.431 142.588  10
  11   6   0 16911.3 620.398  44
 -11   6   0 20400.1 730.709  10
  11   6   1 1555.46 140.812  44
 -11   6  -1 1622.22 165.572  10
 -11   6  -2 1552.62 152.944  10
  11   7  -9 1646.14 150.204   5
  11   7  -8 1081.23 132.516   5
  11   7  -8 1131.38 122.275   4
  11   7  -8 838.570 105.986  34
  11   7  -7 7560.97 393.696   5
  11   7  -7 7851.22 370.507   4
  11   7  -6 3561.67 265.781   5
  11   7  -6 3261.33 237.258   4
  11   7  -6 3350.51 226.994  44
  11   7  -5 7837.16 413.226   5
  11   7  -5 7503.93 363.139  44
  11   7  -5 7551.42 379.462   4
  11   7  -4 918.527 117.028  44
  11   7  -4 825.229 120.770   4
  11   7  -3 6259.01 328.216  44
  11   7  -3 6493.60 346.698   4
  11   7  -2 4491.04 267.142  44
 -11   7   2 4362.32 295.519  10
  11   7  -2 4883.13 290.066   4
  11   7  -1 4802.98 269.756  44
 -11   7   1 4728.68 300.271  10
  11   7  -1 5243.73 292.743   4
  11   7   0 281.890 53.7685  44
 -11   7   0 380.525 75.4006  10
 -11   7  -1 3166.61 216.844  10
  11   8  -7 1144.31 123.571   5
  11   8  -6 971.594 117.241   5
  11   8  -5 108.074 37.7258   5
  11   8  -5 100.928 34.0830  44
  11   8  -4 1382.51 140.581   5
  11   8  -4 1184.40 121.378  44
  11   8  -4 1213.75 122.026   4
  11   8  -3 2888.67 201.677   5
  11   8  -3 2859.60 191.835  44
  11   8  -3 2684.09 183.094   4
  11   8  -2 7364.34 325.479  44
  12  -6  -7 372.675 66.8930  40
  12  -6  -6 818.175 98.1859  49
  12  -6  -6 930.577 111.927  40
  12  -6  -5 3363.00 212.778  49
  12  -6  -5 3668.72 237.234  40
  12  -6  -4 4491.99 251.964  49
  12  -6  -4 4818.10 281.217  40
  12  -6  -4 4649.76 250.176  59
  12  -6  -3 2182.49 167.221  49
  12  -6  -3 2290.06 183.314  40
  12  -6  -3 1964.71 152.076  59
  12  -6  -2 1616.09 139.202  49
  12  -6  -2 1616.49 147.276  40
  12  -5  -9 976.346 106.637  40
  12  -5  -8 2242.04 179.815  40
  12  -5  -7 5177.62 270.481  49
  12  -5  -7 6011.32 320.280  40
  12  -5  -6 3660.70 232.281  49
  12  -5  -6 4009.46 267.382  40
  12  -5  -5 944.224 116.499  54
  12  -5  -5 1044.55 119.524  49
  12  -5  -5 1078.69 135.238  40
  12  -5  -4 1369.09 141.577  54
  12  -5  -4 1355.73 138.134  49
  12  -5  -4 1355.27 153.162  40
  12  -5  -4 1353.79 133.597  59
  12  -5  -3 1873.12 164.380  54
  12  -5  -3 1894.83 166.535  49
  12  -5  -3 1885.05 179.074  40
  12  -5  -3 1743.67 149.774  59
  12  -5  -2 363.244 67.3514  54
  12  -5  -2 266.402 54.7995  59
  12  -5  -1 2063.39 165.330  54
  12  -5  -1 2058.45 167.712  35
  12  -5   0 2989.33 191.734  54
  12  -5   0 3009.45 197.561  35
  12  -4 -10 8325.91 352.284  16
  12  -4  -9 299.149 60.3209  40
  12  -4  -9 307.766 63.8042  16
  12  -4  -8 368.754 75.5114  40
  12  -4  -8 383.886 74.2945  16
  12  -4  -7 151.133 49.8423  54
  12  -4  -7 236.417 65.9577  40
  12  -4  -7 198.079 57.4010  16
  12  -4  -6 19418.1 699.185  54
  12  -4  -6 19770.1 711.442  40
  12  -4  -5 2168.34 196.194  54
  12  -4  -5 2063.47 195.183  40
  12  -4  -4 1215.40 145.095  54
  12  -4  -4 1278.41 137.460  49
  12  -4  -4 1083.11 139.615  40
  12  -4  -3 260.271 66.9920  54
  12  -4  -2 14861.7 583.366  54
  12  -4  -2 14629.0 567.796  35
  12  -4  -1 178.653 53.6120  35
  12  -4   0 3325.66 220.112  35
  12  -4   1 11.5328 14.8540  35
  12  -3 -11 293.192 61.4913  52
  12  -3 -11 311.480 59.9466  16
  12  -3 -10 5097.50 290.586  16
  12  -3  -9 587.018 96.5216  16
  12  -3  -8 4584.70 291.549  54
  12  -3  -8 4606.40 274.878  40
  12  -3  -8 4591.83 297.730  16
  12  -3  -7 11584.7 520.199  54
  12  -3  -7 11815.6 502.348  40
  12  -3  -6 5376.36 338.120  54
  12  -3  -6 5270.23 325.000  40
  12  -3  -5 5010.89 325.527  54
  12  -3  -5 4875.73 314.173  40
  12  -3  -4 9383.88 470.324  54
  12  -3  -3 174.453 51.0653  54
  12  -3  -3 168.943 45.3267  35
  12  -3  -2 2844.90 225.384   8
  12  -3  -2 2569.61 208.851  35
  12  -3  -1 258.747 65.9850  35
  12  -3  -1 268.259 60.0801   8
  12  -3   0 2230.49 183.892   8
  12  -3   0 2279.34 180.897  35
  12  -3   1 4552.97 255.238   8
  12  -3   1 4962.79 261.967  35
  12  -2 -12 733.329 91.9789  16
  12  -2 -11 2840.21 201.726  52
  12  -2 -11 2746.03 204.989  16
  12  -2 -10 1430.46 151.677  52
  12  -2 -10 1491.37 163.283  16
  12  -2  -9 4042.49 281.762  16
  12  -2  -8 1664.00 178.902  54
  12  -2  -7 5405.86 345.724  54
  12  -2  -6 598.510 115.218  54
  12  -2  -6 465.108 96.7545  40
  12  -2  -5 3832.88 290.006  54
  12  -2  -5 3518.23 261.719  40
  12  -2  -4 384.020 90.3413  54
  12  -2  -3 21539.8 793.958  54
  12  -2  -3 21306.1 781.799   8
  12  -2  -3 20239.4 718.528  35
  12  -2  -2 340.687 72.4339  35
  12  -2  -2 482.889 94.8886   8
  12  -2  -1 7895.14 408.743   8
  12  -2  -1 7774.74 378.279  35
  12  -2   0 1206.94 130.404  35
  12  -2   0 998.989 127.465   8
  12  -2   1 7542.96 362.914   8
  12  -2   1 7012.28 325.674  35
  12  -2   2 326.143 63.2491   8
  12  -1 -12 310.787 71.6450   3
  12  -1 -12 316.687 70.3601  16
  12  -1 -11 5332.92 286.223  52
  12  -1 -11 5602.38 312.234  16
  12  -1 -10 2655.27 203.810  52
  12  -1 -10 3121.17 238.629  16
  12  -1  -9 1615.85 177.005  16
  12  -1  -8 10613.0 512.167  54
  12  -1  -7 1597.23 181.510  54
  12  -1  -6 1402.46 179.263  54
  12  -1  -5 3467.47 279.878  54
  12  -1  -4 13271.9 600.109  54
  12  -1  -3 3092.47 258.480  54
  12  -1  -3 2891.54 254.060   8
  12  -1  -2 2754.62 250.613   8
  12  -1  -1 2804.09 235.673   8
  12  -1   0 4764.76 304.635   8
 -12  -1  -1 1462.01 153.232  46
  12  -1   1 1889.74 174.815   8
 -12  -1  -2 1711.39 159.734  46
  12  -1   2 1647.38 151.179   8
  12   0 -12 1380.98 134.220   3
  12   0 -12 1313.84 132.316  16
  12   0 -11 759.183 107.861  16
  12   0 -10 5950.46 350.603  16
  12   0  -9 745.087 114.523   4
  12   0  -9 736.579 118.811  16
  12   0  -8 7823.42 427.974  54
  12   0  -8 7457.98 399.430   4
  12   0  -7 2793.31 248.407  54
  12   0  -7 2978.28 239.483   4
  12   0  -6 11825.7 562.824  54
  12   0  -6 11752.3 528.391   4
  12   0  -5 117.804 67.1389  54
  12   0  -5 48.9819 30.0328   4
  12   0  -4 868.876 137.146  54
  12   0  -3 208.341 64.3140  54
  12   0  -3 213.623 68.3617   8
  12   0  -2 3654.22 281.025  54
  12   0  -2 3807.56 289.055   8
  12   0  -1 1119.34 148.619   8
  12   0   0-3.48339 21.6029   8
 -12   0  -1 2455.05 207.776  46
  12   0   1 3066.23 227.557   8
 -12   0  -2 4558.42 272.076  46
  12   0   2 2996.25 216.456   8
  12   1 -12 348.331 74.5804   3
  12   1 -12 350.015 72.9891  16
  12   1 -11 6380.67 333.456  16
  12   1 -10 2457.91 210.162  16
  12   1  -9 1690.27 176.437   4
  12   1  -9 1512.38 169.806  16
  12   1  -8 11059.2 512.587   4
  12   1  -7 1973.43 208.834  54
  12   1  -7 1784.61 192.659   4
  12   1  -6 1415.63 176.270  54
  12   1  -6 1493.33 175.945   4
  12   1  -5 2919.57 254.440  54
  12   1  -5 3103.98 252.862   4
  12   1  -4 12075.6 559.498  54
  12   1  -4 12084.2 544.156   4
  12   1  -3 2787.63 239.855  54
  12   1  -3 3008.70 238.621   4
  12   1  -3 2777.50 244.112   8
  12   1  -2 2147.08 210.300  54
  12   1  -2 2443.97 215.727   4
  12   1  -2 2497.60 233.937   8
  12   1  -1 2839.21 229.018  54
  12   1  -1 2812.81 216.444   4
  12   1  -1 3184.07 250.746   8
  12   1   0 4466.08 279.530  54
 -12   1   0 4939.04 309.798  46
  12   1   0 4925.49 307.441   8
  12   1   1 1403.73 139.625  54
 -12   1  -1 1535.50 163.323  46
  12   1   1 1616.00 160.577   8
 -12   1  -2 1765.89 164.088  46
 -12   1  -2 1813.79 155.697  10
  12   1   2 1832.90 157.313   8
  12   2 -11 2688.93 194.904  16
  12   2 -11 2558.79 202.488  34
  12   2 -10 1208.59 141.834  16
  12   2  -9 4219.36 284.578   4
  12   2  -9 4284.65 286.397  16
  12   2  -8 1734.21 184.978   4
  12   2  -7 4442.09 310.584  54
  12   2  -7 4913.49 319.314   4
  12   2  -6 606.631 114.363  54
  12   2  -6 409.244 85.6263   4
  12   2  -5 3609.56 278.580  54
  12   2  -5 4165.58 295.920   4
  12   2  -4 333.717 84.3663  54
  12   2  -4 460.947 93.6090   4
  12   2  -3 19707.6 733.876  54
  12   2  -3 20598.4 753.771   4
  12   2  -3 20337.5 757.092   8
  12   2  -2 608.394 94.4109  54
  12   2  -2 509.521 100.336   8
  12   2  -2 582.972 105.572   4
  12   2  -1 6995.98 357.923  54
  12   2  -1 7187.59 376.561   4
  12   2  -1 7047.29 380.530   8
 -12   2   0 1120.01 141.043  46
 -12   2   0 1298.51 147.614  10
  12   2   0 983.492 124.582   8
  12   2   0 944.677 117.175   4
 -12   2  -1 6578.42 353.824  46
 -12   2  -1 6589.82 344.549  10
  12   2   1 7394.62 352.659   8
  12   2   1 6383.86 312.613   4
 -12   2  -2 487.992 85.0269  46
 -12   2  -2 415.520 70.8850  10
  12   2   2 349.125 62.2882   8
  12   3 -11 318.203 63.2433   3
  12   3 -11 354.387 68.0554  34
  12   3 -10 5198.29 284.179  16
  12   3 -10 5482.93 321.616  34
  12   3  -9 674.916 106.270  16
  12   3  -9 572.081 99.3341   4
  12   3  -8 4858.13 309.948   4
  12   3  -7 11292.9 496.562   5
  12   3  -7 11735.2 527.985   4
  12   3  -6 5639.35 350.810   4
  12   3  -5 4142.91 284.496  54
  12   3  -5 4261.74 297.280   4
  12   3  -4 7875.28 405.245  54
  12   3  -4 9282.99 460.098   4
  12   3  -3 332.734 74.1056  54
  12   3  -3 251.305 60.1778   4
 -12   3   2 3648.79 261.383  10
  12   3  -2 2798.63 231.833   4
 -12   3   1 225.603 65.0995  10
  12   3  -1 228.306 55.3757   8
  12   3  -1 244.902 70.4501   4
 -12   3   0 2188.84 194.170  46
 -12   3   0 2343.21 199.824  10
  12   3   0 2152.87 178.111   8
  12   3   0 2225.66 185.395   4
 -12   3  -1 4169.92 267.186  46
 -12   3  -1 4171.25 264.235  10
  12   3   1 4626.00 250.090   8
  12   3   1 4704.80 258.733   4
  12   4 -10 9776.70 433.078  34
  12   4  -9 302.819 59.7517   5
  12   4  -9 395.921 82.6312   4
  12   4  -9 300.579 69.4651  34
  12   4  -8 424.411 77.7266   5
  12   4  -8 393.174 79.4240   4
  12   4  -7 122.494 50.7639   5
  12   4  -7 151.144 56.4966   4
  12   4  -6 18764.9 701.243   4
  12   4  -5 2165.83 201.451   4
  12   4  -4 1260.06 152.779   4
 -12   4   3 197.671 44.9461  10
  12   4  -3 363.214 80.4062   4
 -12   4   2 14303.0 585.222  10
  12   4  -2 15605.8 596.717   4
 -12   4   1 316.148 74.0038  10
  12   4  -1 273.547 65.0390   4
 -12   4   0 3630.80 244.445  10
  12   4   0 3264.48 224.509   4
 -12   4  -1 23.7406 17.1166  10
  12   4   1 54.3125 19.3235   4
  12   5  -9 1178.47 123.531   4
  12   5  -9 1000.61 119.650  34
  12   5  -9 1272.71 120.970   5
  12   5  -8 2557.65 196.880   4
  12   5  -8 2357.79 193.299  34
  12   5  -8 2476.72 192.000   5
  12   5  -7 5207.90 302.137   5
  12   5  -7 5527.87 313.955   4
  12   5  -7 5445.99 306.961  34
  12   5  -6 3850.77 267.261   5
  12   5  -6 4275.50 276.930   4
  12   5  -5 1093.43 133.718   4
  12   5  -4 1224.84 142.304   4
 -12   5   3 1901.78 179.183  10
  12   5  -3 1978.97 179.262   4
 -12   5   2 836.138 115.783  10
  12   5  -2 316.331 73.1672   4
 -12   5   1 1998.04 176.050  10
  12   5  -1 2482.91 190.260   4
 -12   5   0 2894.34 204.592  10
  12   5   0 2723.68 190.563   4
  12   6  -8 2179.06 165.610   5
  12   6  -7 236.405 52.9522   5
  12   6  -7 282.185 61.4636   4
  12   6  -6 1132.87 126.601   5
  12   6  -6 1158.01 124.510   4
  12   6  -5 3183.59 226.160   5
  12   6  -5 3625.67 230.957   4
  12   6  -4 4632.11 268.274   4
  12   6  -3 2011.51 165.489   4
  12   6  -2 1328.23 132.526   4
  12   6  -1 4801.23 251.179   4
  13  -3  -7 2686.15 184.666  16
  13  -3  -6 1539.28 145.032  54
  13  -3  -5 6480.46 319.425  54
  13  -3  -4 983.076 114.717  54
  13  -3  -4 909.824 104.066  40
  13  -3  -3 1071.61 116.068  54
  13  -3  -3 1025.86 107.536  40
  13  -3  -2 4886.33 256.688  54
  13  -2  -9 1563.57 136.429  16
  13  -2  -8 10782.6 437.792  16
  13  -2  -7 349.148 71.9981  54
  13  -2  -6 399.133 75.7439  54
  13  -2  -5 111.235 37.9329  54
  13  -2  -4 12207.9 486.599  54
  13  -2  -4 11452.4 438.301  40
  13  -2  -3 1079.72 121.842  54
  13  -2  -3 1068.77 111.015  40
  13  -2  -2 941.893 110.055  54
  13  -2  -1 72.6774 29.9361  54
  13  -1  -9 7138.80 337.281  16
  13  -1  -8 5457.18 299.960  16
  13  -1  -7 732.926 100.052  54
  13  -1  -6 10196.4 447.034  54
  13  -1  -5 3308.68 235.543  54
  13  -1  -4 5058.66 295.617  54
  13  -1  -3 544.334 83.1572  54
  13  -1  -2 2012.48 167.873  54
  13  -1  -1 1787.69 147.086  54
  13   0 -10 67.5896 29.4695  16
  13   0  -9 4543.55 261.000  16
  13   0  -8 213.428 66.6434  16
  13   0  -7 2127.25 184.143  54
  13   0  -6 941.769 125.709  54
  13   0  -5 19025.8 671.227  54
  13   0  -4 1194.81 134.221  54
  13   0  -3 9801.44 423.449  54
  13   0  -2 8837.39 382.832  54
  13   0  -1 4214.50 232.681  54
  13   1  -9 6274.03 309.265  16
  13   1  -8 5777.39 292.524   4
  13   1  -8 6163.42 318.528  16
  13   1  -7 749.692 101.447   4
  13   1  -6 8304.92 389.542  54
  13   1  -6 8272.88 370.840   4
  13   1  -5 3347.82 230.292  54
  13   1  -5 3440.61 220.728   4
  13   1  -4 4883.76 277.617  54
  13   1  -4 4381.74 249.098   4
  13   1  -3 664.814 93.5087  54
  13   1  -2 1658.71 142.262  54
  13   2  -8 9990.88 409.003   4
  13   2  -8 10093.0 412.712  16
  13   2  -7 281.093 64.0646   4
  13   2  -6 315.161 65.1090   4
  13   2  -5 179.582 50.5589  54
  13   2  -5 86.2677 39.6305   4
  13   2  -4 10332.6 421.826  54
  13   2  -4 11584.4 447.609   4
  13   2  -3 873.197 103.076   4
  13   3  -8 1620.46 141.054   4
  13   3  -7 2795.85 194.939   4
  13   3  -6 1247.42 122.394   5
  13   3  -6 1340.56 135.840   4
  13   3  -5 6270.52 313.565   4
  13   3  -4 892.992 107.113   4
  13   3  -3 1205.73 120.687   4
  13   4  -7 9940.21 390.807   4
  13   4  -6 640.452 90.8491   4
  13   4  -5 5331.72 273.008   4
  13   4  -4 483.360 74.8430   4
   0   0   0    0.00    0.00   0
TITL LX150518-1 in P2(1)
REM P2(1) (#4 in standard setting)
CELL 1.54184  11.196953  11.955050  14.102225  90.0000 108.3162  90.0000
ZERR    3.00   0.000135   0.000126   0.000175   0.0000   0.0013   0.0000
LATT -1
SYMM -x, y+1/2,-z
SFAC C H N O Si S
UNIT 72.00 60.00 6.00 6.00 3.00 3.00
TREF
HKLF 4
END
;
_shelx_hkl_checksum              86564
loop_
_space_group_symop_operation_xyz
'x, y, z'
'-x, y+1/2, -z'
loop_
_atom_site_label
_atom_site_type_symbol
_atom_site_fract_x
_atom_site_fract_y
_atom_site_fract_z
_atom_site_U_iso_or_equiv
_atom_site_adp_type
_atom_site_occupancy
_atom_site_site_symmetry_order
_atom_site_calc_flag
_atom_site_refinement_flags_posn
_atom_site_refinement_flags_adp
_atom_site_refinement_flags_occupancy
_atom_site_disorder_assembly
_atom_site_disorder_group
S2 S 0.22590(10) 1.07782(11) 1.12679(9) 0.0557(3) Uani 1 1 d . . . . .
Si1 Si 0.18589(11) 0.31926(12) 0.36183(9) 0.0490(3) Uani 1 1 d . . . . .
O1 O 0.1837(3) 0.4094(3) 0.4522(2) 0.0488(8) Uani 1 1 d . . . . .
N3 N 0.2841(3) 0.9889(4) 1.0636(3) 0.0475(10) Uani 1 1 d . U . . .
C11 C 0.2019(4) 0.4768(4) 0.6168(3) 0.0410(10) Uani 1 1 d . . . . .
H11 H 0.1487 0.4822 0.6601 0.049 Uiso 1 1 calc R U . . .
N2 N 0.3290(3) 0.4374(3) 0.6807(3) 0.0451(9) Uani 1 1 d . . . . .
H2 H 0.3196 0.3623 0.7054 0.054 Uiso 1 1 calc R U . . .
O3 O 0.2764(4) 1.0486(4) 1.2291(3) 0.0764(13) Uani 1 1 d . . . . .
O2 O 0.2470(4) 1.1859(3) 1.0962(4) 0.0746(12) Uani 1 1 d . . . . .
C1 C 0.1387(4) 0.3912(4) 0.5335(3) 0.0419(10) Uani 1 1 d . . . . .
H1 H 0.1604 0.3151 0.5591 0.050 Uiso 1 1 calc R U . . .
C20 C 0.3166(4) 0.8094(5) 0.9354(3) 0.0498(12) Uani 1 1 d . . . . .
H20 H 0.2288 0.7846 0.9111 0.060 Uiso 1 1 calc R U . . .
C13 C 0.3550(4) 0.6303(5) 0.6199(3) 0.0506(12) Uani 1 1 d . . . . .
H13 H 0.3649 0.7051 0.5949 0.061 Uiso 1 1 calc R U . . .
C15 C 0.3749(4) 0.5147(4) 0.7692(3) 0.0469(12) Uani 1 1 d . . . . .
H15A H 0.4517 0.4853 0.8159 0.056 Uiso 1 1 calc R U . . .
H15B H 0.3121 0.5197 0.8033 0.056 Uiso 1 1 calc R U . . .
C12 C 0.2153(4) 0.5959(4) 0.5796(4) 0.0486(12) Uani 1 1 d . . . . .
H12A H 0.1643 0.6477 0.6033 0.058 Uiso 1 1 calc R U . . .
H12B H 0.1868 0.5976 0.5072 0.058 Uiso 1 1 calc R U . . .
C33 C 0.0165(5) 0.9700(6) 1.1381(5) 0.0679(16) Uani 1 1 d . . . . .
H33 H 0.0669 0.9388 1.1977 0.081 Uiso 1 1 calc R U . . .
C23 C 0.3622(5) 0.8002(5) 1.0493(4) 0.0535(13) Uani 1 1 d . . . . .
H23A H 0.3596 0.7226 1.0683 0.064 Uiso 1 1 calc R U . . .
H23B H 0.4488 0.8254 1.0747 0.064 Uiso 1 1 calc R U . . .
C2 C -0.0038(4) 0.4076(5) 0.5046(4) 0.0525(12) Uani 1 1 d . . . . .
C24 C 0.2820(5) 0.8696(5) 1.0956(4) 0.0562(13) Uani 1 1 d . U . . .
H24A H 0.1963 0.8417 1.0741 0.067 Uiso 1 1 calc R U . . .
H24B H 0.3145 0.8644 1.1678 0.067 Uiso 1 1 calc R U . . .
C14 C 0.3998(4) 0.6322(4) 0.7335(3) 0.0474(11) Uani 1 1 d . . . . .
H14 H 0.4909 0.6445 0.7559 0.057 Uiso 1 1 calc R U . . .
C3 C -0.0751(5) 0.3577(5) 0.5594(4) 0.0586(13) Uani 1 1 d . . . . .
C29 C -0.0140(5) 1.1023(6) 1.0024(5) 0.0658(16) Uani 1 1 d . . . . .
H29 H 0.0169 1.1581 0.9705 0.079 Uiso 1 1 calc R U . . .
C18 C 0.3403(5) 0.7244(5) 0.7772(4) 0.0572(14) Uani 1 1 d . . . . .
H18A H 0.2505 0.7111 0.7588 0.069 Uiso 1 1 calc R U . . .
H18B H 0.3527 0.7952 0.7481 0.069 Uiso 1 1 calc R U . . .
C10 C -0.0649(5) 0.4748(6) 0.4248(4) 0.0637(16) Uani 1 1 d . . . . .
H10 H -0.0210 0.5106 0.3875 0.076 Uiso 1 1 calc R U . . .
C22 C 0.2447(5) 1.0047(5) 0.9553(4) 0.0540(13) Uani 1 1 d . . . . .
H22A H 0.2557 1.0824 0.9403 0.065 Uiso 1 1 calc R U . . .
H22B H 0.1561 0.9864 0.9271 0.065 Uiso 1 1 calc R U . . .
C28 C 0.0637(4) 1.0513(5) 1.0879(4) 0.0528(13) Uani 1 1 d . . . . .
C7 C -0.2829(5) 0.3257(7) 0.5802(5) 0.0929(16) Uani 1 1 d . U . . .
H7 H -0.3686 0.3410 0.5608 0.111 Uiso 1 1 calc R U . . .
C8 C -0.2072(5) 0.3772(6) 0.5292(5) 0.0759(14) Uani 1 1 d . U . . .
C21 C 0.3210(5) 0.9310(5) 0.9085(4) 0.0580(13) Uani 1 1 d . . . . .
H21A H 0.2890 0.9390 0.8365 0.070 Uiso 1 1 calc R U . . .
H21B H 0.4077 0.9562 0.9304 0.070 Uiso 1 1 calc R U . . .
C19 C 0.3938(5) 0.7332(5) 0.8909(4) 0.0567(14) Uani 1 1 d . . . . .
H19A H 0.3970 0.6591 0.9196 0.068 Uiso 1 1 calc R U . . .
H19B H 0.4792 0.7615 0.9087 0.068 Uiso 1 1 calc R U . . .
C4 C -0.0249(5) 0.2840(6) 0.6414(4) 0.0705(17) Uani 1 1 d . . . . .
H4 H 0.0611 0.2697 0.6624 0.085 Uiso 1 1 calc R U . . .
C17 C 0.4299(5) 0.5469(6) 0.5798(4) 0.0621(15) Uani 1 1 d . . . . .
H17A H 0.5166 0.5714 0.5960 0.074 Uiso 1 1 calc R U . . .
H17B H 0.3946 0.5415 0.5077 0.074 Uiso 1 1 calc R U . . .
C16 C 0.4243(4) 0.4318(5) 0.6278(4) 0.0572(14) Uani 1 1 d . . . . .
H16A H 0.4015 0.3744 0.5766 0.069 Uiso 1 1 calc R U . . .
H16B H 0.5060 0.4133 0.6745 0.069 Uiso 1 1 calc R U . . .
N1 N -0.2645(5) 0.4470(6) 0.4503(5) 0.0892(16) Uani 1 1 d . U . . .
C30 C -0.1389(5) 1.0684(6) 0.9651(5) 0.0727(18) Uani 1 1 d . . . . .
H30 H -0.1916 1.1029 0.9082 0.087 Uiso 1 1 calc R U . . .
C34 C -0.3194(6) 0.9463(8) 0.9652(8) 0.102(3) Uani 1 1 d . . . . .
H34A H -0.3760 1.0044 0.9708 0.153 Uiso 1 1 calc R U . . .
H34B H -0.3325 0.8810 1.0004 0.153 Uiso 1 1 calc R U . . .
H34C H -0.3348 0.9282 0.8961 0.153 Uiso 1 1 calc R U . . .
C31 C -0.1857(5) 0.9860(6) 1.0099(5) 0.0761(18) Uani 1 1 d . . . . .
C32 C -0.1093(5) 0.9371(7) 1.0956(5) 0.0811(19) Uani 1 1 d . . . . .
H32 H -0.1417 0.8809 1.1261 0.097 Uiso 1 1 calc R U . . .
C6 C -0.2326(6) 0.2548(8) 0.6562(5) 0.1029(18) Uani 1 1 d . U . . .
H6 H -0.2845 0.2194 0.6870 0.123 Uiso 1 1 calc R U . . .
C5 C -0.0981(6) 0.2329(7) 0.6909(5) 0.0856(17) Uani 1 1 d . U . . .
H5 H -0.0627 0.1858 0.7450 0.103 Uiso 1 1 calc R U . . .
C9 C -0.1948(6) 0.4874(7) 0.4017(6) 0.085(2) Uani 1 1 d . . . . .
H9 H -0.2351 0.5294 0.3452 0.102 Uiso 1 1 calc R U . . .
Cl1 Cl 0.69334(16) 0.72194(14) 0.21784(13) 0.0830(5) Uani 1 1 d D . . . .
C25' C 0.097(4) 0.202(2) 0.378(2) 0.147(3) Uani 0.244(9) 1 d . . P A 2
H25A H 0.1399 0.1665 0.4409 0.220 Uiso 0.244(9) 1 calc R U P A 2
H25B H 0.0880 0.1501 0.3248 0.220 Uiso 0.244(9) 1 calc R U P A 2
H25C H 0.0156 0.2267 0.3786 0.220 Uiso 0.244(9) 1 calc R U P A 2
C27' C 0.344(2) 0.262(3) 0.3923(19) 0.106(3) Uani 0.244(9) 1 d . . P A 2
H27A H 0.4044 0.3198 0.4184 0.159 Uiso 0.244(9) 1 calc R U P A 2
H27B H 0.3560 0.2308 0.3332 0.159 Uiso 0.244(9) 1 calc R U P A 2
H27C H 0.3543 0.2038 0.4415 0.159 Uiso 0.244(9) 1 calc R U P A 2
C26' C 0.137(4) 0.409(5) 0.252(2) 0.151(5) Uani 0.244(9) 1 d . . P A 2
H26A H 0.0923 0.3658 0.1944 0.226 Uiso 0.244(9) 1 calc R U P A 2
H26B H 0.2096 0.4426 0.2411 0.226 Uiso 0.244(9) 1 calc R U P A 2
H26C H 0.0827 0.4673 0.2621 0.226 Uiso 0.244(9) 1 calc R U P A 2
C27 C 0.3457(8) 0.3304(10) 0.3469(6) 0.106(3) Uani 0.756(9) 1 d . . P A 1
H27D H 0.3591 0.4056 0.3285 0.159 Uiso 0.756(9) 1 calc R U P A 1
H27E H 0.3515 0.2799 0.2956 0.159 Uiso 0.756(9) 1 calc R U P A 1
H27F H 0.4084 0.3115 0.4088 0.159 Uiso 0.756(9) 1 calc R U P A 1
C25 C 0.1566(13) 0.1770(8) 0.3965(8) 0.147(3) Uani 0.756(9) 1 d . . P A 1
H25D H 0.0880 0.1776 0.4235 0.220 Uiso 0.756(9) 1 calc R U P A 1
H25E H 0.2307 0.1488 0.4456 0.220 Uiso 0.756(9) 1 calc R U P A 1
H25F H 0.1358 0.1300 0.3384 0.220 Uiso 0.756(9) 1 calc R U P A 1
C26 C 0.0664(13) 0.3625(17) 0.2430(7) 0.151(5) Uani 0.756(9) 1 d . . P A 1
H26D H -0.0108 0.3233 0.2353 0.226 Uiso 0.756(9) 1 calc R U P A 1
H26E H 0.0963 0.3451 0.1879 0.226 Uiso 0.756(9) 1 calc R U P A 1
H26F H 0.0521 0.4416 0.2443 0.226 Uiso 0.756(9) 1 calc R U P A 1
O4 O 0.4992(4) 0.6164(7) 0.3213(3) 0.201(4) Uani 1 1 d D U . . .
H4B H 0.5456(3) 0.6451(6) 0.2899(2) 0.242 Uiso 1 1 d D U . . .
H4A H 0.5379(10) 0.6174(16) 0.3836(2) 0.242 Uiso 1 1 d D U . . .
loop_
_atom_site_aniso_label
_atom_site_aniso_U_11
_atom_site_aniso_U_22
_atom_site_aniso_U_33
_atom_site_aniso_U_23
_atom_site_aniso_U_13
_atom_site_aniso_U_12
S2 0.0483(5) 0.0585(6) 0.0607(5) -0.0223(5) 0.0176(4) -0.0093(5)
Si1 0.0488(5) 0.0531(7) 0.0463(5) -0.0060(5) 0.0165(4) 0.0011(5)
O1 0.0511(14) 0.0503(18) 0.0472(13) -0.0059(13) 0.0187(11) 0.0000(13)
N3 0.0449(16) 0.0483(19) 0.0507(17) -0.0091(15) 0.0169(13) -0.0005(15)
C11 0.0346(16) 0.046(2) 0.0396(17) -0.0053(16) 0.0075(14) 0.0068(16)
N2 0.0458(16) 0.0437(19) 0.0436(16) -0.0028(15) 0.0112(13) 0.0018(15)
O3 0.075(2) 0.094(3) 0.0561(17) -0.0298(18) 0.0135(16) 0.000(2)
O2 0.074(2) 0.050(2) 0.106(3) -0.0178(19) 0.0378(17) -0.0172(17)
C1 0.0402(17) 0.042(2) 0.0419(18) -0.0083(16) 0.0107(14) 0.0007(17)
C20 0.0430(18) 0.055(2) 0.053(2) -0.012(2) 0.0174(15) -0.0083(19)
C13 0.051(2) 0.054(3) 0.048(2) -0.0028(19) 0.0167(16) -0.001(2)
C15 0.045(2) 0.053(2) 0.0394(18) -0.0048(18) 0.0082(16) -0.0008(19)
C12 0.049(2) 0.037(2) 0.052(2) -0.0023(18) 0.0052(18) 0.0052(18)
C33 0.056(2) 0.072(4) 0.081(3) 0.004(3) 0.029(2) 0.002(3)
C23 0.052(2) 0.045(2) 0.058(2) -0.004(2) 0.0102(19) 0.000(2)
C2 0.0431(19) 0.061(3) 0.051(2) -0.0214(19) 0.0118(16) -0.003(2)
C24 0.063(2) 0.060(3) 0.047(2) -0.006(2) 0.0195(17) -0.011(2)
C14 0.0390(17) 0.050(2) 0.052(2) -0.0092(19) 0.0130(15) -0.0039(18)
C3 0.047(2) 0.067(3) 0.063(2) -0.030(2) 0.0182(17) -0.008(2)
C29 0.051(2) 0.070(4) 0.081(3) -0.003(3) 0.026(2) 0.006(2)
C18 0.061(2) 0.053(3) 0.055(2) -0.002(2) 0.0138(19) 0.012(2)
C10 0.045(2) 0.079(4) 0.059(3) -0.006(3) 0.006(2) 0.012(2)
C22 0.062(2) 0.049(3) 0.055(2) 0.000(2) 0.0231(17) 0.005(2)
C28 0.0417(18) 0.062(3) 0.058(2) -0.008(2) 0.0200(15) 0.0004(19)
C7 0.054(2) 0.144(4) 0.095(2) -0.066(2) 0.0429(15) -0.029(2)
C8 0.048(2) 0.096(3) 0.087(2) -0.0489(19) 0.0270(17) -0.014(2)
C21 0.064(2) 0.059(3) 0.056(2) 0.000(2) 0.0263(17) 0.016(2)
C19 0.053(2) 0.050(3) 0.065(3) -0.010(2) 0.0135(19) 0.001(2)
C4 0.066(3) 0.087(4) 0.064(2) -0.022(3) 0.0293(19) -0.027(3)
C17 0.055(2) 0.077(4) 0.060(2) -0.005(2) 0.0279(17) -0.001(2)
C16 0.0421(19) 0.067(3) 0.061(2) -0.010(2) 0.0129(17) 0.014(2)
N1 0.045(2) 0.118(4) 0.096(3) -0.043(2) 0.011(2) 0.001(2)
C30 0.055(2) 0.074(4) 0.082(3) -0.006(3) 0.011(2) 0.012(3)
C34 0.051(3) 0.098(5) 0.151(6) -0.045(4) 0.023(3) -0.013(3)
C31 0.042(2) 0.082(4) 0.107(4) -0.036(3) 0.026(2) -0.003(2)
C32 0.064(2) 0.082(4) 0.112(4) -0.018(3) 0.048(2) -0.010(3)
C6 0.095(2) 0.134(5) 0.107(3) -0.058(2) 0.0712(19) -0.053(3)
C5 0.107(3) 0.082(4) 0.088(3) -0.022(3) 0.060(2) -0.024(3)
C9 0.053(3) 0.100(5) 0.089(4) -0.028(3) 0.005(3) 0.015(3)
Cl1 0.0899(9) 0.0629(8) 0.0897(9) -0.0222(7) 0.0188(7) 0.0049(7)
C25' 0.302(8) 0.038(4) 0.176(4) -0.025(3) 0.185(4) -0.006(5)
C27' 0.098(4) 0.135(7) 0.118(4) -0.074(3) 0.081(2) -0.036(4)
C26' 0.141(9) 0.244(13) 0.050(4) -0.005(6) 0.007(5) 0.091(8)
C27 0.098(4) 0.135(7) 0.118(4) -0.074(3) 0.081(2) -0.036(4)
C25 0.302(8) 0.038(4) 0.176(4) -0.025(3) 0.185(4) -0.006(5)
C26 0.141(9) 0.244(13) 0.050(4) -0.005(6) 0.007(5) 0.091(8)
O4 0.162(5) 0.216(8) 0.249(7) 0.005(6) 0.097(4) 0.012(5)
loop_
_atom_type_symbol
_atom_type_description
_atom_type_scat_dispersion_real
_atom_type_scat_dispersion_imag
_atom_type_scat_source
C C 0.0181 0.0091 'International Tables Vol C Tables 4.2.6.8 and 6.1.1.4'
H H 0.0000 0.0000 'International Tables Vol C Tables 4.2.6.8 and 6.1.1.4'
N N 0.0311 0.0180 'International Tables Vol C Tables 4.2.6.8 and 6.1.1.4'
O O 0.0492 0.0322 'International Tables Vol C Tables 4.2.6.8 and 6.1.1.4'
Si Si 0.2541 0.3302 'International Tables Vol C Tables 4.2.6.8 and 6.1.1.4'
S S 0.3331 0.5567 'International Tables Vol C Tables 4.2.6.8 and 6.1.1.4'
Cl Cl 0.3639 0.7018 'International Tables Vol C Tables 4.2.6.8 and 6.1.1.4'
loop_
_geom_angle_atom_site_label_1
_geom_angle_atom_site_label_2
_geom_angle_atom_site_label_3
_geom_angle
_geom_angle_site_symmetry_1
_geom_angle_site_symmetry_3
O2 S2 O3 119.1(3) . .
O2 S2 N3 107.1(3) . .
O3 S2 N3 107.0(2) . .
O2 S2 C28 109.1(3) . .
O3 S2 C28 108.5(3) . .
N3 S2 C28 105.2(2) . .
O1 Si1 C25' 105.3(11) . .
O1 Si1 C27' 108.0(9) . .
C25' Si1 C27' 102.3(17) . .
O1 Si1 C26' 101.2(16) . .
C25' Si1 C26' 123(2) . .
C27' Si1 C26' 115.8(18) . .
O1 Si1 C25 110.4(4) . .
O1 Si1 C26 109.2(5) . .
C25 Si1 C26 111.2(7) . .
O1 Si1 C27 106.4(3) . .
C25 Si1 C27 110.8(6) . .
C26 Si1 C27 108.7(6) . .
C1 O1 Si1 128.0(3) . .
C22 N3 C24 114.1(4) . .
C22 N3 S2 116.2(3) . .
C24 N3 S2 113.9(3) . .
N2 C11 C12 108.6(3) . .
N2 C11 C1 111.6(4) . .
C12 C11 C1 115.0(3) . .
N2 C11 H11 107.1 . .
C12 C11 H11 107.1 . .
C1 C11 H11 107.1 . .
C16 N2 C11 114.1(3) . .
C16 N2 C15 109.4(4) . .
C11 N2 C15 108.4(3) . .
C16 N2 H2 108.2 . .
C11 N2 H2 108.2 . .
C15 N2 H2 108.2 . .
O1 C1 C2 111.9(3) . .
O1 C1 C11 108.7(4) . .
C2 C1 C11 107.8(4) . .
O1 C1 H1 109.5 . .
C2 C1 H1 109.5 . .
C11 C1 H1 109.5 . .
C21 C20 C19 114.0(4) . .
C21 C20 C23 107.9(4) . .
C19 C20 C23 110.2(4) . .
C21 C20 H20 108.2 . .
C19 C20 H20 108.2 . .
C23 C20 H20 108.2 . .
C17 C13 C14 111.3(4) . .
C17 C13 C12 107.6(4) . .
C14 C13 C12 110.6(4) . .
C17 C13 H13 109.1 . .
C14 C13 H13 109.1 . .
C12 C13 H13 109.1 . .
N2 C15 C14 109.7(4) . .
N2 C15 H15A 109.7 . .
C14 C15 H15A 109.7 . .
N2 C15 H15B 109.7 . .
C14 C15 H15B 109.7 . .
H15A C15 H15B 108.2 . .
C11 C12 C13 108.5(4) . .
C11 C12 H12A 110.0 . .
C13 C12 H12A 110.0 . .
C11 C12 H12B 110.0 . .
C13 C12 H12B 110.0 . .
H12A C12 H12B 108.4 . .
C28 C33 C32 117.8(6) . .
C28 C33 H33 121.1 . .
C32 C33 H33 121.1 . .
C24 C23 C20 111.5(4) . .
C24 C23 H23A 109.3 . .
C20 C23 H23A 109.3 . .
C24 C23 H23B 109.3 . .
C20 C23 H23B 109.3 . .
H23A C23 H23B 108.0 . .
C10 C2 C3 118.3(5) . .
C10 C2 C1 120.1(5) . .
C3 C2 C1 121.6(4) . .
N3 C24 C23 108.9(4) . .
N3 C24 H24A 109.9 . .
C23 C24 H24A 109.9 . .
N3 C24 H24B 109.9 . .
C23 C24 H24B 109.9 . .
H24A C24 H24B 108.3 . .
C18 C14 C13 113.5(4) . .
C18 C14 C15 112.4(4) . .
C13 C14 C15 107.2(4) . .
C18 C14 H14 107.9 . .
C13 C14 H14 107.9 . .
C15 C14 H14 107.9 . .
C2 C3 C4 124.1(5) . .
C2 C3 C8 118.9(5) . .
C4 C3 C8 116.9(6) . .
C28 C29 C30 118.8(6) . .
C28 C29 H29 120.6 . .
C30 C29 H29 120.6 . .
C14 C18 C19 113.5(4) . .
C14 C18 H18A 108.9 . .
C19 C18 H18A 108.9 . .
C14 C18 H18B 108.9 . .
C19 C18 H18B 108.9 . .
H18A C18 H18B 107.7 . .
C2 C10 C9 117.9(6) . .
C2 C10 H10 121.1 . .
C9 C10 H10 121.1 . .
N3 C22 C21 110.7(4) . .
N3 C22 H22A 109.5 . .
C21 C22 H22A 109.5 . .
N3 C22 H22B 109.5 . .
C21 C22 H22B 109.5 . .
H22A C22 H22B 108.1 . .
C29 C28 C33 120.8(5) . .
C29 C28 S2 119.8(4) . .
C33 C28 S2 119.0(4) . .
C6 C7 C8 120.9(6) . .
C6 C7 H7 119.6 . .
C8 C7 H7 119.6 . .
N1 C8 C7 118.3(5) . .
N1 C8 C3 121.1(6) . .
C7 C8 C3 120.6(6) . .
C20 C21 C22 112.6(5) . .
C20 C21 H21A 109.1 . .
C22 C21 H21A 109.1 . .
C20 C21 H21B 109.1 . .
C22 C21 H21B 109.1 . .
H21A C21 H21B 107.8 . .
C20 C19 C18 112.8(4) . .
C20 C19 H19A 109.0 . .
C18 C19 H19A 109.0 . .
C20 C19 H19B 109.0 . .
C18 C19 H19B 109.0 . .
H19A C19 H19B 107.8 . .
C5 C4 C3 122.8(6) . .
C5 C4 H4 118.6 . .
C3 C4 H4 118.6 . .
C13 C17 C16 108.6(5) . .
C13 C17 H17A 110.0 . .
C16 C17 H17A 110.0 . .
C13 C17 H17B 110.0 . .
C16 C17 H17B 110.0 . .
H17A C17 H17B 108.4 . .
N2 C16 C17 108.4(4) . .
N2 C16 H16A 110.0 . .
C17 C16 H16A 110.0 . .
N2 C16 H16B 110.0 . .
C17 C16 H16B 110.0 . .
H16A C16 H16B 108.4 . .
C9 N1 C8 116.9(5) . .
C31 C30 C29 121.6(6) . .
C31 C30 H30 119.2 . .
C29 C30 H30 119.2 . .
C31 C34 H34A 109.5 . .
C31 C34 H34B 109.5 . .
H34A C34 H34B 109.5 . .
C31 C34 H34C 109.5 . .
H34A C34 H34C 109.5 . .
H34B C34 H34C 109.5 . .
C30 C31 C32 119.5(5) . .
C30 C31 C34 120.7(6) . .
C32 C31 C34 119.8(7) . .
C31 C32 C33 121.4(7) . .
C31 C32 H32 119.3 . .
C33 C32 H32 119.3 . .
C7 C6 C5 120.9(7) . .
C7 C6 H6 119.6 . .
C5 C6 H6 119.6 . .
C4 C5 C6 117.9(6) . .
C4 C5 H5 121.0 . .
C6 C5 H5 121.0 . .
N1 C9 C10 126.8(7) . .
N1 C9 H9 116.6 . .
C10 C9 H9 116.6 . .
Si1 C25' H25A 109.5 . .
Si1 C25' H25B 109.5 . .
H25A C25' H25B 109.5 . .
Si1 C25' H25C 109.5 . .
H25A C25' H25C 109.5 . .
H25B C25' H25C 109.5 . .
Si1 C27' H27A 109.5 . .
Si1 C27' H27B 109.5 . .
H27A C27' H27B 109.5 . .
Si1 C27' H27C 109.5 . .
H27A C27' H27C 109.5 . .
H27B C27' H27C 109.5 . .
Si1 C26' H26A 109.5 . .
Si1 C26' H26B 109.5 . .
H26A C26' H26B 109.5 . .
Si1 C26' H26C 109.5 . .
H26A C26' H26C 109.5 . .
H26B C26' H26C 109.5 . .
Si1 C27 H27D 109.5 . .
Si1 C27 H27E 109.5 . .
H27D C27 H27E 109.5 . .
Si1 C27 H27F 109.5 . .
H27D C27 H27F 109.5 . .
H27E C27 H27F 109.5 . .
Si1 C25 H25D 109.5 . .
Si1 C25 H25E 109.5 . .
H25D C25 H25E 109.5 . .
Si1 C25 H25F 109.5 . .
H25D C25 H25F 109.5 . .
H25E C25 H25F 109.5 . .
Si1 C26 H26D 109.5 . .
Si1 C26 H26E 109.5 . .
H26D C26 H26E 109.5 . .
Si1 C26 H26F 109.5 . .
H26D C26 H26F 109.5 . .
H26E C26 H26F 109.5 . .
H4B O4 H4A 109.6(9) . .
loop_
_geom_bond_atom_site_label_1
_geom_bond_atom_site_label_2
_geom_bond_distance
_geom_bond_site_symmetry_2
S2 O2 1.406(5) .
S2 O3 1.419(4) .
S2 N3 1.647(4) .
S2 C28 1.753(5) .
Si1 O1 1.675(4) .
Si1 C25' 1.77(4) .
Si1 C27' 1.82(3) .
Si1 C26' 1.83(4) .
Si1 C25 1.827(10) .
Si1 C26 1.859(11) .
Si1 C27 1.871(9) .
O1 C1 1.406(6) .
N3 C22 1.462(6) .
N3 C24 1.499(7) .
C11 N2 1.501(5) .
C11 C12 1.541(7) .
C11 C1 1.551(6) .
C11 H11 0.9800 .
N2 C16 1.483(7) .
N2 C15 1.508(6) .
N2 H2 0.9800 .
C1 C2 1.531(6) .
C1 H1 0.9800 .
C20 C21 1.507(8) .
C20 C19 1.520(8) .
C20 C23 1.529(7) .
C20 H20 0.9800 .
C13 C17 1.521(8) .
C13 C14 1.522(6) .
C13 C12 1.542(6) .
C13 H13 0.9800 .
C15 C14 1.547(7) .
C15 H15A 0.9700 .
C15 H15B 0.9700 .
C12 H12A 0.9700 .
C12 H12B 0.9700 .
C33 C28 1.401(9) .
C33 C32 1.403(8) .
C33 H33 0.9300 .
C23 C24 1.513(8) .
C23 H23A 0.9700 .
C23 H23B 0.9700 .
C2 C10 1.378(8) .
C2 C3 1.406(8) .
C24 H24A 0.9700 .
C24 H24B 0.9700 .
C14 C18 1.515(8) .
C14 H14 0.9800 .
C3 C4 1.422(8) .
C3 C8 1.424(7) .
C29 C28 1.387(8) .
C29 C30 1.391(8) .
C29 H29 0.9300 .
C18 C19 1.528(7) .
C18 H18A 0.9700 .
C18 H18B 0.9700 .
C10 C9 1.394(8) .
C10 H10 0.9300 .
C22 C21 1.515(8) .
C22 H22A 0.9700 .
C22 H22B 0.9700 .
C7 C6 1.343(11) .
C7 C8 1.412(10) .
C7 H7 0.9300 .
C8 N1 1.377(9) .
C21 H21A 0.9700 .
C21 H21B 0.9700 .
C19 H19A 0.9700 .
C19 H19B 0.9700 .
C4 C5 1.376(10) .
C4 H4 0.9300 .
C17 C16 1.542(9) .
C17 H17A 0.9700 .
C17 H17B 0.9700 .
C16 H16A 0.9700 .
C16 H16B 0.9700 .
N1 C9 1.284(10) .
C30 C31 1.362(10) .
C30 H30 0.9300 .
C34 C31 1.506(8) .
C34 H34A 0.9600 .
C34 H34B 0.9600 .
C34 H34C 0.9600 .
C31 C32 1.373(10) .
C32 H32 0.9300 .
C6 C5 1.453(10) .
C6 H6 0.9300 .
C5 H5 0.9300 .
C9 H9 0.9300 .
C25' H25A 0.9600 .
C25' H25B 0.9600 .
C25' H25C 0.9600 .
C27' H27A 0.9600 .
C27' H27B 0.9600 .
C27' H27C 0.9600 .
C26' H26A 0.9600 .
C26' H26B 0.9600 .
C26' H26C 0.9600 .
C27 H27D 0.9600 .
C27 H27E 0.9600 .
C27 H27F 0.9600 .
C25 H25D 0.9600 .
C25 H25E 0.9600 .
C25 H25F 0.9600 .
C26 H26D 0.9600 .
C26 H26E 0.9600 .
C26 H26F 0.9600 .
O4 H4B 0.852(5) .
O4 H4A 0.850(4) .
loop_
_geom_hbond_atom_site_label_D
_geom_hbond_atom_site_label_H
_geom_hbond_atom_site_label_A
_geom_hbond_distance_DH
_geom_hbond_distance_HA
_geom_hbond_distance_DA
_geom_hbond_angle_DHA
_geom_hbond_site_symmetry_A
N2 H2 Cl1 0.98 2.03 2.995(4) 169.0 2_646
O4 H4B Cl1 0.852(5) 2.382(4) 3.230(5) 174.0(4) .
O4 H4A N1 0.850(4) 2.936(17) 3.375(9) 114.2(14) 1_655
loop_
_geom_torsion_atom_site_label_1
_geom_torsion_atom_site_label_2
_geom_torsion_atom_site_label_3
_geom_torsion_atom_site_label_4
_geom_torsion
_geom_torsion_site_symmetry_1
_geom_torsion_site_symmetry_2
_geom_torsion_site_symmetry_3
_geom_torsion_site_symmetry_4
C25' Si1 O1 C1 8.9(13) . . . .
C27' Si1 O1 C1 -99.9(12) . . . .
C26' Si1 O1 C1 138.0(16) . . . .
C25 Si1 O1 C1 -14.1(6) . . . .
C26 Si1 O1 C1 108.4(7) . . . .
C27 Si1 O1 C1 -134.4(5) . . . .
O2 S2 N3 C22 -50.7(4) . . . .
O3 S2 N3 C22 -179.5(4) . . . .
C28 S2 N3 C22 65.3(4) . . . .
O2 S2 N3 C24 173.6(3) . . . .
O3 S2 N3 C24 44.9(4) . . . .
C28 S2 N3 C24 -70.4(4) . . . .
C12 C11 N2 C16 -60.8(5) . . . .
C1 C11 N2 C16 67.0(5) . . . .
C12 C11 N2 C15 61.4(5) . . . .
C1 C11 N2 C15 -170.8(4) . . . .
Si1 O1 C1 C2 -83.2(5) . . . .
Si1 O1 C1 C11 157.8(3) . . . .
N2 C11 C1 O1 -83.8(4) . . . .
C12 C11 C1 O1 40.4(5) . . . .
N2 C11 C1 C2 154.6(4) . . . .
C12 C11 C1 C2 -81.1(5) . . . .
C16 N2 C15 C14 58.3(5) . . . .
C11 N2 C15 C14 -66.7(5) . . . .
N2 C11 C12 C13 1.1(5) . . . .
C1 C11 C12 C13 -124.7(4) . . . .
C17 C13 C12 C11 60.1(5) . . . .
C14 C13 C12 C11 -61.7(5) . . . .
C21 C20 C23 C24 58.5(5) . . . .
C19 C20 C23 C24 -176.4(4) . . . .
O1 C1 C2 C10 -24.5(7) . . . .
C11 C1 C2 C10 95.0(5) . . . .
O1 C1 C2 C3 157.2(5) . . . .
C11 C1 C2 C3 -83.3(6) . . . .
C22 N3 C24 C23 55.7(5) . . . .
S2 N3 C24 C23 -167.7(3) . . . .
C20 C23 C24 N3 -57.6(5) . . . .
C17 C13 C14 C18 172.4(5) . . . .
C12 C13 C14 C18 -68.0(6) . . . .
C17 C13 C14 C15 -62.9(5) . . . .
C12 C13 C14 C15 56.7(5) . . . .
N2 C15 C14 C18 131.4(4) . . . .
N2 C15 C14 C13 6.1(5) . . . .
C10 C2 C3 C4 178.0(6) . . . .
C1 C2 C3 C4 -3.6(8) . . . .
C10 C2 C3 C8 1.0(8) . . . .
C1 C2 C3 C8 179.4(5) . . . .
C13 C14 C18 C19 -174.8(5) . . . .
C15 C14 C18 C19 63.4(6) . . . .
C3 C2 C10 C9 -1.4(9) . . . .
C1 C2 C10 C9 -179.8(5) . . . .
C24 N3 C22 C21 -54.0(6) . . . .
S2 N3 C22 C21 170.5(4) . . . .
C30 C29 C28 C33 -2.3(9) . . . .
C30 C29 C28 S2 171.1(5) . . . .
C32 C33 C28 C29 3.9(9) . . . .
C32 C33 C28 S2 -169.5(5) . . . .
O2 S2 C28 C29 29.4(6) . . . .
O3 S2 C28 C29 160.6(5) . . . .
N3 S2 C28 C29 -85.2(5) . . . .
O2 S2 C28 C33 -157.1(5) . . . .
O3 S2 C28 C33 -25.9(6) . . . .
N3 S2 C28 C33 88.3(5) . . . .
C6 C7 C8 N1 178.5(7) . . . .
C6 C7 C8 C3 -1.9(11) . . . .
C2 C3 C8 N1 -2.5(9) . . . .
C4 C3 C8 N1 -179.7(6) . . . .
C2 C3 C8 C7 177.9(6) . . . .
C4 C3 C8 C7 0.7(9) . . . .
C19 C20 C21 C22 -179.2(4) . . . .
C23 C20 C21 C22 -56.4(5) . . . .
N3 C22 C21 C20 54.7(5) . . . .
C21 C20 C19 C18 -67.5(6) . . . .
C23 C20 C19 C18 171.0(5) . . . .
C14 C18 C19 C20 -168.6(5) . . . .
C2 C3 C4 C5 -177.3(6) . . . .
C8 C3 C4 C5 -0.2(9) . . . .
C14 C13 C17 C16 54.0(5) . . . .
C12 C13 C17 C16 -67.3(5) . . . .
C11 N2 C16 C17 53.9(5) . . . .
C15 N2 C16 C17 -67.8(4) . . . .
C13 C17 C16 N2 10.6(5) . . . .
C7 C8 N1 C9 -176.0(7) . . . .
C3 C8 N1 C9 4.4(10) . . . .
C28 C29 C30 C31 -0.7(10) . . . .
C29 C30 C31 C32 1.9(11) . . . .
C29 C30 C31 C34 -176.7(7) . . . .
C30 C31 C32 C33 -0.2(11) . . . .
C34 C31 C32 C33 178.5(7) . . . .
C28 C33 C32 C31 -2.7(11) . . . .
C8 C7 C6 C5 2.7(12) . . . .
C3 C4 C5 C6 0.9(10) . . . .
C7 C6 C5 C4 -2.2(11) . . . .
C8 N1 C9 C10 -5.1(12) . . . .
C2 C10 C9 N1 3.7(11) . . . .
