#------------------------------------------------------------------------------
#$Date: 2018-01-13 08:30:40 +0200 (Sat, 13 Jan 2018) $
#$Revision: 205177 $
#$URL: file:///home/coder/svn-repositories/cod/cif/1/54/86/1548669.cif $
#------------------------------------------------------------------------------
#
# This file is available in the Crystallography Open Database (COD),
# http://www.crystallography.net/. The original data for this entry
# were provided by IUCr Journals, http://journals.iucr.org/.
#
# The file may be used within the scientific community so long as
# proper attribution is given to the journal article from which the
# data were obtained.
#
data_1548669
loop_
_publ_author_name
'El-Hiti, Gamal A.'
'Mohamed, Hanan A.'
'Abdel-Wahab, Bakr F.'
'Alotaibi, Mohammad Hayal'
'Hegazy, Amany S.'
'Kariuki, Benson M.'
_publ_section_title
;
 Ethyl
 (<i>Z</i>)-2-[2-(4-methylphenyl)hydrazin-1-ylidene]-3-oxo-3-(thiazol-2-ylamino)propanoate
;
_journal_coeditor_code           HB4198
_journal_issue                   1
_journal_name_full               IUCrData
_journal_page_first              x171852
_journal_paper_doi               10.1107/S2414314617018521
_journal_volume                  3
_journal_year                    2018
_chemical_formula_iupac          'C15 H16 N4 O3 S'
_chemical_formula_moiety         'C15 H16 N4 O3 S'
_chemical_formula_sum            'C15 H16 N4 O3 S'
_chemical_formula_weight         332.38
_chemical_name_systematic
'Ethyl (<i>Z</i>)-2-[2-(4-methylphenyl)hydrazin-1-ylidene]-3-oxo-3-(thiazol-2-ylamino)propanoate'
_space_group_crystal_system      orthorhombic
_space_group_IT_number           19
_space_group_name_Hall           'P 2ac 2ab'
_space_group_name_H-M_alt        'P 21 21 21'
_symmetry_space_group_name_Hall  'P 2ac 2ab'
_symmetry_space_group_name_H-M   'P 21 21 21'
_atom_sites_solution_hydrogens   geom
_audit_creation_method           SHELXL-2013
_cell_angle_alpha                90
_cell_angle_beta                 90
_cell_angle_gamma                90
_cell_formula_units_Z            4
_cell_length_a                   5.6487(3)
_cell_length_b                   16.7479(11)
_cell_length_c                   16.9726(14)
_cell_measurement_reflns_used    1846
_cell_measurement_temperature    298(2)
_cell_measurement_theta_max      26.8230
_cell_measurement_theta_min      3.7780
_cell_volume                     1605.67(19)
_computing_cell_refinement
;
CrysAlis PRO (Agilent, 2014)
;
_computing_data_collection
;
CrysAlis PRO (Agilent, 2014)
;
_computing_data_reduction
;
CrysAlis PRO (Agilent, 2014)
;
_computing_molecular_graphics
;
ORTEP-3 for Windows (Farrugia, 2012)
;
_computing_publication_material
;
WinGX (Farrugia, 2012) and <i>CHEMDRAW Ultra</i> (Cambridge Soft,
2001)
;
_computing_structure_refinement  'SHELXL2013 (Sheldrick, 20015)'
_computing_structure_solution
;
SHELXS2013 (Sheldrick, 2008)
;
_diffrn_ambient_temperature      298(2)
_diffrn_measured_fraction_theta_full 0.997
_diffrn_measured_fraction_theta_max 0.869
_diffrn_measurement_device_type  'Agilent SuperNova, Dual, Cu at zero, Atlas'
_diffrn_measurement_method       '\w scans'
_diffrn_radiation_type           MoK\a
_diffrn_radiation_wavelength     0.71073
_diffrn_reflns_av_R_equivalents  0.0218
_diffrn_reflns_limit_h_max       5
_diffrn_reflns_limit_h_min       -7
_diffrn_reflns_limit_k_max       15
_diffrn_reflns_limit_k_min       -23
_diffrn_reflns_limit_l_max       14
_diffrn_reflns_limit_l_min       -22
_diffrn_reflns_number            5888
_diffrn_reflns_theta_full        25.242
_diffrn_reflns_theta_max         29.747
_diffrn_reflns_theta_min         3.418
_diffrn_standards_decay_%        0
_diffrn_standards_interval_count 0
_diffrn_standards_interval_time  0
_diffrn_standards_number         0
_exptl_absorpt_coefficient_mu    0.222
_exptl_absorpt_correction_T_max  1.00000
_exptl_absorpt_correction_T_min  0.75580
_exptl_absorpt_correction_type   multi-scan
_exptl_absorpt_process_details
;
(CrysAlisPro; Agilent 2014)
;
_exptl_crystal_colour            yellow
_exptl_crystal_density_diffrn    1.375
_exptl_crystal_description       block
_exptl_crystal_F_000             696
_exptl_crystal_size_max          0.182
_exptl_crystal_size_mid          0.179
_exptl_crystal_size_min          0.114
_refine_diff_density_max         0.176
_refine_diff_density_min         -0.188
_refine_ls_abs_structure_details
;
Flack <i>x</i> determined
using 863 quotients
[(<i>I</i>^+^)-(<i>I</i>^-^)]/[(<i>I</i>^+^)+(<i>I</i>^-^)]
(Parsons <i>et al.</i>,  2013)
;
_refine_ls_abs_structure_Flack   0.02(5)
_refine_ls_extinction_method     none
_refine_ls_goodness_of_fit_ref   1.072
_refine_ls_hydrogen_treatment    constr
_refine_ls_matrix_type           full
_refine_ls_number_parameters     210
_refine_ls_number_reflns         3601
_refine_ls_number_restraints     0
_refine_ls_restrained_S_all      1.072
_refine_ls_R_factor_all          0.0697
_refine_ls_R_factor_gt           0.0477
_refine_ls_shift/su_max          0.000
_refine_ls_shift/su_mean         0.000
_refine_ls_structure_factor_coef Fsqd
_refine_ls_weighting_details
'w=1/[\s^2^(Fo^2^)+(0.0542P)^2^+0.2718P] where P=(Fo^2^+2Fc^2^)/3'
_refine_ls_weighting_scheme      calc
_refine_ls_wR_factor_gt          0.1135
_refine_ls_wR_factor_ref         0.1297
_reflns_number_gt                2691
_reflns_number_total             3601
_reflns_threshold_expression     'I > 2\s(I)'
_cod_data_source_file            hb4198sup1.cif
_cod_data_source_block           I
_cod_database_code               1548669
_shelx_space_group_comment
;
The symmetry employed for this shelxl refinement is uniquely defined
by the following loop, which should always be used as a source of
symmetry information in preference to the above space-group names.
They are only intended as comments.
;
_shelx_estimated_absorpt_t_min   0.961
_shelx_estimated_absorpt_t_max   0.975
_shelx_hkl_file
;
   0   0   3 21.7894 16.8198   2
   0   0   4 15363.3 237.769   2
   0   0   5 360.694 47.4278   2
   0   0   6 8247.56 215.996   2
   0   0   7 1414.39 105.667   2
   0   0   8 32844.2 493.389   2
   0   0   9 65.7949 31.6237   2
   0   0  10 4538.59 206.743   2
   0   0 -11 209.532 63.0938   2
   0   0  11 74.8800 35.2201   2
   0   0 -12 324.359 71.3469   2
   0   0  12 232.581 54.7232   2
   0   0 -13 225.572 69.1796   2
   0   0  13 141.362 45.5187   2
   0   0 -14 453.278 91.0727   2
   0   0 -15 119.531 59.7154   2
   0   0 -16 784.603 123.038   2
   0   0 -17 21.8147 51.8714   2
   0   0 -18 265.379 79.0686   2
   0   0 -19-17.7170 43.9909   2
   0   0 -20 185.767 77.8259   2
   0   0 -21 28.8747 50.7451   2
   0   1   3 3186.37 95.8978   2
   0  -1   3 3085.85 95.8615   2
   0   1   4 113017. 642.305   2
   0  -1   4 113065. 663.635   2
   0  -1   5 4409.26 143.526   2
   0   1   5 4238.33 139.698   2
   0  -1   6 1109.66 81.8202   2
   0   1   6 1193.43 81.4379   2
   0   1   7 75.8069 26.9888   2
   0  -1   7 112.856 31.6385   2
   0   1   8 15545.7 339.110   2
   0  -1   8 14951.7 336.765   2
   0  -1   9 1804.29 125.503   2
   0   1   9 1914.91 127.666   2
   0  -1  10 23215.4 467.262   2
   0   1  10 22993.3 465.357   2
   0  -1  11 3904.82 201.563   2
   0   1 -11 3670.84 204.407   2
   0   1  11 3624.54 194.419   2
   0  -1  12 3452.08 199.277   2
   0  -1 -12 3137.24 198.828   2
   0   1 -12 3203.83 200.857   2
   0   1  12 3543.15 201.237   2
   0   1 -13 5106.91 265.390   2
   0  -1 -13 4871.81 257.343   2
   0   1  13 5072.69 253.927   2
   0  -1  13 5086.36 252.506   2
   0   1 -14 693.753 105.678   2
   0  -1 -14 751.391 108.367   2
   0   1 -15 158.687 62.3924   2
   0  -1 -15 345.166 84.9167   2
   0  -1 -16-104.561 54.5664   2
   0   1 -16-23.4387 51.7819   2
   0  -1 -17 15.5271 44.4018   2
   0   1 -17-67.8812 66.6271   2
   0  -1 -18 1108.17 156.094   2
   0   1 -18 1026.14 150.977   2
   0  -1 -19 79.8799 66.4144   2
   0   1 -19-33.6519 48.9055   2
   0   1 -20 454.560 105.610   2
   0  -1 -20 498.745 112.755   2
   0  -1 -21 99.0186 68.3517   2
   0   1 -21 66.4483 60.5880   2
   0   2   2 3137.91 85.0441   2
   0  -2   3 53833.2 421.673   2
   0   2   3 55093.9 408.364   2
   0   2   4 21016.0 285.437   2
   0  -2   4 22559.9 302.803   2
   0  -2   5 495.938 52.0475   2
   0   2   5 516.256 51.0214   2
   0   2   6 102.658 32.0985   2
   0  -2   6 45.6207 22.2519   2
   0   2   7 1510.03 102.284   2
   0  -2   7 1693.65 108.551   2
   0   2   8 5363.99 202.044   2
   0  -2   8 5371.60 203.010   2
   0   2   9 12280.2 324.228   2
   0  -2   9 11377.1 314.056   2
   0   2  10 5494.77 229.271   2
   0  -2  10 6032.86 239.845   2
   0  -2  11 76.0491 33.4298   2
   0   2 -11 97.4848 48.7644   2
   0   2  11 181.161 47.7268   2
   0   2  12 2727.86 178.128   2
   0  -2  12 2590.87 173.538   2
   0   2 -12 2511.83 179.095   2
   0  -2 -12 2448.46 177.148   2
   0  -2  13 577.685 87.4659   2
   0  -2 -13 527.645 89.7923   2
   0   2 -13 667.685 103.840   2
   0   2 -14 18.6627 41.3060   2
   0  -2 -14 2.60764 45.6066   2
   0   2 -15 103.800 55.8730   2
   0  -2 -15 133.738 59.4478   2
   0  -2 -16 513.754 106.445   2
   0   2 -16 653.106 111.808   2
   0   2 -17 1662.73 181.814   2
   0  -2 -17 1451.79 172.046   2
   0  -2 -18 79.6695 67.2304   2
   0   2 -18 97.2638 63.8900   2
   0   2 -19 322.303 93.5086   2
   0  -2 -19 182.448 73.5044   2
   0  -2 -20 110.402 64.3620   2
   0  -2 -21-11.7746 52.7885   2
   0  -3   1 1232.34 41.1203   1
   0   3   2 222102. 787.210   2
   0   3   3 27131.1 303.432   2
   0  -3   4 3907.07 131.322   2
   0   3   4 3902.11 128.758   2
   0   3   5 13660.3 259.364   2
   0  -3   5 13748.3 268.628   2
   0  -3   6 11200.3 261.396   2
   0   3   6 10973.8 255.724   2
   0  -3   7 10073.4 265.970   2
   0   3   7 9945.33 260.457   2
   0   3   8 712.256 76.2071   2
   0  -3   8 561.787 69.6365   2
   0   3  -8 526.265 73.3196   2
   0  -3   9 15284.1 368.568   2
   0   3   9 14672.3 358.189   2
   0  -3  10 1315.34 115.109   2
   0   3  10 1339.35 114.547   2
   0   3  11 107.576 39.0687   2
   0   3 -11 23.4305 44.6017   2
   0  -3  12 2830.20 184.469   2
   0   3 -12 3632.32 225.855   2
   0  -3 -12 3552.13 214.625   2
   0   3  12 2648.81 178.074   2
   0  -3  13 4677.52 247.170   2
   0   3 -13 5049.59 269.193   2
   0  -3 -13 4749.95 270.237   2
   0   3 -14 18.9229 42.9592   2
   0  -3 -14-24.1884 47.1503   2
   0  -3 -15 1840.62 177.645   2
   0   3 -15 1989.30 185.477   2
   0  -3 -16 360.730 90.4484   2
   0  -3 -17 482.180 105.072   2
   0  -3 -18 38.9077 45.8983   2
   0  -3 -19 90.8358 63.1859   2
   0  -3 -20 375.581 105.722   2
   0  -3 -21 590.716 131.100   2
   0  -4   0 95767.8 399.048   1
   0  -4   1 10386.5 133.344   1
   0   4  -1 9889.28 133.311   1
   0  -4   2 10733.9 146.263   1
   0   4  -2 10721.6 147.730   1
   0   4   3 68.8623 23.6040   2
   0   4  -3 65.4239 18.1526   1
   0   4   4 334.882 40.9150   2
   0  -4   5 5081.47 168.725   2
   0   4   5 4964.48 163.038   2
   0  -4   6 423.093 55.4428   2
   0   4   6 403.370 52.8441   2
   0  -4   7 2893.17 146.908   2
   0   4   7 3119.18 150.289   2
   0  -4   8 196.240 45.8047   2
   0   4   8 232.585 46.6328   2
   0  -4   9 20.5220 24.4795   2
   0   4   9 13.2448 17.4480   2
   0  -4  10 476.689 72.3481   2
   0   4  10 398.976 65.7469   2
   0   4  11 12298.1 368.191   2
   0  -4  11 12008.1 365.043   2
   0  -4  12 1344.42 127.608   2
   0   4  12 1265.50 124.507   2
   0  -4 -12 1270.54 129.842   2
   0  -4  13 1541.72 144.159   2
   0  -4 -13 1668.22 152.869   2
   0  -4 -14 747.064 111.889   2
   0  -4 -15 1043.52 138.104   2
   0  -4 -16 670.398 119.889   2
   0  -4 -17 1242.44 160.156   2
   0  -4 -18-47.2534 58.2820   2
   0  -4 -19 826.224 146.988   2
   0  -4 -20 84.2387 64.8042   2
   0  -4 -21 95.8885 67.0095   2
   0  -5   0 573.534 40.6289   1
   0  -5   1 510.891 35.4148   1
   0   5  -1 525.724 35.6529   1
   0  -5   2 9681.76 150.650   1
   0   5  -2 9425.90 151.594   1
   0   5  -3 36883.4 313.804   1
   0   5   4 55.3715 22.9942   2
   0   5  -4 28.2756 15.6481   1
   0   5   5 3995.37 153.568   2
   0   5   6 49.8619 20.6631   2
   0  -5   6 108.611 36.0661   2
   0   5   7 5611.87 204.714   2
   0  -5   7 5816.65 213.089   2
   0  -5   8 346.461 58.5589   2
   0   5   8 274.943 49.7197   2
   0  -5   9 2704.13 161.937   2
   0   5   9 2955.54 164.797   2
   0  -5  10 2272.93 155.917   2
   0   5  10 2271.24 151.929   2
   0   5  11 3037.29 185.887   2
   0  -5  11 2857.41 180.365   2
   0  -5 -11 2774.09 182.297   2
   0  -5 -12 1346.36 134.276   2
   0  -5  12 1448.64 134.943   2
   0  -5 -13 283.371 68.2336   2
   0  -5  13 201.104 56.4101   2
   0  -5 -14 8.38422 42.0229   2
   0  -5 -15 3323.54 240.256   2
   0  -5 -16-68.5751 50.5394   2
   0  -5 -17 268.637 90.7356   2
   0  -5 -18-1.37471 49.3876   2
   0  -5 -19 377.158 101.823   2
   0  -5 -20 73.1444 60.2847   2
   0  -6   0 39830.4 320.818   1
   0  -6   1 5535.40 121.610   1
   0   6  -2 35377.2 310.381   1
   0  -6   2 34521.1 310.048   1
   0  -6  -2 34936.9 405.288   2
   0   6  -3 4304.28 116.723   1
   0   6  -4 25826.5 300.256   1
   0   6   5 337.511 47.9644   2
   0   6  -5 334.907 38.2105   1
   0   6   6 7802.46 234.383   2
   0   6  -6 7878.79 188.155   1
   0  -6   7 5152.39 206.813   2
   0   6   7 4965.79 199.045   2
   0  -6   8 5294.82 219.024   2
   0   6   8 5512.80 217.737   2
   0   6   9 1628.15 125.706   2
   0  -6   9 1736.18 133.779   2
   0   6  10 1522.43 127.217   2
   0  -6 -10 1240.23 121.706   2
   0  -6  10 1507.94 129.180   2
   0  -6  11 2923.66 188.586   2
   0   6  11 3252.35 194.023   2
   0  -6 -11 3006.79 194.462   2
   0  -6  12 5879.79 274.608   2
   0  -6 -12 6017.18 283.249   2
   0  -6 -13 2870.11 206.167   2
   0  -6 -14 66.0449 45.1716   2
   0  -6 -15 1836.19 180.766   2
   0  -6 -16 516.013 105.978   2
   0  -6 -17 210.133 79.3605   2
   0  -6 -18 50.3660 52.8644   2
   0  -6 -19 1200.68 178.207   2
   0  -6 -20 690.300 140.979   2
   0  -7   0 4072.61 115.618   1
   0  -7   1 79.1128 22.9992   1
   0  -7  -2 14185.0 274.042   2
   0   7  -2 14248.9 212.604   1
   0  -7   2 14334.3 210.002   1
   0  -7  -3 1746.31 102.630   2
   0   7  -3 1649.09 77.1468   1
   0  -7   3 1803.29 77.1062   1
   0  -7  -4 213.047 39.9660   2
   0   7  -4 181.206 28.0084   1
   0   7  -5 5297.06 150.873   1
   0   7  -6 6385.14 173.324   1
   0   7   6 6105.24 216.790   2
   0   7  -7 2738.41 121.299   1
   0   7   7 2682.38 151.918   2
   0  -7   7 2534.01 149.183   2
   0   7   8 368.300 61.3900   2
   0  -7  -8 307.490 56.9137   2
   0  -7   8 294.441 58.0227   2
   0  -7   9 3273.72 185.159   2
   0  -7  -9 3234.99 184.348   2
   0   7   9 3393.49 185.302   2
   0  -7  10 13714.0 394.980   2
   0   7  10 14417.7 399.931   2
   0  -7 -10 14327.0 406.670   2
   0  -7 -11 2907.35 192.842   2
   0  -7  11 2734.17 184.971   2
   0  -7 -12 87.7720 42.8366   2
   0  -7  12 93.8591 44.2397   2
   0  -7 -13 2896.14 212.194   2
   0  -7 -14 264.175 76.3837   2
   0  -7 -15 208.126 80.9337   2
   0  -7 -16 104.896 57.8130   2
   0  -7 -17 444.831 104.154   2
   0  -7 -18 3.95201 48.4847   2
   0  -7 -19 73.4439 62.9733   2
   0  -7 -20 161.935 79.1751   2
   0  -8   0 72898.3 506.861   1
   0  -8   1 65490.2 473.218   1
   0  -8   2 500.593 44.3791   1
   0  -8  -2 448.824 56.5267   2
   0  -8  -3 2008.18 115.512   2
   0  -8   3 1814.40 82.8613   1
   0   8  -3 1988.71 87.2661   1
   0  -8  -4 521.411 64.7365   2
   0   8  -4 366.103 40.7716   1
   0   8  -5 177.420 31.3903   1
   0  -8  -5 188.004 53.7653   2
   0  -8  -6 4189.81 187.955   2
   0   8  -6 4345.51 148.098   1
   0   8   7 1118.32 100.569   2
   0  -8  -7 1101.34 102.628   2
   0   8  -7 1112.32 80.4427   1
   0   8   8 744.883 86.2411   2
   0  -8  -8 860.596 98.3829   2
   0  -8   8 692.545 85.2154   2
   0   8   9 355.213 65.8541   2
   0  -8   9 276.775 58.4038   2
   0   8  -9 308.493 47.7772   1
   0  -8  -9 261.604 62.2823   2
   0   8 -10 2748.39 143.611   1
   0   8  10 2804.56 180.029   2
   0  -8 -10 2941.79 188.315   2
   0  -8  10 2616.38 175.928   2
   0  -8 -11 384.267 77.0946   2
   0  -8  11 524.912 87.7875   2
   0  -8  12 3024.94 205.108   2
   0  -8 -12 3157.96 214.447   2
   0  -8 -13 128.055 58.6340   2
   0  -8 -14 542.737 103.095   2
   0  -8 -15 282.045 85.4545   2
   0  -8 -16 987.667 143.129   2
   0  -8 -17 181.680 80.2593   2
   0  -8 -18 430.941 111.667   2
   0  -8 -19 71.4091 65.8546   2
   0  -9   0 254.324 37.5870   1
   0  -9  -1 5516.71 150.144   1
   0  -9   1 5381.31 146.427   1
   0  -9   2 18047.8 267.773   1
   0  -9  -2 18266.7 349.081   2
   0   9  -3 10555.1 211.100   1
   0  -9   3 11975.8 221.293   1
   0  -9  -3 11445.9 286.340   2
   0  -9  -4 12386.1 306.632   2
   0   9  -4 11974.8 233.998   1
   0  -9  -5 1670.53 118.382   2
   0   9  -5 1746.72 93.8482   1
   0   9  -6 4513.52 156.911   1
   0  -9  -6 6396.95 243.636   2
   0  -9  -7 34.3931 32.8101   2
   0  -9  -8 1482.93 127.967   2
   0   9   8 1627.48 130.790   2
   0  -9   8 1429.38 124.695   2
   0   9   9 3116.73 188.690   2
   0  -9   9 2968.52 187.017   2
   0  -9  -9 3384.57 200.361   2
   0   9  -9 3090.74 151.072   1
   0  -9  10 17107.9 459.018   2
   0  -9 -10 17636.5 464.760   2
   0   9 -10 17804.3 373.848   1
   0  -9 -11 395.090 83.9556   2
   0   9 -11 313.732 55.4441   1
   0  -9  11 284.983 71.4896   2
   0  -9 -12 1066.93 130.515   2
   0   9 -12 849.277 91.4703   1
   0  -9 -13 0.76103 33.1952   2
   0  -9 -14 420.314 98.1330   2
   0  -9 -15 189.961 79.5039   2
   0  -9 -16-48.2294 50.8862   2
   0  -9 -17 405.826 102.899   2
   0  -9 -18 362.103 102.162   2
   0  -9 -19 136.040 70.6576   2
   0 -10   0 49150.3 465.414   1
   0 -10  -1 10219.6 213.971   1
   0 -10   1 9723.53 206.818   1
   0 -10  -2 139.096 41.3584   2
   0 -10   2 131.027 28.6866   1
   0 -10   3 263.460 37.7556   1
   0 -10  -3 324.960 54.1299   2
   0 -10  -4 149.969 40.4681   2
   0  10  -4 107.484 26.3232   1
   0  10  -5 568.054 55.2882   1
   0 -10  -5 628.557 76.5746   2
   0 -10  -6 58.5419 33.3753   2
   0  10  -6 22.1889 19.6121   1
   0 -10  -7 391.576 73.1660   2
   0 -10  -8 454.234 79.8095   2
   0 -10   9 2418.04 173.497   2
   0  10  -9 2549.20 139.971   1
   0 -10  -9 2506.43 178.501   2
   0 -10 -10 8012.15 325.634   2
   0  10 -10 8291.09 261.772   1
   0 -10  10 8477.51 334.410   2
   0 -10  11 2505.34 188.636   2
   0  10 -11 2637.15 153.930   1
   0 -10 -11 2712.46 198.083   2
   0 -10 -12 1818.82 173.037   2
   0  10 -12 1849.68 135.137   1
   0 -10 -13 5672.54 310.741   2
   0 -10 -14 671.665 116.552   2
   0 -10 -15 87.7624 63.3770   2
   0 -10 -16 118.621 54.9649   2
   0 -10 -17 284.668 89.7847   2
   0 -10 -18 196.189 87.6467   2
   0 -11   0 653.279 62.5459   1
   0 -11  -1 12187.7 250.205   1
   0 -11   1 12773.9 249.080   1
   0 -11  -2 4846.91 200.431   2
   0 -11   2 5069.50 156.762   1
   0 -11  -3 2153.13 137.083   2
   0 -11   3 2115.98 104.446   1
   0  11  -4 85.9590 23.9497   1
   0 -11  -4 67.6426 32.0976   2
   0  11  -5 1325.30 87.2008   1
   0 -11  -5 1287.38 113.652   2
   0 -11  -6 1506.37 125.515   2
   0 -11  -7 1584.76 151.897   2
   0  11  -8 136.752 34.1873   1
   0 -11  -8 77.4979 43.6132   2
   0  11  -9 5853.99 214.400   1
   0 -11  -9 6348.02 285.872   2
   0 -11   9 5725.35 274.878   2
   0 -11 -10 1999.31 169.093   2
   0 -11  10 1828.82 158.753   2
   0  11 -10 1916.73 129.364   1
   0  11 -11 167.282 43.6514   1
   0 -11 -11 242.572 74.7894   2
   0 -11 -12 2883.84 218.125   2
   0 -11 -13 325.323 89.3342   2
   0 -11 -14 293.971 85.3202   2
   0 -11 -15 87.1249 60.2102   2
   0 -11 -16 173.277 69.3434   2
   0 -11 -17 551.090 119.543   2
   0 -11 -18 320.937 106.083   2
   0 -12   0 1872.79 104.026   1
   0 -12   1 2863.36 124.338   1
   0 -12  -1 2827.81 125.351   1
   0 -12  -2 1214.59 86.6850   1
   0 -12   2 1228.63 81.2049   1
   0 -12  -2 1136.31 104.463   2
   0 -12   3 575.294 58.1018   1
   0 -12  -3 655.821 82.5726   2
   0 -12  -4 1313.80 117.111   2
   0 -12  -5 4879.43 225.771   2
   0 -12  -6 610.924 85.8257   2
   0  12  -7 347.525 51.3932   1
   0 -12  -7 445.068 81.0537   2
   0  12  -8 563.691 68.6396   1
   0 -12  -8 994.601 120.203   2
   0  12  -9 301.642 51.7271   1
   0 -12  -9 317.349 76.6224   2
   0  12 -10 771.547 83.3071   1
   0 -12 -10 731.902 108.250   2
   0  12 -11 1440.18 119.282   1
   0 -12 -11 1556.75 159.050   2
   0 -12 -12 91.8934 52.2359   2
   0 -12 -13 3368.31 245.603   2
   0 -12 -14 151.606 69.2627   2
   0 -12 -15 65.3254 52.6438   2
   0 -12 -16 31.4416 42.3516   2
   0 -12 -17 211.455 79.8003   2
   0 -13   0 1260.90 89.5873   1
   0 -13  -1 1458.97 94.6256   1
   0 -13   1 1569.78 96.1900   1
   0 -13  -2 342.989 50.4873   1
   0 -13  -2 327.408 62.7886   2
   0 -13   2 310.811 43.5984   1
   0 -13  -3 439.109 71.8216   2
   0 -13   3 367.683 49.1467   1
   0 -13  -4 697.788 88.6991   2
   0 -13  -5 265.810 61.4779   2
   0  13  -6 2.61411 18.2951   1
   0 -13  -6 15.0941 33.3758   2
   0  13  -7 4072.59 176.443   1
   0 -13  -7 3936.07 223.377   2
   0 -13  -8 4907.36 260.834   2
   0  13  -8 4866.23 198.931   1
   0  13  -9 242.418 53.5701   1
   0 -13  -9 234.766 67.8625   2
   0  13 -10 73.3247 31.7000   1
   0 -13 -10 111.802 55.3614   2
   0 -13 -11 797.941 120.388   2
   0 -13 -12 120.803 55.1485   2
   0 -13 -13 562.217 113.608   2
   0 -13 -14 80.0328 61.6181   2
   0 -13 -15 280.094 92.5526   2
   0 -13 -16 38.0223 46.6362   2
   0 -13 -17 32.7535 57.9993   2
   0 -14   0 1036.29 844.685   1
   0 -14  -1 4694.51 222.766   2
   0 -14   1 4835.29 176.262   1
   0 -14  -1 4660.27 177.903   1
   0 -14   2-26.0577 25.6905   1
   0 -14  -2-21.8786 34.8693   2
   0 -14  -2-15.3434 20.0370   1
   0 -14  -3 799.516 98.2659   2
   0 -14   3 908.128 77.0613   1
   0 -14  -3 868.638 80.8868   1
   0 -14  -4 229.221 54.7702   2
   0 -14  -5-18.5696 29.2275   2
   0 -14  -6-32.6717 44.6018   2
   0 -14  -7 109.604 52.5401   2
   0  14  -7 139.845 36.1941   1
   0  14  -8 1965.32 129.858   1
   0 -14  -8 1856.53 167.071   2
   0 -14  -9-48.6420 47.8722   2
   0  14  -9-25.9991 21.9569   1
   0 -14 -10-79.9873 57.6777   2
   0  14 -10-18.8092 22.8726   1
   0 -14 -11-22.8240 42.4111   2
   0 -14 -12 17.4917 41.6206   2
   0 -14 -13 1565.90 181.123   2
   0 -14 -14 929.608 145.819   2
   0 -14 -15-7.14149 38.5216   2
   0 -14 -16 120.109 73.8652   2
   0 -15   0 655.297 70.4078   1
   0 -15  -1 596.775 86.2495   2
   0 -15  -1 640.358 70.5273   1
   0 -15   1 626.561 67.6644   1
   0 -15  -2 3626.36 209.116   2
   0 -15   2 4064.72 168.053   1
   0 -15  -2 4083.81 172.832   1
   0 -15   3 376.653 52.5374   1
   0 -15  -3 450.974 78.9197   2
   0 -15  -3 437.457 61.0394   1
   0 -15  -4 84.8654 45.4632   2
   0 -15  -4 73.4337 32.3403   1
   0 -15  -5 542.209 88.8347   2
   0 -15  -6 315.858 71.7128   2
   0 -15  -7 184.505 59.6855   2
   0  15  -8 27.7264 24.7724   1
   0 -15  -8 10.8034 45.7343   2
   0 -15  -9 684.227 113.544   2
   0  15  -9 339.448 61.0701   1
   0 -15 -10 5490.32 309.847   2
   0 -15 -11 219.566 78.8439   2
   0 -15 -12 64.4727 55.8595   2
   0 -15 -13 169.977 71.2084   2
   0 -15 -14-30.6005 55.6110   2
   0 -15 -15-5.55387 49.4046   2
   0 -16   0 5643.59 206.167   1
   0 -16  -1 522.592 84.9620   2
   0 -16   1 454.479 59.0954   1
   0 -16  -1 394.534 57.2644   1
   0 -16  -2 112.452 49.5462   2
   0 -16  -2 113.710 34.1696   1
   0 -16   2 92.7378 29.1921   1
   0 -16  -3 285.773 52.9758   1
   0 -16   3 265.514 46.8796   1
   0 -16  -3 141.408 48.7147   2
   0 -16  -4 41.0227 35.4353   2
   0 -16  -4 34.3743 29.6271   1
   0 -16  -5 28.0462 33.9816   2
   0 -16  -6 2385.17 192.404   2
   0 -16  -7 212.384 66.8712   2
   0 -16  -8 985.449 128.358   2
   0 -16  -9 2060.03 190.475   2
   0 -16 -10 81.0563 48.0730   2
   0 -16 -11 1248.74 157.674   2
   0 -16 -12 106.813 63.8276   2
   0 -16 -13 194.509 60.1693   2
   0 -16 -14 672.704 132.924   2
   0 -17   0 320.217 55.4503   1
   0 -17   0 449.972 83.3516   2
   0 -17  -1 211.483 61.0425   2
   0 -17  -1 267.140 50.1174   1
   0 -17   1 193.337 41.0375   1
   0 -17  -2 84.6246 46.1189   2
   0 -17   2 129.748 36.4963   1
   0 -17  -2 95.8323 30.6675   1
   0 -17  -3 67.6944 47.3660   2
   0 -17  -3 137.499 42.4182   1
   0 -17  -4 402.169 64.2640   1
   0 -17  -4 314.083 75.6222   2
   0 -17  -5 47.5053 39.6750   2
   0 -17  -5 25.4755 23.0695   1
   0 -17  -6 330.726 79.9673   2
   0 -17  -7 334.880 83.4779   2
   0 -17  -8 240.103 73.5711   2
   0 -17  -9 678.278 117.217   2
   0 -17 -10 4163.85 287.811   2
   0 -17 -11 116.366 69.7677   2
   0 -17 -12 8.16012 45.7821   2
   0 -17 -13 16.7372 38.4570   2
   0 -18   0 4360.25 252.388   2
   0 -18   0 4226.12 189.994   1
   0 -18  -1-12.5006 37.2304   2
   0 -18   1-47.5653 29.3624   1
   0 -18  -1-14.0286 21.6367   1
   0 -18  -2 830.987 88.8613   1
   0 -18  -2 670.874 103.255   2
   0 -18   2 769.990 81.4746   1
   0 -18  -3 575.406 77.3153   1
   0 -18  -3 460.465 87.6478   2
   0 -18  -4 54.4831 37.8923   1
   0 -18  -4 72.7844 48.1521   2
   0 -18  -5 76.5545 45.0933   2
   0 -18  -5 120.409 42.4116   1
   0 -18  -6 243.578 57.3231   1
   0 -18  -6 250.205 61.5734   2
   0 -18  -7 26.0109 36.9677   2
   0 -18  -8 799.394 127.564   2
   0 -18  -9 47.1047 40.8245   2
   0 -18 -10 333.125 90.3946   2
   0 -18 -11 809.410 139.885   2
   0 -18 -12 571.726 118.082   2
   0 -19   0 248.378 69.5573   2
   0 -19   0 281.910 53.7605   1
   0 -19  -1 9.93522 33.6171   2
   0 -19   1 80.7567 30.2793   1
   0 -19  -1 69.3268 32.5137   1
   0 -19   1 68.2988 39.9037   2
   0 -19  -2 15.3180 25.3539   1
   0 -19   2 17.8745 20.7245   1
   0 -19  -2-7.79540 37.7072   2
   0 -19  -3 73.0820 35.8063   1
   0 -19  -3 77.2356 39.6431   2
   0 -19  -4 17.9858 25.0244   1
   0 -19  -4-13.0043 30.3476   2
   0 -19  -5 64.4831 46.6643   2
   0 -19  -5 5.42342 23.6889   1
   0 -19  -6 366.214 70.8081   1
   0 -19  -6 376.987 88.5762   2
   0 -19  -7 410.683 93.5336   2
   0 -19  -7 564.339 87.8903   1
   0 -19  -8-9.45680 39.0566   2
   0 -19  -9 336.119 88.8261   2
   0 -19 -10 347.927 100.126   2
   0 -19 -11 48.8063 43.7432   2
   0 -20   0 288.494 76.6867   2
   0 -20   1-9.55027 50.9206   2
   0 -20  -1 30.8793 38.8017   2
   0 -20  -2-22.8891 31.4996   2
   0 -20  -3 423.411 90.5516   2
   0 -20  -4 8.12671 37.5015   2
   0 -20  -5 282.628 76.3719   2
   0 -20  -6 137.463 63.5102   2
   0 -20  -7 6.48592 37.5823   2
   0 -20  -8 120.841 63.1598   2
   0 -20  -9 87.8779 58.5632   2
   0 -20 -10 243.157 87.4287   2
   0 -21   0 246.200 73.3147   2
   0 -21  -1 416.516 94.0694   2
   0 -21   1 286.639 77.1248   2
   0 -21  -2 194.996 71.3828   2
   0 -21   2 149.071 63.2652   2
   0 -21  -3-68.0134 52.9025   2
   0 -21  -4 67.0754 44.9018   2
   0 -21  -5 164.215 63.4071   2
   0 -21  -6 147.525 68.4039   2
   0 -21  -7 190.678 74.7256   2
   0 -21  -8 143.381 67.3001   2
   0 -22   0 398.225 92.6279   2
   0 -22  -1 46.4234 46.2815   2
   0 -22   1-44.7023 45.4036   2
   0 -22   2 342.838 89.0610   2
   0 -22  -2 192.931 77.3279   2
   0 -22  -3 146.214 74.5453   2
   0 -22   3 239.406 78.9202   2
   0 -22  -4 340.175 92.0222   2
   0 -22  -5 164.592 68.1875   2
   0 -22  -6-18.7595 45.7702   2
   0 -23   0 216.442 76.5813   2
   0 -23  -1 37.6783 37.9104   2
   0 -23  -2 88.6860 70.0571   2
  -1   0   0-6.76812 10.9124   1
  -1   0   1 12464.0 147.014   1
   1   0   3 40391.4 318.746   2
  -1   0   3 41450.2 410.299   2
  -1   0   4 131546. 796.956   2
   1   0   4 131471. 648.844   2
  -1   0  -4 131288. 658.481   2
  -1   0   5 7778.31 213.826   2
  -1   0  -5 7203.23 172.861   2
   1   0   5 7476.12 175.216   2
  -1   0   6 38359.3 507.837   2
  -1   0  -6 38732.2 441.610   2
   1   0   6 37107.1 432.576   2
  -1   0  -7 76.2570 29.4724   2
  -1   0   7 128.375 38.3083   2
   1   0   7 60.5961 25.7366   2
  -1   0  -8 128.330 38.7596   2
   1   0   8 91.3689 31.4104   2
  -1   0   8 97.5015 36.9076   2
   1   0   9 1692.89 115.903   2
  -1   0   9 1691.89 128.644   2
   1   0  10 9657.26 292.404   2
  -1   0  10 9562.53 316.746   2
   1   0  11 35.3415 25.3198   2
  -1   0 -11 1.82156 33.6540   2
  -1   0  11 9.14046 27.5021   2
   1   0 -12 2165.59 175.666   2
  -1   0  12 2402.99 175.473   2
   1   0  12 2399.29 162.438   2
  -1   0 -12 2270.14 166.014   2
  -1   0 -13 452.967 81.9258   2
   1   0  13 461.081 77.9954   2
   1   0 -13 566.428 102.443   2
  -1   0 -14 1650.14 156.333   2
   1   0 -14 1808.95 172.476   2
  -1   0 -15 172.977 66.3191   2
   1   0 -15 191.288 65.9230   2
  -1   0 -16 407.534 93.8064   2
   1   0 -16 353.652 96.5627   2
   1   0 -17 964.079 145.471   2
  -1   0 -17 851.584 129.749   2
  -1   0 -18 428.069 100.423   2
   1   0 -18 287.713 85.2972   2
   1   0 -19 357.695 96.3856   2
  -1   0 -19 330.444 98.6783   2
  -1   0 -20 112.785 62.0309   2
  -1   0 -21 115.793 66.2099   2
  -1  -1 -21 401.490 113.027   2
  -1  -1 -20 338.386 99.8468   2
  -1  -1 -19 96.4141 57.1984   2
  -1  -1 -18 18.7287 53.2955   2
  -1  -1 -17 837.887 126.080   2
  -1  -1 -16 1630.71 170.306   2
   1   1 -16 1748.23 185.620   2
   1   1 -15 18.2477 54.2686   2
  -1  -1 -15 55.5445 51.5636   2
  -1  -1 -14 144.958 57.6103   2
   1   1 -14 138.751 59.0770   2
   1  -1  13 4307.09 226.276   2
  -1  -1 -13 4258.44 236.556   2
   1   1 -13 3980.08 245.065   2
  -1   1  12 1380.41 133.024   2
   1  -1  12 1326.60 121.050   2
  -1  -1 -12 1434.45 132.922   2
   1   1 -12 1300.82 136.931   2
  -1  -1 -11 1017.86 107.305   2
   1  -1  11 1098.07 104.252   2
  -1   1  11 1148.59 117.340   2
   1  -1  10 732.384 81.1225   2
  -1  -1 -10 703.380 84.4112   2
  -1   1  10 644.125 84.5172   2
  -1   1   9 1444.79 118.325   2
   1  -1   9 1362.55 103.803   2
  -1  -1  -8 2509.45 136.998   2
  -1   1   8 2598.92 148.613   2
   1  -1   8 2460.47 130.809   2
   1  -1   7 12907.5 272.629   2
  -1  -1  -7 13115.3 284.566   2
  -1   1   7 12935.0 309.467   2
  -1  -1  -6 1654.72 97.0339   2
   1  -1   6 1574.46 88.4824   2
  -1   1   6 1688.54 105.912   2
   1  -1   5 69530.6 518.427   2
  -1   1   5 70752.2 624.420   2
  -1   1   4 143034. 817.759   2
   1  -1   4 140603. 647.988   2
   1  -1   3 76626.4 402.489   2
  -1   1   3 76586.6 541.975   2
  -1   1   2 41819.4 351.339   2
   1  -1   2 43969.8 238.176   2
  -1   1   1 56917.4 338.771   2
  -1  -1   0 144.812 20.3906   1
  -1   1   0 172.393 15.6447   1
  -1  -1   1 57297.9 343.713   1
  -1  -1   2 44223.4 325.050   1
  -1   1  -2 44361.8 242.556   2
   1   1   3 76822.5 481.883   2
  -1   1  -3 79518.2 406.150   2
  -1  -1   4 146258. 880.494   2
  -1   1  -4 142515. 659.773   2
   1   1   4 145349. 723.970   2
  -1  -1   5 69387.8 652.420   2
  -1   1  -5 70071.3 527.780   2
   1   1   5 70558.7 557.870   2
  -1  -1   6 1636.97 110.479   2
   1   1   6 1647.34 93.9688   2
  -1   1  -6 1598.53 91.7433   2
  -1  -1   7 13418.5 322.990   2
   1   1   7 12964.7 282.215   2
  -1   1  -7 12708.8 278.107   2
  -1   1  -8 2675.82 138.477   2
   1   1   8 2552.21 134.319   2
  -1  -1   8 2593.06 152.597   2
   1   1   9 1535.18 111.319   2
  -1  -1   9 1360.23 117.568   2
  -1  -1  10 727.629 89.6032   2
   1   1  10 764.938 85.4717   2
  -1  -1  11 1008.04 110.214   2
  -1   1 -11 1140.65 111.590   2
   1   1  11 1005.14 102.155   2
   1   1  12 1437.83 128.173   2
   1  -1 -12 1140.36 127.368   2
  -1   1 -12 1291.94 124.537   2
  -1  -1  12 1284.48 129.443   2
  -1   1 -13 4229.68 234.145   2
   1   1  13 4297.92 230.138   2
   1  -1 -13 4158.28 246.922   2
  -1   1 -14 134.582 52.4452   2
   1  -1 -14 34.6542 43.8860   2
  -1   1 -15 55.3291 49.2193   2
   1  -1 -15-46.4071 54.2297   2
  -1   1 -16 1792.10 176.739   2
   1  -1 -16 1671.24 182.575   2
   1  -1 -17 791.065 135.819   2
  -1   1 -17 629.840 111.541   2
   1  -1 -18 89.9453 68.5204   2
  -1   1 -18 52.3586 41.7373   2
  -1   1 -19 145.908 70.5906   2
   1  -1 -19 280.677 98.4964   2
   1  -1 -20 75.1561 60.9868   2
  -1   1 -20 250.546 87.5135   2
  -1   1 -21 231.996 88.6742   2
   1  -1 -21 219.728 87.7618   2
  -1   1 -22 36.9177 44.3186   2
  -1  -2 -21 4.49533 36.5342   2
  -1  -2 -20 316.514 87.8398   2
  -1  -2 -19 642.810 127.331   2
  -1  -2 -18 195.273 72.9866   2
  -1  -2 -17 367.988 91.9148   2
  -1  -2 -16 354.370 86.8799   2
  -1  -2 -15 207.901 72.7682   2
  -1  -2 -14 3475.09 224.412   2
  -1  -2 -13 1062.03 119.987   2
   1  -2  13 1111.09 116.056   2
  -1   2  12 273.210 58.3039   2
   1  -2  12 321.686 62.0322   2
  -1  -2 -12 276.562 64.8087   2
   1  -2  11 4427.81 206.747   2
  -1   2  11 4492.69 225.629   2
  -1  -2 -11 4339.22 216.762   2
  -1  -2 -10 3730.76 191.561   2
   1  -2  10 4255.09 190.983   2
  -1   2  10 3992.19 202.510   2
  -1   2   9 391.479 61.8216   2
   1  -2   9 481.615 61.5206   2
   1  -2   8 16455.3 329.112   2
  -1   2   8 17179.9 376.821   2
  -1   2   7 28342.4 456.659   2
   1  -2   7 28290.2 397.936   2
   1  -2   6 24683.6 340.490   2
  -1   2   6 25519.0 400.281   2
  -1   2   5 6177.73 182.997   2
   1  -2   5 5881.43 148.805   2
   1  -2   4 73456.5 449.502   2
  -1   2   4 75614.8 575.462   2
  -1   2   3 189342. 818.392   2
   1  -2   3 196312. 607.037   2
  -1   2   2 32992.2 291.991   2
  -1   2   1 14051.3 152.503   2
  -1  -2   0 92974.0 473.201   1
   1  -2  -1 14565.0 160.546   2
  -1  -2   1 13979.3 186.444   1
  -1  -2   2 33785.7 304.997   1
   1  -2  -2 33392.1 302.928   2
  -1   2  -3 192658. 633.563   2
   1   2   4 73919.4 555.676   2
  -1   2  -4 73682.7 479.000   2
  -1  -2   5 5797.54 196.239   2
  -1   2  -5 6082.55 158.930   2
   1   2   5 5818.52 168.771   2
  -1  -2   6 25768.7 433.477   2
   1   2   6 26041.1 379.335   2
  -1   2  -6 25832.1 362.216   2
  -1   2  -7 28696.6 418.987   2
  -1  -2   7 28623.9 485.824   2
   1   2   7 28957.8 431.492   2
  -1  -2   8 15963.5 384.178   2
   1   2   8 16518.4 349.893   2
  -1   2  -8 16525.2 343.594   2
  -1  -2   9 434.315 68.5330   2
   1   2   9 457.373 63.6266   2
  -1  -2  10 3723.76 202.264   2
   1   2  10 4219.85 198.810   2
   1   2  11 4314.58 210.389   2
  -1  -2  11 4152.60 223.951   2
  -1   2 -11 4148.03 210.026   2
   1  -2 -11 4099.88 225.637   2
   1   2  12 283.438 59.8920   2
  -1   2 -12 342.674 68.2688   2
   1  -2 -12 250.173 62.7019   2
  -1  -2  12 355.741 71.9671   2
  -1   2 -13 977.126 116.880   2
   1  -2 -13 1118.61 131.782   2
  -1   2 -14 3678.70 230.853   2
   1  -2 -14 3695.13 244.525   2
  -1   2 -15 177.124 62.4972   2
   1  -2 -15 209.108 74.3491   2
  -1   2 -16 316.960 82.7936   2
   1  -2 -16 305.850 87.4710   2
   1  -2 -17 508.330 109.084   2
  -1   2 -17 490.841 103.594   2
  -1   2 -18 232.294 77.3850   2
   1  -2 -18 88.6686 52.2035   2
  -1   2 -19 1079.23 159.368   2
   1  -2 -19 714.791 139.790   2
  -1   2 -20 284.433 91.3022   2
   1  -2 -20 149.826 72.2604   2
  -1   2 -21 15.1252 60.2707   2
   1  -2 -21 76.0907 70.3832   2
  -1   2 -22 33.7493 69.1852   2
  -1  -3 -21-9.09928 53.7365   2
  -1  -3 -20 421.553 101.933   2
  -1  -3 -19 478.624 114.804   2
  -1  -3 -18-4.94126 38.9166   2
  -1  -3 -17 494.802 103.812   2
  -1  -3 -16 1828.49 183.815   2
  -1  -3 -15 393.053 89.0771   2
  -1  -3 -14 3.24277 40.5288   2
  -1  -3 -13 60.5666 52.1005   2
   1  -3  13 33.7147 32.8208   2
  -1   3  12 6225.81 276.652   2
   1  -3  12 5856.80 248.056   2
  -1  -3 -12 5413.15 257.473   2
  -1  -3 -11 377.396 70.6691   2
   1  -3  11 280.158 54.2563   2
  -1   3  11 382.863 69.7852   2
   1  -3  10 3857.10 183.232   2
  -1   3  10 4008.69 201.477   2
  -1  -3 -10 3424.67 185.143   2
  -1   3   9 1942.22 134.664   2
   1  -3   9 1923.89 122.105   2
  -1   3   8 7875.54 253.466   2
   1  -3   8 7686.94 227.597   2
  -1   3   7 5398.62 199.035   2
   1  -3   7 5313.51 175.321   2
   1  -3   6 14149.2 261.165   2
  -1   3   6 14342.9 299.967   2
   1  -3   5 13184.7 225.537   2
  -1   3   5 12917.8 262.767   2
   1  -3   4 81854.6 483.858   2
  -1   3   4 79938.8 590.353   2
  -1   3   3 49645.7 414.999   2
   1  -3   3 50119.9 319.291   2
  -1   3   2 4118.87 104.222   2
  -1   3   1 2110.72 59.7293   2
  -1  -3   0 23107.8 257.840   1
  -1  -3   1 1830.93 76.6911   1
   1  -3  -1 2078.01 61.8073   2
  -1  -3   2 4368.49 116.054   1
   1  -3  -2 4260.65 109.261   2
   1  -3  -3 50711.0 432.837   2
  -1  -3   3 49921.2 412.649   1
   1  -3  -4 79986.8 614.650   2
  -1   3  -4 86365.4 522.775   2
   1   3   5 13236.9 265.050   2
  -1   3  -5 12979.5 235.362   2
   1  -3  -5 13287.6 276.058   2
  -1   3  -6 15471.9 283.650   2
  -1  -3   6 15141.2 343.295   2
   1   3   6 14919.2 303.021   2
  -1  -3   7 5429.31 217.689   2
  -1   3  -7 5464.42 185.959   2
   1   3   7 5784.36 198.669   2
  -1  -3   8 7629.60 268.993   2
  -1   3  -8 8159.71 244.872   2
   1   3   8 7896.76 246.601   2
  -1  -3   9 2033.82 146.007   2
   1   3   9 2145.79 135.940   2
  -1   3  -9 2102.59 134.861   2
  -1  -3  10 3960.87 212.352   2
   1   3  10 3908.73 193.594   2
   1  -3 -11 352.872 72.4460   2
  -1  -3  11 380.041 73.9144   2
  -1   3 -11 348.140 66.3034   2
   1   3  11 390.341 67.4633   2
   1  -3 -12 5372.05 270.175   2
  -1   3 -12 5638.52 260.711   2
   1   3  12 5552.41 254.465   2
  -1  -3  12 5081.97 259.804   2
  -1   3 -13-14.7810 43.0948   2
   1  -3 -13 71.4398 48.5161   2
  -1   3 -14 14.6315 38.6317   2
   1  -3 -14 129.633 58.8562   2
  -1   3 -15 213.986 71.5283   2
   1  -3 -15 294.112 79.3232   2
   1  -3 -16 1845.76 188.459   2
  -1   3 -16 1999.44 189.423   2
  -1   3 -17 234.640 71.6785   2
   1  -3 -17 464.885 104.135   2
   1  -3 -18-2.82524 45.3930   2
  -1   3 -18 72.6049 56.5455   2
   1  -3 -19 522.252 125.449   2
  -1   3 -19 609.267 124.069   2
   1  -3 -20 402.042 115.549   2
  -1  -4 -21 20.6784 44.0931   2
  -1  -4 -20 104.144 74.9707   2
  -1  -4 -19 189.050 79.9712   2
  -1  -4 -18 155.328 71.2038   2
  -1  -4 -17 890.230 135.654   2
  -1  -4 -16 1308.72 158.298   2
  -1  -4 -15 307.735 77.7995   2
  -1  -4 -14 4573.71 259.141   2
   1  -4  14 4423.02 239.438   2
   1  -4  13 7.18415 25.3993   2
  -1  -4 -13 20.9406 38.5901   2
   1  -4  12 62.2031 34.7989   2
  -1  -4 -12 203.404 58.7743   2
   1  -4  11 170.627 46.5081   2
  -1   4  11 209.033 51.2259   2
  -1  -4 -11 202.173 53.4389   2
  -1  -4 -10 4654.57 218.590   2
   1  -4  10 4689.94 202.593   2
  -1   4  10 4941.62 227.026   2
  -1   4   9 6571.70 248.427   2
   1  -4   9 6299.19 222.796   2
   1  -4   8 19624.5 365.440   2
  -1   4   8 20260.1 412.493   2
   1  -4   7 2783.76 127.739   2
  -1   4   7 2791.67 145.552   2
   1  -4   6 21919.1 332.161   2
  -1   4   6 21652.5 372.587   2
   1  -4   5 10094.0 204.857   2
  -1   4   5 10013.7 234.996   2
   1  -4   4 6714.72 147.759   2
  -1   4   4 6853.25 175.357   2
  -1   4   3 2423.80 93.9756   2
   1  -4   3 2368.49 75.8509   2
  -1   4   2 44245.5 353.099   2
  -1   4   1 11413.5 152.875   2
   1  -4   0 991.989 38.4724   2
  -1  -4   0 1027.93 60.2905   1
  -1  -4   1 11343.6 193.896   1
   1  -4  -1 11558.3 157.041   2
  -1  -4   2 44789.0 391.810   1
   1  -4  -2 45262.9 362.904   2
  -1  -4   3 2432.80 97.6937   1
   1  -4  -3 2340.87 95.9616   2
   1  -4  -4 6577.82 178.145   2
   1   4   5 10454.4 248.862   2
   1  -4  -5 10231.4 243.190   2
   1   4   6 22021.9 383.190   2
   1  -4  -6 21811.8 383.313   2
   1  -4  -7 2919.38 152.215   2
   1   4   7 2763.80 142.950   2
  -1  -4   7 2816.04 160.872   2
  -1   4  -7 2973.07 140.286   2
  -1   4  -8 19390.0 384.662   2
  -1  -4   8 19094.5 433.215   2
   1   4   8 19636.1 398.672   2
   1  -4  -8 19305.4 412.241   2
  -1   4  -9 6109.66 229.961   2
   1  -4  -9 6009.21 246.181   2
  -1  -4   9 6051.90 255.105   2
   1   4   9 6134.16 234.065   2
  -1  -4  10 5045.88 243.866   2
   1   4  10 4904.30 220.209   2
   1  -4 -10 4779.83 231.938   2
   1   4  11 146.819 42.4049   2
   1  -4 -11 85.4914 41.7633   2
  -1   4 -11 202.434 56.2242   2
  -1  -4  11 195.261 54.0442   2
   1   4  12 59.0808 36.3049   2
  -1  -4  12 129.875 50.9473   2
   1  -4 -12 28.0800 45.2441   2
  -1   4 -12 92.6024 41.1851   2
  -1   4 -13 80.2608 50.1264   2
   1  -4 -13 8.93341 38.1592   2
   1  -4 -14 4649.14 276.842   2
  -1   4 -14 4433.32 259.294   2
   1  -4 -15 188.933 65.7074   2
  -1   4 -15 174.309 66.1998   2
   1  -4 -16 1264.49 158.731   2
  -1   4 -16 1106.04 144.234   2
   1  -4 -17 677.611 125.551   2
   1  -4 -18 190.035 79.9375   2
   1  -4 -19 437.208 110.694   2
   1  -4 -20 58.4274 62.2154   2
  -1  -5 -20 594.837 126.000   2
  -1  -5 -19 674.728 132.497   2
  -1  -5 -18 257.540 89.3583   2
  -1  -5 -17 1136.25 154.468   2
  -1  -5 -16 1620.46 173.747   2
  -1  -5 -15 250.734 71.1490   2
  -1  -5 -14 297.650 71.1994   2
   1  -5  13 1461.55 136.030   2
  -1  -5 -13 1656.91 154.102   2
   1  -5  12 3176.66 189.079   2
  -1  -5 -12 3141.13 199.783   2
   1  -5  11 283.496 54.7719   2
  -1   5  11 253.275 58.9871   2
  -1  -5 -11 327.411 69.3808   2
  -1  -5 -10 2408.96 160.171   2
  -1   5  10 2788.85 172.803   2
   1  -5  10 2460.75 149.772   2
   1  -5   9 312.973 54.1747   2
  -1   5   9 231.929 52.1528   2
   1  -5   8 3465.35 158.553   2
  -1   5   8 3562.39 175.681   2
  -1   5   7 7161.44 232.929   2
   1  -5   7 7113.97 211.154   2
  -1   5   6 23806.5 399.772   2
   1  -5   6 23520.8 354.421   2
   1  -5   5 3675.65 128.131   2
  -1   5   5 3589.41 142.105   2
  -1   5   4 18751.2 298.338   2
   1  -5   4 17917.3 256.799   2
  -1   5   3 5650.48 148.945   2
  -1   5   2 9143.00 173.399   2
   1  -5   0 100.848 16.9601   2
  -1  -5   0 58.3249 21.6174   1
   1  -5  -1 2649.26 83.7294   2
  -1  -5   1 2581.55 100.418   1
  -1  -5   2 9097.25 187.640   1
  -1   5  -2 8824.79 87.5644   1
   1  -5  -2 9220.23 175.556   2
   1  -5  -3 5685.34 154.573   2
  -1  -5   3 5974.78 156.908   1
   1  -5  -4 18279.5 303.148   2
   1  -5  -5 3678.25 149.441   2
   1   5   6 24321.8 414.072   2
   1  -5  -6 23643.6 407.851   2
   1   5   7 7450.71 242.863   2
  -1  -5   7 7369.61 263.558   2
   1  -5  -7 7268.67 241.591   2
   1   5   8 3615.99 177.072   2
   1  -5  -8 3493.50 178.342   2
  -1  -5   8 3532.43 192.507   2
   1  -5  -9 251.534 57.8175   2
   1   5   9 253.419 51.9482   2
  -1  -5   9 286.043 62.0597   2
  -1  -5  10 2497.59 174.713   2
   1   5  10 2899.05 172.952   2
   1  -5 -10 2241.74 162.011   2
   1   5  11 287.070 60.1133   2
   1  -5 -11 270.317 63.6407   2
  -1  -5  11 238.917 62.4417   2
   1  -5 -12 3034.74 207.667   2
   1  -5 -13 1740.17 165.595   2
   1  -5 -14 307.800 80.2966   2
   1  -5 -15 466.187 98.0391   2
   1  -5 -16 1972.49 199.418   2
   1  -5 -17 918.947 143.714   2
   1  -5 -18 208.265 85.3664   2
   1  -5 -19 556.682 119.204   2
   1  -5 -20 736.422 151.023   2
  -1  -6 -20 54.7475 54.8771   2
  -1  -6 -19 43.0762 40.6317   2
  -1  -6 -18 1199.09 165.396   2
  -1  -6 -17-21.2893 47.9851   2
  -1  -6 -16 461.818 98.1274   2
  -1  -6 -15 491.886 96.6158   2
  -1  -6 -14 1488.65 155.909   2
   1  -6  13 193.356 51.7616   2
  -1  -6 -13 228.521 63.8732   2
   1  -6  12 1359.66 124.913   2
  -1  -6 -12 1511.77 141.297   2
  -1   6  11 1088.93 114.924   2
  -1  -6 -11 1056.13 116.448   2
   1  -6  11 1117.78 107.492   2
   1   6 -10 4787.48 197.152   1
   1  -6  10 4519.22 204.457   2
  -1   6  10 4798.88 226.583   2
  -1  -6 -10 5002.16 235.214   2
   1   6  -9 776.318 77.8532   1
  -1   6   9 811.958 90.5115   2
   1  -6   9 757.545 82.2067   2
  -1   6   8 687.188 79.5518   2
   1   6  -8 636.298 69.3387   1
   1  -6   8 576.998 67.3717   2
   1  -6   7 8918.35 241.403   2
  -1   6   7 9495.41 271.617   2
  -1   6   6 9464.07 254.699   2
   1  -6   6 9339.96 230.229   2
  -1   6   5 2753.35 130.110   2
   1  -6   5 2778.74 117.693   2
   1   6  -5 2589.44 118.671   1
  -1   6   4 6779.10 188.688   2
   1   6  -4 7046.16 187.888   1
  -1   6   3 4979.76 149.195   2
   1   6  -3 5014.73 153.857   1
   1   6  -2 4125.95 135.571   1
  -1  -6   0 1300.21 75.2730   1
   1  -6   0 1216.60 34.6097   1
   1  -6   0 1278.87 59.9986   2
   1  -6  -1 6712.45 145.760   2
  -1  -6   1 6857.19 169.072   1
  -1  -6   2 3850.50 129.440   1
  -1   6  -2 3653.94 63.5932   1
   1  -6  -2 4033.40 125.327   2
  -1  -6   3 4851.80 150.312   1
  -1   6  -3 5275.01 91.6463   1
   1  -6  -3 5222.23 156.146   2
   1  -6  -4 7112.32 197.051   2
  -1  -6   4 7046.67 182.837   1
   1  -6  -5 2451.26 125.806   2
   1  -6  -6 8943.80 257.782   2
   1  -6  -7 8882.42 274.668   2
   1   6   7 9394.97 279.665   2
   1  -6  -8 665.721 85.8222   2
  -1  -6   8 556.368 80.9288   2
   1   6   8 712.134 82.4185   2
   1   6   9 782.029 90.1198   2
  -1  -6   9 833.500 99.6326   2
   1  -6  -9 792.809 95.5070   2
  -1  -6  10 4624.01 241.875   2
   1  -6 -10 4269.73 223.280   2
   1   6  10 4961.33 232.920   2
   1  -6 -11 964.861 115.460   2
   1   6  11 1112.52 115.820   2
  -1  -6  11 1027.06 119.984   2
   1  -6 -12 1381.00 144.129   2
   1  -6 -13 187.184 64.4321   2
   1  -6 -14 1568.81 166.186   2
   1  -6 -15 251.161 79.3817   2
   1  -6 -16 390.449 96.2960   2
   1  -6 -17-13.1713 40.2564   2
   1  -6 -18 1208.68 173.029   2
   1  -6 -19-3.50963 52.3936   2
   1  -6 -20 50.5651 57.8757   2
  -1  -7 -20 77.5949 63.4688   2
  -1  -7 -19 44.4181 55.0546   2
  -1  -7 -18 36.7558 52.2597   2
  -1  -7 -17 38.0806 49.2016   2
  -1  -7 -16 822.887 126.827   2
  -1  -7 -15 1023.10 138.813   2
  -1  -7 -14 149.776 61.7967   2
   1  -7  13 1128.69 120.205   2
  -1  -7 -13 1069.97 129.981   2
   1  -7  12 644.616 88.7267   2
  -1  -7 -12 611.559 94.5669   2
  -1  -7 -11 52.0709 46.7361   2
   1   7 -11 49.0627 35.8330   1
   1  -7  11-10.7368 23.7058   2
  -1  -7 -10 2001.86 154.787   2
  -1   7  10 2277.58 159.778   2
   1   7 -10 2335.93 142.323   1
   1  -7  10 2268.45 149.490   2
  -1   7   9 719.357 87.4577   2
   1  -7   9 600.904 75.4072   2
  -1  -7  -9 834.237 97.8744   2
   1   7  -9 747.807 78.5199   1
   1   7  -8 5041.61 195.737   1
  -1   7   8 5532.45 224.235   2
   1  -7   8 5210.72 202.339   2
  -1   7   7 13481.9 330.986   2
   1  -7   7 13524.1 305.805   2
   1  -7   6 11760.0 269.961   2
  -1   7   6 12405.1 298.925   2
   1   7  -5 13629.3 278.033   1
   1  -7   5 13555.2 271.197   2
  -1   7   5 13475.1 297.521   2
  -1   7   4 14960.6 292.770   2
   1   7  -4 14804.8 285.266   1
   1   7  -3 22794.3 335.806   1
   1   7  -2 243.049 34.9322   1
   1  -7   1 6625.15 89.5828   1
  -1  -7  -1 6350.90 175.640   1
   1  -7   0 6517.14 94.3676   1
  -1  -7   0 6937.79 179.397   1
   1  -7   0 6836.16 152.821   2
  -1  -7   1 7317.35 184.673   1
   1  -7  -1 6895.72 161.945   2
  -1  -7   2 219.648 36.5440   1
   1  -7  -2 188.189 31.1781   2
  -1   7  -3 21719.0 201.632   1
  -1  -7   3 22839.7 334.901   1
   1  -7  -3 22062.9 335.434   2
   1  -7  -4 15076.5 299.834   2
  -1  -7   4 15623.5 281.668   1
  -1   7  -4 15471.7 191.076   1
  -1   7  -5 12694.2 200.543   1
   1  -7  -5 14034.0 305.893   2
   1  -7  -6 11984.9 303.110   2
   1  -7  -7 13572.5 340.293   2
   1  -7  -8 5373.79 229.277   2
   1  -7  -9 686.573 90.5742   2
   1   7   9 880.906 97.8228   2
  -1  -7   9 838.267 102.624   2
   1   7  10 2044.67 153.793   2
  -1  -7  10 2347.87 176.579   2
   1  -7 -10 2433.84 171.583   2
   1  -7 -11-1.63741 43.1557   2
  -1  -7  11 48.8899 34.4158   2
   1  -7 -12 458.564 91.2051   2
   1  -7 -13 1053.51 131.628   2
   1  -7 -14 78.8194 65.7988   2
   1  -7 -15 1027.55 144.144   2
   1  -7 -16 960.749 145.694   2
   1  -7 -17 148.559 71.2449   2
   1  -7 -18 78.8868 62.6072   2
   1  -7 -19 105.423 71.4405   2
  -1  -8 -19 87.9697 68.3916   2
  -1  -8 -18 540.612 116.888   2
  -1  -8 -17 450.151 108.587   2
  -1  -8 -16 685.214 120.780   2
  -1  -8 -15 1978.65 193.788   2
  -1  -8 -14 994.805 132.704   2
  -1  -8 -13 5410.88 289.451   2
   1  -8  13 4996.79 255.030   2
  -1  -8 -12 329.198 70.0031   2
   1  -8  12 340.586 69.9966   2
   1  -8  11 1261.71 119.928   2
   1   8 -11 1308.60 112.393   1
  -1  -8 -11 1363.19 135.461   2
   1  -8  10 4690.79 218.417   2
  -1  -8 -10 4680.49 238.639   2
   1   8 -10 4940.11 208.899   1
  -1   8  10 5021.92 239.074   2
   1  -8   9 5747.23 228.304   2
  -1   8   9 5877.46 247.938   2
  -1  -8  -9 5965.32 262.679   2
   1   8  -9 6271.19 230.150   1
   1   8  -8 657.884 72.5643   1
  -1   8   8 585.316 75.7303   2
   1  -8   8 544.669 69.2393   2
  -1  -8  -8 470.555 75.9745   2
   1  -8   7 329.250 51.6793   2
   1   8  -7 306.861 47.3731   1
  -1   8   7 339.534 56.9965   2
  -1   8   6 6942.54 232.768   2
   1  -8   6 6378.83 207.750   2
  -1   8   5 6529.21 212.539   2
   1   8  -4 5480.99 179.017   1
   1   8  -3 19754.4 330.544   1
   1   8  -2 421.891 49.2933   1
   1  -8   1 9012.90 121.694   1
  -1  -8  -1 9199.23 217.792   1
   1  -8   0 5043.97 144.052   2
  -1  -8   0 5520.65 166.022   1
   1  -8   0 5352.58 97.2099   1
   1  -8  -1 9375.12 204.197   2
  -1  -8   1 9275.64 218.464   1
  -1  -8   2 524.789 52.9998   1
   1  -8  -2 583.435 56.5291   2
   1  -8  -3 20067.0 337.813   2
  -1  -8   3 19781.0 326.496   1
  -1   8  -3 19335.2 202.678   1
  -1  -8   4 5238.40 171.942   1
   1  -8  -4 5132.92 182.039   2
  -1   8  -4 5394.44 118.789   1
  -1   8  -5 6154.64 140.750   1
   1  -8  -5 6773.24 221.346   2
   1  -8  -6 6646.07 233.291   2
  -1   8  -6 6534.19 159.870   1
   1  -8  -7 342.931 61.3683   2
  -1   8  -7 349.340 40.1426   1
   1  -8  -8 522.848 78.4196   2
  -1  -8   9 6123.71 280.594   2
   1  -8  -9 6015.95 257.747   2
  -1  -8  10 4905.67 259.541   2
   1  -8 -10 4557.72 237.966   2
   1  -8 -11 1420.39 141.930   2
   1  -8 -12 299.883 75.1280   2
   1  -8 -13 4975.51 285.848   2
   1  -8 -14 1014.55 139.891   2
   1  -8 -15 2107.94 203.803   2
   1  -8 -16 564.541 118.234   2
   1  -8 -17 571.555 117.866   2
   1  -8 -18 509.220 117.700   2
   1  -8 -19 0.40536 35.1307   2
  -1  -9 -19 193.751 83.3106   2
  -1  -9 -18 179.314 72.2744   2
  -1  -9 -17 426.219 107.697   2
  -1  -9 -16 1235.90 161.711   2
  -1  -9 -15-3.55125 45.6152   2
  -1  -9 -14 35.5630 49.1818   2
   1  -9  13 1428.25 139.687   2
  -1  -9 -13 1789.49 172.562   2
   1  -9  12 1072.45 117.431   2
  -1  -9 -12 1257.89 142.334   2
   1  -9  11 536.330 80.9911   2
  -1  -9 -11 472.395 83.7372   2
  -1  -9 -10 347.167 72.3420   2
   1  -9  10 238.521 54.0938   2
   1   9 -10 197.119 51.0141   1
   1  -9   9 1701.23 129.427   2
   1   9  -9 1755.24 124.234   1
  -1   9   9 1617.69 132.735   2
  -1  -9  -9 1576.46 139.139   2
   1  -9   8 937.595 92.0574   2
   1   9  -8 1048.56 93.6196   1
  -1  -9  -8 916.975 103.318   2
  -1   9   8 1076.71 104.922   2
  -1   9   7 4767.28 208.284   2
   1   9  -7 4492.03 182.212   1
   1  -9   7 4202.78 183.670   2
  -1  -9  -7 4448.22 216.672   2
  -1   9   6 1122.33 97.2120   2
  -1  -9  -6 1002.82 102.043   2
   1   9  -6 1130.11 89.4246   1
   1  -9   1 4788.25 99.3972   1
  -1  -9  -1 4833.15 165.939   1
   1  -9   0 331.917 41.0750   2
  -1  -9   0 302.403 44.7751   1
   1  -9   0 356.334 28.7607   1
  -1  -9   1 4965.50 167.061   1
   1  -9  -1 4823.93 158.989   2
  -1  -9   2 3134.46 133.475   1
   1  -9  -2 3160.74 133.978   2
   1  -9  -3 6218.11 198.483   2
  -1  -9   3 6397.94 193.421   1
  -1  -9   4 1527.52 96.7258   1
  -1   9  -4 1391.33 63.0826   1
   1  -9  -4 1425.98 103.170   2
  -1   9  -5 730.067 50.6902   1
   1  -9  -5 641.632 72.7292   2
  -1   9  -6 1013.13 64.0156   1
   1  -9  -6 962.370 93.6634   2
  -1   9  -7 4497.06 143.581   1
   1  -9  -7 4172.22 201.041   2
  -1   9  -8 939.123 72.4857   1
   1  -9  -8 943.212 101.258   2
   1  -9  -9 1633.03 138.519   2
   1  -9 -10 295.502 67.5853   2
   1  -9 -11 413.429 77.6818   2
   1  -9 -12 1043.15 131.146   2
   1  -9 -13 1673.97 168.404   2
   1  -9 -14 62.6267 47.8378   2
   1  -9 -15-44.2413 51.5257   2
   1  -9 -16 1430.89 178.148   2
   1  -9 -17 244.088 85.4036   2
   1  -9 -18 36.6468 47.0040   2
   1  -9 -19 25.9885 54.2650   2
  -1 -10 -18 135.574 69.6904   2
  -1 -10 -17 67.3153 58.2262   2
  -1 -10 -16 1496.72 184.993   2
  -1 -10 -15 154.956 64.2172   2
  -1 -10 -14 780.777 121.678   2
   1 -10  13 1522.83 145.846   2
  -1 -10 -13 1661.09 167.745   2
   1 -10  12 267.532 61.9495   2
  -1 -10 -12 328.717 81.3075   2
   1 -10  11-1.33803 26.0917   2
  -1 -10 -11 33.1278 54.0725   2
  -1 -10 -10 1975.57 167.493   2
   1 -10  10 2070.80 152.165   2
   1  10 -10 1897.94 137.417   1
   1 -10   9 1166.83 108.802   2
   1  10  -9 1108.78 102.379   1
  -1 -10  -9 1201.58 124.886   2
  -1  10   9 1229.67 120.427   2
  -1  10   8 578.447 80.6761   2
   1 -10   8 505.125 71.7566   2
   1  10  -8 495.185 66.6930   1
  -1 -10  -8 401.352 73.4328   2
   1  10  -7 3625.10 169.560   1
  -1  10   7 3443.77 182.058   2
  -1 -10  -7 3571.31 198.402   2
   1 -10   7 3157.52 165.863   2
   1  10  -6 3434.89 160.193   1
  -1 -10  -6 3331.88 186.924   2
  -1 -10  -5 4267.99 206.751   2
   1  10  -5 3960.82 169.722   1
  -1 -10  -4 908.283 94.3810   2
  -1 -10  -1 5234.85 181.556   1
   1 -10   1 5500.22 115.562   1
   1 -10   0 2293.18 113.360   2
   1 -10   0 2295.59 77.4258   1
  -1 -10   0 2360.38 120.619   1
  -1 -10   1 5372.12 182.284   1
   1 -10  -1 5110.58 173.036   2
   1 -10  -1 5344.22 124.691   1
   1 -10  -2 7679.43 220.019   2
  -1 -10   2 7556.92 213.980   1
   1 -10  -3 7662.80 231.357   2
  -1 -10   3 7471.23 216.327   1
   1 -10  -4 852.034 83.0420   2
  -1 -10   4 785.391 74.5583   1
  -1  10  -4 819.699 51.5584   1
  -1  10  -5 4056.12 122.316   1
   1 -10  -5 3838.73 181.306   2
   1 -10  -6 3272.24 175.164   2
  -1  10  -6 3206.17 116.645   1
  -1  10  -7 3202.80 126.104   1
   1 -10  -7 3402.64 185.742   2
  -1  10  -8 512.038 55.7476   1
   1 -10  -8 477.923 78.1616   2
   1 -10  -9 1442.87 132.996   2
   1 -10 -10 1790.05 157.747   2
   1 -10 -11 6.45106 47.1839   2
  -1  10 -11 27.1233 18.6466   1
   1 -10 -12 374.048 86.5658   2
  -1  10 -12 441.663 62.0854   1
   1 -10 -13 1401.58 158.806   2
  -1  10 -13 1352.26 111.692   1
   1 -10 -14 731.135 123.274   2
   1 -10 -15 153.652 72.2138   2
   1 -10 -16 1352.85 175.853   2
   1 -10 -17 97.1389 72.9361   2
   1 -10 -18 157.775 82.5451   2
  -1 -11 -17 238.186 85.0658   2
  -1 -11 -16 162.161 78.0446   2
  -1 -11 -15 954.990 143.283   2
  -1 -11 -14 427.515 97.3532   2
  -1 -11 -13-58.1460 60.1480   2
  -1 -11 -12 659.317 109.167   2
   1 -11  12 556.343 89.7519   2
   1 -11  11 359.011 70.2412   2
  -1 -11 -11 482.012 90.5182   2
  -1 -11 -10 357.909 76.7578   2
   1 -11  10 431.980 73.8908   2
   1  11  -9 7.30314 20.3909   1
  -1 -11  -9-29.3967 48.8170   2
   1 -11   9 5.32513 26.0646   2
   1  11  -8 3798.10 186.496   1
  -1 -11  -8 3883.13 222.673   2
   1 -11   8 3452.46 187.858   2
   1  11  -7 4467.68 193.967   1
  -1 -11  -7 4483.07 231.787   2
  -1 -11  -6 3578.83 201.216   2
   1  11  -6 3625.38 169.952   1
  -1 -11  -5 2831.78 175.480   2
   1  11  -5 3025.22 151.204   1
   1  11  -4 6762.18 221.072   1
  -1 -11  -4 6801.95 263.608   2
  -1 -11  -3 5661.75 235.002   2
  -1 -11  -2 526.536 62.9208   1
   1 -11   1 2362.25 83.6719   1
  -1 -11  -1 2572.33 131.869   1
   1 -11   0 371.841 35.3967   1
  -1 -11   0 232.038 43.0216   1
   1 -11   0 292.664 43.6945   2
   1 -11  -1 2524.18 129.036   2
  -1 -11   1 2551.50 130.759   1
   1 -11  -1 2583.47 92.4208   1
  -1 -11   2 476.114 58.3937   1
   1 -11  -2 454.127 57.5834   2
   1 -11  -3 5756.08 211.815   2
  -1 -11   3 5587.08 194.956   1
  -1 -11   4 6562.50 214.408   1
   1 -11  -4 6380.84 231.386   2
  -1  11  -5 3039.80 109.260   1
   1 -11  -5 2853.62 164.560   2
  -1  11  -6 3778.10 130.669   1
   1 -11  -6 3842.35 194.896   2
  -1  11  -7 4314.46 150.151   1
   1 -11  -7 4334.14 217.256   2
  -1  11  -8 3785.39 149.472   1
   1 -11  -8 3820.52 214.407   2
   1 -11  -9-26.9317 40.7577   2
  -1  11 -10 503.870 61.3590   1
   1 -11 -10 471.016 89.8216   2
  -1  11 -11 384.793 57.8684   1
   1 -11 -11 426.874 88.9689   2
   1 -11 -12 407.438 87.4194   2
  -1  11 -12 423.561 63.5357   1
  -1  11 -13 10.8507 20.9281   1
   1 -11 -13 47.7271 40.8476   2
   1 -11 -14 475.973 103.822   2
   1 -11 -15 740.000 129.083   2
   1 -11 -16 129.634 72.5807   2
   1 -11 -17 218.112 86.5564   2
   1 -11 -18 133.612 77.1979   2
  -1 -12 -17 64.3701 62.0825   2
  -1 -12 -16 449.851 109.050   2
  -1 -12 -15 110.827 57.6621   2
  -1 -12 -14 1100.84 151.492   2
  -1 -12 -13 101.405 52.8842   2
  -1 -12 -12 50.6096 47.9323   2
   1 -12  12-11.6488 25.6559   2
  -1 -12 -11 337.297 77.9644   2
   1 -12  11 308.485 66.1678   2
  -1 -12 -10 1988.33 177.880   2
   1 -12  10 1960.83 155.722   2
  -1 -12  -9 2467.63 190.387   2
   1 -12   9 2248.85 161.607   2
  -1 -12  -8 2715.06 193.171   2
   1  12  -8 2407.48 153.484   1
   1 -12   8 2337.60 160.272   2
  -1 -12  -7 5899.31 274.867   2
   1  12  -7 6057.81 231.182   1
   1  12  -6 3084.27 162.680   1
  -1 -12  -6 2982.76 191.153   2
  -1 -12  -5 417.457 76.3684   2
   1  12  -5 408.198 60.5771   1
  -1 -12  -4 1931.23 146.821   2
  -1 -12  -3 1384.46 123.117   2
  -1 -12  -2 3989.12 173.711   1
  -1 -12  -1 1709.13 111.252   1
   1 -12   1 1481.97 70.6163   1
   1 -12   0 1439.96 70.8168   1
   1 -12   0 1467.46 102.823   2
  -1 -12   0 1450.16 104.489   1
   1 -12  -1 1657.20 111.571   2
  -1 -12   1 1818.76 115.435   1
   1 -12  -1 1554.39 77.0553   1
  -1 -12   2 4312.63 177.135   1
   1 -12  -2 3995.80 129.629   1
   1 -12  -2 3935.16 176.009   2
  -1 -12   3 1381.47 101.191   1
   1 -12  -3 1269.05 104.254   2
   1 -12  -4 1922.66 133.760   2
  -1 -12   4 1806.95 119.402   1
   1 -12  -5 358.031 65.2239   2
  -1  12  -6 3205.39 122.782   1
   1 -12  -6 3338.44 189.497   2
   1 -12  -7 5933.52 263.184   2
  -1  12  -7 5201.08 169.103   1
   1 -12  -8 2446.11 175.444   2
  -1  12  -8 2593.97 125.203   1
   1 -12  -9 2206.26 174.859   2
  -1  12 -10 2020.70 122.068   1
   1 -12 -10 2327.42 184.267   2
  -1  12 -11 252.167 47.0440   1
   1 -12 -11 357.248 82.3222   2
  -1  12 -12-7.34685 17.4346   1
   1 -12 -12 27.5304 43.5579   2
   1 -12 -13 131.981 78.5494   2
   1 -12 -14 918.624 139.778   2
   1 -12 -15 87.3157 64.0483   2
   1 -12 -16 394.759 106.364   2
   1 -12 -17-2.71110 66.1747   2
  -1 -13 -16 166.139 75.3113   2
  -1 -13 -15 158.221 71.6591   2
  -1 -13 -14 490.270 107.414   2
  -1 -13 -13 107.113 60.6784   2
  -1 -13 -12 291.889 77.7796   2
   1 -13  11 649.462 95.2747   2
  -1 -13 -11 401.180 91.0659   2
  -1 -13 -10 1090.26 137.485   2
   1 -13  10 882.789 108.193   2
   1 -13   9 691.603 93.1880   2
  -1 -13  -9 797.646 114.127   2
   1 -13   8 100.610 40.0998   2
  -1 -13  -8 86.1983 47.7694   2
   1  13  -7 188.445 47.7744   1
  -1 -13  -7 231.020 65.9549   2
   1  13  -6 328.060 57.6846   1
  -1 -13  -6 268.779 69.6033   2
  -1 -13  -5 678.238 94.1227   2
  -1 -13  -4 6240.75 274.506   2
  -1 -13  -3 119.974 44.0370   2
  -1 -13  -3 157.529 44.1318   1
  -1 -13  -2 1718.00 117.710   1
   1 -13   1 315.329 36.0221   1
  -1 -13  -1 304.625 51.7854   1
  -1 -13   0 371.659 58.4679   1
   1 -13   0 360.378 54.2717   2
   1 -13   0 338.804 36.8621   1
   1 -13  -1 321.234 39.2203   1
  -1 -13   1 344.927 56.6329   1
   1 -13  -1 340.130 59.0670   2
  -1 -13   2 1604.89 112.829   1
   1 -13  -2 1704.04 89.2725   1
   1 -13  -2 1529.90 117.096   2
   1 -13  -3 143.661 41.8008   2
  -1 -13   3 114.349 37.3538   1
   1 -13  -4 6250.52 250.322   2
  -1 -13   4 6462.31 229.215   1
   1 -13  -5 535.152 84.6424   2
   1 -13  -6 355.968 70.3753   2
   1 -13  -7 254.000 61.9582   2
  -1  13  -7 188.307 36.2709   1
   1 -13  -8 20.8803 32.3643   2
   1 -13  -9 719.596 103.188   2
  -1  13 -10 1192.12 97.0032   1
   1 -13 -10 1123.69 132.181   2
   1 -13 -11 472.991 95.2607   2
  -1  13 -11 508.825 67.9358   1
  -1  13 -12 305.019 54.4925   1
   1 -13 -12 389.774 92.1928   2
   1 -13 -13 88.1901 47.2868   2
   1 -13 -14 467.814 105.150   2
   1 -13 -15 79.3839 63.4925   2
   1 -13 -16 7.07612 57.9445   2
   1 -13 -17 272.870 98.5836   2
  -1 -14 -15 13.6357 43.3095   2
  -1 -14 -14 651.014 122.976   2
  -1 -14 -13 26.5799 41.7368   2
  -1 -14 -12 80.8004 55.7081   2
  -1 -14 -11 1987.72 192.677   2
  -1 -14 -10 317.170 81.8627   2
   1 -14   9 93.5691 42.0914   2
  -1 -14  -9 220.745 73.8358   2
   1 -14   8 495.787 79.9286   2
  -1 -14  -8 478.923 91.2032   2
  -1 -14  -7 2207.80 182.364   2
  -1 -14  -6 6712.22 307.123   2
  -1 -14  -5 1376.73 139.735   2
  -1 -14  -4 441.727 83.2028   2
  -1 -14  -3 3236.12 205.031   2
  -1 -14  -3 3235.44 170.676   1
  -1 -14  -2 1787.77 126.176   1
   1 -14   1 860.069 60.0837   1
  -1 -14  -1 785.621 83.1402   1
   1 -14   1 931.630 90.7225   2
  -1 -14   0 466.748 64.6798   1
   1 -14   0 493.789 69.4285   2
   1 -14   0 539.232 49.6674   1
   1 -14  -1 723.942 84.1210   2
  -1 -14   1 774.772 80.7295   1
   1 -14  -1 962.891 68.4195   1
  -1 -14   2 1724.57 121.216   1
   1 -14  -2 1938.78 99.2032   1
   1 -14  -2 1681.67 128.615   2
  -1 -14   3 3328.01 168.653   1
   1 -14  -3 3423.06 137.714   1
   1 -14  -3 3189.98 180.626   2
  -1 -14   4 467.887 67.7115   1
   1 -14  -4 417.780 69.8257   2
   1 -14  -5 1490.36 134.974   2
   1 -14  -6 6873.77 292.896   2
   1 -14  -7 2163.84 169.677   2
  -1  14  -7 2198.71 113.804   1
   1 -14  -8 412.271 81.3231   2
   1 -14  -9 175.999 56.2337   2
   1 -14 -10 414.143 88.3630   2
  -1  14 -10 284.221 50.4723   1
   1 -14 -11 2031.29 188.804   2
   1 -14 -12 58.6349 55.3980   2
   1 -14 -13 104.676 49.6008   2
   1 -14 -14 633.864 122.774   2
   1 -14 -15 183.788 81.3032   2
   1 -14 -16 21.2620 52.1198   2
  -1 -15 -14 47.8800 49.8375   2
  -1 -15 -13 321.542 90.8485   2
  -1 -15 -12 8.29419 48.8736   2
  -1 -15 -11 196.593 70.4242   2
  -1 -15 -10 408.362 93.0459   2
  -1 -15  -9 333.389 85.2246   2
  -1 -15  -8 499.652 95.8441   2
  -1 -15  -7 2515.90 198.180   2
  -1 -15  -6 1492.55 154.410   2
  -1 -15  -5 40.1522 38.6899   2
  -1 -15  -4 1741.42 132.469   1
  -1 -15  -4 1716.16 156.698   2
  -1 -15  -3 1013.31 100.614   1
  -1 -15  -3 1068.76 125.705   2
  -1 -15  -2 822.894 89.3973   1
   1 -15   1 955.718 66.0481   1
   1 -15   1 879.286 93.9459   2
  -1 -15  -1 781.846 86.2145   1
   1 -15   0 403.541 66.8853   2
   1 -15   0 368.164 43.4317   1
  -1 -15   0 289.646 55.7839   1
  -1 -15   1 813.703 87.7403   1
   1 -15  -1 882.253 67.8031   1
   1 -15  -1 887.114 96.0346   2
   1 -15  -2 673.285 62.6073   1
  -1 -15   2 756.213 85.3941   1
   1 -15  -2 766.973 91.2676   2
  -1 -15   3 953.366 96.4914   1
   1 -15  -3 1082.99 109.768   2
   1 -15  -3 1250.13 88.7634   1
   1 -15  -4 1718.55 144.489   2
  -1 -15   4 1884.01 131.446   1
   1 -15  -5 90.2315 46.7986   2
   1 -15  -6 1335.79 134.691   2
   1 -15  -7 2757.76 197.073   2
   1 -15  -8 556.865 96.3244   2
   1 -15  -9 289.596 74.9509   2
   1 -15 -10 329.267 83.3767   2
   1 -15 -11 202.201 71.2134   2
   1 -15 -12 46.6435 47.7563   2
   1 -15 -13 118.329 61.1739   2
   1 -15 -14-51.7340 56.7794   2
   1 -15 -15 85.5914 69.6123   2
  -1 -16 -13 265.582 88.9007   2
  -1 -16 -12 65.2537 49.8493   2
  -1 -16 -11 988.437 145.265   2
  -1 -16 -10 150.880 56.4835   2
  -1 -16  -9 180.185 70.5904   2
  -1 -16  -8 393.938 90.1346   2
  -1 -16  -7 614.443 109.885   2
  -1 -16  -6 1632.28 163.442   2
  -1 -16  -5 1673.78 164.349   2
  -1 -16  -5 1511.02 129.408   1
  -1 -16  -4 20.0873 43.3915   2
  -1 -16  -4 25.0928 29.6208   1
  -1 -16  -3 1278.02 116.625   1
  -1 -16  -3 1319.59 141.331   2
  -1 -16  -2 244.144 69.4154   2
  -1 -16  -2 308.737 60.1248   1
  -1 -16  -1 199.262 46.7710   1
   1 -16   1 244.140 55.3327   2
   1 -16   1 240.679 35.2052   1
  -1 -16   0 402.092 64.5491   1
   1 -16   0 295.075 58.8763   2
   1 -16   0 402.467 46.5280   1
   1 -16  -1 243.072 38.8709   1
  -1 -16   1 161.559 45.4429   1
   1 -16  -1 182.061 49.0522   2
  -1 -16   2 267.979 53.0477   1
   1 -16  -2 257.515 56.0892   2
   1 -16  -2 279.894 42.2246   1
   1 -16  -3 1501.48 97.6589   1
  -1 -16   3 1433.90 118.736   1
   1 -16  -3 1178.83 120.342   2
   1 -16  -4 25.5470 17.1134   1
   1 -16  -4 79.4707 39.9129   2
  -1 -16   4-4.42507 24.3218   1
   1 -16  -5 1518.31 143.198   2
   1 -16  -6 1745.56 159.290   2
   1 -16  -7 710.043 105.851   2
   1 -16  -8 369.593 81.4148   2
   1 -16  -9 176.720 70.9779   2
   1 -16 -10 290.663 73.0384   2
   1 -16 -11 809.890 126.591   2
   1 -16 -12 49.6156 57.7726   2
   1 -16 -13 110.087 61.7266   2
   1 -16 -14 36.9249 40.5858   2
   1 -16 -15 97.5829 60.5193   2
  -1 -17 -12 72.0030 60.5163   2
  -1 -17 -11 161.405 70.8522   2
  -1 -17 -10 283.997 90.3040   2
  -1 -17  -9 244.675 78.1096   2
  -1 -17  -8 409.987 93.6351   2
  -1 -17  -7 716.249 118.890   2
  -1 -17  -6 70.0209 50.9348   2
  -1 -17  -6 133.853 46.8095   1
  -1 -17  -5 469.682 78.7141   1
  -1 -17  -5 590.744 102.193   2
  -1 -17  -4 200.038 51.9443   1
  -1 -17  -4 162.227 60.0836   2
  -1 -17  -3 792.956 115.759   2
  -1 -17  -3 843.306 96.8017   1
  -1 -17  -2 83.4968 38.3665   1
   1 -17   2 50.1793 33.6097   2
  -1 -17  -2 19.9997 36.4364   2
   1 -17   1 216.792 50.1059   2
  -1 -17  -1 300.187 61.3177   1
   1 -17   0 1260.59 122.380   2
  -1 -17   0 1199.59 112.878   1
   1 -17   0 1347.17 85.6498   1
  -1 -17   1 178.359 46.6470   1
   1 -17  -1 263.168 39.8549   1
   1 -17  -1 265.423 60.7211   2
   1 -17  -2 84.6763 39.3345   2
  -1 -17   2 62.8757 29.9543   1
   1 -17  -2 66.3502 25.9379   1
   1 -17  -3 704.045 96.6358   2
   1 -17  -3 784.253 75.0929   1
  -1 -17   3 794.048 91.3195   1
   1 -17  -4 261.502 46.0802   1
   1 -17  -4 46.0278 38.4701   2
  -1 -17   4 187.219 49.6702   1
   1 -17  -5 650.763 73.5211   1
   1 -17  -5 380.231 79.7708   2
   1 -17  -6 75.6390 44.6450   2
   1 -17  -7 821.993 115.395   2
   1 -17  -8 236.954 71.4501   2
   1 -17  -9 278.931 76.1514   2
   1 -17 -10 263.236 82.0607   2
   1 -17 -11 221.250 72.8968   2
   1 -17 -12 14.8190 42.9405   2
   1 -17 -13 92.1602 63.1905   2
   1 -17 -14 68.7495 70.1941   2
  -1 -18 -11 98.0257 67.5065   2
  -1 -18 -10 74.1181 59.2744   2
  -1 -18  -9 51.9110 47.6180   2
  -1 -18  -8 133.917 66.4770   2
  -1 -18  -7 148.767 45.1691   1
  -1 -18  -7 12.6985 48.3221   2
  -1 -18  -6 774.275 123.443   2
  -1 -18  -6 720.922 97.8795   1
  -1 -18  -5 133.112 43.7724   1
  -1 -18  -5 134.365 57.6159   2
  -1 -18  -4 25.0415 26.3059   1
  -1 -18  -4-24.9960 39.4623   2
   1 -18   3 565.594 84.8355   2
  -1 -18  -3 600.758 105.855   2
  -1 -18  -3 518.152 80.5502   1
   1 -18   2 173.440 51.7826   2
  -1 -18  -2 127.536 53.5865   2
  -1 -18  -2 160.883 48.6274   1
  -1 -18  -1 146.314 58.8919   2
   1 -18   1 250.556 61.7835   2
  -1 -18  -1 39.8043 36.7680   1
  -1 -18   0 251.725 54.6649   1
   1 -18   0 243.407 59.1319   2
  -1 -18   1 89.8116 39.2000   1
   1 -18  -1 40.7570 35.5184   2
   1 -18  -2 129.733 51.5236   2
  -1 -18   2 96.6506 38.8424   1
  -1 -18   3 523.380 76.5467   1
   1 -18  -3 566.107 65.0195   1
   1 -18  -3 559.246 89.7914   2
  -1 -18   4 29.5469 29.3123   1
   1 -18  -4 15.6784 18.0544   1
   1 -18  -4 27.6160 37.5085   2
   1 -18  -5 178.588 61.2016   2
   1 -18  -5 192.619 43.9603   1
   1 -18  -6 830.431 116.795   2
   1 -18  -6 681.125 79.8863   1
   1 -18  -7 38.9110 49.9384   2
   1 -18  -8 91.8662 51.1055   2
   1 -18  -9 104.263 55.5398   2
   1 -18 -10-46.1017 44.8925   2
   1 -18 -11 184.922 68.5421   2
   1 -18 -12 92.2916 55.6386   2
   1 -18 -13 290.679 103.347   2
  -1 -19 -10 107.447 55.4240   2
  -1 -19  -9 262.375 87.5088   2
  -1 -19  -8 105.945 61.1408   2
  -1 -19  -8 180.963 51.7075   1
  -1 -19  -7 307.724 89.4632   2
  -1 -19  -7 254.825 64.2897   1
  -1 -19  -6 123.651 50.1756   1
  -1 -19  -6 141.002 64.7907   2
  -1 -19  -5 111.882 47.5131   1
  -1 -19  -5 116.147 62.2505   2
  -1 -19  -4 546.254 84.6398   1
  -1 -19  -4 586.331 103.717   2
  -1 -19  -3 487.567 80.0628   1
  -1 -19  -3 495.418 96.6885   2
   1 -19   3 513.671 85.8322   2
  -1 -19  -2 111.626 40.3236   1
  -1 -19  -2 125.897 55.5600   2
   1 -19   2 177.480 51.2386   2
  -1 -19  -1-5.76322 29.4461   1
   1 -19   1 28.1030 33.8155   2
  -1 -19  -1-4.27736 37.1701   2
  -1 -19   0 134.921 45.1468   1
   1 -19   0 19.7849 29.5768   2
   1 -19  -1-18.4603 33.5432   2
  -1 -19   1 40.7960 30.6518   1
  -1 -19   2 152.000 46.2081   1
   1 -19  -2 235.097 62.2881   2
  -1 -19   3 512.525 78.1534   1
   1 -19  -3 725.205 107.329   2
   1 -19  -4 419.487 80.3353   2
   1 -19  -5 74.4177 35.8679   2
   1 -19  -6 197.447 67.8957   2
   1 -19  -7 188.071 62.4806   2
   1 -19  -8 101.102 43.2697   2
   1 -19  -9 456.829 100.391   2
   1 -19 -10 170.210 65.1127   2
   1 -19 -11 58.1942 46.1515   2
   1 -19 -12 97.2303 73.1472   2
  -1 -20  -9 100.707 54.8952   1
  -1 -20  -8 90.5351 65.8962   2
  -1 -20  -8 31.5264 26.9850   1
  -1 -20  -7 90.4911 43.9543   1
  -1 -20  -7 143.161 71.7607   2
  -1 -20  -6 255.864 63.6302   1
  -1 -20  -6 373.090 92.4913   2
  -1 -20  -5 9.59338 27.0035   1
  -1 -20  -5 274.268 81.0682   2
  -1 -20  -4 338.172 71.6382   1
  -1 -20  -4 233.758 77.1453   2
  -1 -20  -3 107.741 45.0251   1
  -1 -20  -3 150.084 64.6176   2
   1 -20   3 187.938 56.9579   2
  -1 -20  -2 440.322 96.0174   2
   1 -20   2 511.312 90.2646   2
  -1 -20  -2 368.795 73.0409   1
  -1 -20  -1 37.8358 32.1544   1
   1 -20   1 113.236 49.0653   2
  -1 -20  -1 88.4737 54.7220   2
  -1 -20   0 143.040 45.2014   1
   1 -20   0 227.813 64.3479   2
  -1 -20   0 181.595 72.2531   2
  -1 -20   1 114.359 40.6426   1
   1 -20  -1 143.502 50.7014   2
   1 -20  -2 489.494 91.9773   2
  -1 -20   2 460.173 77.0355   1
  -1 -20   3 261.193 61.6946   1
   1 -20  -3 102.237 53.7936   2
   1 -20  -4 261.873 68.6942   2
   1 -20  -5 112.043 51.7935   2
   1 -20  -6 265.637 76.3691   2
   1 -20  -7 119.798 57.9004   2
   1 -20  -8 168.090 69.1641   2
   1 -20  -9 89.8278 58.5728   2
   1 -20 -10 109.784 67.6091   2
   1 -20 -11 5.15958 50.3915   2
  -1 -21  -8 256.911 72.8591   1
  -1 -21  -7-1.23319 30.2948   1
  -1 -21  -6 388.334 98.7221   2
  -1 -21  -6 257.473 69.4907   1
  -1 -21  -5 40.8182 35.9359   1
  -1 -21  -5-14.9811 42.1472   2
  -1 -21  -4 77.5313 43.9920   1
  -1 -21  -4 35.8740 47.9755   2
  -1 -21  -3 15.9086 37.5821   2
  -1 -21  -3 80.5346 44.7408   1
  -1 -21  -2 80.8152 49.9677   2
  -1 -21  -2 30.0631 27.5361   1
  -1 -21  -1 18.2500 41.9814   2
  -1 -21   0-3.32296 35.7374   2
   1 -21  -1 81.0566 46.8704   2
   1 -21  -2-15.1943 41.0551   2
   1 -21  -3 68.7279 47.7614   2
   1 -21  -4 59.5054 46.2343   2
   1 -21  -5-25.4586 37.1794   2
   1 -21  -6 151.013 58.8498   2
   1 -21  -7 7.73410 33.2437   2
   1 -21  -8 147.382 71.6197   2
   1 -21  -9 70.5387 47.9279   2
  -1 -22  -3 66.1593 55.5772   2
  -1 -22  -2 140.162 65.7297   2
  -1 -22  -1 37.3848 47.6026   2
  -1 -22   0 75.1889 61.2716   2
  -1 -22   1 113.793 64.7838   2
  -2   0   0 1107.92 61.4820   1
   2   0  -1 931.608 56.1613   1
  -2   0  -1 916.182 55.8657   1
  -2   0   1 826.572 55.2561   1
  -2   0   2 2237.89 89.7125   1
   2   0  -2 2006.27 86.8816   1
   2   0  -3 37818.8 389.069   1
  -2   0  -3 38012.1 358.374   2
  -2   0   4 1617.55 108.249   2
   2   0  -4 1631.94 85.5354   1
  -2   0  -4 1703.02 80.7255   2
   2   0  -5 10377.4 227.460   1
  -2   0  -5 10004.0 212.880   2
  -2   0   5 9914.80 272.292   2
  -2   0   6 9679.59 285.520   2
  -2   0  -6 9271.61 222.042   2
   2   0   6 9272.08 217.947   2
   2   0   7 25334.5 389.276   2
  -2   0   7 25629.5 487.354   2
  -2   0  -7 24787.8 389.187   2
  -2   0   8 10070.0 322.299   2
   2   0   8 10032.7 261.585   2
  -2   0  -8 9782.96 262.194   2
  -2   0   9 0.35374 30.7788   2
   2   0   9-8.62432 22.8951   2
  -2   0  10 358.287 70.1922   2
   2   0  10 364.748 59.6990   2
   2   0  11 145.365 43.0191   2
  -2   0 -11 60.7215 35.1740   2
  -2   0  11 119.341 50.2351   2
  -2   0 -12 417.386 72.8170   2
   2   0  12 497.650 74.4470   2
  -2   0 -13-18.1769 44.9320   2
   2   0  13 9.78799 21.8842   2
  -2   0 -14 1708.97 159.951   2
  -2   0 -15 47.3914 46.9111   2
  -2   0 -16 4397.77 272.023   2
  -2   0 -17 1511.87 168.504   2
  -2   0 -18 270.673 78.8017   2
  -2   0 -19 96.5845 60.5692   2
  -2   0 -20 317.157 95.1941   2
  -2   0 -21 114.678 67.3422   2
  -2  -1 -21 96.7950 60.8699   2
  -2  -1 -20 533.628 119.478   2
  -2  -1 -19 195.428 82.5299   2
  -2  -1 -18 49.2531 54.7513   2
  -2  -1 -17 204.908 66.2419   2
  -2  -1 -16 157.442 56.8525   2
  -2  -1 -15 271.052 74.1808   2
  -2  -1 -14 578.548 95.0521   2
  -2  -1 -13 3170.19 202.503   2
   2  -1  13 3436.37 201.635   2
   2  -1  12 1318.46 119.734   2
  -2  -1 -12 1286.73 126.712   2
   2  -1  11 7014.70 257.764   2
  -2  -1 -11 6279.86 259.836   2
  -2   1  11 6666.57 293.101   2
  -2   1  10 1010.68 111.366   2
   2  -1  10 840.778 85.0883   2
  -2  -1 -10 991.499 99.5099   2
  -2   1   9 2932.95 178.395   2
   2  -1   9 3153.02 151.848   2
  -2   1   8 10791.2 327.473   2
   2  -1   8 10303.1 255.891   2
  -2   1   7 1094.58 102.372   2
  -2  -1  -7 1010.30 84.5319   2
   2  -1   7 1181.47 81.2866   2
  -2   1   6 13102.5 322.454   2
  -2  -1  -6 12643.8 269.268   2
   2  -1   6 12640.6 243.182   2
  -2   1   5 4524.75 180.419   2
  -2  -1  -5 4678.34 153.311   2
   2  -1   5 4545.57 133.429   2
  -2  -1  -4 5415.68 153.869   2
  -2   1   4 5448.36 184.205   2
  -2   1   3 8766.23 215.433   2
  -2  -1  -3 8515.96 184.899   2
  -2   1   2 11891.1 235.790   2
  -2   1   1 2299.13 82.4210   1
  -2  -1  -1 2351.11 93.5360   1
  -2   1   0 732.024 47.1323   1
  -2  -1   0 789.144 55.0375   1
  -2  -1   1 2552.08 96.8766   1
  -2   1  -1 2413.70 82.1254   1
   2  -1  -1 2267.98 82.9003   1
  -2  -1   2 12654.0 221.040   1
   2  -1  -2 12383.5 202.957   1
  -2  -1   3 8519.35 188.622   1
  -2   1  -3 8827.67 151.396   2
   2  -1  -3 8699.11 180.299   1
   2  -1  -4 5478.70 152.256   1
  -2   1  -4 5302.43 131.021   2
  -2  -1   5 4723.05 193.183   2
  -2   1  -5 4418.74 134.602   2
  -2   1  -6 12426.1 243.417   2
  -2  -1   6 13090.8 340.814   2
  -2   1  -7 1094.96 81.3640   2
   2   1   7 1003.26 80.5200   2
  -2  -1   7 1181.77 109.634   2
  -2  -1   8 10540.1 334.267   2
   2   1   8 10576.8 277.427   2
  -2   1  -8 9769.88 258.339   2
  -2  -1   9 2993.33 186.166   2
   2  -1  -9 2786.27 181.451   2
   2   1   9 2796.25 152.424   2
  -2  -1  10 952.680 111.063   2
   2   1  10 1009.61 96.9894   2
   2  -1 -10 865.249 109.315   2
   2  -1 -11 6977.88 307.939   2
  -2   1 -11 6556.32 256.927   2
   2   1  11 6686.11 259.703   2
  -2  -1  11 7105.12 308.202   2
  -2   1 -12 1447.86 129.652   2
   2  -1 -12 1230.72 141.311   2
   2   1  12 1448.16 127.383   2
   2  -1 -13 3657.02 248.929   2
  -2   1 -13 3302.92 208.023   2
   2   1  13 3306.07 202.899   2
   2  -1 -14 667.767 113.898   2
  -2   1 -14 703.181 105.639   2
   2  -1 -15 346.311 86.1056   2
  -2   1 -15 323.894 79.6433   2
  -2   1 -16 114.290 55.4496   2
  -2   1 -17 195.335 73.2797   2
  -2   1 -18 1.58553 41.0398   2
  -2   1 -19 249.053 82.6366   2
  -2   1 -20 336.735 93.7574   2
  -2   1 -21 20.3448 44.8924   2
  -2   1 -22 103.936 69.3461   2
  -2  -2 -21 13.1857 42.6101   2
  -2  -2 -20 324.202 94.8660   2
  -2  -2 -19-43.8278 48.2843   2
  -2  -2 -18 26.0076 45.3752   2
  -2  -2 -17 1085.35 149.645   2
  -2  -2 -16 960.433 133.348   2
  -2  -2 -15 420.334 88.1300   2
   2  -2  14 162.260 48.8450   2
  -2  -2 -14 178.906 62.7654   2
  -2  -2 -13 765.239 106.670   2
   2  -2  13 688.743 91.3155   2
   2  -2  12 1263.55 117.113   2
  -2  -2 -12 1227.25 121.962   2
   2  -2  11 3432.04 177.312   2
  -2  -2 -11 3369.60 193.116   2
  -2   2  11 3664.92 215.473   2
   2  -2  10 3477.96 167.974   2
  -2  -2 -10 3164.37 174.877   2
  -2   2  10 3778.48 210.709   2
   2  -2   9 18174.7 358.136   2
  -2   2   9 18575.7 440.764   2
  -2   2   8 6153.07 240.979   2
   2  -2   8 6492.74 200.105   2
   2  -2   7 21649.9 333.171   2
  -2   2   7 22636.8 437.885   2
  -2   2   6 966.664 89.7336   2
  -2  -2  -6 944.768 80.8581   2
   2  -2   6 1015.71 66.2090   2
  -2   2   5 3036.82 144.744   2
  -2  -2  -5 2715.63 124.491   2
   2  -2   5 2695.03 95.7490   2
  -2  -2  -4 23639.3 348.081   2
  -2   2   4 24202.4 377.311   2
  -2   2   3 1656.23 91.6182   2
  -2   2   2 12457.9 220.935   2
  -2   2   1 4523.90 107.322   1
  -2   2   1 4828.20 124.764   2
  -2  -2  -1 4717.63 137.800   1
  -2   2   0 3776.66 94.0649   1
  -2  -2   0 3891.41 125.269   1
  -2  -2   1 4451.73 136.089   1
   2  -2  -1 4481.61 108.392   1
  -2   2  -1 4678.44 102.750   1
  -2  -2   2 12474.6 230.081   1
   2  -2  -2 12578.0 191.483   1
  -2   2  -2 12778.1 140.226   2
  -2  -2   3 1586.39 86.5453   1
   2  -2  -3 1636.21 75.9432   1
  -2   2  -3 1805.03 60.3671   2
  -2   2  -4 24360.8 255.754   2
   2  -2  -5 2495.39 137.880   2
  -2   2  -5 2624.35 96.6770   2
  -2  -2   6 1087.96 101.914   2
   2  -2  -6 984.276 96.1639   2
  -2   2  -6 1126.36 73.9790   2
  -2   2  -7 21592.3 344.394   2
   2   2   7 22059.5 388.009   2
  -2  -2   7 22413.1 471.129   2
   2  -2  -7 22646.6 455.283   2
   2   2   8 6315.95 222.468   2
  -2   2  -8 6605.51 210.169   2
  -2  -2   8 7084.86 275.263   2
   2  -2  -8 6275.27 256.788   2
  -2   2  -9 17642.1 368.361   2
   2   2   9 18794.7 401.199   2
  -2  -2   9 18066.6 460.102   2
   2  -2  -9 17143.4 442.310   2
   2  -2 -10 3293.41 204.756   2
  -2  -2  10 3697.92 217.195   2
   2   2  10 3466.97 181.862   2
   2  -2 -11 3297.48 215.521   2
   2   2  11 3304.77 187.756   2
  -2   2 -11 3389.35 187.502   2
  -2  -2  11 3767.02 228.185   2
  -2   2 -12 1151.07 120.804   2
   2  -2 -12 1229.13 143.162   2
   2   2  12 1396.83 128.625   2
  -2   2 -13 652.999 92.1678   2
   2  -2 -13 792.280 120.855   2
  -2   2 -14 206.798 66.1806   2
   2  -2 -14 122.894 70.1172   2
  -2   2 -15 549.991 94.5862   2
   2  -2 -15 434.065 94.7071   2
  -2   2 -16 930.569 130.135   2
   2  -2 -16 936.680 151.163   2
  -2   2 -17 1056.01 141.517   2
   2  -2 -17 1241.27 168.346   2
   2  -2 -18-3.01889 63.8053   2
  -2   2 -18 143.495 61.2662   2
  -2   2 -19 47.1313 54.2688   2
  -2   2 -20 212.648 82.3305   2
  -2   2 -21-127.064 69.0382   2
  -2   2 -22 40.8240 54.4260   2
  -2  -3 -21 26.7714 53.7940   2
  -2  -3 -20 177.007 79.5367   2
  -2  -3 -19-7.23548 44.8955   2
  -2  -3 -18 1.99533 32.6742   2
  -2  -3 -17 149.126 63.0627   2
  -2  -3 -16 1309.74 156.564   2
  -2  -3 -15 761.888 116.455   2
  -2  -3 -14 5112.39 277.335   2
   2  -3  14 5226.88 256.570   2
   2  -3  13 2211.45 159.392   2
  -2  -3 -13 1996.34 167.801   2
   2  -3  12 1430.83 121.588   2
  -2  -3 -12 1362.90 132.390   2
  -2  -3 -11 108.823 43.8049   2
   2  -3  11 252.925 50.2715   2
  -2   3  11 278.830 61.7246   2
   2   3 -10 820.307 86.7113   1
   2  -3  10 847.321 83.8501   2
  -2  -3 -10 819.740 94.3902   2
  -2   3  10 862.463 101.176   2
  -2  -3  -9 180.359 49.4673   2
  -2   3   9 221.248 52.2163   2
   2  -3   9 178.767 37.1063   2
   2  -3   8 7362.73 207.952   2
  -2   3   8 7509.53 267.216   2
   2  -3   7 30691.7 387.788   2
  -2   3   7 30575.0 507.244   2
  -2  -3  -6 20091.3 368.006   2
  -2   3   6 20314.0 385.716   2
   2  -3   6 20053.8 278.678   2
   2  -3   5 7863.05 151.852   2
  -2  -3  -5 8062.71 225.191   2
  -2   3   5 7747.43 223.514   2
  -2  -3  -4 11695.0 259.184   2
  -2   3   4 11410.5 248.587   2
   2  -3   4 11700.6 153.275   2
  -2   3   3 911.598 66.8494   2
  -2   3   2 14274.3 223.793   2
  -2   3   1 18971.4 218.702   2
  -2  -3  -1 18798.6 288.378   1
  -2   3   0 1545.19 50.9432   2
  -2   3   0 1592.05 55.5190   1
  -2  -3   0 1572.51 84.2199   1
  -2   3  -1 19117.3 184.054   1
  -2  -3   1 18096.3 287.512   1
   2  -3  -1 18856.2 206.770   1
   2  -3  -2 13929.1 192.430   1
  -2  -3   2 13563.8 252.531   1
   2  -3  -3 799.469 51.8005   1
  -2  -3   3 813.701 65.3524   1
   2  -3  -3 899.117 67.2490   2
  -2   3  -3 824.629 34.9411   2
  -2  -3   4 11718.8 246.729   1
  -2   3  -4 12222.5 170.685   2
   2  -3  -4 11639.0 264.745   2
  -2   3  -5 8292.94 167.041   2
   2  -3  -5 8179.10 239.191   2
  -2   3  -6 19958.5 298.846   2
   2  -3  -6 19171.9 392.047   2
  -2   3  -7 30884.4 412.246   2
   2  -3  -7 29212.6 514.576   2
  -2  -3   7 31127.0 569.810   2
   2   3   8 7686.52 251.609   2
  -2  -3   8 7792.77 295.948   2
  -2   3  -8 7736.18 224.930   2
   2  -3  -8 7286.39 272.329   2
   2  -3  -9 265.458 65.0621   2
  -2   3  -9 249.457 48.1996   2
   2   3   9 255.790 52.6529   2
  -2  -3   9 363.704 72.0098   2
   2  -3 -10 806.890 106.641   2
  -2  -3  10 772.786 105.870   2
   2   3  10 866.810 94.4578   2
   2   3  11 271.577 59.0387   2
   2  -3 -11 232.427 71.2597   2
  -2   3 -12 1354.52 125.474   2
   2  -3 -12 1379.64 149.434   2
   2   3  12 1427.65 131.929   2
   2  -3 -13 2264.52 196.222   2
  -2   3 -13 2057.70 160.757   2
  -2   3 -14 5040.67 267.767   2
   2  -3 -14 5147.76 303.391   2
   2  -3 -15 1029.21 146.233   2
  -2   3 -15 941.039 123.164   2
  -2   3 -16 1321.23 149.679   2
   2  -3 -16 1356.62 174.787   2
  -2   3 -17 82.2805 54.7997   2
   2  -3 -17 101.087 62.0893   2
  -2   3 -18-20.8009 43.7889   2
   2  -3 -18-4.93369 48.6882   2
  -2   3 -19 0.34709 44.5193   2
   2  -3 -19 93.4665 64.4843   2
   2  -3 -20 228.140 89.0523   2
  -2   3 -20 299.698 95.7519   2
  -2   3 -21-35.8486 47.6057   2
  -2  -4 -20-36.8779 59.5113   2
  -2  -4 -19-31.4568 46.6928   2
  -2  -4 -18 48.4783 59.9328   2
  -2  -4 -17 301.315 82.7714   2
  -2  -4 -16 11.0529 39.2995   2
  -2  -4 -15 806.533 118.921   2
  -2  -4 -14 231.237 72.0294   2
   2  -4  14 113.903 40.7573   2
  -2  -4 -13 59.9654 53.7261   2
   2  -4  13 52.7858 33.6948   2
   2  -4  12 4701.24 216.039   2
  -2  -4 -12 4501.55 239.486   2
   2  -4  11 1844.32 128.326   2
  -2  -4 -11 1521.30 136.597   2
  -2   4  11 1734.01 147.243   2
   2  -4  10 1030.64 90.9424   2
   2   4 -10 933.876 94.2806   1
  -2  -4 -10 1105.01 111.989   2
  -2   4  10 965.951 105.653   2
   2  -4   9 4619.98 176.328   2
  -2  -4  -9 4340.35 208.060   2
  -2   4   9 4691.24 217.350   2
  -2  -4  -8 14791.6 365.458   2
  -2   4   8 15170.1 374.888   2
   2  -4   8 14941.4 291.547   2
   2  -4   7 10028.6 217.976   2
  -2   4   7 10229.9 289.595   2
  -2   4   6 17402.7 353.990   2
   2  -4   6 17784.7 253.229   2
  -2   4   5 10556.0 255.831   2
   2  -4   5 10511.0 166.717   2
  -2  -4  -4 29112.9 428.397   2
   2  -4   4 27755.7 212.179   2
  -2   4   4 27706.0 381.317   2
  -2   4   3 35400.3 384.235   2
  -2   4   2 8995.85 168.454   2
  -2  -4  -1 2839.53 119.260   1
  -2   4   1 2617.18 74.9501   2
  -2  -4   0 164.434 32.8932   1
  -2   4   0 200.392 15.5075   2
  -2   4  -1 2497.39 56.3477   1
   2  -4  -1 2550.42 69.4396   1
  -2  -4   1 2708.31 117.619   1
   2  -4  -2 9211.23 148.752   1
  -2  -4   2 8764.54 209.838   1
   2  -4  -2 9198.55 185.239   2
  -2   4  -2 9307.17 116.279   1
  -2  -4   3 35544.1 432.587   1
   2  -4  -3 35749.1 412.567   2
  -2  -4   4 28339.6 397.163   1
   2  -4  -4 27964.7 402.009   2
   2  -4  -5 10007.1 261.326   2
  -2   4  -5 10571.3 184.749   2
   2  -4  -6 17718.2 373.467   2
  -2   4  -6 17861.2 281.023   2
   2  -4  -7 10946.9 311.922   2
  -2   4  -7 10758.3 243.573   2
   2  -4  -8 14777.8 386.742   2
  -2   4  -8 15330.8 317.516   2
  -2  -4   8 15223.4 425.627   2
   2  -4  -9 4931.78 235.940   2
  -2   4  -9 4584.48 188.364   2
  -2  -4   9 4145.81 229.674   2
   2   4   9 4554.49 206.976   2
  -2  -4  10 1023.88 118.862   2
   2   4  10 1062.80 106.910   2
   2  -4 -10 825.942 104.418   2
   2  -4 -11 1708.10 155.056   2
   2   4  11 1771.17 142.328   2
   2  -4 -12 4471.26 261.483   2
  -2   4 -12 4873.21 237.103   2
  -2   4 -13 69.9430 39.0495   2
   2  -4 -13 167.034 70.6192   2
   2  -4 -14 146.601 69.6516   2
  -2   4 -14 226.554 66.6703   2
  -2   4 -15 833.950 117.154   2
   2  -4 -15 840.113 133.098   2
   2  -4 -16 114.787 61.2239   2
  -2   4 -16 121.649 57.2125   2
  -2   4 -17 370.014 92.2397   2
   2  -4 -17 298.322 88.3646   2
   2  -4 -18 97.7030 60.3041   2
  -2   4 -18 75.9350 52.6191   2
  -2   4 -19 70.7210 55.5345   2
   2  -4 -19-79.9118 67.1750   2
   2  -4 -20 126.208 82.7505   2
  -2  -5 -20 93.8469 72.3644   2
  -2  -5 -19 296.663 91.9193   2
  -2  -5 -18 44.0555 45.2447   2
  -2  -5 -17 802.929 132.625   2
  -2  -5 -16 197.216 72.6913   2
  -2  -5 -15 579.784 101.645   2
   2  -5  14 1519.83 136.952   2
  -2  -5 -14 1557.10 159.455   2
   2  -5  13 2233.91 159.093   2
  -2  -5 -13 2210.45 181.788   2
   2  -5  12 233.220 50.4749   2
  -2  -5 -12 188.038 59.6805   2
  -2   5  11 14.0057 24.8422   2
  -2  -5 -11 10.4004 29.6042   2
   2  -5  11-2.79229 24.0270   2
   2   5 -10 793.699 86.8957   1
   2  -5  10 819.785 80.6159   2
  -2  -5 -10 760.467 96.4413   2
  -2   5  10 826.298 98.9539   2
  -2   5   9 5197.79 232.582   2
  -2  -5  -9 4966.54 227.766   2
   2   5  -9 5370.53 215.603   1
   2  -5   9 5066.36 183.482   2
  -2  -5  -8 1636.17 130.114   2
   2  -5   8 1639.02 96.7335   2
  -2   5   8 1601.70 122.952   2
  -2  -5  -7 9513.55 289.376   2
   2  -5   7 9727.18 212.149   2
  -2   5   7 9997.19 285.927   2
   2  -5   6 4272.08 122.961   2
  -2   5   6 3930.34 168.619   2
   2  -5   5 9290.10 151.978   2
  -2   5   5 8949.39 235.973   2
   2  -5   4 32940.1 215.501   2
  -2   5   4 32233.2 408.202   2
  -2   5   3 7961.40 181.226   2
  -2   5   2 11575.2 190.840   2
  -2  -5  -1 6686.93 190.805   1
  -2   5   1 6627.68 119.732   2
  -2  -5   0 923.039 73.1931   1
   2  -5  -1 6876.17 132.771   2
   2  -5  -1 6784.46 101.485   1
  -2  -5   1 6617.19 190.387   1
   2  -5  -2 12474.3 163.967   1
   2  -5  -2 12499.2 214.180   2
  -2  -5   2 12106.7 258.020   1
   2  -5  -3 7704.69 192.527   2
  -2  -5   3 7561.16 208.516   1
  -2  -5   4 35464.3 460.863   1
   2  -5  -4 34231.8 443.811   2
   2  -5  -5 9132.80 249.159   2
   2  -5  -6 4164.28 183.727   2
   2  -5  -7 9545.06 293.609   2
   2  -5  -8 1718.37 137.187   2
  -2  -5   8 1471.46 140.398   2
   2  -5  -9 5277.83 245.430   2
  -2  -5   9 4945.70 254.953   2
  -2   5  -9 5487.08 208.282   2
   2  -5 -10 619.720 94.7013   2
  -2  -5  10 703.258 103.333   2
   2  -5 -11-7.19756 43.2751   2
   2  -5 -12 250.277 75.4884   2
  -2   5 -12 206.636 53.3687   2
   2  -5 -13 2381.40 199.846   2
  -2   5 -13 2177.76 169.034   2
   2  -5 -14 1417.04 161.222   2
  -2   5 -14 1599.46 153.511   2
   2  -5 -15 566.268 114.168   2
   2  -5 -16 2.65535 46.0024   2
   2  -5 -17 622.920 129.308   2
   2  -5 -18 26.2620 57.4276   2
   2  -5 -19 93.5045 70.5477   2
  -2  -6 -20 127.919 75.8889   2
  -2  -6 -19 145.061 69.5924   2
  -2  -6 -18 130.885 60.5412   2
  -2  -6 -17-5.17562 36.8346   2
  -2  -6 -16 510.684 104.830   2
  -2  -6 -15 876.281 133.401   2
   2  -6  14 405.745 71.6318   2
  -2  -6 -14 458.642 90.7642   2
  -2  -6 -13 827.672 115.365   2
   2  -6  13 728.937 90.7216   2
  -2  -6 -12 1897.82 164.756   2
   2  -6  12 1966.85 141.292   2
  -2  -6 -11 706.667 100.282   2
  -2   6  11 865.667 106.298   2
   2  -6  11 827.260 86.5004   2
  -2  -6 -10 442.280 78.3452   2
  -2   6  10 367.923 68.8967   2
   2  -6  10 423.482 58.9061   2
   2   6  -9 9441.21 296.317   1
  -2   6   9 10056.1 321.712   2
   2  -6   9 9421.57 250.555   2
  -2  -6  -9 9517.06 322.723   2
  -2  -6  -8 12006.7 350.762   2
   2   6  -8 12522.6 325.083   1
  -2   6   8 12798.5 345.006   2
   2  -6   8 12084.4 260.793   2
  -2   6   7 11236.9 304.730   2
  -2  -6  -7 11088.1 322.388   2
   2  -6   7 11344.8 225.435   2
  -2  -6  -6 1372.10 112.274   2
   2  -6   6 1556.64 74.9065   2
  -2   6   6 1421.23 101.584   2
  -2   6   5 5669.53 188.912   2
   2  -6   5 6103.49 124.891   2
  -2   6   4 9476.63 221.817   2
   2  -6   4 9489.50 121.899   2
  -2   6   3 7256.89 176.230   2
  -2   6   2 3393.44 106.115   2
  -2   6   1 2143.02 73.1074   2
  -2  -6  -1 2283.02 117.398   1
   2  -6   0 12118.7 147.422   2
  -2  -6   0 12608.2 268.453   1
   2  -6  -1 2613.49 85.7724   2
   2  -6  -1 2406.13 53.5546   1
  -2  -6   1 2397.40 119.624   1
   2  -6  -2 3561.79 117.890   2
  -2  -6   2 3443.29 143.134   1
   2  -6  -3 7407.13 190.961   2
  -2  -6   3 7461.91 213.497   1
   2  -6  -4 9822.59 242.101   2
  -2  -6   4 9601.78 247.770   1
  -2  -6   5 5818.56 196.012   1
   2  -6  -5 5671.09 200.592   2
   2  -6  -6 1563.32 114.934   2
   2  -6  -7 10506.7 311.368   2
   2  -6  -8 12242.2 355.528   2
   2  -6  -9 9725.03 334.049   2
  -2  -6   9 9567.59 359.675   2
   2  -6 -10 424.502 79.8419   2
   2  -6 -11 841.468 111.701   2
   2  -6 -12 1925.09 175.797   2
   2  -6 -13 661.307 114.818   2
   2  -6 -14 453.088 99.1126   2
   2  -6 -15 805.030 132.053   2
   2  -6 -16 459.833 106.028   2
   2  -6 -17-6.48468 50.7586   2
   2  -6 -18 154.144 76.7407   2
   2  -6 -19 261.520 98.8188   2
  -2  -7 -19 219.472 84.5207   2
  -2  -7 -18 136.129 66.3669   2
  -2  -7 -17 1240.18 163.367   2
  -2  -7 -16 170.182 69.1314   2
  -2  -7 -15 193.469 65.0710   2
  -2  -7 -14 723.553 110.520   2
   2  -7  14 798.630 100.544   2
   2  -7  13 2097.20 154.657   2
  -2  -7 -13 1957.33 175.200   2
  -2  -7 -12 1120.00 130.886   2
   2  -7  12 1028.45 102.283   2
  -2  -7 -11 1123.04 124.017   2
   2  -7  11 1172.29 101.940   2
  -2   7  10 709.460 92.8051   2
   2  -7  10 775.965 78.8805   2
  -2  -7 -10 689.038 98.6697   2
   2   7  -9 4757.69 211.269   1
  -2   7   9 4893.91 227.916   2
   2  -7   9 4842.53 180.549   2
  -2  -7  -9 4577.68 229.922   2
   2  -7   8 412.711 50.0408   2
   2   7  -8 592.341 74.1894   1
  -2  -7  -8 538.909 80.9260   2
  -2   7   8 539.500 73.5419   2
  -2  -7  -7 466.448 70.9134   2
   2   7  -7 467.380 66.1432   1
   2  -7   7 389.425 45.1563   2
  -2   7   7 390.303 58.3168   2
   2   7  -6 4208.61 183.586   1
  -2   7   6 4350.73 179.980   2
   2  -7   6 4150.47 126.574   2
   2  -7   5 2475.91 84.9368   2
  -2   7   5 2374.57 122.738   2
   2  -7   4 2609.51 73.1675   2
  -2   7   4 2623.00 119.170   2
  -2   7   3 1020.49 69.4270   2
  -2  -7  -2 511.488 61.1656   1
  -2   7   2 455.682 42.6163   2
   2  -7   1 324.605 22.8365   2
  -2  -7  -1 392.292 54.4818   1
   2  -7   0 1100.33 50.8579   2
  -2  -7   0 1119.18 86.6365   1
   2  -7  -1 299.827 18.0901   1
  -2  -7   1 379.413 52.3591   1
   2  -7  -1 390.966 36.6254   2
  -2  -7   2 543.693 61.2534   1
   2  -7  -2 531.544 49.1004   2
   2  -7  -3 985.911 72.7594   2
  -2  -7   3 989.150 83.8629   1
   2  -7  -4 2872.08 133.263   2
  -2  -7   4 2656.13 136.685   1
   2  -7  -5 2445.02 135.543   2
  -2  -7   5 2317.83 128.656   1
   2  -7  -6 4275.00 187.932   2
   2  -7  -7 473.491 72.2466   2
   2  -7  -8 404.709 73.3698   2
   2  -7  -9 4485.27 230.792   2
   2  -7 -10 812.421 107.032   2
   2  -7 -11 1175.54 134.676   2
   2  -7 -12 1085.04 133.807   2
   2  -7 -13 2197.23 195.127   2
   2  -7 -14 814.945 128.197   2
   2  -7 -15 287.565 85.0382   2
   2  -7 -16 264.830 85.2075   2
   2  -7 -17 1187.73 167.476   2
   2  -7 -18 89.9458 66.7744   2
   2  -7 -19 373.574 111.087   2
  -2  -8 -19 159.809 75.3457   2
  -2  -8 -18 413.968 107.233   2
  -2  -8 -17 352.405 100.524   2
  -2  -8 -16 418.237 97.9985   2
  -2  -8 -15 619.637 113.125   2
   2  -8  14 192.665 55.7741   2
  -2  -8 -14 128.460 48.1263   2
  -2  -8 -13 180.276 69.6911   2
   2  -8  13 210.754 52.8321   2
  -2  -8 -12 899.953 122.432   2
   2  -8  12 723.701 85.2808   2
  -2  -8 -11 816.223 109.857   2
   2  -8  11 866.271 88.6762   2
  -2   8  10 668.835 90.9238   2
   2  -8  10 605.540 71.0913   2
  -2  -8 -10 612.342 93.4970   2
   2  -8   9 300.628 47.5099   2
  -2  -8  -9 310.147 67.4786   2
  -2   8   9 392.433 68.9232   2
  -2  -8  -8 2528.06 171.305   2
   2   8  -8 2457.01 153.715   1
  -2   8   8 2557.51 157.156   2
   2  -8   8 2690.79 128.403   2
   2   8  -7 5244.92 218.153   1
  -2  -8  -7 5185.46 234.936   2
  -2   8   7 5605.50 219.152   2
   2  -8   7 5165.44 162.901   2
   2  -8   6 189.273 29.3376   2
   2   8  -6 174.325 42.3663   1
  -2  -8  -6 186.415 53.0104   2
  -2   8   6 212.624 42.1481   2
   2  -8   5 534.604 44.1305   2
  -2   8   5 596.849 63.4597   2
   2   8  -5 381.178 56.0534   1
   2  -8   4 1984.79 74.4636   2
  -2   8   4 2138.27 112.442   2
   2   8  -4 2103.39 125.335   1
   2   8  -3 132.255 32.7596   1
  -2   8   3 122.249 27.8165   2
   2  -8   3 115.069 17.7084   2
   2  -8   2 729.649 36.7098   2
  -2  -8  -2 815.764 79.2292   1
  -2  -8  -1 1578.52 106.590   1
   2  -8   1 1681.34 61.7491   2
   2  -8   0 88.5125 19.0489   2
  -2  -8   0 26.6259 28.3941   1
  -2  -8   1 1692.93 109.471   1
   2  -8  -1 1797.79 81.3151   2
  -2  -8   2 766.310 75.1220   1
   2  -8  -2 769.294 61.6871   2
  -2  -8   3 76.6095 28.8149   1
   2  -8  -3 82.8065 24.9709   2
  -2  -8   4 2131.57 125.329   1
   2  -8  -4 1934.62 113.906   2
  -2   8  -5 503.247 31.9502   1
   2  -8  -5 469.597 64.7682   2
  -2  -8   5 366.538 56.5321   1
   2  -8  -6 306.213 54.7996   2
   2  -8  -7 5183.83 224.004   2
   2  -8  -8 2773.08 174.664   2
   2  -8  -9 318.033 70.2440   2
   2  -8 -10 483.587 83.0547   2
   2  -8 -11 733.223 108.622   2
   2  -8 -12 739.294 112.700   2
   2  -8 -13 125.918 60.1910   2
   2  -8 -14 204.259 74.0018   2
   2  -8 -15 835.608 138.224   2
   2  -8 -16 485.007 110.057   2
   2  -8 -17 485.900 118.805   2
   2  -8 -18 482.162 119.157   2
   2  -8 -19 74.4039 81.6460   2
  -2  -9 -18 310.406 94.6259   2
  -2  -9 -17 156.631 78.3467   2
  -2  -9 -16 10.5300 43.6063   2
  -2  -9 -15 65.5470 53.4942   2
  -2  -9 -14 58.1387 38.2374   2
   2  -9  13 912.591 104.112   2
  -2  -9 -13 976.317 133.696   2
  -2  -9 -12 1212.74 145.706   2
   2  -9  12 1382.71 120.175   2
  -2  -9 -11 986.747 126.090   2
   2  -9  11 866.188 90.3651   2
  -2   9  10 1490.83 134.896   2
  -2  -9 -10 1609.87 152.819   2
   2  -9  10 1433.36 110.130   2
  -2  -9  -9 890.175 113.443   2
  -2   9   9 871.290 100.121   2
   2  -9   9 873.484 79.2262   2
   2  -9   8 943.156 78.4001   2
  -2   9   8 999.825 101.004   2
  -2  -9  -8 877.136 105.831   2
   2  -9   7 1786.90 98.6491   2
  -2   9   7 1770.92 127.646   2
  -2  -9  -7 1805.77 146.247   2
   2   9  -7 1735.35 126.944   1
   2  -9   6 1677.45 90.2145   2
  -2  -9  -6 1753.64 139.841   2
  -2   9   6 1891.90 123.503   2
   2   9  -6 1791.97 125.648   1
   2   9  -5 3169.54 163.620   1
  -2  -9  -5 3470.67 192.185   2
  -2   9   5 3360.05 155.546   2
   2  -9   5 3518.56 119.105   2
   2  -9   4 1584.09 75.4546   2
   2   9  -4 1777.12 121.262   1
  -2   9   4 1695.49 103.088   2
   2  -9   3 2203.20 74.2202   2
   2   9  -3 2342.68 136.815   1
  -2  -9  -2 1212.51 98.0880   1
   2  -9   2 1298.07 58.0377   2
  -2  -9  -1 1183.91 96.3894   1
   2  -9   1 1337.87 63.1925   2
  -2  -9   0 5247.09 196.946   1
   2  -9   0 5139.04 135.135   2
  -2  -9   1 1237.59 99.0526   1
   2  -9  -1 1219.72 73.2061   2
   2  -9  -2 1274.21 80.7893   2
  -2  -9   2 1327.20 101.685   1
  -2  -9   3 2141.47 128.176   1
   2  -9  -3 2364.97 118.751   2
  -2  -9   4 1440.85 106.849   1
   2  -9  -4 1635.57 108.251   2
  -2  -9   5 3089.05 157.663   1
   2  -9  -5 2953.52 154.840   2
  -2   9  -5 3061.46 73.6630   1
  -2   9  -6 1694.59 66.8102   1
   2  -9  -6 1669.21 124.625   2
  -2   9  -7 1735.90 77.5574   1
   2  -9  -7 1741.51 133.854   2
   2  -9  -8 943.202 106.415   2
   2  -9  -9 671.900 94.7626   2
   2  -9 -10 1372.51 141.426   2
   2  -9 -11 853.864 117.548   2
   2  -9 -12 1342.27 152.903   2
   2  -9 -13 940.420 134.306   2
   2  -9 -14 57.2504 48.1084   2
   2  -9 -15 85.8600 63.9221   2
   2  -9 -16-98.7278 69.3844   2
   2  -9 -17 141.198 86.1740   2
   2  -9 -18 517.356 118.775   2
  -2 -10 -17 226.506 87.1449   2
  -2 -10 -16 92.2226 59.4576   2
  -2 -10 -15 368.577 91.9594   2
  -2 -10 -14 554.546 107.159   2
  -2 -10 -13-157.619 63.2946   2
   2 -10  13 2.91525 19.1426   2
  -2 -10 -12 82.0179 52.0756   2
   2 -10  12-13.1907 21.4924   2
   2 -10  11 56.3376 26.6071   2
  -2 -10 -11 66.4160 42.3809   2
  -2 -10 -10 947.974 121.910   2
   2 -10  10 845.576 84.9982   2
   2 -10   9 291.563 48.6216   2
  -2  10   9 384.388 67.9409   2
  -2 -10  -9 278.616 68.4035   2
   2 -10   8 10.1300 16.8583   2
  -2 -10  -8 45.5435 36.9728   2
  -2  10   8-13.2057 20.2092   2
  -2  10   7 5636.40 231.168   2
   2 -10   7 5611.04 183.989   2
  -2 -10  -7 5870.66 269.121   2
   2  10  -7 5500.78 231.961   1
   2  10  -6 5903.21 230.507   1
   2 -10   6 5427.93 170.759   2
  -2 -10  -6 5092.21 245.723   2
  -2  10   6 5424.16 215.276   2
   2 -10   5 103.184 24.5849   2
  -2 -10  -5 104.807 47.5900   2
   2  10  -5 28.4065 21.8046   1
   2  10  -4 4447.34 195.650   1
   2 -10   3 2750.08 94.6805   2
  -2 -10  -2 3209.73 163.597   1
   2 -10   2 3490.56 107.493   2
  -2 -10  -1 3150.57 159.261   1
   2 -10   1 3109.55 107.924   2
   2 -10   0 1605.59 83.9202   2
  -2 -10   0 1536.34 111.423   1
   2 -10  -1 3173.19 125.281   2
  -2 -10   1 3024.46 156.465   1
  -2 -10   2 3753.24 172.664   1
   2 -10  -2 3835.36 147.097   2
  -2 -10   3 2682.82 148.093   1
   2 -10  -3 2847.08 135.329   2
  -2 -10   4 4387.15 191.165   1
   2 -10  -4 4380.20 180.342   2
   2 -10  -5 71.6197 31.5040   2
  -2 -10   5 25.1522 29.7160   1
  -2  10  -5 89.2997 12.6920   1
  -2  10  -6 5512.91 118.090   1
   2 -10  -6 5465.80 229.963   2
  -2  10  -7 5577.45 136.513   1
   2 -10  -7 5640.11 243.064   2
   2 -10  -8 16.4749 32.3740   2
  -2  10  -8 12.9318 14.8193   1
  -2  10  -9 378.678 45.1526   1
   2 -10  -9 371.232 72.6953   2
   2 -10 -10 850.997 113.629   2
   2 -10 -11 92.1557 48.9608   2
   2 -10 -12 50.0680 36.4609   2
   2 -10 -13 59.6013 67.3661   2
   2 -10 -14 553.315 111.475   2
   2 -10 -15 328.122 83.8656   2
   2 -10 -16 223.975 77.0061   2
   2 -10 -17 30.4000 80.0219   2
   2 -10 -18 89.8554 72.5590   2
  -2 -11 -17 215.371 86.6370   2
  -2 -11 -16 239.751 85.0456   2
  -2 -11 -15 395.341 95.5655   2
  -2 -11 -14 215.574 67.4750   2
  -2 -11 -13 57.8062 38.6661   2
  -2 -11 -12 113.779 58.2791   2
   2 -11  11 196.689 46.4297   2
  -2 -11 -11 246.606 70.7793   2
   2 -11  10 1124.08 100.808   2
  -2 -11 -10 1135.21 135.432   2
   2 -11   9 22.9297 23.8574   2
  -2  11   9 5.76239 24.3270   2
  -2 -11  -9-14.0856 37.1061   2
  -2 -11  -8 407.788 84.2114   2
   2 -11   8 284.408 48.1532   2
  -2  11   8 334.658 62.1748   2
   2 -11   7 2077.35 116.392   2
  -2  11   7 2131.12 146.385   2
  -2 -11  -7 1937.00 161.338   2
  -2 -11  -6 7306.62 304.872   2
   2 -11   6 7068.66 203.207   2
   2  11  -5-9.43819 24.3628   1
  -2 -11  -5 15.0502 33.3329   2
   2 -11   5-12.9679 21.8870   2
  -2 -11  -4 91.3578 46.7684   2
   2  11  -4 28.8286 24.0085   1
  -2 -11  -3 712.201 81.1198   1
   2 -11   3 640.572 52.1165   2
  -2 -11  -2 3760.38 182.760   1
   2 -11   2 3473.11 119.807   2
  -2 -11  -1 8124.52 260.142   1
   2 -11   1 8125.08 188.821   2
   2 -11   0 969.184 69.7190   2
  -2 -11   0 972.549 94.7315   1
  -2 -11   1 7754.27 257.666   1
   2 -11  -1 7960.85 210.392   2
  -2 -11   2 3650.30 176.466   1
   2 -11  -2 3564.65 150.949   2
  -2 -11   3 675.258 79.5455   1
   2 -11  -3 731.829 73.2821   2
   2 -11  -4 118.591 39.7323   2
  -2 -11   4 31.1661 28.9860   1
   2 -11  -5-11.9559 29.7068   2
  -2 -11   5-26.8505 35.9293   1
  -2  11  -6 6718.14 124.734   1
   2 -11  -6 7356.43 272.954   2
  -2  11  -7 2047.01 82.1609   1
   2 -11  -7 1869.35 144.550   2
  -2  11  -8 315.156 37.3972   1
   2 -11  -8 283.112 63.6518   2
   2 -11  -9 49.2136 43.3554   2
  -2  11  -9 5.54859 13.2195   1
   2 -11 -10 940.242 119.415   2
  -2  11 -10 1153.26 83.4220   1
   2 -11 -11 205.972 66.5089   2
  -2  11 -12 77.3147 27.3953   1
   2 -11 -12-13.8988 36.7450   2
  -2  11 -13 110.962 36.7940   1
   2 -11 -13 111.076 57.6973   2
   2 -11 -14 201.374 71.8911   2
   2 -11 -15 272.528 88.5041   2
   2 -11 -16 258.930 90.9202   2
   2 -11 -17 183.545 80.5727   2
   2 -11 -18 157.352 76.8017   2
  -2 -12 -16 69.3780 58.9867   2
  -2 -12 -15-8.93860 33.9202   2
  -2 -12 -14 61.4621 38.7363   2
  -2 -12 -13 432.205 92.7896   2
  -2 -12 -12 1873.96 185.096   2
  -2 -12 -11 1193.42 147.168   2
  -2 -12 -10-45.1201 47.8277   2
   2 -12  10 12.8107 26.8282   2
   2 -12   9 177.372 43.1852   2
  -2 -12  -9 193.407 59.8164   2
   2 -12   8 493.971 64.0397   2
  -2 -12  -8 511.803 90.7692   2
   2 -12   7 278.472 48.0065   2
  -2 -12  -7 254.703 64.5869   2
   2 -12   6 660.850 68.7611   2
  -2 -12  -6 738.431 102.690   2
  -2 -12  -5 33.5675 41.5194   2
   2 -12   5 31.9674 20.4012   2
  -2 -12  -4 6728.11 290.339   2
   2 -12   3 14811.7 262.062   2
  -2 -12  -3 14894.7 373.266   1
   2 -12   2 1558.48 88.0149   2
  -2 -12  -2 1612.62 125.729   1
  -2 -12  -1 143.412 42.3805   1
   2 -12   1 254.809 39.5342   2
  -2 -12   0 318.623 60.0801   1
   2 -12   0 422.012 50.9263   2
  -2 -12   1 220.386 50.1485   1
   2 -12  -1 249.829 41.8624   2
   2 -12  -2 1533.53 58.3521   1
  -2 -12   2 1521.05 120.318   1
   2 -12  -2 1767.80 112.849   2
  -2 -12   3 14555.9 362.301   1
   2 -12  -3 14734.6 336.223   2
  -2 -12   4 6069.54 238.822   1
   2 -12  -4 6485.79 236.124   2
   2 -12  -5 116.776 43.6781   2
  -2 -12   5 37.8338 29.0500   1
   2 -12  -6 699.172 88.0909   2
  -2  12  -7 351.626 33.4472   1
   2 -12  -7 241.011 60.5517   2
   2 -12  -8 621.998 93.0790   2
  -2  12  -8 511.028 45.9906   1
  -2  12  -9 194.710 32.0167   1
   2 -12  -9 138.773 54.5403   2
  -2  12 -10-11.3831 18.6070   1
   2 -12 -10 22.3146 36.7887   2
   2 -12 -11 1041.63 132.952   2
   2 -12 -12 1592.15 169.657   2
   2 -12 -13 250.934 77.9753   2
   2 -12 -14 89.9964 58.7925   2
   2 -12 -15 52.0901 50.2194   2
   2 -12 -16-76.0145 57.1923   2
   2 -12 -17 193.146 84.8931   2
  -2 -13 -15 224.719 80.6725   2
  -2 -13 -14 512.585 113.082   2
  -2 -13 -13 57.6940 45.6923   2
  -2 -13 -12 66.0208 51.3289   2
  -2 -13 -11 128.833 61.0369   2
  -2 -13 -10-14.1893 45.4615   2
  -2 -13  -9 139.439 55.2864   2
   2 -13   8 116.808 36.5350   2
  -2 -13  -8 109.034 54.7015   2
   2 -13   7 3765.42 171.040   2
  -2 -13  -7 3665.95 234.034   2
  -2 -13  -6 2307.87 184.235   2
   2 -13   6 2290.18 130.460   2
  -2 -13  -5 4407.78 248.957   2
  -2 -13  -4 4252.53 240.872   2
  -2 -13  -4 4035.75 204.785   1
  -2 -13  -3 5297.38 233.167   1
   2 -13   3 5596.78 175.134   2
  -2 -13  -2 2609.67 160.774   1
   2 -13   2 2609.40 120.704   2
   2 -13   1 3112.82 135.551   2
  -2 -13  -1 2901.92 169.072   1
  -2 -13   0 1861.65 135.517   1
   2 -13   0 1915.29 112.082   2
   2 -13  -1 2863.55 58.0606   1
  -2 -13   1 3129.40 174.930   1
   2 -13  -1 3179.26 149.032   2
  -2 -13   2 2548.75 159.020   1
   2 -13  -2 2773.30 146.054   2
   2 -13  -2 2476.78 76.3298   1
  -2 -13   3 5386.85 231.019   1
   2 -13  -3 5439.50 215.638   2
  -2 -13   4 3682.82 193.572   1
   2 -13  -4 4289.81 201.416   2
  -2 -13   5 4457.69 213.480   1
   2 -13  -5 4649.96 217.197   2
   2 -13  -6 2271.22 160.107   2
   2 -13  -7 3882.96 216.580   2
  -2  13  -8 83.8678 19.3163   1
   2 -13  -8 97.6618 45.5397   2
  -2  13  -9 155.506 29.3696   1
   2 -13  -9 230.621 67.9596   2
   2 -13 -10 27.8128 39.7301   2
   2 -13 -11 315.670 74.7563   2
   2 -13 -12 50.6954 41.6328   2
   2 -13 -13 107.181 63.6162   2
   2 -13 -14 307.931 88.9952   2
   2 -13 -15 75.5941 57.5777   2
   2 -13 -16 67.5838 42.2141   2
   2 -13 -17-52.9428 60.4423   2
  -2 -14 -14 8.20255 37.7271   2
  -2 -14 -13 481.365 107.859   2
  -2 -14 -12 364.656 97.1052   2
  -2 -14 -11 566.845 109.168   2
  -2 -14 -10 48.2262 42.3776   2
  -2 -14  -9 166.169 60.1797   2
  -2 -14  -8 273.859 73.2211   2
  -2 -14  -7 395.777 87.4568   2
  -2 -14  -6 233.617 69.0217   2
   2 -14   6 342.530 57.1750   2
  -2 -14  -5 244.883 59.4039   1
  -2 -14  -5 353.063 79.8250   2
  -2 -14  -4 4012.35 241.032   2
  -2 -14  -4 4032.61 210.188   1
   2 -14   4 3998.63 155.669   2
  -2 -14  -3 5854.13 250.544   1
   2 -14   3 5727.19 186.627   2
   2 -14   2 2460.92 126.113   2
  -2 -14  -2 2312.42 157.243   1
   2 -14   1 958.869 80.4846   2
  -2 -14  -1 944.004 103.572   1
  -2 -14   0 13.9462 37.6736   1
   2 -14   0 18.3009 16.8209   2
   2 -14  -1 885.671 33.0018   1
   2 -14  -1 1053.43 92.1456   2
  -2 -14   1 883.932 99.1752   1
  -2 -14   2 2455.88 158.956   1
   2 -14  -2 2552.70 79.5426   1
   2 -14  -2 2545.14 147.020   2
  -2 -14   3 5744.89 245.123   1
   2 -14  -3 5801.29 141.228   1
   2 -14  -3 6078.60 236.879   2
  -2 -14   4 3779.61 198.875   1
   2 -14  -4 3787.43 196.088   2
   2 -14  -5 393.359 74.3147   2
  -2 -14   5 313.820 59.6924   1
   2 -14  -6 208.298 55.7743   2
   2 -14  -7 46.6180 37.3417   2
   2 -14  -8 251.048 65.2210   2
   2 -14  -9 204.137 65.4091   2
   2 -14 -10 128.043 55.9299   2
   2 -14 -11 492.412 94.2820   2
   2 -14 -12 557.891 109.799   2
   2 -14 -13 363.144 95.0408   2
   2 -14 -14 10.8293 42.1597   2
   2 -14 -15 236.278 86.5099   2
   2 -14 -16 72.6002 65.3465   2
  -2 -15 -13 76.7978 50.6116   2
  -2 -15 -12-0.67433 34.1009   2
  -2 -15 -11 218.568 76.6845   2
  -2 -15 -10 520.140 105.865   2
  -2 -15  -9 20.2051 43.1789   2
  -2 -15  -8 73.9248 56.0274   2
  -2 -15  -7 570.941 103.259   2
  -2 -15  -6 1653.74 166.854   2
  -2 -15  -5 1313.07 148.244   2
  -2 -15  -5 1105.63 118.236   1
   2 -15   4 242.611 44.0760   2
  -2 -15  -4 229.145 67.3874   2
  -2 -15  -4 254.559 65.9988   1
  -2 -15  -3 467.986 75.7245   1
   2 -15   3 437.287 57.2675   2
  -2 -15  -2 365.537 70.6280   1
   2 -15   2 378.951 53.4628   2
   2 -15   1 1280.79 97.4289   2
  -2 -15  -1 1213.56 115.875   1
   2 -15   0 198.124 43.0067   2
  -2 -15   0 221.388 53.2382   1
   2 -15  -1 1068.91 96.4297   2
  -2 -15   1 1140.35 112.159   1
   2 -15  -2 402.854 63.2774   2
  -2 -15   2 368.328 66.5971   1
   2 -15  -2 395.592 32.0610   1
   2 -15  -3 522.652 74.5536   2
   2 -15  -3 365.912 36.9114   1
  -2 -15   3 451.166 73.1936   1
   2 -15  -4 314.771 62.1742   2
  -2 -15   4 251.392 57.8202   1
   2 -15  -4 306.582 38.6848   1
  -2 -15   5 1136.70 114.399   1
   2 -15  -5 1222.53 119.453   2
   2 -15  -6 1616.12 143.981   2
   2 -15  -7 614.243 92.8408   2
   2 -15  -8 7.49226 32.2534   2
   2 -15  -9-15.1945 34.5390   2
   2 -15 -10 436.115 92.7771   2
   2 -15 -11 200.428 70.5815   2
   2 -15 -12 10.0204 34.6141   2
   2 -15 -13 130.170 66.9949   2
   2 -15 -14 201.167 82.5380   2
   2 -15 -15-23.4077 48.1756   2
  -2 -16 -12 260.307 90.1469   2
  -2 -16 -11 28.8860 39.5686   2
  -2 -16 -10-10.9954 51.5508   2
  -2 -16  -9 682.072 119.845   2
  -2 -16  -8 790.665 123.453   2
  -2 -16  -7 539.117 104.238   2
  -2 -16  -6 433.260 81.1701   1
  -2 -16  -6 358.289 86.0136   2
  -2 -16  -5 128.415 41.3304   1
  -2 -16  -5 25.7498 44.1683   2
  -2 -16  -4 224.199 57.7471   1
  -2 -16  -4 259.806 72.6111   2
   2 -16   4 213.699 44.0065   2
  -2 -16  -3 398.841 81.8045   2
   2 -16   3 288.603 49.0740   2
  -2 -16  -3 388.294 71.4973   1
  -2 -16  -2 446.884 75.9098   1
   2 -16   2 463.559 61.8680   2
  -2 -16  -1 385.170 71.4148   1
   2 -16   1 416.652 60.1656   2
  -2 -16   0 1090.94 113.667   1
   2 -16   0 1270.48 105.708   2
  -2 -16   1 513.777 78.8365   1
   2 -16  -1 436.379 65.4675   2
   2 -16  -2 392.329 65.7816   2
  -2 -16   2 415.828 74.0712   1
   2 -16  -3 291.270 59.8916   2
  -2 -16   3 291.198 62.9582   1
   2 -16  -4 202.200 54.8379   2
   2 -16  -4 304.695 38.4561   1
  -2 -16   4 173.036 49.0451   1
   2 -16  -5 113.463 44.8160   2
  -2 -16   5 95.6983 42.6010   1
   2 -16  -6 340.396 69.9466   2
   2 -16  -7 444.654 83.7892   2
   2 -16  -8 720.973 107.608   2
   2 -16  -9 439.941 88.0905   2
   2 -16 -10-10.2105 37.3235   2
   2 -16 -11 34.0603 40.8628   2
   2 -16 -12 188.367 74.7773   2
   2 -16 -13 340.333 94.6436   2
   2 -16 -14 188.670 78.6649   2
   2 -16 -15 109.446 66.4704   2
  -2 -17 -11 89.3326 53.7144   2
  -2 -17 -10 46.1972 50.4722   2
  -2 -17  -9-50.2370 56.7966   2
  -2 -17  -8 265.901 80.5479   2
  -2 -17  -7 106.225 59.8588   2
  -2 -17  -7 110.027 48.4539   1
  -2 -17  -6 681.695 99.8230   1
  -2 -17  -6 421.052 94.7086   2
  -2 -17  -5 12.1729 48.3278   2
  -2 -17  -5 39.6783 31.2775   1
  -2 -17  -4 242.967 56.5052   1
  -2 -17  -4 264.663 75.5936   2
   2 -17   4 226.549 45.7948   2
   2 -17   3 874.462 87.2466   2
  -2 -17  -3 601.270 108.851   2
  -2 -17  -3 918.712 108.875   1
  -2 -17  -2 180.628 58.4231   1
   2 -17   2 103.675 35.4654   2
  -2 -17  -1 5.13564 30.5019   1
   2 -17   1 25.4884 18.5089   2
  -2 -17   0 840.515 103.753   1
   2 -17   0 585.699 75.6327   2
  -2 -17   1 26.0742 30.4408   1
   2 -17  -1 32.1673 27.8628   2
   2 -17  -2 144.961 44.2996   2
  -2 -17   2 118.566 45.8992   1
   2 -17  -3 825.651 97.9931   2
  -2 -17   3 702.268 93.8179   1
   2 -17  -4 342.553 70.6976   2
  -2 -17   4 214.803 57.2664   1
  -2 -17   5 9.71657 25.0964   1
   2 -17  -5 39.2634 34.1949   2
   2 -17  -6 589.274 94.9343   2
   2 -17  -7 209.914 66.1220   2
   2 -17  -8 100.445 46.1530   2
   2 -17  -9-91.8086 50.8101   2
   2 -17 -10 40.7427 47.6713   2
   2 -17 -11 120.839 57.8021   2
   2 -17 -12 106.857 57.9727   2
   2 -17 -13 42.9476 43.8966   2
   2 -17 -14 95.0195 64.0234   2
  -2 -18  -9 161.186 76.2100   2
  -2 -18  -8 232.623 78.0039   2
  -2 -18  -8 196.491 60.8812   1
  -2 -18  -7 197.569 60.7637   1
  -2 -18  -7 243.392 81.1270   2
  -2 -18  -6 67.4036 41.4500   1
  -2 -18  -6 133.939 67.0934   2
  -2 -18  -5 249.240 63.8021   1
  -2 -18  -5 274.609 80.9013   2
  -2 -18  -4 326.816 85.9908   2
  -2 -18  -4 168.117 56.4654   1
  -2 -18  -3 498.242 84.4137   1
  -2 -18  -3 557.089 105.520   2
  -2 -18  -2 795.889 123.953   2
  -2 -18  -2 843.216 109.039   1
   2 -18   1 126.791 40.1683   2
  -2 -18  -1 62.7065 40.3048   1
  -2 -18   0 27.0516 27.6790   1
   2 -18   0 0.49427 20.6135   2
  -2 -18   1 68.9861 35.4200   1
   2 -18  -1 42.9451 25.8014   2
   2 -18  -2 712.234 95.1268   2
  -2 -18   2 625.025 90.2739   1
   2 -18  -3 414.362 74.9582   2
  -2 -18   3 469.749 80.2312   1
   2 -18  -4 195.075 55.6694   2
  -2 -18   4 203.129 55.4938   1
   2 -18  -5 280.751 69.4323   2
   2 -18  -6 100.347 43.2660   2
   2 -18  -7 338.695 77.9559   2
   2 -18  -8 158.824 63.7619   2
   2 -18  -9 41.0562 49.3485   2
   2 -18 -10 120.938 58.0009   2
   2 -18 -11 26.2601 44.2063   2
   2 -18 -12 14.1062 44.5916   2
   2 -18 -13 41.6489 40.6408   2
  -2 -19  -9 74.3802 48.9955   1
  -2 -19  -8 126.185 50.9530   1
  -2 -19  -7 32.8188 33.1164   1
  -2 -19  -7 45.1252 44.0085   2
  -2 -19  -6 499.579 91.5691   1
  -2 -19  -6 472.484 107.427   2
  -2 -19  -5-46.5652 50.9733   2
  -2 -19  -5 18.8202 31.0763   1
  -2 -19  -4 22.1381 28.5654   1
  -2 -19  -4-95.3587 65.9348   2
  -2 -19  -3-18.9769 35.4229   1
  -2 -19  -3 1.61105 38.8186   2
  -2 -19  -2 111.009 51.0264   1
  -2 -19  -2 30.5000 48.5486   2
  -2 -19  -1 126.944 48.7024   1
  -2 -19   0 1355.16 138.531   1
  -2 -19   1 147.202 48.8006   1
  -2 -19   2 0.43542 34.0608   1
  -2 -19   3 14.9597 28.7459   1
   2 -19  -4 23.8748 29.6285   2
  -2 -19   4-0.21868 28.5788   1
   2 -19  -5 130.948 49.6583   2
   2 -19  -6 651.572 103.676   2
   2 -19  -7 0.26786 31.9539   2
   2 -19  -8 5.17117 36.6505   2
   2 -19  -9 142.236 54.1770   2
   2 -19 -10 22.1937 56.1150   2
   2 -19 -11 29.1648 40.7052   2
  -2 -20  -9 94.5795 49.0323   1
  -2 -20  -8 90.9792 46.8132   1
  -2 -20  -7 54.2255 41.2153   1
  -2 -20  -6 202.312 64.6154   1
  -2 -20  -5 36.2276 44.6247   2
  -2 -20  -5 29.6400 32.6966   1
  -2 -20  -4 202.557 61.9104   1
  -2 -20  -4 180.222 70.1649   2
  -2 -20  -3 40.6985 43.8025   1
  -2 -20  -3 89.0285 48.6128   2
  -2 -20  -2 94.6478 56.5341   2
  -2 -20  -2-36.6704 30.6954   1
  -2 -20  -1 151.176 55.7144   1
  -2 -20  -1 100.590 51.5896   2
  -2 -20   0-21.6116 29.1695   1
  -2 -20   1 288.469 68.4637   1
  -2 -20   2-0.91836 29.7170   1
  -2 -20   3 49.9887 35.5170   1
  -2 -20   4 211.980 61.4678   1
  -2 -21  -7 83.6886 45.1912   1
  -2 -21  -6 165.707 56.1768   1
  -2 -21  -5 107.897 48.5730   1
  -2 -21  -4 77.7958 41.1419   1
  -2 -21  -3 92.7635 48.3607   1
  -2 -21  -2 348.419 78.5078   1
  -2 -21  -1 34.1864 35.8612   1
  -2 -21   0 12.4047 32.2844   1
  -2 -21   1 137.296 51.4036   1
  -2 -21   2 491.819 91.6574   1
  -2 -21   3 0.24119 23.4634   1
  -2 -22  -3 159.813 56.8773   1
  -2 -22  -2 228.829 69.5344   1
  -2 -22  -1 66.2411 43.4279   1
  -2 -22   0 40.3955 36.6990   1
  -3   0   0-9.97092 23.1204   1
  -3   0   1 4058.50 142.109   1
   3   0  -1 4211.82 147.008   1
  -3   0  -1 4290.02 145.181   1
   3   0  -2 14820.6 279.786   1
  -3   0   2 15385.4 280.364   1
  -3   0  -2 15204.5 271.066   1
  -3   0   3 220.204 41.6876   1
   3   0  -3 161.955 34.4803   1
   3   0  -4 3369.35 143.159   1
  -3   0  -4 3282.65 128.728   2
  -3   0   4 3517.64 173.990   2
   3   0  -5 462.535 56.5498   1
  -3   0  -5 410.038 48.0914   2
  -3   0   5 450.296 69.9617   2
  -3   0  -6 2876.37 131.417   2
   3   0  -6 2681.17 137.279   1
  -3   0   6 2672.40 166.884   2
  -3   0  -7 212.443 41.9666   2
  -3   0   7 189.389 48.5362   2
   3   0  -7 199.018 41.0946   1
   3   0  -8 336.960 56.6030   1
  -3   0   8 233.966 60.4031   2
   3   0  -9 1317.99 112.693   1
  -3   0   9 1498.58 141.890   2
   3   0 -10 2211.54 147.937   1
  -3   0  10 2176.79 176.228   2
  -3   0 -10 2227.90 147.778   2
  -3   0 -11 721.021 91.3566   2
   3   0  11 705.465 87.9314   2
   3   0  12 777.176 95.6448   2
  -3   0 -12 1674.39 144.961   2
   3   0  13 340.195 68.0210   2
  -3   0 -13 363.993 74.3899   2
  -3   0 -14 312.775 76.9039   2
  -3   0 -15 347.233 79.5969   2
  -3   0 -16 169.422 62.6480   2
  -3   0 -17 88.1221 58.7365   2
  -3   0 -18 782.989 130.568   2
  -3   0 -19 137.005 56.0962   2
  -3   0 -20 4.53543 39.6492   2
  -3   0 -21 10.5486 39.0966   2
  -3  -1 -21 68.1205 60.9764   2
  -3  -1 -20 20.3845 47.2650   2
  -3  -1 -19 27.0117 42.9837   2
  -3  -1 -18 20.5551 41.9423   2
  -3  -1 -17 60.4828 48.3791   2
  -3  -1 -16 300.441 77.7664   2
  -3  -1 -15 700.701 109.954   2
  -3  -1 -14 2503.54 192.156   2
  -3  -1 -13 657.187 99.4321   2
   3  -1  13 607.842 85.5584   2
   3  -1  12 4105.50 209.195   2
  -3  -1 -12 4521.77 234.525   2
   3  -1  11 5539.62 228.339   2
  -3  -1 -11 4859.74 233.063   2
   3  -1  10 1384.22 109.060   2
  -3   1  10 1608.71 148.454   2
  -3  -1 -10 1339.58 116.555   2
  -3   1   9 224.536 56.0085   2
   3   1  -9 365.832 61.5619   1
  -3   1   8 7753.14 299.322   2
   3   1  -8 7335.72 251.194   1
  -3   1   7 1488.50 126.263   2
   3   1  -7 1381.10 104.806   1
  -3   1   6 318.813 60.3312   2
   3   1  -6 346.059 51.6589   1
  -3  -1  -6 275.812 46.0612   2
  -3   1   5 1640.43 122.887   2
   3   1  -5 1661.14 107.278   1
  -3  -1  -5 1527.98 97.3171   2
  -3   1   4 1250.23 102.982   2
  -3  -1  -4 1216.17 85.2220   2
   3   1  -4 1083.43 86.0933   1
   3   1  -3 2027.28 112.157   1
  -3   1   3 2001.15 122.664   2
  -3   1   2 2555.10 110.051   1
   3   1  -2 2664.02 123.884   1
  -3  -1  -2 2821.46 122.861   1
  -3   1   1 2232.96 101.285   1
   3   1  -1 2326.96 114.404   1
  -3  -1  -1 2468.94 114.212   1
  -3   1   0 39063.8 411.780   1
  -3  -1   0 38244.2 451.623   1
  -3  -1   1 2618.40 118.809   1
  -3   1  -1 2569.59 106.427   1
   3  -1  -1 2316.89 104.921   1
   3  -1  -2 2706.63 115.150   1
  -3  -1   2 2720.25 124.006   1
  -3   1  -2 2714.72 109.446   1
  -3  -1   3 1877.60 105.329   1
  -3   1  -3 1921.91 87.5294   2
   3  -1  -3 1838.17 98.9234   1
   3  -1  -4 1202.47 84.3539   1
  -3   1  -4 1117.13 69.4893   2
  -3  -1   5 1610.70 129.368   2
   3  -1  -5 1772.26 106.101   1
  -3   1  -5 1670.73 89.9963   2
  -3   1  -6 267.967 42.3282   2
  -3  -1   6 250.451 54.6772   2
   3  -1  -6 352.014 51.5041   1
   3  -1  -7 1444.06 105.343   1
  -3   1  -7 1369.32 93.5021   2
  -3  -1   7 1472.90 133.445   2
   3  -1  -8 7610.78 250.642   1
  -3  -1   8 8000.90 313.023   2
  -3   1  -8 7228.71 225.405   2
   3  -1  -9 220.871 48.5265   1
  -3  -1   9 243.965 65.9496   2
   3  -1 -10 1426.91 117.702   1
  -3   1 -11 5008.88 225.089   2
  -3   1 -12 4250.39 221.351   2
   3   1  12 4550.44 228.693   2
  -3   1 -13 742.476 99.7625   2
  -3   1 -14 2611.83 192.546   2
  -3   1 -15 762.387 112.396   2
  -3   1 -16 483.045 99.7293   2
  -3   1 -17-87.4353 59.9050   2
  -3   1 -18 22.9968 40.8243   2
  -3   1 -19 115.007 63.2011   2
  -3   1 -20 59.0731 51.8783   2
  -3   1 -21 67.5441 45.7570   2
  -3  -2 -21-78.6569 57.8416   2
  -3  -2 -20-9.75589 36.2899   2
  -3  -2 -19-28.1165 44.2522   2
  -3  -2 -18 405.803 100.502   2
  -3  -2 -17 180.718 67.0900   2
  -3  -2 -16 91.4584 52.9124   2
  -3  -2 -15 131.933 56.9576   2
  -3  -2 -14 261.884 70.8956   2
   3  -2  14 267.007 63.5485   2
  -3  -2 -13 1437.80 144.997   2
   3  -2  13 1454.14 128.606   2
  -3  -2 -12-22.1917 36.7274   2
   3  -2  12-3.33511 22.3552   2
   3  -2  11 4695.29 205.674   2
  -3  -2 -11 5091.13 241.211   2
  -3   2  10 7550.89 315.526   2
   3  -2  10 7814.26 248.571   2
  -3  -2 -10 7962.00 287.621   2
  -3  -2  -9 5671.04 234.071   2
  -3   2   9 6260.79 277.218   2
   3   2  -9 5602.10 233.022   1
  -3   2   8 2200.50 157.759   2
   3   2  -8 2036.76 135.717   1
  -3   2   7 3602.75 194.424   2
   3   2  -7 3786.68 177.405   1
  -3   2   6 6417.26 244.147   2
   3   2  -6 6260.61 218.771   1
  -3   2   5 1378.28 108.288   2
   3   2  -5 1210.46 94.4083   1
  -3  -2  -5 1273.90 93.9590   2
  -3   2   4 8865.08 257.674   2
   3   2  -4 8592.05 242.915   1
  -3  -2  -4 8820.59 235.965   2
  -3   2   3 4476.05 172.696   2
   3   2  -3 4312.05 166.849   1
   3   2  -2 1019.57 80.1872   1
  -3   2   2 1011.19 77.9906   2
  -3  -2  -2 1042.99 78.4533   1
  -3   2   1 7771.89 179.195   1
  -3  -2  -1 7860.87 211.502   1
  -3   2   0 4779.61 138.563   1
  -3  -2   0 4792.43 168.208   1
  -3  -2   1 7879.24 213.404   1
  -3   2  -1 7528.53 173.423   1
   3  -2  -1 7502.24 178.343   1
  -3   2  -2 1055.88 66.1152   1
  -3  -2   2 964.345 78.0133   1
   3  -2  -2 1004.93 68.5062   1
  -3  -2   3 4391.98 165.252   1
  -3   2  -3 4477.29 115.675   2
   3  -2  -3 4648.25 152.535   1
  -3   2  -3 4513.80 136.118   1
  -3  -2   4 8452.87 233.947   1
   3  -2  -4 8406.49 215.472   1
  -3   2  -4 8689.03 173.033   2
  -3   2  -5 1184.02 70.2900   2
   3  -2  -5 1382.54 91.4760   1
  -3  -2   6 6022.88 260.899   2
   3  -2  -6 6176.84 202.474   1
  -3   2  -6 6019.73 169.764   2
   3  -2  -7 3238.27 155.201   1
  -3  -2   7 3387.10 206.115   2
  -3   2  -7 3434.63 138.974   2
   3  -2  -8 2049.16 126.895   1
  -3  -2   8 2055.29 162.630   2
  -3   2  -8 1963.99 114.328   2
  -3   2  -9 5745.88 210.811   2
   3  -2  -9 5958.83 225.615   1
  -3  -2   9 5867.88 284.943   2
  -3   2 -11 4163.90 205.214   2
  -3   2 -12 35.4859 37.6535   2
  -3   2 -13 1439.52 137.591   2
  -3   2 -14 226.686 66.7582   2
  -3   2 -15 127.518 50.1750   2
  -3   2 -16 84.2946 50.6087   2
  -3   2 -17 195.624 63.2166   2
  -3   2 -18 213.934 70.0143   2
  -3   2 -19-24.6583 42.4846   2
  -3   2 -20 90.8708 63.0819   2
  -3   2 -21 68.3081 46.7461   2
  -3  -3 -20 5.20940 39.4765   2
  -3  -3 -19 489.949 117.140   2
  -3  -3 -18 66.7224 52.2984   2
  -3  -3 -17 381.335 92.0544   2
  -3  -3 -16 79.3289 48.7253   2
  -3  -3 -15 867.729 123.776   2
  -3  -3 -14 277.671 76.0058   2
   3  -3  14 177.646 47.7564   2
   3  -3  13 210.942 50.4980   2
  -3  -3 -13 122.275 54.0216   2
   3  -3  12 2400.37 151.418   2
  -3  -3 -12 3598.28 218.593   2
  -3  -3 -11 3957.41 221.139   2
   3  -3  11 3905.82 182.420   2
   3  -3  10 950.741 85.7498   2
  -3  -3 -10 978.322 108.075   2
  -3   3  10 913.812 112.972   2
   3  -3   9 1525.20 100.341   2
  -3  -3  -9 1980.09 147.299   2
  -3   3   9 1606.21 140.547   2
  -3   3   8 2625.52 169.310   2
   3   3  -8 2722.10 158.379   1
  -3  -3  -8 2470.18 153.499   2
   3   3  -7 418.154 61.3454   1
  -3   3   7 329.701 61.2250   2
  -3  -3  -7 343.210 59.5787   2
  -3   3   6 851.271 92.1020   2
   3   3  -6 900.695 89.6014   1
  -3   3   5 4042.29 179.349   2
   3   3  -5 3801.22 171.818   1
  -3   3   4 1165.82 90.7168   2
   3   3  -4 1145.42 91.8650   1
   3   3  -3 7793.05 230.400   1
  -3   3   3 7858.17 219.688   2
   3   3  -2 228.560 41.9160   1
  -3  -3  -2 108.884 30.0053   1
  -3   3   2 211.387 33.7841   2
  -3  -3  -1 12668.9 278.526   1
  -3   3   1 12501.8 230.852   2
  -3   3   0 41705.1 380.419   1
  -3  -3   0 40926.0 501.924   1
  -3   3   0 39974.1 376.941   2
  -3   3  -1 12407.9 206.519   1
  -3  -3   1 12334.7 278.286   1
   3  -3  -1 12354.7 216.304   1
  -3  -3   2 157.710 35.7823   1
  -3   3  -2 210.454 21.4043   2
  -3   3  -2 174.311 28.5316   1
   3  -3  -2 131.196 25.3273   1
  -3  -3   3 8313.00 235.533   1
   3  -3  -3 7881.16 190.550   1
  -3   3  -3 8376.33 174.524   1
  -3   3  -3 8258.57 131.704   2
  -3  -3   4 1074.02 88.0167   1
   3  -3  -4 959.851 71.0843   1
  -3   3  -4 1084.61 53.8175   2
   3  -3  -5 4168.79 154.472   1
  -3   3  -5 4057.98 116.527   2
   3  -3  -6 926.769 79.0515   1
  -3   3  -6 1117.32 70.8024   2
  -3  -3   7 285.099 62.9641   2
  -3   3  -7 319.923 42.8648   2
   3  -3  -7 269.708 46.3970   1
   3  -3  -8 2884.56 150.097   1
  -3   3  -8 2655.02 128.710   2
  -3  -3   8 2489.73 183.988   2
  -3   3  -9 2050.64 126.424   2
  -3  -3   9 1619.04 154.327   2
  -3   3 -12 3480.95 197.355   2
  -3   3 -13 218.868 60.3316   2
  -3   3 -14 228.098 59.2455   2
  -3   3 -15 861.646 117.312   2
  -3   3 -16-22.3543 35.4957   2
  -3   3 -17 331.951 74.4940   2
  -3   3 -18-102.495 59.0110   2
  -3   3 -19 457.957 104.901   2
  -3   3 -20-10.3388 39.6639   2
  -3   3 -21 1.58686 33.5732   2
  -3  -4 -20-54.4407 54.4609   2
  -3  -4 -19 71.9554 58.7087   2
  -3  -4 -18 14.5879 51.8703   2
  -3  -4 -17 127.639 65.0663   2
  -3  -4 -16-7.70655 38.3565   2
  -3  -4 -15 158.467 66.4150   2
  -3  -4 -14 228.428 68.9287   2
   3  -4  14 161.806 49.6961   2
   3  -4  13 2439.02 158.851   2
  -3  -4 -13 2720.62 199.440   2
   3  -4  12 5446.46 224.585   2
  -3  -4 -12 5816.68 281.006   2
   3  -4  11 7632.29 249.145   2
  -3  -4 -11 7342.97 304.880   2
  -3  -4 -10 2250.22 162.991   2
  -3   4  10 2201.22 168.158   2
   3  -4  10 2194.32 123.739   2
   3  -4   9 6119.88 190.354   2
  -3  -4  -9 6369.02 263.158   2
  -3   4   9 6150.83 268.251   2
   3   4  -8 2333.33 148.878   1
  -3  -4  -8 2273.53 151.512   2
  -3   4   8 2364.05 158.712   2
   3   4  -7 2578.50 151.751   1
  -3   4   7 2453.75 155.689   2
  -3  -4  -7 2351.88 148.379   2
   3   4  -6 1309.50 105.589   1
  -3  -4  -6 1175.60 104.069   2
  -3   4   6 1280.75 105.322   2
  -3   4   5 60.1203 25.9779   2
  -3   4   4 780.329 71.7771   2
  -3   4   3 1467.16 88.7718   2
  -3   4   2 2025.92 94.2225   2
  -3  -4  -2 1912.86 114.555   1
  -3   4   1 6762.24 150.136   2
  -3  -4  -1 6649.47 209.075   1
  -3   4   0 9183.32 164.867   1
  -3   4   0 9372.15 149.082   2
  -3  -4   0 9331.30 251.114   1
  -3   4  -1 6612.10 138.846   1
  -3  -4   1 6410.52 208.657   1
   3  -4  -1 6800.24 150.492   1
  -3  -4   2 1999.11 118.731   1
  -3   4  -2 2166.94 79.8818   1
   3  -4  -2 2079.80 88.4318   1
  -3  -4   3 1184.92 93.9979   1
  -3   4  -3 1304.07 64.5893   1
   3  -4  -3 1198.07 71.8392   1
  -3  -4   4 694.665 73.5847   1
  -3   4  -4 674.464 34.0876   2
   3  -4  -4 686.693 58.7379   1
   3  -4  -5 68.3889 22.6083   1
  -3   4  -5 67.9837 16.3537   2
   3  -4  -6 1173.78 86.1404   1
  -3   4  -6 1292.31 69.8081   2
   3  -4  -7 2533.19 132.066   1
  -3   4  -7 2532.58 111.501   2
  -3   4  -8 2274.20 118.575   2
  -3  -4   8 2198.25 175.774   2
  -3   4  -9 6414.58 214.916   2
  -3   4 -10 2295.46 139.880   2
   3  -4 -11 7818.40 348.424   2
   3  -4 -12 5956.73 317.465   2
  -3   4 -12 5742.59 250.812   2
  -3   4 -13 2621.21 181.430   2
  -3   4 -14 144.424 55.6990   2
  -3   4 -15 78.0491 44.4323   2
  -3   4 -16 35.5636 36.4313   2
  -3   4 -17 101.325 52.3462   2
  -3   4 -18 66.5918 41.4698   2
  -3   4 -19 127.804 56.4550   2
  -3   4 -20 28.0631 44.3544   2
  -3  -5 -19 255.969 89.5300   2
  -3  -5 -18 117.605 66.8937   2
  -3  -5 -17 246.147 76.8229   2
  -3  -5 -16 324.831 90.1473   2
  -3  -5 -15 169.315 65.2325   2
  -3  -5 -14 583.486 102.880   2
   3  -5  14 579.729 83.0364   2
  -3  -5 -13 104.173 42.6830   2
   3  -5  13 149.823 41.3671   2
  -3  -5 -12 253.967 68.3431   2
   3  -5  12 277.319 52.4027   2
   3  -5  11 2263.98 133.452   2
  -3  -5 -11 2364.00 179.551   2
  -3  -5 -10 2515.94 177.743   2
  -3   5  10 2795.33 186.832   2
   3  -5  10 2884.76 138.902   2
   3  -5   9 1408.65 87.9158   2
  -3  -5  -9 1408.24 130.324   2
  -3   5   9 1442.38 130.204   2
  -3  -5  -8 1476.03 125.726   2
  -3   5   8 1607.48 131.504   2
   3  -5   8 1684.00 86.9110   2
  -3   5   7 319.699 58.1362   2
  -3  -5  -7 485.008 73.9081   2
   3   5  -7 486.105 67.6469   1
   3   5  -6 267.917 52.0700   1
  -3   5   6 330.833 54.9052   2
  -3  -5  -6 390.986 63.8397   2
  -3  -5  -5 1379.46 113.376   2
   3   5  -5 1610.97 115.684   1
  -3   5   5 1606.17 107.386   2
  -3   5   4 24.6589 17.9106   2
  -3  -5  -3 388.062 55.5179   1
  -3   5   3 449.683 49.0300   2
  -3  -5  -2 7671.24 236.069   1
  -3   5   2 7622.37 169.177   2
  -3  -5  -1 13209.8 304.129   1
  -3   5   1 12808.6 183.094   2
  -3   5   0 1529.17 46.7336   2
  -3  -5   0 1687.90 111.344   1
  -3   5  -1 13104.0 170.686   1
  -3  -5   1 13178.1 306.173   1
   3  -5  -1 13231.2 192.248   1
  -3   5  -2 8338.56 137.824   1
  -3  -5   2 7855.00 238.098   1
   3  -5  -2 7981.49 163.467   1
  -3  -5   3 488.883 64.3820   1
   3  -5  -3 484.969 44.9215   1
  -3   5  -3 463.690 35.2108   1
  -3  -5   4-29.2865 35.4695   1
   3  -5  -4 24.5749 15.6031   1
  -3  -5   5 1552.96 111.590   1
   3  -5  -5 1658.93 94.1907   1
   3  -5  -6 329.357 46.2279   1
  -3   5  -7 423.613 45.5282   2
   3  -5  -7 547.438 78.2473   2
  -3   5  -8 1767.00 101.656   2
   3  -5  -8 1712.02 143.763   2
  -3   5  -9 1517.17 102.746   2
   3  -5  -9 1180.43 130.398   2
  -3   5 -10 3061.46 159.299   2
   3  -5 -10 2865.43 206.220   2
   3  -5 -11 2188.77 188.404   2
   3  -5 -12 228.009 74.6268   2
  -3   5 -13 161.480 50.3084   2
   3  -5 -13 104.865 53.3784   2
  -3   5 -14 657.178 96.6150   2
   3  -5 -14 706.387 117.783   2
  -3   5 -15 107.131 48.2172   2
   3  -5 -15 196.659 83.1463   2
   3  -5 -16 452.353 109.832   2
  -3   5 -16 447.855 89.1637   2
   3  -5 -17 174.990 72.3381   2
  -3  -6 -19-10.4770 43.2760   2
  -3  -6 -18 241.785 80.7537   2
  -3  -6 -17 379.532 99.0300   2
  -3  -6 -16 90.8241 59.9500   2
  -3  -6 -15 407.891 90.7822   2
  -3  -6 -14 375.766 81.9661   2
  -3  -6 -13 91.5123 42.6363   2
   3  -6  13 78.0062 32.8560   2
   3  -6  12 1171.86 100.313   2
  -3  -6 -12 1882.01 169.380   2
   3  -6  11 1470.18 104.269   2
  -3  -6 -11 1462.53 144.705   2
  -3   6  10 2925.64 193.729   2
   3  -6  10 2853.86 133.601   2
  -3  -6 -10 2741.74 192.011   2
   3  -6   9 5158.09 161.265   2
  -3   6   9 5458.89 249.356   2
  -3  -6  -9 6486.17 282.936   2
  -3   6   8 197.670 48.4525   2
   3  -6   8 234.221 31.5180   2
  -3  -6  -8 243.101 59.0387   2
  -3   6   7 499.624 70.1157   2
  -3  -6  -7 490.360 74.3447   2
  -3  -6  -6 1891.62 139.867   2
   3   6  -6 1617.77 122.975   1
  -3   6   6 1505.16 110.581   2
  -3   6   5 19.7824 21.7334   2
  -3  -6  -5-12.9263 30.2385   2
   3   6  -5 16.5986 24.7444   1
  -3   6   4 595.554 59.4594   2
  -3   6   3 812.727 62.6859   2
  -3  -6  -3 864.777 85.2514   1
  -3  -6  -2 145.584 32.7765   1
  -3   6   2 210.765 28.2584   2
  -3  -6  -1 18325.2 371.091   1
  -3   6   1 17919.2 199.987   2
  -3  -6   0 4249.51 183.526   1
  -3  -6   1 19573.3 386.637   1
   3  -6  -2 236.420 27.6900   1
  -3  -6   2 230.490 48.2181   1
  -3  -6   3 957.612 91.4948   1
   3  -6  -3 815.148 54.5912   1
  -3   6  -3 873.928 40.0457   1
   3  -6  -4 593.125 51.1287   1
  -3   6  -4 685.597 40.1614   1
  -3  -6   4 579.238 73.0779   1
  -3  -6   5-12.9728 32.0295   1
   3  -6  -5 43.8638 18.3476   1
   3  -6  -5 31.5383 30.6454   2
   3  -6  -6 1579.72 125.595   2
   3  -6  -7 453.628 71.1318   2
   3  -6  -8 289.661 66.6916   2
   3  -6  -9 6220.44 290.068   2
   3  -6 -10 2727.88 200.777   2
   3  -6 -11 1547.30 161.850   2
   3  -6 -12 1564.09 166.716   2
   3  -6 -13 60.6060 48.9336   2
   3  -6 -14 398.586 96.9834   2
   3  -6 -15 225.432 82.3487   2
   3  -6 -16 34.8665 59.0625   2
   3  -6 -17 288.157 96.0381   2
   3  -6 -18 295.951 97.8914   2
  -3  -7 -18 145.866 73.2320   2
  -3  -7 -17 85.2392 53.3671   2
  -3  -7 -16 107.725 62.2590   2
  -3  -7 -15 31.3327 39.4286   2
  -3  -7 -14 704.645 115.846   2
  -3  -7 -13 1816.64 176.016   2
  -3  -7 -12 375.305 82.7320   2
   3  -7  12 334.717 53.3519   2
   3  -7  11 1454.94 101.105   2
  -3  -7 -11 1383.46 147.782   2
   3  -7  10 3104.91 135.571   2
  -3  -7 -10 3489.71 218.809   2
  -3   7  10 3314.77 204.867   2
   3  -7   9 1614.52 87.5500   2
  -3  -7  -9 1622.46 145.318   2
  -3   7   9 1670.66 139.232   2
  -3  -7  -8 1050.78 114.145   2
  -3   7   8 1087.07 107.034   2
   3  -7   8 1067.04 60.5718   2
  -3  -7  -7 83.8525 42.4387   2
  -3   7   7 93.7953 34.6529   2
  -3  -7  -6 1005.45 106.285   2
  -3   7   6 1137.09 95.7388   2
   3   7  -5 136.384 37.0333   1
  -3  -7  -5 68.5022 32.7404   2
  -3   7   5 150.455 34.5278   2
   3   7  -4 1323.90 108.634   1
  -3   7   4 1253.40 84.7083   2
   3   7  -3 47.6098 26.6639   1
  -3  -7  -3 55.0507 33.0575   1
  -3   7   3 36.6576 16.0109   2
  -3   7   2 593.637 45.8966   2
  -3  -7  -2 686.296 76.9506   1
  -3  -7  -1 2496.56 142.483   1
  -3  -7   0 1775.00 122.260   1
  -3  -7   1 2851.84 151.915   1
  -3  -7   2 607.929 74.7255   1
   3  -7  -2 612.085 39.8056   1
  -3  -7   3 33.9271 32.1310   1
   3  -7  -3 52.1983 16.4651   1
   3  -7  -3 54.4375 25.0331   2
   3  -7  -4 1169.05 69.5422   1
  -3  -7   4 1142.78 100.328   1
   3  -7  -4 1147.27 90.5206   2
  -3   7  -4 1273.85 42.8934   1
   3  -7  -5 131.567 27.8960   1
  -3  -7   5 109.274 38.0287   1
   3  -7  -5 104.750 36.9287   2
   3  -7  -6 1067.32 102.953   2
   3  -7  -7 128.405 43.6141   2
   3  -7  -8 938.186 108.930   2
   3  -7  -9 1466.56 140.282   2
   3  -7 -10 3571.29 227.363   2
   3  -7 -11 1392.27 152.780   2
   3  -7 -12 405.563 91.8328   2
   3  -7 -13 1869.83 187.933   2
   3  -7 -14 852.567 135.925   2
   3  -7 -15 0.34524 46.1777   2
   3  -7 -16 137.943 79.2618   2
   3  -7 -17 86.4175 70.1648   2
   3  -7 -18 41.3006 58.9887   2
  -3  -8 -18 99.2253 74.7182   2
  -3  -8 -17 53.5842 48.9899   2
  -3  -8 -16-16.4090 34.7933   2
  -3  -8 -15 202.631 74.3300   2
  -3  -8 -14 233.548 70.3717   2
  -3  -8 -13 23.5019 34.7508   2
  -3  -8 -12 320.154 80.8339   2
   3  -8  11 362.691 50.4153   2
  -3  -8 -11 318.006 75.2176   2
   3  -8  10 3533.65 136.961   2
  -3  -8 -10 3186.95 217.420   2
  -3   8  10 3197.94 201.839   2
   3  -8   9 726.268 55.8596   2
  -3  -8  -9 628.531 97.1968   2
  -3   8   9 592.986 83.4928   2
   3  -8   8 312.420 31.0102   2
  -3  -8  -8 332.458 67.8222   2
  -3   8   8 272.182 55.9475   2
  -3  -8  -7 62.1018 33.4817   2
  -3   8   7 74.5109 29.9293   2
  -3  -8  -6 2699.61 176.039   2
  -3   8   6 2821.50 150.165   2
  -3  -8  -5 2171.98 157.070   2
  -3   8   5 2288.51 125.281   2
  -3   8   4 1894.96 103.699   2
   3   8  -4 2036.91 139.219   1
   3   8  -3 520.694 70.8066   1
  -3   8   3 507.042 49.7849   2
  -3  -8  -3 518.400 72.0024   1
  -3  -8  -2 706.294 82.4892   1
  -3  -8  -1 1025.72 97.5001   1
  -3  -8   0 2735.30 155.992   1
  -3  -8   1 1086.58 100.608   1
   3  -8  -2 558.098 51.5958   2
  -3  -8   2 609.985 75.8292   1
   3  -8  -2 626.371 35.3835   1
  -3  -8   3 523.968 73.7638   1
   3  -8  -3 496.090 38.8764   1
   3  -8  -3 548.071 58.9996   2
   3  -8  -4 1867.06 84.4456   1
  -3  -8   4 1628.35 122.315   1
   3  -8  -4 1746.51 112.489   2
  -3  -8   5 2007.90 138.124   1
  -3   8  -5 1843.56 49.1596   1
   3  -8  -5 2100.39 134.168   2
   3  -8  -6 2723.26 162.493   2
   3  -8  -7 222.753 56.2151   2
   3  -8  -8 265.533 64.7036   2
   3  -8  -9 692.067 101.077   2
   3  -8 -10 3158.39 214.611   2
   3  -8 -11 284.805 79.0095   2
   3  -8 -12 76.7436 46.0633   2
   3  -8 -13 130.888 58.7170   2
   3  -8 -14 421.479 103.573   2
   3  -8 -15 178.295 72.4799   2
   3  -8 -16-30.5324 51.9790   2
   3  -8 -17-137.063 68.1394   2
   3  -8 -18 165.801 68.9368   2
  -3  -9 -17-32.1639 56.7629   2
  -3  -9 -16 405.074 104.795   2
  -3  -9 -15 343.152 86.1091   2
  -3  -9 -14 130.041 56.8107   2
  -3  -9 -13 316.031 83.7687   2
  -3  -9 -12 1015.83 133.774   2
  -3  -9 -11 335.457 74.8445   2
   3  -9  10 1268.48 82.1906   2
  -3  -9 -10 1343.29 146.370   2
   3  -9   9 1029.88 63.7739   2
  -3  -9  -9 1459.59 150.016   2
  -3   9   9 948.168 106.349   2
   3  -9   8 1467.90 61.5984   2
  -3  -9  -8 1516.36 145.701   2
  -3   9   8 1479.42 125.432   2
  -3  -9  -7 277.029 65.4082   2
  -3   9   7 276.562 52.9278   2
  -3  -9  -6 1013.88 116.418   2
  -3   9   6 845.242 84.1094   2
  -3  -9  -5 2170.77 162.582   2
  -3   9   5 2275.92 126.775   2
  -3  -9  -4 1236.90 113.590   1
  -3   9   4 1084.57 82.1888   2
  -3  -9  -3 2510.46 157.437   1
  -3  -9  -2 1517.86 122.959   1
  -3  -9  -1 625.620 81.1176   1
  -3  -9   0 5178.90 218.782   1
   3  -9  -1 680.270 48.0172   2
  -3  -9   1 665.170 81.5062   1
   3  -9  -2 1503.41 84.0487   2
  -3  -9   2 1673.70 125.032   1
  -3  -9   3 2411.05 152.352   1
   3  -9  -3 2496.38 79.8266   1
   3  -9  -3 2397.82 119.442   2
   3  -9  -4 1115.59 63.8820   1
  -3  -9   4 1112.65 105.269   1
   3  -9  -4 1063.54 88.4034   2
  -3  -9   5 2302.82 153.012   1
   3  -9  -5 2347.98 142.626   2
  -3  -9   6 778.807 90.8994   1
  -3   9  -6 794.602 31.8495   1
   3  -9  -6 936.191 97.4585   2
   3  -9  -7 350.872 68.9437   2
   3  -9  -8 1538.60 140.257   2
   3  -9  -9 1317.11 136.765   2
   3  -9 -10 1293.82 141.618   2
   3  -9 -11 242.704 65.3886   2
   3  -9 -12 870.721 129.475   2
   3  -9 -13 380.432 96.0272   2
   3  -9 -14 169.148 72.1540   2
   3  -9 -15 335.218 94.7735   2
   3  -9 -16 244.288 87.0921   2
   3  -9 -17 184.181 89.2763   2
   3  -9 -18 41.6230 65.1631   2
  -3 -10 -16-44.8642 63.2873   2
  -3 -10 -15 79.8116 47.0541   2
  -3 -10 -14 11.5367 42.2173   2
  -3 -10 -13 326.610 89.4822   2
  -3 -10 -12 324.014 79.3741   2
  -3 -10 -11 959.122 127.814   2
  -3 -10 -10 909.841 123.885   2
  -3  10   9 1023.61 111.089   2
   3 -10   9 882.844 58.0445   2
  -3 -10  -9 873.177 119.848   2
   3 -10   8 574.868 36.4134   2
  -3  10   8 519.525 77.4540   2
  -3 -10  -8 485.173 86.9091   2
  -3 -10  -7 297.934 71.9257   2
  -3  10   7 361.211 59.5605   2
  -3 -10  -6 420.483 78.2074   2
  -3  10   6 528.641 67.4189   2
  -3  10   5 1083.44 89.5146   2
  -3 -10  -5 1152.32 123.440   2
  -3 -10  -4 2757.89 169.476   1
  -3 -10  -3 808.992 94.5646   1
  -3 -10  -2 1313.73 116.434   1
  -3 -10  -1 4435.60 211.591   1
  -3 -10   0 4322.52 207.958   1
   3 -10  -1 4537.24 126.834   2
  -3 -10   1 4774.67 215.935   1
   3 -10  -2 1301.55 81.8505   2
  -3 -10   2 1279.70 115.206   1
   3 -10  -3 877.362 76.5045   2
  -3 -10   3 827.132 93.0271   1
   3 -10  -3 912.413 44.6479   1
   3 -10  -4 2736.41 95.2288   1
  -3 -10   4 2541.89 161.978   1
   3 -10  -4 2602.62 141.736   2
  -3 -10   5 1154.59 113.254   1
   3 -10  -5 995.942 95.9202   2
  -3 -10   6 356.521 64.5307   1
   3 -10  -6 558.534 77.7600   2
  -3  10  -7 245.802 20.3261   1
   3 -10  -7 349.854 71.8685   2
  -3  10  -8 638.893 43.8467   1
   3 -10  -8 577.635 93.3234   2
   3 -10  -9 827.231 109.865   2
   3 -10 -10 1221.04 140.010   2
   3 -10 -11 1063.76 134.346   2
   3 -10 -12 547.235 104.357   2
   3 -10 -13 78.2746 52.2033   2
   3 -10 -14 69.8139 43.5308   2
   3 -10 -15 123.767 71.6111   2
   3 -10 -16 150.731 79.8416   2
   3 -10 -17 108.582 63.5967   2
  -3 -11 -16-80.3290 59.5190   2
  -3 -11 -15-122.766 62.3909   2
  -3 -11 -14 32.0813 39.6568   2
  -3 -11 -13 388.812 96.9177   2
  -3 -11 -12-38.1608 54.3489   2
  -3 -11 -11 185.687 61.0677   2
  -3 -11 -10 46.9418 43.3301   2
  -3  11   9 743.722 95.0657   2
  -3 -11  -9 818.184 118.275   2
   3 -11   8 433.098 30.9934   2
  -3  11   8 441.498 72.1271   2
  -3 -11  -8 322.310 77.7454   2
  -3  11   7 2199.57 147.023   2
  -3 -11  -7 1987.09 172.100   2
  -3  11   6 97.4832 35.2267   2
  -3 -11  -6 101.631 48.2400   2
  -3 -11  -5 202.622 62.0301   2
  -3 -11  -4 210.903 55.2858   1
  -3 -11  -3 2189.81 153.998   1
  -3 -11  -2 5372.76 238.203   1
  -3 -11  -1 10851.5 337.285   1
   3 -11   0 1638.77 64.6008   2
  -3 -11   0 1817.58 139.066   1
   3 -11  -1 10870.8 209.639   2
  -3 -11   1 10540.8 332.354   1
   3 -11  -2 5601.35 174.521   2
  -3 -11   2 5545.06 240.686   1
   3 -11  -3 2502.83 129.920   2
  -3 -11   3 2093.74 151.413   1
   3 -11  -3 2397.61 62.0214   1
   3 -11  -4 190.417 25.0473   1
   3 -11  -4 231.463 51.8508   2
  -3 -11   4 173.474 50.4834   1
  -3 -11   5 84.2695 32.9572   1
   3 -11  -5 174.827 46.4323   2
  -3 -11   6 14.8499 36.5394   1
   3 -11  -6 59.0654 35.0413   2
   3 -11  -7 2201.26 161.693   2
  -3  11  -8 398.761 28.9760   1
   3 -11  -8 496.156 83.9564   2
  -3  11  -9 688.459 48.6280   1
   3 -11  -9 703.239 104.242   2
   3 -11 -10 8.16011 33.9511   2
   3 -11 -11 77.4675 38.7880   2
   3 -11 -12 2.04458 38.1651   2
   3 -11 -13 353.859 85.6991   2
   3 -11 -14 3.39911 41.6961   2
   3 -11 -15 115.231 70.8011   2
   3 -11 -16 113.391 64.8585   2
   3 -11 -17 4.22566 51.4057   2
  -3 -12 -15 122.040 62.2757   2
  -3 -12 -14-28.2154 49.1209   2
  -3 -12 -13 26.9963 48.3612   2
  -3 -12 -12 108.924 55.2176   2
  -3 -12 -11 156.804 58.8934   2
  -3 -12 -10 170.736 69.3743   2
  -3 -12  -9 1729.19 172.261   2
  -3  12   8 34.3198 24.6372   2
  -3 -12  -8 26.6334 48.2202   2
  -3 -12  -7 841.914 118.339   2
  -3 -12  -6 1298.45 141.443   2
  -3 -12  -5 466.600 89.1603   2
  -3 -12  -5 373.808 72.1008   1
  -3 -12  -4 1730.44 143.357   1
  -3 -12  -3 3112.31 187.523   1
  -3 -12  -2-31.6345 44.4832   1
  -3 -12  -1 5828.96 256.504   1
  -3 -12   0 88.3071 49.9483   1
   3 -12   0 0.83172 12.1700   2
   3 -12  -1 5832.66 163.295   2
  -3 -12   1 5522.20 247.132   1
  -3 -12   2 25.3421 34.8465   1
   3 -12  -2 6.14879 21.8292   2
   3 -12  -3 3317.69 155.605   2
  -3 -12   3 3050.73 185.353   1
   3 -12  -4 1622.56 66.2740   1
   3 -12  -4 1697.17 120.248   2
  -3 -12   4 1533.16 131.473   1
   3 -12  -5 477.340 71.3927   2
  -3 -12   5 410.420 72.3768   1
  -3 -12   6 1372.97 126.964   1
   3 -12  -6 1184.37 115.929   2
   3 -12  -7 953.902 109.496   2
   3 -12  -8-26.4985 40.2661   2
   3 -12  -9 2029.16 173.245   2
   3 -12 -10 83.7324 46.1358   2
   3 -12 -11 121.908 60.2095   2
   3 -12 -12 70.0165 53.4889   2
   3 -12 -13 4.20813 38.1655   2
   3 -12 -14 36.1852 34.6153   2
   3 -12 -15 191.960 84.9108   2
   3 -12 -16 130.519 83.0364   2
   3 -12 -17 105.208 71.3559   2
  -3 -13 -14 110.400 68.1940   2
  -3 -13 -13 64.5407 49.4996   2
  -3 -13 -12 383.570 92.8325   2
  -3 -13 -11 193.474 71.1489   2
  -3 -13 -10 650.216 116.721   2
  -3 -13  -9 862.953 126.322   2
  -3 -13  -8 250.337 71.4115   2
  -3 -13  -7 80.9932 49.6685   2
  -3 -13  -6 75.3367 42.5633   1
  -3 -13  -6 161.882 50.8844   2
  -3 -13  -5 445.813 87.1315   2
  -3 -13  -5 457.926 81.7532   1
  -3 -13  -4 185.359 55.0576   1
  -3 -13  -3 270.316 60.9163   1
  -3 -13  -2 2289.90 164.053   1
   3 -13   1 6187.97 127.813   2
  -3 -13  -1 7019.29 287.238   1
  -3 -13   0 338.765 70.6006   1
   3 -13   0 238.712 32.1421   2
   3 -13  -1 6411.39 181.930   2
  -3 -13   1 6605.12 275.613   1
   3 -13  -2 2347.97 122.362   2
  -3 -13   2 2136.87 157.903   1
  -3 -13   3 220.929 58.6621   1
   3 -13  -3 270.115 48.8017   2
   3 -13  -4 216.646 22.9269   1
   3 -13  -4 170.886 40.6129   2
  -3 -13   4 187.885 52.8666   1
   3 -13  -5 421.909 70.0242   2
  -3 -13   5 409.816 74.6904   1
  -3 -13   6 88.0343 35.9963   1
   3 -13  -6 164.602 49.9978   2
   3 -13  -7 153.170 50.5897   2
   3 -13  -8 306.236 69.8360   2
   3 -13  -9 844.185 118.412   2
   3 -13 -10 529.813 92.8946   2
   3 -13 -11 229.563 69.4452   2
   3 -13 -12 294.300 83.8751   2
   3 -13 -13 37.1204 39.1366   2
   3 -13 -14 173.892 67.9608   2
   3 -13 -15 113.519 67.6584   2
   3 -13 -16-11.4415 51.4055   2
  -3 -14 -13 13.0183 49.6238   2
  -3 -14 -12 81.1797 58.8586   2
  -3 -14 -11 321.487 90.7912   2
  -3 -14 -10 972.526 141.536   2
  -3 -14  -9 638.471 114.164   2
  -3 -14  -8 232.233 68.5370   2
  -3 -14  -7 67.4312 46.3102   2
  -3 -14  -6 111.285 47.3819   1
  -3 -14  -6 73.7207 46.4011   2
  -3 -14  -5 393.390 74.6718   1
  -3 -14  -5 380.917 84.4720   2
  -3 -14  -4 231.322 57.4419   1
  -3 -14  -4 393.334 86.2682   2
  -3 -14  -3 17.3276 29.1210   1
  -3 -14  -2 826.485 105.676   1
  -3 -14  -1 2107.14 165.836   1
   3 -14   1 2167.68 86.7548   2
  -3 -14   0 5348.60 256.349   1
   3 -14   0 5198.63 153.767   2
  -3 -14   1 2367.95 169.827   1
   3 -14  -1 2289.99 114.968   2
   3 -14  -2 792.275 75.2347   2
  -3 -14   2 821.546 104.601   1
  -3 -14   3-44.9638 43.1584   1
   3 -14  -3 1.40907 19.4401   2
   3 -14  -4 308.955 56.7002   2
  -3 -14   4 295.649 66.4025   1
   3 -14  -5 408.860 69.7890   2
  -3 -14   5 325.565 71.9005   1
  -3 -14   6 32.3621 31.1566   1
   3 -14  -6 123.134 45.3085   2
   3 -14  -7 319.267 72.1422   2
   3 -14  -8 130.925 48.7453   2
   3 -14  -9 707.671 110.813   2
   3 -14 -10 755.741 119.018   2
   3 -14 -11 139.160 62.0807   2
   3 -14 -12 44.1556 53.8029   2
   3 -14 -13-40.3213 48.2462   2
   3 -14 -14 14.0071 39.7626   2
   3 -14 -15-67.4255 59.0147   2
   3 -14 -16 137.338 69.5616   2
  -3 -15 -11-23.8342 44.9951   2
  -3 -15 -10 44.1132 54.9384   2
  -3 -15  -9 65.5191 53.8639   2
  -3 -15  -8 976.371 140.458   2
  -3 -15  -7 302.715 78.4425   2
  -3 -15  -7 323.719 75.3103   1
  -3 -15  -6 192.497 59.0900   1
  -3 -15  -6 305.270 77.7921   2
  -3 -15  -5 484.396 84.3133   1
  -3 -15  -5 446.414 95.7540   2
  -3 -15  -4 57.5652 41.1434   1
  -3 -15  -4 124.252 56.0681   2
  -3 -15  -3 150.223 53.5014   1
  -3 -15  -2 443.286 81.5309   1
  -3 -15  -1 1724.45 152.713   1
  -3 -15   0 3506.75 215.018   1
  -3 -15   1 1716.89 148.936   1
   3 -15  -1 1718.49 104.770   2
  -3 -15   2 415.649 77.7449   1
   3 -15  -2 363.922 54.7227   2
   3 -15  -3 379.260 59.7347   2
  -3 -15   3 260.692 62.6758   1
   3 -15  -4 105.100 35.9715   2
  -3 -15   4-7.07736 34.4193   1
   3 -15  -5 497.545 77.3179   2
  -3 -15   5 466.356 81.5468   1
  -3 -15   6 123.199 49.3419   1
   3 -15  -6 171.921 52.2029   2
   3 -15  -7 280.240 70.2952   2
   3 -15  -8 750.199 109.111   2
   3 -15  -9 55.6622 42.9320   2
   3 -15 -10 52.9143 41.4386   2
   3 -15 -11 24.2856 38.3098   2
   3 -15 -12 134.731 65.5499   2
   3 -15 -13 303.145 90.9857   2
   3 -15 -14 249.555 88.3694   2
   3 -15 -15 63.1806 59.0803   2
  -3 -16 -10 666.486 128.893   2
  -3 -16  -9 114.727 61.0451   2
  -3 -16  -8 248.869 67.5525   1
  -3 -16  -8 65.7104 59.5465   2
  -3 -16  -7 59.4563 41.9636   1
  -3 -16  -7-86.6418 60.5822   2
  -3 -16  -6 49.6107 51.7825   2
  -3 -16  -6 66.1762 31.2383   1
  -3 -16  -5 69.6830 43.5558   1
  -3 -16  -5 30.2253 36.6668   2
  -3 -16  -4 255.902 75.1950   2
  -3 -16  -4 227.969 66.2775   1
  -3 -16  -3 56.0651 37.7882   1
  -3 -16  -2 134.629 44.3187   1
  -3 -16  -1 146.464 53.4396   1
  -3 -16   0-3.87639 31.7832   1
  -3 -16   1 180.765 59.2086   1
  -3 -16   2 122.949 50.1726   1
  -3 -16   3 61.5171 37.7551   1
   3 -16  -4 202.307 49.7854   2
  -3 -16   4 256.031 64.6029   1
   3 -16  -5 75.8384 34.9173   2
  -3 -16   5 43.5865 30.8991   1
   3 -16  -6 67.5289 43.8638   2
   3 -16  -7 36.3345 42.7582   2
   3 -16  -8 111.433 50.3570   2
   3 -16  -9 145.000 59.6768   2
   3 -16 -10 750.661 121.542   2
   3 -16 -11 196.214 74.9651   2
   3 -16 -12 49.7372 44.3518   2
   3 -16 -13 70.0768 66.4303   2
   3 -16 -14-0.38696 27.5484   2
  -3 -17  -9 7.27281 30.8084   1
  -3 -17  -8 400.428 94.2273   2
  -3 -17  -8 533.422 98.4520   1
  -3 -17  -7 35.7709 41.7803   2
  -3 -17  -7-9.20640 33.6733   1
  -3 -17  -6 66.0971 38.4834   1
  -3 -17  -6 37.2226 40.0857   2
  -3 -17  -5 13.7693 26.2561   1
  -3 -17  -5-71.1413 54.1266   2
  -3 -17  -4 336.627 89.3700   2
  -3 -17  -4 149.676 52.5050   1
  -3 -17  -3 473.495 86.4447   1
  -3 -17  -3 728.588 121.341   2
  -3 -17  -2 126.403 52.3263   1
  -3 -17  -1 51.5288 39.4048   1
  -3 -17   0 1050.80 124.448   1
  -3 -17   1 26.4638 27.6337   1
  -3 -17   2 0.22719 35.5453   1
  -3 -17   3 682.048 100.947   1
  -3 -17   4 317.402 73.5671   1
  -3 -17   5 22.9123 41.5217   1
  -3 -18  -8 38.1826 35.6629   1
  -3 -18  -7 241.709 71.5218   1
  -3 -18  -6 312.525 80.4579   1
  -3 -18  -6 283.186 89.1623   2
  -3 -18  -5 346.655 95.8444   2
  -3 -18  -5 224.627 69.0142   1
  -3 -18  -4 172.827 61.8218   1
  -3 -18  -4 36.8661 50.0274   2
  -3 -18  -3 83.3255 45.9331   1
  -3 -18  -3 100.763 64.9130   2
  -3 -18  -2 230.794 64.9974   1
  -3 -18  -1 84.4843 44.1589   1
  -3 -18   0 0.95808 31.1252   1
  -3 -18   1 9.55913 33.4901   1
  -3 -18   2 269.599 68.2240   1
  -3 -18   3 48.4274 41.8756   1
  -3 -18   4 92.3478 44.5567   1
  -3 -18   5 243.146 69.1029   1
  -3 -19  -6-41.3477 41.5740   1
  -3 -19  -5 79.7523 48.2990   1
  -3 -19  -4 31.3839 40.6166   1
  -3 -19  -3 361.819 80.0145   1
  -3 -19  -3 355.393 92.2878   2
  -3 -19  -2 185.858 75.4198   2
  -3 -19  -2 236.802 63.5215   1
  -3 -19  -1 41.2747 33.9443   1
  -3 -19   0 55.6194 35.6066   1
  -3 -19   1 104.962 52.9919   1
  -3 -19   2 228.885 65.5741   1
  -3 -19   3 202.083 62.5811   1
  -3 -19   4-23.7341 36.0699   1
  -3 -19   5 173.046 64.2428   1
  -3 -20  -4 91.4531 52.8846   1
  -3 -20  -3 5.26389 30.0313   1
  -3 -20  -2 468.830 95.1289   1
  -3 -20  -1 135.329 58.5599   1
  -3 -20   0 103.122 58.0187   1
  -3 -20   1 188.156 64.9970   1
  -3 -20   2 411.799 87.3402   1
  -3 -20   3 63.2678 42.4677   1
  -3 -20   4-45.9625 40.6315   1
  -4   0   0 1431.26 99.4017   1
  -4   0   1 3334.92 150.787   1
  -4   0  -1 3405.98 150.831   1
   4   0  -2 21.0414 21.3258   1
  -4   0  -2 25.0203 21.9604   1
  -4   0   2 28.3381 21.4418   1
  -4   0   3 788.802 78.7799   1
  -4   0  -3 830.067 76.8770   1
   4   0  -3 799.661 79.4348   1
  -4   0  -4 4350.81 167.012   2
  -4   0  -4 4386.49 175.632   1
  -4   0   4 4856.00 228.398   2
   4   0  -4 4629.50 191.240   1
   4   0  -5 98.2149 35.3337   1
  -4   0  -5 45.8173 26.4248   2
  -4   0   5 56.7254 38.1603   2
  -4   0   6 2397.28 174.574   2
   4   0  -6 2290.48 147.708   1
  -4   0  -6 2436.93 132.835   2
   4   0  -7 375.142 64.1857   1
  -4   0   7 520.577 89.8168   2
  -4   0   8 861.879 115.450   2
  -4   0  -9 1920.97 135.241   2
  -4   0 -10 532.908 75.4483   2
  -4   0 -11 280.213 58.8594   2
  -4   0 -12 526.104 84.1902   2
  -4   0 -13 79.7383 37.3215   2
  -4   0 -14 45.9078 42.5708   2
  -4   0 -15 2068.73 186.634   2
  -4   0 -16 306.517 77.6981   2
  -4   0 -17 29.8507 45.0068   2
  -4   0 -18 22.7567 42.8178   2
  -4   0 -19 21.7385 40.6252   2
  -4   0 -20 176.794 86.8407   2
  -4  -1 -20 56.5682 40.9825   2
  -4  -1 -19 165.375 80.5699   2
  -4  -1 -18 124.285 62.7175   2
  -4  -1 -17-77.6045 50.9113   2
  -4  -1 -16-7.51120 37.5698   2
  -4  -1 -15 118.221 51.1440   2
  -4  -1 -14 103.424 59.5956   2
  -4  -1 -13 174.679 58.9555   2
  -4  -1 -12 232.327 63.0386   2
  -4  -1 -11 115.501 40.6784   2
  -4  -1 -10 64.4696 29.8631   2
  -4  -1  -9 1034.61 103.410   2
  -4   1   8 6242.15 291.518   2
  -4  -1  -8 5495.81 225.749   2
  -4   1   7 9126.58 342.979   2
   4   1  -7 9046.95 298.929   1
  -4   1   6 6786.35 284.857   2
   4   1  -6 7647.61 266.031   1
  -4   1   5 6587.92 267.807   2
   4   1  -5 6560.97 241.744   1
   4   1  -4 5340.36 211.863   1
  -4   1   4 5180.83 231.917   2
  -4  -1  -4 4965.69 192.631   1
  -4  -1  -3 8268.11 244.553   1
   4   1  -3 8479.68 258.756   1
  -4   1   3 8177.66 281.220   2
  -4   1   2 3162.24 145.678   1
   4   1  -2 3516.39 163.440   1
  -4  -1  -2 3107.39 150.648   1
  -4  -1  -1 561.938 66.7292   1
  -4   1   1 496.984 58.1652   1
  -4   1   0 560.355 60.1633   1
  -4  -1   0 509.502 64.7163   1
  -4  -1   1 424.766 57.6315   1
  -4   1  -1 482.147 55.6871   1
  -4  -1   2 3132.72 153.065   1
  -4   1  -2 3401.60 145.851   1
   4  -1  -2 3297.55 148.517   1
  -4  -1   3 8244.74 252.616   1
   4  -1  -3 8289.07 244.237   1
  -4   1  -3 8645.72 211.602   2
  -4   1  -3 8262.81 226.122   1
  -4   1  -4 4922.72 180.542   1
  -4   1  -4 4899.42 164.976   2
   4  -1  -4 5059.15 194.469   1
  -4  -1   5 6497.82 284.890   2
  -4   1  -5 6451.80 195.788   2
   4  -1  -5 6485.76 227.882   1
   4  -1  -6 6904.56 243.287   1
  -4  -1   6 6990.45 302.714   2
  -4   1  -6 6936.74 210.765   2
   4  -1  -7 9540.95 296.227   1
  -4  -1   7 8717.24 349.850   2
  -4   1  -7 9561.57 256.907   2
   4  -1  -8 5998.63 241.615   1
  -4  -1   8 5845.00 296.662   2
  -4   1 -10-2.42274 23.8098   2
  -4   1 -11 116.218 43.8932   2
  -4   1 -12 252.085 58.7388   2
  -4   1 -13 215.956 59.8906   2
  -4   1 -14 47.6187 38.2509   2
  -4   1 -15 265.847 72.3706   2
  -4   1 -16 29.4064 36.2777   2
  -4   1 -17 75.6229 54.1308   2
  -4   1 -18 85.1281 51.8020   2
  -4   1 -19 281.115 83.8478   2
  -4  -2 -20-10.4696 41.4899   2
  -4  -2 -19 174.561 73.1171   2
  -4  -2 -18 265.444 75.6733   2
  -4  -2 -17 51.7214 41.5810   2
  -4  -2 -16 374.936 86.0157   2
  -4  -2 -15 758.773 121.929   2
  -4  -2 -14 163.270 60.9903   2
  -4  -2 -13 373.792 79.3394   2
  -4  -2 -12 702.080 102.759   2
  -4  -2 -11-13.6254 27.6771   2
  -4  -2 -10 1224.51 118.618   2
  -4   2   9 1989.70 169.538   2
  -4  -2  -9 1813.77 140.264   2
  -4   2   8 1096.82 124.792   2
  -4  -2  -8 839.157 94.6840   2
  -4   2   7 1048.80 117.091   2
  -4  -2  -7 1037.44 100.308   2
  -4   2   6 3523.88 200.022   2
  -4  -2  -6 3512.84 175.551   2
   4   2  -6 3501.53 185.717   1
  -4   2   5 2265.69 153.938   2
   4   2  -5 2097.00 138.861   1
   4   2  -4 461.365 64.8440   1
  -4  -2  -4 483.106 66.2080   1
  -4   2   4 548.896 76.5996   2
  -4  -2  -3 2623.28 143.898   1
  -4   2   3 2823.77 155.384   2
   4   2  -3 2726.10 151.719   1
  -4   2   2 686.161 74.3817   2
  -4  -2  -2 811.716 81.0343   1
  -4   2   1 1893.07 107.508   1
  -4   2   1 1832.69 114.197   2
  -4  -2  -1 1861.22 119.803   1
  -4   2   0 601.113 60.9059   1
  -4  -2   0 549.992 67.4830   1
  -4  -2   1 1652.13 114.198   1
  -4   2  -1 1757.92 100.850   1
  -4  -2   2 746.399 79.7145   1
  -4   2  -2 781.446 68.1653   1
   4  -2  -2 827.302 74.2547   1
  -4  -2   3 2634.73 149.095   1
   4  -2  -3 2635.98 132.891   1
  -4   2  -3 2561.36 107.020   2
  -4   2  -3 2639.62 124.258   1
  -4  -2   4 414.067 62.5301   1
  -4   2  -4 451.568 55.8546   1
  -4   2  -4 499.368 48.5657   2
   4  -2  -4 457.558 58.6049   1
   4  -2  -5 1991.65 125.497   1
  -4   2  -5 2124.27 102.441   2
  -4   2  -5 2027.30 113.562   1
   4  -2  -6 3550.70 171.410   1
  -4  -2   6 3368.96 218.707   2
  -4   2  -6 3568.18 140.409   2
   4  -2  -7 1098.95 98.6501   1
  -4  -2   7 1116.41 129.449   2
  -4   2  -7 1188.64 87.0017   2
   4  -2  -8 987.757 97.7660   1
  -4   2  -8 967.543 83.8675   2
  -4   2 -11 16.2235 29.1652   2
  -4   2 -12 921.291 105.272   2
  -4   2 -13 406.883 76.1757   2
  -4   2 -14 232.016 59.0376   2
  -4   2 -15 895.784 118.207   2
  -4   2 -16 278.871 73.1607   2
  -4   2 -17 78.8460 48.4745   2
  -4   2 -18 353.806 88.5997   2
  -4  -3 -20 145.502 66.4615   2
  -4  -3 -19 41.1670 46.3239   2
  -4  -3 -18 31.8088 41.3262   2
  -4  -3 -17 308.492 84.6464   2
  -4  -3 -16 43.9775 57.1433   2
  -4  -3 -15 276.612 73.8505   2
  -4  -3 -14 831.927 121.875   2
  -4  -3 -13 72.8032 43.0747   2
  -4  -3 -12 70.5266 45.1369   2
  -4  -3 -11 548.527 87.8457   2
  -4  -3 -10 259.129 64.1592   2
  -4   3   9 546.648 89.7777   2
  -4  -3  -9 674.843 89.6545   2
  -4   3   8 1083.87 120.419   2
  -4  -3  -8 1006.60 107.230   2
  -4   3   7 124.283 48.8688   2
  -4  -3  -7 59.6172 31.7882   2
  -4   3   6 472.324 76.2562   2
  -4  -3  -6 446.343 68.6289   2
  -4   3   5 986.869 99.5803   2
  -4  -3  -5 980.869 97.6336   2
   4   3  -5 920.288 95.5790   1
  -4   3   4 1285.16 107.000   2
   4   3  -4 1628.77 123.100   1
  -4  -3  -4 1254.28 105.048   1
  -4  -3  -3 729.938 82.8651   1
   4   3  -3 575.674 73.6370   1
  -4   3   3 541.676 65.5672   2
  -4   3   2 1703.18 108.468   2
  -4  -3  -2 1588.32 116.662   1
  -4   3   1 124.627 29.8680   1
  -4  -3  -1 104.094 36.7070   1
  -4   3   1 159.701 31.9866   2
  -4   3   0 3262.35 133.334   1
  -4  -3   0 3437.92 167.338   1
  -4   3   0 3631.22 138.910   2
  -4   3  -1 169.266 31.9394   1
  -4  -3   1 91.6726 33.8645   1
  -4  -3   2 1597.66 116.110   1
  -4   3  -2 1602.68 91.5301   1
  -4   3  -2 1744.91 76.0793   2
   4  -3  -2 1628.49 98.4498   1
   4  -3  -3 609.251 63.0022   1
  -4   3  -3 608.289 44.5727   2
  -4   3  -3 683.544 61.7424   1
  -4  -3   3 604.787 76.0651   1
  -4  -3   4 1455.30 113.741   1
  -4   3  -4 1443.72 90.9117   1
  -4   3  -4 1444.86 70.3730   2
   4  -3  -4 1380.84 97.8685   1
   4  -3  -5 820.870 78.4787   1
  -4   3  -5 947.215 73.7649   1
  -4   3  -5 919.832 60.0130   2
   4  -3  -6 431.330 61.5160   1
  -4   3  -6 435.658 46.4183   2
  -4   3  -7 161.603 34.5315   2
   4  -3  -7 79.7977 28.3779   1
   4  -3  -8 989.401 97.4295   1
  -4   3  -8 1037.22 82.8286   2
  -4   3  -9 522.517 63.3354   2
  -4   3 -12 94.1269 42.1751   2
  -4   3 -13 68.9736 32.9345   2
  -4   3 -14 953.492 114.910   2
  -4   3 -15 195.153 59.3423   2
  -4   3 -16 69.0716 44.9677   2
  -4   3 -17 278.287 77.4709   2
  -4  -4 -19 72.1719 70.7825   2
  -4  -4 -18 289.481 89.9819   2
  -4  -4 -17 194.940 73.1171   2
  -4  -4 -16 438.294 99.5859   2
  -4  -4 -15 316.408 80.8660   2
  -4  -4 -14 118.720 59.4460   2
  -4  -4 -13 213.126 61.4693   2
  -4  -4 -12 483.106 88.3338   2
  -4  -4 -11 180.523 54.7027   2
  -4  -4 -10 2135.79 168.341   2
  -4  -4  -9 2119.03 160.708   2
  -4   4   9 2024.35 166.683   2
  -4   4   8 427.573 76.9508   2
  -4  -4  -8 477.394 77.6976   2
  -4  -4  -7 783.330 93.3631   2
  -4   4   7 862.013 99.9988   2
  -4   4   6 1414.01 119.844   2
  -4  -4  -6 1302.10 117.497   2
  -4   4   5 423.657 63.5078   2
  -4  -4  -5 372.063 64.1336   2
  -4   4   4 4023.05 179.009   2
   4   4  -4 4197.86 201.481   1
  -4  -4  -4 4309.05 195.357   1
   4   4  -3 32.2603 28.4687   1
  -4  -4  -3 42.2503 32.8081   1
  -4   4   3 34.2296 20.4981   2
  -4   4   2 2771.06 129.235   2
  -4  -4  -2 2607.80 151.057   1
  -4   4   1 1507.57 87.3581   2
  -4  -4  -1 1505.45 116.090   1
  -4   4   0-4.81643 16.6009   1
  -4   4   0 25.2968 13.5778   2
  -4  -4   0-31.3722 29.3261   1
  -4   4  -1 1529.72 84.6063   1
  -4   4  -1 1462.43 67.9265   2
  -4  -4   1 1329.17 108.318   1
  -4  -4   2 2644.22 152.903   1
  -4   4  -2 2475.70 78.3468   2
  -4   4  -2 2842.07 114.094   1
  -4   4  -2 2581.84 71.3628   2
   4  -4  -2 2527.65 117.261   1
  -4   4  -3 22.7767 16.1397   1
  -4   4  -3 41.9228 9.88949   2
   4  -4  -3 57.0315 22.4753   1
  -4  -4   3 62.5910 33.7805   1
  -4   4  -3 28.8327 9.67369   2
  -4  -4   4 3868.73 192.116   1
   4  -4  -4 3898.67 157.809   1
  -4   4  -4 3745.71 85.2173   2
  -4   4  -4 4085.80 142.177   1
   4  -4  -5 360.959 54.1147   1
  -4   4  -5 322.815 29.6549   2
  -4  -4   5 360.809 65.1124   1
  -4   4  -5 380.362 45.1269   1
  -4   4  -6 1383.09 69.5540   2
   4  -4  -6 1339.29 100.633   1
  -4   4  -7 840.917 62.7056   2
   4  -4  -7 796.108 82.8349   1
   4  -4  -8 377.966 60.7953   1
  -4   4  -8 390.368 49.2998   2
  -4   4  -9 2135.98 119.489   2
   4  -4  -9 1797.01 133.584   1
  -4   4 -10 1973.90 125.371   2
  -4   4 -13 225.007 58.2169   2
  -4   4 -14 104.803 42.8470   2
  -4   4 -15 305.556 66.0213   2
  -4   4 -16 146.000 53.5237   2
  -4  -5 -19-83.8630 57.0443   2
  -4  -5 -18-39.9554 39.9510   2
  -4  -5 -17 55.7018 59.4538   2
  -4  -5 -16 457.435 99.9905   2
  -4  -5 -15 332.106 88.4876   2
  -4  -5 -14 1281.93 151.995   2
  -4  -5 -13 141.962 57.0435   2
  -4  -5 -12 0.24786 39.9064   2
  -4  -5 -11 420.799 83.3411   2
  -4  -5 -10 265.789 65.4268   2
  -4   5   9 231.276 57.5775   2
  -4  -5  -9 330.675 71.0187   2
  -4  -5  -8 1632.99 142.331   2
  -4   5   8 1743.21 147.828   2
  -4   5   7 244.268 54.7125   2
  -4  -5  -7 261.792 57.4091   2
  -4  -5  -6 1712.61 138.300   2
  -4   5   6 1604.80 124.687   2
  -4   5   5 417.920 61.8164   2
  -4  -5  -5 430.608 68.8041   2
  -4  -5  -5 465.136 72.2924   1
  -4  -5  -4 1746.34 129.431   1
  -4   5   4 1765.92 113.740   2
  -4  -5  -3 661.230 80.6940   1
  -4   5   3 610.975 63.0057   2
  -4   5   2 2057.87 100.900   2
  -4  -5  -2 2122.25 140.990   1
  -4   5   1-2.02577 9.63277   2
  -4  -5  -1 7.05880 25.6174   1
  -4  -5   0 1895.18 134.648   1
  -4   5   0 2052.14 70.1589   2
  -4   5  -1 10.7976 17.1142   1
  -4  -5   1 21.2220 26.3294   1
  -4   5  -2 2329.60 97.2091   1
  -4  -5   2 2214.24 145.448   1
   4  -5  -3 723.566 62.8987   1
  -4   5  -3 679.784 54.0099   1
  -4  -5   3 623.540 79.2952   1
  -4  -5   4 1763.78 134.417   1
  -4   5  -4 1856.48 90.6434   1
   4  -5  -4 1565.06 97.3358   1
  -4   5  -5 421.454 46.0498   1
   4  -5  -5 491.118 58.6154   1
  -4  -5   5 680.818 86.8893   1
   4  -5  -6 1633.96 108.066   1
   4  -5  -7 267.817 48.4247   1
  -4   5  -7 247.390 28.8931   2
   4  -5  -8 1796.32 126.359   1
  -4   5  -8 1534.72 83.2858   2
   4  -5  -9 274.855 54.5977   1
  -4   5  -9 250.338 40.4017   2
  -4   5 -10 131.623 34.2369   2
  -4   5 -11 423.988 61.4666   2
  -4   5 -13 150.717 45.6969   2
  -4   5 -14 1954.63 155.540   2
  -4   5 -15 298.032 69.0381   2
  -4  -6 -18-66.1387 52.1231   2
  -4  -6 -17 33.8828 47.7539   2
  -4  -6 -16 11.3907 45.8256   2
  -4  -6 -15 387.831 89.6767   2
  -4  -6 -14 226.444 69.0598   2
  -4  -6 -13 250.837 68.0245   2
  -4  -6 -12 1225.78 143.494   2
  -4  -6 -11 82.5405 47.5994   2
  -4  -6 -10 611.243 99.6627   2
  -4   6   9 757.732 98.8598   2
  -4  -6  -9 798.503 108.193   2
  -4   6   8 186.052 49.0556   2
  -4  -6  -8 144.469 51.5426   2
  -4  -6  -7 781.627 101.933   2
  -4   6   7 770.967 90.1534   2
  -4  -6  -6 1195.72 120.585   2
  -4   6   6 1381.07 111.521   2
  -4  -6  -5 2318.01 163.888   2
  -4   6   5 2306.14 134.567   2
  -4  -6  -5 2616.66 164.322   1
  -4  -6  -4 1736.75 134.238   1
  -4   6   4 2081.45 117.387   2
  -4  -6  -3 1325.98 116.863   1
  -4   6   3 1340.83 84.4556   2
  -4   6   2 371.917 40.0499   2
  -4  -6  -2 392.993 65.1792   1
  -4  -6  -1 570.784 76.4466   1
  -4   6   1 599.572 40.3144   2
  -4  -6   0-13.2029 36.6821   1
  -4  -6   1 622.670 83.5282   1
  -4   6  -2 342.067 34.7342   1
  -4  -6   2 366.706 66.4411   1
   4  -6  -3 1105.51 75.0617   1
  -4   6  -3 1297.62 66.0254   1
  -4  -6   3 1059.24 104.769   1
  -4  -6   4 1871.23 140.333   1
  -4   6  -4 2203.09 88.4290   1
   4  -6  -4 1998.14 105.741   1
  -4  -6   5 2319.52 156.459   1
   4  -6  -5 2387.63 122.347   1
  -4   6  -5 2582.36 100.133   1
   4  -6  -6 1447.90 100.077   1
  -4   6  -6 1422.64 78.9577   1
   4  -6  -7 920.136 84.3611   1
   4  -6  -8 144.081 39.9533   1
   4  -6  -9 942.926 94.4109   1
  -4  -7 -17 38.6562 48.6064   2
  -4  -7 -16 519.680 115.595   2
  -4  -7 -15 274.583 88.4258   2
  -4  -7 -14 183.013 70.3951   2
  -4  -7 -13 677.656 114.968   2
  -4  -7 -12 13.8724 35.7033   2
  -4  -7 -11 81.3439 46.2277   2
  -4  -7 -10 11.1751 39.0608   2
  -4   7   9 254.662 59.7652   2
  -4  -7  -9 198.730 58.3494   2
  -4  -7  -8 961.325 114.871   2
  -4   7   8 1081.58 112.528   2
  -4   7   7 492.600 73.1169   2
  -4  -7  -7 468.612 81.7405   2
  -4  -7  -6 943.408 113.217   2
  -4   7   6 913.659 91.7191   2
  -4  -7  -5 3439.84 203.317   2
  -4   7   5 3572.97 162.553   2
  -4  -7  -5 3469.32 193.528   1
  -4  -7  -4 860.018 99.7169   1
  -4   7   4 830.989 71.6752   2
  -4  -7  -3 1470.13 125.359   1
  -4   7   3 1168.27 75.8267   2
  -4   7   2 490.099 41.7027   2
  -4  -7  -2 388.848 64.1629   1
  -4  -7  -1 239.979 56.9015   1
  -4   7   1 263.618 20.7949   2
  -4  -7   0 1391.14 120.933   1
  -4  -7   1 323.426 63.9127   1
  -4  -7   2 526.709 75.4913   1
  -4  -7   3 1188.91 116.214   1
   4  -7  -3 1332.13 75.9622   1
  -4   7  -4 773.330 44.5595   1
   4  -7  -4 776.694 63.9058   1
  -4  -7   4 754.630 95.9994   1
  -4  -7   5 3495.70 195.495   1
   4  -7  -5 3553.30 145.227   1
  -4   7  -5 3919.79 109.077   1
  -4   7  -6 996.179 59.4410   1
   4  -7  -6 860.421 76.0786   1
   4  -7  -7 512.786 63.9006   1
   4  -7  -8 1057.79 94.4889   1
   4  -7  -9 290.753 54.2645   1
  -4  -8 -17 39.0141 49.9466   2
  -4  -8 -16 230.529 79.0213   2
  -4  -8 -15 341.471 91.6091   2
  -4  -8 -14 166.615 65.9813   2
  -4  -8 -13 97.1202 47.9850   2
  -4  -8 -12 505.904 99.1643   2
  -4  -8 -11 194.703 61.3489   2
  -4  -8 -10 239.400 71.3638   2
  -4  -8  -9 549.020 92.9159   2
  -4   8   9 627.118 89.5175   2
  -4  -8  -8 308.628 73.8967   2
  -4   8   8 104.710 36.5946   2
  -4  -8  -7 429.621 80.7977   2
  -4   8   7 405.425 65.4345   2
  -4  -8  -6 193.997 56.2694   2
  -4   8   6 167.976 37.4936   2
  -4  -8  -5 2587.59 183.367   2
  -4   8   5 2400.15 131.560   2
  -4  -8  -5 2711.59 175.896   1
  -4  -8  -4 1729.91 140.906   1
  -4   8   4 1676.46 99.0362   2
  -4  -8  -3 4186.03 214.776   1
  -4   8   3 4233.30 136.031   2
  -4   8   2 829.824 48.9621   2
  -4  -8  -2 878.533 100.524   1
  -4  -8  -1 299.564 63.2188   1
  -4  -8   0 808.243 98.9306   1
  -4  -8   1 292.456 59.3369   1
  -4  -8   2 716.535 91.6122   1
  -4  -8   3 4139.11 214.686   1
   4  -8  -3 4309.67 128.078   1
  -4  -8   4 1734.82 142.179   1
   4  -8  -4 1873.09 93.0127   1
  -4  -8   5 2530.23 172.188   1
  -4   8  -5 2309.63 61.2831   1
   4  -8  -5 2733.36 123.247   1
  -4  -8   6 305.738 66.8858   1
   4  -8  -6 199.049 38.3758   1
  -4   8  -6 236.078 25.3015   1
  -4   8  -7 485.052 40.1536   1
   4  -8  -7 365.577 53.3115   1
   4  -8  -8 97.1940 31.9814   1
   4  -8  -9 528.521 71.5053   1
  -4  -9 -16 238.546 91.6395   2
  -4  -9 -15 71.5030 54.2814   2
  -4  -9 -14 126.593 54.8368   2
  -4  -9 -13 466.700 99.8425   2
  -4  -9 -12 17.3555 35.8409   2
  -4  -9 -11 110.685 45.6670   2
  -4  -9 -10 135.748 52.1597   2
  -4  -9  -9-10.4130 37.5975   2
  -4   9   9 76.8826 32.9921   2
  -4  -9  -8 317.992 72.4892   2
  -4   9   8 374.880 66.9381   2
  -4  -9  -7 1541.29 153.259   2
  -4   9   7 1498.20 120.869   2
  -4  -9  -6 1216.46 125.252   1
  -4  -9  -6 1244.64 138.149   2
  -4   9   6 990.709 91.3234   2
  -4  -9  -5 4337.64 243.749   2
  -4   9   5 4295.42 172.985   2
  -4  -9  -5 4697.20 237.518   1
  -4   9   4 676.417 62.1427   2
  -4  -9  -4 735.780 100.603   1
  -4  -9  -3 248.421 62.2646   1
  -4   9   3 257.191 33.7433   2
  -4  -9  -2 531.564 82.7843   1
  -4  -9  -1 1452.48 130.304   1
  -4  -9   0 41.2939 35.7429   1
  -4  -9   1 1398.59 129.452   1
  -4  -9   2 654.477 90.9204   1
  -4  -9   3 295.208 64.2523   1
  -4  -9   4 665.499 95.7631   1
   4  -9  -4 684.556 52.8789   1
  -4  -9   5 4538.81 235.836   1
   4  -9  -5 4304.56 145.976   1
  -4  -9   6 1027.39 115.133   1
   4  -9  -6 1059.64 79.8427   1
   4  -9  -7 1395.76 97.9111   1
  -4   9  -7 1307.13 50.3788   1
  -4   9  -8 265.080 29.5220   1
   4  -9  -8 308.167 48.7116   1
   4  -9  -9 32.5119 25.8174   1
  -4 -10 -15 97.9170 53.8650   2
  -4 -10 -14 81.0429 45.1721   2
  -4 -10 -13 165.502 73.1507   2
  -4 -10 -12 353.989 93.3565   2
  -4 -10 -11 238.673 72.3340   2
  -4 -10 -10 44.6620 52.5931   2
  -4 -10  -9 90.4667 48.3844   2
  -4 -10  -8 422.328 88.9034   2
  -4  10   8 527.275 75.9436   2
  -4 -10  -7 72.7703 45.0378   2
  -4  10   7 48.6141 20.4255   2
  -4 -10  -6 1371.44 146.636   2
  -4  10   6 1501.91 112.642   2
  -4 -10  -6 1548.24 144.067   1
  -4 -10  -5 2807.61 203.414   2
  -4  10   5 2735.11 137.938   2
  -4 -10  -5 2944.45 195.974   1
  -4 -10  -4 1640.97 145.883   1
  -4 -10  -3 1944.50 154.308   1
  -4 -10  -2 29.5127 34.6620   1
  -4 -10  -1 1674.33 143.879   1
  -4 -10   0-52.9056 53.0425   1
  -4 -10   1 1447.21 134.794   1
  -4 -10   2 54.4887 34.1008   1
  -4 -10   3 1915.46 153.513   1
   4 -10  -4 1376.45 68.2421   1
  -4 -10   4 1497.41 137.472   1
  -4 -10   5 2560.04 182.658   1
   4 -10  -5 2603.85 107.816   1
  -4 -10   6 1317.66 131.041   1
   4 -10  -6 1414.84 88.1090   1
   4 -10  -7 78.0786 25.5333   1
   4 -10  -9 101.228 49.3019   2
   4 -10 -10 70.9599 47.0333   2
   4 -10 -11 45.6555 37.5032   2
   4 -10 -12 344.144 91.0783   2
   4 -10 -13 59.5557 43.0443   2
   4 -10 -14 240.557 86.1784   2
  -4 -11 -14 220.848 73.1874   2
  -4 -11 -13 222.304 74.4483   2
  -4 -11 -12 276.659 81.4264   2
  -4 -11 -11 80.2736 59.4422   2
  -4 -11 -10 344.430 85.1124   2
  -4 -11  -9 10.7291 30.6779   2
  -4 -11  -8 535.575 95.9725   2
  -4 -11  -7 125.756 56.9119   1
  -4 -11  -7 58.7146 43.7389   2
  -4  11   6 88.2817 31.4931   2
  -4 -11  -6 127.997 54.3751   2
  -4 -11  -6 124.548 51.4974   1
  -4 -11  -5 2613.90 187.667   1
  -4 -11  -5 2488.65 198.009   2
  -4 -11  -4 599.941 95.2427   1
  -4 -11  -3 226.092 61.7322   1
  -4 -11  -2 1015.54 114.360   1
  -4 -11  -1-12.2623 36.6963   1
  -4 -11   0 477.521 82.2040   1
  -4 -11   1 38.4413 36.5723   1
  -4 -11   2 801.060 106.326   1
  -4 -11   3 386.815 73.5933   1
  -4 -11   4 619.713 92.4072   1
  -4 -11   5 2475.70 182.110   1
  -4 -11   6 113.068 47.2322   1
   4 -11  -7 36.9608 37.2219   2
   4 -11  -8 504.587 85.0704   2
   4 -11  -9 31.4096 34.1842   2
   4 -11 -10 395.039 87.4357   2
   4 -11 -11 25.4526 42.6828   2
   4 -11 -12 149.193 67.6876   2
   4 -11 -13 137.268 62.6589   2
   4 -11 -14 219.746 67.6819   2
   4 -11 -15 16.8123 46.3631   2
   4 -11 -16 56.5385 63.6764   2
  -4 -12 -13-178.440 73.7271   2
  -4 -12 -12 189.742 73.1344   2
  -4 -12 -11 64.5263 52.2959   2
  -4 -12 -10 108.359 50.6455   2
  -4 -12  -9 130.384 56.7047   2
  -4 -12  -8 322.129 79.4645   2
  -4 -12  -7 295.385 68.3953   1
  -4 -12  -7 197.500 61.7450   2
  -4 -12  -6 115.611 50.9233   1
  -4 -12  -6 104.051 52.7583   2
  -4 -12  -5 154.847 54.6686   1
  -4 -12  -5 128.275 52.7372   2
  -4 -12  -4 1578.80 147.629   1
  -4 -12  -3 674.885 97.5369   1
  -4 -12  -2 833.476 108.368   1
  -4 -12  -1 181.723 55.5059   1
  -4 -12   0 1101.09 121.954   1
  -4 -12   1 189.342 59.3304   1
  -4 -12   2 866.786 110.620   1
  -4 -12   3 662.109 97.2547   1
  -4 -12   4 1478.87 142.430   1
  -4 -12   5 82.2552 42.8250   1
  -4 -12   6 151.109 55.5733   1
   4 -12  -6 31.0263 28.5584   2
   4 -12  -7 319.513 69.6188   2
   4 -12  -8 274.385 65.3398   2
   4 -12  -9 181.689 57.1532   2
   4 -12 -10 61.7665 43.9880   2
   4 -12 -11 22.3642 52.1975   2
   4 -12 -12 133.434 60.2103   2
   4 -12 -13 8.90344 41.2825   2
   4 -12 -14 53.1808 48.0325   2
   4 -12 -15-24.9880 49.6471   2
   4 -12 -16 151.488 73.1167   2
  -4 -13 -12 33.1979 45.3869   2
  -4 -13 -11 98.3538 54.2590   2
  -4 -13 -10 68.4562 40.6111   2
  -4 -13  -9 212.703 73.3415   2
  -4 -13  -8 416.258 85.1177   1
  -4 -13  -8 495.038 102.659   2
  -4 -13  -7 152.823 60.5227   1
  -4 -13  -7 141.413 57.1402   2
  -4 -13  -6 326.027 80.2993   2
  -4 -13  -6 488.493 90.9143   1
  -4 -13  -5 446.285 83.3554   1
  -4 -13  -5 329.605 81.9766   2
  -4 -13  -4 390.727 79.5772   1
  -4 -13  -3 338.196 74.0918   1
  -4 -13  -2-30.8073 34.7109   1
  -4 -13  -1 353.189 71.3048   1
  -4 -13   0 595.716 94.4969   1
  -4 -13   1 273.664 67.4198   1
  -4 -13   2 18.8427 36.6122   1
  -4 -13   3 262.980 65.5716   1
  -4 -13   4 202.430 57.9049   1
  -4 -13   5 290.617 72.2092   1
  -4 -13   6 368.298 76.7204   1
   4 -13  -7 99.0224 45.5568   2
   4 -13  -8 248.878 61.8507   2
   4 -13  -9 126.564 49.1375   2
   4 -13 -10-33.1139 37.9343   2
   4 -13 -11-126.477 56.9831   2
   4 -13 -12 56.7124 38.3919   2
   4 -13 -13 71.4705 66.6899   2
   4 -13 -14 150.277 85.7558   2
  -4 -14 -10 470.520 104.139   2
  -4 -14  -9 43.8924 44.1660   1
  -4 -14  -9-64.4530 48.8889   2
  -4 -14  -8 74.1424 39.1946   1
  -4 -14  -8 78.4856 59.0456   2
  -4 -14  -7 163.458 59.8745   1
  -4 -14  -7 92.7515 53.0677   2
  -4 -14  -6 36.1742 40.7114   1
  -4 -14  -6 210.613 78.8599   2
  -4 -14  -5 537.971 93.5550   1
  -4 -14  -5 522.227 103.014   2
  -4 -14  -4 476.410 88.1844   1
  -4 -14  -3-9.66237 36.0719   1
  -4 -14  -2 287.466 73.1298   1
  -4 -14  -1 564.778 93.0175   1
  -4 -14   0 582.270 92.0545   1
  -4 -14   1 580.044 96.3724   1
  -4 -14   2 335.153 73.1740   1
  -4 -14   3 33.2600 41.8715   1
  -4 -14   4 528.148 92.1904   1
  -4 -14   5 456.783 84.9003   1
  -4 -14   6 5.02049 28.5129   1
  -4 -15  -9 93.0818 51.7925   1
  -4 -15  -9 72.7655 58.3518   2
  -4 -15  -8 34.9822 32.9597   1
  -4 -15  -8 103.689 55.1799   2
  -4 -15  -7 176.985 63.3937   1
  -4 -15  -7 188.730 66.0589   2
  -4 -15  -6 158.407 59.2237   1
  -4 -15  -6 108.254 56.2557   2
  -4 -15  -5 549.573 106.370   2
  -4 -15  -5 505.345 94.4446   1
  -4 -15  -4 397.986 89.9008   2
  -4 -15  -4 397.553 82.7589   1
  -4 -15  -3 403.056 81.9839   1
  -4 -15  -2 583.405 100.028   1
  -4 -15  -1 141.497 49.0075   1
  -4 -15   0 327.459 73.2705   1
  -4 -15   1 35.3423 31.6179   1
  -4 -15   2 551.503 93.5398   1
  -4 -15   3 518.188 93.4266   1
  -4 -15   4 465.269 89.4298   1
  -4 -15   5 482.836 88.5703   1
  -4 -15   6 213.974 65.2424   1
  -4 -16  -7 547.060 104.579   1
  -4 -16  -7 677.694 124.920   2
  -4 -16  -6 342.776 79.9786   1
  -4 -16  -6 366.293 97.2205   2
  -4 -16  -5 545.413 115.386   2
  -4 -16  -5 516.422 97.2500   1
  -4 -16  -4 402.458 85.1311   1
  -4 -16  -4 383.010 92.1341   2
  -4 -16  -3 731.766 113.994   1
  -4 -16  -2 273.407 70.6146   1
  -4 -16  -1 81.1541 51.2689   1
  -4 -16   0-30.4304 43.5441   1
  -4 -16   1 65.1165 43.9344   1
  -4 -16   2 225.346 66.2243   1
  -4 -16   3 799.857 116.307   1
  -4 -16   4 285.173 74.3911   1
  -4 -16   5 412.027 87.0320   1
  -4 -17  -5 469.632 96.6746   1
  -4 -17  -4 60.2651 48.4184   1
  -4 -17  -3 110.658 43.3884   1
  -4 -17  -2 176.472 61.2474   1
  -4 -17  -1 105.834 43.7874   1
  -4 -17   0 97.0859 50.3379   1
  -4 -17   1 103.410 45.3491   1
  -4 -17   2 118.914 54.4375   1
  -4 -17   3 172.769 61.7805   1
  -4 -17   4 174.533 65.2277   1
  -4 -17   5 559.798 100.894   1
  -4 -18  -1 142.475 57.3019   1
  -4 -18   0 60.7321 37.5398   1
  -4 -18   1-22.2378 30.1421   1
  -4 -18   2 33.0704 40.2686   1
  -5   0   0-57.3479 35.1063   1
  -5   0  -1 64.7547 36.9303   1
  -5   0   1 48.6875 29.6692   1
  -5   0   2 3804.93 187.677   1
  -5   0  -2 3920.09 185.168   1
  -5   0  -3 1936.25 131.734   1
  -5   0  -4-5.40032 31.3119   1
  -5   0   4 31.2187 34.6284   2
  -5   0  -5 2009.12 134.135   1
  -5   0   5 1547.57 150.250   2
  -5   0  -6 86.9028 38.9148   1
  -5   0   6 198.626 58.4671   2
  -5   0  -7 1191.49 104.322   2
  -5   0  -7 1373.23 115.982   1
  -5   0  -8 1492.97 121.275   2
  -5   0  -9 0.16261 26.5598   2
  -5   0 -10 53.8536 23.6810   2
  -5   0 -11-1.51568 30.5564   2
  -5   0 -12 61.8510 35.3127   2
  -5   0 -13 346.182 74.8155   2
  -5   0 -14 34.9631 37.2262   2
  -5   0 -15-14.2682 29.6125   2
  -5  -1 -16-7.46735 33.3612   2
  -5  -1 -15-6.02769 29.1392   2
  -5  -1 -14-3.33055 27.6081   2
  -5  -1 -13 145.099 53.8413   2
  -5  -1 -12 717.000 102.697   2
  -5  -1 -11 316.245 64.5396   2
  -5  -1 -10 65.7776 34.6903   2
  -5  -1  -9 825.644 97.7745   2
  -5  -1  -8 23.7247 29.1584   2
  -5  -1  -7 79.9361 36.2256   1
  -5  -1  -7 217.741 50.2053   2
  -5   1   6 1736.46 157.200   2
  -5  -1  -6 1503.89 124.452   1
  -5  -1  -6 1664.44 127.574   2
  -5  -1  -5 1911.73 136.369   1
  -5   1   5 2165.57 171.301   2
  -5  -1  -5 2026.27 136.517   2
  -5   1   4 4112.79 225.754   2
  -5  -1  -4 3878.97 184.385   2
  -5  -1  -4 3945.20 192.526   1
  -5   1   3 2758.16 180.810   2
  -5  -1  -3 2647.69 158.624   1
  -5   1   2 3221.43 166.407   1
  -5  -1  -2 3242.87 174.205   1
  -5   1   2 2951.81 178.809   2
  -5   1   1 1690.95 120.884   1
  -5  -1  -1 1455.43 118.003   1
  -5  -1   0-63.8564 39.7513   1
  -5   1   0-19.3259 37.3713   1
  -5  -1   1 1474.34 119.962   1
  -5   1  -1 1409.51 110.284   1
  -5  -1   2 3005.82 171.106   1
  -5   1  -2 3202.90 161.869   1
  -5  -1   3 2980.97 171.107   1
  -5   1  -3 2898.63 138.707   2
  -5   1  -3 2950.59 157.064   1
  -5   1  -4 4206.73 169.160   2
   5  -1  -4 3761.09 190.096   1
  -5   1  -4 4060.11 186.197   1
  -5   1  -5 2160.48 135.370   1
  -5  -1   5 1988.24 175.377   2
  -5   1  -5 2259.37 125.750   2
  -5   1  -6 1535.42 115.719   1
  -5   1  -7 170.344 43.7957   1
  -5   1  -9 714.133 81.9584   2
  -5   1 -10 10.2929 26.0180   2
  -5   1 -11 248.759 54.1502   2
  -5   1 -12 521.889 85.5758   2
  -5   1 -13 114.574 38.9187   2
  -5   1 -14 96.0650 46.4619   2
  -5  -2 -17-48.0273 43.3419   2
  -5  -2 -16 42.7456 42.8837   2
  -5  -2 -15 123.559 59.7689   2
  -5  -2 -14 1.34222 36.1263   2
  -5  -2 -13 287.345 76.0111   2
  -5  -2 -12 275.894 68.0890   2
  -5  -2 -11 37.9526 30.4670   2
  -5  -2 -10 81.4547 37.9677   2
  -5  -2  -9 854.207 104.907   2
  -5  -2  -8 625.377 86.4809   2
  -5   2   7 145.387 48.2203   2
  -5  -2  -7 168.241 48.0342   1
  -5  -2  -7 195.794 49.6249   2
  -5  -2  -6 67.8495 33.9795   1
  -5   2   6 87.3042 36.9133   2
  -5  -2  -6 162.470 46.2714   2
  -5  -2  -5 742.070 89.9038   1
  -5  -2  -5 702.469 85.8274   2
  -5   2   5 607.267 92.7823   2
  -5   2   4 1803.12 145.824   2
  -5  -2  -4 1867.45 135.206   2
  -5  -2  -4 1700.85 131.047   1
  -5   2   3 767.249 93.5965   2
  -5  -2  -3 705.410 86.0053   1
  -5   2   2 2924.91 170.104   2
  -5  -2  -2 2998.68 171.665   1
  -5   2   1 1382.27 105.745   1
  -5  -2  -1 1321.24 114.523   1
  -5   2   1 1310.07 113.718   2
  -5  -2   0-16.8484 39.1416   1
  -5   2   0 0.48773 33.6399   1
  -5  -2   1 1333.55 116.181   1
  -5   2  -1 1441.91 107.617   1
  -5  -2   2 2790.69 168.914   1
  -5   2  -2 2885.93 148.493   1
  -5   2  -3 740.068 76.3508   1
  -5   2  -3 718.325 64.8591   2
  -5  -2   3 749.313 91.5280   1
  -5   2  -4 2079.34 108.834   2
   5  -2  -4 1891.45 132.254   1
  -5   2  -4 2036.16 126.814   1
   5  -2  -5 706.839 84.2447   1
  -5   2  -5 737.219 67.3620   2
  -5   2  -5 687.186 76.3418   1
  -5   2  -6 136.677 33.7101   2
  -5   2  -6 207.561 46.2953   1
  -5   2  -7 198.012 41.3553   2
  -5   2  -7 179.178 43.6061   1
  -5   2  -8 583.028 67.4486   2
  -5   2 -11 79.6420 37.3631   2
  -5   2 -12 236.060 57.5236   2
  -5  -3 -17 51.3114 44.7595   2
  -5  -3 -16 141.125 63.9467   2
  -5  -3 -15 310.252 82.7164   2
  -5  -3 -14 46.3970 40.9745   2
  -5  -3 -13 181.311 62.2271   2
  -5  -3 -12 451.645 83.4312   2
  -5  -3 -11 1223.38 134.390   2
  -5  -3 -10-26.7277 34.2929   2
  -5  -3  -9 10.2104 34.7318   2
  -5  -3  -8 125.379 52.5747   2
  -5   3   7 363.329 74.6359   2
  -5  -3  -7 279.821 60.5548   1
  -5  -3  -7 273.375 58.1955   2
  -5   3   6 1019.55 116.840   2
  -5  -3  -6 1031.02 108.612   1
  -5  -3  -6 908.876 101.793   2
  -5   3   5 1630.14 139.128   2
  -5  -3  -5 1821.78 141.599   1
  -5  -3  -5 1846.09 141.926   2
  -5  -3  -4 353.965 63.8670   2
  -5   3   4 336.338 61.7978   2
  -5  -3  -4 427.676 67.3276   1
  -5   3   3 1536.19 123.205   2
  -5  -3  -3 1526.73 127.768   1
  -5  -3  -2 343.248 67.6708   1
  -5   3   2 421.831 61.7661   2
  -5  -3  -1 142.259 43.9602   1
  -5   3   1 141.795 34.9640   2
  -5  -3   0 0.31924 35.5366   1
  -5   3   0 42.1229 22.1662   1
  -5   3   0 52.2215 22.4479   2
  -5  -3   1 157.818 44.0766   1
  -5   3  -1 132.670 34.4045   1
  -5   3  -1 141.919 34.2003   2
  -5   3  -2 440.725 57.9551   1
  -5   3  -2 365.567 41.0804   2
  -5  -3   2 379.786 67.2857   1
  -5  -3   3 1861.79 143.476   1
  -5   3  -3 1647.27 108.178   1
  -5   3  -3 1679.87 84.8803   2
  -5  -3   4 356.754 68.4511   1
  -5   3  -4 491.182 60.7953   1
   5  -3  -4 429.386 64.5569   1
  -5   3  -4 406.015 42.6504   2
   5  -3  -5 1876.95 130.949   1
  -5   3  -5 2071.87 96.4563   2
  -5   3  -5 1776.97 114.798   1
  -5   3  -6 951.340 85.0262   1
  -5   3  -6 1000.03 70.2956   2
   5  -3  -6 851.168 92.1846   1
  -5   3  -7 334.949 45.2405   2
  -5   3  -7 298.212 51.6197   1
  -5   3  -8 175.845 40.9285   1
  -5   3  -8 201.507 39.5874   2
  -5   3  -9 42.4880 24.4804   2
  -5  -4 -17-35.7038 40.7231   2
  -5  -4 -16 43.6555 53.7673   2
  -5  -4 -15 306.481 91.1649   2
  -5  -4 -14-5.54297 39.2573   2
  -5  -4 -13 209.459 68.8650   2
  -5  -4 -12 121.191 52.2534   2
  -5  -4 -11 206.964 63.2947   2
  -5  -4 -10 41.2687 38.1715   2
  -5  -4  -9 414.515 78.9101   2
  -5   4   8 155.403 56.0648   2
  -5  -4  -8 148.726 51.7088   2
  -5   4   7 942.762 111.756   2
  -5  -4  -7 1016.57 113.291   2
  -5  -4  -7 1108.90 114.891   1
  -5  -4  -6 313.754 66.9119   1
  -5   4   6 145.681 48.8321   2
  -5  -4  -6 219.607 56.8615   2
  -5  -4  -5 440.046 72.1898   1
  -5   4   5 549.010 78.5229   2
  -5  -4  -5 469.764 77.1832   2
  -5   4   4 336.112 59.7297   2
  -5  -4  -4 301.020 61.7190   1
  -5  -4  -3 331.843 63.9957   1
  -5   4   3 300.354 51.3685   2
  -5  -4  -2 59.1562 34.9216   1
  -5   4   2 31.3911 19.2736   2
  -5   4   1 547.852 60.4330   2
  -5  -4  -1 461.544 75.5498   1
  -5  -4   0 26.0378 30.8679   1
  -5   4   0 34.8667 15.6852   2
  -5   4  -1 546.300 61.2247   1
  -5  -4   1 605.308 85.0620   1
  -5   4  -1 557.662 50.9791   2
  -5   4  -2 14.1514 10.0376   2
  -5   4  -2 17.8528 9.62094   2
  -5   4  -2-11.3438 20.6760   1
  -5  -4   2 61.0831 39.5369   1
  -5   4  -3 282.315 45.8511   1
  -5   4  -3 290.459 30.3352   2
  -5   4  -3 322.708 29.3606   2
  -5  -4   3 249.986 56.6085   1
  -5  -4   4 210.097 53.8211   1
   5  -4  -4 250.796 50.3188   1
  -5   4  -4 299.257 46.2574   1
  -5   4  -4 168.756 22.6257   2
  -5   4  -5 492.300 59.0563   1
   5  -4  -5 480.694 66.8647   1
  -5   4  -5 403.142 31.7696   2
  -5   4  -6 171.608 23.8766   2
   5  -4  -6 211.343 47.5225   1
  -5   4  -6 194.685 38.8680   1
  -5   4  -7 956.110 61.2282   2
  -5   4  -7 921.664 83.0538   1
  -5   4  -8 93.8503 24.0781   2
  -5   4  -8 133.370 35.0847   1
  -5   4  -9 497.812 56.3071   2
  -5  -5 -17 78.7993 63.8829   2
  -5  -5 -16 197.831 77.8789   2
  -5  -5 -15 68.3266 49.7690   2
  -5  -5 -14 73.4682 48.6986   2
  -5  -5 -13-54.9237 44.8373   2
  -5  -5 -12 79.6443 44.0452   2
  -5  -5 -11 146.319 59.0048   2
  -5  -5 -10 58.6970 43.5706   2
  -5  -5  -9 311.343 72.7139   2
  -5   5   8 138.967 52.3176   2
  -5  -5  -8 173.508 51.3164   2
  -5  -5  -7 1181.99 125.974   2
  -5  -5  -7 1043.28 114.141   1
  -5   5   7 1120.39 119.641   2
  -5  -5  -6 503.475 81.6574   1
  -5   5   6 488.723 73.7661   2
  -5  -5  -6 572.272 89.0681   2
  -5  -5  -5 631.132 89.8187   1
  -5  -5  -5 615.120 90.5212   2
  -5   5   5 732.224 86.7381   2
  -5   5   4 39.1630 27.1949   2
  -5  -5  -4 46.0875 35.1463   1
  -5   5   3 110.494 28.2887   2
  -5  -5  -3 72.4915 36.7862   1
  -5  -5  -2 36.2962 30.8269   1
  -5   5   2 37.6125 20.8702   2
  -5   5   1 285.187 37.7526   2
  -5  -5  -1 297.226 64.5181   1
  -5  -5   0 988.969 107.223   1
  -5   5   0 1073.21 59.6368   2
  -5  -5   1 288.462 61.0632   1
  -5   5  -1 231.994 19.0190   2
  -5   5  -2 43.7678 18.1779   1
  -5  -5   2 89.8278 42.8675   1
  -5  -5   3 104.575 47.4161   1
  -5   5  -3 76.5420 23.8812   1
  -5   5  -4 51.2417 24.4120   1
  -5  -5   4-2.24372 36.0649   1
   5  -5  -4 36.8194 23.0114   1
  -5  -5   5 682.156 93.9345   1
   5  -5  -5 597.686 71.3973   1
  -5   5  -5 682.284 65.1608   1
   5  -5  -6 537.983 69.9048   1
  -5   5  -6 598.851 62.5811   1
  -5   5  -7 1118.00 84.8526   1
   5  -5  -7 1114.68 105.643   1
  -5   5  -8 109.871 29.1971   1
  -5  -6 -17 97.1703 78.3250   2
  -5  -6 -16 138.439 62.1848   2
  -5  -6 -15-133.668 61.8186   2
  -5  -6 -14 24.9215 47.0097   2
  -5  -6 -13 157.468 69.0286   2
  -5  -6 -12 165.953 59.7914   2
  -5  -6 -11 42.5573 36.1731   2
  -5  -6 -10 559.467 98.0091   2
  -5  -6  -9 452.367 87.8327   2
  -5  -6  -8-18.2991 33.5666   1
  -5  -6  -8 5.56829 31.3265   2
  -5  -6  -7 208.381 59.9906   1
  -5   6   7 142.899 41.4697   2
  -5  -6  -7 199.261 61.1355   2
  -5   6   6 362.927 63.7242   2
  -5  -6  -6 425.422 84.7190   2
  -5  -6  -6 376.600 73.4695   1
  -5   6   5 265.775 48.5939   2
  -5  -6  -5 219.640 60.5021   1
  -5  -6  -5 324.346 71.0360   2
  -5   6   4 529.095 64.0944   2
  -5  -6  -4 614.097 90.2923   1
  -5  -6  -3 832.035 102.469   1
  -5   6   3 670.920 63.4518   2
  -5  -6  -2 923.403 107.674   1
  -5   6   2 849.046 62.8407   2
  -5  -6  -1 1007.56 111.428   1
  -5   6   1 884.257 50.2840   2
  -5  -6   0 52.5782 36.9971   1
  -5  -6   1 1095.53 116.833   1
  -5  -6   2 795.037 102.009   1
  -5   6  -3 774.119 63.4429   1
  -5  -6   3 636.742 92.4711   1
   5  -6  -4 421.453 55.6213   1
  -5   6  -4 464.047 49.7512   1
  -5  -6   4 443.805 78.7832   1
  -5  -6   5 233.352 57.9159   1
   5  -6  -5 281.045 49.2879   1
  -5   6  -5 301.284 42.1568   1
  -5   6  -6 423.459 49.3880   1
   5  -6  -6 312.750 53.6775   1
   5  -6  -7 116.844 36.8089   1
  -5   6  -7 197.979 37.4347   1
  -5   6  -8 29.7916 18.2047   1
  -5   6  -9 275.773 42.9449   1
  -5  -7 -16-11.8805 38.7973   2
  -5  -7 -15-34.1073 40.3639   2
  -5  -7 -14 77.9564 46.6099   2
  -5  -7 -13 10.1680 35.4789   2
  -5  -7 -12 23.1680 33.8627   2
  -5  -7 -11 248.431 74.9580   2
  -5  -7 -10 47.7092 41.2468   2
  -5  -7  -9 137.889 61.8679   2
  -5  -7  -8 918.983 119.837   2
  -5  -7  -8 916.243 114.027   1
  -5  -7  -7 1603.98 155.614   2
  -5  -7  -7 1346.21 135.597   1
  -5  -7  -6 674.149 101.420   2
  -5  -7  -6 764.694 102.648   1
  -5  -7  -5 828.111 106.423   1
  -5  -7  -5 772.544 108.203   2
  -5   7   5 816.223 81.4466   2
  -5  -7  -4 123.075 50.7181   1
  -5   7   4 146.574 34.0141   2
  -5  -7  -3 15.2627 38.1215   1
  -5   7   3 62.5955 20.6023   2
  -5   7   2 852.758 51.9392   2
  -5  -7  -2 985.971 114.414   1
  -5  -7  -1 377.608 72.4582   1
  -5  -7   0 93.5691 43.3281   1
  -5  -7   1 546.193 85.9789   1
  -5  -7   2 943.411 110.826   1
  -5  -7   3 53.0273 34.4715   1
  -5   7  -4 82.9274 21.3427   1
  -5  -7   4 134.599 50.3938   1
  -5  -7   5 853.512 107.082   1
  -5   7  -5 842.658 59.5478   1
   5  -7  -5 811.486 77.2041   1
  -5   7  -6 737.386 58.5626   1
  -5   7  -7 1245.96 79.2137   1
  -5   7  -8 898.589 69.3249   1
  -5   7  -9 121.887 30.8580   1
  -5  -8 -15 105.192 58.9379   2
  -5  -8 -14 38.3952 42.2688   2
  -5  -8 -13 114.517 63.4548   2
  -5  -8 -12 168.045 72.3768   2
  -5  -8 -11 43.8074 46.0851   2
  -5  -8 -10-36.8877 42.0403   2
  -5  -8  -9 580.337 103.427   2
  -5  -8  -8 758.342 106.000   1
  -5  -8  -8 432.921 91.3548   2
  -5  -8  -7 372.132 76.6878   1
  -5  -8  -7 195.059 60.9841   2
  -5  -8  -6 482.614 88.6526   1
  -5  -8  -6 326.964 75.2824   2
  -5  -8  -5 30.5512 36.8673   1
  -5  -8  -5 53.6707 37.4726   2
  -5  -8  -4 521.376 85.3272   1
  -5  -8  -3 707.936 99.7216   1
  -5  -8  -2 2091.10 168.596   1
  -5  -8  -1 231.567 60.9217   1
  -5  -8   0 500.866 84.0950   1
  -5  -8   1 129.647 49.0062   1
  -5  -8   2 1747.53 153.246   1
  -5  -8   3 942.572 113.856   1
  -5  -8   4 549.643 90.7270   1
  -5  -8   5 52.7394 42.9820   1
  -5  -9 -14-73.4560 54.4840   2
  -5  -9 -13 25.9004 47.0067   2
  -5  -9 -12 196.506 69.6670   2
  -5  -9 -11 162.840 68.2091   2
  -5  -9 -10 48.5913 43.1465   2
  -5  -9  -9 76.7510 47.3433   1
  -5  -9  -9 71.3665 42.7350   2
  -5  -9  -8 1797.41 177.849   2
  -5  -9  -8 1945.35 170.898   1
  -5  -9  -7 1327.13 141.111   1
  -5  -9  -7 1409.74 153.734   2
  -5  -9  -6 247.064 68.2539   1
  -5  -9  -6 207.759 72.1497   2
  -5  -9  -5 111.224 49.5498   1
  -5  -9  -5 9.39807 35.2719   2
  -5  -9  -4 814.647 109.000   1
  -5  -9  -3 292.371 68.7442   1
  -5  -9  -2 401.344 81.5936   1
  -5  -9  -1 13.9771 48.5422   1
  -5  -9   0 727.764 103.136   1
  -5  -9   1 56.2495 41.4715   1
  -5  -9   2 394.044 80.9339   1
  -5  -9   3 386.067 77.1163   1
  -5  -9   4 601.279 95.4784   1
  -5  -9   5 15.2093 29.8297   1
  -5 -10 -13 272.184 90.6639   2
  -5 -10 -12 254.283 84.3590   2
  -5 -10 -11 30.8855 38.6959   2
  -5 -10 -10 45.4488 47.7606   2
  -5 -10  -9 68.3834 46.0863   2
  -5 -10  -9 51.7121 37.3072   1
  -5 -10  -8 309.081 73.3546   1
  -5 -10  -8 190.204 67.5925   2
  -5 -10  -7 88.3956 53.8086   2
  -5 -10  -7 114.913 57.0204   1
  -5 -10  -6 59.2245 40.6227   1
  -5 -10  -6 94.5081 53.0130   2
  -5 -10  -5 162.303 55.3721   2
  -5 -10  -5 241.369 64.6075   1
  -5 -10  -4 353.887 74.2239   1
  -5 -10  -3 54.4405 39.9806   1
  -5 -10  -2 54.3746 38.6904   1
  -5 -10  -1 84.5557 44.9602   1
  -5 -10   0 59.7704 46.9122   1
  -5 -10   1 80.4837 41.2071   1
  -5 -10   2 90.1109 43.8829   1
  -5 -10   3 130.405 55.6565   1
  -5 -10   4 358.137 75.6725   1
  -5 -10   5 163.348 55.2382   1
  -5 -11 -12 64.4391 53.9984   2
  -5 -11 -11 97.3532 65.4416   2
  -5 -11 -10 109.659 56.8806   1
  -5 -11 -10 99.3794 48.3910   2
  -5 -11  -9 165.568 59.8649   1
  -5 -11  -9 87.0354 46.1528   2
  -5 -11  -8 215.843 67.0953   1
  -5 -11  -8 226.664 75.9429   2
  -5 -11  -7 1.51621 35.4102   1
  -5 -11  -7 94.9877 50.4343   2
  -5 -11  -6 198.898 62.5251   1
  -5 -11  -6 2.85965 37.3978   2
  -5 -11  -5 157.785 59.2662   2
  -5 -11  -5 237.255 62.5393   1
  -5 -11  -4 404.477 84.7633   1
  -5 -11  -3 164.632 57.5820   1
  -5 -11  -2-18.0918 43.5310   1
  -5 -11  -1 7.52957 29.0802   1
  -5 -11   0 273.225 70.7792   1
  -5 -11   1 22.1530 30.2712   1
  -5 -11   2 42.7611 40.1520   1
  -5 -11   3 215.127 65.1246   1
  -5 -11   4 404.641 82.6391   1
  -5 -11   5 228.123 61.0891   1
  -5 -11   6 99.6866 44.8270   1
  -5 -12 -10 101.144 53.2863   2
  -5 -12  -9 106.315 42.4707   1
  -5 -12  -9 60.2990 50.1921   2
  -5 -12  -8 284.917 83.5996   2
  -5 -12  -8 153.440 59.6309   1
  -5 -12  -7 34.7447 47.3798   1
  -5 -12  -7 129.313 64.8163   2
  -5 -12  -6 167.286 59.7267   1
  -5 -12  -6 40.1339 28.0603   2
  -5 -12  -5 114.703 55.6984   2
  -5 -12  -5 13.9874 35.9579   1
  -5 -12  -4-22.8883 35.6387   1
  -5 -12  -3 112.437 55.8830   1
  -5 -12  -2 87.3553 44.6421   1
  -5 -12  -1 435.499 87.8793   1
  -5 -12   0-5.86346 33.6225   1
  -5 -12   1 318.666 75.2305   1
  -5 -12   2 133.840 53.6940   1
  -5 -12   3 116.655 52.1335   1
  -5 -12   4-10.1466 34.5329   1
  -5 -12   5 27.9397 43.4979   1
  -5 -12   6 55.4151 39.7247   1
  -5 -13  -8 77.7652 53.4148   2
  -5 -13  -7 139.883 53.2276   1
  -5 -13  -7 187.581 73.2133   2
  -5 -13  -6-17.5035 36.4243   2
  -5 -13  -6 71.7960 46.3307   1
  -5 -13  -5 165.044 64.7387   2
  -5 -13  -5 94.9837 41.7240   1
  -5 -13  -4 205.468 68.4190   1
  -5 -13  -3 327.360 75.8734   1
  -5 -13  -2 120.268 58.3614   1
  -5 -13  -1 105.657 48.3067   1
  -5 -13   0 34.2223 33.6902   1
  -5 -13   1 86.4290 46.9966   1
  -5 -13   2-34.8105 37.7432   1
  -5 -13   3 306.819 74.1954   1
  -5 -13   4 274.071 74.4275   1
  -5 -13   5 120.029 56.6542   1
  -5 -13   6 48.6674 38.9235   1
  -5 -14  -6 82.2788 54.0277   2
  -5 -14  -5 91.6122 50.3937   1
  -5 -14  -5 65.8402 51.0933   2
  -5 -14  -4 243.807 71.3156   1
  -5 -14  -4 148.685 62.5685   2
  -5 -14  -3 22.3159 34.9733   1
  -5 -14  -2 135.465 55.0908   1
  -5 -14  -1 92.9054 44.7976   1
  -5 -14   0-2.93655 35.6997   1
  -5 -14   1-12.5973 35.7871   1
  -5 -14   2 102.081 50.3198   1
  -5 -14   3-24.6858 42.2151   1
  -5 -14   4 251.768 70.4709   1
  -5 -14   5 66.3262 40.5676   1
  -5 -15   0 232.441 73.5145   1
  -5 -15   1 49.5453 42.3172   1
  -6   0   0 260.189 56.9722   1
  -6   0   1 2427.67 165.237   1
  -6   0  -1 2471.64 163.546   1
  -6   0  -2 171.847 49.6125   1
  -6   0  -3 1507.46 127.242   1
  -6   0  -3 1563.67 118.628   2
  -6   0  -4 116.683 37.8584   2
  -6   0  -4 61.1205 29.7877   1
  -6   0  -5 353.919 64.2601   1
  -6   0  -5 274.084 52.1762   2
  -6   0  -6 21.9584 25.3910   1
  -6   0  -6 76.3543 33.6483   2
  -6   0  -7 142.436 41.2196   1
  -6   0  -7 133.957 40.4193   2
  -6   0  -8 176.203 49.9343   1
  -6   0  -9 179.442 51.3580   1
  -6   0 -10 106.137 36.9376   1
  -6   0 -11 104.254 41.7233   1
  -6  -1 -11 144.886 50.8381   1
  -6  -1 -10 270.182 62.7583   1
  -6  -1  -9 247.617 58.6242   2
  -6  -1  -9 277.335 63.1732   1
  -6  -1  -8 37.8559 24.6900   1
  -6  -1  -8 62.0134 39.0364   2
  -6  -1  -7-3.15639 24.8930   2
  -6  -1  -7 19.5570 24.1434   1
  -6  -1  -6 269.495 57.1919   1
  -6  -1  -6 302.194 59.2546   2
  -6  -1  -5 496.255 77.8248   1
  -6  -1  -5 475.596 71.6231   2
  -6  -1  -4 5.90110 21.3454   2
  -6  -1  -4 70.2542 36.4661   1
  -6  -1  -3 40.6388 27.2561   2
  -6  -1  -3 84.3787 40.5020   1
  -6  -1  -2 196.026 52.7204   1
  -6   1   1 566.325 80.7013   1
  -6  -1  -1 621.615 90.5463   1
  -6   1   0 305.574 59.1753   1
  -6  -1   0 275.125 59.6203   1
  -6  -1   1 448.280 77.0430   1
  -6   1  -1 487.677 73.9397   1
  -6   1  -2 309.272 58.5549   1
  -6  -1   2 294.718 63.5841   1
  -6   1  -3 25.5616 26.2262   1
  -6   1  -4 27.5558 26.7510   1
  -6   1  -5 496.464 73.3377   1
  -6   1  -6 312.606 61.6811   1
  -6   1  -7 29.8260 24.6538   1
  -6   1  -8 92.7003 35.2848   1
  -6   1  -9 269.312 55.9666   1
  -6   1 -10 199.591 51.2569   1
  -6   1 -11 80.1361 36.7380   1
  -6  -2 -11 82.8081 35.0103   1
  -6  -2 -10 97.5994 42.8171   2
  -6  -2 -10 100.878 43.6659   1
  -6  -2  -9 50.8267 36.7000   1
  -6  -2  -9 36.4179 30.2233   2
  -6  -2  -8 641.758 91.1355   1
  -6  -2  -8 579.028 88.5326   2
  -6  -2  -7 85.8971 35.2203   2
  -6  -2  -7 61.1841 35.7075   1
  -6  -2  -6 49.8870 32.1983   1
  -6  -2  -6 3.86305 21.8080   2
  -6  -2  -5 221.547 57.8866   1
  -6  -2  -5 224.574 53.0063   2
  -6  -2  -4-28.0986 33.8906   1
  -6  -2  -4 5.42496 26.7104   2
  -6  -2  -3 94.1362 44.1569   1
  -6  -2  -2 329.220 64.9095   1
  -6  -2  -1 967.781 109.947   1
  -6   2   0 2271.98 148.325   1
  -6  -2   0 2171.54 162.560   1
  -6   2  -1 891.985 94.0840   1
  -6  -2   1 960.883 109.682   1
  -6  -2   2 342.901 69.2087   1
  -6   2  -2 276.369 56.0496   1
  -6  -2   3 22.6641 36.7587   1
  -6   2  -3 23.5450 26.4909   1
  -6   2  -3 49.3380 24.4412   2
  -6   2  -4 0.14998 23.8642   1
  -6   2  -5 171.783 43.8496   1
  -6   2  -6-0.46367 22.6397   1
  -6   2  -7 52.1191 29.5287   1
  -6   2  -8 502.185 74.1694   1
  -6   2  -9 45.5381 29.1910   1
  -6   2 -10 113.797 40.4724   1
  -6   2 -11 88.4259 34.8289   1
  -6   2 -12 10.4884 18.1773   1
  -6  -3 -11 145.895 51.3900   2
  -6  -3 -11 319.523 69.2772   1
  -6  -3 -10 145.163 49.8916   2
  -6  -3 -10 65.1770 33.0723   1
  -6  -3  -9 552.498 88.7924   1
  -6  -3  -9 612.278 94.8379   2
  -6  -3  -8 115.626 51.6497   1
  -6  -3  -8 115.696 49.8179   2
  -6  -3  -7 19.4024 26.0815   1
  -6  -3  -7-41.7450 36.6355   2
  -6  -3  -6 92.7501 43.9526   1
  -6  -3  -6 87.8657 37.0355   2
  -6  -3  -5 63.6590 37.1526   1
  -6  -3  -5 71.1346 36.9070   2
  -6  -3  -4 552.475 85.1293   1
  -6  -3  -4 378.598 68.6162   2
  -6  -3  -3-13.0193 26.9270   1
  -6  -3  -2 621.075 92.1553   1
  -6  -3  -1 1490.28 137.779   1
  -6  -3   0 1706.09 147.304   1
  -6   3  -1 1526.30 117.541   1
  -6  -3   1 1335.09 132.510   1
  -6   3  -2 887.503 90.1374   1
  -6  -3   2 659.332 97.4294   1
  -6  -3   3-22.8338 46.1099   1
  -6   3  -3 4.34257 20.8817   1
  -6   3  -4 494.680 68.4577   1
  -6   3  -5 27.6283 26.1135   1
  -6   3  -6 61.5234 30.0417   1
  -6   3  -7 11.3294 19.9796   1
  -6   3  -8 225.300 49.7238   1
  -6   3  -9 465.584 67.2907   1
  -6   3 -10 98.8930 37.2274   1
  -6   3 -11 128.359 42.0256   1
  -6  -4 -12 378.041 92.9290   2
  -6  -4 -11 55.6124 35.5472   1
  -6  -4 -11 56.1938 40.5316   2
  -6  -4 -10 18.0820 35.8736   1
  -6  -4 -10-29.7178 35.0891   2
  -6  -4  -9 307.024 69.0304   1
  -6  -4  -9 317.359 77.5182   2
  -6  -4  -8 179.142 56.0322   1
  -6  -4  -8 147.636 50.9131   2
  -6  -4  -7 143.729 47.5783   1
  -6  -4  -7 78.3256 39.5374   2
  -6  -4  -6 100.472 45.5960   1
  -6  -4  -6 85.4342 33.0453   2
  -6  -4  -5 51.8165 36.3662   1
  -6  -4  -5 86.6952 40.7350   2
  -6  -4  -4 90.6925 41.0663   1
  -6  -4  -4 28.9536 29.6988   2
  -6  -4  -3 271.994 65.1722   1
  -6  -4  -2 186.592 56.6222   1
  -6  -4  -1 1390.90 134.928   1
  -6  -4   0 23.5018 33.9786   1
  -6  -4   1 1159.71 126.401   1
  -6   4  -2 196.374 43.7979   1
  -6  -4   2 230.714 63.0157   1
  -6  -4   3 235.278 60.4084   1
  -6   4  -3 169.027 40.9906   1
  -6   4  -4-13.7367 24.2463   1
  -6   4  -5 42.4340 25.7717   1
  -6   4  -6 113.829 37.1376   1
  -6   4  -7 67.0347 30.4149   1
  -6   4  -8 102.138 30.2075   1
  -6  -5 -13-183.594 65.0424   2
  -6  -5 -12 77.0416 48.0962   2
  -6  -5 -11 183.333 73.5228   2
  -6  -5 -11 255.607 67.4004   1
  -6  -5 -10-38.5655 37.6391   1
  -6  -5 -10-4.87798 44.7377   2
  -6  -5  -9 600.847 95.4531   1
  -6  -5  -9 480.265 91.4879   2
  -6  -5  -8 131.075 49.9079   1
  -6  -5  -8 167.109 53.2376   2
  -6  -5  -7 198.527 58.1854   1
  -6  -5  -7 109.851 43.7322   2
  -6  -5  -6 108.105 40.7502   2
  -6  -5  -6 80.3387 48.0724   1
  -6  -5  -5-17.8761 30.7179   1
  -6  -5  -5 22.3291 28.4114   2
  -6  -5  -4 78.4205 34.8079   1
  -6  -5  -4 41.5914 33.4234   2
  -6  -5  -3 246.086 59.7638   1
  -6  -5  -2 661.785 98.5876   1
  -6  -5  -1 593.081 92.6119   1
  -6  -5   0 630.797 94.6184   1
  -6  -5   1 782.634 107.470   1
  -6  -5   2 695.893 103.632   1
  -6   5  -3 254.169 46.7432   1
  -6  -5   3 248.616 60.9524   1
  -6  -5   4 5.60921 32.8150   1
  -6   5  -4 2.45885 19.3992   1
  -6   5  -5-5.89191 16.9930   1
  -6  -6 -14-196.033 70.5963   2
  -6  -6 -13 8.85167 29.3877   2
  -6  -6 -12 446.353 102.218   2
  -6  -6 -11 168.366 53.1203   1
  -6  -6 -11 78.7054 45.6281   2
  -6  -6 -10-32.3106 30.6834   1
  -6  -6 -10-2.55575 31.1576   2
  -6  -6  -9 53.2863 40.6601   1
  -6  -6  -9 36.7339 40.6109   2
  -6  -6  -8 123.643 52.4329   1
  -6  -6  -8 118.062 55.0888   2
  -6  -6  -7 21.3776 27.7545   1
  -6  -6  -7 13.3391 30.8216   2
  -6  -6  -6 57.0296 38.1643   2
  -6  -6  -6 23.1875 31.8161   1
  -6  -6  -5 21.2462 34.6968   1
  -6  -6  -5 17.5726 31.1044   2
  -6  -6  -4 40.9134 31.5638   1
  -6  -6  -4 1.37677 28.5043   2
  -6  -6  -3 97.8534 48.4223   1
  -6  -6  -2 59.9566 39.2507   1
  -6  -6  -1 190.771 58.7904   1
  -6  -6   0 332.076 75.3275   1
  -6  -6   1 305.504 73.1229   1
  -6  -6   2 16.4722 30.2560   1
  -6  -6   3 40.7381 42.0593   1
  -6  -6   4-6.99419 33.0671   1
  -6  -7 -13 161.733 70.5786   2
  -6  -7 -12 78.9933 51.6297   2
  -6  -7 -11 386.386 97.7597   2
  -6  -7 -10 251.193 67.8499   1
  -6  -7 -10 104.824 58.9688   2
  -6  -7  -9-4.55734 26.8252   1
  -6  -7  -9-0.28758 33.7770   2
  -6  -7  -8 254.765 68.4695   1
  -6  -7  -8 243.883 67.6299   2
  -6  -7  -7 34.7253 40.8742   2
  -6  -7  -7 51.5012 38.4475   1
  -6  -7  -6-79.7296 45.7521   2
  -6  -7  -6 58.9052 38.8089   1
  -6  -7  -5 259.266 68.8048   1
  -6  -7  -5 227.521 67.6247   2
  -6  -7  -4 167.961 53.7462   1
  -6  -7  -4 96.8684 43.5566   2
  -6  -7  -3 392.668 80.6500   1
  -6  -7  -2 142.666 54.9306   1
  -6  -7  -1 10.7341 29.8483   1
  -6  -7   0 470.473 84.9422   1
  -6  -7   1 85.8908 49.4820   1
  -6  -7   2 126.092 50.2450   1
  -6  -7   3 322.992 76.9133   1
  -6  -7   4 59.2939 40.1096   1
  -6  -8 -13 139.260 63.5526   2
  -6  -8 -12 62.7225 58.9423   2
  -6  -8 -11 65.2886 56.1739   2
  -6  -8 -10 86.6394 48.4483   2
  -6  -8  -9-2.64160 29.5050   1
  -6  -8  -9-102.804 54.5530   2
  -6  -8  -8 149.108 60.7362   1
  -6  -8  -8 177.235 64.9537   2
  -6  -8  -7 29.1049 39.6650   2
  -6  -8  -7 107.590 51.7001   1
  -6  -8  -6 8.60896 27.7202   1
  -6  -8  -6-41.6140 36.4439   2
  -6  -8  -5 32.2744 36.2417   1
  -6  -8  -5 20.2636 39.0137   2
  -6  -8  -4 85.0893 45.0218   1
  -6  -8  -4-125.241 52.7524   2
  -6  -8  -3 70.6236 39.9808   1
  -6  -8  -2 261.651 72.3362   1
  -6  -8  -1 469.849 90.6129   1
  -6  -8   0 136.138 52.2358   1
  -6  -8   1 407.497 83.3913   1
  -6  -8   2 284.125 71.4352   1
  -6  -8   3-26.7837 32.3451   1
  -6  -8   4 23.2554 28.3776   1
  -6  -8   5 4.33571 25.6990   1
  -6  -9 -11 149.398 70.9253   2
  -6  -9 -10 4.64745 27.1621   2
  -6  -9  -9 33.2219 38.3473   2
  -6  -9  -8 15.5802 33.6189   2
  -6  -9  -7 16.3877 37.8194   2
  -6  -9  -7-20.9233 40.3518   1
  -6  -9  -6 98.5765 46.1928   1
  -6  -9  -6 204.325 66.7134   2
  -6  -9  -5 22.4456 27.2183   1
  -6  -9  -5 83.0673 47.5352   2
  -6  -9  -4 168.480 60.2745   1
  -6  -9  -4 15.2520 35.0631   2
  -6  -9  -3 312.633 78.6293   1
  -6  -9  -2 44.4765 40.3102   1
  -6  -9  -1 216.212 65.3323   1
  -6  -9   0-13.9924 29.4913   1
  -6  -9   1 182.869 56.9437   1
  -6  -9   2-22.7270 39.2670   1
  -6  -9   3 289.056 77.7430   1
  -6  -9   4 67.4524 44.9275   1
  -6  -9   5 14.0528 37.8686   1
  -6 -10 -10 6.94394 25.6444   2
  -6 -10  -9-13.6345 37.5076   2
  -6 -10  -8-12.8505 30.6358   2
  -6 -10  -7 145.528 66.9618   2
  -6 -10  -6 23.8372 34.7152   1
  -6 -10  -6-6.67984 32.8035   2
  -6 -10  -5 32.4985 43.7279   1
  -6 -10  -5 48.9945 39.7667   2
  -6 -10  -4 67.9240 33.6410   1
  -6 -10  -4-75.0726 47.9430   2
  -6 -10  -3 74.9673 42.5627   1
  -6 -10  -2 356.421 83.5542   1
  -6 -10  -1 158.389 63.1865   1
  -6 -10   0 10.3406 28.9351   1
  -6 -10   1 284.034 75.9872   1
  -6 -10   2 167.540 66.1282   1
  -6 -10   3 53.3105 42.1252   1
  -6 -10   4-6.32639 39.1025   1
  -6 -10   5 56.7462 43.0258   1
  -6 -11  -8 125.165 67.9752   2
  -6 -11  -7 85.8970 56.7380   2
  -6 -11  -6 47.6055 48.0216   2
  -6 -11  -5 23.4575 33.0839   2
  -6 -11  -4 19.7118 40.1465   2
  -6 -11  -3 43.2383 46.3038   1
  -6 -11  -2 45.1057 40.4111   1
  -6 -11  -1 71.7786 38.4546   1
  -6 -11   0 236.704 72.7943   1
  -6 -11   1 176.691 62.6495   1
  -6 -11   2-16.2358 36.9747   1
  -6 -12  -5 46.7381 40.1218   2
  -6 -12  -4 88.1714 44.8884   2
  -7   0   0-7.20954 29.8302   1
  -7   0  -1 16.8183 28.8790   1
  -7   0  -2 27.0774 24.3583   1
  -7   0  -3-40.3481 32.7660   1
  -7   0  -4-10.4243 26.6104   1
  -7   0  -5 150.109 51.1161   1
  -7   0  -6 18.0049 24.1125   1
  -7   0  -7 40.4324 30.8796   1
  -7   0  -8 83.8917 38.5443   1
  -7  -1 -10 12.7486 24.1639   1
  -7  -1  -9-107.405 43.5605   1
  -7  -1  -8 50.5528 33.8786   1
  -7  -1  -7 73.4860 41.2831   1
  -7  -1  -6 79.5534 36.1451   1
  -7  -1  -5 13.7438 32.7099   1
  -7  -1  -4 32.9178 32.8337   1
  -7  -1  -3 14.6311 26.8990   1
  -7  -1  -2 183.649 57.9464   1
  -7  -1  -1 57.9654 36.6898   1
  -7  -1   0 2.62114 29.5249   1
  -7  -1   1 55.7149 39.4283   1
  -7   1  -1-0.58223 34.1197   1
  -7   1  -2 66.1987 32.2760   1
  -7   1  -3 36.0739 33.2841   1
  -7   1  -4 11.0250 25.3110   1
  -7   1  -5 15.7296 25.0377   1
  -7   1  -6 133.192 43.7117   1
  -7  -2 -10 38.3582 30.2438   1
  -7  -2  -9-10.5586 34.0322   1
  -7  -2  -8-32.0094 30.6988   1
  -7  -2  -7 6.35498 25.8392   1
  -7  -2  -6 212.597 61.1466   1
  -7  -2  -5 55.5291 36.7133   1
  -7  -2  -4 63.9703 39.5460   1
  -7  -2  -3 9.33968 31.6188   1
  -7  -2  -2 292.252 68.8518   1
  -7  -2  -1 41.1765 35.7244   1
  -7  -2   0 29.3234 30.1187   1
  -7  -2   1 9.15543 28.1895   1
  -7   2  -2 319.740 61.7985   1
  -7  -3 -10 6.75103 23.0438   1
  -7  -3  -9-48.4426 33.5265   1
  -7  -3  -8 140.212 51.5532   1
  -7  -3  -7 104.631 45.3869   1
  -7  -3  -6-10.8557 27.1414   1
  -7  -3  -5 248.261 65.1441   1
  -7  -3  -4 766.453 106.873   1
  -7  -3  -3 3.95357 32.4085   1
  -7  -3  -2 44.7683 37.2671   1
  -7  -3  -1 3.77408 37.3749   1
  -7  -3   0-39.5479 41.9110   1
  -7  -3   1-6.98017 33.2192   1
  -7  -3   2 119.921 50.7565   1
  -7  -4  -8-10.7828 28.7651   1
  -7  -4  -7 116.887 47.7211   1
  -7  -4  -6 111.049 54.3274   1
  -7  -4  -5 189.630 61.3970   1
  -7  -4  -4 151.619 54.9341   1
  -7  -4  -4 63.0393 40.0388   2
  -7  -4  -3 77.6557 39.6400   1
  -7  -4  -3 78.5498 39.8140   2
  -7  -4  -2 17.5141 35.7874   1
  -7  -4  -1-3.93248 37.2423   1
  -7  -4   0 253.625 66.0248   1
  -7  -4   1-84.5565 45.2026   1
  -7  -4   2 56.3796 39.1827   1
  -7  -5  -7 14.8230 31.1098   1
  -7  -5  -6 100.362 48.2464   1
  -7  -5  -5 257.655 66.4714   2
  -7  -5  -5 431.330 89.2363   1
  -7  -5  -4 462.946 89.3092   1
  -7  -5  -4 412.226 84.7785   2
  -7  -5  -3 372.983 78.4281   1
  -7  -5  -3 324.187 75.7485   2
  -7  -5  -2 68.3693 44.0140   1
  -7  -5  -1-92.2281 47.5955   1
  -7  -5   0 69.1918 39.1362   1
  -7  -5   1-98.1666 46.8690   1
  -7  -5   2 37.6342 27.4283   1
  -7  -5   3 312.723 79.1312   1
  -7  -6  -6 145.951 55.5479   2
  -7  -6  -5 169.710 61.4839   2
  -7  -6  -5 162.674 58.6912   1
  -7  -6  -4 77.8934 43.2658   1
  -7  -6  -4 36.9128 33.3323   2
  -7  -6  -3 109.286 52.7483   1
  -7  -6  -3 33.4310 30.0666   2
  -7  -6  -2 128.473 54.3514   1
  -7  -6  -1 32.5040 27.1710   1
  -7  -6   0 119.550 54.1404   1
  -7  -6   1-64.4652 44.4412   1
  -7  -6   2 44.8596 43.2631   1
  -7  -6   3 95.4322 53.1554   1
  -7  -7  -7 84.3779 45.2766   2
  -7  -7  -6 79.5383 45.8178   2
  -7  -7  -5 68.1295 33.4956   2
  -7  -7  -4 63.2502 39.7524   2
  -7  -7  -3-12.7936 27.0508   2
  -7  -8  -7 33.5862 38.1185   2
  -7  -8  -6 1.21018 33.2340   2
  -7  -8  -5 93.3630 48.7320   2
  -7  -8  -4 30.1119 32.9734   2
  -7  -8  -3-31.2644 30.2599   2
  -7  -9  -6 45.8543 51.6811   2
  -7  -9  -5 0.31062 39.8622   2
  -7  -9  -4 54.9782 53.9506   2
  -7  -9  -3-17.5457 35.8096   2
   0   0   0    0.00    0.00   0
TITL bmk1584 in P222(1)
REM P222(1) (#17 in standard setting)
CELL 0.71073   5.648679  16.747939  16.972626  90.0000  90.0000  90.0000
ZERR    4.00   0.000351   0.001106   0.001349   0.0000   0.0000   0.0000
LATT -1
SYMM -x,-y, z+1/2
SYMM -x, y,-z+1/2
SYMM  x,-y,-z
SFAC C H N O S
UNIT 72.00 48.00 16.00 12.00 4.00
TREF
HKLF 4
END
;
_shelx_hkl_checksum              66458
_shelx_res_file
;
TITL SIR92 run in space group P 21 21 21
CELL  0.71073   5.6487  16.7479  16.9726   90.000   90.000   90.000
ZERR     4.00   0.0003   0.0011   0.0014    0.000    0.000    0.000
LATT  -1
SYMM  1/2 - X, - Y, 1/2 + Z
SYMM  1/2 + X, 1/2 - Y, - Z
SYMM  - X, 1/2 + Y, 1/2 - Z
SFAC  C    H    N    O    S
UNIT  60   64   16   12   4
MERG   2
FMAP   2
PLAN   5
SIZE     0.114   0.179   0.182
ACTA
BOND   $H
htab  n2 o2
htab  n4 o1
CONF
L.S.  5
TEMP    25.00
WGHT    0.054200    0.271800
FVAR       3.59874
C1    1    0.535730   -0.026808    0.381497    11.00000    0.05351    0.05310 =
         0.04488    0.00473    0.00042    0.00726
C2    1    0.232321   -0.034880    0.460164    11.00000    0.05727    0.08183 =
         0.05526    0.00436    0.00758    0.00917
AFIX  43
H2    2    0.097747   -0.057933    0.482049    11.00000   -1.20000
AFIX   0
C3    1    0.313590    0.035158    0.484543    11.00000    0.06927    0.07292 =
         0.05659   -0.00139    0.01221    0.01652
AFIX  43
H3    2    0.245845    0.065677    0.524382    11.00000   -1.20000
AFIX   0
C4    1    0.879077   -0.009646    0.296331    11.00000    0.04924    0.04729 =
         0.04323    0.00611   -0.00053    0.00532
C5    1    1.033140   -0.048595    0.237563    11.00000    0.05063    0.04633 =
         0.04106    0.00314    0.00130    0.00364
C6    1    0.991500   -0.131553    0.211823    11.00000    0.06457    0.04706 =
         0.05243    0.00161    0.00664    0.00129
C7    1    1.132840   -0.241640    0.138992    11.00000    0.09153    0.04912 =
         0.08728   -0.01373    0.01266    0.00425
AFIX  23
H7A   2    1.087203   -0.273240    0.184415    11.00000   -1.20000
H7B   2    1.285542   -0.260736    0.120872    11.00000   -1.20000
AFIX   0
C8    1    0.958791   -0.252266    0.076782    11.00000    0.15364    0.07797 =
         0.10866   -0.01656   -0.01509   -0.00566
AFIX 137
H8A   2    0.808098   -0.232535    0.094242    11.00000   -1.50000
H8B   2    0.945430   -0.307975    0.064231    11.00000   -1.50000
H8C   2    1.007904   -0.223304    0.030789    11.00000   -1.50000
AFIX   0
C9    1    1.459284    0.099002    0.185227    11.00000    0.04191    0.04758 =
         0.04274    0.00344   -0.00387    0.00287
C10   1    1.486610    0.179442    0.199646    11.00000    0.05614    0.04882 =
         0.06603   -0.00444    0.00127    0.00705
AFIX  43
H10   2    1.385603    0.205307    0.234588    11.00000   -1.20000
AFIX   0
C11   1    1.663987    0.221661    0.162214    11.00000    0.05590    0.04744 =
         0.07503    0.00314   -0.00178   -0.00389
AFIX  43
H11   2    1.680689    0.276051    0.171754    11.00000   -1.20000
AFIX   0
C12   1    1.817278    0.183805    0.110598    11.00000    0.04488    0.07270 =
         0.05528    0.01027   -0.00721   -0.00004
C13   1    1.788599    0.102718    0.098704    11.00000    0.04792    0.07565 =
         0.05102   -0.00348    0.00161    0.00261
AFIX  43
H13   2    1.892288    0.076232    0.065111    11.00000   -1.20000
AFIX   0
C14   1    1.611836    0.060052    0.134929    11.00000    0.04850    0.05228 =
         0.05095   -0.00483   -0.00268    0.00359
AFIX  43
H14   2    1.595361    0.005611    0.125630    11.00000   -1.20000
AFIX   0
C15   1    2.008037    0.230919    0.068319    11.00000    0.06018    0.09886 =
         0.07841    0.02031   -0.00137   -0.01476
AFIX 137
H15A  2    2.160991    0.211667    0.084035    11.00000   -1.50000
H15B  2    1.994068    0.286410    0.081714    11.00000   -1.50000
H15C  2    1.989838    0.224514    0.012439    11.00000   -1.50000
AFIX   0
N1    3    0.357527   -0.071771    0.400718    11.00000    0.05897    0.06558 =
         0.05207    0.00167    0.00796   -0.00055
N2    3    0.693425   -0.052178    0.324432    11.00000    0.05981    0.04908 =
         0.05449   -0.00292    0.01098    0.00057
AFIX  43
H2A   2    0.671723   -0.099070    0.305087    11.00000   -1.20000
AFIX   0
N3    3    1.215312   -0.013220    0.204489    11.00000    0.05040    0.04428 =
         0.04517    0.00199   -0.00262    0.00400
N4    3    1.269621    0.059639    0.222578    11.00000    0.04936    0.04567 =
         0.05082   -0.00292    0.00509    0.00356
AFIX  43
H4    2    1.188717    0.084347    0.257905    11.00000   -1.20000
AFIX   0
O1    4    0.918913    0.058551    0.320868    11.00000    0.06268    0.04863 =
         0.05493   -0.00469    0.00581    0.00130
O2    4    0.828333   -0.172290    0.234314    11.00000    0.08951    0.05079 =
         0.09353   -0.01151    0.03489   -0.01453
O3    4    1.153371   -0.158504    0.162020    11.00000    0.07933    0.04616 =
         0.07250   -0.00992    0.02112   -0.00034
S1    5    0.561518    0.061545    0.432180    11.00000    0.07563    0.05575 =
         0.06563   -0.00675    0.01453    0.00354
HKLF 4
REM  SIR92 run in space group P 21 21 21
REM R1 =  0.0477 for    2691 Fo > 4sig(Fo)  and  0.0697 for all    3601 data
REM    210 parameters refined using      0 restraints
END
WGHT      0.0542      0.2718
REM Highest difference peak  0.176,  deepest hole -0.188,  1-sigma level  0.042
Q1    1   1.2115 -0.2435  0.0616  11.00000  0.05    0.18
Q2    1   2.1370  0.2634  0.1365  11.00000  0.05    0.14
Q3    1   0.9806 -0.3218  0.0585  11.00000  0.05    0.14
Q4    1   0.8352 -0.2326  0.2050  11.00000  0.05    0.13
Q5    1   0.3668 -0.1240  0.3906  11.00000  0.05    0.13
;
_shelx_res_checksum              16716
_shelxl_version_number           .2013
loop_
_space_group_symop_operation_xyz
'x, y, z'
'-x+1/2, -y, z+1/2'
'x+1/2, -y+1/2, -z'
'-x, y+1/2, -z+1/2'
loop_
_atom_site_type_symbol
_atom_site_label
_atom_site_fract_x
_atom_site_fract_y
_atom_site_fract_z
_atom_site_U_iso_or_equiv
_atom_site_adp_type
_atom_site_calc_flag
_atom_site_occupancy
C C1 0.5357(7) -0.0268(2) 0.3815(2) 0.0505(8) Uani d 1
C C2 0.2323(7) -0.0349(3) 0.4602(2) 0.0648(11) Uani d 1
H H2 0.0977 -0.0579 0.4820 0.078 Uiso calc 1
C C3 0.3136(8) 0.0352(3) 0.4845(3) 0.0663(11) Uani d 1
H H3 0.2458 0.0657 0.5244 0.080 Uiso calc 1
C C4 0.8791(6) -0.0096(2) 0.2963(2) 0.0466(8) Uani d 1
C C5 1.0331(6) -0.0486(2) 0.2376(2) 0.0460(8) Uani d 1
C C6 0.9915(7) -0.1316(2) 0.2118(2) 0.0547(9) Uani d 1
C C7 1.1328(9) -0.2416(2) 0.1390(3) 0.0760(13) Uani d 1
H H7A 1.0872 -0.2732 0.1844 0.091 Uiso calc 1
H H7B 1.2855 -0.2607 0.1209 0.091 Uiso calc 1
C C8 0.9588(13) -0.2523(3) 0.0768(4) 0.113(2) Uani d 1
H H8A 0.8081 -0.2325 0.0942 0.170 Uiso calc 1
H H8B 0.9454 -0.3080 0.0642 0.170 Uiso calc 1
H H8C 1.0079 -0.2233 0.0308 0.170 Uiso calc 1
C C9 1.4593(6) 0.09900(19) 0.1852(2) 0.0441(7) Uani d 1
C C10 1.4866(7) 0.1794(2) 0.1996(2) 0.0570(9) Uani d 1
H H10 1.3856 0.2053 0.2346 0.068 Uiso calc 1
C C11 1.6640(7) 0.2217(2) 0.1622(3) 0.0595(10) Uani d 1
H H11 1.6807 0.2761 0.1718 0.071 Uiso calc 1
C C12 1.8173(6) 0.1838(2) 0.1106(2) 0.0576(10) Uani d 1
C C13 1.7886(7) 0.1027(2) 0.0987(2) 0.0582(10) Uani d 1
H H13 1.8923 0.0762 0.0651 0.070 Uiso calc 1
C C14 1.6118(6) 0.0601(2) 0.1349(2) 0.0506(8) Uani d 1
H H14 1.5954 0.0056 0.1256 0.061 Uiso calc 1
C C15 2.0080(7) 0.2309(3) 0.0683(3) 0.0792(13) Uani d 1
H H15A 2.1610 0.2117 0.0840 0.119 Uiso calc 1
H H15B 1.9941 0.2864 0.0817 0.119 Uiso calc 1
H H15C 1.9898 0.2245 0.0124 0.119 Uiso calc 1
N N1 0.3575(6) -0.07177(19) 0.40072(19) 0.0589(8) Uani d 1
N N2 0.6934(6) -0.05218(19) 0.32443(18) 0.0545(7) Uani d 1
H H2A 0.6717 -0.0991 0.3051 0.065 Uiso calc 1
N N3 1.2153(5) -0.01322(15) 0.20449(17) 0.0466(7) Uani d 1
N N4 1.2696(5) 0.05964(17) 0.22258(17) 0.0486(7) Uani d 1
H H4 1.1887 0.0843 0.2579 0.058 Uiso calc 1
O O1 0.9189(4) 0.05855(15) 0.32087(15) 0.0554(6) Uani d 1
O O2 0.8283(6) -0.17229(15) 0.2343(2) 0.0779(9) Uani d 1
O O3 1.1534(5) -0.15850(15) 0.16202(17) 0.0660(8) Uani d 1
S S1 0.5615(2) 0.06154(6) 0.43218(7) 0.0657(3) Uani d 1
loop_
_atom_site_aniso_label
_atom_site_aniso_U_11
_atom_site_aniso_U_22
_atom_site_aniso_U_33
_atom_site_aniso_U_12
_atom_site_aniso_U_13
_atom_site_aniso_U_23
C1 0.0535(19) 0.0531(18) 0.0449(19) 0.0073(18) 0.0004(17) 0.0047(16)
C2 0.057(2) 0.082(3) 0.055(2) 0.009(2) 0.0076(19) 0.004(2)
C3 0.069(2) 0.073(3) 0.057(2) 0.017(2) 0.012(2) -0.001(2)
C4 0.0492(19) 0.0473(18) 0.0432(19) 0.0053(15) -0.0005(16) 0.0061(16)
C5 0.0506(18) 0.0463(17) 0.0411(18) 0.0036(16) 0.0013(15) 0.0031(15)
C6 0.065(2) 0.0471(17) 0.052(2) 0.0013(18) 0.007(2) 0.0016(17)
C7 0.092(3) 0.049(2) 0.087(3) 0.004(2) 0.013(3) -0.014(2)
C8 0.154(5) 0.078(3) 0.109(4) -0.006(4) -0.015(5) -0.017(3)
C9 0.0419(16) 0.0476(16) 0.0427(18) 0.0029(15) -0.0039(15) 0.0034(15)
C10 0.056(2) 0.0488(18) 0.066(3) 0.0071(17) 0.001(2) -0.0044(18)
C11 0.056(2) 0.0474(19) 0.075(3) -0.0039(17) -0.002(2) 0.0031(19)
C12 0.0449(18) 0.073(2) 0.055(2) 0.0000(19) -0.0072(19) 0.010(2)
C13 0.048(2) 0.076(2) 0.051(2) 0.0026(19) 0.0016(18) -0.0035(19)
C14 0.0485(18) 0.0523(19) 0.051(2) 0.0036(17) -0.0027(16) -0.0048(18)
C15 0.060(2) 0.099(3) 0.078(3) -0.015(2) -0.001(2) 0.020(3)
N1 0.0590(18) 0.066(2) 0.0521(18) -0.0005(16) 0.0080(16) 0.0017(16)
N2 0.0598(17) 0.0491(15) 0.0545(18) 0.0006(15) 0.0110(15) -0.0029(14)
N3 0.0504(16) 0.0443(14) 0.0452(16) 0.0040(13) -0.0026(14) 0.0020(13)
N4 0.0494(15) 0.0457(14) 0.0508(17) 0.0036(14) 0.0051(13) -0.0029(14)
O1 0.0627(15) 0.0486(13) 0.0549(15) 0.0013(13) 0.0058(12) -0.0047(12)
O2 0.090(2) 0.0508(14) 0.094(2) -0.0145(15) 0.035(2) -0.0115(15)
O3 0.0793(18) 0.0462(13) 0.0725(19) -0.0003(13) 0.0211(16) -0.0099(13)
S1 0.0756(6) 0.0558(5) 0.0656(6) 0.0035(5) 0.0145(5) -0.0067(5)
loop_
_atom_type_symbol
_atom_type_description
_atom_type_scat_dispersion_real
_atom_type_scat_dispersion_imag
_atom_type_scat_source
C C 0.0033 0.0016 'International Tables Vol C Tables 4.2.6.8 and 6.1.1.4'
H H 0.0000 0.0000 'International Tables Vol C Tables 4.2.6.8 and 6.1.1.4'
N N 0.0061 0.0033 'International Tables Vol C Tables 4.2.6.8 and 6.1.1.4'
O O 0.0106 0.0060 'International Tables Vol C Tables 4.2.6.8 and 6.1.1.4'
S S 0.1246 0.1234 'International Tables Vol C Tables 4.2.6.8 and 6.1.1.4'
loop_
_geom_angle_atom_site_label_1
_geom_angle_atom_site_label_2
_geom_angle_atom_site_label_3
_geom_angle
N1 C1 N2 119.8(3)
N1 C1 S1 116.1(3)
N2 C1 S1 124.1(3)
C3 C2 N1 116.6(4)
C3 C2 H2 121.7
N1 C2 H2 121.7
C2 C3 S1 110.4(3)
C2 C3 H3 124.8
S1 C3 H3 124.8
O1 C4 N2 120.5(3)
O1 C4 C5 121.9(3)
N2 C4 C5 117.5(3)
N3 C5 C6 115.0(3)
N3 C5 C4 123.5(3)
C6 C5 C4 121.5(3)
O2 C6 O3 122.4(3)
O2 C6 C5 124.0(3)
O3 C6 C5 113.6(3)
O3 C7 C8 111.5(4)
O3 C7 H7A 109.3
C8 C7 H7A 109.3
O3 C7 H7B 109.3
C8 C7 H7B 109.3
H7A C7 H7B 108.0
C7 C8 H8A 109.5
C7 C8 H8B 109.5
H8A C8 H8B 109.5
C7 C8 H8C 109.5
H8A C8 H8C 109.5
H8B C8 H8C 109.5
C14 C9 C10 120.2(3)
C14 C9 N4 122.2(3)
C10 C9 N4 117.6(3)
C9 C10 C11 120.0(4)
C9 C10 H10 120.0
C11 C10 H10 120.0
C10 C11 C12 120.7(4)
C10 C11 H11 119.7
C12 C11 H11 119.7
C13 C12 C11 117.9(4)
C13 C12 C15 121.7(4)
C11 C12 C15 120.4(4)
C14 C13 C12 122.1(4)
C14 C13 H13 119.0
C12 C13 H13 119.0
C13 C14 C9 119.1(4)
C13 C14 H14 120.5
C9 C14 H14 120.5
C12 C15 H15A 109.5
C12 C15 H15B 109.5
H15A C15 H15B 109.5
C12 C15 H15C 109.5
H15A C15 H15C 109.5
H15B C15 H15C 109.5
C1 N1 C2 108.8(3)
C4 N2 C1 125.7(3)
C4 N2 H2A 117.1
C1 N2 H2A 117.1
N4 N3 C5 120.6(3)
N3 N4 C9 121.0(3)
N3 N4 H4 119.5
C9 N4 H4 119.5
C6 O3 C7 116.3(3)
C3 S1 C1 88.2(2)
loop_
_geom_bond_atom_site_label_1
_geom_bond_atom_site_label_2
_geom_bond_distance
C1 N1 1.299(5)
C1 N2 1.383(5)
C1 S1 1.718(4)
C2 C3 1.326(6)
C2 N1 1.378(5)
C2 H2 0.9300
C3 S1 1.717(4)
C3 H3 0.9300
C4 O1 1.236(4)
C4 N2 1.354(4)
C4 C5 1.476(5)
C5 N3 1.313(4)
C5 C6 1.475(5)
C6 O2 1.209(4)
C6 O3 1.325(4)
C7 O3 1.451(4)
C7 C8 1.454(7)
C7 H7A 0.9700
C7 H7B 0.9700
C8 H8A 0.9600
C8 H8B 0.9600
C8 H8C 0.9600
C9 C14 1.377(5)
C9 C10 1.378(5)
C9 N4 1.409(4)
C10 C11 1.381(5)
C10 H10 0.9300
C11 C12 1.385(6)
C11 H11 0.9300
C12 C13 1.382(5)
C12 C15 1.516(5)
C13 C14 1.373(5)
C13 H13 0.9300
C14 H14 0.9300
C15 H15A 0.9600
C15 H15B 0.9600
C15 H15C 0.9600
N2 H2A 0.8600
N3 N4 1.295(4)
N4 H4 0.8600
loop_
_geom_hbond_atom_site_label_D
_geom_hbond_atom_site_label_H
_geom_hbond_atom_site_label_A
_geom_hbond_site_symmetry_A
_geom_hbond_distance_DH
_geom_hbond_distance_HA
_geom_hbond_distance_DA
_geom_hbond_angle_DHA
N2 H2A O2 . 0.86 1.93 2.639(4) 139
N4 H4 O1 . 0.86 1.91 2.590(4) 135
C10 H10 O2 4_755 0.93 2.44 3.255(5) 147
loop_
_geom_torsion_atom_site_label_1
_geom_torsion_atom_site_label_2
_geom_torsion_atom_site_label_3
_geom_torsion_atom_site_label_4
_geom_torsion
N1 C2 C3 S1 0.5(5)
O1 C4 C5 N3 -3.2(5)
N2 C4 C5 N3 178.4(3)
O1 C4 C5 C6 176.7(3)
N2 C4 C5 C6 -1.7(5)
N3 C5 C6 O2 -177.8(4)
C4 C5 C6 O2 2.3(6)
N3 C5 C6 O3 3.3(5)
C4 C5 C6 O3 -176.6(3)
C14 C9 C10 C11 1.5(5)
N4 C9 C10 C11 -177.5(3)
C9 C10 C11 C12 -0.6(6)
C10 C11 C12 C13 -0.8(6)
C10 C11 C12 C15 178.6(4)
C11 C12 C13 C14 1.4(6)
C15 C12 C13 C14 -178.0(4)
C12 C13 C14 C9 -0.5(5)
C10 C9 C14 C13 -0.9(5)
N4 C9 C14 C13 178.0(3)
N2 C1 N1 C2 178.0(3)
S1 C1 N1 C2 -0.6(4)
C3 C2 N1 C1 0.0(5)
O1 C4 N2 C1 -0.9(5)
C5 C4 N2 C1 177.6(3)
N1 C1 N2 C4 176.6(3)
S1 C1 N2 C4 -4.9(5)
C6 C5 N3 N4 -179.8(3)
C4 C5 N3 N4 0.1(5)
C5 N3 N4 C9 -177.6(3)
C14 C9 N4 N3 -7.5(5)
C10 C9 N4 N3 171.5(3)
O2 C6 O3 C7 -3.4(6)
C5 C6 O3 C7 175.5(3)
C8 C7 O3 C6 81.4(5)
C2 C3 S1 C1 -0.7(3)
N1 C1 S1 C3 0.8(3)
N2 C1 S1 C3 -177.8(3)

_cod_database_fobs_code 1548669
