#------------------------------------------------------------------------------
#$Date: 2018-01-06 04:42:23 +0200 (Sat, 06 Jan 2018) $
#$Revision: 204896 $
#$URL: file:///home/coder/svn-repositories/cod/cif/1/54/81/1548128.cif $
#------------------------------------------------------------------------------
#
# This file is available in the Crystallography Open Database (COD),
# http://www.crystallography.net/
#
# All data on this site have been placed in the public domain by the
# contributors.
#
data_1548128
loop_
_publ_author_name
'Wu, Yang'
'Yuan, Chunhao'
'Wang, Chang'
'Mao, Biming'
'Jia, Hao'
'Gao, Xing'
'Liao, Jianning'
'Jiang, Feng'
'Zhou, Leijie'
'Wang, Qijun'
'Guo, Hongchao'
_publ_section_title
;
 Palladium-Catalyzed [5 + 2] Cycloaddition of Vinyloxiranes with
 Sulfamate-Derived Cyclic Imines To Construct 1,3-Oxazepine Heterocycles.
;
_journal_issue                   23
_journal_name_full               'Organic letters'
_journal_page_first              6268
_journal_page_last               6271
_journal_paper_doi               10.1021/acs.orglett.7b02704
_journal_volume                  19
_journal_year                    2017
_chemical_formula_moiety         'C18 H17 N O5 S'
_chemical_formula_sum            'C18 H17 N O5 S'
_chemical_formula_weight         359.38
_space_group_crystal_system      monoclinic
_space_group_IT_number           14
_space_group_name_Hall           '-P 2ybc'
_space_group_name_H-M_alt        'P 1 21/c 1'
_symmetry_space_group_name_Hall  '-P 2ybc'
_symmetry_space_group_name_H-M   'P 1 21/c 1'
_atom_sites_solution_hydrogens   geom
_atom_sites_solution_primary     dual
_audit_creation_date             2017-06-09
_audit_creation_method
;
Olex2 1.2
(compiled 2017.03.28 svn.r3405 for OlexSys, GUI svn.r5337)
;
_audit_update_record
;
????
;
_cell_angle_alpha                90
_cell_angle_beta                 95.70(3)
_cell_angle_gamma                90
_cell_formula_units_Z            4
_cell_length_a                   6.3553(13)
_cell_length_b                   14.813(3)
_cell_length_c                   17.085(3)
_cell_measurement_reflns_used    4798
_cell_measurement_temperature    173(2)
_cell_measurement_theta_max      27.4692
_cell_measurement_theta_min      2.3961
_cell_volume                     1600.4(5)
_computing_cell_refinement
'CrystalClear-SM Expert 2.0 r4 (Rigaku, 2009)'
_computing_data_collection
'CrystalClear-SM Expert 2.0 r4 (Rigaku, 2009)'
_computing_data_reduction
'CrystalClear-SM Expert 2.0 r4 (Rigaku, 2009)'
_computing_molecular_graphics    'Olex2 (Dolomanov et al., 2009)'
_computing_publication_material  'CIFTAB (Sheldrick, 2013)'
_computing_structure_refinement  'ShelXL (Sheldrick, 2015)'
_computing_structure_solution    'ShelXT (Sheldrick, 2015)'
_diffrn_ambient_temperature      173(2)
_diffrn_measured_fraction_theta_full 0.998
_diffrn_measured_fraction_theta_max 0.997
_diffrn_measurement_device_type  'Rigaku Saturn724+ (2x2 bin mode)'
_diffrn_measurement_method       'profile data from \w-scans'
_diffrn_radiation_monochromator  'Graphite Monochromator'
_diffrn_radiation_type           MoK\a
_diffrn_radiation_wavelength     0.71073
_diffrn_reflns_av_R_equivalents  0.0595
_diffrn_reflns_av_unetI/netI     0.0548
_diffrn_reflns_Laue_measured_fraction_full 0.998
_diffrn_reflns_Laue_measured_fraction_max 0.997
_diffrn_reflns_limit_h_max       8
_diffrn_reflns_limit_h_min       -8
_diffrn_reflns_limit_k_max       18
_diffrn_reflns_limit_k_min       -19
_diffrn_reflns_limit_l_max       22
_diffrn_reflns_limit_l_min       -21
_diffrn_reflns_number            12513
_diffrn_reflns_point_group_measured_fraction_full 0.998
_diffrn_reflns_point_group_measured_fraction_max 0.997
_diffrn_reflns_theta_full        25.242
_diffrn_reflns_theta_max         27.469
_diffrn_reflns_theta_min         2.750
_diffrn_source                   'Sealed Tube'
_exptl_absorpt_coefficient_mu    0.233
_exptl_absorpt_correction_T_max  1.0000
_exptl_absorpt_correction_T_min  0.8005
_exptl_absorpt_correction_type   multi-scan
_exptl_absorpt_process_details
'CrystalClear-SM Expert 2.0 r4 (Rigaku, 2009)'
_exptl_crystal_colour            Colorless
_exptl_crystal_density_diffrn    1.491
_exptl_crystal_description       block
_exptl_crystal_F_000             752
_exptl_crystal_size_max          0.247
_exptl_crystal_size_mid          0.176
_exptl_crystal_size_min          0.138
_refine_diff_density_max         0.253
_refine_diff_density_min         -0.327
_refine_diff_density_rms         0.054
_refine_ls_extinction_method     none
_refine_ls_goodness_of_fit_ref   1.230
_refine_ls_hydrogen_treatment    constr
_refine_ls_matrix_type           full
_refine_ls_number_parameters     227
_refine_ls_number_reflns         3659
_refine_ls_number_restraints     0
_refine_ls_restrained_S_all      1.230
_refine_ls_R_factor_all          0.0792
_refine_ls_R_factor_gt           0.0699
_refine_ls_shift/su_max          0.000
_refine_ls_shift/su_mean         0.000
_refine_ls_structure_factor_coef Fsqd
_refine_ls_weighting_details
'w=1/[\s^2^(Fo^2^)+(0.0147P)^2^+1.6677P] where P=(Fo^2^+2Fc^2^)/3'
_refine_ls_weighting_scheme      calc
_refine_ls_wR_factor_gt          0.1207
_refine_ls_wR_factor_ref         0.1248
_reflns_Friedel_coverage         0.000
_reflns_number_gt                3326
_reflns_number_total             3659
_reflns_threshold_expression     'I > 2\s(I)'
_cod_data_source_file            ol7b02704_si_004.cif
_cod_data_source_block           sa5125
_cod_depositor_comments
;
The following automatic conversions were performed:

'_exptl_absorpt_correction_type' value 'Multi-scan' changed to
'multi-scan' according to
/home/data/users/saulius/crontab/automatic-downloads/rss-feeds/ACS/lib/dictionaries/cif_core.dic
dictionary named 'cif_core.dic' version 2.4.2 from 2011-04-26.

Automatic conversion script
Id: cif_fix_values 4973 2017-02-22 13:04:09Z antanas 

 Adding full bibliography for 1548127--1548130.cif.
;
_cod_original_cell_volume        1600.5(6)
_cod_database_code               1548128
_shelx_shelxl_version_number     2016/6
_shelx_space_group_comment
;
The symmetry employed for this shelxl refinement is uniquely defined
by the following loop, which should always be used as a source of
symmetry information in preference to the above space-group names.
They are only intended as comments.
;
_olex2_refinement_description
;
1. Fixed Uiso
 At 1.2 times of:
  All C(H) groups, All C(H,H) groups
 At 1.5 times of:
  All C(H,H,H) groups
2.a Ternary CH refined with riding coordinates:
 C8(H8), C11(H11)
2.b Secondary CH2 refined with riding coordinates:
 C9(H9A,H9B), C12(H12A,H12B)
2.c Aromatic/amide H refined with riding coordinates:
 C3(H3), C4(H4), C7(H7), C14(H14), C15(H15), C16(H16), C17(H17), C18(H18)
2.d Idealised Me refined as rotating group:
 C1(H1A,H1B,H1C)
;
_shelx_res_file
;
TITL sa5125_a.res in P2(1)/c
    sa5125.res
    created by SHELXL-2016/6 at 14:06:54 on 09-Jun-2017
REM Old TITL sa5125 in P2(1)/c
REM SHELXT solution in P2(1)/c
REM R1 0.139, Rweak 0.279, Alpha 0.041, Orientation as input
REM Formula found by SHELXT: C18 N O5 S
CELL 0.71073 6.3553 14.8134 17.0854 90 95.705 90
ZERR 4 0.0013 0.003 0.0034 0 0.03 0
LATT 1
SYMM -X,0.5+Y,0.5-Z
SFAC C H N O S
UNIT 72 68 4 20 4

L.S. 10 0 173
PLAN  20
BOND $H
list 4
fmap 2
ACTA
OMIT 0 0 2
OMIT 0 1 1
REM <olex2.extras>
REM <HklSrc "%.\\sa5125.hkl">
REM </olex2.extras>

WGHT    0.014700    1.667700
FVAR       0.41636
S1    5    0.173070    0.806824    0.537647    11.00000    0.02208    0.03664 =
         0.03198   -0.00127   -0.00291    0.00085
O1    4    0.389503    0.596254    0.587750    11.00000    0.02365    0.03538 =
         0.03543    0.00439   -0.00112   -0.00455
O2    4    0.567983    0.767347    0.662335    11.00000    0.02925    0.02617 =
         0.02457    0.00216   -0.00033    0.00284
O3    4    0.183173    0.913460    0.530132    11.00000    0.02775    0.03320 =
         0.03766   -0.00161   -0.00652    0.00665
O4    4    0.043490    0.776994    0.470057    11.00000    0.02907    0.04800 =
         0.04334   -0.00666   -0.01358    0.00233
O5    4    0.111198    0.787400    0.613534    11.00000    0.02671    0.05181 =
         0.03722    0.00250    0.00574   -0.00261
N1    3    0.417375    0.781731    0.528739    11.00000    0.02227    0.02886 =
         0.02558   -0.00156   -0.00157    0.00317
C1    1    0.831168    1.110410    0.710672    11.00000    0.04952    0.03353 =
         0.04587   -0.00245   -0.00297   -0.00782
AFIX 137
H1A   2    0.880770    1.156871    0.677902    11.00000   -1.50000
H1B   2    0.946508    1.071296    0.728521    11.00000   -1.50000
H1C   2    0.774777    1.137432    0.755198    11.00000   -1.50000
AFIX   0
C2    1    0.660636    1.056420    0.664163    11.00000    0.03842    0.02847 =
         0.02759    0.00210    0.00415   -0.00214
C3    1    0.470700    1.096396    0.634650    11.00000    0.05156    0.02466 =
         0.02796    0.00413    0.00615    0.00412
AFIX  43
H3    2    0.449517    1.157372    0.644184    11.00000   -1.20000
AFIX   0
C4    1    0.313040    1.048275    0.591703    11.00000    0.03871    0.03124 =
         0.03051    0.00555    0.00144    0.01048
AFIX  43
H4    2    0.187150    1.076103    0.572571    11.00000   -1.20000
AFIX   0
C5    1    0.346551    0.957913    0.577814    11.00000    0.02807    0.03006 =
         0.02827    0.00352    0.00022    0.00140
C6    1    0.531242    0.914509    0.606201    11.00000    0.02784    0.02619 =
         0.02540    0.00412    0.00296    0.00062
C7    1    0.686100    0.965384    0.649216    11.00000    0.02903    0.03072 =
         0.02815    0.00325    0.00084    0.00006
AFIX  43
H7    2    0.811345    0.937263    0.668662    11.00000   -1.20000
AFIX   0
C8    1    0.571096    0.815663    0.590795    11.00000    0.02043    0.02730 =
         0.02579    0.00184   -0.00156    0.00036
AFIX  13
H8    2    0.712461    0.809825    0.573073    11.00000   -1.20000
AFIX   0
C9    1    0.683230    0.684832    0.666309    11.00000    0.02759    0.02778 =
         0.02779    0.00435   -0.00244    0.00208
AFIX  23
H9A   2    0.681474    0.661161    0.719174    11.00000   -1.20000
H9B   2    0.829176    0.699059    0.659335    11.00000   -1.20000
AFIX   0
C10   1    0.613994    0.609539    0.609447    11.00000    0.02270    0.02675 =
         0.02734    0.00342    0.00193   -0.00294
C11   1    0.522907    0.619294    0.527080    11.00000    0.03103    0.02598 =
         0.02608   -0.00072   -0.00197   -0.00223
AFIX  13
H11   2    0.553240    0.568109    0.493639    11.00000   -1.20000
AFIX   0
C12   1    0.475029    0.704853    0.482317    11.00000    0.03207    0.02958 =
         0.02405   -0.00193   -0.00080    0.00181
AFIX  23
H12A  2    0.598142    0.721178    0.456104    11.00000   -1.20000
H12B  2    0.360123    0.693246    0.441830    11.00000   -1.20000
AFIX   0
C13   1    0.732482    0.524164    0.632092    11.00000    0.02966    0.02515 =
         0.02314   -0.00031    0.00105   -0.00218
C14   1    0.927952    0.507299    0.604921    11.00000    0.02987    0.03366 =
         0.03585    0.00234    0.00431   -0.00236
AFIX  43
H14   2    0.982985    0.547126    0.570138    11.00000   -1.20000
AFIX   0
C15   1    1.040093    0.430540    0.630166    11.00000    0.03288    0.03537 =
         0.04858   -0.00089    0.00297    0.00366
AFIX  43
H15   2    1.170122    0.418887    0.611640    11.00000   -1.20000
AFIX   0
C16   1    0.961731    0.371393    0.682222    11.00000    0.04348    0.02708 =
         0.03717   -0.00190   -0.00912    0.00417
AFIX  43
H16   2    1.039179    0.320461    0.698911    11.00000   -1.20000
AFIX   0
C17   1    0.767785    0.387717    0.709706    11.00000    0.04890    0.02886 =
         0.02708    0.00321    0.00139   -0.00421
AFIX  43
H17   2    0.714137    0.347705    0.744670    11.00000   -1.20000
AFIX   0
C18   1    0.653795    0.464029    0.684862    11.00000    0.03610    0.02912 =
         0.02889    0.00228    0.00299   -0.00150
AFIX  43
H18   2    0.523741    0.475232    0.703535    11.00000   -1.20000
AFIX   0
HKLF 4




REM  sa5125_a.res in P2(1)/c
REM R1 =  0.0699 for    3326 Fo > 4sig(Fo)  and  0.0792 for all    3659 data
REM    227 parameters refined using      0 restraints

END

WGHT      0.0147      1.6664

REM Highest difference peak  0.253,  deepest hole -0.327,  1-sigma level  0.054
Q1    1   0.6302  0.6201  0.5573  11.00000  0.05    0.25
Q2    1   0.8226  0.5155  0.6097  11.00000  0.05    0.25
Q3    1   0.0763  0.7968  0.5801  11.00000  0.05    0.23
Q4    1   0.3180  0.7525  0.5537  11.00000  0.05    0.23
Q5    1   0.0304  0.7023  0.4630  11.00000  0.05    0.23
Q6    1   0.7176  0.4996  0.6716  11.00000  0.05    0.23
Q7    1   0.7924  1.1823  0.6988  11.00000  0.05    0.21
Q8    1   0.5632  1.0770  0.6709  11.00000  0.05    0.21
Q9    1   0.5631  0.8663  0.6022  11.00000  0.05    0.20
Q10   1   0.7242  1.0914  0.6890  11.00000  0.05    0.20
Q11   1   0.5803  0.9394  0.6313  11.00000  0.05    0.19
Q12   1   0.1911  0.8776  0.5391  11.00000  0.05    0.19
Q13   1   0.6644  0.6520  0.6086  11.00000  0.05    0.19
Q14   1   1.0660  0.5407  0.5423  11.00000  0.05    0.19
Q15   1   0.6821  1.0130  0.6660  11.00000  0.05    0.19
Q16   1   0.4861  0.7366  0.7324  11.00000  0.05    0.18
Q17   1   0.0916  0.9178  0.5142  11.00000  0.05    0.18
Q18   1   0.4629  0.9381  0.5808  11.00000  0.05    0.18
Q19   1   0.2920  0.9815  0.6372  11.00000  0.05    0.18
Q20   1   0.7346  1.0681  0.6486  11.00000  0.05    0.17
;
_shelx_res_checksum              54761
_shelx_hkl_file
;
   0   0   2    1.95    0.62
   0   0   2    0.71    0.44
   0   0   3    0.17    0.56
   0   0  -3    0.39    0.49
   0   0   3    3.52    0.97
   0   0  -3    0.55    0.68
   0   0   4 1446.39   22.28
   0   0  -4 1471.83   22.60
   0   0   4 1532.38   23.67
   0   0  -4 1450.31   22.44
   0   0   5   -0.83    0.95
   0   0   5    1.45    1.60
   0   0  -5    1.46    0.98
   0   0   6  356.93    6.71
   0   0  -6  325.30    5.99
   0   0   6  356.00    6.84
   0   0  -6  328.13    6.19
   0   0   7    0.69    1.06
   0   0   7    6.23    1.74
   0   0   8    4.91    0.92
   0   0  -8    5.62    0.81
   0   0   8    2.31    1.27
   0   0  -8    2.14    0.60
   0   0   9    0.73    0.82
   0   0  -9    0.84    0.66
   0   0   9    1.23    1.33
   0   0  10    4.65    1.22
   0   0  10   14.22    2.18
   0   0  11    1.08    0.99
   0   0  11    1.96    1.25
   0   0  12   99.81    7.55
   0   0  12  101.86    6.46
   0   0  13    1.55    0.73
   0   0  13    6.35    2.14
   0   0  14  392.45   29.09
   0   0  14  458.52   32.82
   0   0  15    0.41    0.85
   0   0  15    5.94    2.53
   0   0  16  405.73   34.98
   0   0  16  478.58   36.46
   0   0  17    4.38    1.93
   0   0  17    6.09    2.37
   0   0  18   49.05    8.02
   0   0  18   68.88    7.30
   0   0  19    2.16    1.18
   0   0  19    3.83    1.94
   0   0  20   14.81    5.41
   0   0  20   32.35    7.47
   0   0  21    3.06    1.19
   0   0  21    3.28    1.73
   0   0  22   -0.08    0.90
   0   0  22    3.08    1.91
   0   1  -1    0.06    0.25
   0   1   1    0.29    0.19
   0   1   1   -0.25    0.30
   0  -1  -1    0.01    0.23
   0   1   3  294.95    4.99
   0  -1  -3  289.61    4.88
   0  -1   3  273.17    4.89
   0   1  -3  282.04    5.00
   0  -1  -3  269.01    4.85
   0  -1   3  290.68    5.01
   0   1  -3  280.95    4.86
   0   1   4 1516.78   23.27
   0  -1  -4 1489.86   22.78
   0  -1   4 1526.74   23.64
   0   1  -4 1447.94   22.38
   0   1   4 1576.92   24.47
   0  -1  -4 1465.01   22.76
   0  -1   4 1567.48   24.13
   0   1  -4 1483.63   22.85
   0   1   5    9.04    1.80
   0  -1  -5    5.51    0.81
   0  -1   5    8.34    1.20
   0   1  -5    6.72    0.89
   0   1   5    3.97    0.76
   0  -1   5    4.83    0.86
   0  -1  -5    5.97    0.92
   0   1  -5    6.31    0.82
   0   1   6   45.86    3.17
   0  -1   6   37.51    2.28
   0   1  -6   34.19    1.90
   0   1   6   39.52    2.26
   0  -1   6   40.42    2.33
   0  -1  -6   40.24    2.17
   0   1  -6   35.89    1.92
   0   1   7    0.62    0.93
   0  -1   7    6.81    1.83
   0  -1  -7    1.24    0.58
   0   1  -7    3.95    1.18
   0   1   7    4.78    1.39
   0  -1   7    3.30    1.54
   0  -1  -7    1.67    0.82
   0   1  -7    5.95    1.09
   0   1   8  151.47    5.35
   0  -1  -8  137.74    4.47
   0   1  -8  142.03    4.63
   0   1   8  145.39    5.13
   0  -1   8  150.08    5.14
   0   1   9  141.63    5.63
   0  -1   9  154.35    7.02
   0  -1  -9  130.92    4.46
   0   1  -9  133.66    4.64
   0   1   9  140.38    5.21
   0  -1   9  149.09    5.35
   0   1  10    7.05    1.28
   0  -1  10    4.69    0.99
   0  -1 -10    6.12    0.97
   0   1  10    7.73    1.49
   0  -1  10    8.40    1.68
   0   1  11   52.70    7.10
   0  -1  11   51.00    4.94
   0   1  11   57.51    4.58
   0  -1  11   64.53    5.22
   0   1  12   60.92    8.59
   0  -1  12   52.65    7.76
   0   1  12   69.14    6.97
   0  -1  12   71.61    7.13
   0   1  13   26.62    4.55
   0  -1  13   23.57    3.98
   0   1  13   28.59    4.20
   0  -1  13   31.86    4.30
   0   1  14   69.84    8.81
   0  -1  14   57.64   11.14
   0   1  14   82.95    6.84
   0  -1  14   76.13    6.27
   0   1  15   46.79    7.16
   0  -1  15   45.05    8.08
   0   1  15   59.58    5.40
   0  -1  15   44.78    5.43
   0   1  16  119.29   11.10
   0  -1  16  124.91   17.14
   0   1  16  146.47   12.00
   0  -1  16  124.40   10.27
   0   1  17   45.27    7.34
   0  -1  17   45.16    7.29
   0   1  17   56.44    6.05
   0  -1  17   68.42    7.18
   0   1  18   53.97   10.23
   0  -1  18   57.22    8.74
   0   1  18   67.43    7.33
   0  -1  18   91.88    9.30
   0   1  19    3.14    1.27
   0  -1  19    3.24    1.61
   0   1  19    5.81    2.62
   0  -1  19    4.53    2.50
   0   1  20    3.37    1.09
   0  -1  20    3.13    1.55
   0   1  20   13.12    3.43
   0  -1  20    7.56    2.24
   0   1  21    1.98    1.34
   0  -1  21    3.39    1.48
   0   1  21    4.70    2.29
   0  -1  21    2.23    1.55
   0  -1  22   12.27    4.78
   0   1  22   24.22    6.72
   0  -1  22   24.88    6.79
   0  -2   0    1.07    0.50
   0   2   0    0.64    0.42
   0   2   0    1.16    0.46
   0  -2   0    1.14    0.50
   0   2  -1   19.81    1.58
   0  -2   2 1142.66   17.71
   0   2  -2 1111.59   17.24
   0  -2  -2 1172.71   17.87
   0   2   2 1113.64   16.97
   0   2   2 1126.69   17.38
   0  -2  -2 1129.70   17.39
   0  -2   2 1080.55   16.39
   0  -2  -3   51.50    3.07
   0  -2   3   47.32    2.28
   0   2  -3   55.44    2.62
   0  -2  -3   58.22    2.52
   0   2   3   52.88    2.62
   0  -2  -3   49.25    2.34
   0  -2   3   49.05    2.18
   0   2  -3   55.73    2.40
   0   2   4 1979.29   30.08
   0  -2  -4 2008.48   30.48
   0  -2   4 2005.91   30.89
   0   2  -4 1956.46   30.12
   0   2   4 2003.19   30.85
   0  -2  -4 1944.55   29.91
   0  -2   4 1999.35   30.46
   0   2  -4 1983.55   30.21
   0  -2  -5  236.85    4.66
   0  -2   5  232.67    4.87
   0   2  -5  230.29    4.69
   0   2   5  236.21    4.93
   0  -2  -5  239.33    4.93
   0  -2   5  243.78    4.80
   0   2  -5  226.42    4.37
   0  -2  -6  385.26    6.75
   0  -2   6  390.31    7.43
   0   2  -6  387.76    7.17
   0   2   6  356.99    6.94
   0  -2  -6  359.33    6.82
   0   2   7  374.55   11.26
   0  -2  -7  367.66   10.33
   0  -2   7  367.90   10.71
   0   2  -7  355.25   10.24
   0   2   7  377.60   10.98
   0  -2  -7  353.73   10.24
   0  -2   7  375.36   10.77
   0   2  -7  359.14   10.25
   0   2   8   16.17    2.22
   0  -2  -8   16.78    1.70
   0  -2   8   20.52    2.58
   0   2   8   17.21    1.94
   0  -2   8   14.46    1.71
   0   2  -8   11.75    1.51
   0   2   9   53.15    3.47
   0  -2  -9   44.09    2.09
   0  -2   9   47.70    2.56
   0   2   9   51.44    2.75
   0  -2   9   51.25    2.64
   0   2  10  182.50   14.82
   0  -2  10  158.10   10.96
   0  -2 -10  148.42   10.11
   0   2  10  175.87   12.27
   0  -2  10  174.64   12.01
   0   2  11  110.22    8.17
   0  -2  11  108.13    6.61
   0   2  11  126.29    7.82
   0  -2  11  109.39    6.74
   0   2  12   47.84    6.51
   0  -2  12   46.30    5.47
   0   2  12   61.72    5.71
   0  -2  12   45.73    4.37
   0   2  13    2.77    1.29
   0  -2  13    2.18    0.93
   0   2  13    5.22    1.74
   0  -2  13    3.91    1.81
   0   2  14  175.12   19.68
   0  -2  14  171.07   17.39
   0   2  14  183.97   13.84
   0  -2  14  215.67   15.95
   0   2  15   21.91    3.84
   0  -2  15   19.03    3.76
   0   2  15   21.76    3.52
   0  -2  15   22.50    3.35
   0   2  16   62.01    8.57
   0  -2  16   68.84   11.69
   0   2  16   92.30    8.67
   0  -2  16   94.13    8.72
   0   2  17    2.08    0.96
   0  -2  17    1.63    1.02
   0   2  17    4.72    2.10
   0  -2  17    1.01    1.47
   0   2  18    2.12    0.83
   0  -2  18    1.81    1.03
   0   2  18    3.69    1.90
   0  -2  18    1.64    1.42
   0   2  19    3.18    1.42
   0  -2  19    8.41    2.40
   0   2  19    8.13    2.67
   0  -2  19    6.87    2.43
   0   2  20    4.18    1.42
   0  -2  20    4.50    1.38
   0   2  20    7.56    2.76
   0  -2  20    5.70    2.28
   0   2  21    2.23    1.54
   0  -2  21    3.72    1.01
   0   2  21    5.61    2.57
   0  -2  21    1.85    1.45
   0  -3   0    3.12    1.08
   0   3   0    1.12    0.83
   0   3   0    1.60    0.58
   0  -3   0   -0.09    0.47
   0  -3   1  595.71    9.79
   0   3  -1  562.17    9.29
   0  -3  -1  583.37    9.42
   0   3   1  575.74    9.28
   0   3  -1  559.37    8.75
   0  -3   1  574.46    9.02
   0   3   1  589.03    9.46
   0  -3  -1  582.45    9.28
   0  -3   2  548.75    9.25
   0   3  -2  524.23    8.85
   0  -3  -2  520.84    8.48
   0   3   2  511.11    8.32
   0  -3   2  535.80    8.47
   0   3   2  538.21    8.96
   0  -3  -2  506.15    8.35
   0  -3   3  146.70    3.46
   0   3  -3  145.35    3.45
   0  -3  -3  142.98    3.02
   0   3   3  144.92    2.95
   0   3   3  148.07    3.40
   0  -3  -3  134.49    5.33
   0  -3   3  143.36    2.85
   0  -3  -4 2545.28   38.50
   0  -3   4 2442.40   37.50
   0   3  -4 2496.99   38.29
   0  -3  -4 2583.33   39.10
   0   3   4 2663.08   40.76
   0  -3  -4 2444.27   37.39
   0  -3   4 2514.23   38.06
   0  -3  -5   70.81    4.72
   0  -3   5   69.09    3.34
   0   3  -5   74.62    3.46
   0  -3  -5   77.73    3.43
   0   3   5   74.87    3.47
   0  -3  -5   64.55    2.97
   0  -3   5   70.43    3.20
   0   3  -5   68.28    2.99
   0  -3  -6    2.63    0.73
   0  -3   6    3.91    1.47
   0   3  -6    3.38    1.23
   0   3   6    2.21    1.08
   0  -3  -6    0.21    0.74
   0  -3   6    2.51    1.14
   0   3  -6    3.14    1.03
   0   3   7    5.97    0.98
   0  -3  -7    4.79    0.77
   0  -3   7    3.72    1.19
   0   3  -7    4.10    1.45
   0   3   7    7.22    1.22
   0  -3  -7    4.12    0.87
   0   3  -7    3.11    0.86
   0   3   8   33.85    4.82
   0  -3  -8   28.78    4.09
   0  -3   8   21.37    2.75
   0   3   8   19.29    2.65
   0   3  -8   22.41    2.69
   0   3   9   24.61    3.65
   0  -3  -9   22.02    3.12
   0  -3   9   22.08    2.96
   0   3   9   14.33    2.11
   0  -3   9   24.75    3.02
   0   3  10   40.40    4.70
   0  -3 -10   24.38    4.45
   0  -3  10   28.61    2.74
   0   3  10   32.85    3.00
   0  -3  10   33.07    2.87
   0   3  11  168.57   11.98
   0  -3  11  157.04    9.25
   0   3  11  181.11   10.67
   0  -3  11  181.95   10.54
   0   3  12   34.91    5.03
   0  -3  12   34.01    3.46
   0   3  12   48.15    5.01
   0  -3  12   38.96    3.95
   0   3  13  292.71   17.02
   0  -3  13  285.95   16.04
   0   3  13  331.20   18.61
   0  -3  13  327.63   18.23
   0   3  14   25.48    4.81
   0  -3  14   56.90   11.57
   0   3  14   35.26    4.89
   0  -3  14   39.32    5.22
   0   3  15   13.52    2.65
   0  -3  15   25.91    4.43
   0   3  15   25.95    3.97
   0  -3  15   25.15    3.57
   0   3  16   10.11    2.66
   0  -3  16   16.47    4.36
   0   3  16   21.87    4.40
   0  -3  16   29.45    5.29
   0   3  17    2.39    0.92
   0  -3  17    3.49    1.46
   0   3  17    7.75    2.67
   0  -3  17    7.46    2.32
   0   3  18    5.94    2.04
   0  -3  18    2.74    1.50
   0   3  18    6.38    2.85
   0  -3  18    3.37    1.39
   0  -3  19    3.55    1.37
   0   3  19   13.59    3.50
   0  -3  19   11.51    3.25
   0   3  20    1.49    0.82
   0  -3  20    2.07    0.83
   0   3  20    2.83    1.64
   0  -3  20    0.94    1.34
   0  -3  21    6.32    2.42
   0   3  21   11.50    3.57
   0  -3  21    6.48    2.58
   0  -4   0    5.82    0.91
   0   4   0    5.11    0.82
   0   4   0    6.34    0.78
   0  -4   0    6.47    0.60
   0  -4   1  136.97   10.18
   0   4  -1  133.70    5.41
   0  -4  -1  145.80    3.24
   0   4   1  131.63    5.21
   0   4  -1  131.57    5.06
   0  -4   1  134.74    5.13
   0   4   1  134.16    5.29
   0  -4  -1  139.75   10.19
   0   4  -2  259.52    5.12
   0  -4  -2  264.84    4.96
   0   4   2  259.30    4.77
   0   4   2  278.95    5.30
   0  -4  -2  256.46    4.74
   0  -4   3  974.32   15.90
   0   4  -3  928.61   15.18
   0  -4  -3  972.97   15.42
   0   4   3  998.30   16.07
   0  -4  -3  926.19   14.84
   0  -4   4   88.42    3.99
   0   4  -4   84.48    3.79
   0  -4  -4  100.75    4.21
   0   4   4   87.17    3.67
   0   4   4   92.53    4.07
   0  -4  -4   80.82    3.52
   0  -4  -5  355.65    9.89
   0  -4   5  342.08   10.04
   0   4  -5  337.77    9.83
   0   4   5  357.49   10.36
   0  -4  -5  333.34    9.62
   0  -4  -6  158.80    5.00
   0  -4   6  160.83    5.45
   0   4  -6  161.28    5.33
   0  -4  -6  172.87    5.29
   0   4   6  170.46    5.68
   0  -4  -6  151.69    4.97
   0  -4   6  163.66    5.07
   0   4  -6  162.85    5.03
   0  -4  -7    6.32    1.02
   0  -4   7    6.42    1.28
   0  -4  -7    8.58    1.15
   0   4   7    6.20    1.22
   0  -4   7    5.83    1.03
   0   4  -7   10.35    1.12
   0  -4  -8    6.19    1.29
   0  -4   8    7.63    1.58
   0  -4  -8    8.49    1.35
   0   4   8    8.59    1.82
   0  -4   8    6.76    1.18
   0   4  -8    7.03    1.09
   0  -4  -9   17.10    2.38
   0  -4   9   18.35    2.24
   0  -4  -9   19.11    2.07
   0   4   9   23.56    4.42
   0  -4   9   19.09    2.19
   0   4  -9   17.22    1.92
   0  -4 -10  122.23    9.23
   0  -4  10  107.58    7.73
   0  -4 -10  151.38   10.38
   0   4  10  115.56    8.29
   0  -4  10  132.78    9.24
   0  -4  11   49.34    5.07
   0   4  11   44.52    4.69
   0  -4  11   53.42    5.42
   0   4  12   19.29    2.11
   0  -4  12   17.39    2.23
   0   4  12   10.79    2.46
   0  -4  12   28.55    3.21
   0   4  13   26.27    3.50
   0  -4  13   39.01    5.24
   0   4  13   29.11    4.06
   0  -4  13   37.25    4.98
   0   4  14   11.94    2.01
   0  -4  14    5.18    1.62
   0   4  14    9.77    2.59
   0  -4  14    7.47    2.28
   0   4  15    0.63    0.72
   0  -4  15    2.21    1.19
   0   4  15    7.95    2.43
   0  -4  15    3.16    2.07
   0   4  16    0.96    0.73
   0  -4  16    3.72    1.42
   0   4  16    7.34    2.57
   0  -4  16    3.31    1.87
   0  -4  17   23.61    6.51
   0   4  17   29.97    4.59
   0  -4  17   33.73    4.25
   0  -4  18    1.31    0.78
   0  -4 -18    1.45    1.12
   0   4  18    8.35    2.50
   0  -4  18    5.31    2.35
   0  -4  19   13.26    4.06
   0  -4 -19   26.64    3.40
   0   4  19   24.39    3.62
   0  -4  19   29.58    4.04
   0  -4  20    5.94    1.66
   0  -4 -20    0.97    0.98
   0   4  20    3.15    2.33
   0  -4  20    3.21    1.46
   0  -4  21    6.51    2.82
   0   4  21   17.30    4.42
   0  -4  21   14.82    4.28
   0  -5   0    3.20    1.48
   0   5   0    1.14    0.76
   0  -5   1 1079.31   17.52
   0  -5  -1 1038.26   16.65
   0   5  -1  981.04   15.89
   0   5   1 1004.20   16.10
   0   5  -1 1060.43   16.56
   0  -5   1  966.26   15.02
   0  -5   2   44.32    2.61
   0   5  -2   45.03    2.54
   0  -5  -2   36.94    2.04
   0   5  -2   50.86    3.61
   0  -5   2   42.90    3.04
   0   5   2   43.08    2.34
   0  -5   3  275.16    5.82
   0   5  -3  271.96    5.58
   0  -5  -3  290.49    5.61
   0   5   3  269.34    5.12
   0  -5   3  265.32    4.73
   0  -5  -3  266.29    5.22
   0  -5   4   56.64    6.26
   0   5  -4   53.87    5.88
   0   5   4   62.14    2.39
   0  -5   4   61.28    4.04
   0   5   4   62.61    2.88
   0  -5  -4   53.79    5.83
   0  -5   4   57.85    6.14
   0  -5   5   44.61    3.75
   0   5  -5   44.54    3.74
   0  -5  -5   42.80    3.47
   0   5   5   42.82    3.40
   0  -5   5   42.94    4.08
   0   5   5   44.03    3.80
   0  -5  -5   38.96    3.21
   0  -5   5   46.73    3.65
   0  -5  -6   24.99    4.04
   0  -5   6   29.76    2.81
   0  -5  -6   28.07    2.45
   0   5   6   27.33    2.64
   0  -5   6   33.49    2.79
   0  -5  -7   73.48    6.07
   0  -5   7   75.84    3.36
   0   5   7   71.04    3.33
   0  -5   7   78.56    2.99
   0  -5  -8    1.25    0.41
   0  -5   8    4.36    1.51
   0  -5  -8    1.55    0.72
   0   5   8    1.26    1.03
   0  -5   8    2.68    0.98
   0   5  -8    1.25    0.58
   0  -5  -9   14.11    2.35
   0  -5   9   15.22    2.05
   0  -5  -9   12.42    1.60
   0   5   9   15.44    2.14
   0  -5   9   18.49    2.13
   0   5  -9   15.42    1.77
   0  -5 -10    1.97    0.61
   0  -5  10    4.53    1.77
   0  -5 -10    4.54    1.13
   0   5  10    5.57    1.79
   0  -5  10    3.70    1.34
   0  -5  11   10.64    2.33
   0  -5 -11    9.16    1.92
   0   5  11    5.94    1.57
   0  -5  11    7.29    1.92
   0  -5  12   29.77    3.99
   0  -5 -12   48.16    5.87
   0   5  12   30.99    4.19
   0  -5  12   47.46    5.93
   0  -5  13   57.01   10.89
   0  -5 -13   68.32    5.46
   0   5  13   62.27    5.47
   0  -5  13   64.12    5.33
   0  -5  14    6.46    2.20
   0  -5 -14    3.12    1.50
   0   5  14    2.69    1.61
   0  -5  14    3.84    2.09
   0  -5  15  107.39    9.07
   0  -5 -15  112.56    9.08
   0   5  15   97.23    8.32
   0  -5  15  116.11    9.51
   0  -5  16    4.49    1.67
   0  -5 -16    8.09    1.93
   0   5  16   11.82    3.24
   0  -5  16   11.14    2.60
   0  -5  17   59.56   11.77
   0  -5 -17   65.80    6.60
   0   5  17   79.79    8.33
   0  -5  17   64.56    6.82
   0  -5  18    2.20    1.13
   0  -5 -18    4.92    2.16
   0   5  18    4.55    2.89
   0  -5  18    0.15    1.14
   0  -5  19    1.53    1.08
   0  -5 -19    4.13    1.40
   0   5  19    5.57    2.56
   0  -5  19    4.46    1.40
   0  -5  20    5.93    1.90
   0   5  20    4.08    2.02
   0  -5  20    7.01    2.65
   0  -5  21    1.06    0.68
   0   5  21    2.01    1.74
   0  -5  21    0.45    1.32
   0  -6   0  822.12   22.36
   0   6   0  803.94   21.82
   0   6   0  851.78   22.80
   0  -6   0  791.31   21.15
   0  -6   1  372.27   10.82
   0  -6  -1  337.41    9.76
   0   6  -1  319.02    9.27
   0   6  -1  353.71    9.83
   0   6   1  346.37    9.78
   0  -6   1  333.00    9.18
   0  -6  -1  338.24    9.46
   0  -6   2   57.55    6.36
   0  -6  -2   54.17    5.91
   0   6   2   45.93    3.71
   0   6  -2   53.94    6.36
   0  -6   2   54.32    5.75
   0   6   2   49.02    3.93
   0  -6  -2   50.53    3.95
   0  -6   3  906.40   24.81
   0   6   3  806.49   21.78
   0  -6   3  873.24   23.25
   0  -6  -3  841.27   22.70
   0  -6   4   31.77    2.90
   0  -6  -4   33.16    2.82
   0   6   4   31.82    2.68
   0  -6   4   30.35    3.85
   0   6   4   31.33    2.83
   0  -6  -4   33.12    2.79
   0  -6   4   33.76    2.70
   0  -6  -5  188.35    5.88
   0   6   5  180.63    5.56
   0  -6   5  186.43    6.14
   0   6   5  195.67    6.53
   0  -6  -6    3.51    1.10
   0   6   6    4.81    1.03
   0  -6   6    2.81    0.70
   0   6   6    3.16    1.58
   0  -6   6    4.02    1.05
   0  -6  -7   30.54    5.33
   0  -6   7   37.10    4.32
   0  -6  -7   46.05    2.19
   0  -6   7   44.71    2.07
   0   6   7   41.17    2.45
   0  -6   7   44.91    2.03
   0  -6  -8   27.97    4.43
   0  -6   8   30.20    2.82
   0  -6  -8   31.69    2.61
   0   6   8   27.74    2.58
   0  -6   8   37.95    2.99
   0  -6  -9  122.65    8.64
   0  -6   9  127.19    7.73
   0  -6  -9  158.60    9.04
   0   6   9  138.33    8.35
   0  -6   9  146.02    8.43
   0  -6  10    8.85    2.03
   0  -6 -10   14.83    3.15
   0   6  10   15.26    3.42
   0  -6  10   15.97    1.92
   0  -6  11   84.85    6.71
   0  -6 -11  121.91    8.96
   0   6  11  100.47    7.79
   0  -6  11  101.64    7.66
   0  -6  12    2.36    1.25
   0  -6 -12    6.71    2.06
   0   6  12    1.99    1.14
   0  -6  12    1.48    0.94
   0  -6  13    9.66    1.87
   0  -6 -13   10.32    1.80
   0   6  13    7.05    1.87
   0  -6  13    6.80    1.74
   0  -6  14    3.96    1.69
   0  -6 -14    1.85    0.95
   0   6  14    2.30    1.41
   0  -6  14    2.79    1.56
   0  -6  15    1.16    1.25
   0  -6 -15    3.15    1.50
   0   6  15    5.77    2.24
   0  -6  15    2.18    1.50
   0  -6  16    4.90    1.63
   0  -6 -16    7.86    2.17
   0   6  16    9.60    2.69
   0  -6  16    6.32    2.00
   0  -6  17    2.88    1.42
   0  -6 -17    1.58    0.95
   0   6  17    1.09    1.36
   0  -6  17    1.96    1.13
   0  -6  18    5.48    2.47
   0  -6 -18    0.77    0.92
   0   6  18    3.00    1.49
   0  -6  18    2.83    1.57
   0  -6  19    6.37    2.06
   0   6  19   13.27    3.75
   0  -6  19    8.25    2.33
   0  -6  20    3.87    2.17
   0   6  20    3.92    2.48
   0  -6  20    1.71    1.23
   0  -7   0    1.10    1.02
   0   7   0    0.99    0.74
   0  -7   0    0.28    0.55
   0  -7   1 1684.71  173.86
   0  -7  -1 1687.43  174.11
   0   7  -1 1721.31  177.49
   0   7   1 1865.71  192.41
   0  -7  -1 1729.96  178.40
   0  -7   2   48.14    4.13
   0   7   2   51.74    4.21
   0   7  -2   54.84    7.59
   0  -7   2   50.05    3.83
   0   7   2   52.26    4.21
   0  -7  -2   50.13    3.96
   0  -7   3    3.10    1.73
   0  -7  -3    3.02    1.15
   0   7   3    2.14    0.71
   0   7  -3    0.77    0.53
   0  -7   3    1.53    0.44
   0   7   3    1.30    0.94
   0  -7  -3    0.44    0.65
   0  -7   4   15.80    2.26
   0  -7  -4   15.04    2.05
   0   7   4   13.54    1.70
   0  -7   4   12.54    1.88
   0   7   4   12.50    1.83
   0  -7  -4   11.32    1.62
   0  -7   5    5.58    1.46
   0  -7  -5    8.77    1.49
   0   7   5    6.74    1.06
   0  -7   5    5.75    1.05
   0   7   5    3.89    0.97
   0  -7   5    9.61    1.38
   0  -7   6   33.46    2.92
   0  -7  -6   44.16    3.42
   0   7   6   39.55    3.03
   0  -7   6   34.23    4.78
   0   7   6   40.89    3.47
   0  -7   6   45.96    3.42
   0  -7  -7    8.32    1.19
   0  -7   7   10.64    1.63
   0  -7  -7    8.88    1.27
   0  -7   7    5.20    0.96
   0   7   7    7.94    1.44
   0  -7   7    6.78    1.04
   0  -7  -8   10.47    2.29
   0  -7   8   16.74    2.24
   0  -7  -8   17.83    2.06
   0  -7   8   12.35    2.26
   0   7   8   21.54    2.80
   0  -7   8   18.42    2.11
   0  -7  -9    3.29    0.87
   0  -7   9    5.03    1.51
   0  -7  -9    4.06    1.08
   0  -7   9    2.05    0.71
   0   7   9    6.90    1.80
   0  -7   9    3.22    0.85
   0  -7  10   47.10    4.59
   0  -7 -10   52.19    4.75
   0   7  10   51.82    5.01
   0  -7  10   49.74    4.51
   0  -7  11   13.63    2.18
   0  -7 -11   19.57    2.75
   0   7  11   28.90    4.01
   0  -7  11   22.88    3.16
   0  -7  12   87.99    7.06
   0  -7 -12  103.15    7.84
   0   7  12  105.46    8.33
   0  -7  12  115.85    8.77
   0  -7  13  146.39   11.50
   0  -7 -13  179.12   13.43
   0   7  13  162.73   12.65
   0  -7  13  170.48   12.91
   0  -7  14   35.86    4.39
   0  -7 -14   43.82    4.81
   0   7  14   45.17    5.30
   0  -7  14   44.65    5.00
   0  -7  15  171.65   15.99
   0  -7 -15  194.63   17.68
   0   7  15  167.36   15.73
   0  -7  15  183.21   16.76
   0  -7  16   16.39    3.80
   0  -7 -16   13.50    2.98
   0   7  16   15.25    3.51
   0  -7  17   10.24    2.72
   0  -7 -17   13.30    3.25
   0   7  17   14.86    3.82
   0  -7  17   13.53    3.45
   0  -7  18    8.59    2.32
   0   7  18   12.66    3.36
   0  -7  18   22.07    3.30
   0  -7  19    2.38    0.72
   0   7  19    5.93    2.22
   0  -7  19    2.62    1.18
   0  -7  20    5.83    2.60
   0   7  20   15.21    4.73
   0  -7  20   15.10    4.39
   0  -8   0  356.24   10.74
   0   8   0  395.29   11.28
   0  -8   0  348.51    9.94
   0  -8   1    5.96    1.43
   0  -8  -1    8.76    1.69
   0   8  -1    9.72    1.61
   0   8   1    8.36    1.31
   0  -8   1    4.28    0.80
   0  -8  -1    3.76    0.73
   0  -8   2  387.19   11.77
   0  -8  -2  360.29   10.71
   0   8  -2  374.41   10.76
   0   8   2  386.02   11.19
   0  -8   2  368.47   10.37
   0  -8  -2  368.17   10.60
   0  -8   3   53.59    2.83
   0  -8  -3   59.11    2.67
   0   8   3   58.65    2.50
   0   8  -3   72.20    6.03
   0  -8   3   57.16    2.18
   0   8   3   66.75    2.98
   0  -8  -3   60.96    2.53
   0  -8   4    1.42    1.22
   0  -8  -4    1.07    0.79
   0  -8   4    0.75    0.46
   0   8   4    2.39    0.76
   0  -8   5    4.18    1.73
   0  -8  -5    2.03    1.11
   0   8   5   -0.21    0.66
   0  -8   5    1.63    0.63
   0   8   5    3.03    1.19
   0  -8   5    1.93    0.70
   0  -8   6    5.01    1.83
   0  -8  -6    4.52    1.14
   0   8   6    2.43    0.90
   0  -8   6    0.68    0.46
   0   8   6    1.09    0.84
   0  -8   6    0.38    0.55
   0  -8   7   23.11    2.88
   0  -8  -7   19.42    2.37
   0  -8   7   14.32    2.56
   0   8   7   18.06    2.24
   0  -8   7   22.18    2.36
   0  -8   8    3.12    1.33
   0  -8  -8   11.08    2.33
   0  -8   8    5.43    1.26
   0   8   8    9.72    2.14
   0  -8   8    7.75    1.61
   0  -8   9  153.69   11.53
   0  -8  -9  177.84   12.82
   0   8   9  156.92   11.67
   0  -8   9  162.28   11.67
   0  -8  10   56.56    6.99
   0  -8 -10   66.78    4.31
   0   8  10   59.03    7.34
   0  -8  10   67.38    4.31
   0  -8  11   70.80    5.89
   0  -8 -11   72.06    5.72
   0   8  11   58.25   11.12
   0  -8  11   76.46    6.13
   0  -8  12    3.96    1.75
   0  -8 -12    4.50    1.69
   0   8  12    4.44    1.83
   0  -8  12    2.62    1.06
   0  -8  13    8.43    1.79
   0  -8 -13   18.85    2.61
   0   8  13    5.77    2.21
   0  -8  13   15.39    2.46
   0  -8  14   30.40    5.43
   0  -8 -14   28.26    4.90
   0   8  14   35.47    6.30
   0  -8  14   28.93    5.15
   0  -8  15    2.43    1.35
   0  -8 -15    4.22    1.82
   0   8  15    5.82    2.04
   0  -8  15    5.71    1.74
   0  -8  16   18.03    3.74
   0  -8 -16   22.48    4.08
   0   8  16   24.53    4.81
   0  -8  16   18.75    3.48
   0  -8  17   23.17    3.54
   0  -8 -17   18.91    2.53
   0   8  17   23.37    3.54
   0  -8  17   23.88    3.24
   0  -8  18    6.80    2.16
   0   8  18    3.72    1.99
   0  -8  18    1.99    1.01
   0  -8  19    2.69    1.35
   0   8  19    2.80    1.41
   0  -8  19    4.04    1.63
   0  -8  20    6.15    2.35
   0   8  20   -0.92    1.28
   0  -8  20    0.24    0.97
   0   9   0    2.15    0.77
   0  -9   0    1.41    0.80
   0  -9   1   17.70    2.28
   0  -9  -1   15.32    1.99
   0   9  -1   15.90    2.21
   0   9   1   15.12    1.72
   0  -9   1   13.19    1.50
   0  -9  -1   13.79    1.62
   0  -9   2   78.68    6.03
   0  -9  -2   81.92    6.03
   0   9  -2   77.86    7.56
   0   9   2   85.67    6.11
   0  -9   2   74.98    5.22
   0  -9  -2   65.86    4.71
   0  -9   3    7.19    1.94
   0  -9  -3    4.11    1.66
   0   9  -3    2.67    0.56
   0  -9   3    2.51    0.59
   0   9   3    4.22    1.12
   0  -9   4  187.10   13.04
   0  -9  -4  174.03   11.96
   0  -9   4  160.25   10.75
   0   9   4  137.59    9.55
   0  -9   5  135.77    8.28
   0  -9  -5  132.81    7.82
   0  -9   5  103.12    8.89
   0   9   5  118.84    7.07
   0  -9   5  132.25    7.49
   0  -9   6  337.42   19.06
   0  -9  -6  331.22   18.36
   0  -9   6  310.07   17.14
   0   9   6  294.61   16.54
   0  -9   6  326.56   17.87
   0  -9   7   90.71    7.23
   0  -9  -7   91.22    6.90
   0  -9   7   61.41    6.94
   0   9   7   84.38    6.58
   0  -9   7   91.46    6.74
   0  -9   8    0.77    1.78
   0  -9  -8    0.59    0.77
   0  -9   8    0.65    0.32
   0   9   8    2.62    1.35
   0  -9   8    2.41    1.12
   0  -9   9   16.75    2.83
   0  -9  -9   15.08    2.30
   0  -9   9    6.19    1.67
   0   9   9   12.72    2.24
   0  -9   9   13.04    1.88
   0  -9  10    5.57    2.02
   0  -9 -10    7.92    2.11
   0   9  10    6.66    2.24
   0  -9  10    2.25    1.16
   0  -9  11   75.84    6.42
   0  -9 -11   88.94    7.01
   0   9  11   80.17    6.77
   0  -9  11   85.70    6.78
   0  -9  12  174.52   13.99
   0  -9 -12  188.43   14.57
   0   9  12  185.29   14.79
   0  -9  12  221.37   17.03
   0  -9  13   10.90    2.72
   0  -9 -13   10.13    2.15
   0   9  13    7.31    2.15
   0  -9  13   11.19    2.32
   0  -9  14    2.86    1.33
   0  -9 -14    1.55    0.95
   0   9  14    1.49    1.13
   0  -9  14    1.26    0.94
   0  -9  15    5.01    2.35
   0  -9 -15    7.78    2.71
   0   9  15    5.44    2.48
   0  -9  15    1.78    1.11
   0  -9  16   71.48    3.77
   0  -9 -16   63.01    2.88
   0   9  16   80.06    4.37
   0  -9  16   77.85    3.57
   0  -9  17    3.50    1.58
   0   9  17    6.92    2.31
   0  -9  17    6.67    2.29
   0  -9  18   27.48    6.04
   0   9  18   21.10    4.98
   0  -9  18   23.83    5.28
   0  -9  19    2.50    1.63
   0   9  19   -0.31    1.38
   0 -10   0  761.04  129.72
   0  10   0  836.19  142.38
   0 -10   0  731.11   39.39
   0 -10   1   47.73    5.11
   0 -10  -1   40.91    4.37
   0  10  -1   43.64    4.90
   0  10   1   45.56    4.50
   0 -10   1   35.01    3.47
   0 -10  -1   41.37    4.09
   0 -10   2  363.25   20.32
   0 -10  -2  367.70   20.46
   0  10  -2  367.10   20.31
   0  10   2  332.18   18.32
   0 -10   2  336.28   18.33
   0 -10   3  156.74    9.45
   0 -10  -3  156.52    9.21
   0  10  -3  145.94   11.09
   0  10   3  134.82    7.88
   0 -10   3  131.94    7.45
   0 -10   4   44.31    4.47
   0 -10  -4   34.96    3.52
   0 -10   4   34.27    3.09
   0  10   4   27.47    2.78
   0 -10   5  220.08   16.08
   0 -10  -5  203.62   14.73
   0 -10   5  168.61   11.99
   0  10   5  164.39   11.96
   0 -10   5  194.04   13.77
   0 -10   6   22.31    2.77
   0 -10  -6   22.52    2.66
   0 -10   6   17.00    2.87
   0  10   6   20.24    2.27
   0 -10   6   18.97    1.93
   0 -10   7   49.13    6.26
   0 -10  -7   44.21    5.49
   0 -10   7   30.00    4.69
   0  10   7   47.52    5.96
   0 -10   7   48.28    5.74
   0 -10   8   28.39    4.07
   0 -10  -8   30.01    4.08
   0 -10   8   16.48    3.32
   0  10   8   30.24    4.10
   0 -10   8   29.81    3.75
   0 -10   9   85.25    6.99
   0 -10  -9   82.20    6.47
   0  10   9   75.24    6.19
   0 -10   9   88.62    6.68
   0 -10  10   17.93    3.01
   0 -10 -10   12.13    1.94
   0  10  10   13.38    2.55
   0 -10  10   13.23    1.93
   0 -10  11  137.95   11.32
   0 -10 -11  158.01   12.39
   0  10  11  145.90   11.90
   0 -10  11  139.75   10.92
   0 -10  12  185.85   16.24
   0 -10 -12  215.60   18.23
   0  10  12  187.66   16.30
   0 -10  12  206.98   17.46
   0 -10  13    4.14    2.03
   0 -10 -13    3.61    1.51
   0  10  13    3.10    1.38
   0 -10  13    3.09    1.37
   0 -10  14   62.43    6.91
   0 -10 -14   68.23    6.99
   0  10  14   70.98    7.82
   0 -10  14   69.69    7.31
   0 -10  15    0.94    1.33
   0 -10 -15    3.97    1.56
   0  10  15    2.08    1.15
   0 -10  15    4.79    1.93
   0 -10  16   35.44    4.51
   0  10  16   38.72    4.82
   0 -10  16   45.44    4.96
   0 -10  17   -0.33    1.09
   0  10  17    0.66    1.22
   0 -10  18    1.33    1.46
   0  10  18    2.81    1.35
   0 -11   0    5.23    2.01
   0  11   0    2.86    1.12
   0 -11   0    2.62    0.86
   0 -11   1    5.74    1.67
   0 -11  -1   11.26    2.42
   0  11  -1    7.92    1.91
   0  11   1    7.98    1.72
   0 -11   1    7.68    1.57
   0 -11   2  217.36   15.92
   0 -11  -2  179.10   13.15
   0  11  -2  185.37   14.14
   0  11   2  150.84   10.94
   0 -11   2  158.66   11.33
   0 -11   3  101.85    8.01
   0 -11  -3   98.22    7.61
   0  11  -3   80.24    6.85
   0  11   3   82.13    6.29
   0 -11   3   72.07    6.08
   0 -11   4  193.26   11.42
   0 -11  -4  206.82   11.92
   0  11   4  171.91    9.88
   0 -11   4  170.81    9.50
   0 -11   5   45.36    5.99
   0 -11  -5   46.19    5.78
   0 -11   5   41.10    4.93
   0  11   5   45.40    5.64
   0 -11   5   55.14    6.50
   0 -11   6   69.90    5.92
   0 -11  -6   62.71    5.14
   0 -11   6   51.31    6.18
   0  11   6   72.27    5.88
   0 -11   6   71.53    5.37
   0 -11   7    4.67    1.71
   0 -11  -7    1.63    0.88
   0  11   7    0.07    0.98
   0 -11   7    1.62    0.66
   0 -11   8   45.26    5.77
   0 -11  -8   43.38    5.08
   0  11   8   35.32    4.39
   0 -11   8   35.69    4.04
   0 -11   9    3.50    1.67
   0 -11  -9    4.16    1.41
   0  11   9    2.82    1.28
   0 -11   9    4.93    1.67
   0 -11  10   18.61    2.69
   0 -11 -10   29.57    3.53
   0  11  10   30.78    3.75
   0 -11  10   38.76    4.15
   0 -11  11   40.55    4.46
   0 -11 -11   39.74    4.00
   0  11  11   35.94    8.13
   0 -11  11   43.31    4.16
   0 -11  12    5.60    2.13
   0 -11 -12    2.63    1.23
   0  11  12    3.02    1.26
   0 -11  12    2.80    1.12
   0 -11  13  120.84   12.31
   0 -11 -13  109.30   10.83
   0  11  13  113.72   11.65
   0 -11  13  117.58   11.57
   0 -11  14   -0.15    1.34
   0 -11 -14    0.89    0.81
   0  11  14    4.62    2.15
   0 -11  14    1.08    0.75
   0 -11  15    3.35    1.51
   0  11  15    5.53    2.56
   0 -11  16   17.18    4.47
   0  11  16   19.44    4.71
   0 -11  17    3.27    1.58
   0  11  17    2.14    1.91
   0 -11  18    4.87    2.12
   0  11  18    3.11    1.78
   0 -12   0  215.29   12.38
   0  12   0  192.62   11.87
   0 -12   1   44.31    5.80
   0 -12  -1   40.80    5.23
   0  12  -1   34.76    5.56
   0  12   1   31.80    5.83
   0 -12   1   28.68    3.60
   0 -12   2   14.04    2.62
   0 -12  -2    8.67    2.19
   0  12  -2   10.78    2.46
   0  12   2   10.08    2.53
   0 -12   2    9.41    2.13
   0 -12   3    1.60    1.44
   0 -12  -3    5.95    2.14
   0  12   3    0.72    0.89
   0 -12   3   -0.23    0.59
   0 -12   4   36.64    5.07
   0 -12  -4   37.72    4.90
   0  12   4   29.18    3.89
   0 -12   5  238.00   18.05
   0 -12  -5  238.73   17.76
   0  12   5  196.24   14.76
   0 -12   5  190.96   14.02
   0 -12   5  220.76   16.16
   0 -12   6   39.03    5.17
   0 -12  -6   44.00    5.25
   0  12   6   37.01    4.56
   0 -12   6   30.55    3.46
   0 -12   7   90.74    7.97
   0 -12  -7  101.81    8.37
   0  12   7   77.71    6.63
   0 -12   7   90.14    7.12
   0 -12   8   34.19    4.27
   0 -12  -8   27.73    3.32
   0  12   8   29.69    3.76
   0 -12   8   31.19    3.31
   0 -12   9    2.15    1.62
   0 -12  -9    1.53    1.28
   0  12   9    1.00    0.99
   0 -12   9    2.16    0.88
   0 -12  10    2.36    1.54
   0 -12 -10    3.47    1.34
   0  12  10    2.49    1.56
   0 -12  10    0.86    0.50
   0 -12  11    2.06    1.45
   0 -12 -11    6.70    1.88
   0  12  11    3.91    1.37
   0 -12  11    3.11    0.90
   0 -12  12    6.99    2.61
   0 -12 -12    3.80    1.66
   0  12  12   10.74    2.53
   0 -12  13    3.85    1.75
   0 -12 -13    4.71    1.88
   0  12  13    7.40    2.22
   0 -12  14    1.08    1.22
   0  12  14    5.66    2.50
   0 -12  15    7.54    2.62
   0  12  15    1.10    1.20
   0 -12  16    3.18    1.93
   0  12  16    2.16    1.38
   0 -12  17    7.33    2.62
   0  12  17    4.11    2.31
   0 -13   0    3.22    1.89
   0  13   0    1.00    0.68
   0 -13   1    6.37    2.36
   0 -13  -1    2.58    1.44
   0  13  -1    1.76    0.69
   0  13   1    1.27    0.66
   0 -13   2   96.17    8.05
   0 -13  -2  114.82    9.29
   0  13  -2   94.57    9.06
   0  13   2   96.18   12.90
   0 -13   3   24.08    3.40
   0 -13  -3   28.29    3.96
   0  13  -3   21.64    4.10
   0  13   3   30.72    3.74
   0 -13   4    6.29    1.65
   0 -13  -4    6.23    1.85
   0  13   4    3.24    1.30
   0 -13   5   79.54    7.02
   0 -13  -5   79.06    6.73
   0  13   5   64.73    5.56
   0 -13   5   79.56    6.30
   0 -13   6    6.35    2.21
   0 -13  -6   12.37    2.57
   0  13   6    6.70    1.30
   0 -13   6   11.26    1.50
   0 -13   7   35.01    6.44
   0 -13  -7   24.36    4.53
   0  13   7   24.42    4.34
   0 -13   8    4.05    2.08
   0 -13  -8    0.12    0.90
   0  13   8    1.44    0.88
   0 -13   8    0.56    0.51
   0 -13   9    4.76    2.32
   0 -13  -9    1.39    0.87
   0  13   9    1.00    0.90
   0 -13  10    5.53    2.02
   0 -13 -10   10.98    2.51
   0  13  10   11.94    2.74
   0 -13  11   17.45    3.56
   0 -13 -11   24.82    4.44
   0  13  11   12.67    2.96
   0 -13  12   22.08    2.99
   0 -13 -12   17.58    4.08
   0  13  12   13.91    3.56
   0 -13  13    3.58    2.33
   0  13  13    4.19    2.21
   0 -13  14   32.45    7.01
   0  13  14   26.48    5.96
   0 -13  15    4.35    2.16
   0  13  15    3.35    1.87
   0 -13  16    3.21    1.79
   0  13  16    2.15    1.27
   0 -14   0   67.01    5.94
   0  14   0   46.34    5.84
   0 -14   1    4.76    2.14
   0 -14  -1    4.70    2.08
   0  14  -1    2.16    0.91
   0  14   1    2.34    1.06
   0 -14   2   15.83    3.28
   0 -14  -2   28.61    5.10
   0  14  -2   17.36    4.10
   0  14   2   23.46    5.64
   0 -14   3   34.62    6.14
   0 -14  -3   26.91    4.79
   0  14  -3   25.83    4.39
   0  14   3   22.18    4.12
   0 -14   4   11.59    2.46
   0 -14  -4   16.18    3.12
   0  14   4   15.55    2.95
   0 -14   5   62.31    6.75
   0 -14  -5   47.37    4.97
   0  14   5   31.58    3.57
   0 -14   6    1.23    1.64
   0 -14  -6    3.92    1.65
   0  14   6    3.90    1.47
   0 -14   6    2.44    0.80
   0 -14   7    1.66    1.59
   0 -14  -7    2.28    1.67
   0  14   7    2.24    1.44
   0 -14   8   25.62    5.34
   0 -14  -8   16.23    3.56
   0  14   8   31.96    3.82
   0 -14   9    7.40    3.35
   0 -14  -9    2.96    1.33
   0  14   9    0.40    1.02
   0 -14  10    6.05    2.44
   0 -14 -10    2.13    1.12
   0  14  10    2.91    1.58
   0 -14  11   16.99    2.61
   0 -14 -11   18.11    2.59
   0  14  11    9.92    2.81
   0 -14  12    3.67    1.62
   0  14  12    3.75    1.39
   0 -14  13   17.32    2.58
   0  14  13   18.53    4.35
   0 -14  14    8.82    2.90
   0  14  14   14.27    3.48
   0 -14  15    0.47    1.26
   0  14  15    2.00    1.31
   0 -15   0    3.82    1.61
   0  15   0    0.27    0.57
   0 -15   1    0.55    1.54
   0 -15  -1    2.05    1.34
   0  15  -1    1.18    0.61
   0  15   1    1.07    0.70
   0 -15   2    6.71    2.68
   0 -15  -2    4.01    1.70
   0  15  -2    0.45    0.38
   0  15   2    2.39    1.00
   0 -15   3   24.70    5.13
   0 -15  -3   24.61    5.12
   0  15   3   10.59    2.69
   0 -15   4   27.51    5.77
   0 -15  -4   33.10    3.91
   0  15   4   21.22    4.19
   0 -15   5    1.55    1.66
   0  15   5    0.24    0.66
   0 -15   6   14.18    3.15
   0 -15  -6    5.87    2.28
   0  15   6    2.91    0.95
   0 -15   7   28.06    5.16
   0 -15  -7   30.74    3.95
   0  15   7   26.21    4.75
   0 -15   8   35.04    3.42
   0 -15  -8   33.84    2.83
   0  15   8   32.79    2.82
   0 -15   9    4.65    2.58
   0 -15  -9    1.28    0.97
   0 -15  10    0.94    1.38
   0 -15 -10    1.56    0.88
   0  15  10    2.33    1.84
   0 -15  11    0.96    1.51
   0  15  11    3.63    1.65
   0 -15  12    6.80    2.77
   0  15  12    2.86    1.51
   0 -15  13   18.23    5.27
   0  15  13   15.01    4.41
   0 -16   0    3.16    1.75
   0 -16   1    9.35    2.54
   0 -16  -1    2.32    1.28
   0  16   1    3.70    1.43
   0 -16   2    2.02    1.30
   0 -16  -2    1.29    1.11
   0  16   2   -0.03    0.49
   0 -16   3   41.81    5.14
   0 -16  -3   36.91    4.77
   0  16   3   19.67    4.55
   0 -16   4   14.79    3.90
   0 -16  -4    3.69    1.70
   0  16   4    6.82    1.92
   0 -16   5   24.44    2.74
   0 -16  -5   26.77    2.48
   0  16   5   14.83    3.87
   0 -16   6    3.32    2.10
   0 -16  -6    2.14    1.65
   0  16   6    3.50    1.66
   0 -16   7    4.89    3.38
   0 -16  -7    4.11    2.00
   0  16   7    2.52    1.04
   0 -16   8   14.87    4.15
   0 -16  -8   17.42    4.31
   0  16   8   19.29    4.48
   0 -16   9   18.44    4.42
   0 -16  -9   17.45    2.25
   0  16   9   13.56    3.74
   0 -16  10    1.41    1.60
   0  16  10    1.73    1.47
   0 -16  11   45.49    9.88
   0  16  11   36.13    7.69
   0 -16  12    3.02    1.97
   0  16  12    0.32    1.06
   0 -17   0    5.12    2.46
   0 -17   1    6.39    2.32
   0 -17  -1    6.48    2.43
   0 -17   2    9.67    2.96
   0 -17  -2    9.45    2.63
   0 -17   3    1.95    1.47
   0 -17  -3    6.30    1.76
   0 -17   4    3.46    1.55
   0 -17  -4    4.98    1.87
   0 -17   5    3.85    1.70
   0 -17  -5    2.59    1.32
   0  17   5    2.86    1.08
   0 -17   6   22.59    5.07
   0 -17  -6   17.34    2.14
   0  17   6   16.58    4.24
   0 -17   7    6.38    2.47
   0 -17  -7    3.95    1.64
   0  17   7    1.81    1.00
   0 -17   8    6.45    2.46
   0 -17  -8    8.34    2.87
   0 -17   9   10.12    3.39
   0  17   9    7.42    2.54
   0 -17  10   10.07    3.79
   0  17  10    8.87    3.06
   0 -18   0    2.12    1.98
   0 -18   1    6.60    2.71
   0 -18  -1    4.02    1.95
   0 -18   2   14.53    4.07
   0 -18  -2    7.40    2.61
   0 -18   3    4.85    2.40
   0 -18  -3    0.18    1.22
   0 -18   4    4.62    1.81
   0 -18  -4   -1.00    1.18
   0 -18   5    6.65    2.67
   0 -18  -5    2.74    1.57
   0 -18   6    4.12    1.80
   0 -18  -6    1.82    1.08
   0 -18   7    7.44    2.82
   0 -18  -7    3.46    1.89
   0 -19   0    6.04    2.92
   0 -19   1    3.80    1.89
   0 -19  -1    3.26    2.38
   0 -19   2    3.83    1.97
   0 -19  -2    4.98    2.53
   0 -19   3   18.32    5.24
   0 -19  -3   18.02    5.20
  -1   0  22    6.11    2.75
  -1   0  21   -0.38    1.44
  -1   0  20   37.75   11.41
  -1   0  20   86.96    6.37
  -1   0  19    1.36    1.15
  -1   0  19    2.51    1.32
  -1   0  18    1.05    0.81
  -1   0  18    5.35    2.06
  -1   0  17    1.43    0.77
  -1   0  17    1.82    1.68
  -1   0  16   26.36    4.56
  -1   0  16   29.42    3.84
  -1   0  15    1.02    0.71
  -1   0  15    8.18    2.94
  -1   0  14   16.15    3.33
  -1   0  14   28.76    4.07
  -1   0  13    3.44    1.27
  -1   0  13    3.47    1.81
  -1   0  12  150.48   11.18
  -1   0  12  170.63   10.15
  -1   0  11    1.86    0.94
   1   0 -11   -0.25    0.45
  -1   0  11    2.68    1.20
  -1   0  10   77.23    5.87
   1   0 -10   68.41    4.88
  -1   0  10   77.12    5.81
  -1   0   9    0.99    0.68
   1   0  -9    1.49    0.58
  -1   0   9    5.69    1.91
  -1   0   8    2.83    0.82
   1   0  -8    0.95    0.51
  -1   0   8    2.94    1.21
  -1   0   7    0.12    0.67
   1   0  -7    1.09    0.72
  -1   0   7    1.02    1.12
   1   0  -7    1.33    0.72
  -1   0   6  101.93    4.17
   1   0  -6   97.12    3.96
  -1   0   6  113.07    4.90
   1   0  -6   96.46    4.19
  -1   0   5    1.04    0.50
  -1   0   5    4.49    1.51
   1   0  -5    0.63    0.83
  -1   0   4 9999.00  714.97
   1   0  -4 9471.71  677.26
  -1   0   3    1.03    0.52
   1   0  -3    2.74    0.72
  -1   0   3    1.96    1.44
   1   0  -3    4.88    1.35
  -1   0   2  799.87   12.22
   1   0  -2  778.56   11.89
  -1   0   2  817.65   12.87
  -1   0   1    2.23    0.42
   1   0  -1    1.31    0.34
   1   0  -1    1.14    0.52
  -1   0   1    1.15    0.46
  -1   0   0 1413.33   21.47
   1   0   0 1331.07   20.23
  -1   0   0 1383.35   21.03
   1   0   1    1.34    0.55
  -1   0  -1    1.14    0.48
   1   0   1    1.93    0.70
  -1   0  -1    0.29    0.57
   1   0   2   75.94    3.61
  -1   0  -2   72.46    3.76
   1   0   2   77.66    3.23
  -1   0  -2   74.85    3.12
   1   0   3    3.68    1.31
  -1   0  -3    2.62    1.20
   1   0   3    4.24    1.07
  -1   0  -3    5.77    1.34
   1   0   4 2644.50   40.43
  -1   0  -4 2513.50   38.61
   1   0   4 2632.39   40.04
  -1   0  -4 2543.89   38.67
   1   0   5    2.87    1.07
  -1   0  -5    1.56    0.77
   1   0   5    1.25    1.03
  -1   0  -5    2.25    1.02
   1   0   6  257.05    8.65
  -1   0  -6  237.83    7.16
   1   0   6  253.88    7.60
  -1   0  -6  242.03    7.20
   1   0   7    2.28    0.79
  -1   0  -7    3.29    1.22
   1   0   7    1.76    1.02
   1   0   8   15.94    2.61
   1   0   8   19.55    2.51
  -1   0  -8   19.79    2.52
   1   0   9    0.62    0.58
   1   0   9    0.28    1.16
   1   0  10  194.48   17.66
   1   0  10  209.92   14.38
   1   0  11    2.81    1.29
   1   0  11    2.54    1.21
   1   0  12  702.41   49.21
   1   0  12  719.25   50.35
   1   0  13    3.50    1.54
   1   0  13    1.27    1.17
   1   0  14   25.83    4.61
   1   0  14   24.31    3.65
   1   0  15   -0.25    1.02
   1   0  15    5.47    2.42
   1   0  16   35.86    8.95
   1   0  16   49.80    5.41
   1   0  17    3.14    1.30
   1   0  17    1.56    1.50
   1   0  18   12.34    2.92
   1   0  18   11.84    2.80
   1   0  19    1.73    1.12
   1   0  19    4.03    2.07
   1   0  20   68.88   18.08
   1   0  20  126.81    5.52
   1   0  21    1.02    0.88
   1   0  21    2.41    1.64
  -1   1  22    3.17    2.36
  -1  -1  22    2.30    1.54
  -1  -1  21   17.35    2.81
  -1   1  21   36.63    7.82
  -1  -1  21   34.92    7.59
  -1   1  20    0.61    0.54
  -1  -1  20    1.08    0.71
  -1   1  20    3.54    1.76
  -1  -1  20    4.11    2.18
  -1   1  19    5.78    2.17
  -1  -1  19    7.84    3.08
  -1   1  19    6.56    2.19
  -1  -1  19    4.52    2.01
  -1   1  18   54.84    6.59
  -1  -1  18   35.37    6.98
  -1   1  18   64.50    7.03
  -1  -1  18   66.97    7.42
  -1   1  17   16.10    3.20
  -1  -1  17    3.54    1.27
  -1   1  17    6.44    2.45
  -1  -1  17    4.27    2.37
  -1   1  16   22.44    4.11
  -1  -1  16   24.59    4.26
  -1   1  16   29.22    3.83
  -1  -1  16   32.41    4.24
  -1   1  15   32.78    5.28
  -1  -1  15   36.15    6.25
  -1   1  15   52.34    6.51
  -1  -1  15   43.10    5.44
  -1   1  14    0.93    0.74
  -1  -1  14    3.78    2.03
  -1   1  14    2.80    1.66
  -1  -1  14    1.01    1.41
  -1   1  13    3.98    1.31
  -1  -1  13    4.95    1.29
  -1   1  13    9.87    2.55
  -1  -1  13   10.29    2.09
  -1   1  12  150.11   10.77
  -1  -1  12  129.78    7.63
   1  -1 -12  109.31    6.38
  -1   1  12  152.08    9.26
  -1  -1  12  139.82    8.51
  -1   1  11  124.19    9.47
  -1  -1  11  112.78    6.71
   1  -1 -11  108.85    6.29
  -1   1  11  136.02    8.31
  -1  -1  11  130.94    7.97
  -1   1  10   70.48    6.54
  -1  -1  10   72.77    5.27
   1  -1 -10   62.68    4.48
   1   1 -10   61.84    4.52
  -1   1  10   69.28    5.33
  -1  -1  10   71.27    5.43
  -1   1   9    4.91    0.99
  -1  -1   9    3.50    0.92
   1  -1  -9    2.98    0.67
   1   1  -9    4.18    1.00
  -1   1   9    2.90    1.28
  -1  -1   9    7.25    2.15
  -1   1   8   14.09    2.05
  -1  -1   8   11.86    1.46
   1  -1  -8   11.47    1.13
   1   1  -8   13.66    1.39
  -1   1   8   12.04    1.54
  -1  -1   8   12.11    1.59
  -1   1   7    5.93    1.05
  -1  -1   7    3.45    0.99
   1  -1  -7    5.05    0.68
   1   1  -7    6.21    0.89
  -1   1   7    4.96    1.08
  -1  -1   7    5.99    1.38
   1  -1  -7    7.74    1.15
   1   1  -7    4.56    0.87
  -1   1   6   23.65    1.37
   1  -1  -6   24.54    1.25
   1   1  -6   25.27    1.47
  -1   1   6   24.31    1.74
  -1  -1   6   27.29    1.85
  -1   1   5 1611.42   24.40
   1  -1  -5 1553.54   23.51
  -1   1   5 1590.71   24.99
  -1  -1   5 1582.91   24.78
   1  -1  -5 1534.63   24.00
  -1  -1   4  704.71   11.34
   1   1  -4  702.88   11.22
  -1   1   4  715.66   11.85
   1  -1  -4  723.46   11.90
  -1  -1   4  744.58   12.28
   1   1  -4  695.29   11.43
  -1  -1   3 2858.92   43.04
   1   1  -3 2833.40   42.62
  -1   1   3 2905.91  207.91
   1  -1  -3 2912.46  208.38
  -1  -1   3 2961.24  211.88
  -1   1   2 2467.65   36.67
  -1  -1   2 2562.14   38.55
   1   1  -2 2519.92   37.91
  -1   1   2 2505.14   37.23
  -1   1   2 2600.91   39.25
   1  -1  -2 2561.90   38.61
   1  -1  -1  103.22    3.88
  -1   1   1  102.19    3.84
  -1  -1   1  102.23    4.06
   1   1  -1  100.16    3.91
   1   1  -1  103.09    5.56
  -1  -1   1  104.50    4.68
  -1   1   1  106.96    4.12
   1  -1   0 1205.31   18.35
  -1   1   0 1130.47   17.27
  -1  -1   0 1205.20   18.56
   1   1   0 1149.33   17.67
   1  -1   0 1205.20   18.26
  -1   1   0 1198.88   18.17
   1   1   0 1218.76   18.78
  -1  -1   0 1120.45   17.28
  -1  -1  -1  383.76    6.52
   1  -1   1  395.82    6.69
  -1   1  -1  389.27    7.06
   1  -1   1  401.37    6.47
   1   1   1  387.83    6.50
  -1   1  -1  384.91    6.13
  -1  -1  -1  374.64    6.34
   1   1   2    8.20    0.91
  -1  -1  -2    9.46    1.40
   1  -1   2    9.80    1.55
  -1   1  -2    9.52    1.01
   1   1   2    6.72    0.78
   1  -1   2    7.73    0.76
  -1  -1  -2    6.38    0.81
  -1   1  -2    8.60    0.74
   1   1   3   87.41    4.71
  -1  -1  -3   90.92    6.26
   1  -1   3   93.13    5.11
  -1   1  -3   80.30    3.53
   1   1   3   90.54    3.89
   1  -1   3   89.98    3.65
  -1  -1  -3   83.31    3.59
  -1   1  -3   87.42    3.51
   1   1   4 1235.37   19.64
  -1  -1  -4 1161.04   18.53
   1  -1   4 1214.01   19.39
  -1   1  -4 1219.12   19.37
   1   1   4 1254.18   19.87
   1  -1   4 1249.16   19.46
   1   1   5   55.10    3.51
  -1  -1  -5   49.86    5.09
   1  -1   5   56.55    3.44
  -1   1  -5   51.28    2.58
   1   1   5   55.77    2.84
   1  -1   5   55.21    2.62
  -1  -1  -5   49.40    2.44
   1  -1   6   98.96    4.45
  -1  -1  -6   94.14    5.33
  -1   1  -6   82.38    3.10
   1   1   6   89.96    3.46
   1  -1   6   92.18    3.26
  -1  -1  -6   82.92    3.06
  -1   1  -6   90.29    3.19
   1   1   7  146.65    7.49
   1  -1   7  160.04   11.49
  -1  -1  -7  114.82    9.06
  -1   1  -7  119.20    4.27
   1   1   7  145.91    5.17
   1  -1   7  136.85    4.63
  -1  -1  -7  131.57    4.51
  -1   1  -7  132.90    4.44
   1   1   8   25.16    3.90
   1  -1   8   23.57    4.03
   1   1   8   22.29    2.84
   1  -1   8   20.54    2.60
  -1   1  -8   20.67    2.53
   1   1   9   16.11    2.69
   1  -1   9   13.71    2.27
   1   1   9   11.59    1.86
   1  -1   9   12.33    1.91
   1   1  10   33.76    4.65
   1  -1  10   32.84    3.59
   1   1  10   29.48    2.77
   1  -1  10   36.62    3.31
   1   1  11  167.76   11.61
   1  -1  11  173.49   12.37
   1   1  11  171.27   10.11
   1  -1  11  178.36   10.41
   1   1  12  426.63   33.58
   1  -1  12  423.34   33.60
   1   1  12  471.33   33.32
   1  -1  12  458.35   32.38
   1   1  13   33.75    5.15
   1  -1  13   35.25    5.25
   1   1  13   34.87    5.02
   1  -1  13   32.21    4.30
   1   1  14  267.04   22.95
   1  -1  14  248.89   23.73
   1   1  14  291.57   21.34
   1  -1  14  310.56   22.54
   1   1  15    3.19    1.99
   1  -1  15    1.99    1.15
   1   1  15    8.14    2.73
   1  -1  15    4.03    1.71
   1   1  16   14.37    4.11
   1  -1  16   22.64    4.96
   1   1  16   30.15    5.46
   1  -1  16   21.06    3.94
   1   1  17   13.91    3.23
   1  -1  17   14.43    3.90
   1   1  17    9.65    2.51
   1  -1  17   15.98    3.97
   1   1  18   12.00    3.45
   1  -1  18    5.21    2.21
   1   1  18   14.62    3.17
   1  -1  18    9.41    2.89
   1   1  19    1.94    1.06
   1  -1  19    1.81    0.83
   1  -1  19    2.35    1.83
   1   1  19    0.43    1.46
   1   1  20    1.42    1.35
   1  -1  20    6.19    2.05
   1   1  20    1.94    1.49
   1  -1  20   10.14    3.23
   1   1  21    3.85    1.88
   1  -1  21    2.11    1.22
   1   1  21    2.34    1.51
   1  -1  21    1.72    1.51
  -1   2  22    4.73    2.27
  -1  -2  22    7.67    3.24
  -1  -2  21    1.73    0.65
  -1   2  21    2.27    1.47
  -1  -2  21    2.35    1.49
  -1  -2  20    2.83    1.02
  -1   2  20    5.46    2.47
  -1  -2  20    2.65    1.39
  -1   2  19    0.06    0.62
  -1  -2  19    1.46    1.12
  -1   2  19    3.13    1.71
  -1  -2  19   -0.06    1.51
  -1   2  18   14.83    3.45
  -1  -2  18   16.95    3.54
  -1   2  18   25.19    5.22
  -1  -2  18   16.95    3.47
  -1   2  17    0.78    0.58
  -1  -2  17    0.42    0.93
  -1   2  17    2.46    1.46
  -1  -2  17    6.88    2.74
  -1   2  16    4.55    1.62
  -1  -2  16    6.75    1.47
  -1   2  16   11.95    2.58
  -1  -2  16   12.06    2.48
  -1   2  15   17.93    3.28
  -1  -2  15   15.11    2.88
  -1   2  15   20.84    3.66
  -1  -2  15   11.50    2.51
  -1   2  14  124.06   10.70
  -1  -2  14  104.34    8.07
  -1   2  14  152.98   11.79
  -1  -2  14  130.84   10.15
  -1   2  13   75.20    6.25
  -1  -2  13   86.18    5.44
  -1   2  13  104.70    6.87
  -1  -2  13   83.41    5.58
  -1   2  12   10.39    2.39
  -1  -2  12   11.24    2.39
   1  -2 -12   13.15    2.49
  -1   2  12   22.02    2.75
  -1  -2  12   15.56    2.19
  -1   2  11  269.03   15.01
  -1  -2  11  231.58   13.07
   1  -2 -11  230.10   12.72
  -1   2  11  241.20   13.87
  -1  -2  11  276.27   15.66
  -1   2  10  300.35   19.90
  -1  -2  10  257.68   17.31
   1  -2 -10  280.62   18.59
  -1   2  10  266.20   18.06
  -1  -2  10  315.02   21.19
  -1   2   9  173.63    5.78
  -1  -2   9  159.83    5.40
   1  -2  -9  153.13    4.75
   1   2  -9  161.74    5.36
  -1   2   9  148.92    5.38
  -1  -2   9  160.78    5.67
  -1   2   8  110.84    5.99
  -1  -2   8  105.91    3.91
   1   2  -8  100.08    3.64
  -1   2   8   92.01    3.68
  -1  -2   8  109.46    4.19
  -1   2   7   67.13    2.56
   1  -2  -7   64.53    2.14
   1   2  -7   68.74    2.65
  -1   2   7   74.28    3.27
   1  -2  -7   59.33    2.49
  -1  -2   7   70.82    3.09
   1   2  -7   67.18    2.66
  -1   2   6   66.27    3.97
   1  -2  -6   54.46    5.72
  -1  -2   6   53.20    4.27
  -1   2   6   57.38    6.29
   1  -2  -6   56.33    6.08
  -1  -2   6   64.79    2.82
   1   2  -6   57.83    6.25
  -1   2   5  475.41    7.42
  -1  -2   5  498.25    8.70
   1   2  -5  484.73    8.37
   1  -2  -5  478.57    8.40
  -1  -2   4  149.23    3.46
   1   2  -4  148.18    3.30
   1  -2  -4  140.06   10.05
  -1   2   4  156.24    3.73
   1  -2  -4  135.94    5.43
  -1  -2   4  143.76    3.28
  -1  -2   3    3.05    0.99
   1   2  -3    2.21    0.56
  -1  -2   3    3.00    0.74
  -1   2   3    4.61    1.02
   1  -2  -3    4.74    0.85
   1  -2  -2  269.64    4.21
  -1  -2   2  275.02    5.12
   1   2  -2  280.90    5.14
   1   2  -2  284.80    5.29
  -1  -2   2  274.26    5.09
  -1   2   2  278.09    4.94
   1  -2  -2  267.95    4.71
   1  -2  -1   26.18    1.21
  -1   2   1   26.27    1.20
  -1  -2   1   29.07    1.78
   1   2  -1   25.08    1.46
   1   2  -1   34.48    3.73
  -1  -2   1   26.76    2.35
  -1   2   1   26.78    1.26
   1  -2  -1   26.48    1.25
   1  -2   0   43.46    1.96
  -1   2   0   41.66    1.87
  -1  -2   0   43.15    2.10
   1   2   0   42.64    2.03
  -1   2   0   44.14    1.81
   1   2   0   50.31    4.74
  -1  -2   0   44.67    2.18
  -1   2   0   43.95    1.81
  -1   2  -1 1699.09   25.94
   1   2   1 1702.06   26.09
   1  -2   1 1734.43   25.91
   1   2   1 1733.53   26.61
   1  -2   2   96.33    4.10
  -1   2  -2   92.21    3.88
  -1  -2  -2  100.44    4.20
   1   2   2   98.18    4.15
   1   2   2   90.20    3.89
   1  -2   2   95.57    3.65
  -1  -2  -2   91.82    3.88
  -1  -2  -3  873.71   14.10
   1  -2   3  894.88   14.58
  -1  -2  -3  870.22   14.07
   1   2   3  871.68   14.13
  -1  -2  -3  855.43   13.87
   1  -2   3  848.72   13.15
   1   2   4   26.83    1.76
  -1  -2  -4   29.18    3.27
   1  -2   4   26.81    1.80
  -1   2  -4   25.02    1.63
   1   2   4   30.16    1.89
  -1  -2  -4   24.88    1.61
   1  -2   4   23.64    1.33
  -1   2  -4   26.13    1.39
   1   2   5    4.52    1.46
  -1  -2  -5    5.79    1.09
   1  -2   5    3.16    1.07
  -1   2  -5    4.61    0.84
   1   2   5    4.95    1.06
   1  -2   5    2.52    0.61
  -1  -2  -5    5.48    0.93
  -1   2  -5    5.05    0.73
   1   2   6   59.70    6.67
  -1  -2  -6   50.25    6.00
   1  -2   6   52.90    6.92
  -1   2  -6   44.58    3.65
   1   2   6   55.51    6.16
  -1  -2  -6   43.38    3.54
  -1   2  -6   50.09    3.93
   1   2   7  182.41    8.64
   1  -2   7  152.18    8.31
   1   2   7  183.26    6.14
   1  -2   7  178.36    5.58
  -1   2  -7  177.66    5.53
   1  -2   8  196.52    7.62
   1   2   8  222.98    7.39
   1  -2   8  223.43    6.95
  -1   2  -8  203.62    6.34
   1   2   9    5.14    0.95
   1  -2   9    8.33    1.36
   1   2   9   11.07    1.89
   1  -2   9    5.61    1.14
   1   2  10  175.40   14.02
   1  -2  10  174.78   17.47
   1   2  10  171.34   11.95
   1  -2  10  148.92   10.31
   1   2  11   69.56    9.87
   1  -2  11   77.55    8.96
   1   2  11   76.39    5.20
   1  -2  11   77.91    5.08
   1   2  12   66.20    8.26
   1  -2  12   62.17    7.23
   1   2  12   71.70    6.59
   1  -2  12   74.74    6.60
   1   2  13   96.88   12.65
   1  -2  13  115.53   13.30
   1   2  13  122.88    7.89
   1  -2  13  134.88    8.26
   1   2  14   24.28    4.67
   1  -2  14   29.14    4.64
   1   2  14   34.84    4.50
   1  -2  14   38.63    4.82
   1   2  15  113.29   10.77
   1  -2  15  114.27   10.30
   1   2  15  124.29   10.26
   1  -2  15  129.19   10.54
   1   2  16   25.74    5.62
   1  -2  16   27.30    5.53
   1   2  16   45.47    4.87
   1  -2  16   34.74    6.09
   1   2  17    1.01    0.84
   1  -2  17    1.13    0.74
   1   2  17    3.90    2.44
   1  -2  17    3.59    2.04
   1   2  18    1.46    0.72
   1  -2  18    2.23    1.01
   1   2  18    2.40    1.58
   1  -2  18    2.99    1.34
   1   2  19    3.87    1.78
   1  -2  19    4.11    2.07
   1   2  19    4.49    2.68
   1  -2  19    4.14    1.92
   1   2  20    3.21    1.48
   1  -2  20    7.59    2.45
   1  -2  20    6.19    2.14
   1   2  21   31.75   10.87
   1  -2  21   36.11   11.67
   1   2  21   72.60   18.42
   1  -2  21   71.06   18.06
  -1  -3  21    3.27    1.18
  -1   3  21    9.85    3.42
  -1  -3  21   15.48    3.96
  -1  -3  20   -0.68    0.91
  -1   3  20    1.61    1.56
  -1  -3  20    1.13    1.37
  -1  -3  19    0.54    1.11
  -1   3  19    4.85    2.41
  -1  -3  19    3.11    1.77
  -1   3  18    0.82    0.50
  -1  -3  18    3.03    0.65
  -1   3  18    2.08    1.80
  -1  -3  18    4.93    2.42
  -1   3  17   71.14   10.99
  -1  -3  17   79.90   11.86
  -1   3  17  100.18    9.93
  -1  -3  17  103.68   10.11
  -1   3  16    5.50    1.69
  -1  -3  16    1.69    1.01
  -1   3  16   10.50    2.96
  -1  -3  16    8.64    2.52
  -1   3  15   51.97    6.90
  -1  -3  15   63.36    5.47
  -1   3  15   74.78    6.57
  -1  -3  15   72.20    6.17
  -1   3  14    1.64    0.73
  -1  -3  14    4.10    2.04
  -1   3  14    1.93    1.34
  -1  -3  14    5.37    2.27
  -1   3  13   18.18    3.12
  -1  -3  13   11.88    1.88
   1  -3 -13   11.38    1.62
  -1   3  13   17.42    2.88
  -1  -3  13   18.78    3.00
  -1   3  12  243.65   17.24
  -1  -3  12  189.62   13.73
   1  -3 -12  222.71   15.75
  -1   3  12  246.85   17.93
  -1  -3  12  257.22   18.55
  -1   3  11    6.67    1.66
  -1  -3  11    2.65    0.86
   1  -3 -11    3.55    0.88
  -1  -3  11    2.76    1.14
  -1   3  10   72.29    6.70
   1  -3 -10   60.55    4.28
  -1  -3  10   53.00    4.07
  -1   3  10   74.54    5.71
  -1  -3  10   70.22    5.42
  -1   3   9  584.69   16.11
   1  -3  -9  553.61   15.21
  -1  -3   9  518.55   14.95
  -1   3   9  535.14   15.63
  -1  -3   9  618.81   17.67
  -1   3   8 1676.35  144.42
   1  -3  -8 1709.59  147.23
   1   3  -8 1622.32   43.88
  -1   3   8 1632.89   44.42
  -1  -3   8 1714.11  147.83
   1  -3  -7  568.80   15.20
   1  -3  -7  603.76   16.13
  -1   3   7  587.67   16.58
  -1  -3   7  591.49   16.49
   1  -3  -6   27.06    2.08
  -1  -3   6   28.95    2.70
   1   3  -6   26.10    2.33
   1  -3  -6   24.69    1.93
  -1   3   6   31.99    2.96
   1  -3  -6   22.99    2.13
  -1  -3   6   25.14    2.34
  -1  -3   5   16.34    1.70
   1   3  -5   19.10    1.40
   1  -3  -5   19.17    0.96
  -1   3   5   22.10    1.82
   1  -3  -5   17.23    1.36
  -1  -3   5   19.69    1.52
  -1  -3   4  731.97   12.32
   1   3  -4  707.50   11.81
   1  -3  -4  702.12   10.69
  -1  -3   4  714.98   12.21
  -1   3   4  755.13   12.55
   1  -3  -4  696.00   11.50
  -1  -3   4  716.53   11.93
  -1  -3   3  246.37    5.04
   1   3  -3  237.39    4.80
  -1   3   3  225.72    3.66
  -1  -3   3  238.92    4.68
  -1   3   3  242.37    4.75
   1  -3  -3  236.10    4.45
   1  -3  -2   77.44    3.03
  -1  -3   2   80.88    3.64
   1   3  -2   80.36    3.53
   1   3  -2   80.38    4.92
  -1  -3   2   81.07    3.94
  -1   3   2   75.06    3.14
   1  -3  -2   82.56    3.35
   1  -3  -1 1185.44   18.17
  -1  -3   1 1145.58   18.11
   1   3  -1 1115.57   17.59
   1   3  -1 1195.01   18.86
  -1  -3   1 1129.01   17.79
  -1   3   1 1185.52   18.09
   1  -3  -1 1125.32   17.14
   1  -3   0   26.55    1.46
  -1   3   0   31.76    1.67
  -1  -3   0   26.03    1.68
   1   3   0   30.17    2.96
  -1  -3   0   29.49    1.68
   1  -3   1  523.54    8.77
  -1   3  -1  504.53    8.46
  -1  -3  -1  544.27    9.29
   1   3   1  505.35    8.62
   1   3   1  529.62    9.00
  -1  -3  -1  500.35    8.51
   1  -3   2 1326.68   20.83
  -1   3  -2 1267.13   19.94
  -1  -3  -2 1356.40   21.32
   1   3   2 1247.52   19.60
   1   3   2 1285.08   20.28
  -1  -3  -2 1258.59   19.80
  -1   3  -2 1261.92   18.86
   1  -3   3  241.09    4.98
  -1   3  -3  234.00    4.81
   1   3   3  248.05    4.96
   1   3   3  252.96    5.17
  -1  -3  -3  230.73    4.73
  -1   3  -3  235.92    3.95
  -1  -3  -4    2.70    0.64
   1  -3   4   -0.28    0.89
  -1   3  -4    5.38    1.23
  -1  -3  -4    0.99    1.06
   1   3   4    2.68    1.17
  -1  -3  -4    4.19    1.18
   1  -3   4    1.23    0.59
  -1   3  -4    1.28    0.47
  -1  -3  -5   99.15    4.77
   1  -3   5   88.27    3.46
  -1   3  -5   97.96    3.60
  -1  -3  -5  103.93    3.73
   1   3   5   94.09    3.63
  -1  -3  -5   92.83    3.33
   1  -3   5   98.12    3.17
  -1   3  -5  102.61    3.36
  -1  -3  -6  226.32    7.06
   1  -3   6  245.56    7.72
  -1   3  -6  226.32    7.02
   1   3   6  254.61    7.86
   1  -3   6  243.84    7.06
  -1   3  -6  227.75    6.60
   1   3   7  293.63    9.00
  -1  -3  -7  240.36   10.74
   1   3   7  294.03    9.15
   1  -3   7  286.27    8.43
  -1   3  -7  278.83    8.14
   1   3   8   23.17    2.83
   1  -3   8   25.37    3.20
   1   3   8   35.88    4.33
   1  -3   8   25.20    3.01
  -1   3  -8   24.47    2.82
   1   3   9  140.42    9.71
   1  -3   9  154.89   11.26
   1   3   9  178.10   12.36
   1  -3   9  172.22   11.71
  -1   3  -9  163.49   11.12
   1   3  10    1.64    0.86
   1  -3  10    1.76    1.43
   1   3  10    1.85    1.27
   1  -3  10    1.70    0.87
   1   3  11   84.09    5.98
   1  -3  11   80.34    8.53
   1   3  11   94.42    6.09
   1  -3  11   84.99    5.44
   1   3  12   13.77    3.14
   1  -3  12   20.63    3.50
   1   3  12   17.01    2.54
   1  -3  12   20.75    2.58
   1   3  13   28.42    4.56
   1  -3  13   25.93    4.62
   1   3  13   41.36    5.58
   1  -3  13   31.29    4.31
   1   3  14   81.63    7.93
   1  -3  14   86.94    8.08
   1   3  14  105.48    8.69
   1  -3  14  105.70    8.45
   1   3  15   11.65    3.36
   1  -3  15   10.39    2.30
   1   3  15    9.78    2.71
   1  -3  15    8.52    1.91
   1   3  16    2.49    1.27
   1  -3  16    1.37    0.94
   1   3  16    2.47    1.69
   1  -3  16    3.58    1.98
   1   3  17   24.20    6.82
   1  -3  17   30.14    4.87
   1   3  17   44.49    5.53
   1  -3  17   40.31    4.75
   1   3  18    2.17    1.34
   1  -3  18    2.40    0.97
   1   3  18    2.30    1.92
   1  -3  18    2.23    1.26
   1   3  19    6.90    2.02
   1  -3  19    5.77    2.73
   1   3  19   12.41    3.67
   1  -3  19    3.43    1.79
   1   3  20    5.92    2.00
   1  -3  20    3.48    0.94
   1   3  20    8.80    2.83
   1  -3  20   13.84    4.03
   1   3  21    8.60    3.00
   1  -3  21    4.16    1.95
   1   3  21    9.98    3.48
   1  -3  21    6.08    2.28
  -1  -4  21    0.97    0.92
  -1   4  21    4.28    1.83
  -1  -4  21    4.53    2.21
  -1  -4  20    8.43    3.00
  -1   4  20   22.74    5.29
  -1  -4  20   25.97    6.06
  -1  -4  19    3.89    1.83
  -1   4  19    2.70    1.76
  -1  -4  19    2.64    1.41
  -1  -4  18    4.11    1.80
  -1   4  18    2.83    1.60
  -1  -4  17    3.87    1.56
  -1   4  17    6.62    2.66
  -1  -4  17    3.65    2.24
  -1  -4  16    3.37    1.67
  -1   4  16    7.06    2.33
  -1  -4  16    9.02    2.43
  -1  -4  15    1.18    1.12
  -1   4  15    1.42    1.12
  -1  -4  15    2.52    1.85
  -1  -4  14   54.13    6.33
  -1   4  14   46.05    5.61
  -1  -4  14   55.20    6.35
  -1  -4  13    5.69    1.63
   1  -4 -13    5.42    1.30
  -1   4  13   10.07    2.49
  -1  -4  13    8.30    2.09
  -1  -4  12    9.90    2.10
   1  -4 -12    7.22    1.46
   1  -4 -12   10.56    2.12
  -1   4  12    9.30    2.14
  -1  -4  12   16.44    2.32
   1  -4 -11    4.38    1.00
  -1  -4  11    6.38    1.62
   1  -4 -11    7.43    1.59
  -1   4  11    1.45    1.11
  -1  -4  11    4.40    1.32
   1  -4 -10  114.74    6.52
  -1  -4  10  104.07    6.35
   1  -4 -10  123.63    6.98
  -1   4  10  111.47    6.96
  -1  -4  10  127.42    7.62
   1  -4  -9   14.10    1.49
  -1  -4   9   14.74    1.83
   1  -4  -9   14.22    1.54
  -1   4   9   13.11    2.11
  -1  -4   9   14.74    1.93
   1  -4  -8    2.60    0.59
  -1  -4   8    3.15    0.92
   1  -4  -8    2.91    0.61
  -1   4   8    2.67    1.16
  -1  -4   8    0.49    0.78
   1  -4  -7    3.44    0.64
  -1  -4   7    7.39    1.74
   1   4  -7    6.02    1.04
   1  -4  -7    1.63    0.39
  -1   4   7    2.57    1.06
  -1  -4   7    2.98    1.18
   1  -4  -6   95.92    2.87
  -1  -4   6  102.87    3.99
   1   4  -6   89.55    3.37
   1  -4  -6   92.75    2.82
  -1   4   6   99.64    3.90
   1  -4  -6   85.98    3.35
  -1  -4   6   93.47    3.44
   1  -4  -5   35.80    3.22
  -1  -4   5   42.72    3.70
   1   4  -5   31.75    2.73
   1  -4  -5   38.80    2.94
  -1  -4   5   34.24    4.73
  -1   4   5   38.02    3.25
   1  -4  -5   33.34    2.81
  -1  -4   5   36.63    3.13
  -1  -4   4  162.85    4.08
   1  -4  -4  151.22    2.82
   1   4  -4  154.18    3.70
  -1   4   4  158.56    2.90
  -1  -4   4  154.54    6.63
  -1   4   4  159.90    3.82
   1  -4  -4  152.37    3.48
   1  -4  -3  179.61    3.30
  -1  -4   3  189.19    4.38
   1   4  -3  173.97    4.00
  -1   4   3  174.68    3.18
   1   4  -3  185.62    5.40
  -1  -4   3  176.64    4.54
  -1   4   3  181.74    3.90
  -1  -4   2  308.19    6.15
  -1   4   2  295.63    5.09
   1   4  -2  309.56    5.97
   1   4  -2  316.47    6.02
  -1  -4   2  304.88    5.85
   1  -4  -1  461.85    7.72
  -1  -4   1  465.57    8.32
   1   4  -1  458.39    8.06
  -1  -4   1  463.33    8.15
  -1   4   1  464.01    7.47
   1  -4   0   36.63    1.99
  -1   4   0   35.58    1.87
  -1  -4   0   37.42    2.12
   1   4   0   33.50    1.91
   1   4   0   43.39    4.59
  -1  -4   0   39.75    2.09
  -1   4   0   38.70    1.57
   1  -4   1  142.97    3.35
  -1   4  -1  146.29    3.30
  -1  -4  -1  145.01    3.56
   1   4   1  137.58   10.17
   1   4   1  146.89    3.51
  -1  -4  -1  137.46   10.14
   1  -4   2  755.58   12.59
  -1   4  -2  721.15   12.03
  -1  -4  -2  755.62   12.69
   1   4   2  705.66   11.77
   1   4   2  750.82   12.56
  -1  -4  -2  690.94   11.53
   1  -4   3  185.58    4.37
  -1   4  -3  172.16    4.00
   1   4   3  187.58    4.17
   1   4   3  188.31    4.37
  -1  -4  -3  174.37    3.92
   1  -4   3  170.86    2.84
  -1   4  -3  176.69    2.95
   1  -4   4  143.05    4.88
  -1   4  -4  142.88    4.75
  -1  -4  -4  144.34    4.86
   1   4   4  134.54    4.41
   1   4   4  142.83    4.85
  -1  -4  -4  128.88    4.38
   1  -4   4  142.91    4.07
  -1   4  -4  133.84    3.87
  -1  -4  -5   14.25    1.88
   1  -4   5   10.74    1.58
  -1   4  -5    8.00    1.20
  -1  -4  -5   11.71    1.47
   1   4   5   15.27    1.91
  -1  -4  -5    9.76    1.24
   1  -4   5   12.45    1.20
  -1   4  -5   10.77    1.10
  -1  -4  -6  949.00   25.77
   1   4   6  865.59   23.81
   1  -4   6  922.10   24.61
  -1   4  -6  896.07   23.91
  -1  -4  -7   33.82    5.86
   1  -4   7   42.87    2.43
  -1  -4  -7   41.62    2.21
   1   4   7   40.74    4.69
   1  -4   7   44.98    2.08
  -1   4  -7   41.07    1.79
   1  -4   8  757.77   21.52
   1   4   8  785.77   22.22
   1  -4   8  822.97   22.61
  -1   4  -8  788.81   21.64
   1  -4   9  153.58   10.80
  -1  -4  -9  160.36   11.10
   1   4   9  154.88   10.92
   1  -4   9  142.96    9.80
  -1   4  -9  143.40    9.78
   1  -4  10    9.57    2.20
  -1  -4 -10   12.25    1.84
   1   4  10    9.58    2.39
   1  -4  10   11.54    1.60
   1  -4  11   11.11    2.44
  -1  -4 -11   16.88    2.09
   1   4  11   19.55    2.57
   1  -4  11   17.50    2.14
   1  -4  12   71.76    8.03
   1   4  12   68.16    4.79
   1  -4  12   74.54    4.85
   1  -4  13  190.95   19.00
   1   4  13  210.06   15.66
   1  -4  13  196.58   14.46
   1  -4  14    0.79    1.00
   1   4  14    5.72    2.07
   1  -4  14    4.64    1.71
   1  -4  15  225.88   20.87
   1   4  15  302.31   25.73
   1  -4  15  280.51   23.62
   1  -4  16    2.41    1.50
   1   4  16    2.93    2.23
   1  -4  16    0.87    1.12
   1  -4  17   41.86    7.31
  -1  -4 -17   64.79    7.06
   1   4  17   64.93    7.25
   1  -4  17   52.84    6.02
   1  -4  18    2.27    1.36
  -1  -4 -18    1.12    1.25
   1   4  18    2.13    1.53
   1  -4  18    1.74    1.32
   1  -4  19    1.42    1.60
  -1  -4 -19    1.91    1.35
   1   4  19    2.71    1.63
   1  -4  19    4.09    1.89
   1  -4  20    2.26    0.74
  -1  -4 -20    5.85    2.66
   1   4  20    2.07    2.02
   1  -4  20    4.39    2.09
   1  -4  21   10.18    3.35
  -1  -4 -21    6.63    2.57
   1   4  21   12.08    4.14
   1  -4  21   10.44    3.59
  -1  -5  21    7.99    4.25
  -1   5  21   12.37    4.00
  -1  -5  21    8.30    3.04
  -1  -5  20    8.63    2.57
  -1   5  20   17.11    4.73
  -1  -5  20   10.08    3.24
  -1  -5  19   12.76    3.80
  -1   5  19   17.07    2.78
  -1  -5  19   18.27    2.82
  -1  -5  18    5.21    2.17
  -1   5  18    2.89    1.99
  -1  -5  18    5.09    2.73
  -1  -5  17    3.56    1.71
   1  -5 -17    5.51    1.55
  -1   5  17    7.44    2.53
  -1  -5  17    7.99    2.40
  -1  -5  16    6.09    1.95
   1  -5 -16    6.25    1.55
  -1   5  16    8.80    2.68
  -1  -5  16   11.13    2.80
  -1  -5  15    0.85    1.09
   1  -5 -15    2.15    0.88
  -1   5  15    2.12    1.76
  -1  -5  15    0.86    1.25
  -1  -5  14    2.10    1.16
   1  -5 -14    4.79    1.29
  -1   5  14    4.96    1.66
  -1  -5  14    2.11    1.34
  -1  -5  13   30.07    4.08
   1  -5 -13   27.57    3.49
  -1   5  13   30.76    4.43
  -1  -5  13   27.58    4.05
   1  -5 -12    4.05    1.06
  -1  -5  12    5.21    1.67
   1  -5 -12    5.55    1.36
  -1   5  12    9.15    2.49
  -1  -5  12    4.77    1.64
   1  -5 -11   31.10    2.82
  -1  -5  11   34.35    3.46
   1  -5 -11   39.23    3.49
  -1   5  11   25.43    3.13
  -1  -5  11   38.80    3.90
   1  -5 -10   48.43    4.62
  -1  -5  10   41.07    4.38
   1  -5 -10   46.06    4.42
  -1   5  10   41.19    4.39
  -1  -5  10   49.95    5.08
   1  -5  -9    5.46    0.97
  -1  -5   9    4.93    1.44
   1  -5  -9    8.04    1.00
  -1   5   9    7.16    1.64
  -1  -5   9    9.96    1.84
   1  -5  -8    3.83    0.54
  -1  -5   8    2.97    1.04
   1  -5  -8    4.06    0.66
  -1   5   8    6.80    1.44
  -1  -5   8    3.44    0.84
   1  -5  -7  205.17    5.92
  -1  -5   7  176.35    6.12
   1  -5  -7  197.37    5.72
  -1  -5   7  201.42    6.51
   1  -5  -6    3.09    0.60
  -1  -5   6    7.51    1.86
   1  -5  -6    3.13    0.71
  -1  -5   6    4.62    0.98
  -1   5   6    5.05    1.31
   1  -5  -6    2.59    0.64
  -1  -5   5  110.58    4.25
   1   5  -5   98.33    3.78
   1  -5  -5  103.52    3.17
  -1   5   5  112.90    3.45
  -1  -5   5  100.31    4.85
   1  -5  -5  105.06    3.62
  -1  -5   4  170.95    5.77
   1  -5  -4  170.44    4.93
   1   5  -4  156.39    5.12
  -1   5   4  172.98    5.01
  -1  -5   4  159.29    7.33
   1  -5  -4  168.77    5.20
   1  -5  -3  147.20    4.42
  -1  -5   3  152.07    5.10
   1   5  -3  149.16    4.95
  -1   5   3  147.17    4.38
   1   5  -3  170.78    8.03
  -1   5   3  153.91    4.82
   1  -5  -3  134.67    4.16
   1  -5  -2   47.33    2.26
  -1  -5   2   60.84    3.14
  -1   5   2   48.66    2.30
   1   5  -2   48.54    2.56
   1   5  -2   52.52    6.05
  -1  -5   2   48.50    5.14
  -1   5   2   59.22    2.69
   1  -5  -2   54.15    2.42
  -1   5   1  283.08    5.29
  -1  -5   1  313.00    6.31
   1   5  -1  291.88    5.88
   1   5  -1  285.03    5.85
  -1  -5   1  283.65    5.44
  -1   5   1  301.80    5.19
   1  -5  -1  286.74    4.91
   1  -5   0    3.58    0.76
  -1   5   0    2.80    0.65
  -1  -5   0    2.68    0.68
   1   5   0    3.59    0.74
   1   5   0    5.39    0.88
  -1  -5   0    4.58    1.05
  -1   5   0    3.78    0.41
   1  -5   0    2.94    0.35
   1  -5   1  117.67    4.98
  -1   5  -1  103.04    4.35
  -1  -5  -1  129.35    5.52
   1   5   1  109.83    4.66
  -1   5  -1  106.74    3.92
   1   5   1  120.92    5.18
  -1  -5  -1  108.67    4.57
   1  -5   2   26.09    1.71
  -1   5  -2   35.41    1.99
  -1  -5  -2   33.14    2.13
   1   5   2   34.69    1.98
   1   5   2   32.45    2.09
  -1  -5  -2   29.28    2.53
   1  -5   3  297.04    8.92
  -1   5  -3  295.44    8.78
  -1  -5  -3  302.78    8.96
   1   5   3  274.36    8.08
   1   5   3  294.66    8.79
  -1  -5  -3  269.26    7.99
   1  -5   3  276.19    7.31
   1  -5   4    1.33    1.08
  -1   5  -4    0.32    0.75
  -1  -5  -4    2.96    1.06
   1   5   4    4.09    1.67
  -1  -5  -4    2.47    1.12
   1  -5   4    1.75    0.44
   1  -5   5   15.07    1.80
  -1  -5  -5   13.80    1.53
   1   5   5   13.01    1.74
   1  -5   5   12.85    1.19
  -1   5  -5   12.95    1.18
  -1  -5  -6   18.27    3.21
   1  -5   6   27.21    3.59
  -1  -5  -6   22.94    2.78
   1   5   6   26.11    3.29
   1  -5   6   27.30    3.04
  -1   5  -6   22.83    2.58
   1  -5   7   52.61    2.78
  -1  -5  -7   63.59    2.83
   1   5   7   68.05    3.22
   1  -5   7   64.08    2.45
  -1   5  -7   62.28    2.34
   1  -5   8  203.05   13.97
  -1  -5  -8  222.71   15.11
   1   5   8  203.81   13.99
   1  -5   8  205.64   13.76
  -1   5  -8  198.23   13.26
   1  -5   9   20.49    2.56
  -1  -5  -9   23.90    2.74
   1   5   9   25.16    2.94
   1  -5   9   24.90    2.69
  -1   5  -9   24.86    2.62
   1  -5  10    5.35    1.54
  -1  -5 -10    6.69    1.75
   1   5  10    2.50    1.28
   1  -5  10    6.86    1.64
   1  -5  11  122.79    9.35
  -1  -5 -11  137.07   10.23
   1   5  11  121.22    9.34
   1  -5  11  155.16   11.31
   1  -5  12  112.74    7.14
  -1  -5 -12  120.12    7.39
   1   5  12  112.60    7.25
   1  -5  12  104.92    6.41
   1  -5  13   79.82    7.10
  -1  -5 -13  101.95    8.10
   1   5  13   89.17    7.59
   1  -5  13   96.03    7.58
   1  -5  14   17.24    4.29
  -1  -5 -14   29.63    3.72
   1   5  14   19.93    3.20
   1  -5  14   16.73    2.29
   1  -5  15   42.01    6.86
  -1  -5 -15   48.35    4.81
   1   5  15   51.97    5.66
   1  -5  15   53.40    5.31
   1  -5  16    3.33    1.53
  -1  -5 -16    1.93    1.19
   1   5  16    1.27    1.39
   1  -5  16    2.18    1.93
   1  -5  17   39.12    6.86
  -1  -5 -17   59.20    6.47
   1   5  17   51.54    6.39
   1  -5  17   40.90    4.62
   1  -5  18    6.14    2.60
  -1  -5 -18    4.80    2.10
   1   5  18    6.78    2.57
   1  -5  18    3.01    1.11
   1  -5  19    1.74    1.19
  -1  -5 -19    1.51    1.21
   1   5  19    6.26    2.07
   1  -5  19    5.28    2.29
   1  -5  20   10.93    3.41
  -1  -5 -20    8.75    2.95
   1   5  20    7.98    2.70
   1  -5  20   12.11    3.64
  -1  -6  21    6.27    2.46
  -1   6  21   10.34    3.56
  -1  -6  21   12.11    3.98
  -1  -6  20    5.71    2.15
  -1   6  20    9.29    3.09
  -1  -6  20   13.88    3.45
  -1  -6  19    3.21    1.64
  -1   6  19    3.83    2.09
  -1  -6  19    8.56    3.07
  -1  -6  18    1.67    1.48
  -1   6  18    3.40    2.31
  -1  -6  18    5.60    2.40
  -1  -6  17   11.33    2.52
  -1   6  17   11.05    2.69
  -1  -6  17   13.95    3.22
  -1  -6  16   38.73    4.44
   1  -6 -16   36.05    3.67
  -1   6  16   35.89    4.32
  -1  -6  16   42.56    5.03
  -1  -6  15    5.33    1.91
   1  -6 -15    1.58    0.69
  -1   6  15    6.77    2.55
  -1  -6  15    4.10    1.70
  -1  -6  14   55.71    5.05
   1  -6 -14   54.00    4.49
  -1   6  14   58.79    5.39
  -1  -6  14   65.01    5.93
  -1  -6  13    9.32    1.90
   1  -6 -13    8.61    1.44
  -1   6  13    9.50    1.85
  -1  -6  13    6.38    2.06
   1  -6 -12    0.94    0.66
  -1  -6  12    5.78    1.88
   1  -6 -12    0.78    0.52
  -1   6  12    3.75    1.37
  -1  -6  12   -0.55    1.03
   1  -6 -11   19.63    2.97
  -1  -6  11   38.19    5.02
   1  -6 -11   31.39    3.81
  -1   6  11   28.44    3.96
  -1  -6  11   35.65    4.60
   1  -6 -10    5.87    1.40
  -1  -6  10    6.25    1.57
   1  -6 -10    7.63    1.54
  -1   6  10    3.83    1.22
  -1  -6  10   10.62    2.32
   1  -6  -9    1.86    0.63
  -1  -6   9    1.50    1.00
   1  -6  -9    2.79    0.95
  -1   6   9    3.11    1.14
  -1  -6   9    4.02    1.55
   1  -6  -8    7.18    1.32
  -1  -6   8   12.02    1.84
   1  -6  -8    9.70    1.12
  -1   6   8    7.46    1.32
  -1  -6   8    8.69    1.37
   1  -6  -7  253.96   16.77
  -1  -6   7  228.72   15.56
   1  -6  -7  259.33   17.13
  -1   6   7  228.94   15.48
  -1  -6   7  236.99   15.92
  -1  -6   6   27.42    3.40
   1  -6  -6   28.20    3.12
  -1   6   6   31.09    3.40
  -1  -6   6   21.64    3.63
  -1   6   6   26.87    3.24
  -1  -6   6   29.93    3.46
  -1  -6   5   85.38    3.66
   1  -6  -5   85.66    2.92
  -1   6   5   81.57    2.73
  -1  -6   5   81.76    4.93
  -1   6   5   90.46    3.52
   1  -6  -5   84.23    3.23
   1  -6  -4  431.28   11.86
  -1   6   4  415.93   11.42
   1   6  -4  473.12   13.37
  -1  -6   4  408.46   11.50
   1  -6  -4  423.71   11.87
   1  -6  -3  379.86   10.60
  -1   6   3  366.62   10.21
   1   6  -3  383.91   11.30
  -1  -6   3  356.58   10.32
  -1   6   3  377.38   10.65
   1  -6  -3  348.64    9.79
   1  -6  -2   81.59    2.96
  -1  -6   2   70.06    3.05
  -1   6   2   70.34    2.57
   1   6  -2   67.47    2.84
   1   6  -2   79.56    4.81
  -1  -6   2   68.39    3.39
  -1   6   2   79.41    2.87
   1  -6  -2   73.16    2.53
  -1   6   1  979.86   26.28
  -1  -6   1 1018.62   27.71
   1   6  -1  957.92   25.99
  -1   6   1 1030.41   27.28
   1  -6  -1  977.32   25.86
   1  -6   0  200.05    6.16
  -1   6   0  207.17    6.31
  -1  -6   0  207.20    6.59
   1   6   0  203.72    6.37
   1   6   0  212.69    7.45
  -1   6   0  200.58    5.57
   1  -6   0  205.28    5.66
   1  -6   1   26.41    2.41
  -1   6  -1   23.60    2.42
  -1  -6  -1   22.26    2.21
   1   6   1   17.27    1.77
  -1   6  -1   21.59    2.05
   1   6   1   22.96    2.31
  -1  -6  -1   20.33    1.90
   1  -6   2  183.80    6.06
  -1  -6  -2  206.85    6.74
   1   6   2  190.56    5.99
   1   6   2  200.64    6.41
  -1  -6  -2  186.65    5.84
   1  -6   3   14.35    1.80
  -1   6  -3   14.37    1.56
  -1  -6  -3   21.46    2.34
   1   6   3   14.02    1.59
   1   6   3   14.85    1.80
  -1  -6  -3   17.26    1.84
   1  -6   4   33.14    3.91
  -1  -6  -4   38.45    4.40
   1   6   4   33.80    3.84
   1   6   4   32.29    3.86
   1  -6   4   37.71    3.97
   1  -6   5   21.88    2.77
  -1  -6  -5   24.05    2.94
   1   6   5   22.98    2.77
   1  -6   5   26.47    3.32
   1   6   5   26.85    3.54
   1  -6   5   28.93    3.14
   1  -6   6   96.15    4.03
  -1  -6  -6   97.48    3.90
   1   6   6   85.40    3.68
   1  -6   6   96.58    3.08
   1  -6   7  184.34   12.73
  -1  -6  -7  179.89   12.34
   1   6   7  156.34   10.92
   1  -6   7  157.80   10.56
  -1   6  -7  159.92   10.68
   1  -6   8    1.21    0.97
  -1  -6  -8    3.06    1.14
   1   6   8    4.86    1.73
   1  -6   8    2.04    0.93
  -1   6  -8    1.90    0.57
   1  -6   9   28.18    3.25
  -1  -6  -9   41.24    4.35
   1   6   9   32.58    3.69
   1  -6   9   36.57    3.71
  -1   6  -9   30.06    3.04
   1  -6  10    2.16    1.23
  -1  -6 -10    0.74    1.06
   1   6  10    2.03    1.24
   1  -6  10    0.44    0.63
   1  -6  11  134.35    8.26
  -1  -6 -11  147.54    8.72
   1   6  11  134.56    8.36
   1  -6  11  147.01    8.46
   1  -6  12   10.25    2.58
  -1  -6 -12    4.53    1.44
   1   6  12    5.63    1.86
   1  -6  12    9.38    2.31
   1  -6  13  215.55   16.39
  -1  -6 -13  271.11   20.11
   1   6  13  238.54   18.09
   1  -6  13  255.47   18.92
   1  -6  14    6.19    1.88
  -1  -6 -14    4.23    1.47
   1   6  14    3.24    1.61
   1  -6  14    9.18    1.94
   1  -6  15   76.40   12.07
  -1  -6 -15   94.61    9.06
   1   6  15  106.75   10.49
   1  -6  15   92.34    8.80
   1  -6  16    3.70    1.51
  -1  -6 -16    1.95    1.16
   1   6  16    3.39    1.91
   1  -6  16    1.34    1.16
   1  -6  17   31.72    5.85
  -1  -6 -17   51.26    3.25
   1   6  17   37.83    3.74
   1  -6  17   42.55    3.07
   1  -6  18   23.56    3.85
  -1  -6 -18   24.02    3.31
   1  -6  18   21.60    2.97
   1  -6  19   14.24    3.84
  -1  -6 -19    3.45    1.16
   1   6  19   12.11    3.83
   1  -6  19    3.11    1.17
   1  -6  20    2.55    1.70
  -1  -6 -20    4.63    2.34
   1   6  20    4.11    2.14
   1  -6  20    1.01    1.02
  -1  -7  20   10.44    3.13
  -1   7  20    5.11    1.70
  -1  -7  20    3.44    2.01
  -1  -7  19    5.73    1.73
  -1   7  19    5.52    1.86
  -1  -7  19    5.94    2.25
  -1  -7  18    8.71    2.33
  -1   7  18    8.97    2.38
  -1  -7  18   10.80    2.99
  -1  -7  17    4.59    2.08
  -1   7  17    2.36    1.39
  -1  -7  17    5.48    2.39
  -1  -7  16   67.07    7.03
  -1   7  16   52.44    5.96
  -1  -7  16   56.60    6.15
  -1  -7  15    7.50    2.03
   1  -7 -15    3.83    1.15
  -1   7  15    9.39    2.72
  -1  -7  15   10.48    2.69
  -1  -7  14  129.03   10.54
   1  -7 -14  150.28   11.57
  -1   7  14  154.02   12.51
  -1  -7  14  165.77   13.21
  -1  -7  13    8.99    2.12
   1  -7 -13    9.77    1.50
  -1   7  13   14.97    2.38
  -1  -7  13   16.99    2.69
  -1  -7  12  145.26   11.05
   1  -7 -12  172.49   12.40
  -1   7  12  169.38   12.77
  -1  -7  12  174.59   12.95
   1  -7 -11   44.43    8.02
  -1  -7  11   61.79    7.60
   1  -7 -11   71.71    4.30
  -1   7  11   60.57    7.44
  -1  -7  11   81.53    5.33
   1  -7 -10   65.61    8.00
  -1  -7  10   70.62    6.38
   1  -7 -10   78.86    5.80
  -1   7  10   77.81    6.20
  -1  -7  10   94.27    7.32
   1  -7  -9   64.45    7.15
  -1  -7   9   76.07   15.06
   1  -7  -9   86.39    6.34
  -1   7   9   76.88   15.20
  -1  -7   9   91.78    7.01
   1  -7  -8   47.90    6.03
  -1  -7   8   59.92    6.19
   1  -7  -8   62.18    5.88
  -1   7   8   58.30    5.81
  -1  -7   8   63.46    6.21
   1  -7  -7    7.41    0.96
  -1  -7   7   12.11    2.04
   1  -7  -7    9.91    1.17
  -1   7   7    6.96    1.25
  -1  -7   7    4.61    0.91
  -1  -7   6   54.74    4.38
   1  -7  -6   67.05    4.74
  -1   7   6   67.95    4.73
  -1  -7   6   51.90    6.03
  -1   7   6   58.66    4.39
  -1  -7   6   65.86    4.82
  -1  -7   5  334.59   10.40
   1  -7  -5  364.57   10.40
  -1   7   5  353.98   10.02
  -1  -7   5  322.79   10.23
  -1   7   5  367.88   10.85
   1  -7  -5  327.85    9.64
  -1  -7   4   10.29    1.74
   1  -7  -4   15.63    2.02
  -1   7   4    9.90    1.34
   1   7  -4   15.95    2.20
  -1  -7   4   11.64    2.12
  -1   7   4    9.75    1.48
   1  -7  -4   13.03    1.77
   1  -7  -3  465.53   13.11
  -1  -7   3  470.61   13.84
  -1   7   3  455.59   12.80
   1   7  -3  471.81   13.48
  -1  -7   3  422.41   12.24
  -1   7   3  466.32   13.17
   1  -7  -3  435.01   12.23
   1  -7  -2   25.27    3.05
  -1  -7   2   22.19    2.79
  -1   7   2   18.68    2.21
   1   7  -2   25.02    3.95
  -1  -7   2   17.66    2.12
  -1   7   2   24.71    2.88
   1  -7  -2   19.42    2.21
   1  -7  -1   10.85    1.66
  -1  -7   1   12.12    1.85
  -1   7   1    9.74    1.33
   1   7  -1   16.40    2.55
  -1  -7   1   13.37    1.76
  -1   7   1   12.05    1.53
   1  -7  -1   11.75    1.43
  -1   7   0   83.61    3.13
  -1  -7   0   92.79    3.88
   1   7   0   93.02    6.23
  -1   7   0   96.17    3.01
  -1  -7   0   85.32    3.14
   1  -7   0   84.43    2.63
   1  -7   1  103.17    3.97
  -1   7  -1   99.48    3.69
  -1  -7  -1  110.60    4.32
  -1   7  -1   93.87    2.75
  -1  -7  -1   97.39    3.49
   1  -7   2  547.56   15.62
   1  -7   3   19.79    2.61
  -1  -7  -3   21.56    2.92
   1   7   3   20.54    2.67
   1  -7   3   20.91    2.21
   1  -7   4   63.15    3.08
  -1  -7  -4   63.67    2.94
   1   7   4   63.45    3.02
   1  -7   4   65.10    1.98
   1  -7   5  106.13    7.78
  -1  -7  -5   96.23    6.92
   1   7   5   85.01    6.26
   1  -7   5   96.65    6.46
   1  -7   6  155.76   10.92
  -1  -7  -6  151.58   10.53
   1  -7   6  153.69   10.22
   1   7   6  139.33    9.80
   1  -7   6  153.22   10.19
   1  -7   7  132.65    8.10
  -1  -7  -7  137.18    8.13
   1  -7   7  140.18    7.84
   1   7   7  121.70    7.44
   1  -7   7  142.96    7.95
   1  -7   8    1.94    1.28
  -1  -7  -8    3.44    1.95
   1   7   8    2.73    1.64
   1  -7   8    1.65    0.70
   1  -7   9   17.21    2.42
  -1  -7  -9   22.67    2.73
   1   7   9   20.00    2.46
   1  -7   9   24.51    2.46
   1  -7  10   12.15    2.50
  -1  -7 -10    9.70    2.48
   1   7  10    8.10    2.22
   1  -7  10    6.69    1.61
  -1   7 -10    8.17    1.88
   1  -7  11   22.03    3.33
  -1  -7 -11   21.09    2.98
   1   7  11   17.80    2.74
   1  -7  11   21.86    3.02
   1  -7  12   54.39    6.36
  -1  -7 -12   71.63    5.91
   1   7  12   56.56    6.58
   1  -7  12   69.01    5.56
   1  -7  13   36.51    4.37
  -1  -7 -13   37.16    4.20
   1   7  13   35.75    4.39
   1  -7  13   51.56    4.60
   1  -7  14   41.00    4.43
  -1  -7 -14   52.88    5.18
   1   7  14   38.71    4.23
   1  -7  14   39.69    3.91
   1  -7  15    1.53    1.11
  -1  -7 -15    2.16    1.77
   1   7  15    6.34    2.29
   1  -7  15    0.53    0.77
   1  -7  16    3.76    2.12
  -1  -7 -16    3.57    1.27
   1   7  16    5.07    2.22
   1  -7  16   11.88    2.52
   1  -7  17    5.20    1.90
  -1  -7 -17    1.92    1.18
   1   7  17    5.02    2.43
   1  -7  17    4.68    1.86
   1  -7  18    2.60    1.16
  -1  -7 -18    2.16    1.16
   1   7  18    5.12    2.28
   1  -7  18    2.50    1.05
   1  -7  19    2.20    1.70
  -1  -7 -19    4.53    1.57
   1   7  19    5.26    1.92
   1  -7  19    1.07    0.88
   1  -7  20    3.37    1.71
   1   7  20    1.97    1.70
  -1  -8  20   12.36    3.70
  -1   8  20    5.49    2.26
  -1  -8  20    9.96    3.55
  -1  -8  19    1.94    1.34
  -1   8  19    1.68    1.33
  -1  -8  19    5.20    1.91
  -1  -8  18   27.85    6.67
  -1   8  18   29.11    6.83
  -1  -8  18   33.31    7.62
  -1  -8  17   12.05    3.22
  -1   8  17   13.15    3.54
  -1  -8  17   11.46    3.01
  -1  -8  16    4.64    2.31
  -1   8  16    4.43    2.36
  -1  -8  16    6.93    2.59
  -1  -8  15    7.79    2.19
  -1   8  15    5.88    1.79
  -1  -8  15    8.11    2.22
  -1  -8  14   24.21    4.56
   1  -8 -14   25.09    4.28
  -1   8  14   29.45    5.24
  -1  -8  14   38.91    4.11
  -1  -8  13   11.03    2.07
   1  -8 -13   11.84    1.64
  -1   8  13   10.84    2.14
  -1  -8  13   14.57    2.21
  -1  -8  12   19.60    3.08
   1  -8 -12   18.07    2.23
  -1   8  12   20.62    3.02
  -1  -8  12   19.61    2.80
  -1  -8  11    3.43    1.37
   1  -8 -11    3.48    1.08
  -1   8  11    7.64    2.38
  -1  -8  11    3.28    1.12
   1  -8 -10    3.25    0.86
  -1  -8  10    8.70    2.19
   1  -8 -10    4.89    1.19
  -1   8  10    4.01    1.38
  -1  -8  10    6.47    1.99
   1  -8  -9   14.20    3.24
  -1  -8   9   24.37    2.80
   1  -8  -9   25.73    2.43
  -1   8   9   18.32    2.14
  -1  -8   9   26.90    2.90
   1  -8  -8   10.93    2.69
  -1  -8   8   15.54    3.45
   1  -8  -8   17.68    1.91
  -1   8   8   14.27    2.89
  -1  -8   8   19.28    2.27
  -1  -8   7  203.58   11.95
   1  -8  -7  234.65   12.95
  -1   8   7  221.24   12.21
  -1   8   7  221.18   12.57
  -1  -8   7  226.97   12.72
  -1  -8   6  180.55   10.56
   1  -8  -6  193.67   10.80
  -1   8   6  179.27    9.99
  -1   8   6  168.33    9.67
  -1  -8   6  204.35   11.55
  -1  -8   5  126.51    9.04
   1  -8  -5  141.24    9.61
  -1   8   5  145.92    9.87
  -1  -8   5  126.63    9.33
  -1   8   5  128.08    8.88
  -1  -8   4  211.55   14.51
   1  -8  -4  230.17   15.39
  -1   8   4  215.44   14.38
   1   8  -4  239.38   16.26
  -1  -8   4  198.01   14.87
  -1   8   4  242.36   16.24
   1  -8  -4  215.32   14.42
   1  -8  -3    6.25    1.35
  -1  -8   3    2.94    1.72
  -1   8   3    0.58    0.55
   1   8  -3    2.41    0.89
  -1  -8   3    1.20    0.62
  -1   8   3    1.80    0.98
   1  -8  -3    3.40    0.89
   1  -8  -2  233.41    7.27
  -1  -8   2  258.77    8.40
  -1   8   2  228.87    6.98
   1   8  -2  242.35    9.28
  -1  -8   2  226.87    6.95
  -1   8   2  253.19    7.48
   1  -8  -2  225.72    6.68
   1  -8  -1   21.86    2.65
  -1  -8   1   30.37    3.76
  -1   8   1   23.71    2.76
   1   8  -1   31.41    4.49
  -1  -8   1   22.12    2.62
  -1   8   1   32.45    3.58
   1  -8  -1   27.89    3.11
   1  -8   0    0.72    0.86
  -1   8   0    1.65    0.60
  -1  -8   0    4.95    1.84
  -1   8   0    1.59    0.53
  -1  -8   0    2.75    1.06
   1  -8   0    1.82    0.66
   1  -8   1  221.56    7.20
  -1  -8  -1  222.63    7.43
  -1   8  -1  206.53    5.80
   1   8   1  190.63    6.71
   1  -8   1  195.86    5.51
   1  -8   2   27.80    3.40
  -1  -8  -2   27.90    3.58
   1   8   2   21.49    2.65
   1  -8   3  260.21   17.61
  -1  -8  -3  260.66   17.66
   1   8   3  227.05   15.38
   1  -8   3  237.83   15.56
   1  -8   4   96.98    7.12
  -1  -8  -4   98.23    7.15
   1   8   4   75.51    5.59
   1  -8   4   88.69    5.88
   1  -8   5    5.91    1.35
  -1  -8  -5    5.66    1.31
   1   8   5    6.80    1.25
   1  -8   5    8.58    0.94
   1  -8   6   66.11    6.72
  -1  -8  -6   63.87    6.33
   1  -8   6   45.15    5.02
   1   8   6   56.11    5.75
   1  -8   6   53.47    4.98
   1  -8   7   86.64    5.69
  -1  -8  -7   95.88    5.99
   1  -8   7   82.06    4.95
   1   8   7   81.49    5.32
   1  -8   7   86.16    4.94
   1  -8   8    8.54    2.10
  -1  -8  -8   14.25    3.00
   1  -8   8    9.04    2.20
   1   8   8    9.85    2.17
   1  -8   8   15.30    3.11
   1  -8   9   29.00    4.20
  -1  -8  -9   32.98    4.44
   1  -8   9   29.57    3.66
   1   8   9   28.18    3.87
   1  -8   9   32.77    3.97
   1  -8  10  435.34   31.26
  -1  -8 -10  525.89   37.38
   1   8  10  431.70   31.00
   1  -8  10  496.19   34.96
   1  -8  11   15.99    2.50
  -1  -8 -11   13.16    2.05
   1   8  11   10.04    1.72
   1  -8  11   13.28    1.90
   1  -8  12  143.65   11.73
  -1  -8 -12  181.52   14.23
   1   8  12  156.37   12.65
   1  -8  12  171.65   13.25
   1  -8  13  139.44   12.40
  -1  -8 -13  160.46   13.85
   1   8  13  148.44   13.25
   1  -8  13  152.60   13.01
   1  -8  14    5.74    2.20
  -1  -8 -14    3.17    1.42
   1   8  14    4.35    2.13
   1  -8  14    2.87    1.30
   1  -8  15   56.63    6.14
  -1  -8 -15   71.18    7.20
   1   8  15   47.84    5.41
   1  -8  15   61.17    6.12
   1  -8  16    1.28    1.21
  -1  -8 -16    0.79    1.49
   1   8  16    2.82    1.87
   1  -8  16    1.85    1.21
   1  -8  17    2.40    0.96
  -1  -8 -17    3.07    1.62
   1   8  17    0.77    1.19
   1  -8  17    2.71    1.32
   1  -8  18    9.40    2.97
  -1  -8 -18    8.11    2.43
   1   8  18    5.88    2.08
   1  -8  19    5.46    2.62
   1   8  19    7.02    2.70
  -1  -9  19    0.98    1.21
  -1   9  19    1.62    1.36
  -1  -9  19    0.79    1.04
  -1  -9  18   20.36    4.72
  -1   9  18   11.16    3.26
  -1  -9  18   23.57    5.42
  -1  -9  17    9.83    2.69
  -1   9  17    4.70    1.50
  -1  -9  17    6.21    1.71
  -1  -9  16   58.51    3.57
  -1   9  16   51.32    3.41
  -1  -9  16   70.79    3.42
  -1  -9  15    4.68    2.08
  -1   9  15    5.94    2.45
  -1  -9  15    5.91    2.13
  -1  -9  14    9.94    2.46
  -1   9  14    9.94    2.65
  -1  -9  14   17.81    3.85
  -1  -9  13    4.37    2.06
   1  -9 -13    4.03    1.22
  -1   9  13    2.52    1.34
  -1  -9  13    7.88    1.78
  -1  -9  12   62.74    5.67
   1  -9 -12   72.27    5.79
  -1   9  12   72.77    6.44
  -1  -9  12   76.85    6.56
  -1  -9  11   26.89    3.52
   1  -9 -11   32.31    3.68
  -1   9  11   28.00    3.63
  -1  -9  11   33.25    3.99
  -1  -9  10  171.42   12.87
   1  -9 -10  190.03   13.65
  -1   9  10  198.43   14.71
  -1  -9  10  238.08   17.28
  -1  -9   9  153.77    9.34
   1  -9  -9  150.87    8.49
  -1   9   9  149.60    8.93
  -1  -9   9  175.96   10.12
  -1  -9   8  138.91    8.53
   1  -9  -8  146.81    8.27
  -1   9   8  144.11    8.53
  -1  -9   8  162.27    9.30
  -1  -9   7   18.75    2.53
   1  -9  -7   24.05    2.51
  -1   9   7   17.05    1.77
  -1   9   7   16.94    2.09
  -1  -9   7   21.96    2.37
  -1  -9   6   41.85    4.15
   1  -9  -6   45.46    4.09
  -1   9   6   43.24    3.82
  -1   9   6   38.39    3.60
  -1  -9   5  104.61    6.68
   1  -9  -5  124.24    7.19
  -1   9   5  117.68    6.79
  -1   9   5  115.78    6.85
  -1  -9   4   25.81    3.21
   1  -9  -4   24.84    2.67
  -1   9   4   21.52    2.30
   1   9  -4   28.80    3.85
  -1   9   4   32.61    3.39
   1  -9  -4   23.26    2.46
   1  -9  -3   62.97    4.66
  -1  -9   3   68.62    5.35
  -1   9   3   62.73    4.70
   1   9  -3   70.24    5.72
  -1  -9   3   56.29    4.15
  -1   9   3   79.05    5.61
   1  -9  -3   64.90    4.63
   1  -9  -2  221.15   14.95
  -1  -9   2  255.41   17.41
   1   9  -2  217.44   14.82
  -1   9   2  247.01   16.43
   1  -9  -2  238.35   15.85
   1  -9  -1  182.29   12.47
  -1  -9   1  172.68   12.04
   1   9  -1  158.46   11.24
  -1   9   1  184.42   12.30
   1  -9  -1  159.39   10.66
   1  -9   0  263.08   17.76
  -1  -9   0  286.41   19.42
   1   9   0  236.40   16.76
  -1   9   0  280.61   18.51
   1  -9   0  265.48   17.51
   1  -9   1   76.82    5.71
  -1  -9  -1   89.27    6.64
  -1   9  -1   82.56    5.57
   1   9   1   78.13    9.54
   1  -9   1   78.41    5.30
   1  -9   2  310.89   20.92
  -1  -9  -2  304.84   20.57
  -1   9  -2  279.00   18.30
   1   9   2  267.89   18.02
   1  -9   3   29.30    3.29
  -1  -9  -3   31.99    3.52
   1   9   3   27.18    3.05
   1  -9   3   30.87    2.88
   1  -9   4   14.82    2.10
  -1  -9  -4   15.25    2.06
   1   9   4   20.40    2.48
   1  -9   4   16.94    1.65
   1  -9   5    4.09    1.38
  -1  -9  -5    2.62    1.55
   1   9   5    2.54    1.03
   1  -9   5    1.86    0.43
   1  -9   6  129.03    9.75
  -1  -9  -6  131.41    9.80
   1   9   6  113.61    8.61
   1  -9   6  119.96    8.46
   1  -9   7    0.97    1.67
  -1  -9  -7    4.57    1.42
   1  -9   7    0.55    0.35
   1   9   7    1.79    1.04
   1  -9   7    3.05    0.71
   1  -9   8  423.88   23.53
  -1  -9  -8  415.52   22.83
   1  -9   8  376.38   20.17
   1   9   8  380.50   21.14
   1  -9   8  409.87   21.95
   1  -9   9    2.42    1.75
  -1  -9  -9    2.18    1.49
   1   9   9    1.63    1.18
   1  -9   9    1.87    0.78
   1  -9  10    3.38    1.60
  -1  -9 -10    7.97    2.16
   1   9  10    3.64    1.34
   1  -9  10    3.68    1.03
   1  -9  11   21.80    3.15
  -1  -9 -11   24.90    3.10
   1   9  11   16.76    2.60
   1  -9  11   18.75    2.25
   1  -9  12   94.79    8.80
  -1  -9 -12  127.38   11.19
   1   9  12   98.97    9.13
   1  -9  12  110.41    9.50
   1  -9  13    3.42    2.10
  -1  -9 -13    4.11    2.15
   1   9  13    5.22    1.77
   1  -9  13    0.54    0.59
   1  -9  14   13.46    3.21
  -1  -9 -14   17.08    3.72
   1   9  14   21.22    4.63
   1  -9  14   14.59    3.00
   1  -9  15    1.17    1.65
  -1  -9 -15    2.10    1.67
   1   9  15    1.43    1.31
   1  -9  15    1.70    0.72
   1  -9  16   21.94    3.20
  -1  -9 -16   28.12    3.77
   1   9  16   24.23    3.63
   1  -9  17    4.29    1.58
  -1  -9 -17    6.45    2.02
   1   9  17    1.84    1.49
   1  -9  18    7.36    3.02
  -1  -9 -18    2.06    0.99
   1   9  18    3.25    1.88
   1  -9  19    2.83    1.23
   1   9  19    1.54    1.43
  -1 -10  18    3.62    1.54
  -1  10  18   -0.97    1.12
  -1 -10  18    1.80    1.08
  -1 -10  17    4.43    1.51
  -1  10  17    1.41    1.12
  -1 -10  17    1.57    0.94
  -1 -10  16   10.08    2.94
  -1  10  16   17.34    2.40
  -1 -10  16   26.21    3.45
  -1 -10  15   40.76    2.95
  -1  10  15   39.64    3.05
  -1 -10  15   38.00    2.89
  -1 -10  14    3.98    1.81
  -1  10  14    2.07    1.26
  -1 -10  14    4.79    2.06
  -1 -10  13    1.74    1.18
   1 -10 -13    0.62    0.63
  -1  10  13    0.12    0.87
  -1 -10  13    4.76    1.79
  -1 -10  12   -0.07    1.05
   1 -10 -12    1.40    0.71
  -1  10  12    1.52    1.09
  -1 -10  12    1.91    1.15
  -1 -10  11    4.13    1.64
   1 -10 -11    1.89    0.81
  -1  10  11    6.43    1.65
  -1 -10  11    1.24    1.09
  -1 -10  10    4.52    1.86
   1 -10 -10    1.35    0.98
  -1  10  10    1.59    1.08
  -1 -10  10    2.05    1.01
  -1 -10   9  272.26   20.42
   1 -10  -9  277.12   20.24
  -1  10   9  268.68   20.00
  -1 -10   9  331.74   24.34
  -1 -10   8  104.20    8.30
   1 -10  -8   99.40    7.43
  -1  10   8  107.64    8.29
  -1 -10   8  112.96    8.52
  -1 -10   7   87.01    5.89
   1 -10  -7   91.45    5.49
  -1  10   7   85.85    5.53
  -1 -10   7   99.61    6.08
  -1 -10   6   58.42    7.40
   1 -10  -6   61.78    7.35
  -1  10   6   60.14    7.25
  -1 -10   5  146.89   11.12
   1 -10  -5  128.66    9.38
  -1  10   5  128.88    9.48
  -1 -10   4   37.31    3.83
   1 -10  -4   43.76    4.05
   1  10  -4   38.99    5.20
  -1  10   4   42.42    3.87
   1 -10  -3   23.90    2.49
  -1 -10   3   32.65    3.76
   1  10  -3   27.24    3.77
  -1  10   3   25.30    2.67
   1 -10  -3   20.58    2.09
   1 -10  -2    3.73    1.44
  -1 -10   2    0.46    1.11
   1  10  -2    0.30    0.60
  -1  10   2    2.66    0.84
   1 -10  -2    1.71    0.76
   1 -10  -1   13.78    2.11
  -1 -10   1   19.94    2.90
   1  10  -1   12.96    1.76
  -1  10   1   17.82    1.92
   1 -10  -1   13.88    1.57
   1 -10   0    1.56    1.00
  -1 -10   0    1.21    1.37
   1  10   0    1.35    0.85
  -1  10   0    1.31    0.49
   1 -10   0    1.40    0.64
   1 -10   1   49.19    5.11
  -1 -10  -1   46.62    4.89
  -1  10  -1   44.72    4.88
   1  10   1   43.32    5.38
   1 -10   1   43.72    4.10
   1 -10   2   39.92    4.24
  -1 -10  -2   35.13    3.88
  -1  10  -2   34.49    3.80
   1  10   2   30.49    3.42
   1 -10   3    2.53    1.20
  -1 -10  -3    1.45    1.11
   1  10   3    1.54    0.78
   1 -10   3    1.17    0.40
   1 -10   4    4.30    1.96
  -1 -10  -4    5.94    1.82
   1  10   4    1.52    0.82
   1 -10   4    4.07    0.78
   1 -10   5  177.91   13.22
  -1 -10  -5  157.43   11.68
   1  10   5  156.05   11.49
   1 -10   5  151.87   10.61
   1 -10   6   23.94    3.54
  -1 -10  -6   10.50    1.84
   1  10   6   12.23    2.08
   1 -10   6   15.90    1.94
   1 -10   7  192.42   11.32
  -1 -10  -7  204.51   11.92
   1 -10   7  171.20    9.30
   1  10   7  165.25    9.80
   1 -10   7  172.83    9.37
   1 -10   8  460.39   33.06
  -1 -10  -8  452.08   32.32
   1 -10   8  403.31   28.36
   1  10   8  430.24   30.84
   1 -10   8  421.21   29.59
   1 -10   9    1.94    1.58
  -1 -10  -9    2.65    1.10
   1  10   9    1.14    1.25
   1 -10   9    0.17    0.36
   1 -10  10   75.21    7.10
  -1 -10 -10   72.06    6.18
   1  10  10   67.35    6.02
   1 -10  10   67.75    5.41
   1 -10  11    6.30    2.14
  -1 -10 -11    5.51    1.97
   1  10  11    3.91    1.94
   1 -10  11    5.68    1.59
   1 -10  12    8.06    2.50
  -1 -10 -12    7.08    2.04
   1  10  12    4.13    1.64
   1 -10  12    6.90    1.51
   1 -10  13    3.22    1.90
  -1 -10 -13    1.72    1.19
   1  10  13   -0.04    1.10
   1 -10  13    2.46    0.99
   1 -10  14    4.45    2.01
  -1 -10 -14    3.31    1.22
   1  10  14    2.20    1.37
   1 -10  15    3.82    2.26
  -1 -10 -15    0.89    1.09
   1  10  15    3.64    1.84
   1 -10  16    2.19    1.46
  -1 -10 -16    2.34    1.90
   1  10  16    2.23    1.28
   1 -10  17    3.39    1.36
  -1 -10 -17    2.56    1.57
   1  10  17    2.78    1.50
   1 -10  18   16.46    5.03
   1  10  18    9.67    3.28
  -1 -11  18    4.04    1.95
  -1  11  18    5.68    2.58
  -1 -11  17   44.15    9.37
  -1  11  17   42.76    9.08
  -1 -11  17   43.78    9.02
  -1 -11  16   10.04    2.68
  -1  11  16    6.32    2.17
  -1 -11  16    4.12    1.17
  -1 -11  15   11.21    2.89
  -1  11  15    9.91    2.68
  -1 -11  15   12.70    3.09
  -1 -11  14    3.17    1.92
  -1  11  14    1.78    1.28
  -1 -11  14    0.83    0.86
  -1 -11  13    4.00    2.25
  -1  11  13   11.22    2.68
  -1 -11  13    5.19    1.90
  -1 -11  12   29.63    6.00
   1 -11 -12   21.50    4.06
  -1  11  12   20.91    4.29
  -1 -11  12   21.01    4.19
  -1 -11  11    2.48    1.49
   1 -11 -11    0.91    0.65
  -1  11  11    2.73    1.79
  -1 -11  11    5.41    2.00
  -1 -11  10    2.90    1.51
   1 -11 -10    1.43    0.69
  -1  11  10    1.51    1.10
  -1 -11  10    4.09    1.83
  -1 -11   9    5.45    1.92
   1 -11  -9    9.71    1.51
  -1  11   9    8.15    1.84
  -1 -11   8   43.02    5.25
   1 -11  -8   48.34    5.43
  -1  11   8   44.44    5.29
  -1 -11   8   49.40    5.58
  -1 -11   7  120.67    9.43
   1 -11  -7  126.50    9.38
  -1  11   7  124.13    9.57
  -1 -11   7  138.14   10.29
  -1 -11   6   11.28    3.40
   1 -11  -6    4.03    1.45
  -1  11   6    2.46    1.01
  -1 -11   5   39.83    5.27
   1 -11  -5   39.91    5.04
  -1  11   5   32.70    4.23
   1 -11  -4   67.69    4.39
  -1 -11   4   68.08    5.06
   1  11  -4   51.24    7.90
  -1  11   4   52.84    6.35
   1 -11  -3    2.66    1.14
  -1 -11   3    2.53    1.44
   1  11  -3    0.71    0.72
  -1  11   3    3.43    0.99
   1 -11  -3    0.99    0.70
  -1 -11   2    2.63    1.30
   1  11  -2    1.73    0.83
  -1  11   2    1.06    0.59
   1 -11  -2    0.76    0.50
   1 -11  -1   20.71    2.59
  -1 -11   1   20.91    2.74
   1  11  -1   22.25    2.95
  -1  11   1   24.61    2.34
   1 -11  -1   21.42    2.07
   1 -11   0   73.66    6.61
  -1 -11   0   80.30    6.50
  -1  11   0   70.00    8.32
   1  11   0   74.75    9.96
   1 -11   0   66.57    5.58
   1 -11   1    1.23    0.98
  -1 -11  -1    2.69    1.47
  -1  11  -1    1.98    0.66
   1  11   1    4.69    1.22
   1 -11   1    1.43    0.41
   1 -11   2   22.96    3.20
  -1 -11  -2   20.94    2.97
   1  11   2   15.27    2.21
   1 -11   2   18.41    2.22
   1 -11   3    0.17    0.87
  -1 -11  -3    1.18    1.49
   1  11   3    2.36    0.92
   1 -11   3    0.79    0.39
   1 -11   4   61.07    7.49
  -1 -11  -4   63.69    4.44
   1  11   4   62.52    7.59
   1 -11   4   65.59    3.63
   1 -11   5   62.86    5.53
  -1 -11  -5   59.93   11.43
   1  11   5   52.14    6.53
   1 -11   5   56.49   10.45
   1 -11   6   30.88    4.30
  -1 -11  -6   31.03    4.19
   1  11   6   29.12    4.05
   1 -11   6   31.76    3.76
   1 -11   7  209.66   16.07
  -1 -11  -7  205.29   15.57
   1  11   7  186.71   14.21
   1 -11   8   17.73    3.35
  -1 -11  -8   19.21    2.74
   1  11   8   12.20    2.41
   1 -11   9  575.52  136.09
  -1 -11  -9  547.95  129.50
   1  11   9  495.38   37.66
   1 -11  10   46.56    5.30
  -1 -11 -10   36.49    8.22
   1  11  10   28.43    5.26
   1 -11  11    2.98    1.70
  -1 -11 -11    1.82    1.12
   1  11  11    1.62    1.11
   1 -11  12   29.21    5.89
   1  11  12   32.31    4.00
   1 -11  13   11.62    2.72
  -1 -11 -13   14.57    3.00
   1  11  13    9.17    2.39
   1 -11  14   18.09    2.81
  -1 -11 -14   18.97    2.23
   1  11  14   18.06    4.38
   1 -11  15    3.76    2.11
  -1 -11 -15    3.74    1.62
   1  11  15    4.12    1.92
   1 -11  16   10.86    3.26
  -1 -11 -16   10.20    3.11
   1  11  16    8.61    3.09
   1 -11  17   13.92    4.22
   1  11  17   12.54    3.82
  -1 -12  17    4.24    2.34
  -1  12  17    6.03    2.59
  -1 -12  16    1.23    1.59
  -1  12  16    1.72    1.29
  -1 -12  15   12.75    2.23
  -1  12  15    6.81    2.11
  -1 -12  15   14.92    3.60
  -1 -12  14   -0.67    1.37
  -1  12  14    3.16    1.44
  -1 -12  14    2.35    0.88
  -1 -12  13   42.93    3.56
  -1  12  13   41.02    2.88
  -1 -12  13   39.80    2.50
  -1 -12  12    4.65    2.36
  -1  12  12    0.19    1.01
  -1 -12  12    0.68    0.79
  -1 -12  11   35.18    4.52
   1 -12 -11   26.12    4.93
  -1  12  11   33.12    3.92
  -1 -12  11   36.09    3.95
  -1 -12  10    2.87    1.54
  -1  12  10    1.46    0.97
  -1 -12  10    0.93    0.80
  -1 -12   9   93.82    8.77
   1 -12  -9   88.65    7.77
  -1  12   9   93.33    8.45
  -1 -12   9  114.32    9.95
  -1 -12   8   21.61    3.07
   1 -12  -8   18.11    2.35
  -1  12   8   24.73    3.08
  -1 -12   8   21.70    2.76
  -1 -12   7   36.40    4.52
   1 -12  -7   29.52    3.36
  -1  12   7   28.28    3.34
  -1 -12   7   32.31    3.57
  -1 -12   6   21.07    3.39
   1 -12  -6   22.93    3.00
  -1  12   6   13.25    2.02
  -1 -12   5    8.52    1.91
   1 -12  -5   10.39    1.86
  -1  12   5    5.46    1.41
  -1 -12   4    7.53    2.22
   1 -12  -4    3.19    1.21
   1  12  -4    5.47    1.77
  -1  12   4    4.54    1.19
   1 -12  -3   10.62    2.61
  -1 -12   3   10.60    2.77
   1  12  -3    9.98    2.64
  -1  12   3    7.51    1.77
   1 -12  -2   32.50    4.29
  -1 -12   2   33.72    4.83
   1  12  -2   26.18    5.54
  -1  12   2   35.94    4.43
   1 -12  -1   16.34    2.67
  -1 -12   1   12.95    2.53
   1  12  -1   12.78    2.48
   1 -12   0   -0.18    1.02
  -1 -12   0    3.85    1.66
  -1  12   0    1.36    0.61
   1  12   0    1.58    1.44
   1 -12   1   59.78   11.41
  -1 -12  -1   63.46    5.58
  -1  12  -1   48.39    6.34
   1  12   1   53.67    7.64
   1 -12   2   22.59    3.37
  -1 -12  -2   17.39    2.76
  -1  12  -2   13.74    2.42
   1  12   2   17.05    3.33
   1 -12   3   44.71    5.81
  -1 -12  -3   41.24    5.33
   1  12   3   44.86    6.21
   1 -12   3   47.32    5.56
   1 -12   4  164.49   12.74
  -1 -12  -4  187.94   14.41
   1  12   4  148.82   11.45
   1 -12   4  157.12   11.35
   1 -12   5   36.88    4.69
  -1 -12  -5   43.16    5.34
   1  12   5   36.56    4.50
   1 -12   6    3.58    1.55
  -1 -12  -6    3.50    1.89
   1  12   6    2.06    1.15
   1 -12   6    1.14    0.37
   1 -12   7  119.75    9.98
  -1 -12  -7  101.88    8.48
   1  12   7   98.86    8.31
   1 -12   8    4.53    2.45
  -1 -12  -8    2.98    1.58
   1  12   8    7.45    1.99
   1 -12   9   34.53    4.18
  -1 -12  -9   30.64    3.59
   1  12   9   29.50    3.54
   1 -12  10   -0.83    1.26
  -1 -12 -10    6.21    2.20
   1  12  10    2.54    1.16
   1 -12  11   12.40    3.20
  -1 -12 -11    6.46    1.81
   1  12  11   18.83    4.31
   1 -12  12    5.32    2.25
  -1 -12 -12    4.84    2.38
   1  12  12    2.03    1.28
   1 -12  13    9.21    2.67
  -1 -12 -13    8.93    2.54
   1  12  13    9.86    2.91
   1 -12  14    4.53    1.67
  -1 -12 -14    3.06    1.47
   1  12  14    3.16    1.61
   1 -12  15    4.73    1.73
  -1 -12 -15   12.28    3.40
   1  12  15    7.44    2.35
   1 -12  16   13.36    3.49
   1  12  16   14.34    3.71
  -1 -13  16    3.57    1.87
  -1  13  16    2.09    1.29
  -1 -13  15   42.24    8.81
  -1 -13  14   24.48    5.45
  -1  13  14   29.24    6.28
  -1 -13  13   13.95    3.43
  -1  13  13   12.60    3.09
  -1 -13  12    1.80    1.23
  -1  13  12    4.72    1.97
  -1 -13  12    1.89    0.81
  -1 -13  11    3.15    1.39
  -1  13  11    2.18    1.24
  -1 -13  11    2.81    1.47
  -1 -13  10    2.47    1.36
   1 -13 -10    0.47    0.60
  -1  13  10    5.65    2.06
  -1 -13  10    1.64    1.17
  -1 -13   9    0.72    1.45
   1 -13  -9    3.23    1.33
  -1  13   9    4.17    1.49
  -1 -13   9    3.34    1.41
  -1 -13   8   79.45    8.13
   1 -13  -8   66.11    6.39
  -1  13   8   57.65    5.80
  -1 -13   8   68.36    6.53
  -1 -13   7  124.32   11.24
   1 -13  -7  106.83    9.36
  -1  13   7  108.74    9.58
  -1 -13   7  106.32    9.28
  -1 -13   6   64.48    6.79
   1 -13  -6   43.73    4.35
  -1  13   6   55.17    5.21
  -1 -13   5   20.85    3.46
   1 -13  -5   23.73    3.11
  -1  13   5   15.01    2.08
   1 -13  -4   57.15    5.17
  -1 -13   4   50.08   12.25
   1  13  -4   37.13    6.52
  -1  13   4   42.98    4.60
   1 -13  -3    8.82    1.67
  -1 -13   3   12.85    2.40
   1  13  -3    5.11    1.60
  -1  13   3    7.99    1.83
   1 -13  -2    4.88    1.53
  -1 -13   2    5.57    1.88
   1  13  -2    9.83    2.15
  -1  13   2    7.35    1.81
   1 -13  -1  211.12   15.96
  -1 -13   1  217.35   16.69
   1  13  -1  176.58   16.03
  -1  13   1  200.48   16.18
   1 -13   0   31.02    3.94
  -1 -13   0   34.86    4.58
  -1  13   0   25.96    3.33
   1  13   0   23.34    3.61
   1 -13   1    4.22    1.99
  -1 -13  -1    2.10    1.50
  -1  13  -1    0.90    0.40
   1  13   1    2.71    0.96
   1 -13   2    6.72    2.28
  -1 -13  -2    5.82    1.76
   1  13   2    1.14    0.94
   1 -13   3   51.53    4.76
  -1 -13  -3   40.78    4.75
   1  13   3   38.99    6.79
   1 -13   3   46.30    4.53
   1 -13   4    7.49    1.71
  -1 -13  -4    9.36    1.90
   1  13   4    6.48    1.35
   1 -13   5    2.11    1.45
  -1 -13  -5    2.56    1.38
   1  13   5    2.19    1.39
   1 -13   6    1.51    1.31
  -1 -13  -6    0.76    1.15
   1  13   6    2.15    1.41
   1 -13   7    8.09    2.23
  -1 -13  -7    1.78    1.17
   1  13   7    3.65    1.41
   1 -13   8   19.29    4.50
  -1 -13  -8   17.64    3.68
   1  13   8    8.54    2.17
   1 -13   9    3.86    2.21
  -1 -13  -9    2.97    1.71
   1  13   9    1.14    1.22
   1 -13  10   38.27    4.86
  -1 -13 -10   32.33    3.81
   1  13  10   41.11    5.00
   1 -13  11    8.88    2.79
  -1 -13 -11   15.90    3.77
   1  13  11   10.95    2.84
   1 -13  12    3.06    1.79
  -1 -13 -12    1.53    1.51
   1  13  12    2.30    1.54
   1 -13  13   57.81   12.80
  -1 -13 -13   44.49    9.74
   1  13  13   47.19   10.52
   1 -13  14    2.28    1.51
  -1 -13 -14    6.81    2.13
   1  13  14   12.49    3.60
   1 -13  15   14.98    3.99
   1  13  15    8.09    2.88
  -1 -14  15    1.82    1.23
  -1  14  15    3.42    2.05
  -1 -14  14    2.28    1.39
  -1  14  14   12.70    3.37
  -1 -14  13    7.16    2.47
  -1  14  13   22.19    5.12
  -1 -14  12    4.04    1.62
  -1  14  12    2.62    1.53
  -1 -14  11   15.40    3.70
  -1  14  11   13.21    3.21
  -1 -14  10   13.53    3.50
  -1  14  10   21.53    2.24
  -1 -14  10   19.16    1.73
  -1 -14   9   74.18    8.13
   1 -14  -9   66.28    6.86
  -1  14   9   73.67    7.77
  -1 -14   9   71.05    7.24
  -1 -14   8    2.00    1.64
   1 -14  -8    1.91    1.02
  -1  14   8    4.18    1.24
  -1 -14   8    1.76    0.83
  -1 -14   7   32.46    4.27
   1 -14  -7   32.67    3.59
  -1  14   7   31.61    3.61
  -1 -14   7   45.36    4.72
  -1 -14   6    8.38    2.43
   1 -14  -6    6.73    1.71
  -1  14   6    6.16    1.64
  -1 -14   5    5.97    2.58
   1 -14  -5    6.10    1.67
  -1  14   5    4.34    1.43
   1 -14  -4  270.35   22.78
  -1 -14   4  305.77   26.05
   1  14  -4  243.87   20.51
  -1  14   4  250.56   21.02
   1 -14  -3    3.01    1.60
  -1 -14   3    3.78    2.29
   1  14  -3    3.98    1.49
  -1  14   3    3.28    1.31
   1 -14  -2   27.21    4.89
  -1 -14   2   20.41    4.00
   1  14  -2   20.26    5.16
  -1  14   2   18.70    4.57
   1 -14  -1    4.56    1.63
  -1 -14   1    5.28    1.94
   1  14  -1    2.89    1.45
  -1  14   1    1.48    0.55
   1 -14   0   78.13    7.24
  -1 -14   0   93.22    8.69
  -1  14   0   83.65    7.98
   1  14   0   73.91   10.36
   1 -14   1   73.73    6.95
  -1 -14  -1   78.17    7.51
   1  14   1   62.83    6.97
   1 -14   2   31.06    5.48
  -1 -14  -2   36.74    8.37
   1  14   2   21.71    5.87
   1 -14   3    7.24    2.20
  -1 -14  -3    7.88    1.96
   1  14   3    4.68    1.51
   1 -14   4    7.98    2.29
  -1 -14  -4   10.25    2.82
   1  14   4    0.19    0.79
   1 -14   5    5.34    2.20
  -1 -14  -5    3.18    1.52
   1  14   5    1.80    0.97
   1 -14   6    6.85    2.53
  -1 -14  -6    7.24    2.68
   1  14   6    8.73    2.34
   1 -14   7   35.01    4.35
  -1 -14  -7   33.96    4.11
   1  14   7   34.33    4.04
   1 -14   8    5.55    2.39
  -1 -14  -8    2.64    1.57
   1  14   8    1.76    1.11
   1 -14   9   14.95    3.83
  -1 -14  -9    9.78    2.72
   1  14   9    5.38    2.12
   1 -14  10    9.89    3.31
  -1 -14 -10    2.25    1.13
   1  14  10    0.93    1.07
   1 -14  11    3.16    1.64
  -1 -14 -11    2.19    1.51
   1  14  11    1.66    1.29
   1 -14  12    1.62    1.60
  -1 -14 -12    1.40    0.99
   1  14  12    2.56    1.25
   1 -14  13   24.61    5.93
  -1 -14 -13   16.88    3.98
   1  14  13    8.37    2.87
   1 -14  14    7.21    3.22
   1  14  14    2.46    1.40
  -1 -15  13   10.01    3.46
  -1  15  13    4.91    2.21
  -1 -15  12   10.49    3.52
  -1  15  12    6.36    2.27
  -1 -15  11    8.23    2.64
  -1  15  11    5.66    1.99
  -1 -15  10    5.45    1.94
  -1  15  10    4.28    1.44
  -1 -15   9    5.64    2.97
  -1  15   9    1.78    1.31
  -1 -15   8   18.38    2.48
   1 -15  -8   20.20    2.08
  -1  15   8   10.17    2.55
  -1 -15   7   58.41    6.71
   1 -15  -7   61.12    6.48
  -1  15   7   48.81    5.29
  -1 -15   7   40.79    4.36
  -1 -15   6    4.92    2.28
   1 -15  -6    1.90    0.89
  -1 -15   5   38.31    4.94
   1 -15  -5   23.53    4.62
  -1  15   5   27.06    5.16
   1 -15  -4    2.05    1.27
  -1 -15   4    0.02    1.64
   1  15  -4    1.53    0.92
  -1  15   4    2.09    0.94
   1 -15  -3   29.92    4.26
  -1 -15   3   40.99    4.94
   1  15  -3   21.04    5.50
  -1  15   3   19.42    5.45
   1 -15  -2    2.12    1.20
  -1 -15   2    4.86    2.39
   1  15  -2    2.02    0.81
  -1  15   2    1.16    0.61
   1 -15  -1    2.56    1.28
  -1 -15   1    5.10    2.48
   1  15  -1    4.15    1.35
   1 -15   0    3.79    1.62
  -1 -15   0    2.39    2.15
   1  15   0    1.65    0.77
   1 -15   1    0.43    1.12
  -1 -15  -1    3.03    1.83
   1  15   1    1.90    0.96
   1 -15   2   29.60    5.81
  -1 -15  -2   33.47    4.39
   1  15   2   20.29    5.98
   1 -15   3    1.02    1.38
  -1 -15  -3    2.62    2.12
   1  15   3    1.96    0.96
   1 -15   4    6.91    2.33
  -1 -15  -4    4.77    1.69
   1  15   4    6.47    1.86
   1 -15   5    5.65    2.22
   1  15   5    1.45    0.91
   1 -15   6    3.44    2.02
  -1 -15  -6    4.96    1.91
   1  15   6    2.86    1.13
   1 -15   7    0.64    1.37
  -1 -15  -7    1.73    1.32
   1  15   7    2.37    1.40
   1 -15   8    5.10    2.60
  -1 -15  -8    2.70    1.64
   1  15   8    2.34    1.15
   1 -15   9   42.69    5.55
  -1 -15  -9   29.30    3.86
   1  15   9   29.50    3.90
   1 -15  10    5.23    2.94
  -1 -15 -10    4.39    1.77
   1  15  10    2.43    1.26
   1 -15  11   19.32    4.69
  -1 -15 -11   13.19    3.59
   1  15  11   12.31    3.56
   1 -15  12   27.94    6.20
  -1 -15 -12   17.25    3.91
   1 -15  13    3.30    2.26
   1  15  13    0.34    1.19
  -1 -16  12    7.86    2.91
  -1  16  12    7.22    2.71
  -1 -16  11    1.73    1.38
  -1  16  11    3.03    1.16
  -1 -16  10   12.71    3.78
  -1  16  10   12.33    3.61
  -1 -16   9    4.42    2.26
  -1  16   9   -0.25    0.85
  -1 -16   8   18.59    4.85
  -1  16   8   13.04    3.32
  -1 -16   7    8.32    2.87
   1 -16  -7    6.54    1.85
  -1  16   7    6.02    2.41
  -1 -16   6    9.39    3.03
   1 -16  -6    1.80    0.87
  -1  16   6    4.37    1.92
  -1 -16   5    3.74    2.01
   1 -16  -5    2.45    1.05
   1 -16  -4    2.79    1.16
  -1 -16   4    9.10    2.83
   1 -16  -3    3.51    1.43
  -1 -16   3    5.17    2.08
   1  16  -3    1.98    0.67
   1 -16  -2    0.82    1.30
  -1 -16   2    9.86    3.21
   1  16  -2    3.60    0.69
   1 -16  -1   17.85    3.59
  -1 -16   1   11.62    2.79
   1  16  -1    7.62    2.55
   1 -16   0   43.98    5.33
  -1 -16   0   48.85    5.64
   1  16   0   20.85    5.49
   1 -16   1   35.94    4.47
  -1 -16  -1   31.88    4.21
   1  16   1   20.53    5.18
   1 -16   2    3.44    1.87
  -1 -16  -2    2.68    1.35
   1  16   2    1.06    0.69
   1 -16   3    2.20    1.32
  -1 -16  -3    4.77    2.30
   1  16   3    0.15    0.73
   1 -16   4   15.28    3.82
  -1 -16  -4   13.96    3.82
   1  16   4    9.83    2.49
   1 -16   5    2.03    1.49
  -1 -16  -5    2.12    1.33
   1  16   5    1.65    1.06
   1 -16   6    3.34    1.48
  -1 -16  -6    6.27    2.14
   1  16   6   -0.61    0.82
   1 -16   7   29.57    7.08
  -1 -16  -7   24.74    5.81
   1  16   7   23.77    5.45
   1 -16   8    9.34    2.56
  -1 -16  -8   10.64    2.97
   1  16   8    9.77    2.38
   1 -16   9    3.65    1.78
  -1 -16  -9    4.81    1.95
   1  16   9    4.42    1.83
   1 -16  10   15.48    4.01
  -1 -16 -10    9.13    2.90
   1  16  10    9.22    3.00
   1 -16  11   43.92   11.63
  -1 -16 -11   27.49    7.34
   1  16  11   27.62    7.50
  -1 -17  10   40.69   10.77
  -1 -17   9    5.18    2.17
  -1 -17   8    4.56    1.81
  -1 -17   7    4.23    1.69
  -1 -17   6    9.00    3.06
   1 -17  -6    5.33    1.64
  -1 -17   5    5.03    2.54
   1 -17  -5    2.17    1.06
  -1 -17   4    5.02    2.02
   1 -17  -3    2.98    1.86
  -1 -17   3    4.22    1.84
   1 -17  -2   15.79    3.63
  -1 -17   2   10.23    2.86
   1 -17  -1   10.18    2.71
  -1 -17   1   12.18    3.19
   1 -17   0    3.80    2.08
  -1 -17   0    2.73    2.16
   1  17   0    1.61    0.75
   1 -17   1    1.72    1.29
  -1 -17  -1    0.48    1.44
   1  17   1    0.90    0.60
   1 -17   2    5.56    2.31
  -1 -17  -2   10.54    2.99
   1  17   2    3.04    1.12
   1 -17   3    6.18    2.01
  -1 -17  -3    8.90    2.59
   1  17   3    3.68    0.81
   1 -17   4   54.32   11.93
  -1 -17  -4   56.40   12.34
   1  17   4   33.86    8.87
   1 -17   5    1.90    1.41
  -1 -17  -5    1.54    1.36
   1  17   5    1.93    0.96
   1 -17   6   22.50    5.19
  -1 -17  -6   27.11    6.07
   1  17   6   20.32    5.72
   1 -17   7   16.85    4.65
  -1 -17  -7    5.36    1.73
   1  17   7   11.01    3.22
  -1 -17  -8    3.18    1.43
   1  17   8    4.13    1.32
   1 -17   9   20.08    5.69
  -1 -17  -9   19.39    5.53
   1  17   9   14.23    4.06
  -1 -18   7    6.54    3.07
  -1 -18   6   98.81   24.95
  -1 -18   5    5.54    2.38
   1 -18  -5    1.98    0.98
   1 -18  -4   13.44    3.44
  -1 -18   4   16.44    4.25
   1 -18  -3    1.33    1.16
  -1 -18   3    1.68    1.67
  -1 -18   2   14.02    4.23
   1 -18  -1    2.95    1.38
  -1 -18   1    4.33    1.89
   1 -18   0    3.69    1.58
  -1 -18   0    0.99    1.46
   1 -18   1    5.61    2.07
  -1 -18  -1    5.56    2.48
   1 -18   2    5.65    2.19
  -1 -18  -2    1.79    1.52
   1 -18   3   20.03    4.68
  -1 -18  -3   16.08    4.20
   1 -18   4    2.83    2.17
  -1 -18  -4    1.06    1.35
   1  18   4    0.65    0.64
   1 -18   5    2.50    1.56
  -1 -18  -5    2.30    1.38
   1  18   5    2.61    1.17
   1 -18   6   15.17    4.46
  -1 -18  -6   10.77    3.61
   1  18   6    5.95    2.40
   1 -19  -2    2.59    1.71
  -1 -19   2    3.51    2.08
   1 -19  -1    1.36    1.20
  -1 -19   1    6.76    3.35
   1 -19   0    5.85    2.47
  -1 -19   0    9.11    3.49
   1 -19   1    7.58    2.87
  -1 -19  -1    7.81    2.77
  -2   0  21    0.25    1.45
  -2   0  20    6.17    2.68
  -2   0  19    4.61    2.07
  -2   0  18    3.91    1.66
  -2   0  18   11.82    3.10
  -2   0  17    0.91    1.07
  -2   0  17    9.43    2.73
  -2   0  16   85.54    8.60
  -2   0  16  124.49   11.26
  -2   0  15    0.26    0.64
  -2   0  15    2.60    1.83
  -2   0  14   39.28    6.46
  -2   0  14   47.68    6.41
  -2   0  13    3.88    1.27
   2   0 -13    1.20    0.50
  -2   0  13    0.80    1.33
  -2   0  12   67.13    5.83
   2   0 -12   55.68    4.82
  -2   0  12   66.91    6.18
  -2   0  11   -0.34    0.54
   2   0 -11    1.04    0.63
  -2   0  10  328.31   21.74
   2   0 -10  293.02   19.40
  -2   0  10  333.55   22.45
  -2   0   9    0.76    0.52
   2   0  -9   -0.05    0.56
  -2   0   9    0.51    0.99
  -2   0   8 1606.19   42.98
   2   0  -8 1603.03   42.84
  -2   0   8 1475.36   40.23
  -2   0   7    0.22    0.48
   2   0  -7    0.78    0.37
  -2   0   7    1.23    1.05
  -2   0   6    3.77    0.65
   2   0  -6    7.43    0.82
  -2   0   6    4.90    1.39
  -2   0   5    0.41    0.43
   2   0  -5    1.04    0.50
  -2   0   5    2.19    0.87
  -2   0   4  318.66    5.53
   2   0  -4  316.01    5.45
  -2   0   4  331.41    6.54
  -2   0   3    1.52    0.71
   2   0  -3    2.12    0.70
  -2   0   3    0.78    0.45
   2   0  -2 2407.84   36.94
  -2   0   2 2179.27   33.52
  -2   0   1    3.47    1.30
   2   0  -1    3.58    0.93
  -2   0   1   -0.40    0.64
  -2   0   0  170.12    3.67
  -2   0   0  173.69    3.74
   2   0   0  174.65    3.75
  -2   0   0  170.63    9.31
   2   0   1   -0.92    0.81
  -2   0  -1    2.15    1.04
   2   0   1    1.26    0.72
  -2   0  -1    1.40    0.63
   2   0   2   80.89    4.75
  -2   0  -2   84.42    6.71
   2   0   2   78.11    3.46
  -2   0  -2   82.86    3.56
   2   0   3    2.78    1.08
  -2   0  -3    1.60    0.51
   2   0   3    2.13    0.87
   2   0   4    1.83    0.79
  -2   0  -4    0.52    0.90
   2   0   4    1.60    0.83
  -2   0  -4    1.22    0.87
   2   0   5    1.82    0.54
  -2   0  -5    1.42    0.49
   2   0   5    0.84    0.75
  -2   0  -5    1.80    1.21
   2   0   6   74.25    3.51
   2   0   6   84.11    3.25
  -2   0  -6   71.77    2.85
   2   0   7    2.86    1.22
   2   0   7    0.46    0.80
  -2   0  -7    3.91    1.19
   2   0   8  148.34   10.65
   2   0   8  172.50   11.83
   2   0   9    0.77    1.14
   2   0   9    2.76    1.13
   2   0  10    3.77    2.26
   2   0  10    8.54    2.46
   2   0  11    3.75    1.54
   2   0  11    0.83    1.32
   2   0  12    1.56    0.92
   2   0  12    1.57    1.39
   2   0  13    4.08    1.55
   2   0  13    2.24    1.27
   2   0  14   12.62    2.77
   2   0  14   13.91    2.30
   2   0  15    1.29    1.11
   2   0  15    3.69    1.99
   2   0  16  149.74   16.18
   2   0  16  205.27   18.99
   2   0  17    1.83    1.71
   2   0  17    3.45    1.54
   2   0  18    5.24    2.20
   2   0  18   10.79    3.08
   2   0  19    1.98    1.05
   2   0  19    3.93    1.55
   2   0  20   19.55    5.15
   2   0  20   12.55    2.55
  -2   1  21    2.18    1.42
  -2  -1  21    5.38    2.27
  -2   1  20    9.98    3.11
  -2  -1  20    5.74    2.48
  -2  -1  19    2.03    0.78
  -2   1  19   10.06    2.99
  -2  -1  19    3.06    1.78
  -2   1  18   13.78    4.07
  -2  -1  18   19.10    4.76
  -2   1  18   34.80    4.69
  -2  -1  18   24.14    4.71
  -2   1  17    5.76    2.24
  -2  -1  17   11.14    2.94
  -2   1  17    8.94    2.55
  -2  -1  17    5.35    1.99
  -2   1  16   27.66    6.31
  -2  -1  16   30.14    6.00
  -2   1  16   49.84    5.31
  -2  -1  16   34.68    6.24
  -2   1  15   37.59    4.67
  -2  -1  15   41.16    6.85
  -2   1  15   60.07    5.69
  -2  -1  15   61.63    5.85
  -2  -1  14  159.45   11.74
  -2   1  14  213.76   15.96
  -2  -1  14  168.34   12.76
  -2   1  13   24.88    4.82
  -2  -1  13   21.64    2.92
   2  -1 -13   23.27    2.97
  -2   1  13   27.85    3.93
  -2  -1  13   21.84    3.28
  -2   1  12   62.45    6.16
  -2  -1  12   58.21    5.14
   2  -1 -12   65.54    5.62
  -2   1  12   51.22    5.00
  -2  -1  12   76.87   15.27
  -2   1  11   14.13    2.38
  -2  -1  11   14.28    1.72
   2  -1 -11   13.05    1.49
   2   1 -11   17.63    2.00
  -2   1  11   14.98    2.12
  -2  -1  11   21.64    2.71
  -2   1  10   25.58    4.57
  -2  -1  10   24.56    4.47
   2  -1 -10   22.22    2.20
   2   1 -10   21.04    2.22
  -2   1  10   19.37    2.56
  -2  -1  10   30.42    3.20
  -2   1   9  108.52    7.35
  -2  -1   9  119.49    8.21
   2  -1  -9  100.10    6.76
   2   1  -9  111.75    7.68
  -2   1   9  107.44    7.70
  -2  -1   9  107.80    7.79
  -2   1   8  491.33   13.45
  -2  -1   8  474.78   13.34
   2  -1  -8  479.16   13.08
   2   1  -8  478.89   13.39
  -2   1   8  449.01   13.28
  -2  -1   8  529.16   15.33
  -2   1   7   28.55    3.09
  -2  -1   7   29.41    3.37
   2   1  -7   26.33    2.97
   2  -1  -7   28.16    3.04
  -2   1   7   25.38    3.14
  -2  -1   7   28.73    3.43
  -2   1   6  271.82    7.42
  -2  -1   6  277.16    7.98
   2   1  -6  261.49    7.44
   2  -1  -6  265.85    7.23
  -2   1   6  286.72    8.67
  -2  -1   6  255.57    7.86
   2  -1  -6  266.79    8.02
  -2   1   5    4.84    0.62
  -2  -1   5    6.06    0.97
   2   1  -5    5.84    0.86
   2  -1  -5    3.79    0.46
  -2   1   5    7.36    1.73
  -2  -1   5    2.81    0.66
   2  -1  -5    3.40    0.87
  -2  -1   4    2.01    1.03
  -2   1   4    0.20    0.26
   2   1  -4    0.97    0.56
   2  -1  -4    1.77    0.48
  -2  -1   4    0.40    0.81
  -2   1   4    1.15    0.95
  -2  -1   4    1.35    1.18
  -2   1   3    1.00    0.43
  -2   1   3    0.70    0.29
  -2   1   3    1.39    0.81
  -2  -1   3    1.98    0.80
  -2   1   3    2.62    0.95
  -2   1   2   77.85    3.25
  -2  -1   2   77.74    3.38
   2   1  -2   77.21    3.26
  -2   1   2   80.72    3.27
  -2   1   2   79.88    3.47
   2   1  -2   90.11    3.97
  -2  -1   2   81.91    6.87
  -2  -1   1  435.67    7.69
   2   1  -1  416.94    7.28
   2  -1  -1  429.74    8.19
   2   1  -1  429.65    7.70
  -2   1   1  426.89    7.77
  -2  -1   1  424.20    7.86
  -2  -1   0 2303.13   35.38
   2  -1   0 2252.67   34.30
   2   1   0 2191.91   34.01
  -2  -1   0 2080.45   32.12
  -2  -1  -1  272.31    5.89
   2  -1   1  286.78    5.92
  -2   1  -1  263.18    6.32
  -2  -1  -1  285.30    5.67
   2  -1   1  259.56    5.54
   2   1   1  279.99    5.65
  -2  -1  -1  271.92    5.30
  -2  -1  -2    6.86    1.34
   2  -1   2   12.10    1.79
  -2   1  -2    9.45    1.33
  -2  -1  -2    8.73    1.08
   2  -1   2   11.65    2.24
   2   1   2    9.29    1.13
  -2  -1  -2    8.54    0.92
  -2   1  -2    8.81    0.87
   2   1   3  562.98   10.10
  -2  -1  -3  528.94   12.25
   2  -1   3  554.85   10.79
  -2   1  -3  503.94    9.71
   2   1   3  545.45    9.60
  -2  -1  -3  528.18    9.22
  -2   1  -3  541.00    9.12
   2   1   4  156.83    6.13
   2  -1   4  166.38    6.61
  -2  -1  -4  155.60    5.38
  -2   1  -4  165.06    7.88
   2   1   4  177.18    5.63
  -2  -1  -4  163.45    5.19
  -2   1  -4  174.89    5.28
   2   1   5   66.62    6.21
   2  -1   5   75.53    8.39
  -2  -1  -5   49.18    6.52
  -2   1  -5   50.16    5.83
   2   1   5   57.88    6.30
  -2   1  -5   51.44    4.03
   2   1   6   37.91    5.90
   2  -1   6   25.18    3.96
   2   1   6   33.42    3.98
   2  -1   6   33.17    3.81
  -2   1  -6   32.14    3.63
   2   1   7    2.88    1.38
   2  -1   7    6.26    1.13
   2   1   7    4.42    1.11
   2  -1   7    4.76    1.04
  -2   1  -7    7.06    1.08
   2  -1   8  325.28   22.77
   2   1   8  387.46   25.83
   2  -1   8  382.66   25.42
   2   1   9    2.09    0.77
   2  -1   9    2.16    1.42
   2   1   9   -0.61    0.98
   2  -1   9    1.50    1.38
   2   1  10  160.44   11.44
   2  -1  10  141.13   10.40
   2   1  10  173.03   10.20
   2  -1  10  170.25    9.97
   2   1  11    2.74    1.40
   2  -1  11    1.87    1.27
   2   1  11    3.78    1.60
   2  -1  11    3.03    1.92
   2   1  12   92.68    9.03
   2  -1  12  105.10   11.37
   2   1  12  116.12    7.35
   2  -1  12  115.43    7.08
   2   1  13    9.66    2.41
   2  -1  13   12.15    2.23
   2   1  13   17.43    2.82
   2  -1  13   18.44    2.83
   2   1  14   46.64    6.69
   2  -1  14   55.95    7.85
   2   1  14   73.93    6.69
   2  -1  14   67.07    5.97
   2   1  15   18.05    3.49
   2  -1  15   20.83    4.85
   2   1  15   21.25    4.25
   2  -1  15   24.22    4.42
   2   1  16   28.06    6.40
   2  -1  16   41.88    6.15
   2   1  16   47.77    5.48
   2  -1  16   45.09    5.18
   2   1  17   67.16   11.98
   2  -1  17   76.71   12.07
   2   1  17   99.91   10.34
   2  -1  17  102.31   10.47
   2   1  18   -0.21    1.04
   2  -1  18    3.93    1.81
   2   1  18    4.52    2.16
   2  -1  18    2.74    1.36
   2   1  19    7.03    2.56
   2  -1  19   14.14    4.36
   2  -1  19   13.68    3.64
   2   1  19   14.81    3.81
   2   1  20   10.56    4.87
   2  -1  20   17.37    5.13
   2   1  20   28.59    6.44
   2  -1  20   29.62    6.52
  -2   2  21    6.53    2.42
  -2  -2  21    4.19    1.77
  -2   2  20    3.80    1.71
  -2  -2  20    5.49    2.42
  -2  -2  19   22.78    5.03
  -2   2  19   62.14    7.48
  -2  -2  19   41.26    5.27
  -2  -2  18   42.75    6.67
  -2   2  18   83.83    9.14
  -2  -2  18   74.74    8.07
  -2  -2  17   40.76    6.51
  -2   2  17   63.02    7.18
  -2  -2  17   58.81    6.44
  -2   2  16   28.15    5.86
  -2  -2  16   35.76    7.98
  -2   2  16   44.60    4.80
  -2  -2  16   48.54    5.21
  -2   2  15    1.18    0.68
  -2  -2  15    2.11    0.98
  -2   2  15    2.96    1.49
  -2  -2  15    3.67    1.65
  -2   2  14   42.52    5.34
  -2  -2  14   38.51    4.48
   2  -2 -14   36.43    4.04
  -2   2  14   42.26    5.17
  -2  -2  14   40.08    4.98
  -2  -2  13   81.70    5.16
   2  -2 -13   81.65    4.81
  -2   2  13   93.16    6.13
  -2  -2  13  103.18    6.70
  -2   2  12   44.35    4.96
  -2  -2  12   41.99    3.92
   2  -2 -12   42.66    3.72
  -2   2  12   49.13    5.01
  -2  -2  12   49.70    4.81
  -2   2  11    0.87    0.32
  -2  -2  11    0.18    0.65
   2  -2 -11    1.94    0.56
  -2   2  11    3.41    1.30
  -2  -2  11    3.97    1.44
  -2   2  10   21.85    2.60
  -2  -2  10   22.15    2.41
   2  -2 -10   19.34    1.94
   2   2 -10   21.42    2.32
  -2   2  10   28.34    3.55
  -2  -2  10   20.06    2.49
  -2   2   9  272.26   17.90
  -2  -2   9  269.74   18.01
   2  -2  -9  271.60   17.84
   2   2  -9  254.53   17.00
  -2   2   9  247.13   16.83
  -2  -2   9  270.23   18.29
  -2   2   8  174.49    4.96
  -2  -2   8  165.95    5.38
   2   2  -8  165.89    5.32
  -2   2   8  164.81    5.83
  -2  -2   8  177.41    6.15
  -2   2   7   35.84    4.14
  -2  -2   7   37.84    4.26
   2   2  -7   34.25    3.86
  -2   2   7   34.71    4.11
  -2  -2   7   44.43    2.51
  -2   2   6   44.16    3.29
  -2  -2   6   41.06    3.44
   2   2  -6   41.40    3.33
  -2   2   6   51.10    4.31
  -2  -2   6   47.46    4.02
   2  -2  -6   38.04    3.19
  -2  -2   5  127.07    4.32
   2   2  -5  111.70    3.66
  -2  -2   5  102.17    9.16
  -2   2   5  123.65    4.36
   2  -2  -5  120.34    4.10
  -2  -2   5  128.59    4.48
  -2   2   4  314.86    8.37
  -2   2   4  319.15    8.46
  -2  -2   4  310.11   10.11
  -2   2   4  316.13    9.18
   2  -2  -4  322.62    9.24
  -2   2   3   60.37    2.52
  -2  -2   3   61.90    2.93
   2   2  -3   66.25    2.98
  -2   2   3   65.58    2.59
  -2  -2   3   51.92    6.69
  -2   2   3   68.54    3.30
   2  -2  -2  632.67   10.01
  -2   2   2  616.45    9.83
  -2  -2   2  634.13   10.74
   2   2  -2  629.92   10.55
   2   2  -2  661.07   11.93
  -2  -2   2  621.14   11.54
  -2   2   2  670.91   11.07
  -2   2   1  454.10    7.65
  -2  -2   1  442.02    7.95
   2   2  -1  442.60    7.80
  -2   2   1  431.36    8.25
   2   2  -1  465.52    8.91
  -2  -2   1  450.84    8.06
   2  -2   0  612.76   10.78
  -2  -2   0  624.27   10.77
   2   2   0  610.95   10.39
  -2   2   0  598.58    9.91
   2   2   0  586.87   10.30
  -2  -2   0  586.18   10.04
   2  -2   1 1153.91   18.81
  -2  -2  -1 1167.16   18.90
   2   2   1 1103.91   17.76
   2   2   1 1111.29   18.16
  -2   2  -1 1087.61   16.92
  -2  -2  -1 1066.59   17.24
  -2  -2  -2  134.08    5.66
   2  -2   2  149.87    4.86
  -2   2  -2  128.66    5.26
  -2  -2  -2  138.36   10.30
   2  -2   2  140.18   10.25
   2   2   2  140.54   10.48
  -2   2  -2  141.53   10.32
  -2  -2  -2  136.05   10.10
  -2  -2  -3    1.35    0.73
   2  -2   3    3.82    0.73
  -2   2  -3    1.87    0.69
  -2  -2  -3    4.46    1.20
   2  -2   3    1.68    0.48
   2   2   3    3.46    1.05
  -2  -2  -3    3.25    0.95
  -2   2  -3    3.12    0.84
  -2  -2  -4  202.10    6.85
   2  -2   4  203.36    6.98
  -2   2  -4  181.91    5.81
  -2  -2  -4  205.47    6.53
   2   2   4  203.54    6.48
   2  -2   4  190.96    5.64
  -2  -2  -4  174.33    5.57
  -2   2  -4  189.95    5.61
   2   2   5  495.92   14.18
   2  -2   5  565.66   17.95
   2   2   5  551.31   15.55
  -2   2  -5  538.37   14.75
   2   2   6  270.43    8.53
   2  -2   6  320.12   11.15
   2   2   6  304.54    9.36
   2  -2   6  310.22    9.08
  -2   2  -6  280.27    8.23
   2   2   7  234.64    8.86
   2  -2   7  251.61   14.18
   2   2   7  282.27    8.97
   2  -2   7  282.90    8.49
  -2   2  -7  263.18    7.89
   2   2   8  183.30   15.54
   2  -2   8  167.34   12.39
   2   2   8  198.95   13.70
   2  -2   8  188.48   12.77
  -2   2  -8  158.18   10.75
   2   2   9   68.95    8.54
   2  -2   9   64.11    8.26
   2   2   9   73.25   12.84
   2  -2   9   74.68   12.97
   2   2  10   15.57    2.85
   2  -2  10    8.54    2.40
   2   2  10   18.83    2.62
   2  -2  10   13.43    1.83
   2   2  11   69.70    9.91
   2  -2  11   69.47    9.29
   2   2  11   87.64    7.09
   2  -2  11   74.53    6.61
   2   2  12   15.64    3.58
   2  -2  12   13.96    2.89
   2   2  12   19.52    3.19
   2  -2  12   18.56    2.81
   2   2  13    1.21    1.04
   2  -2  13    1.71    1.18
   2   2  13    4.82    2.38
   2  -2  13    1.67    1.20
   2   2  14    3.02    1.17
   2  -2  14    1.89    0.89
   2   2  14    3.93    1.80
   2  -2  14    2.00    1.23
   2   2  15   26.95    5.85
   2  -2  15   32.87    6.45
   2   2  15   33.48    5.97
   2  -2  15   36.49    8.32
   2   2  16    1.35    1.48
   2  -2  16    2.93    1.19
   2   2  16    6.11    2.41
   2  -2  16    2.24    1.39
   2   2  17   31.86    5.94
   2  -2  17   40.70    6.88
   2   2  17   63.32    7.30
   2  -2  17   45.18    5.18
   2   2  18    1.34    0.90
   2  -2  18    4.12    2.03
   2   2  18    0.97    1.53
   2  -2  18    0.05    1.16
   2   2  19    3.31    1.06
   2  -2  19    2.62    1.06
   2   2  19    4.69    2.17
   2  -2  19    4.53    1.88
   2   2  20    1.91    1.63
   2  -2  20    5.39    2.10
   2   2  20    5.53    2.56
   2  -2  20    3.82    1.53
  -2   3  21   51.60   10.74
  -2  -3  21   49.83   10.51
  -2  -3  20    1.79    0.57
  -2   3  20    4.99    2.38
  -2  -3  20    2.04    1.61
  -2  -3  19    1.00    0.77
  -2   3  19    2.40    2.05
  -2  -3  19    4.68    2.67
  -2  -3  18    3.63    1.32
  -2   3  18    7.89    3.18
  -2  -3  18    9.43    2.82
  -2  -3  17    2.92    1.36
  -2   3  17    2.74    1.69
  -2  -3  17    0.73    1.44
  -2   3  16    7.32    1.96
  -2  -3  16    4.99    1.58
  -2   3  16    7.55    2.31
  -2  -3  16   14.80    3.46
  -2   3  15   15.54    3.42
  -2  -3  15   13.78    2.07
  -2   3  15   22.51    3.21
  -2  -3  15   23.96    3.46
  -2   3  14    0.46    0.32
  -2  -3  14    2.14    1.06
  -2   3  14    5.18    1.96
  -2  -3  14    1.41    1.46
  -2   3  13   71.97    6.77
  -2  -3  13   65.69    5.29
  -2   3  13   69.11    5.78
  -2  -3  13   88.06    7.18
  -2  -3  12  294.93   16.31
   2  -3 -12  311.22   16.70
  -2   3  12  316.38   17.78
  -2  -3  12  379.05   21.05
  -2   3  11   54.20    5.49
  -2  -3  11   48.98    4.43
   2  -3 -11   53.73    4.48
  -2   3  11   54.02    5.12
  -2  -3  11   64.18    5.91
  -2   3  10    1.35    0.35
  -2  -3  10    3.93    1.20
  -2   3  10    4.27    1.43
  -2  -3  10    2.73    1.76
  -2  -3   9   11.45    1.51
  -2   3   9   18.38    2.30
  -2  -3   9   15.38    2.02
  -2  -3   8  350.21   10.41
   2   3  -8  320.81    9.56
  -2   3   8  323.24   10.05
  -2  -3   7    1.28    1.30
   2   3  -7    1.12    0.70
  -2   3   7    1.28    1.07
  -2  -3   7    0.44    0.89
  -2  -3   6  232.28    7.26
   2   3  -6  226.36    6.83
  -2   3   6  245.04    7.68
  -2  -3   6  234.95    7.42
   2   3  -5    6.89    0.89
  -2  -3   5    7.53    1.52
  -2   3   5    8.43    1.44
  -2  -3   4   15.13    1.64
  -2  -3   4   13.78    2.05
   2  -3  -3    2.86    0.37
  -2   3   3    2.23    0.58
  -2  -3   3    2.95    1.46
   2   3  -3    4.14    1.40
   2   3  -3    1.76    1.05
  -2  -3   3    2.39    0.71
   2  -3  -3    0.88    0.66
   2  -3  -2    6.72    0.95
  -2   3   2    6.30    0.66
  -2  -3   2    5.19    1.56
   2   3  -2    4.12    0.80
   2   3  -2    7.51    1.20
  -2  -3   2    5.65    0.82
  -2   3   2    6.97    1.02
   2  -3  -1   35.46    2.18
  -2   3   1   34.24    1.67
  -2  -3   1   35.09    2.08
   2   3  -1   38.71    2.12
  -2   3   1   37.58    3.60
   2   3  -1   39.75    3.97
  -2  -3   1   39.28    3.06
  -2   3   1   32.76    1.62
  -2   3   0  196.80    3.96
   2   3   0  192.97    4.23
  -2   3   0  202.76    3.89
  -2  -3   0  183.11    4.12
   2  -3   1   10.61    1.74
  -2   3  -1    5.24    0.70
  -2  -3  -1    7.48    1.23
   2   3   1    8.62    0.98
   2  -3   1    8.24    1.26
   2   3   1    9.03    1.45
  -2   3  -1    6.12    0.64
  -2  -3  -1    5.87    0.96
   2  -3   2   15.50    2.44
  -2   3  -2   12.60    1.49
  -2  -3  -2   12.23    1.47
   2   3   2   10.90    1.27
   2  -3   2   13.75    2.05
   2   3   2   15.85    1.87
  -2  -3  -2   12.16    1.43
  -2   3  -2   14.02    1.33
  -2  -3  -3  828.65   22.58
   2  -3   3  869.99   24.91
  -2   3  -3  798.09   21.73
  -2  -3  -3  892.56   24.35
   2  -3   3  849.14   22.52
   2   3   3  885.87   24.15
  -2  -3  -3  784.41   21.38
  -2   3  -3  825.24   21.90
   2  -3   4  824.02   23.21
  -2   3  -4  728.79   20.06
  -2  -3  -4  818.88   22.54
   2  -3   4  802.88   21.40
   2   3   4  820.14   22.52
  -2   3  -4  784.13   20.92
   2  -3   5  444.97   12.98
  -2  -3  -5  466.07   13.46
   2   3   5  441.67   12.83
   2  -3   5  433.85   11.94
  -2   3  -5  426.11   11.72
   2  -3   6  335.34   10.58
  -2  -3  -6  359.17   10.91
   2   3   6  337.99   10.36
   2  -3   6  334.78    9.60
  -2   3  -6  320.95    9.21
   2  -3   7    5.61    1.57
  -2  -3  -7    6.65    2.04
   2   3   7    5.07    1.39
   2  -3   7    6.20    1.16
  -2   3  -7    9.76    1.26
   2  -3   8    0.79    0.81
   2   3   8    2.07    1.14
   2  -3   8    1.49    0.61
  -2   3  -8    2.18    0.88
   2   3   9   42.10    4.43
   2  -3   9   46.88    7.31
   2   3   9   51.08    5.32
   2  -3   9   39.10    3.98
   2   3  10   49.32    4.71
   2  -3  10   45.38    6.97
   2   3  10   49.99    4.88
   2  -3  10   55.26    5.04
   2   3  11   15.27    2.38
   2  -3  11    9.77    2.89
   2   3  11   10.96    2.06
   2  -3  11   19.40    2.80
   2   3  12    5.01    1.75
   2  -3  12    1.79    1.12
   2   3  12    3.25    1.58
   2  -3  12    3.12    1.44
   2   3  13   69.14    5.96
   2  -3  13   51.41    8.18
   2   3  13   52.08    6.16
   2  -3  13   64.71    5.43
   2   3  14   25.10    3.45
   2  -3  14   24.85    5.51
   2   3  14   35.04    4.31
   2  -3  14   24.98    3.28
   2   3  15    4.59    1.88
   2  -3  15    5.90    1.74
   2   3  15    4.37    2.18
   2  -3  15    7.07    2.07
   2   3  16    0.75    1.11
   2  -3  16    2.12    1.80
   2   3  16    5.25    1.95
   2  -3  16    3.95    1.74
   2   3  17    4.07    1.72
   2  -3  17    1.67    1.91
   2   3  17    3.19    1.54
   2  -3  17    0.56    1.10
   2   3  18   29.45    3.96
   2  -3  18   26.21    4.83
   2   3  18   34.49    4.72
   2  -3  18   28.01    3.66
   2   3  19   87.16   17.40
   2  -3  19   59.45   14.96
   2   3  19  106.42    5.13
   2  -3  19   86.67   17.25
   2  -3  20    4.07    1.85
   2   3  20   24.11    5.85
   2  -3  20   12.87    3.40
  -2  -4  21    2.37    1.24
  -2   4  21    9.36    3.27
  -2  -4  21   14.41    4.42
  -2  -4  20    3.05    1.28
  -2   4  20    1.10    1.29
  -2  -4  20    3.41    2.19
  -2  -4  19    1.44    0.99
  -2   4  19    1.30    1.27
  -2  -4  19    2.59    1.55
  -2  -4  18    8.14    2.39
  -2   4  18    5.59    2.13
  -2  -4  18   17.83    4.46
  -2   4  17    9.71    2.51
  -2  -4  17    7.13    2.31
  -2  -4  16   10.69    2.60
  -2   4  16   14.84    3.52
  -2  -4  16   19.62    4.52
  -2  -4  15   97.48    8.02
  -2   4  15  117.78    9.87
  -2  -4  15  124.78   10.33
  -2  -4  14    0.94    0.99
   2  -4 -14    1.25    0.52
  -2   4  14    3.15    1.42
  -2  -4  14    2.25    1.56
  -2  -4  13   53.34    6.65
   2  -4 -13   54.70    6.46
   2  -4 -13   64.69    4.80
  -2   4  13   62.36    5.37
  -2  -4  13   72.49    6.31
  -2  -4  12   28.35    3.76
   2  -4 -12   36.46    4.28
   2  -4 -12   41.72    4.86
  -2   4  12   35.33    4.69
  -2  -4  12   40.48    5.30
  -2  -4  11    5.02    1.38
   2  -4 -11    1.45    0.41
  -2   4  11    3.04    1.64
  -2  -4  11    3.04    1.36
  -2  -4  10   33.43    3.52
   2  -4 -10   35.44    3.29
  -2   4  10   38.43    4.25
  -2  -4  10   36.70    4.12
  -2  -4   9   -1.07    0.74
  -2   4   9    1.43    1.06
  -2  -4   9    3.19    1.79
  -2  -4   8   13.89    1.85
  -2   4   8   16.30    2.18
  -2  -4   8   14.79    2.09
  -2  -4   7   19.16    2.48
  -2   4   7   26.85    3.42
  -2  -4   7   26.60    3.35
   2   4  -6    4.52    0.97
   2  -4  -6    5.95    1.06
  -2  -4   6    5.94    1.18
  -2  -4   5    5.89    1.48
  -2   4   5    5.67    0.94
   2  -4  -5    3.94    0.70
   2  -4  -4   20.43    1.90
  -2  -4   4   22.15    2.43
  -2   4   4   17.00    1.31
   2   4  -4   20.61    2.00
   2   4  -4   21.69    2.27
  -2  -4   4   14.73    2.19
  -2   4   4   23.47    2.42
   2  -4  -4   16.85    1.60
   2  -4  -3  196.75    5.50
  -2   4   3  195.50    5.44
  -2  -4   3  196.74    6.29
   2   4  -3  172.37    5.51
   2   4  -3  214.94   11.47
  -2  -4   3  165.23    8.17
  -2   4   3  202.85    6.13
   2  -4  -3  193.42    5.72
   2  -4  -2   81.74    3.18
  -2   4   2   79.09    2.54
  -2  -4   2   78.57    3.33
   2   4  -2   78.89    3.07
   2   4  -2  103.46    8.03
  -2  -4   2   69.34    5.17
  -2   4   2   81.72    2.83
   2  -4  -1   29.24    3.10
  -2   4   1   29.20    2.37
  -2  -4   1   33.93    3.18
   2   4  -1   30.58    2.62
  -2   4   1   28.80    2.35
   2   4  -1   36.50    4.76
  -2  -4   1   27.57    3.28
  -2   4   1   31.65    2.53
  -2   4   0    1.50    0.57
  -2  -4   0   -0.13    1.01
   2   4   0    3.10    1.09
  -2   4   0    1.41    0.59
   2   4   0    1.88    0.61
  -2  -4   0    1.31    0.92
  -2   4   0    1.27    0.35
   2  -4   1  246.44    7.31
  -2   4  -1  232.98    6.95
  -2  -4  -1  245.14    7.58
   2   4   1  229.26    6.99
   2   4   1  236.99    9.70
  -2   4  -1  227.75    6.25
  -2  -4  -1  211.45    6.52
  -2   4  -1  230.63    6.31
   2  -4   2   60.85    2.69
  -2   4  -2   55.39    6.04
  -2  -4  -2   63.68    2.86
   2   4   2   56.52    6.15
   2  -4   2   60.06    1.97
   2   4   2   60.20    2.74
  -2  -4  -2   60.99    2.59
  -2   4  -2   59.99    1.90
   2  -4   3    2.98    1.24
  -2   4  -3    5.65    1.16
  -2  -4  -3    3.52    1.14
   2   4   3    4.94    0.92
   2  -4   3    4.89    0.72
   2   4   3    2.99    1.37
  -2   4  -3    3.76    0.50
   2  -4   4 1496.39   40.14
   2   4   4 1617.71   43.32
  -2   4  -4 1470.28   38.63
   2  -4   5   53.52    6.82
  -2  -4  -5   51.46    2.75
   2   4   5   53.58    3.06
   2  -4   5   51.80    1.90
  -2   4  -5   49.04    1.87
   2  -4   6   12.21    2.09
  -2  -4  -6   10.42    1.75
   2   4   6    9.93    1.73
   2  -4   6    8.85    1.19
  -2   4  -6   10.47    1.37
   2  -4   7    6.99    1.66
  -2  -4  -7    5.41    1.43
   2   4   7    6.09    1.38
   2  -4   7    8.76    1.25
  -2   4  -7    8.90    1.09
   2  -4   8    5.30    1.64
  -2  -4  -8    5.52    1.73
   2   4   8    6.47    1.74
   2  -4   8    5.78    0.99
  -2   4  -8    4.00    0.70
   2  -4   9   69.98    9.69
  -2  -4  -9   73.78   12.92
   2   4   9   83.07    5.65
   2  -4   9   71.66    6.83
  -2   4  -9   62.16    5.96
   2  -4  10   82.75   10.74
  -2  -4 -10  101.16    7.81
   2   4  10   92.93    7.37
   2  -4  10  107.47    7.95
   2  -4  11   74.61    8.80
  -2  -4 -11   87.99    5.74
   2   4  11   79.05    5.45
   2  -4  11   71.84    4.60
   2  -4  12   17.10    3.09
  -2  -4 -12   19.63    3.23
   2   4  12   15.32    2.68
   2  -4  12   18.04    2.60
   2  -4  13    3.39    1.35
  -2  -4 -13    2.28    1.38
   2   4  13    2.52    1.45
   2  -4  13    3.29    1.79
   2  -4  14    5.58    2.15
   2   4  14    0.53    1.27
   2  -4  14    5.64    2.11
  -2  -4 -15    9.10    2.59
   2   4  15    1.46    1.55
   2  -4  15    4.47    1.75
   2  -4  16   29.64    6.65
  -2  -4 -16   34.75    4.32
   2   4  16   36.98    4.56
   2  -4  17    4.17    1.72
  -2  -4 -17   11.42    3.08
   2   4  17    9.97    2.96
   2  -4  17   10.36    2.74
   2  -4  18   14.32    3.75
  -2  -4 -18   10.15    2.88
   2   4  18   13.04    3.95
   2  -4  18   12.69    2.09
   2  -4  19   22.51    5.89
  -2  -4 -19   16.24    4.36
   2   4  19   10.05    3.16
   2  -4  19   20.30    4.54
   2  -4  20    2.94    1.56
  -2  -4 -20    1.37    1.51
   2   4  20    2.61    2.25
   2  -4  20    1.01    1.19
  -2  -5  21    1.14    0.93
  -2   5  21    1.77    1.42
  -2  -5  21    4.44    2.15
  -2  -5  20    1.62    1.08
  -2   5  20    0.30    1.20
  -2  -5  20    0.82    1.43
  -2  -5  19   24.59    5.62
  -2   5  19   36.38    8.39
  -2  -5  19   28.82    6.87
  -2  -5  18    6.38    2.12
  -2   5  18    5.46    2.15
  -2  -5  18    7.84    2.62
  -2  -5  17   27.43    4.83
  -2   5  17   30.49    3.89
  -2  -5  17   42.59    5.00
  -2  -5  16   29.47    3.58
  -2   5  16   30.16    4.06
  -2  -5  16   45.24    5.38
  -2  -5  15   47.47    4.64
  -2   5  15   65.37    6.50
  -2  -5  15   60.91    6.21
  -2  -5  14    0.77    1.08
  -2   5  14    1.69    1.26
  -2  -5  14    3.05    1.55
  -2  -5  13    4.79    1.80
   2  -5 -13    4.33    0.95
  -2   5  13    4.06    1.41
  -2  -5  13    4.30    1.68
  -2  -5  12   15.83    2.58
   2  -5 -12   11.38    2.19
  -2   5  12   19.81    3.19
  -2  -5  12   16.83    2.67
  -2  -5  11   96.00    6.00
   2  -5 -11   94.37    5.11
  -2   5  11   90.93    5.87
  -2  -5  11  101.90    6.41
  -2  -5  10   79.05    6.22
   2  -5 -10   76.82   14.91
  -2   5  10   75.43   14.95
  -2  -5  10   87.05    6.77
  -2  -5   9    1.77    0.86
  -2   5   9    2.69    1.44
  -2  -5   9    3.73    1.80
  -2  -5   8  108.64    7.77
  -2   5   8  118.44    8.39
  -2  -5   8  130.86    9.25
  -2  -5   7   17.09    2.06
  -2   5   7   22.16    2.44
  -2  -5   7   28.01    2.68
  -2  -5   6    1.35    1.26
  -2   5   6    2.51    1.36
   2  -5  -6    1.90    0.85
   2  -5  -5    0.38    0.23
  -2  -5   5    0.32    0.93
  -2   5   5    0.66    0.25
  -2   5   5    1.85    1.35
   2  -5  -5    0.90    0.74
   2  -5  -4   26.03    2.79
  -2  -5   4   21.73    2.78
  -2   5   4   26.29    2.83
   2   5  -4   29.23    4.38
  -2   5   4   32.02    3.66
   2  -5  -4   26.19    2.98
   2  -5  -3   36.23    2.80
  -2   5   3   37.79    2.94
  -2  -5   3   28.46    2.74
   2   5  -3   47.22    6.25
  -2  -5   3   29.86    3.84
  -2   5   3   38.97    3.18
   2  -5  -3   35.35    2.83
   2  -5  -2    2.85    0.85
  -2   5   2    2.54    0.74
  -2  -5   2    4.78    1.39
   2   5  -2    1.58    0.87
   2   5  -2   -0.36    1.09
  -2  -5   2    0.53    0.55
  -2   5   2    2.16    0.81
   2  -5  -2    2.27    0.81
   2  -5  -1  193.23    5.80
  -2   5   1  187.24    5.57
  -2  -5   1  190.61    6.24
   2   5  -1  211.06    9.74
  -2  -5   1  171.43    6.62
  -2   5   1  199.14    5.66
   2  -5   0  134.04    4.38
  -2   5   0  136.36    4.40
  -2   5   0  135.80    3.90
   2   5   0  152.65    7.14
  -2  -5   0  130.06    4.48
  -2   5   0  146.98    4.16
  -2   5  -1   10.19    1.33
  -2  -5  -1    9.43    1.31
   2   5   1   11.15    1.84
  -2   5  -1   10.15    0.85
  -2  -5  -1    7.75    1.14
  -2   5  -1   10.64    0.86
   2  -5   2   18.92    2.01
  -2   5  -2   13.43    1.59
  -2  -5  -2   15.36    1.76
   2   5   2   18.08    2.25
  -2   5  -2   16.88    1.25
   2  -5   3  110.94    4.15
   2  -5   3  101.71    2.86
   2   5   3   91.96    3.67
  -2   5  -3  101.27    2.82
   2  -5   4   55.68    2.89
  -2  -5  -4   65.59    3.27
   2  -5   4   54.76    2.34
   2   5   4   49.73    2.53
  -2   5  -4   56.73    1.81
   2  -5   5   93.64    4.10
  -2  -5  -5   99.46    4.24
   2  -5   5   92.55    2.85
  -2   5  -5   96.00    2.95
   2  -5   6    3.10    1.36
  -2  -5  -6    3.04    1.24
   2   5   6    1.30    0.95
   2  -5   6    1.59    0.65
  -2   5  -6    0.96    0.45
   2  -5   7  181.99   12.67
  -2  -5  -7  166.26   11.60
   2   5   7  176.15   12.29
   2  -5   7  174.48   11.65
  -2   5  -7  152.61   10.21
   2  -5   8   51.18    8.25
  -2  -5  -8   53.02    5.57
   2   5   8   43.62    4.63
   2  -5   8   48.65    4.73
  -2   5  -8   40.54    3.94
   2  -5   9  142.67   18.19
  -2  -5  -9  127.87    9.61
   2   5   9  120.69    9.36
   2  -5   9  125.12    9.09
   2  -5  10  174.78   16.29
  -2  -5 -10  218.16   12.56
   2   5  10  214.29   12.49
   2  -5  10  166.95    9.42
  -2   5 -10  162.67    9.15
   2  -5  11    2.85    1.09
  -2  -5 -11    8.83    2.42
   2   5  11    4.46    1.44
   2  -5  11    3.64    1.50
   2  -5  12    3.24    1.49
  -2  -5 -12    7.30    2.39
   2   5  12    6.82    2.02
   2  -5  12    5.78    1.90
   2  -5  13   28.13    5.45
  -2  -5 -13   47.40   11.57
   2   5  13   36.02    4.61
   2  -5  13   35.50    3.95
   2  -5  14   18.47    4.01
  -2  -5 -14   20.73    3.97
   2   5  14   20.72    4.49
   2  -5  14   20.06    3.73
   2  -5  15    7.92    2.54
  -2  -5 -15    3.03    2.15
   2   5  15   12.29    3.23
   2  -5  15    7.35    1.94
   2  -5  16   51.21    7.69
  -2  -5 -16   83.89    8.85
   2   5  16   73.38    8.08
   2  -5  16   66.34    7.00
   2  -5  17   39.31    7.06
  -2  -5 -17   57.36    3.94
   2   5  17   46.88    3.54
   2  -5  17   45.43    3.37
   2  -5  18    0.86    1.14
  -2  -5 -18    4.58    2.17
   2   5  18    3.63    1.76
   2  -5  18    1.10    0.90
   2  -5  19    8.27    3.05
  -2  -5 -19    1.64    1.40
   2   5  19    6.40    2.70
   2  -5  19    2.70    1.60
   2  -5  20    1.94    1.30
  -2  -5 -20    6.75    2.85
   2   5  20   16.25    5.21
   2  -5  20   13.98    4.14
  -2  -6  20    7.32    2.46
  -2   6  20    7.25    2.47
  -2  -6  20   22.77    5.47
  -2  -6  19    6.23    2.20
  -2   6  19    7.92    2.72
  -2  -6  19    5.25    1.87
  -2  -6  18    5.20    2.42
  -2   6  18    3.14    1.77
  -2  -6  18    4.01    1.97
  -2  -6  17    3.01    1.69
  -2   6  17   11.98    2.98
  -2  -6  17    3.30    1.94
  -2  -6  16    9.36    2.36
  -2   6  16    5.45    1.82
  -2  -6  16   10.87    2.80
  -2  -6  15  116.80   11.03
  -2   6  15  125.02   11.94
  -2  -6  15  142.47   13.43
  -2  -6  14   16.46    2.70
  -2   6  14    5.44    1.86
  -2  -6  14    8.82    1.95
  -2  -6  13  168.29   12.91
  -2   6  13  163.36   12.61
  -2  -6  13  209.43   15.95
  -2  -6  12    1.01    1.03
   2  -6 -12    1.76    0.50
  -2   6  12    0.67    1.14
  -2  -6  12    6.10    2.08
  -2  -6  11   23.49    3.24
   2  -6 -11   26.03    3.01
  -2   6  11   27.23    3.83
  -2  -6  11   34.11    4.49
  -2  -6  10   51.63    4.91
  -2   6  10   52.83    4.96
  -2  -6  10   51.86    4.85
  -2  -6   9    3.76    1.70
  -2   6   9    2.06    1.09
  -2  -6   9    0.80    1.35
  -2  -6   8   48.70    4.98
  -2   6   8   52.93    5.36
  -2  -6   8   53.07    5.36
   2  -6  -7  109.93    7.19
   2  -6  -7  101.55    6.65
  -2  -6   7   89.99    6.64
  -2   6   7   98.13    7.00
  -2  -6   7  117.65    8.42
   2  -6  -6   23.28    2.10
  -2  -6   6   21.12    2.55
  -2   6   6   18.91    2.21
   2  -6  -5   27.41    2.93
  -2  -6   5   23.79    3.05
  -2   6   5   25.37    2.73
  -2   6   5   26.19    3.14
   2  -6  -5   26.90    3.06
   2  -6  -4  257.90    7.25
  -2  -6   4  237.93    7.79
  -2   6   4  263.20    7.41
   2   6  -4  235.03    7.51
   2  -6  -4  260.32    7.67
   2  -6  -3   72.01    2.48
  -2   6   3   70.46    2.47
   2   6  -3   69.61    7.53
  -2   6   3   70.12    2.71
   2  -6  -3   70.69    2.58
   2  -6  -2    3.94    0.83
  -2   6   2    1.56    0.44
  -2  -6   2    2.27    1.02
   2   6  -2    1.20    0.95
  -2   6   2    1.97    0.73
   2  -6  -2    2.44    0.56
   2  -6  -1  130.56    4.30
  -2   6   1  125.93    4.11
  -2  -6   1  113.84    4.35
   2   6  -1  102.46    6.05
  -2   6   1  126.33    3.80
   2  -6   0  290.61    8.61
  -2   6   0  276.78    8.21
  -2   6   0  275.73    7.72
   2   6   0  255.68    9.83
  -2   6   0  280.70    7.68
   2  -6   1  629.14   17.63
  -2   6  -1  619.78   17.38
  -2  -6  -1  664.48   18.90
   2   6   1  564.16   16.26
  -2   6  -2   13.99    1.89
  -2  -6  -2   15.77    2.36
   2   6   2   14.46    2.07
   2  -6   3    3.19    1.20
  -2  -6  -3    3.33    1.29
   2   6   3    1.00    1.00
   2  -6   4    8.38    1.98
  -2  -6  -4    7.13    1.77
   2   6   4    4.64    1.13
   2  -6   5   91.77    6.85
  -2  -6  -5   87.09    6.50
   2  -6   5   79.67    5.29
   2   6   5   78.01    5.84
  -2   6  -5   83.48    5.54
   2  -6   6  310.05   20.94
  -2  -6  -6  289.62   19.62
   2   6   6  249.90   17.00
   2  -6   6  272.11   17.87
  -2   6  -6  275.51   18.10
   2  -6   7    5.88    1.78
  -2  -6  -7    2.50    1.24
   2   6   7    4.07    1.32
   2  -6   7    5.70    1.17
  -2   6  -7    6.03    1.18
   2  -6   8   21.87    2.64
  -2  -6  -8   20.30    2.52
   2   6   8   13.63    2.93
   2  -6   8   18.07    1.77
   2  -6   9   16.78    2.36
  -2  -6  -9   13.37    2.71
   2   6   9   12.61    2.78
   2  -6   9   14.53    3.03
  -2   6  -9   14.23    2.62
   2  -6  10   58.98    8.28
  -2  -6 -10   65.95    4.63
   2   6  10   72.88    5.18
   2  -6  10   63.72    3.91
  -2   6 -10   56.58    6.69
   2  -6  11    3.20    1.61
  -2  -6 -11    1.53    1.27
   2   6  11    5.19    2.45
   2  -6  11    0.25    0.65
   2  -6  12   20.79    3.19
  -2  -6 -12   12.61    2.48
   2   6  12   27.41    4.32
   2  -6  12   14.43    2.01
   2  -6  13   81.48   10.85
  -2  -6 -13   91.75    7.83
   2   6  13   89.92    7.94
   2  -6  13   87.10    7.11
   2  -6  14    1.10    1.12
  -2  -6 -14    3.46    1.63
   2   6  14    5.62    2.31
   2  -6  14    1.93    0.89
   2  -6  15    1.22    1.06
  -2  -6 -15    6.54    2.63
   2   6  15    0.48    1.44
   2  -6  15    0.38    0.85
   2  -6  16    5.68    2.19
  -2  -6 -16    6.05    1.71
   2   6  16   12.49    3.65
   2  -6  16   11.07    2.70
   2  -6  17    4.79    2.42
  -2  -6 -17   11.63    2.93
   2   6  17    0.93    1.36
   2  -6  17    2.82    1.22
   2  -6  18    4.67    1.48
  -2  -6 -18    6.75    2.22
   2   6  18    8.26    3.17
   2  -6  18    5.26    1.69
   2  -6  19    7.96    3.10
  -2  -6 -19   12.79    3.26
   2   6  19   19.17    4.65
  -2  -7  20   10.79    3.44
  -2   7  20   17.20    5.00
  -2  -7  20   15.94    4.69
  -2  -7  19    2.36    1.13
  -2   7  19    3.08    1.81
  -2  -7  19    4.28    2.18
  -2  -7  18   34.22    7.68
  -2   7  18   38.71    8.77
  -2  -7  18   48.67   10.80
  -2  -7  17    2.80    1.22
  -2   7  17    4.58    2.21
  -2  -7  17    9.43    3.08
  -2  -7  16   27.31    4.88
  -2   7  16   35.63    4.61
  -2  -7  16   37.04    4.61
  -2  -7  15   23.95    3.19
  -2   7  15   30.94    3.94
  -2  -7  15   26.95    3.54
  -2  -7  14    3.27    1.44
  -2   7  14    0.90    1.29
  -2  -7  14    3.47    1.49
  -2  -7  13    2.22    1.57
  -2   7  13    1.72    1.50
  -2  -7  13    5.12    2.12
  -2  -7  12    4.80    1.89
  -2   7  12    6.03    2.13
  -2  -7  12    7.17    2.60
  -2  -7  11    7.98    2.16
  -2   7  11   11.52    2.60
  -2  -7  11   10.53    2.50
   2  -7 -10    0.98    0.28
  -2  -7  10    3.82    1.66
   2  -7 -10    2.33    0.53
  -2   7  10    5.84    1.86
  -2  -7  10    4.11    1.39
  -2  -7   9    7.55    1.85
   2  -7  -9    8.71    1.54
  -2   7   9    9.53    2.11
  -2  -7   9    9.32    2.13
   2  -7  -8   40.78    3.36
  -2  -7   8   32.16    3.40
  -2   7   8   41.23    3.88
  -2  -7   8   44.38    4.19
   2  -7  -7    3.32    0.69
  -2  -7   7    4.68    1.37
  -2   7   7    5.46    1.45
  -2  -7   7    7.04    1.85
   2  -7  -6    1.10    0.44
  -2  -7   6    3.15    1.27
  -2   7   6    1.73    0.47
   2  -7  -5    1.81    0.46
  -2  -7   5    4.39    1.58
  -2   7   5    0.86    0.30
   2   7  -5    2.18    0.84
  -2   7   5    3.54    1.28
   2  -7  -5    2.52    1.09
   2  -7  -4   12.00    1.33
  -2  -7   4    9.67    1.63
  -2   7   4   11.03    1.23
   2   7  -4    9.25    1.85
  -2   7   4   10.06    1.34
   2  -7  -4   10.14    1.30
   2  -7  -3    0.82    0.54
  -2  -7   3    0.88    0.94
  -2   7   3    1.85    0.55
   2   7  -3    1.50    1.09
  -2   7   3    1.78    0.88
   2  -7  -3    2.01    0.79
   2  -7  -2  431.87   12.23
  -2   7   2  432.62   12.19
  -2  -7   2  393.11   11.87
   2   7  -2  433.05   12.96
  -2   7   2  433.13   12.03
   2  -7  -2  429.32   11.90
   2  -7  -1   37.62    4.24
  -2   7   1   34.97    3.88
  -2  -7   1   29.58    3.53
   2   7  -1   40.04    6.38
  -2   7   1   39.87    4.27
   2  -7  -1   42.00    1.55
   2  -7   0   12.55    1.77
  -2   7   0   13.26    1.73
  -2  -7   0   13.71    2.03
  -2   7   0   14.83    2.01
   2   7   0   18.52    2.76
  -2   7   0   14.01    1.55
   2  -7   1   42.21    2.21
  -2   7  -1   38.69    4.33
  -2  -7  -1   46.93    2.63
   2   7   1   37.77    5.74
   2  -7   2    2.22    0.91
  -2  -7  -2    6.03    2.13
   2   7   2    1.71    1.08
   2  -7   3  141.07    9.84
  -2  -7  -3  136.18    9.62
   2   7   3  119.24    8.43
   2  -7   4    4.88    1.71
  -2  -7  -4    5.31    1.44
   2   7   4    9.21    1.83
   2  -7   5    2.29    1.33
  -2  -7  -5    2.13    1.29
   2   7   5    1.00    1.04
   2  -7   6  159.11    9.54
  -2  -7  -6  152.52    9.18
   2  -7   6  141.79    7.68
   2   7   6  131.27    7.95
   2  -7   7    3.58    1.75
  -2  -7  -7    3.59    1.32
   2   7   7    7.66    1.90
   2  -7   7    6.34    1.19
  -2   7  -7    6.61    1.25
   2  -7   8   38.16    4.00
  -2  -7  -8   33.99    3.56
   2   7   8   35.27    3.64
   2  -7   8   33.47    2.92
  -2   7  -8   28.43    2.51
   2  -7   9    3.76    1.69
  -2  -7  -9    0.97    1.07
   2   7   9    4.57    1.66
   2  -7   9    3.28    0.88
  -2   7  -9    1.70    0.61
   2  -7  10  133.78   10.38
  -2  -7 -10  128.22    9.79
   2   7  10  110.53    8.69
   2  -7  10  127.68    9.28
  -2   7 -10  104.60    7.65
   2  -7  11   26.52    3.70
  -2  -7 -11   27.05    3.55
   2   7  11   28.84    4.08
   2  -7  11   24.14    2.91
   2  -7  12    2.52    1.03
  -2  -7 -12    4.83    2.23
   2   7  12    1.52    1.37
   2  -7  12    3.36    1.19
   2  -7  13    0.46    1.20
  -2  -7 -13    3.90    1.60
   2   7  13    8.51    2.32
   2  -7  13    1.62    1.11
   2  -7  14    4.68    2.13
  -2  -7 -14    5.84    2.28
   2   7  14    6.17    2.59
   2  -7  14    1.11    0.77
   2  -7  15    3.78    1.44
  -2  -7 -15    2.40    1.31
   2   7  15    6.52    2.67
   2  -7  15    4.31    1.72
   2  -7  16   17.16    4.50
   2   7  16   26.27    3.29
   2  -7  16   26.17    2.05
   2  -7  17   28.38    7.22
  -2  -7 -17   38.44    8.72
   2   7  17   38.54    8.77
   2  -7  18    3.44    1.26
  -2  -7 -18    1.50    1.37
   2   7  18    9.31    3.72
   2  -7  19    5.45    2.78
  -2  -7 -19    7.16    3.09
   2   7  19    3.77    2.02
  -2  -8  19    6.32    2.39
  -2   8  19    6.05    2.64
  -2  -8  19    7.51    2.87
  -2  -8  18    3.94    1.47
  -2   8  18    5.04    1.76
  -2  -8  18   10.69    3.27
  -2  -8  17    2.48    1.47
  -2   8  17    4.09    1.94
  -2  -8  17    2.69    1.28
  -2  -8  16    1.54    1.05
  -2   8  16    5.02    2.13
  -2  -8  16    3.57    1.64
  -2  -8  15    6.89    2.21
  -2   8  15    2.29    1.41
  -2  -8  15    3.06    1.49
  -2  -8  14   56.06    5.84
  -2   8  14   66.96    6.79
  -2  -8  14   88.75    8.77
  -2  -8  13    4.87    1.97
  -2   8  13    5.42    1.90
  -2  -8  13   14.26    3.27
  -2  -8  12    5.97    1.96
  -2   8  12    4.55    1.99
  -2  -8  12    5.14    1.93
  -2  -8  11    2.74    1.47
  -2   8  11    3.64    1.36
  -2  -8  11    4.17    1.90
  -2  -8  10  139.98   10.73
   2  -8 -10  137.47    9.72
  -2   8  10  137.92   10.44
  -2  -8  10  158.59   11.89
  -2  -8   9   18.75    3.03
   2  -8  -9   18.36    2.22
  -2   8   9   21.15    2.94
  -2  -8   9   23.01    3.25
   2  -8  -8  189.50   13.26
  -2  -8   8  164.19   12.21
  -2   8   8  202.78   14.66
  -2  -8   8  210.03   15.23
   2  -8  -7    0.29    0.28
  -2  -8   7    3.01    1.55
  -2   8   7    1.19    0.44
   2  -8  -6    1.52    0.62
  -2  -8   6    1.58    1.48
  -2   8   6    2.56    0.96
   2  -8  -5    1.38    0.64
  -2  -8   5    4.02    1.41
  -2   8   5    1.94    0.67
   2   8  -5    2.58    0.89
  -2   8   5    3.78    1.16
   2  -8  -5    0.46    0.51
   2  -8  -4    2.16    0.84
  -2  -8   4    2.41    1.23
  -2   8   4    3.04    0.94
   2   8  -4    2.41    0.97
  -2   8   4    2.89    0.94
   2  -8  -4    1.39    0.70
   2  -8  -3   10.47    1.37
  -2  -8   3    6.37    1.40
  -2   8   3    6.12    0.91
   2   8  -3    8.95    1.90
  -2   8   3   10.38    1.27
   2  -8  -3    9.34    1.21
   2  -8  -2   38.75    3.06
  -2   8   2   35.23    2.81
  -2  -8   2   31.44    2.86
   2   8  -2   34.48    4.93
  -2   8   2   33.78    2.53
   2  -8  -2   28.02    2.11
   2  -8  -1  196.42   13.25
  -2   8   1  185.59   12.53
  -2  -8   1  203.00   14.01
   2   8  -1  178.84   13.96
  -2   8   1  217.70   14.37
   2  -8  -1  189.41   12.51
   2  -8   0  142.72    9.82
  -2  -8   0  164.15   11.50
   2   8   0  149.31   11.25
  -2   8   0  157.44   10.35
   2  -8   1  162.66   11.18
  -2  -8  -1  181.38   12.59
   2   8   1  148.14   11.52
   2  -8   2  418.62   27.83
  -2  -8  -2  451.28   78.37
   2   8   2  388.26   27.93
   2  -8   3    4.98    1.45
  -2  -8  -3    8.85    2.17
   2   8   3    5.55    1.51
   2  -8   4   24.53    3.06
  -2  -8  -4   17.23    2.35
   2   8   4   23.19    3.18
   2  -8   5   84.82    5.57
  -2  -8  -5   97.37    6.23
   2   8   5   75.85    5.07
   2  -8   6  320.28   22.91
  -2  -8  -6  323.39   23.09
   2   8   6  276.16   19.87
   2  -8   7   14.42    2.37
  -2  -8  -7   23.09    3.32
   2  -8   7   13.16    1.56
   2   8   7   14.36    2.33
   2  -8   8    5.75    2.10
  -2  -8  -8    3.33    1.33
   2   8   8    1.19    1.00
   2  -8   8    1.28    0.49
   2  -8   9   18.47    2.95
  -2  -8  -9   12.77    2.15
   2   8   9    8.90    2.34
   2  -8   9   16.26    2.12
   2  -8  10    6.09    2.25
  -2  -8 -10    3.97    1.51
   2   8  10    8.91    1.91
   2  -8  10    5.06    1.21
   2  -8  11   25.33    3.48
  -2  -8 -11   33.55    3.97
   2   8  11   30.92    4.17
   2  -8  11   26.09    2.86
   2  -8  12   29.11    5.45
  -2  -8 -12   38.52    4.19
   2   8  12   30.25    5.49
   2  -8  12   35.84    7.90
   2  -8  13   12.40    3.22
  -2  -8 -13   21.27    4.48
   2   8  13   13.48    3.42
   2  -8  13   18.34    3.62
   2  -8  14   69.72    9.58
  -2  -8 -14   89.98    9.04
   2   8  14   74.58    8.04
   2  -8  14   65.90    6.45
   2  -8  15    4.51    2.47
  -2  -8 -15    3.02    1.57
   2   8  15    5.04    2.61
   2  -8  16   45.64    8.04
  -2  -8 -16   65.55    6.97
   2   8  16   79.47    8.58
   2  -8  17    7.03    2.40
  -2  -8 -17    5.31    2.09
   2   8  17    6.47    2.65
   2  -8  18   11.70    3.78
  -2  -8 -18   12.26    2.05
   2   8  18   21.03    5.21
  -2  -9  19    1.43    1.23
  -2   9  19    2.49    1.83
  -2  -9  19    3.39    2.22
  -2  -9  18    3.78    1.50
  -2   9  18    6.93    2.78
  -2  -9  18    5.10    2.58
  -2  -9  17    3.05    1.55
  -2   9  17    3.03    1.34
  -2  -9  17    4.12    1.95
  -2  -9  16    7.96    2.40
  -2   9  16    6.29    1.68
  -2  -9  16   14.30    3.65
  -2  -9  15    2.98    1.85
  -2   9  15    1.97    1.59
  -2  -9  15    2.30    1.30
  -2  -9  14   41.49    4.92
  -2   9  14   39.20    4.53
  -2  -9  14   46.29    5.19
  -2  -9  13    4.48    1.62
  -2   9  13    5.69    1.74
  -2  -9  13    8.21    2.09
  -2  -9  12   11.61    2.53
  -2   9  12   17.41    3.57
  -2  -9  12   13.42    2.77
  -2  -9  11   65.67    6.29
  -2   9  11   60.25    5.42
  -2  -9  11   70.09    6.15
  -2  -9  10   24.26    3.49
  -2   9  10   18.16    2.58
  -2  -9  10   20.27    2.85
   2  -9  -9   77.97    5.85
  -2  -9   9   98.98    7.97
   2  -9  -9   88.60    6.42
  -2   9   9  103.03    8.04
  -2  -9   9   92.82    7.29
   2  -9  -8   88.09    4.96
   2  -9  -8   96.15    5.43
  -2  -9   8   75.61    5.15
  -2   9   8   87.81    5.58
  -2  -9   8  108.48    6.82
   2  -9  -7   12.95    1.74
  -2  -9   7   17.35    2.70
  -2   9   7   12.22    1.62
  -2   9   7   11.55    1.85
   2  -9  -6   85.39    6.22
  -2  -9   6   76.54   15.20
  -2   9   6   78.13    5.71
  -2   9   6   68.91    6.01
   2  -9  -5   36.68    3.34
  -2  -9   5   26.79    3.13
  -2   9   5   27.06    2.48
   2   9  -5   27.47    2.84
  -2   9   5   24.43    2.43
   2  -9  -4   82.32    6.07
  -2  -9   4   87.44    7.01
   2   9  -4   81.04    9.25
  -2   9   4   92.04    6.81
   2  -9  -4   81.77    6.01
   2  -9  -3    2.07    0.88
  -2  -9   3    0.43    1.18
   2   9  -3    2.66    0.74
  -2   9   3    0.51    0.48
   2  -9  -3    0.67    0.45
   2  -9  -2  130.36    7.54
  -2  -9   2  151.71    9.21
  -2   9   2  109.40    6.38
   2   9  -2  118.94   10.94
  -2   9   2  140.53    7.86
   2  -9  -2  116.70    6.53
   2  -9  -1  122.59    7.18
  -2  -9   1  130.06    8.08
   2   9  -1  115.81    8.17
  -2   9   1  125.35    6.94
   2  -9  -1  121.43    6.71
   2  -9   0  136.50    8.02
  -2  -9   0  142.43    8.65
   2   9   0  123.86    8.88
  -2   9   0  136.12    7.38
   2  -9   1    2.30    1.39
  -2  -9  -1    1.30    1.77
   2  -9   2   57.91    5.87
  -2  -9  -2   69.27    6.95
   2   9   2   52.22    7.53
   2  -9   3   71.55    6.37
  -2  -9  -3   65.97    6.03
   2   9   3   53.00    4.92
   2  -9   4    1.17    0.96
  -2  -9  -4    1.86    1.39
   2   9   4   -0.26    1.01
   2  -9   5   19.21    2.35
  -2  -9  -5   17.66    2.42
   2   9   5   10.85    2.35
   2  -9   6  141.79    8.68
  -2  -9  -6  163.10    9.72
   2   9   6  137.23    8.35
   2  -9   7   97.92    6.48
  -2  -9  -7   93.76    6.11
   2   9   7   76.02    5.12
   2  -9   8  218.30   16.29
  -2  -9  -8  244.06   17.91
   2   9   8  200.34   14.85
   2  -9   8  204.90   14.36
   2  -9   9   41.70    5.15
  -2  -9  -9   46.57    5.55
   2   9   9   41.15    5.00
   2  -9  10   43.75    5.36
  -2  -9 -10   46.98    5.38
   2   9  10   47.45   11.57
   2  -9  11    4.78    2.07
  -2  -9 -11    3.11    1.49
   2   9  11    3.13    1.52
   2  -9  11    1.78    0.91
   2  -9  12   84.07    8.46
  -2  -9 -12   97.22    9.53
   2   9  12   76.07    7.74
   2  -9  13    2.59    2.16
  -2  -9 -13    0.38    1.31
   2   9  13    9.35    2.82
   2  -9  14   82.78   12.70
  -2  -9 -14  109.94   11.32
   2   9  14   83.78    8.94
   2  -9  15    4.16    1.86
  -2  -9 -15    2.07    1.28
   2   9  15    2.93    1.88
   2  -9  16    1.53    1.44
  -2  -9 -16    1.25    1.26
   2   9  16    4.89    2.06
   2  -9  17    5.91    2.39
  -2  -9 -17    4.29    1.91
   2   9  17    5.07    1.72
   2  -9  18    1.96    2.09
  -2  -9 -18    2.94    1.94
   2   9  18    0.66    1.37
  -2 -10  18    6.23    2.54
  -2  10  18    6.79    2.68
  -2 -10  18    6.78    2.68
  -2 -10  17    0.60    1.08
  -2  10  17    6.23    2.22
  -2 -10  17    5.21    1.92
  -2 -10  16    4.44    1.96
  -2  10  16    4.76    1.46
  -2 -10  16    5.33    2.05
  -2 -10  15    6.81    2.27
  -2  10  15    5.73    1.90
  -2 -10  15    3.83    1.62
  -2 -10  14    2.38    1.76
  -2  10  14    3.77    1.79
  -2 -10  14    0.64    1.17
  -2 -10  13   29.59    5.90
  -2  10  13   30.41    3.93
  -2 -10  13   29.46    5.80
  -2 -10  12   76.26    7.65
  -2  10  12   97.11    9.40
  -2 -10  12   97.06    9.32
  -2 -10  11   14.43    3.16
  -2  10  11   16.32    3.26
  -2 -10  11   12.10    2.42
  -2 -10  10   94.97    8.10
   2 -10 -10   91.07    7.01
  -2  10  10   95.16    7.90
  -2 -10  10  130.53   10.54
  -2 -10   9   37.23    4.65
   2 -10  -9   29.06    3.22
  -2  10   9   29.17    3.63
  -2 -10   9   31.52    3.88
   2 -10  -8   72.39    5.48
  -2 -10   8   70.22    6.09
  -2  10   8   65.89    5.52
  -2 -10   8   81.80    6.68
   2 -10  -7    1.17    0.66
  -2 -10   7    2.02    1.14
  -2  10   7    0.83    0.42
  -2  10   7    0.97    0.80
   2 -10  -6    2.11    0.99
  -2 -10   6    1.39    1.09
  -2  10   6    1.05    0.59
  -2  10   6    1.48    0.76
   2 -10  -5    9.58    2.10
  -2 -10   5   11.49    2.01
  -2  10   5    5.90    1.47
   2  10  -5   13.94    2.20
  -2  10   5    9.46    2.18
   2 -10  -4   29.21    3.66
  -2 -10   4   28.28    3.91
  -2  10   4   32.22    4.06
   2  10  -4   33.04    4.97
  -2  10   4   30.72    3.83
   2 -10  -4   23.96    3.01
   2 -10  -3   82.77    6.24
  -2 -10   3  104.30    8.23
   2  10  -3   87.72   11.07
  -2  10   3   91.67    6.75
   2 -10  -3   82.36    6.03
   2 -10  -2   18.36    1.97
  -2 -10   2   19.15    2.60
   2  10  -2   18.79    2.54
  -2  10   2   21.03    1.99
   2 -10  -2   15.05    3.07
   2 -10  -1   26.15    2.66
  -2 -10   1   23.62    2.82
   2  10  -1   31.57    3.90
  -2  10   1   28.98    2.53
   2 -10  -1   28.93    2.51
   2 -10   0   10.32    2.16
  -2 -10   0    9.71    2.23
   2  10   0    7.86    1.70
   2 -10   1   54.08    5.07
  -2 -10  -1   47.32    4.74
   2  10   1   43.18    6.02
   2 -10   2    0.14    0.94
  -2 -10  -2    0.71    1.33
   2  10   2    1.06    0.86
   2 -10   3  169.67    9.93
  -2 -10  -3  189.27   11.19
   2  10   3  152.02    9.03
   2 -10   4  463.48   25.39
  -2 -10  -4  467.68   25.78
   2  10   4  430.12   23.68
   2 -10   5    5.82    1.77
   2  10   5    6.96    2.01
   2 -10   6   74.22    6.40
  -2 -10  -6   71.15    6.12
   2  10   6   70.43    5.90
   2 -10   7   58.95   14.32
  -2 -10  -7   69.93    6.09
   2  10   7   56.27    6.49
   2 -10   8    6.18    2.20
  -2 -10  -8    4.33    1.51
   2  10   8    9.69    1.98
   2 -10   9   -0.51    1.35
  -2 -10  -9    5.16    2.43
   2  10   9    2.71    1.72
   2 -10  10    4.00    2.27
  -2 -10 -10    0.03    1.06
   2  10  10    3.03    1.48
   2 -10  11    4.25    2.13
  -2 -10 -11    2.90    1.50
   2  10  11    4.23    1.66
   2 -10  12    2.72    1.57
  -2 -10 -12    2.76    1.98
   2  10  12    1.29    1.20
   2 -10  13    7.46    2.74
  -2 -10 -13   19.16    3.97
   2  10  13   16.43    3.71
   2 -10  14    2.37    1.49
  -2 -10 -14    5.07    2.45
   2  10  14    1.80    1.25
   2 -10  15    2.40    1.07
  -2 -10 -15    3.53    1.33
   2  10  15    2.41    1.35
   2 -10  16    7.03    2.04
  -2 -10 -16   11.90    3.28
   2  10  16   11.26    3.46
   2 -10  17   14.05    4.41
  -2 -10 -17   28.19    7.63
   2  10  17   18.99    5.34
  -2 -11  17    3.49    2.03
  -2  11  17    7.40    2.72
  -2 -11  17    3.68    1.47
  -2 -11  16    3.98    1.97
  -2  11  16    4.12    1.37
  -2 -11  16    2.88    1.30
  -2 -11  15   10.00    2.82
  -2  11  15   15.83    4.13
  -2 -11  15   11.84    2.79
  -2 -11  14    4.82    1.94
  -2  11  14    2.02    1.16
  -2 -11  14    3.54    1.93
  -2 -11  13   80.04    8.53
  -2  11  13   86.96    9.06
  -2 -11  13  101.42   10.29
  -2 -11  12   53.31    5.76
  -2  11  12   54.54    5.76
  -2 -11  12   58.60    6.11
  -2 -11  11  129.85   12.37
  -2  11  11  133.08   12.43
  -2 -11  11  171.35   15.77
  -2 -11  10   14.33    3.09
  -2  11  10   19.63    3.69
  -2 -11  10   28.14    5.01
  -2 -11   9    6.56    2.05
  -2  11   9    0.48    0.80
  -2 -11   9    0.71    0.91
   2 -11  -8   73.07    5.81
  -2 -11   8   72.98    6.45
  -2  11   8   79.48    6.62
  -2 -11   8   73.62    6.27
   2 -11  -7    0.68    0.48
  -2 -11   7    0.55    1.20
  -2  11   7    0.28    0.71
   2 -11  -6    2.38    0.88
  -2 -11   6    7.22    2.25
  -2  11   6    1.99    0.82
   2 -11  -5  118.67    8.75
  -2 -11   5  107.77    8.49
   2  11  -5  120.27    9.13
  -2  11   5  112.98    8.42
   2 -11  -4    2.20    1.06
  -2 -11   4    1.27    1.30
   2  11  -4    2.96    1.56
  -2  11   4    4.56    1.34
   2 -11  -4    0.63    0.50
   2 -11  -3    9.15    2.21
  -2 -11   3   15.28    3.01
   2  11  -3   10.05    2.68
  -2  11   3    7.93    1.83
   2 -11  -3    5.24    1.31
   2 -11  -2   19.40    2.78
  -2 -11   2   17.33    2.76
   2  11  -2   15.94    2.57
   2 -11  -2   13.84    1.80
   2 -11  -1    2.19    1.03
  -2 -11   1    5.91    1.66
   2  11  -1    5.71    1.86
  -2  11   1    3.33    0.80
   2 -11  -1    2.17    0.62
   2 -11   0  103.23    6.35
  -2 -11   0  103.73    6.82
  -2  11   0   86.41    4.76
   2  11   0   85.02    6.33
   2 -11   1   11.20    2.32
  -2 -11  -1    8.94    2.35
   2  11   1    6.91    1.92
   2 -11   2    4.43    1.31
  -2 -11  -2    7.87    2.35
   2  11   2    1.95    1.05
   2 -11   3  556.55   39.54
  -2 -11  -3  554.90   39.58
   2  11   3  513.72   38.91
   2 -11   4   13.42    2.26
  -2 -11  -4    8.36    2.42
   2  11   4    9.63    2.42
   2 -11   5  564.01   41.13
  -2 -11  -5  617.20   45.02
   2  11   5  525.59   38.39
   2 -11   6    9.36    1.94
  -2 -11  -6    8.28    2.80
   2  11   6    6.14    2.13
   2 -11   7    4.83    2.08
  -2 -11  -7    3.55    1.94
   2  11   7    3.36    1.96
   2 -11   8   30.64    3.80
  -2 -11  -8   36.94    4.53
   2  11   8   34.88    4.25
   2 -11   9   15.68    3.53
  -2 -11  -9    8.11    2.02
   2  11   9    8.80    2.08
   2 -11  10    8.53    2.74
  -2 -11 -10    3.52    1.59
   2  11  10    6.57    1.82
   2 -11  11    5.07    1.65
  -2 -11 -11    1.00    1.37
   2  11  11    3.44    1.75
   2 -11  12   19.02    4.05
  -2 -11 -12   22.46    4.26
   2  11  12   18.14    3.84
   2 -11  13    2.66    1.56
  -2 -11 -13    3.01    1.76
   2  11  13    1.39    1.77
   2 -11  14   11.50    3.03
  -2 -11 -14    7.48    2.24
   2  11  14    1.76    1.67
   2 -11  15    2.68    1.86
  -2 -11 -15    4.32    1.58
   2  11  15    0.43    1.25
   2 -11  16    5.01    1.73
  -2 -11 -16    1.57    1.28
   2  11  16    0.92    1.37
  -2 -12  16    1.64    1.38
  -2 -12  16    3.39    1.26
  -2 -12  15    8.55    2.81
  -2  12  15    4.08    1.50
  -2 -12  15    4.70    1.63
  -2 -12  14   24.47    6.00
  -2  12  14   19.50    4.67
  -2 -12  14   17.62    4.21
  -2 -12  13   16.14    2.42
  -2  12  13   10.03    2.63
  -2 -12  13   14.13    3.43
  -2 -12  12    2.20    1.67
  -2  12  12    2.16    1.18
  -2 -12  12    1.63    1.56
  -2 -12  11    4.20    1.90
  -2  12  11    2.17    1.07
  -2 -12  11    0.89    1.00
  -2 -12  10    2.76    1.46
  -2  12  10    1.82    1.14
  -2 -12  10    0.93    1.03
  -2 -12   9    7.64    2.49
  -2  12   9    1.51    0.88
  -2 -12   9    1.86    1.23
  -2 -12   8    1.67    1.35
  -2  12   8    2.31    1.04
  -2 -12   8    4.56    1.71
   2 -12  -7    2.22    0.85
  -2 -12   7    0.52    1.21
  -2  12   7    2.89    1.50
   2 -12  -6    3.47    1.27
  -2 -12   6    4.67    1.95
  -2  12   6    1.99    0.89
   2 -12  -5    9.44    1.45
  -2 -12   5    6.42    1.78
   2  12  -5   11.50    1.86
  -2  12   5    9.81    1.51
   2 -12  -4   86.09    6.77
  -2 -12   4   94.49    8.07
   2  12  -4   65.12    8.53
  -2  12   4   79.39    6.20
   2 -12  -3   79.23    6.33
  -2 -12   3   76.61    6.71
   2  12  -3   69.06    9.17
  -2  12   3   85.48    6.55
   2 -12  -2   77.46    6.23
  -2 -12   2   68.24    6.00
   2  12  -2   65.16   10.27
  -2  12   2   68.28    5.22
   2 -12  -1  142.82   10.91
  -2 -12   1  163.30   12.77
   2  12  -1  134.12   18.28
  -2  12   1  146.42   10.94
   2 -12   0   15.09    2.15
  -2 -12   0   22.61    3.31
  -2  12   0    9.70    1.58
   2  12   0   18.37    2.93
   2 -12   1   22.04    3.24
  -2 -12  -1   14.92    2.77
   2  12   1   11.44    2.51
   2 -12   2    5.94    1.75
  -2 -12  -2    6.19    2.31
   2  12   2    1.99    1.41
  -2 -12  -3    4.61    1.70
   2  12   3    6.46    1.68
   2 -12   4  129.30   10.55
  -2 -12  -4  113.28    9.58
   2  12   4  115.78    9.47
   2 -12   5    4.27    1.77
  -2 -12  -5   10.12    2.24
   2  12   5    2.80    1.53
   2 -12   6   90.32    8.31
  -2 -12  -6   88.52    8.30
   2  12   6   72.99    6.44
   2 -12   7   87.09    8.12
  -2 -12  -7   91.41    8.45
   2  12   7   64.32    6.26
   2 -12   8    6.97    2.46
  -2 -12  -8    6.92    2.32
   2  12   8    1.36    1.09
   2 -12   9   26.30    5.57
  -2 -12  -9   30.43    4.15
   2  12   9   33.35    4.21
   2 -12  10    9.15    2.72
  -2 -12 -10    9.15    2.41
   2  12  10   14.92    3.30
   2 -12  11   13.42    3.55
  -2 -12 -11   11.41    3.09
   2  12  11   10.71    2.97
   2 -12  12    2.50    1.46
   2  12  12    2.82    1.17
   2 -12  13    5.17    2.61
  -2 -12 -13    5.78    2.00
   2  12  13    6.91    2.32
   2 -12  14   11.61    4.01
  -2 -12 -14    4.51    2.12
   2  12  14   -0.11    1.16
   2 -12  15    5.75    2.48
  -2 -12 -15    2.30    1.25
   2  12  15    5.27    1.64
  -2 -13  15   17.36    4.21
  -2  13  15   14.50    3.50
  -2 -13  15   27.68    5.93
  -2 -13  14    3.85    1.89
  -2  13  14    2.04    1.07
  -2 -13  14    3.57    1.51
  -2 -13  13    2.29    1.43
  -2  13  13    7.83    2.43
  -2 -13  13    3.33    1.19
  -2 -13  12   10.79    2.99
  -2  13  12   12.67    3.19
  -2 -13  12    7.73    2.14
  -2 -13  11    7.47    2.62
  -2  13  11    5.52    2.11
  -2 -13  11    3.73    1.50
  -2 -13  10    5.61    2.52
  -2  13  10    4.20    1.77
  -2 -13  10    2.82    1.05
  -2 -13   9  102.13   10.21
  -2  13   9  104.18   10.06
  -2 -13   9  120.17   11.48
  -2 -13   8   24.12    5.03
  -2  13   8   21.40    4.32
  -2 -13   8   28.84    5.68
   2 -13  -7    8.58    1.84
  -2 -13   7    7.81    2.23
  -2  13   7    7.43    1.97
   2 -13  -6    5.49    1.80
  -2 -13   6    6.25    2.50
  -2  13   6    5.67    1.83
   2 -13  -5    6.04    1.85
  -2 -13   5    8.10    2.29
   2  13  -5    7.46    1.79
  -2  13   5    5.85    1.70
   2 -13  -4    1.89    1.07
  -2 -13   4    2.24    1.68
   2  13  -4    3.74    1.45
  -2  13   4    0.56    0.54
   2 -13  -3   18.11    2.34
  -2 -13   3   18.70    3.02
   2  13  -3   14.81    3.36
  -2  13   3   15.79    1.92
   2 -13  -2    3.26    1.33
  -2 -13   2    3.20    1.75
   2  13  -2    0.81    0.99
  -2  13   2    0.02    0.35
   2 -13  -1  153.47   12.15
  -2 -13   1  160.07   12.95
   2  13  -1  133.69   13.30
   2 -13   0    9.36    1.84
  -2 -13   0    7.32    1.77
   2  13   0    7.94    1.81
   2 -13   1   14.32    2.17
  -2 -13  -1   17.47    2.74
   2  13   1   11.72    2.23
   2 -13   2    3.79    1.60
  -2 -13  -2    0.16    1.24
   2  13   2    2.13    1.06
   2 -13   3   41.64    4.37
  -2 -13  -3   45.78    4.80
   2  13   3   32.06    6.69
   2 -13   4    7.89    2.10
  -2 -13  -4    5.76    2.10
   2  13   4    3.60    1.51
   2 -13   5   77.47    7.50
  -2 -13  -5   77.73    7.57
   2  13   5   53.74    5.29
   2 -13   6   66.65    6.86
  -2 -13  -6   82.72    8.35
   2  13   6   60.67    6.22
   2 -13   7   33.40    4.53
  -2 -13  -7   35.04    4.23
   2  13   7   24.96    5.03
   2 -13   8    8.43    2.15
  -2 -13  -8    7.01    2.22
   2  13   8    6.08    2.00
   2 -13   9   11.63    2.87
  -2 -13  -9   12.85    2.74
   2  13   9   16.68    3.39
   2 -13  10   23.05    2.66
  -2 -13 -10   28.63    3.31
   2  13  10   17.39    4.19
   2 -13  11    1.99    1.63
  -2 -13 -11    0.86    1.15
   2  13  11    3.11    1.79
   2 -13  12    8.38    2.52
  -2 -13 -12   14.92    3.89
   2  13  12   15.90    4.19
   2 -13  13   27.38    6.23
  -2 -13 -13   11.92    3.51
   2  13  13   29.99    6.71
   2 -13  14    4.75    2.45
  -2 -13 -14    2.62    1.32
   2  13  14    2.91    1.47
  -2 -14  14    4.55    2.41
  -2  14  14    2.00    1.17
  -2 -14  13   25.85    5.76
  -2  14  13   32.04    6.84
  -2 -14  13   31.38    6.56
  -2 -14  12   30.15    6.45
  -2  14  12   25.29    5.52
  -2 -14  12   28.30    6.00
  -2 -14  11    2.91    1.34
  -2  14  11    4.90    1.28
  -2 -14  11    7.67    2.02
  -2 -14  10    5.95    2.66
  -2  14  10    0.69    0.87
  -2 -14  10    1.67    0.94
  -2 -14   9    8.79    2.72
  -2  14   9   14.90    3.59
  -2 -14   9   10.27    2.55
  -2 -14   8   29.59    4.25
  -2  14   8   23.77    4.25
  -2 -14   8   20.42    3.79
   2 -14  -7    2.05    0.83
  -2 -14   7    2.70    1.50
  -2  14   7    1.22    0.85
   2 -14  -6    3.99    1.55
  -2 -14   6    1.75    1.65
  -2  14   6    1.51    0.85
   2 -14  -5    6.64    1.71
  -2 -14   5    9.89    2.68
   2  14  -5    3.49    1.25
  -2  14   5    3.13    0.83
   2 -14  -4    1.49    0.86
  -2 -14   4    2.05    2.00
   2  14  -4    1.83    0.91
  -2  14   4    2.27    1.15
   2 -14  -3   66.78    6.50
  -2 -14   3   79.36    8.06
   2  14  -3   51.90    8.32
   2 -14  -2    4.47    1.73
  -2 -14   2    6.49    2.63
   2  14  -2    6.88    2.00
   2 -14  -1    2.41    1.16
  -2 -14   1    4.10    2.45
   2  14  -1    2.30    1.43
   2 -14   0   90.44    8.64
  -2 -14   0   92.49    9.26
   2  14   0   79.26   12.23
   2 -14   1    1.52    1.41
  -2 -14  -1    1.26    1.52
   2  14   1    1.93    0.89
   2 -14   2   12.23    3.11
  -2 -14  -2    6.80    2.47
   2  14   2    8.20    2.65
   2 -14   3   30.50    3.61
  -2 -14  -3   32.72    4.01
   2  14   3   33.30    6.30
  -2 -14  -4    2.09    1.54
   2  14   4    1.94    0.80
   2 -14   5    3.62    1.66
  -2 -14  -5    3.08    1.69
   2  14   5    2.57    1.06
   2 -14   6   23.63    4.59
  -2 -14  -6   17.70    3.74
   2  14   6   22.56    4.41
   2 -14   7    9.15    2.53
  -2 -14  -7    8.33    2.07
   2  14   7    6.21    2.51
   2 -14   8   34.02    2.98
  -2 -14  -8   25.03    2.62
   2  14   8   23.06    2.49
   2 -14   9   10.61    3.51
  -2 -14  -9    5.70    2.63
   2  14   9   -0.10    1.02
   2 -14  10    4.96    2.68
  -2 -14 -10    5.22    2.39
   2  14  10    0.75    1.14
   2 -14  11   24.22    5.68
  -2 -14 -11   33.00    7.03
   2  14  11   25.09    5.47
   2 -14  12    2.50    1.59
  -2 -14 -12    1.58    1.35
   2  14  12    3.18    1.95
   2 -14  13    4.34    2.04
  -2 -14 -13    2.56    1.40
   2  14  13    3.89    1.92
  -2 -15  13    7.82    2.98
  -2  15  13    5.47    2.03
  -2 -15  12    1.44    1.36
  -2  15  12    1.30    1.08
  -2 -15  11   38.25    8.17
  -2  15  11   29.20    6.27
  -2 -15  10    3.07    2.07
  -2  15  10    2.25    1.22
  -2 -15  10    0.82    0.83
  -2 -15   9    0.41    1.23
  -2  15   9    0.94    0.79
  -2 -15   9    3.03    1.04
  -2 -15   8    3.80    2.40
  -2  15   8    2.74    1.32
  -2 -15   8    1.09    0.88
  -2 -15   7    3.20    1.82
  -2  15   7    0.87    0.75
   2 -15  -6    7.27    1.95
  -2 -15   6    8.40    2.43
   2 -15  -5    3.29    1.46
  -2 -15   5    4.32    2.34
   2 -15  -4    2.42    0.90
  -2 -15   4    3.71    2.05
   2  15  -4    1.26    0.55
   2 -15  -3   10.13    2.21
  -2 -15   3   11.04    3.09
   2  15  -3    6.94    2.79
   2 -15  -2    4.18    2.11
  -2 -15   2    3.65    1.99
   2  15  -2    1.65    0.69
  -2 -15   1   25.96    5.41
   2  15  -1   19.58    4.40
   2 -15   0   37.15    4.12
  -2 -15   0   26.28    5.42
   2  15   0   21.85    5.77
   2 -15   1  111.85   11.42
  -2 -15  -1  123.22   12.73
   2  15   1   82.86    9.71
   2 -15   2   20.45    3.99
  -2 -15  -2   15.98    3.33
   2  15   2    7.78    2.71
   2 -15   3   -0.13    0.96
  -2 -15  -3    2.29    1.35
   2  15   3    3.65    1.55
   2 -15   4    3.01    1.38
  -2 -15  -4    4.55    2.19
   2  15   4    0.50    0.62
   2 -15   5   52.34    3.32
  -2 -15  -5   35.61    2.90
   2  15   5   30.46    6.46
   2 -15   6    1.38    1.30
  -2 -15  -6    3.03    1.68
   2  15   6    0.16    0.91
   2 -15   7   38.29    4.99
  -2 -15  -7   33.32    4.33
   2  15   7   29.67    3.81
   2 -15   8    5.47    1.86
  -2 -15  -8    2.72    1.85
   2  15   8    3.44    1.59
   2 -15   9    4.15    2.08
  -2 -15  -9    2.61    1.43
   2  15   9    2.63    1.16
   2 -15  10   23.47    5.34
  -2 -15 -10   25.51    5.60
   2  15  10   23.41    5.37
   2 -15  11    4.10    2.60
  -2 -15 -11    5.46    2.39
   2  15  11    6.25    2.76
   2 -15  12    6.18    2.94
  -2 -15 -12    1.46    1.73
   2  15  12    1.04    1.33
  -2 -16  11   17.77    5.09
  -2 -16  10    2.93    1.87
  -2 -16   9    2.53    1.43
  -2 -16   8   19.21    4.86
  -2 -16   7    6.62    2.80
  -2 -16   7    0.90    0.77
  -2 -16   6    8.38    2.45
   2 -16  -5    0.85    0.72
  -2 -16   5    2.65    1.62
   2 -16  -4   11.48    2.70
  -2 -16   4   13.10    3.48
   2  16  -4    9.05    2.49
   2 -16  -3   13.30    3.15
  -2 -16   3   13.20    3.67
   2  16  -3    4.09    1.93
   2 -16  -2    1.59    0.93
  -2 -16   2    6.16    3.06
   2  16  -2    1.28    0.69
   2 -16  -1    8.99    2.54
  -2 -16   1   16.33    4.05
   2  16  -1    8.05    2.36
   2 -16   0    2.75    1.17
  -2 -16   0    4.54    2.02
   2  16   0    2.86    1.39
   2 -16   1   34.91    2.88
  -2 -16  -2   27.96    4.36
   2  16   2   14.31    4.75
   2 -16   3   11.97    3.08
  -2 -16  -3   16.90    2.51
   2  16   3    7.19    2.22
   2 -16   4   69.79    7.49
  -2 -16  -4   61.13    6.77
   2  16   4   42.48    7.70
   2 -16   5    8.87    2.42
  -2 -16  -5   16.88    4.27
   2  16   5    6.27    2.74
   2 -16   6   22.25    5.72
  -2 -16  -6   12.94    3.38
   2  16   6   12.21    3.17
   2 -16   7    4.01    2.09
  -2 -16  -7    7.91    2.85
   2  16   7    1.84    1.07
   2 -16   8   13.21    3.61
  -2 -16  -8    4.13    1.68
   2  16   8    4.59    1.82
   2 -16   9    5.25    1.82
  -2 -16  -9   12.48    2.41
   2  16   9    8.75    2.99
   2 -16  10    0.89    1.51
  -2 -16 -10    1.87    1.33
   2  16  10    3.54    2.00
  -2 -17   9   24.56    6.86
  -2 -17   8    6.61    2.65
  -2 -17   7    3.68    2.60
  -2 -17   6   13.43    4.11
  -2 -17   5    0.58    1.76
   2 -17  -4    5.38    1.60
  -2 -17   4    8.14    3.17
   2  17  -4    2.64    1.35
   2 -17  -3    1.43    0.95
  -2 -17   3    9.87    3.47
   2  17  -3    0.73    0.64
   2 -17  -2   50.19   10.86
  -2 -17   2   58.67   13.17
   2  17  -2   23.07    7.09
   2 -17  -1    1.38    1.03
  -2 -17   1    4.90    1.78
   2  17  -1    1.00    0.67
   2 -17   0   11.23    2.99
  -2 -17   0   13.53    3.69
   2  17   0   10.20    4.00
   2 -17   1    2.69    1.16
  -2 -17  -1    4.96    1.66
   2  17   1    1.09    0.64
   2 -17   2    2.07    1.20
  -2 -17  -2    1.48    1.98
   2  17   2   -0.10    0.75
   2 -17   3   20.99    5.03
  -2 -17  -3   23.45    5.32
   2  17   3    9.85    3.31
   2 -17   4   13.17    3.65
  -2 -17  -4   21.96    5.35
   2  17   4    8.55    3.04
   2 -17   5   41.83    8.71
  -2 -17  -5   41.02    8.60
   2  17   5   18.98    5.66
   2 -17   6    4.15    2.16
  -2 -17  -6    7.23    2.57
   2  17   6    8.74    2.98
   2 -17   7    6.34    2.75
  -2 -17  -7    1.32    1.45
   2  17   7    7.17    2.49
   2 -17   8   43.60   11.27
  -2 -17  -8   35.57    9.38
   2  17   8   31.64    9.73
  -2 -18   6    7.60    3.10
  -2 -18   5   19.17    5.86
  -2 -18   4    5.00    2.88
  -2 -18   3    4.61    2.74
   2 -18  -2    3.67    1.60
  -2 -18   2   10.89    3.80
   2 -18  -1   12.16    3.51
  -2 -18   1   20.02    4.98
   2 -18   0    8.82    2.94
  -2 -18   0   11.06    3.57
   2  18   0    5.03    1.22
   2 -18   1    7.14    2.58
  -2 -18  -1   12.85    3.52
   2  18   1    5.59    2.01
   2 -18   2   53.48   10.92
  -2 -18  -2   50.20   10.53
   2  18   2   29.64    8.87
   2 -18   3    3.76    2.15
  -2 -18  -3    8.27    2.90
   2  18   3    3.59    1.53
   2 -18   4   32.99    8.78
  -2 -18  -4   40.13   10.47
   2  18   4   11.79    5.34
   2 -18   5   53.11   13.64
   2  18   5   26.09    9.85
  -3   0  21    2.56    1.51
  -3   0  20    8.69    3.10
  -3   0  19    0.58    1.57
  -3   0  18   25.04    3.20
  -3   0  17    3.06    1.73
  -3   0  16  164.80   16.39
  -3   0  16  225.14   43.08
  -3   0  15    1.52    0.71
  -3   0  15    6.32    2.38
  -3   0  14    1.83    1.02
  -3   0  14   -2.05    1.29
  -3   0  13    1.96    0.83
   3   0 -13    0.25    0.64
  -3   0  13   -0.86    1.13
  -3   0  12  122.91    6.99
   3   0 -12  104.88    6.01
  -3   0  12  114.06    7.24
  -3   0  11    0.51    0.47
   3   0 -11    0.89    0.48
  -3   0  11    3.14    1.69
  -3   0  10   94.07    6.82
   3   0 -10   93.73    6.80
  -3   0  10   88.94    6.94
  -3   0   9    0.70    0.41
   3   0  -9    0.67    0.46
  -3   0   9    3.59    1.65
  -3   0   8  179.62   11.99
   3   0  -8  155.32   10.39
  -3   0   8  140.31    9.85
  -3   0   7    2.69    0.88
   3   0  -7    0.37    0.48
  -3   0   7    0.64    1.03
  -3   0   6  109.21    3.65
   3   0  -6  104.32    3.43
  -3   0   6   94.33    3.86
  -3   0   5    3.28    1.02
   3   0  -5    2.32    0.73
  -3   0   5    5.64    1.69
  -3   0   4  931.15   25.23
   3   0  -4  911.45   24.66
  -3   0   3    1.19    0.56
  -3   0   3    3.88    1.26
  -3   0   3    0.69    0.51
  -3   0   2  559.42   15.44
   3   0  -2  543.98   15.51
  -3   0   1    0.35    0.34
  -3   0   1    3.37    1.35
   3   0  -1    4.06    1.73
  -3   0   1    1.46    0.92
  -3   0   0   21.12    2.93
   3   0   0   24.99    3.71
  -3   0   0   20.95    3.31
  -3   0  -1    2.36    0.68
  -3   0  -1    0.55    0.99
   3   0   1    3.26    0.80
  -3   0  -1    0.51    0.71
   3   0   3    1.26    0.68
  -3   0  -3    1.39    0.93
   3   0   4  550.31   16.12
   3   0   4  545.93   15.49
  -3   0  -4  491.11   13.99
   3   0   5    4.04    1.07
   3   0   5    4.88    1.26
   3   0   6   22.68    2.85
   3   0   6   16.45    1.98
   3   0   7    1.45    1.14
   3   0   7    2.24    1.11
   3   0   8    4.25    1.64
   3   0   8    6.51    1.89
   3   0   9    2.44    1.82
   3   0   9    2.91    1.43
   3   0  10    4.81    1.69
   3   0  10    1.88    1.39
   3   0  11   -0.03    0.99
   3   0  11    6.43    2.30
   3   0  12  824.76   66.67
   3   0  12  916.58  217.30
   3   0  13    2.28    1.06
   3   0  13    1.10    1.22
   3   0  14  164.34   22.67
   3   0  14  213.07   19.55
   3   0  15    0.91    1.15
   3   0  15    0.66    1.21
   3   0  16    1.54    1.01
   3   0  16    5.42    2.64
   3   0  17    0.38    0.98
   3   0  17    3.32    1.85
   3   0  18    1.39    1.03
   3   0  18    0.67    1.28
   3   0  19    2.24    0.93
   3   0  19    1.66    1.43
  -3   1  21    2.43    1.63
  -3  -1  21    1.87    1.48
  -3   1  20  105.59    5.87
  -3  -1  20   72.51   14.72
  -3   1  19   19.77    5.17
  -3  -1  19   18.22    4.66
  -3   1  18   63.91    4.17
  -3  -1  18   53.76    3.84
  -3  -1  17    7.18    2.56
  -3   1  17    3.52    1.70
  -3  -1  17   12.43    2.92
  -3  -1  16   22.80    4.41
  -3   1  16   27.14    3.83
  -3  -1  16   34.11    4.22
  -3   1  15    6.51    1.94
  -3  -1  15    4.26    1.34
  -3   1  15   10.50    2.36
  -3  -1  15    7.49    2.70
  -3   1  14   13.52    2.51
  -3  -1  14   15.02    1.97
  -3   1  14   11.67    2.01
  -3  -1  14   19.90    2.98
  -3   1  13  211.54   15.55
  -3   1  13  208.36   15.50
  -3  -1  13  237.26   17.58
  -3   1  12   42.51    5.03
  -3  -1  12   42.95    5.19
   3   1 -12   32.37    3.97
   3  -1 -12   33.40    3.97
  -3   1  12   46.46    5.93
  -3  -1  12   46.80    6.03
  -3   1  11   20.58    2.56
  -3  -1  11   26.70    3.35
   3   1 -11   17.60    2.27
   3  -1 -11   23.23    2.82
  -3   1  11   19.70    2.86
  -3  -1  11   15.30    2.67
  -3   1  10  135.37    9.58
  -3  -1  10  137.20    9.87
   3   1 -10  122.23    8.82
   3  -1 -10  122.29    8.66
  -3   1  10  115.87    8.81
  -3  -1  10  117.66    8.93
  -3   1   9    4.50    0.91
  -3  -1   9    7.68    1.60
   3   1  -9    5.06    1.14
   3  -1  -9    3.71    0.81
  -3   1   9    3.99    1.38
  -3  -1   9    6.67    1.79
  -3   1   8  299.70   19.72
  -3  -1   8  325.70   21.57
   3   1  -8  297.73   19.72
   3  -1  -8  303.75   19.96
  -3   1   8  280.03   18.92
  -3  -1   8  280.04   18.95
  -3   1   7    2.38    0.51
  -3  -1   7    5.50    1.06
   3   1  -7    3.20    0.83
   3  -1  -7    3.24    0.52
  -3   1   7    5.43    1.55
  -3  -1   7    2.65    1.32
  -3  -1   6  212.87    6.51
   3   1  -6  195.75    5.96
   3  -1  -6  191.46    5.52
  -3   1   6  188.95    6.44
  -3   1   5   11.08    1.32
  -3  -1   5   11.97    1.68
  -3   1   5   13.32    1.58
   3   1  -5   11.99    1.60
  -3   1   5   10.45    1.70
  -3  -1   5    9.14    1.55
  -3   1   4  493.01   13.55
  -3  -1   4  522.75   14.65
  -3   1   4  528.36   14.52
   3   1  -4  501.63   14.01
  -3   1   4  458.51   13.30
  -3   1   3    9.51    1.43
  -3  -1   3    8.60    1.18
  -3   1   3    8.04    0.99
   3   1  -3    7.61    1.02
   3   1  -3    7.43    1.33
  -3   1   3    7.78    1.80
  -3   1   2  553.92   15.27
  -3  -1   2  628.81   17.38
  -3   1   2  591.55   16.14
   3   1  -2  566.09   15.59
   3   1  -2  539.25   15.90
  -3   1   2  559.84   15.56
  -3  -1   1  278.29    8.21
  -3   1   1  269.62    8.03
  -3   1   1  293.67    8.52
   3   1  -1  294.89    8.83
  -3   1   1  291.09    8.53
  -3  -1   1  251.37   13.94
  -3  -1   0    8.92    1.69
  -3   1   0    8.14    1.55
  -3  -1   0    9.20    1.42
   3   1   0   12.46    2.55
  -3   1   0   12.08    1.95
  -3  -1   0    8.22    1.36
   3  -1   1   78.12    8.18
  -3   1  -1   60.79    5.74
  -3  -1  -1   65.75    3.07
   3  -1   1   66.63    3.33
   3   1   1   70.03    7.06
  -3   1  -1   61.22    2.47
   3  -1   2   -0.64    0.91
  -3   1  -2    2.05    0.74
  -3  -1  -2    3.76    1.44
   3  -1   2    1.48    0.67
   3   1   2    2.74    1.14
  -3  -1  -2    2.90    0.95
  -3   1  -2    4.04    0.82
   3  -1   3   68.03    4.79
  -3  -1  -3   58.72    2.96
   3  -1   3   77.18    7.02
   3   1   3   66.00    3.46
  -3   1  -3   65.12    2.61
   3   1   4  102.33    4.33
   3  -1   4   99.54   10.20
   3  -1   4   80.00    3.26
   3   1   4   88.54    3.71
  -3   1  -4   93.55    3.43
   3   1   5    0.11    1.12
   3  -1   5    4.04    1.39
   3  -1   5    2.98    0.90
   3   1   5    1.31    0.94
  -3   1  -5    1.57    0.67
   3   1   6  205.90   14.49
   3  -1   6  210.76   14.77
   3   1   6  200.09   13.65
   3  -1   6  191.55   12.97
   3   1   7    2.69    0.97
   3  -1   7    4.25    1.27
   3  -1   7    1.45    0.96
   3   1   7    4.30    1.50
   3   1   8  225.66   17.02
   3  -1   8  257.97   15.21
   3   1   8  225.44   12.89
   3  -1   8  233.66   13.19
   3   1   9   12.87    3.77
   3  -1   9   13.02    3.17
   3  -1   9    9.15    2.09
   3   1   9   12.21    2.69
   3   1  10   62.67    9.63
   3  -1  10   60.46   10.16
   3   1  10   69.03    4.74
   3  -1  10   59.80    7.33
   3   1  11    8.67    2.33
   3  -1  11    7.63    2.62
   3  -1  11   10.33    2.67
   3   1  11   17.81    2.90
   3   1  12   96.40    8.80
   3  -1  12   95.99   11.87
   3   1  12  105.79    8.64
   3  -1  12   92.79    7.63
   3   1  13   89.37   11.34
   3  -1  13   81.19   10.67
   3   1  13   97.02    8.13
   3  -1  13  108.69    9.10
   3   1  14    0.88    0.98
   3  -1  14    5.57    2.50
   3  -1  14    2.86    1.63
   3   1  14    3.95    2.05
   3   1  15   20.72    4.77
   3  -1  15   16.28    4.29
   3  -1  15   33.82    4.30
   3   1  15   23.09    5.06
   3   1  16   60.73    7.30
   3  -1  16   47.14    7.49
   3  -1  16   66.76    7.34
   3   1  16   82.97    8.77
   3   1  17    5.71    2.74
   3  -1  17    2.40    0.82
   3  -1  17    3.62    1.74
   3   1  17    7.90    2.55
   3   1  18    2.55    1.59
   3  -1  18    3.33    1.54
   3  -1  18    1.18    1.26
   3   1  18    4.36    2.07
   3   1  19    1.16    1.04
   3  -1  19    0.20    0.76
   3  -1  19    0.18    1.19
   3   1  19    2.21    1.37
  -3   2  21    6.22    2.46
  -3  -2  21    0.62    1.54
  -3   2  20    4.86    2.24
  -3  -2  20    4.45    2.29
  -3   2  19    1.83    1.45
  -3  -2  19    2.47    1.57
  -3  -2  18    4.18    1.46
  -3   2  18    9.07    2.96
  -3  -2  18    7.23    2.30
  -3  -2  17   62.51    6.47
  -3   2  17   69.33    7.60
  -3  -2  17   70.18    7.74
  -3  -2  16    4.43    1.43
  -3   2  16    1.54    1.43
  -3  -2  16    3.55    1.69
  -3  -2  15    3.00    1.24
  -3   2  15    0.64    1.31
  -3  -2  15    4.00    2.62
  -3   2  14    0.58    0.41
  -3  -2  14    2.05    0.91
  -3   2  14    3.66    2.02
  -3  -2  14    8.51    2.49
  -3   2  13   21.13    3.07
  -3  -2  13   25.28    3.09
  -3   2  13   28.42    3.71
  -3  -2  13   42.68    5.78
  -3   2  12   40.27    5.33
  -3  -2  12   44.46    5.47
  -3   2  12   52.02    6.61
  -3  -2  12   54.32    6.89
  -3   2  11    0.48    0.35
  -3  -2  11    1.68    1.04
  -3   2  11    4.11    1.39
  -3  -2  11    2.92    1.35
  -3  -2  10   40.48    3.72
   3   2 -10   30.24    2.84
  -3   2  10   37.57    3.86
  -3  -2  10   43.41    4.29
  -3   2   9   96.76    5.29
  -3  -2   9  113.63    6.66
   3   2  -9   82.25    4.95
  -3   2   9   99.44    6.31
  -3  -2   9  121.05    7.56
  -3   2   8   41.12    2.79
  -3  -2   8   43.76    3.36
   3   2  -8   36.13    2.82
  -3   2   8   42.64    3.61
  -3  -2   8   32.36    2.86
  -3   2   7   22.25    2.26
  -3   2   7   23.48    2.12
  -3  -2   7   26.14    4.74
   3   2  -7   22.06    2.33
  -3   2   7   22.28    2.76
  -3  -2   7   25.15    4.77
  -3   2   6    1.42    0.38
  -3   2   6    2.19    0.50
  -3  -2   6    3.83    1.31
   3   2  -6    2.88    1.09
  -3   2   6    3.86    1.58
  -3  -2   6    2.73    1.24
  -3   2   5  262.47    7.38
  -3  -2   5  275.80    8.32
  -3   2   5  269.45    7.50
   3   2  -5  263.49    7.88
  -3   2   5  243.44    7.72
  -3   2   4  283.95    8.06
  -3  -2   4  279.76    8.41
  -3   2   4  295.08    8.27
   3   2  -4  285.59    8.50
  -3   2   4  269.77    9.26
  -3   2   3  470.76   12.99
  -3  -2   3  482.54   13.80
  -3   2   3  467.53   12.91
   3   2  -3  455.00   12.91
   3   2  -3  494.52   14.28
  -3   2   3  469.11   13.39
  -3   2   3  501.49   14.29
  -3   2   2  115.88    3.82
  -3  -2   2  113.82    4.14
   3   2  -2  112.73    3.91
  -3   2   2  121.21    3.89
   3   2  -2  124.07    4.47
  -3   2   2  112.29    7.67
   3  -2  -1    1.99    0.68
  -3   2   1    1.19    0.51
   3   2  -1    2.14    0.60
   3   2  -1    1.56    1.05
  -3   2   1    0.72    0.53
   3  -2   0  785.36   22.13
  -3   2   0  714.26   19.80
  -3  -2   0  840.55   23.12
   3  -2   0  784.12   21.21
   3   2   0  806.79   22.63
  -3   2   0  769.14   20.95
  -3   2  -1   24.70    3.84
  -3  -2  -1   22.17    2.76
   3  -2   1   30.26    5.26
   3   2   1   28.83    5.36
  -3   2  -1   26.54    2.99
   3  -2   2    1.99    0.56
  -3   2  -2    0.71    0.74
  -3  -2  -2    0.94    0.91
   3  -2   2    0.20    0.70
   3   2   2    2.32    0.84
  -3   2  -2    2.18    0.76
  -3  -2  -3  217.67    7.14
   3  -2   3  240.69    8.28
   3   2   3  238.72    9.45
  -3   2  -3  238.77    7.10
   3  -2   4   32.60    5.20
  -3  -2  -4   22.90    2.87
   3  -2   4   28.94    4.55
   3   2   4   24.07    3.03
  -3   2  -4   25.19    2.89
   3  -2   5   65.16    6.86
  -3  -2  -5   55.35    4.33
   3  -2   5   60.17    4.39
   3   2   5   63.22    5.04
  -3   2  -5   54.93    4.04
   3  -2   6    3.53    1.36
  -3  -2  -6   -0.24    0.92
   3  -2   6    3.94    1.34
   3   2   6    2.27    1.15
  -3   2  -6    0.19    0.63
   3   2   7    6.83    1.69
   3  -2   7   16.79    2.89
   3   2   7   16.76    2.37
   3  -2   7    7.25    1.60
   3   2   8  100.50    7.79
   3  -2   8  105.61   10.54
   3  -2   8  108.44    8.03
   3   2   8  111.00    8.38
   3   2   9    4.88    1.70
   3  -2   9    5.42    2.24
   3  -2   9    1.65    1.34
   3   2   9    7.38    2.61
   3   2  10    2.63    1.13
   3  -2  10    0.87    1.64
   3   2  10    3.13    1.98
   3  -2  10    2.19    1.39
   3   2  11  119.79    9.37
   3  -2  11  126.45   14.21
   3  -2  11  133.86   10.04
   3   2  11  115.10    8.94
   3   2  12   38.02    4.66
   3  -2  12   44.45    7.25
   3   2  12   39.70    5.10
   3  -2  12   42.05    4.99
   3   2  13  127.27   10.51
   3  -2  13  131.60   16.58
   3   2  13  153.27   12.42
   3  -2  13  147.26   11.74
   3   2  14   20.84    4.37
   3  -2  14   15.63    4.53
   3   2  14   22.10    4.69
   3  -2  14   33.65    3.93
   3   2  15    4.52    1.72
   3  -2  15    7.54    2.24
   3  -2  15    5.18    2.01
   3   2  15    3.74    1.62
   3   2  16   41.70    3.46
   3  -2  16   43.93    7.20
   3  -2  16   49.54    3.24
   3   2  16   59.40    3.81
   3   2  17   80.59    8.49
   3  -2  17   58.96   12.65
   3  -2  17   90.43    9.29
   3   2  17   88.34    9.21
   3   2  18    0.99    1.10
   3  -2  18    5.84    1.75
   3  -2  18    6.26    2.20
   3   2  18    6.78    2.68
   3   2  19   11.15    3.41
   3  -2  19    9.76    3.60
   3  -2  19   22.91    5.25
   3   2  19   22.77    5.47
  -3   3  20    7.82    2.84
  -3  -3  20   11.34    3.68
  -3   3  19    2.58    1.98
  -3  -3  19    4.78    1.78
  -3  -3  18    6.45    1.78
  -3   3  18   10.74    3.12
  -3  -3  18   15.06    3.78
  -3  -3  17   49.48    5.30
  -3   3  17   60.25    6.82
  -3  -3  17   67.20    7.34
  -3  -3  16    8.13    2.00
  -3   3  16    7.66    2.40
  -3  -3  16    6.44    2.15
  -3  -3  15   21.59    3.88
  -3   3  15   18.12    3.86
  -3  -3  15   22.52    4.56
  -3  -3  14   65.94    5.59
  -3   3  14   74.34    6.69
  -3  -3  14   82.78    7.29
  -3  -3  13    2.04    0.74
   3  -3 -13    1.83    0.40
  -3   3  13    4.15    1.31
  -3  -3  13    5.91    2.00
  -3  -3  12  399.44   28.40
  -3   3  12  455.16   32.59
  -3  -3  12  491.69   35.17
  -3  -3  11   55.46    6.70
  -3   3  11   76.58    5.21
  -3  -3  11   78.94    5.30
  -3  -3  10   44.96    4.11
  -3   3  10   48.51    4.61
  -3  -3  10   61.50    5.72
  -3  -3   9  206.68   11.69
  -3   3   9  227.13   13.02
  -3  -3   9  270.78   15.44
  -3  -3   8   57.35    5.60
  -3   3   8   57.67    5.82
  -3  -3   8   53.70    5.52
  -3  -3   7    7.98    1.25
   3   3  -7    4.81    1.03
  -3   3   7   10.92    1.75
  -3  -3   7    7.24    1.56
  -3  -3   6    3.65    1.20
   3   3  -6    1.45    0.72
  -3   3   6    2.28    0.87
  -3   3   5    1.44    0.46
  -3  -3   5    0.93    0.80
  -3   3   5    1.24    0.27
   3   3  -5    1.35    0.82
  -3   3   5    4.72    1.49
  -3   3   4  222.34    6.30
  -3  -3   4  237.45    7.51
   3   3  -4  208.34    6.57
  -3   3   4  219.91    6.22
  -3   3   4  226.63    6.95
   3   3  -4  244.85    7.88
  -3   3   4  226.73    7.08
  -3   3   3   56.00    2.08
  -3  -3   3   62.86    2.92
   3   3  -3   52.38    2.36
  -3   3   3   56.93    2.06
  -3   3   3   51.60    2.19
   3   3  -3   67.48    5.88
  -3   3   3   63.13    2.75
   3  -3  -2  299.73    8.92
  -3   3   2  294.43    8.45
  -3   3   2  286.10    8.46
   3   3  -2  327.52   10.29
  -3   3   2  313.70    9.20
   3  -3  -1  424.21   12.08
  -3   3   1  425.29   12.01
   3   3  -1  419.71   15.24
  -3   3   1  420.87   11.87
   3  -3   0  130.54    4.47
  -3   3   0  119.20    4.02
  -3  -3   0  115.94    4.42
   3   3   0  130.17    4.72
  -3   3   0  128.22    7.76
   3  -3   1  232.79    7.34
  -3   3  -1  227.66    7.00
  -3  -3  -1  220.08    7.19
   3  -3   1  245.82    7.52
   3   3   1  243.34    7.76
  -3   3  -1  237.41    6.97
  -3   3  -2   41.75    2.16
  -3  -3  -2   32.21    3.77
   3  -3   2   44.83    1.93
   3   3   2   44.99    4.96
  -3   3  -2   36.55    3.98
   3  -3   3   49.66    5.21
  -3  -3  -3   32.86    3.86
   3  -3   3   42.46    4.62
   3   3   3   41.93    5.30
  -3   3  -3   37.28    4.06
   3  -3   4    5.45    1.94
  -3  -3  -4    3.30    1.05
   3  -3   4    6.05    1.24
   3   3   4    1.46    1.12
  -3   3  -4    2.74    0.51
   3  -3   5   37.38    5.20
  -3  -3  -5   28.63    2.67
   3  -3   5   32.61    2.55
   3   3   5   41.16    3.66
  -3   3  -5   35.35    2.69
   3  -3   6    3.18    1.12
  -3  -3  -6    4.46    1.31
   3  -3   6    3.18    0.95
   3   3   6    3.87    1.67
  -3   3  -6    1.20    0.77
   3  -3   7   21.28    2.90
  -3  -3  -7   30.15    3.63
   3  -3   7   18.95    2.10
   3   3   7   14.09    2.02
  -3   3  -7   18.83    2.07
   3  -3   8  243.06   18.20
  -3  -3  -8  247.63   17.93
   3  -3   8  223.79   15.91
   3   3   8  235.69   17.06
   3  -3   9    4.73    1.88
  -3  -3  -9    4.13    1.49
   3   3   9    2.98    1.35
   3  -3   9    1.71    1.19
   3  -3  10    2.85    1.56
  -3  -3 -10    2.00    1.27
   3   3  10    5.48    1.77
   3  -3  10    2.96    1.13
   3  -3  11    2.32    1.35
  -3  -3 -11    2.34    1.45
   3   3  11    1.47    1.43
   3  -3  11    1.18    1.23
   3  -3  12   25.70    4.26
  -3  -3 -12   26.31    3.47
   3   3  12   31.63    3.91
   3  -3  12   31.19    3.64
   3  -3  13   15.64    3.39
   3   3  13   32.25    5.98
   3  -3  13   21.48    4.05
   3  -3  14    2.78    1.55
   3   3  14    4.42    1.78
   3  -3  14    1.86    1.21
   3  -3  15   79.69   12.58
   3   3  15  100.18   10.40
   3  -3  16    2.73    0.78
  -3  -3 -16    3.26    2.32
   3   3  16    3.93    1.91
   3  -3  16    3.51    1.74
   3  -3  17    2.19    1.05
  -3  -3 -17    0.88    1.39
   3   3  17    2.47    1.84
   3  -3  17    6.47    2.09
   3  -3  18   20.17    5.93
  -3  -3 -18   16.62    4.53
   3   3  18   11.11    3.46
   3  -3  18    7.66    2.73
   3  -3  19   10.33    3.92
  -3  -3 -19   19.38    5.74
   3   3  19   19.50    5.44
   3  -3  19   23.65    6.45
  -3   4  20    5.84    2.15
  -3  -4  20    4.01    2.27
  -3  -4  19   11.56    3.10
  -3   4  19   23.77    5.59
  -3  -4  19   18.36    4.43
  -3  -4  18    4.24    1.98
  -3   4  18    0.52    1.17
  -3  -4  18    4.56    2.32
  -3  -4  17    1.97    0.90
  -3   4  17    2.62    1.44
  -3  -4  17    9.80    3.06
  -3  -4  16   12.02    2.62
  -3   4  16   13.83    3.28
  -3  -4  16   18.76    4.24
  -3  -4  15    1.56    0.85
  -3   4  15    3.95    2.01
  -3  -4  15    3.08    1.74
  -3  -4  14    6.17    1.45
  -3   4  14    6.13    1.55
  -3  -4  14    4.37    1.80
  -3  -4  13   57.59   13.91
  -3   4  13   66.18    5.86
  -3  -4  13   76.10    6.51
  -3  -4  12    1.72    0.95
  -3   4  12    3.49    1.85
  -3  -4  12    1.08    1.43
  -3  -4  11    1.73    0.94
  -3   4  11    4.49    1.53
  -3  -4  11    2.97    1.46
  -3  -4  10   13.32    1.99
  -3   4  10   24.23    3.46
  -3  -4  10   30.41    4.22
  -3  -4   9  225.86   16.19
  -3   4   9  253.54   18.27
  -3  -4   9  267.61   19.27
  -3  -4   8    9.25    2.00
  -3   4   8   11.32    1.75
  -3  -4   8   11.78    1.70
  -3  -4   7  220.27   12.44
  -3   4   7  235.00   13.30
  -3  -4   7  271.69   15.38
  -3  -4   6    0.12    0.72
  -3   4   6    2.30    0.83
  -3   4   5   11.60    1.09
  -3  -4   5    9.20    1.36
  -3   4   5    9.71    0.92
  -3   4   5    7.95    1.19
  -3   4   4   68.42    2.23
  -3  -4   4   60.19    2.84
  -3   4   4   69.29    2.23
   3   4  -4   73.23    6.75
  -3   4   4   70.26    2.90
   3  -4  -3  184.91    5.64
  -3   4   3  177.23    5.23
  -3  -4   3  171.58    5.89
  -3   4   3  180.42    9.47
   3   4  -3  174.95    8.56
  -3   4   3  176.35    5.57
   3  -4  -2    5.95    1.35
  -3   4   2    4.40    0.74
  -3  -4   2    3.43    1.06
   3   4  -2    3.07    0.98
  -3   4   2    4.31    1.16
  -3   4   2    5.67    0.98
   3  -4  -1  139.73    4.63
  -3   4   1  128.38    4.14
   3   4  -1  150.89   12.39
  -3   4   1  142.10    7.16
  -3   4   1  133.79    4.23
   3  -4   0  220.04    6.83
  -3   4   0  205.26    6.31
  -3  -4   0  181.03    6.25
   3   4   0  202.87    8.02
  -3   4   0  205.12    6.53
   3  -4   1   23.72    4.44
  -3   4  -1   21.25    2.53
  -3  -4  -1   17.84    2.44
   3   4   1   28.74    4.33
  -3   4  -1   18.44    2.11
   3  -4   2   29.60    5.85
  -3  -4  -2   30.68    3.79
   3  -4   2   34.54    4.79
   3   4   2   34.87    5.44
  -3   4  -2   33.36    3.63
   3  -4   3    2.47    0.76
  -3  -4  -3   -0.02    0.78
   3  -4   3    0.87    0.40
   3   4   3    0.83    1.13
  -3   4  -3    1.96    0.54
   3  -4   4    1.67    1.79
  -3  -4  -4    1.30    0.85
   3  -4   4    0.81    0.36
   3   4   4    1.55    1.06
  -3   4  -4    1.04    0.48
   3  -4   5   56.68    6.20
  -3  -4  -5   50.38    4.16
   3  -4   5   50.98    4.72
   3   4   5   45.96    3.92
  -3   4  -5   41.80    3.07
   3  -4   6   32.04    5.11
  -3  -4  -6   33.21    3.75
   3  -4   6   29.87    3.02
   3   4   6   30.80    3.50
  -3   4  -6   30.53    3.06
   3  -4   7  220.11   18.49
  -3  -4  -7  218.08   15.87
   3  -4   7  208.39   14.78
   3   4   7  201.18   14.66
  -3   4  -7  176.83   12.59
   3  -4   8    3.17    1.11
  -3  -4  -8    5.04    1.53
   3   4   8    4.45    1.72
   3  -4   8    4.82    1.18
  -3   4  -8    1.92    0.78
   3  -4   9   82.97   10.49
  -3  -4  -9   78.47    5.37
   3  -4   9   81.65    4.98
   3   4   9   76.10    5.24
   3  -4  10   47.18    7.71
  -3  -4 -10   37.22    5.14
   3   4  10   36.88    5.01
   3  -4  10   31.53    4.04
   3  -4  11   33.78    5.05
  -3  -4 -11   40.25    5.07
   3   4  11   44.94    5.44
   3  -4  11   42.66    4.98
   3  -4  12   43.28    5.91
  -3  -4 -12   55.41    5.39
   3   4  12   53.33    5.17
   3  -4  12   50.05   12.04
   3  -4  13   12.84    3.28
  -3  -4 -13   13.97    3.03
   3   4  13    9.86    2.55
   3  -4  13   13.26    2.63
   3  -4  14   30.53    4.29
  -3  -4 -14   36.20    4.71
   3   4  14   30.51    3.97
   3  -4  14   31.48    3.64
   3  -4  15    3.48    0.96
  -3  -4 -15    4.80    2.19
   3   4  15    5.11    2.21
   3  -4  15    4.96    1.96
   3  -4  16    6.58    1.99
  -3  -4 -16    3.89    2.00
   3   4  16    1.72    1.41
   3  -4  16    6.12    1.98
   3  -4  17   -0.36    1.22
  -3  -4 -17   -1.37    1.41
   3   4  17   -0.42    1.28
   3  -4  17    0.40    0.94
   3  -4  18   41.55    9.83
  -3  -4 -18   56.58   11.64
   3   4  18   47.37    9.85
   3  -4  18   40.69    8.47
   3  -4  19    3.06    2.14
  -3  -4 -19    0.40    1.52
   3  -4  19    2.65    1.30
  -3   5  20    3.05    2.11
  -3  -5  20    1.96    1.97
  -3  -5  19    4.23    1.83
  -3   5  19    4.59    1.91
  -3  -5  19    1.99    1.61
  -3  -5  18   16.48    1.82
  -3   5  18   19.09    3.04
  -3  -5  18   18.49    3.18
  -3  -5  17    4.05    1.53
  -3   5  17    3.89    2.29
  -3  -5  17    4.85    2.58
  -3  -5  16   24.11    4.27
  -3   5  16   37.62    4.79
  -3  -5  16   40.65    5.04
  -3  -5  15   42.63    4.44
  -3   5  15   58.07    6.10
  -3  -5  15   53.34    5.77
  -3  -5  14    4.80    1.76
  -3   5  14    4.15    1.72
  -3  -5  14    5.36    2.32
  -3  -5  13   49.36   11.91
  -3   5  13   58.17    5.52
  -3  -5  13   62.04    5.69
  -3  -5  12    3.98    1.62
  -3   5  12    2.61    1.51
  -3  -5  12    0.43    1.34
  -3  -5  11  106.41    8.21
  -3   5  11  142.01   10.82
  -3  -5  11  137.98   10.62
  -3  -5  10    3.34    1.40
  -3   5  10    3.50    1.34
  -3  -5  10    3.75    1.64
  -3  -5   9   31.46    3.22
  -3   5   9   27.35    2.90
  -3  -5   9   28.94    3.04
  -3  -5   8    3.38    1.34
  -3   5   8    3.26    1.45
  -3  -5   8    5.46    1.57
  -3  -5   7   26.04    2.89
  -3   5   7   29.08    3.21
  -3  -5   6   73.30   12.75
  -3   5   6   62.95    6.12
  -3   5   5    1.13    0.28
  -3  -5   5    1.38    1.16
  -3   5   5    0.67    0.26
  -3   5   5    2.27    0.80
   3  -5  -4   27.42    2.84
  -3   5   4   24.97    4.40
  -3  -5   4   22.18    2.49
   3   5  -4   28.34    4.21
  -3   5   4   32.25    2.73
   3  -5  -3    0.69    0.23
  -3   5   3    1.10    0.51
  -3  -5   3    1.67    0.92
  -3   5   3    2.88    0.87
   3   5  -3    1.28    0.92
  -3   5   3    0.78    0.59
   3  -5  -2  221.49   14.72
  -3   5   2  216.18   14.37
  -3  -5   2  189.67   13.07
  -3   5   2  189.73   12.66
   3   5  -2  179.21   12.83
  -3   5   2  222.14   14.80
   3  -5  -1   15.75    2.60
  -3   5   1   15.96    1.71
  -3  -5   1   13.64    1.91
  -3   5   1   12.50    2.37
   3   5  -1   13.82    2.14
  -3   5   1   14.19    1.58
   3  -5   0   79.65    5.76
  -3   5   0   75.33    5.34
  -3  -5   0   64.55    5.06
   3   5   0   61.64    6.53
  -3   5   0   76.24    5.77
  -3   5   0   82.42    5.63
   3  -5   1    1.16    0.55
  -3   5  -1    1.61    0.68
  -3  -5  -1    2.64    0.99
   3   5   1    1.21    0.51
  -3   5  -1    0.74    0.40
  -3   5  -1    1.87    0.47
   3  -5   2    2.35    1.16
  -3  -5  -2    2.12    0.94
   3   5   2    4.49    1.05
  -3   5  -2    0.88    0.33
   3  -5   3   75.07    8.39
  -3  -5  -3   71.11    5.42
   3  -5   3   69.98    5.08
   3   5   3   83.81   11.43
  -3   5  -3   75.71    5.15
   3  -5   4  108.83    9.22
  -3  -5  -4  108.93    7.95
   3  -5   4  110.33    7.44
   3   5   4  112.81    8.23
  -3   5  -4   94.24    6.34
   3  -5   5  109.90    6.84
  -3  -5  -5  119.51    7.41
   3  -5   5  112.06    6.29
   3   5   5  121.90    7.48
  -3   5  -5  104.72    5.87
   3  -5   6   14.90    2.58
  -3  -5  -6   16.86    2.36
   3  -5   6   17.60    2.63
   3   5   6   21.71    2.94
   3  -5   7   51.61    8.05
  -3  -5  -7   55.54    5.36
   3  -5   7   54.80    4.70
   3   5   7   66.62    6.13
  -3   5  -7   49.00    4.22
   3  -5   8   11.56    2.10
  -3  -5  -8   10.58    2.01
   3  -5   8    7.31    1.64
   3   5   8   10.15    2.57
  -3   5  -8    7.25    1.65
   3  -5   9  216.79   20.20
  -3  -5  -9  190.04   14.19
   3  -5   9  180.21   12.99
   3   5   9  180.87   13.57
  -3   5  -9  141.12   10.26
   3  -5  10   13.52    2.72
   3   5  10   12.55    2.26
   3  -5  10    9.71    2.25
   3  -5  11    1.92    1.32
  -3  -5 -11    0.15    1.21
   3   5  11    2.49    1.41
   3  -5  11    0.69    0.60
   3  -5  12   49.64    6.89
  -3  -5 -12   50.55    5.27
   3   5  12   53.31    5.42
   3  -5  12   47.74    4.47
   3  -5  13   16.95    4.72
  -3  -5 -13   27.61    3.87
   3   5  13   19.61    4.35
   3  -5  13   17.90    3.65
   3  -5  14    6.49    1.86
  -3  -5 -14    2.52    1.49
   3   5  14    1.84    1.66
   3  -5  14    0.43    0.74
   3  -5  15   11.56    2.65
  -3  -5 -15   19.66    3.88
   3   5  15   12.02    2.88
   3  -5  15   10.50    2.26
   3  -5  16    4.56    2.35
  -3  -5 -16    4.16    2.45
   3   5  16    2.15    1.50
   3  -5  16    3.35    1.23
   3  -5  17    3.83    1.13
  -3  -5 -17    3.50    2.14
   3   5  17    1.41    1.45
   3  -5  17   -0.47    0.89
   3  -5  18    6.07    1.86
  -3  -5 -18   12.02    3.66
   3   5  18    6.19    2.67
  -3  -6  20    9.18    3.00
  -3  -6  20    7.03    2.80
  -3  -6  19   10.99    3.36
  -3   6  19    4.09    1.50
  -3  -6  19   13.26    3.51
  -3  -6  18    6.90    1.82
  -3   6  18    1.96    1.34
  -3  -6  18    4.27    2.44
  -3  -6  17   18.85    2.80
  -3   6  17   22.84    3.48
  -3  -6  17   27.39    4.35
  -3  -6  16    3.18    1.11
  -3   6  16    5.64    2.52
  -3  -6  16    7.20    2.98
  -3  -6  15    1.72    1.21
  -3   6  15    3.87    1.49
  -3  -6  15    4.90    2.14
  -3  -6  14    5.76    1.63
  -3   6  14    1.75    1.27
  -3  -6  14    4.78    1.88
  -3  -6  13    9.31    1.70
  -3   6  13   11.30    2.07
  -3  -6  13   15.10    2.44
  -3  -6  12    5.34    1.87
  -3   6  12    2.65    1.48
  -3  -6  12    6.57    2.40
  -3  -6  11   64.53    5.57
  -3   6  11   70.62    6.06
  -3  -6  11   69.29    6.06
  -3  -6  10    3.46    1.48
  -3   6  10    3.79    1.72
  -3  -6  10    2.57    1.55
  -3  -6   9  178.92   10.45
  -3   6   9  196.39   11.36
  -3  -6   9  192.96   11.20
  -3  -6   8  118.95    8.95
  -3   6   8  108.01    8.13
  -3  -6   8  145.82   10.92
  -3  -6   7  177.70   12.97
  -3   6   7  189.36   13.68
  -3  -6   6    9.77    2.10
  -3   6   6   19.98    2.38
   3  -6  -5   23.27    2.67
  -3  -6   5   20.60    2.56
  -3   6   5   20.88    1.99
   3   6  -5   16.06    2.15
  -3   6   5   20.20    2.31
   3  -6  -4  102.71    6.96
  -3   6   4   98.38    6.60
  -3  -6   4  102.83    7.47
   3   6  -4   96.23    7.67
  -3   6   4  114.30    7.93
   3  -6  -3  134.15    9.36
  -3   6   3  145.62    9.75
  -3  -6   3  134.71    9.52
   3   6  -3  142.08   16.01
  -3   6   3  162.42   10.98
   3  -6  -2   98.10    7.14
  -3   6   2   93.86    6.45
  -3  -6   2   87.99    6.53
  -3   6   2  103.25    7.18
   3   6  -2  102.37   11.06
  -3   6   2  110.34    7.50
   3  -6  -1  198.78   13.37
  -3   6   1  176.65   11.90
  -3  -6   1  165.38   11.54
  -3   6   1  177.63   11.82
   3   6  -1  183.03   13.55
  -3   6   1  194.63   12.93
   3  -6   0   13.93    2.76
  -3   6   0   11.35    1.46
  -3  -6   0   12.12    1.79
   3   6   0   15.37    2.27
  -3   6   0   16.00    2.46
  -3   6   0   18.60    1.83
   3  -6   1    3.39    0.90
  -3  -6  -1    2.41    1.10
   3   6   1    4.80    1.31
  -3   6  -1    1.82    0.37
  -3   6  -1    3.72    0.55
   3  -6   2   19.43    3.32
  -3  -6  -2   13.04    1.94
   3   6   2   10.99    1.98
  -3   6  -2   16.45    1.55
  -3   6  -2   18.31    1.72
   3  -6   3    7.36    2.15
  -3  -6  -3    9.45    2.40
   3   6   3    8.79    2.52
  -3   6  -3    6.55    1.21
  -3   6  -3    7.65    1.42
   3  -6   4   14.37    3.00
  -3  -6  -4   11.99    2.25
   3  -6   4   14.45    2.19
   3   6   4   11.14    1.86
  -3   6  -4   12.95    1.30
   3  -6   5  175.26   10.41
  -3  -6  -5  192.79   11.31
   3  -6   5  173.32    9.45
   3   6   5  148.90    8.91
   3  -6   6   10.52    3.33
  -3  -6  -6   11.55    2.54
   3  -6   6   12.46    2.72
   3   6   6   13.60    3.15
  -3   6  -6   10.51    1.91
   3  -6   7  219.39   14.28
  -3  -6  -7  233.50   13.47
   3  -6   7  217.80   11.80
   3   6   7  228.67   13.19
  -3   6  -7  193.50   10.53
   3  -6   8   55.05    9.19
  -3  -6  -8   55.13    6.94
   3  -6   8   51.06    6.02
   3   6   8   43.57    5.64
  -3   6  -8   36.64    4.38
   3  -6   9  130.17   11.93
  -3  -6  -9  144.22   11.25
   3   6   9  113.83    8.97
   3  -6   9  126.96    9.23
  -3   6  -9  108.73    7.92
   3  -6  10    4.57    1.97
  -3  -6 -10    2.41    1.45
   3  -6  10    1.62    0.88
   3   6  10    1.12    1.54
   3  -6  11   63.05   10.12
  -3  -6 -11   59.26    5.50
   3   6  11   63.67    5.91
   3  -6  11   52.88    4.51
   3  -6  12   13.85    4.36
  -3  -6 -12    7.14    2.44
   3   6  12   11.91    2.97
   3  -6  12   14.40    2.72
   3  -6  13   54.25    7.49
  -3  -6 -13   62.86    6.68
   3   6  13   67.07    7.12
   3  -6  13   59.94    5.79
   3  -6  14    6.99    2.44
  -3  -6 -14    4.96    2.24
   3   6  14    5.83    2.83
   3  -6  14    6.55    2.39
   3  -6  15    3.92    2.21
  -3  -6 -15    0.23    1.34
   3   6  15    3.27    2.32
   3  -6  15    0.12    0.70
   3  -6  16    6.50    1.72
  -3  -6 -16   14.59    3.69
   3   6  16    8.62    2.50
   3  -6  17   18.57    5.04
  -3  -6 -17   17.16    4.60
   3   6  17   14.90    4.27
   3  -6  18    2.25    1.25
  -3  -6 -18   12.00    4.19
   3   6  18    4.77    2.71
  -3  -7  19    1.61    1.08
  -3   7  19    1.34    1.40
  -3  -7  19    3.71    1.83
  -3  -7  18    5.61    2.05
  -3   7  18    3.47    1.31
  -3  -7  18    4.32    2.20
  -3  -7  17   15.02    3.44
  -3   7  17   17.64    2.49
  -3  -7  17   24.93    3.60
  -3  -7  16    3.25    1.72
  -3   7  16    5.48    2.21
  -3  -7  16    4.63    2.34
  -3  -7  15    9.37    2.26
  -3   7  15   13.11    2.99
  -3  -7  14    8.00    2.08
  -3   7  14    6.84    1.91
  -3  -7  14    6.49    2.11
  -3  -7  13    5.12    1.77
  -3   7  13   10.13    2.38
  -3  -7  13   10.75    2.84
  -3  -7  12    5.22    2.12
  -3   7  12    3.12    1.77
  -3  -7  12    6.14    2.17
  -3  -7  11   89.31    7.37
  -3   7  11  104.27    8.36
  -3  -7  11  107.01    8.71
  -3  -7  10    3.48    1.33
  -3   7  10    3.33    1.77
  -3  -7  10    3.83    1.58
  -3  -7   9   10.66    2.55
  -3   7   9    9.73    2.35
  -3  -7   9    7.56    2.08
  -3  -7   8    2.40    1.17
  -3   7   8    2.09    1.03
  -3  -7   8    2.06    1.37
  -3  -7   7    8.57    2.23
  -3   7   7    6.27    1.47
   3  -7  -6  151.89   10.52
  -3  -7   6  143.93   10.76
  -3   7   6  153.46   10.64
  -3   7   6  151.07   10.98
   3  -7  -5   19.88    2.48
  -3  -7   5   20.62    2.50
   3   7  -5   23.24    2.73
  -3   7   5   16.34    1.81
   3  -7  -4    7.66    1.68
  -3   7   4    5.67    1.13
  -3  -7   4    7.40    1.80
   3   7  -4    6.16    1.53
  -3   7   4    5.77    1.27
   3  -7  -3   54.21    5.82
  -3   7   3   49.29    4.70
  -3  -7   3   44.93    4.74
   3   7  -3   60.84    8.79
  -3   7   3   62.68    5.98
   3  -7  -2    4.65    1.12
  -3   7   2    6.83    1.47
  -3  -7   2    8.45    2.12
  -3   7   2    6.03    1.65
   3   7  -2    8.60    1.97
  -3   7   2    5.65    1.19
   3  -7  -1  237.38   13.20
  -3   7   1  229.98   12.79
  -3  -7   1  233.64   13.43
  -3   7   1  221.45   12.07
   3   7  -1  216.89   16.20
  -3   7   1  242.68   13.21
   3  -7   0   65.62    7.14
  -3  -7   0   69.30    6.90
   3   7   0   75.69    8.37
  -3   7   0   80.37    5.58
  -3   7   0   83.35    4.66
   3  -7   1    5.26    1.67
  -3  -7  -1    5.83    1.60
   3   7   1    5.88    1.83
  -3   7  -1    4.89    0.92
  -3   7  -1    5.54    1.03
   3  -7   2   91.87    5.77
  -3  -7  -2   82.24    5.51
   3   7   2   99.13   10.18
   3  -7   3    4.62    1.37
  -3  -7  -3    0.93    1.25
   3   7   3    1.13    0.65
   3  -7   4   55.49    9.00
  -3  -7  -4   51.35    4.99
   3   7   4   43.05    4.36
   3  -7   5    4.32    1.55
  -3  -7  -5    6.46    2.04
   3   7   5    3.91    1.32
   3  -7   6    3.29    1.55
  -3  -7  -6    4.66    1.42
   3  -7   6    4.00    0.97
   3   7   6    4.47    1.66
  -3   7  -6    2.33    0.53
   3  -7   7    0.72    0.96
  -3  -7  -7   -0.10    1.16
   3  -7   7    0.77    0.32
   3   7   7    1.12    1.34
  -3   7  -7    0.78    0.38
   3  -7   8   63.29    8.46
  -3  -7  -8   62.86    5.49
   3  -7   8   63.73    5.44
   3   7   8   64.91    5.56
  -3   7  -8   49.11    5.80
   3  -7   9    2.08    1.38
  -3  -7  -9    5.05    1.76
   3  -7   9    3.75    0.96
   3   7   9    9.32    2.39
   3  -7  10   31.07    4.66
  -3  -7 -10   29.56    3.71
   3   7  10   33.72    4.71
   3  -7  10   26.06    2.80
   3  -7  11   30.09    6.50
  -3  -7 -11   22.65    4.26
   3   7  11   23.07    4.65
   3  -7  11   22.70    3.85
   3  -7  12   20.29    4.68
  -3  -7 -12   13.29    3.10
   3   7  12   22.24    4.76
   3  -7  12   20.35    3.92
   3  -7  13  112.53   16.95
  -3  -7 -13   92.88    9.37
   3   7  13  118.17   11.82
   3  -7  13   88.78    8.42
   3  -7  14   27.08    6.72
  -3  -7 -14   54.48    6.18
   3   7  14   54.98    6.58
   3  -7  15    5.84    2.75
  -3  -7 -15    9.35    2.56
   3   7  15    6.34    2.35
   3  -7  16    8.65    2.44
  -3  -7 -16   14.31    3.81
   3   7  16   15.36    4.26
   3  -7  17    2.79    1.60
  -3  -7 -17    8.25    3.00
   3   7  17    7.00    2.92
   3  -7  18   18.45    7.62
  -3  -7 -18   47.24   12.35
   3   7  18   48.41   12.51
  -3  -8  19    3.54    1.61
  -3   8  19    7.23    2.81
  -3  -8  19    6.04    2.75
  -3  -8  18    8.64    2.68
  -3   8  18   10.07    3.26
  -3  -8  18   13.05    3.49
  -3  -8  17    1.92    1.07
  -3   8  17    2.62    1.64
  -3  -8  17    1.03    1.96
  -3  -8  16    5.73    2.30
  -3   8  16    3.04    1.28
  -3  -8  16    6.56    2.35
  -3  -8  15    2.97    1.55
  -3   8  15    2.18    1.04
  -3  -8  15    3.77    1.98
  -3  -8  14   53.21    5.74
  -3   8  14   56.27    6.08
  -3  -8  14   63.36    6.82
  -3  -8  13    3.00    1.67
  -3   8  13    3.64    1.42
  -3  -8  13    8.01    3.03
  -3  -8  12   77.35    7.26
  -3   8  12   82.35    7.65
  -3  -8  12  105.68    9.59
  -3  -8  11    2.01    1.19
  -3   8  11    3.42    1.88
  -3  -8  11    2.28    1.43
  -3  -8  10    3.87    1.45
  -3   8  10    0.16    1.14
  -3  -8  10    2.41    1.30
  -3  -8   9   33.79    4.42
  -3   8   9   36.62    4.54
  -3  -8   9   47.57    5.75
  -3  -8   8    3.19    1.36
  -3   8   8    5.58    1.63
  -3  -8   8    5.20    1.73
  -3  -8   7   58.43    7.30
  -3   8   7   69.38    4.65
   3  -8  -6    8.44    1.95
  -3  -8   6    8.91    2.26
  -3   8   6   11.34    1.41
  -3   8   6   12.38    1.90
   3  -8  -5  114.59    8.14
  -3  -8   5   98.71    7.68
  -3   8   5  100.47    7.17
   3   8  -5  119.32   12.04
  -3   8   5   93.17    6.95
   3  -8  -4  136.21    9.69
  -3  -8   4  115.49    8.78
  -3   8   4  128.07    9.13
   3   8  -4  142.48   16.24
  -3   8   4  143.86   10.39
   3  -8  -4  128.58    9.26
   3  -8  -3  173.60   12.36
  -3  -8   3  170.47   12.63
   3   8  -3  178.48   13.97
  -3   8   3  196.40   13.93
   3  -8  -2   79.21    5.93
  -3  -8   2   68.58    6.23
   3   8  -2   62.44    8.20
  -3   8   2   73.17    6.12
   3  -8  -1   72.80    6.24
  -3   8   1   62.45    5.40
  -3  -8   1   74.07    6.74
  -3   8   1   76.16   15.18
   3   8  -1   73.46    8.36
  -3   8   1   73.79    6.07
   3  -8   0   12.46    2.52
  -3  -8   0    9.09    2.16
   3   8   0    3.67    1.21
  -3   8   0    4.25    0.95
  -3   8   0    6.16    1.14
   3  -8   1   19.95    2.51
  -3  -8  -1   16.46    2.28
   3   8   1   14.43    3.58
   3  -8   2  353.37   25.07
  -3  -8  -2  378.87   27.02
   3   8   2  319.82   23.38
   3  -8   3   65.52    5.95
  -3  -8  -3   55.91    5.46
   3   8   3   46.27    5.93
   3  -8   4   14.29    2.20
  -3  -8  -4   20.15    3.24
   3   8   4   17.44    2.79
   3  -8   5    3.34    1.28
  -3  -8  -5    9.81    2.54
   3   8   5    6.05    1.82
   3  -8   6   35.16    4.79
  -3  -8  -6   35.23    4.91
   3   8   6   25.95    3.78
   3  -8   7   30.80    5.41
  -3  -8  -7   20.61    3.21
   3   8   7   22.10    3.39
   3  -8   8   18.02    3.54
  -3  -8  -8   15.40    2.58
   3   8   8   23.05    3.21
   3  -8   9    4.03    1.55
  -3  -8  -9    0.89    1.24
   3  -8   9    1.53    0.61
   3   8   9    1.10    1.19
   3  -8  10   11.93    3.13
  -3  -8 -10   10.74    2.39
   3  -8  10    8.67    1.62
   3   8  10    5.50    2.13
   3  -8  11   80.82   13.82
  -3  -8 -11   80.31    8.05
   3   8  11   88.03    8.75
   3  -8  12   54.18    9.22
  -3  -8 -12   49.20    5.57
   3   8  12   47.63    5.46
   3  -8  13  181.19   19.54
  -3  -8 -13  210.18    6.21
   3   8  13  179.82   17.96
   3  -8  14   71.72    7.66
  -3  -8 -14   65.44    4.01
   3   8  14   82.99    4.39
   3  -8  15    2.11    1.44
  -3  -8 -15    3.76    1.44
   3   8  15    1.73    1.46
   3  -8  16   11.01    3.47
  -3  -8 -16   14.52    4.01
   3   8  16   25.41    6.05
   3  -8  17    2.41    1.47
  -3  -8 -17    6.70    2.78
   3   8  17    3.24    2.35
  -3  -9  18    6.19    2.40
  -3   9  18   10.61    3.56
  -3  -9  18    7.30    3.05
  -3  -9  17    0.32    0.98
  -3   9  17    2.11    1.34
  -3  -9  17    2.37    1.42
  -3  -9  16   14.49    3.80
  -3   9  16   22.46    5.27
  -3  -9  16   18.29    4.64
  -3  -9  15    5.27    2.35
  -3   9  15    9.08    2.47
  -3  -9  15   11.16    2.93
  -3  -9  14    3.54    1.68
  -3   9  14    6.86    2.76
  -3  -9  14    5.98    2.39
  -3  -9  13    2.24    1.75
  -3   9  13    0.60    1.17
  -3  -9  13    1.81    1.70
  -3  -9  12    6.98    2.09
  -3   9  12    6.89    2.10
  -3  -9  12    6.08    2.30
  -3  -9  11   11.90    2.64
  -3   9  11   16.07    3.15
  -3  -9  11   20.85    4.03
  -3  -9  10   87.67    7.73
  -3   9  10   69.67    6.05
  -3  -9  10   89.10    7.50
  -3  -9   9    3.66    1.72
  -3   9   9    2.43    1.43
  -3  -9   9    2.60    1.43
  -3  -9   8   23.89    3.45
  -3   9   8   12.05    1.86
   3  -9  -7    6.17    1.67
  -3  -9   7   17.97    3.04
  -3   9   7    8.49    1.74
  -3   9   7    7.85    1.94
   3  -9  -6   17.48    2.97
  -3  -9   6   23.09    3.33
  -3   9   6   14.54    1.82
  -3   9   6   18.14    2.61
   3  -9  -5   79.06    4.59
  -3  -9   5   70.31    4.90
  -3   9   5   63.78    3.81
   3   9  -5   66.56    7.10
  -3   9   5   64.55    4.03
   3  -9  -4  254.34   13.85
  -3  -9   4  248.73   14.30
  -3   9   4  246.21   13.40
   3   9  -4  239.50   15.79
  -3   9   4  276.59   15.12
   3  -9  -4  203.91   11.21
   3  -9  -3  288.16   15.68
  -3   9   3  271.69   14.86
  -3  -9   3  278.72   15.83
   3   9  -3  283.76   19.03
  -3   9   3  288.15   15.62
   3  -9  -2   20.95    2.73
  -3   9   2   24.46    3.20
  -3  -9   2   31.40    4.23
  -3   9   2   25.57    3.11
   3   9  -2   35.85    6.08
  -3   9   2   29.04    3.50
   3  -9  -1    4.57    1.47
  -3  -9   1    3.74    1.47
  -3   9   1    1.52    0.47
   3   9  -1    1.83    1.03
  -3   9   1    1.35    0.51
   3  -9   0   11.62    1.76
  -3  -9   0    6.71    2.17
   3   9   0    6.43    2.06
   3  -9   1   26.71    3.63
  -3  -9  -1   25.81    3.72
   3   9   1   15.81    3.29
   3  -9   2   32.06    4.29
  -3  -9  -2   34.60    4.62
   3   9   2   25.00    4.13
   3  -9   3    7.34    2.09
  -3  -9  -3    5.23    1.66
   3   9   3    4.36    1.23
   3  -9   4  111.32    8.58
  -3  -9  -4   98.00    7.93
   3   9   4   94.40   10.61
   3  -9   5   79.17    6.49
  -3  -9  -5   59.21   11.40
   3   9   5   56.82   10.84
   3  -9   6   31.99    4.12
  -3  -9  -6   25.51    3.43
   3   9   6   15.36    2.40
   3  -9   7   65.05    5.86
  -3  -9  -7   55.08    6.43
   3   9   7   58.97   14.30
   3  -9   8   55.10    5.25
  -3  -9  -8   56.31    5.44
   3   9   8   48.72   11.89
   3  -9   9   12.66    2.55
  -3  -9  -9   11.66    2.72
   3   9   9   17.79    3.53
   3  -9  10   94.99   12.91
  -3  -9 -10   90.14    9.06
   3   9  10   76.71    7.73
   3  -9  11   83.34   11.94
  -3  -9 -11   76.23    7.89
   3   9  11   71.77    7.55
   3  -9  12   18.63    4.10
  -3  -9 -12   18.80    3.82
   3   9  12    8.36    2.07
   3  -9  13   44.70    6.91
  -3  -9 -13   35.32    2.96
   3   9  13   44.99    3.92
   3  -9  14    4.85    2.76
  -3  -9 -14    5.87    2.82
   3   9  14    5.17    2.38
   3  -9  15    5.92    2.08
  -3  -9 -15    6.08    2.40
   3   9  15    8.58    2.98
   3  -9  16    3.55    1.42
  -3  -9 -16    3.77    1.63
   3   9  16    2.19    1.64
  -3 -10  17    5.37    2.24
  -3  10  17    3.50    1.45
  -3 -10  17    7.00    2.99
  -3 -10  16   30.14    6.50
  -3  10  16   24.75    5.44
  -3 -10  16   42.55    8.92
  -3 -10  15   38.36    8.69
  -3  10  15   21.57    5.16
  -3 -10  15   30.93    7.21
  -3 -10  14    6.99    2.22
  -3  10  14   14.59    3.75
  -3 -10  14    3.77    1.64
  -3 -10  13   56.81    6.37
  -3  10  13   59.42    6.62
  -3 -10  13   70.32    7.50
  -3 -10  12    4.86    1.53
  -3  10  12   17.66    3.95
  -3 -10  12   15.37    3.54
  -3 -10  11    4.96    2.04
  -3  10  11    1.68    1.10
  -3 -10  11    5.77    2.04
  -3 -10  10    0.68    1.21
  -3  10  10    3.33    1.51
  -3 -10  10    1.21    1.08
  -3 -10   9   22.77    4.22
  -3  10   9   25.73    4.55
  -3 -10   9   36.61    8.29
  -3 -10   8    4.10    1.99
  -3  10   8    6.43    1.47
  -3 -10   7  178.46   13.84
  -3  10   7  170.57   12.82
   3 -10  -6    5.08    1.12
  -3 -10   6    5.63    1.60
  -3  10   6    1.79    0.73
   3 -10  -5   39.51    4.79
  -3 -10   5   34.08    4.66
   3  10  -5   32.08    5.23
  -3  10   5   33.48    4.22
   3 -10  -4   68.32    5.21
  -3 -10   4   66.48    5.65
  -3  10   4   55.95    6.70
   3  10  -4   61.49    8.24
   3 -10  -3   32.23    4.04
  -3 -10   3   32.05    4.51
   3  10  -3   42.03    6.27
  -3  10   3   39.85    4.83
   3 -10  -2   47.57    5.85
  -3 -10   2   45.63    5.94
   3  10  -2   54.15    7.82
  -3  10   2   47.88    5.68
   3 -10  -1    8.56    2.24
  -3 -10   1    4.64    1.45
  -3  10   1    5.55    1.31
   3  10  -1    5.55    1.43
  -3  10   1    7.98    1.68
   3 -10   0  547.49   38.73
  -3 -10   0  586.08   41.83
   3  10   0  473.75   36.12
   3 -10   1  228.27   16.59
  -3 -10  -1  260.69   19.32
   3  10   1  222.41   17.28
   3 -10   2  118.87    9.00
  -3 -10  -2  123.71    9.79
   3  10   2  110.22   14.35
   3 -10   3  100.82    7.88
  -3 -10  -3  104.49    8.40
   3  10   3  102.82   11.77
   3 -10   4    4.38    1.51
  -3 -10  -4    1.27    1.44
   3  10   4    1.55    0.94
   3 -10   5    0.92    1.31
  -3 -10  -5    3.23    1.54
   3  10   5    1.23    1.09
   3 -10   6    8.54    1.77
  -3 -10  -6   12.24    2.12
   3  10   6   11.04    1.94
   3 -10   7   30.56    4.07
  -3 -10  -7   28.34    3.71
   3  10   7   27.53    3.74
   3 -10   8    1.79    1.41
  -3 -10  -8    0.05    1.29
   3  10   8    3.13    1.50
   3 -10   9   28.51    4.02
  -3 -10  -9   17.45    3.93
   3  10   9   20.90    4.52
   3 -10  10   32.73    6.57
  -3 -10 -10   29.16    5.77
   3  10  10   28.45    5.67
   3 -10  11    4.14    1.94
  -3 -10 -11    1.97    1.36
   3  10  11    2.25    1.32
   3 -10  12   64.57    9.91
  -3 -10 -12   76.71    4.02
   3  10  12   58.73    3.80
   3 -10  13    3.53    1.89
  -3 -10 -13    2.75    1.39
   3  10  13    3.66    2.30
   3 -10  14    9.63    2.78
  -3 -10 -14   11.53    3.03
   3  10  14    6.37    2.09
   3 -10  15   22.62    5.68
  -3 -10 -15   19.04    4.49
   3  10  15   12.91    3.34
   3 -10  16    8.53    3.02
   3  10  16   12.05    3.98
  -3 -11  17   23.64    6.47
  -3 -11  17   24.23    6.65
  -3  11  16    0.90    1.18
  -3 -11  16    4.84    1.93
  -3 -11  15   22.05    5.03
  -3  11  15   30.86    6.54
  -3 -11  15   30.30    6.50
  -3 -11  14    4.57    1.60
  -3  11  14    3.31    1.29
  -3 -11  14    4.19    1.46
  -3 -11  13    2.81    1.28
  -3  11  13    4.89    2.15
  -3 -11  13    3.64    1.81
  -3 -11  12    5.85    2.67
  -3  11  12   12.31    2.61
  -3 -11  12    5.64    2.39
  -3 -11  11    1.95    1.58
  -3  11  11    2.97    1.27
  -3 -11  11   10.62    2.62
  -3 -11  10    4.81    1.49
  -3  11  10    5.17    1.45
  -3 -11  10    5.04    1.94
  -3 -11   9   24.90    3.64
  -3  11   9   18.58    3.76
  -3 -11   9   20.21    4.16
  -3 -11   8   53.91    5.52
  -3  11   8   49.92    4.74
   3 -11  -7    1.63    0.63
  -3 -11   7    3.05    1.86
  -3  11   7    2.25    1.16
  -3 -11   6  125.21   10.38
  -3  11   6  113.00    8.94
   3 -11  -5    3.72    1.22
  -3 -11   5    1.83    1.30
   3  11  -5    3.89    1.62
  -3  11   5    3.34    1.24
   3 -11  -4    8.80    1.49
  -3 -11   4    9.09    2.04
   3  11  -4    4.68    1.54
  -3  11   4    6.13    1.44
   3 -11  -3   62.29    4.97
  -3 -11   3   57.70   14.03
   3  11  -3   72.08    8.91
  -3  11   3   63.05    4.88
   3 -11  -2    3.39    1.16
  -3 -11   2    6.32    2.10
   3  11  -2    3.77    1.26
  -3  11   2    3.26    0.79
   3 -11   0   34.01    4.21
  -3 -11   0   24.22    3.51
   3  11   0   27.72    5.17
   3 -11   1  238.47   17.78
  -3 -11  -1  249.38   18.97
   3  11   1  226.15   17.82
   3 -11   2   35.20    4.45
  -3 -11  -2   43.95    5.69
   3  11   2   42.59    5.71
   3 -11   3    2.07    1.36
  -3 -11  -3    5.97    2.10
   3  11   3    2.23    1.37
   3 -11   4   92.29    7.85
  -3 -11  -4   87.21    7.71
   3  11   4   81.12   10.00
   3 -11   5   46.84    5.20
  -3 -11  -5   33.46    4.12
   3  11   5   33.78    5.51
   3 -11   6   16.93    3.31
  -3 -11  -6   20.51    3.91
   3  11   6   13.65    3.05
   3 -11   7    7.46    2.87
  -3 -11  -7    5.35    2.01
   3  11   7    2.06    1.16
   3 -11   8    3.65    1.59
  -3 -11  -8    8.79    2.57
   3  11   8    4.78    1.95
   3 -11   9    5.01    2.25
  -3 -11  -9    0.75    1.15
   3  11   9    5.55    2.11
   3 -11  10    9.06    2.25
  -3 -11 -10    4.26    2.30
   3  11  10   16.23    3.86
   3 -11  11   24.73    5.56
  -3 -11 -11   28.76    2.94
   3  11  11   20.38    2.42
   3 -11  12    4.72    2.10
  -3 -11 -12    6.30    1.84
   3  11  12    3.97    1.86
   3 -11  13    5.65    3.46
  -3 -11 -13   11.74    3.00
   3  11  13    8.78    2.70
   3 -11  14    5.66    1.97
  -3 -11 -14    3.84    2.04
   3  11  14    7.34    2.99
   3 -11  15   60.58   17.98
  -3 -11 -15   54.57   14.03
   3  11  15   54.99   14.09
  -3 -12  16    0.87    1.26
  -3  12  16    0.78    1.17
  -3 -12  16    2.12    1.78
  -3 -12  15    4.96    2.06
  -3  12  15   11.81    3.50
  -3 -12  15    6.85    2.47
  -3 -12  14    0.70    1.11
  -3  12  14    3.10    1.24
  -3 -12  14    0.86    1.24
  -3 -12  13    3.71    1.53
  -3  12  13    6.69    2.27
  -3 -12  13    3.53    1.44
  -3 -12  12   13.61    3.42
  -3  12  12   19.15    2.78
  -3 -12  12   23.09    3.16
  -3 -12  11   17.92    4.38
  -3  12  11   21.17    2.02
  -3 -12  11   12.10    3.06
  -3 -12  10    7.08    2.71
  -3  12  10   12.61    2.50
  -3 -12  10   12.51    2.58
  -3 -12   9    1.12    1.21
  -3  12   9    2.43    1.07
  -3 -12   9    5.63    2.19
  -3 -12   8    8.47    2.30
  -3  12   8   11.36    2.51
  -3 -12   7    2.86    1.47
  -3  12   7    0.60    0.83
   3 -12  -6    3.70    1.16
  -3 -12   6    4.80    1.87
  -3  12   6    4.86    1.51
   3 -12  -5   89.36    7.71
  -3 -12   5   74.12    7.22
   3  12  -5   85.59   11.32
  -3  12   5   98.01    8.52
   3 -12  -4   40.87    3.86
  -3 -12   4   36.84    8.46
   3  12  -4   35.56    7.20
  -3  12   4   38.55    3.58
   3 -12  -3    5.76    1.80
  -3 -12   3    7.75    2.06
   3  12  -3    4.35    1.42
  -3  12   3    5.45    1.49
   3 -12  -2    3.47    1.36
  -3 -12   2    7.72    2.23
   3  12  -2    1.01    0.77
   3 -12  -1   47.94   11.57
  -3 -12   1   40.01    4.84
   3  12  -1   39.86    6.48
   3 -12   0   15.81    2.54
  -3 -12   0   16.57    3.03
   3  12   0   16.76    2.70
   3 -12   1   31.46    3.73
  -3 -12  -1   42.81    5.05
   3  12   1   29.40    4.47
   3 -12   2   22.30    4.02
  -3 -12  -2   28.64    5.26
   3  12   2   20.05    4.29
   3 -12   3   84.19    7.73
  -3 -12  -3   78.91    7.49
   3  12   3   67.07    8.84
   3 -12   4   46.82    4.79
  -3 -12  -4   52.63    5.55
   3  12   4   41.57    5.16
   3 -12   5   12.41    2.89
  -3 -12  -5   13.97    3.31
   3  12   5    9.42    2.38
   3 -12   6    3.25    2.16
  -3 -12  -6   -1.92    1.47
   3  12   6    1.57    1.16
   3 -12   7    7.40    2.19
  -3 -12  -7   12.29    3.03
   3  12   7   16.23    3.53
   3 -12   8    3.89    1.78
  -3 -12  -8    3.04    1.36
   3  12   8    3.21    1.39
   3 -12   9   13.35    3.43
  -3 -12  -9   11.06    3.13
   3  12   9   10.02    3.02
   3 -12  10    0.27    1.15
  -3 -12 -10    5.33    2.38
   3  12  10    0.31    1.22
   3 -12  11    4.72    2.78
  -3 -12 -11    9.00    2.60
   3  12  11    2.14    1.39
   3 -12  12   17.70    4.71
  -3 -12 -12   20.42    4.80
   3  12  12   13.74    3.76
   3 -12  13    0.87    1.10
  -3 -12 -13    1.36    1.40
   3  12  13    3.69    2.04
   3 -12  14    3.26    1.70
  -3 -12 -14    2.46    1.40
   3  12  14    0.67    1.45
  -3 -13  14    9.58    3.15
  -3  13  14   17.54    4.16
  -3 -13  14   16.18    3.93
  -3 -13  13   46.95    9.95
  -3  13  13   59.78   12.09
  -3 -13  13   52.36   10.70
  -3 -13  12    7.45    2.39
  -3  13  12    4.11    1.26
  -3 -13  12    2.61    1.40
  -3 -13  11    2.10    1.38
  -3  13  11    2.67    1.03
  -3 -13  11    3.97    1.86
  -3 -13  10    0.77    1.39
  -3  13  10    3.28    1.51
  -3 -13  10    5.05    2.10
  -3 -13   9   40.01    3.19
  -3  13   9   30.94    2.12
  -3 -13   9   46.92    3.47
  -3 -13   8    2.05    1.34
  -3  13   8    2.24    0.74
  -3 -13   7   19.83    4.18
  -3  13   7   20.97    4.08
  -3 -13   6   13.57    3.34
  -3  13   6    5.73    1.58
   3 -13  -5   68.61    6.55
  -3 -13   5   77.01    8.05
   3  13  -5   59.98    9.55
   3 -13  -4   10.13    2.16
  -3 -13   4    2.02    1.42
   3  13  -4    5.21    1.76
   3 -13  -3    1.63    0.89
  -3 -13   3    7.54    2.70
   3  13  -3    2.18    1.58
   3 -13  -2   99.78    9.30
  -3 -13   2  111.82   10.94
   3  13  -2   87.74   13.61
   3 -13  -1    1.47    0.80
  -3 -13   1    3.80    2.37
   3  13  -1    1.53    1.12
   3 -13   0   39.89    4.32
  -3 -13   0   48.94    5.54
   3  13   0   28.83    3.89
   3 -13   1   11.20    2.52
  -3 -13  -1   10.66    2.91
   3  13   1    6.83    1.90
   3 -13   2   18.24    3.76
  -3 -13  -2   27.70    3.65
   3  13   2   20.06    4.45
   3 -13   3    2.84    1.50
  -3 -13  -3    7.50    2.51
   3  13   3    5.28    1.99
   3 -13   4   12.69    2.95
  -3 -13  -4   17.40    4.04
   3  13   4   10.76    2.76
   3 -13   5    5.54    1.73
  -3 -13  -5    8.51    2.41
   3  13   5   12.19    2.86
   3 -13   6    6.87    2.61
  -3 -13  -6    9.15    2.21
   3  13   6   14.07    3.11
   3 -13   7    0.34    1.07
  -3 -13  -7    3.32    1.48
   3  13   7    3.70    2.13
   3 -13   8    2.52    1.93
  -3 -13  -8    0.63    1.44
   3  13   8    0.22    1.02
   3 -13   9    1.64    1.49
  -3 -13  -9    3.28    2.00
   3  13   9    2.76    1.58
   3 -13  10    9.27    3.00
  -3 -13 -10   11.56    2.92
   3  13  10    5.13    1.46
   3 -13  11   10.72    3.22
  -3 -13 -11   13.70    3.88
   3  13  11   12.62    3.62
   3 -13  12   -0.99    1.50
  -3 -13 -12    3.25    2.11
   3  13  12    2.15    1.39
   3 -13  13   18.67    6.76
  -3 -13 -13   14.10    4.28
   3  13  13   26.44    7.37
  -3 -14  13    3.64    2.14
  -3  14  13    1.15    1.04
  -3 -14  13    0.81    1.05
  -3 -14  12    5.01    1.67
  -3  14  12    0.98    1.09
  -3 -14  12    6.32    2.41
  -3 -14  11    5.17    2.19
  -3  14  11    3.33    1.42
  -3 -14  11    3.87    1.53
  -3 -14  10    2.19    1.35
  -3  14  10    1.70    1.10
  -3 -14  10    7.56    1.91
  -3 -14   9   13.24    3.19
  -3  14   9   10.19    2.72
  -3 -14   9    8.75    2.41
  -3 -14   8    0.76    1.12
  -3 -14   7   20.72    2.42
  -3 -14   6    1.66    1.35
  -3 -14   5    1.20    1.67
   3  14  -5    3.79    1.88
   3 -14  -4   49.94    5.27
  -3 -14   4   57.21    6.51
   3  14  -4   41.80    7.43
   3 -14  -3    6.76    2.39
  -3 -14   3    7.41    3.21
   3  14  -3    8.58    2.21
   3 -14  -2    1.79    1.16
  -3 -14   2    3.14    1.74
   3  14  -2    0.63    0.79
   3 -14  -1    5.71    1.52
  -3 -14   1    8.68    2.58
   3  14  -1    8.18    2.00
   3 -14   0    4.48    1.76
  -3 -14   0    4.59    2.37
   3  14   0   10.58    2.72
   3 -14   1    4.94    1.72
  -3 -14  -1    4.29    2.26
   3  14   1    1.69    1.23
   3 -14   2    3.23    1.43
  -3 -14  -2    4.91    2.58
   3  14   2    2.21    0.86
   3 -14   3   41.83    5.00
  -3 -14  -3   39.26    5.20
   3  14   3   29.40    5.16
   3 -14   4    2.54    1.29
  -3 -14  -4    4.24    2.44
   3  14   4    2.27    0.84
   3 -14   5   18.27    2.32
  -3 -14  -5    7.93    2.56
   3  14   5   11.97    3.24
   3 -14   6    6.02    2.12
  -3 -14  -6    3.22    1.86
   3  14   6    2.23    0.82
   3 -14   7    2.44    1.46
  -3 -14  -7    2.88    1.56
   3  14   7    3.65    1.89
   3 -14   8    6.32    2.28
  -3 -14  -8    1.18    1.35
   3  14   8    0.25    1.20
   3 -14   9    7.87    2.60
  -3 -14  -9    5.58    2.28
   3  14   9    4.22    2.05
   3 -14  10    4.30    1.84
  -3 -14 -10    5.86    2.09
   3  14  10    3.95    1.50
   3 -14  11    7.49    3.09
  -3 -14 -11    2.67    1.52
   3  14  11    4.07    1.79
  -3 -15  12    7.65    3.03
  -3 -15  11    4.26    1.92
  -3 -15  11    5.38    1.95
  -3 -15  10    2.98    1.41
  -3 -15  10    2.82    1.46
  -3 -15   9    4.38    1.70
  -3 -15   9    6.06    2.37
  -3 -15   8    2.85    1.55
  -3 -15   8    4.77    2.00
  -3 -15   7    1.25    1.32
  -3 -15   6    8.33    2.58
  -3 -15   5    6.10    3.19
   3  15  -5    2.52    1.28
  -3 -15   4    4.60    2.14
   3  15  -4    2.52    1.47
   3 -15  -3    5.53    1.92
  -3 -15   3    7.83    2.65
   3  15  -3    2.29    1.08
   3 -15  -2    2.71    0.92
  -3 -15   2    6.49    2.39
   3  15  -2    9.47    2.84
   3 -15  -1    2.19    0.93
  -3 -15   1   -0.04    1.49
   3  15  -1    1.04    0.83
   3 -15   0   19.19    2.32
   3  15   0   26.72    5.04
   3 -15   1   26.09    2.48
  -3 -15  -1   19.37    2.78
   3  15   1   15.35    4.08
   3 -15   2    2.86    1.22
  -3 -15  -2    6.76    2.47
   3  15   2    8.35    2.22
   3 -15   3   19.73    2.85
  -3 -15  -3   12.62    3.19
   3  15   3   12.09    3.19
   3 -15   4    9.10    2.56
  -3 -15  -4   12.94    3.58
   3  15   4   10.13    3.12
   3 -15   5    4.57    2.31
  -3 -15  -5    3.22    2.02
   3  15   5    1.80    1.00
   3 -15   6    1.37    1.32
  -3 -15  -6    0.58    1.26
   3  15   6    3.82    1.58
   3 -15   7    3.70    1.78
  -3 -15  -7    5.57    2.68
   3  15   7    2.76    1.23
   3 -15   8   12.70    3.75
  -3 -15  -8   23.22    5.23
   3  15   8    8.94    4.00
   3 -15   9   16.70    4.07
  -3 -15  -9   24.59    5.57
   3  15   9   19.02    4.40
   3 -15  10    2.54    1.62
  -3 -15 -10    3.09    1.79
   3  15  10    1.77    1.81
  -3 -16  10    4.71    2.42
  -3 -16   9    2.09    1.40
  -3 -16   9    3.53    1.93
  -3 -16   8    2.31    1.32
  -3 -16   8    5.56    1.89
  -3 -16   7   25.06    5.65
  -3 -16   6    4.53    1.77
  -3 -16   5   18.69    4.54
   3  16  -5    7.20    2.29
  -3 -16   4   70.87   15.53
   3  16  -4   38.76   11.72
  -3 -16   3    3.42    2.37
   3  16  -3    1.24    0.72
   3 -16  -2   83.62    5.42
  -3 -16   2  106.17    7.46
   3  16  -2   59.24   15.56
   3 -16  -1    3.53    1.39
  -3 -16   1    3.13    1.89
   3  16  -1    4.42    1.10
   3 -16   0    2.56    1.08
  -3 -16   0    7.95    2.86
   3  16   0    1.69    1.22
   3 -16   1    5.43    1.60
  -3 -16  -1   10.97    3.04
   3  16   1   10.56    2.89
   3 -16   2    2.44    1.24
  -3 -16  -2    2.98    1.65
   3  16   2    1.32    0.88
   3 -16   3    6.96    1.83
  -3 -16  -3    4.67    1.69
   3  16   3    8.36    2.14
   3 -16   4    3.86    1.64
  -3 -16  -4    5.10    2.24
   3  16   4    2.97    1.55
   3 -16   5   29.52    6.34
  -3 -16  -5   32.50    7.11
   3  16   5   22.11    6.26
   3 -16   6    4.27    2.46
  -3 -16  -6    3.48    2.15
   3  16   6    0.18    1.18
   3 -16   7    7.16    2.82
  -3 -16  -7    5.83    2.59
   3  16   7    6.76    2.33
   3 -16   8    6.62    2.87
  -3 -16  -8    6.85    2.78
   3  16   8    5.83    2.66
  -3 -17   7    8.55    3.30
  -3 -17   6   33.54    9.01
  -3 -17   5    2.76    2.36
  -3 -17   4   13.37    3.88
   3  17  -4   10.13    3.56
  -3 -17   3   13.83    3.80
   3  17  -3    7.31    2.44
  -3 -17   2    6.18    2.75
   3  17  -2    1.43    1.04
   3 -17  -1    3.21    1.29
  -3 -17   1    5.77    2.68
   3  17  -1    0.52    0.76
  -3 -17   0   17.64    4.52
   3  17   0   10.85    3.64
   3 -17   1   15.57    3.68
  -3 -17  -1   26.49    6.59
   3  17   1   13.88    3.62
   3 -17   2   64.97   13.12
  -3 -17  -2   82.31    5.08
   3  17   2   37.61   10.61
   3 -17   3    0.53    1.16
  -3 -17  -3    5.30    2.39
   3  17   3    2.72    1.29
   3 -17   4   16.04    4.63
  -3 -17  -4   13.26    4.10
   3  17   4   10.46    3.47
   3 -17   5    2.50    1.95
  -3 -17  -5    0.93    1.38
   3  17   5    0.55    0.99
  -4   0  20   40.19   10.78
  -4   0  19    0.41    1.40
  -4   0  18    0.18    1.29
  -4   0  17    6.47    2.81
  -4   0  16   63.57    7.20
  -4   0  15    2.60    1.49
  -4   0  14   72.33    7.02
  -4   0  13    1.15    0.60
  -4   0  13    2.57    1.76
  -4   0  12   55.16    5.95
  -4   0  12   47.11    5.76
  -4   0  11    1.24    0.53
  -4   0  11    2.73    1.61
  -4   0  10  122.29    9.35
  -4   0   9    1.62    0.60
   4   0  -9    0.73    0.67
  -4   0   9    1.67    1.09
  -4   0   8  377.47   26.40
   4   0  -8  355.34   24.85
  -4   0   8  316.33   22.60
  -4   0   7    2.38    0.85
   4   0  -7    0.96    0.56
  -4   0   7   -0.25    0.89
  -4   0   6   71.78    6.78
  -4   0   6   63.01    6.29
  -4   0   5    1.09    0.73
  -4   0   5    3.53    1.70
  -4   0   4    0.91    0.68
  -4   0   4    1.52    0.85
  -4   0   3    1.01    0.43
  -4   0   3    2.77    0.76
  -4   0   2  144.51   12.89
  -4   0   2  162.01   11.06
   4   0  -2  166.94   11.50
  -4   0   1    1.89    0.82
   4   0  -1   -0.36    0.87
  -4   0   0   87.64    6.27
   4   0   0  115.16    8.44
  -4   0  -1    3.76    1.28
   4   0   1    0.93    0.78
  -4   0  -2    7.22    1.67
   4   0   2   12.50    2.05
  -4   0  -3    3.28    1.42
   4   0   3    2.76    1.84
   4   0   4  272.34   15.53
   4   0   4  248.76   14.24
   4   0   5    1.35    1.75
   4   0   5    1.16    1.70
   4   0   6  827.32  160.72
   4   0   6  785.55   55.08
   4   0   7    3.11    1.09
   4   0   7    2.19    1.46
   4   0   8 1134.66  209.25
   4   0   8 1103.88   77.55
   4   0   9    1.05    1.05
   4   0   9    0.65    1.24
   4   0  10   37.55    5.92
   4   0  10   52.75    6.23
   4   0  11    1.95    1.00
   4   0  11    0.60    1.14
   4   0  12    1.90    1.46
   4   0  12    0.44    1.07
   4   0  13   -0.23    1.02
   4   0  13    2.69    1.33
   4   0  14   14.49    3.20
   4   0  14   13.76    2.90
   4   0  15    3.11    1.29
   4   0  16    5.02    1.69
   4   0  16    1.42    1.27
   4   0  17   -0.72    1.17
   4   0  17    2.74    1.33
   4   0  18   12.34    4.64
   4   0  18   24.40    6.62
  -4   1  20    1.41    1.36
  -4  -1  20    3.58    2.30
  -4   1  19   11.74    3.56
  -4  -1  19    6.14    2.48
  -4   1  18    3.89    2.05
  -4  -1  18    5.09    1.81
  -4   1  17    8.81    2.92
  -4  -1  17   11.52    3.49
  -4   1  16   16.25    3.39
  -4  -1  16   19.60    4.09
  -4   1  15   14.02    3.20
  -4  -1  15   13.04    3.23
  -4  -1  14   11.76    2.41
  -4   1  14   16.68    3.76
  -4  -1  14   23.19    5.13
  -4  -1  13    8.15    1.25
  -4   1  13    8.31    1.90
  -4  -1  13   13.89    2.46
  -4   1  12  231.76   16.80
  -4  -1  12  227.93   16.73
  -4   1  12  219.70   16.67
  -4  -1  12  229.12   17.39
  -4   1  11   18.29    2.30
  -4   1  11   16.40    2.56
  -4  -1  11   18.72    2.83
  -4   1  10  142.95   10.20
  -4  -1  10  148.25   10.76
   4   1 -10  125.86    9.18
  -4   1  10  122.69    9.42
  -4  -1  10  132.97   10.19
  -4  -1   9  287.06   15.68
   4   1  -9  254.92   13.91
   4  -1  -9  256.37   13.81
  -4   1   9  242.51   13.83
  -4  -1   9  288.90   16.32
  -4   1   8    9.00    1.70
  -4   1   8   12.47    2.30
  -4  -1   8   12.88    2.55
   4   1  -8   11.99    2.38
  -4   1   8   14.59    3.37
  -4  -1   8    7.43    1.92
  -4   1   7  305.20   21.36
  -4  -1   7  272.95   19.26
   4   1  -7  214.97   15.20
  -4   1   7  253.55   18.25
  -4  -1   7  232.58   16.77
  -4   1   6    0.43    0.22
  -4  -1   6   -0.70    0.66
  -4   1   6    0.42    0.48
   4   1  -6    1.15    0.76
  -4   1   6    3.46    1.13
  -4  -1   6    3.42    1.55
  -4   1   5  119.29    8.99
  -4  -1   5  149.25    8.56
  -4   1   5  131.29    7.41
   4   1  -5  119.62    6.93
  -4   1   5  116.95    7.07
  -4   1   4   46.95    5.98
  -4  -1   4   56.50    5.47
  -4   1   4   63.07    5.98
   4   1  -4   50.88    4.94
  -4   1   4   45.34    4.57
  -4   1   3    0.48    0.33
  -4  -1   3    1.83    0.69
  -4   1   3    3.09    1.01
   4   1  -3    2.64    1.22
  -4   1   2   13.00    2.50
  -4  -1   2   14.57    1.71
  -4   1   2   22.67    2.34
   4   1  -2   21.20    3.70
  -4   1   1    2.84    0.66
  -4  -1   1    3.15    0.84
  -4   1   1    1.43    0.68
   4  -1  -1    0.69    0.74
   4   1  -1    1.47    0.78
  -4  -1   0   26.79    4.96
  -4   1   0   30.42    2.55
   4  -1   0   35.90    4.87
   4   1   0   39.99    5.50
  -4  -1  -1   58.76    4.51
  -4   1  -1   54.38    4.20
   4  -1   1   57.01    4.31
   4   1   1   63.25    9.27
   4  -1   2  690.72   37.62
  -4  -1  -2  540.27   29.57
   4  -1   2  656.96   35.63
   4   1   2  622.47   34.22
   4  -1   3    5.78    1.95
  -4  -1  -3    5.65    2.00
   4  -1   3    3.22    0.91
   4   1   3    3.93    1.58
   4  -1   4  494.55   27.46
  -4  -1  -4  424.81   23.57
   4  -1   4  464.72   26.02
   4   1   4  467.67   26.46
   4  -1   5   27.15    4.03
  -4  -1  -5   12.80    2.64
   4  -1   5   24.47    4.39
   4   1   5   25.06    4.21
   4  -1   6   13.60    3.46
  -4  -1  -6   13.44    2.77
   4  -1   6   14.44    3.64
   4   1   6   18.21    2.24
   4   1   7  125.65    7.96
   4  -1   7  144.10   13.85
   4   1   7  118.97    7.26
   4  -1   7  109.90    7.03
   4   1   8    1.86    1.45
   4  -1   8    2.76    1.24
   4   1   8    1.53    1.23
   4  -1   8    2.48    1.20
   4   1   9  440.88   32.49
   4  -1   9  444.39   32.99
   4   1   9  437.32   32.07
   4  -1   9  440.26   32.16
   4   1  10    1.10    1.13
   4  -1  10    2.94    1.50
   4   1  10    6.53    2.01
   4  -1  10    2.14    1.60
   4   1  11   45.09    4.70
   4  -1  11   39.08    4.93
   4   1  11   60.07    5.93
   4  -1  11   46.59    4.71
   4   1  12   15.60    3.51
   4  -1  12   12.05    3.03
   4   1  12   19.91    4.21
   4  -1  12   20.93    4.25
   4   1  13   11.27    2.71
   4  -1  13   13.28    2.97
   4  -1  13   13.97    3.13
   4   1  13   17.56    3.95
   4   1  14    6.13    2.60
   4  -1  14    2.74    1.03
   4   1  14    9.30    2.36
   4  -1  14    2.50    1.15
   4   1  15    0.96    1.24
   4  -1  15    1.91    1.14
   4   1  15    3.16    1.32
   4  -1  15    1.59    1.10
   4   1  16   16.41    4.17
   4  -1  16    9.30    3.45
   4   1  16   28.77    6.83
   4  -1  16   19.16    4.72
   4   1  17    4.82    2.34
   4  -1  17    3.52    1.73
   4  -1  17    2.55    1.20
   4   1  17    3.57    2.00
   4   1  18    7.90    2.81
   4  -1  18    5.23    2.13
   4   1  18   10.84    3.69
   4  -1  18    7.63    2.88
  -4   2  20   17.52    5.16
  -4  -2  20    9.47    3.20
  -4   2  19    2.17    1.37
  -4  -2  19    2.81    1.68
  -4   2  18    3.06    1.58
  -4  -2  18    2.53    1.66
  -4   2  17   40.06    4.79
  -4  -2  17   45.78    5.46
  -4   2  16    3.38    1.85
  -4  -2  16    2.02    1.71
  -4  -2  15    4.90    1.31
  -4   2  15    9.41    2.62
  -4  -2  15   11.95    2.95
  -4  -2  14   19.73    3.91
  -4   2  14   19.96    4.35
  -4  -2  14   20.81    4.50
  -4  -2  13   35.04    5.85
  -4   2  13   47.24    5.03
  -4  -2  13   51.97    5.30
  -4  -2  12   29.23    3.23
  -4   2  12   34.00    4.04
  -4  -2  12   34.57    4.15
  -4   2  11   18.34    1.98
  -4  -2  11   26.03    3.11
  -4   2  11   26.12    3.45
  -4  -2  11   24.69    3.29
  -4   2  10   11.11    2.31
  -4   2  10   14.04    1.70
  -4  -2  10   13.78    2.03
  -4   2  10   16.85    2.67
  -4  -2  10   12.94    2.19
  -4   2   9  182.78   10.14
  -4   2   9  182.01    9.76
  -4  -2   9  177.24   10.02
  -4   2   9  165.04    9.78
  -4  -2   9  171.62   10.13
  -4   2   8  102.24    7.49
  -4  -2   8   99.62    7.44
  -4   2   8   98.80    7.61
  -4  -2   8  110.14    8.43
  -4   2   7   91.01    7.15
  -4  -2   7   93.86    7.04
  -4   2   7  103.00    7.34
  -4   2   7   78.41    6.15
  -4  -2   7   81.61    6.49
  -4  -2   6  199.72   11.27
  -4   2   6  227.11   12.41
  -4   2   6  222.20   12.69
  -4   2   5   75.15   13.07
  -4  -2   5   67.94    6.53
  -4   2   5   80.25    4.65
  -4   2   5   65.58    6.40
  -4   2   4   97.38    6.75
  -4  -2   4   89.56    5.51
  -4   2   4   97.61    5.61
  -4   2   4   88.62    5.46
  -4   2   3  159.62    9.18
  -4  -2   3  164.23    9.44
  -4   2   3  180.77   10.09
   4   2  -3  188.14   11.71
  -4   2   3  158.09    9.11
  -4   2   2   10.64    1.73
  -4  -2   2   12.77    1.64
  -4   2   2   14.89    1.66
   4   2  -2   16.90    3.14
  -4   2   1  116.54    8.02
  -4  -2   1  112.26    7.97
  -4   2   1  130.93    9.01
   4   2  -1  126.03   10.47
  -4  -2   0   15.62    2.01
   4  -2   0   24.31    4.79
   4   2   0   21.37    4.22
   4  -2   1    0.85    0.80
  -4  -2  -1    5.41    1.60
   4  -2   1    3.38    1.25
   4   2   1    4.71    1.52
   4  -2   2   34.06    4.76
  -4  -2  -2   23.10    2.70
   4  -2   2   31.38    4.95
   4   2   2   24.89    4.20
   4  -2   3  255.64   14.53
  -4  -2  -3  208.10   11.99
   4  -2   3  258.18   14.36
   4   2   3  251.04   14.27
   4  -2   4  417.97   23.64
  -4  -2  -4  373.02   20.85
   4  -2   4  393.73   22.16
   4   2   4  412.62   23.39
   4  -2   5  289.27   22.96
  -4  -2  -5  235.63   17.11
   4  -2   5  274.48   19.49
   4   2   5  264.88   19.01
   4  -2   6  263.58   19.48
  -4  -2  -6  205.62   15.05
   4  -2   6  223.95   16.27
   4   2   6  241.27   17.40
   4  -2   7   22.19    3.90
  -4  -2  -7   15.79    2.61
   4  -2   7   25.98    3.53
   4   2   7   21.93    3.08
   4  -2   8    0.93    1.52
  -4  -2  -8    1.69    1.18
   4  -2   8    5.95    1.85
   4   2   8    5.55    2.17
   4  -2   9   34.15    6.03
  -4  -2  -9   30.16    4.06
   4  -2   9   25.32    3.11
   4   2   9   23.70    3.49
   4  -2  10  119.31   17.98
  -4  -2 -10   99.69    8.54
   4  -2  10  116.47    9.41
   4   2  10  118.92    9.78
   4  -2  11   41.83    6.15
  -4  -2 -11   31.34    5.62
   4   2  11   40.43    4.24
   4  -2  11   42.80    4.34
   4  -2  12   80.63   11.01
   4   2  12  116.26   11.08
   4  -2  12  111.02   10.46
   4  -2  13   78.46    9.97
   4   2  13  110.95   11.03
   4  -2  14    1.35    0.83
   4  -2  14    2.58    1.48
   4   2  14    1.25    1.31
   4  -2  15   14.13    3.67
   4  -2  15   15.32    3.52
   4   2  15   28.87    4.09
   4  -2  16    3.79    1.52
  -4  -2 -16    1.61    1.57
   4   2  16    5.82    2.20
   4  -2  16    1.80    1.24
   4  -2  17    2.89    1.58
  -4  -2 -17    3.09    1.72
   4   2  17    0.72    1.26
   4  -2  17    0.16    1.22
   4  -2  18    3.47    2.71
  -4  -2 -18    7.94    3.31
   4  -2  18    3.06    1.89
   4   2  18    7.51    2.97
  -4   3  19   11.26    3.64
  -4  -3  19   12.49    2.43
  -4  -3  18    2.05    1.75
  -4   3  17    3.38    1.41
  -4  -3  17    2.93    1.47
  -4  -3  16   24.21    1.84
  -4   3  16   22.93    4.46
  -4  -3  16   30.23    4.26
  -4  -3  15   35.22    3.85
  -4   3  15   33.79    4.18
  -4  -3  15   53.39    5.92
  -4  -3  14   37.53    3.92
  -4   3  14   35.58    4.10
  -4  -3  14   63.66    6.73
  -4  -3  13   19.97    3.61
  -4   3  13   24.78    4.76
  -4  -3  13   23.46    4.40
  -4  -3  12   44.28    4.76
  -4   3  12   53.51    5.23
  -4  -3  12   55.04    5.28
  -4  -3  11  123.85    9.49
  -4   3  11  124.60    9.89
  -4  -3  11  158.67   12.36
  -4  -3  10   42.99    5.36
  -4   3  10   44.79    5.82
  -4  -3  10   60.19   11.57
  -4  -3   9   79.46    5.03
  -4   3   9   85.22    5.68
  -4  -3   9   72.39    5.00
  -4  -3   8  140.25    8.15
  -4   3   8  156.37    9.20
  -4  -3   8  144.13    8.75
  -4   3   7   52.98    4.35
  -4  -3   7   49.26    4.52
  -4   3   7   43.64    4.12
  -4  -3   7   48.29    4.69
  -4   3   6    9.06    1.67
  -4  -3   6    7.57    1.61
  -4   3   6    9.73    1.76
  -4   3   6    8.08    1.88
  -4  -3   5  652.54   35.46
  -4   3   5  733.85   39.37
  -4   3   5  682.39   37.10
  -4   3   4   12.38    1.98
  -4  -3   4   12.34    1.71
  -4   3   4   15.69    1.70
   4   3  -4   15.43    2.24
  -4   3   4   14.90    1.90
  -4   3   3  269.18   14.80
  -4  -3   3  219.70   12.40
  -4   3   3  277.85   15.22
   4   3  -3  289.28   16.29
  -4   3   3  253.82   14.16
  -4   3   2    6.71    1.72
  -4  -3   2    5.67    1.37
  -4   3   2   11.92    1.47
   4   3  -2   15.39    2.91
  -4   3   2    8.61    1.88
   4  -3  -1    6.60    1.45
  -4   3   1    7.81    1.63
  -4  -3   1    4.53    1.30
   4   3  -1   11.20    1.90
  -4   3   1    4.53    1.03
   4  -3   0   22.88    4.05
  -4  -3   0    9.62    2.04
   4  -3   0   20.23    2.30
   4   3   0   16.37    2.59
  -4   3   0   10.91    2.27
   4  -3   1   56.38    9.60
  -4  -3  -1   42.93    4.45
   4  -3   1   46.41    6.08
   4   3   1   50.51    7.42
  -4   3  -1   41.35    4.06
   4  -3   2    9.20    2.56
  -4  -3  -2    9.80    2.19
   4  -3   2    7.81    1.78
   4   3   2   10.48    2.57
  -4   3  -2    8.32    1.69
   4  -3   3   65.97   11.02
  -4  -3  -3   50.92    5.23
   4  -3   3   62.76    9.44
   4   3   3   56.27    8.42
  -4   3  -3   45.15    4.41
   4  -3   4   26.71    3.96
  -4  -3  -4   23.24    2.75
   4  -3   4   25.72    4.20
   4   3   4   23.33    4.13
  -4   3  -4   20.34    2.07
   4  -3   5   88.34   12.36
  -4  -3  -5   69.62    6.33
   4  -3   5   91.29    9.68
   4   3   5   90.74   12.92
   4  -3   6   42.77    7.49
  -4  -3  -6   32.14    4.47
   4  -3   6   42.79    6.34
   4   3   6   39.08    5.28
   4  -3   7   89.79   11.44
  -4  -3  -7   73.59    5.20
   4  -3   7   87.86   11.11
   4   3   7   85.23    5.95
   4  -3   8   54.52    9.68
  -4  -3  -8   49.32    6.49
   4  -3   8   43.89    5.66
   4   3   8   57.42   11.07
   4  -3   9   78.81   10.55
  -4  -3  -9   79.11    6.90
   4  -3   9   69.94    5.64
   4   3   9   67.69    5.93
   4  -3  10   29.59    5.96
  -4  -3 -10   27.99    3.78
   4  -3  10   29.87    3.44
   4   3  10   22.95    3.08
   4  -3  11  126.26   16.96
  -4  -3 -11  115.85   10.50
   4   3  11  123.89   11.16
   4  -3  11  115.66   10.15
   4  -3  12   22.92    6.73
  -4  -3 -12   11.37    2.85
   4  -3  12   14.65    3.14
   4   3  12   14.02    3.40
   4  -3  13   27.43    6.68
  -4  -3 -13   36.86    4.62
   4   3  13   40.49    4.82
   4  -3  13   32.44    3.81
   4  -3  14   16.06    5.02
  -4  -3 -14    8.43    2.65
   4  -3  14    6.88    2.09
   4   3  14    7.12    2.22
   4  -3  15    2.69    0.86
  -4  -3 -15    7.15    2.93
   4   3  15    7.34    2.79
   4  -3  15    3.49    1.88
   4  -3  16    3.45    1.17
  -4  -3 -16    4.01    2.25
   4   3  16    3.70    1.57
   4  -3  16    3.29    1.32
   4  -3  17    3.14    1.22
  -4  -3 -17    3.04    1.72
   4   3  17    6.02    2.56
   4  -3  17    7.26    2.66
  -4   4  19    0.60    1.14
  -4  -4  19    2.25    1.65
  -4  -4  18    6.56    2.70
  -4   4  17   45.65    5.36
  -4  -4  17   51.92    6.20
  -4  -4  16    0.61    0.68
  -4   4  16    1.82    1.16
  -4  -4  16    0.72    1.48
  -4  -4  15    2.80    0.86
  -4   4  15    2.33    1.34
  -4  -4  15    1.41    1.48
  -4  -4  14   11.20    2.57
  -4   4  14   11.60    2.76
  -4  -4  14   18.87    4.12
  -4  -4  13   84.71    7.61
  -4   4  13   85.89    8.05
  -4  -4  13  107.83    9.83
  -4  -4  12    4.30    1.79
  -4   4  12    6.45    2.58
  -4  -4  12    2.43    1.68
  -4  -4  11  191.14   14.34
  -4   4  11  222.60   16.85
  -4  -4  11  259.75   19.61
  -4  -4  10   53.91    6.06
  -4   4  10   60.63    5.24
  -4  -4  10   69.71    6.04
  -4  -4   9   16.75    2.62
  -4   4   9    9.95    2.54
  -4  -4   9   17.33    2.80
  -4  -4   8    7.80    2.01
  -4  -4   8    8.98    2.29
  -4  -4   7    1.81    0.90
  -4   4   7    1.79    1.16
  -4   4   6   57.00    4.67
  -4  -4   6   47.90    4.39
  -4   4   6   51.74    4.71
  -4   4   5   25.43    2.27
  -4  -4   5   22.67    2.52
  -4   4   5   23.69    2.10
  -4   4   5   16.43    1.95
  -4  -4   4   20.93    2.49
  -4   4   4   29.40    2.92
   4   4  -4   36.48    4.84
  -4   4   4   22.41    2.48
  -4   4   3    4.80    1.15
  -4  -4   3    7.50    1.73
  -4   4   3    4.48    0.98
   4   4  -3    5.47    2.12
  -4   4   3    3.69    0.90
   4  -4  -2    1.22    0.56
  -4   4   2    1.33    0.72
   4   4  -2    0.73    0.81
  -4   4   2    1.18    0.63
  -4   4   2    1.53    0.83
   4  -4  -1    7.75    1.88
  -4   4   1    7.19    1.57
  -4  -4   1    7.09    1.66
   4   4  -1    9.43    2.15
  -4   4   1    3.40    1.33
  -4   4   1    6.71    1.37
   4  -4   0   29.13    5.32
  -4  -4   0   21.16    2.71
   4   4   0   22.56    3.58
  -4   4   0   16.62    3.50
   4  -4   1   86.48    6.93
  -4  -4  -1   74.72   13.05
   4   4   1   81.13    9.80
  -4   4  -1   69.36    6.55
   4  -4   2   20.58    4.12
  -4  -4  -2   17.82    2.35
   4  -4   2   16.12    2.81
   4   4   2   22.63    4.09
  -4   4  -2   15.87    1.82
   4  -4   3  253.41   18.46
  -4  -4  -3  220.41   16.04
   4  -4   3  244.16   17.32
   4   4   3  261.75   18.87
   4  -4   4    5.05    1.93
  -4  -4  -4    1.14    1.04
   4  -4   4    7.46    2.01
   4   4   4    2.81    0.87
  -4   4  -4    5.89    1.31
   4  -4   5    4.11    1.86
  -4  -4  -5    1.99    1.06
   4  -4   5    0.92    0.51
   4   4   5    3.95    1.46
  -4   4  -5    0.71    0.61
   4  -4   6    5.62    2.15
  -4  -4  -6    2.99    1.62
   4  -4   6    1.61    0.89
   4   4   6    4.18    2.37
  -4   4  -6    0.70    0.49
   4  -4   7   15.94    3.09
  -4  -4  -7    9.50    2.46
   4  -4   7   14.03    2.74
   4   4   7    8.07    2.20
   4  -4   8    3.96    1.33
  -4  -4  -8    2.19    1.45
   4  -4   8    1.46    0.96
   4  -4   9    5.48    1.56
  -4  -4  -9    5.30    2.39
   4  -4   9    1.01    0.65
   4   4   9    4.94    2.00
   4  -4  10   90.61   10.34
  -4  -4 -10   76.74    6.91
   4  -4  10   70.77    5.86
   4   4  10   72.70    6.51
   4  -4  11   39.35    5.59
  -4  -4 -11   35.79    8.33
   4  -4  11   21.22    3.79
   4   4  11   33.33    5.95
   4  -4  12   15.78    3.86
  -4  -4 -12   21.21    4.66
   4   4  12   15.76    3.56
   4  -4  12   16.84    3.41
   4  -4  13   20.43    5.16
  -4  -4 -13   27.22    5.08
   4  -4  13   22.13    3.99
   4   4  13   25.50    4.78
   4  -4  14    2.86    1.01
  -4  -4 -14    4.72    1.97
   4   4  14    3.41    2.32
   4  -4  14    0.83    0.79
   4  -4  15    4.82    1.75
  -4  -4 -15    5.08    2.50
   4   4  15    5.19    2.15
   4  -4  15    3.69    1.30
   4  -4  16    2.13    1.38
  -4  -4 -16    2.77    1.53
   4   4  16    5.80    2.35
   4  -4  16    1.95    1.24
   4  -4  17   21.39    6.61
  -4  -4 -17   38.05    8.10
   4   4  17   38.95    8.26
  -4   5  19   20.36    5.84
  -4  -5  19   20.50    5.87
  -4   5  18   16.55    4.58
  -4  -5  18   22.77    5.14
  -4  -5  17    0.12    0.84
  -4   5  17    7.43    2.41
  -4  -5  17    1.32    1.61
  -4  -5  16    3.13    1.47
  -4   5  16    3.45    1.60
  -4  -5  16    3.20    1.80
  -4  -5  15    6.86    2.38
  -4   5  15    7.43    2.77
  -4  -5  15   13.31    3.00
  -4  -5  14    1.48    1.04
  -4   5  14    2.46    1.34
  -4  -5  14    3.14    1.69
  -4  -5  13    8.20    1.94
  -4   5  13   11.18    2.52
  -4  -5  13   10.40    2.96
  -4  -5  12    6.89    1.92
  -4   5  12    0.07    1.14
  -4  -5  12    8.23    2.19
  -4  -5  11   22.57    2.88
  -4   5  11   21.83    2.93
  -4  -5  11   20.51    3.34
  -4  -5  10    0.86    1.29
  -4   5  10   -1.24    1.17
  -4  -5  10    3.40    2.09
  -4  -5   9  126.34    9.62
  -4   5   9  136.12   10.33
  -4  -5   9  144.80   11.13
  -4  -5   8   26.66    3.73
  -4   5   8   41.27    5.34
  -4  -5   8   45.56    5.99
  -4  -5   7  194.36   11.18
  -4   5   7  198.00   11.34
  -4   5   6   33.93    3.89
  -4  -5   6   34.84    4.45
  -4   5   6   36.00    4.13
  -4   5   6   34.23    4.31
  -4   5   5    1.02    0.41
  -4  -5   5    2.13    0.96
   4   5  -5    3.21    1.31
  -4   5   5    1.33    0.75
  -4   5   4   92.89    6.71
  -4  -5   4   77.49    6.08
  -4   5   4   98.78    7.10
   4   5  -4  106.79   12.87
  -4   5   4   93.14    6.96
   4  -5  -3    2.76    0.86
  -4   5   3    1.02    0.71
  -4  -5   3   -0.98    0.81
   4   5  -3    0.16    0.74
  -4   5   3    2.98    1.01
   4  -5  -2   32.58    4.96
  -4   5   2   22.16    2.18
  -4  -5   2   21.69    2.41
   4   5  -2   41.24    6.42
  -4   5   2   20.15    3.29
  -4   5   2   32.37    3.07
   4  -5  -1   98.59    7.25
  -4   5   1   77.25    5.80
  -4  -5   1   83.50    6.69
   4   5  -1  130.61   15.53
  -4   5   1   90.78    6.93
  -4   5   1   90.10    6.62
   4  -5   0    7.67    1.72
  -4  -5   0    4.49    1.66
   4   5   0    8.92    2.20
  -4   5   0    2.68    0.76
  -4   5   0    6.36    1.38
   4  -5   1  320.06   22.93
  -4  -5  -1  276.29   19.87
   4   5   1  306.06   21.91
   4  -5   2    8.02    1.98
  -4  -5  -2    5.58    1.60
   4   5   2    2.81    0.98
  -4   5  -2    3.02    0.77
   4  -5   3    1.30    1.16
  -4  -5  -3    2.42    1.49
   4  -5   3    0.56    0.37
   4   5   3    3.13    1.40
  -4   5  -3    0.74    0.42
   4  -5   4   16.00    3.01
  -4  -5  -4   23.02    3.43
   4  -5   4   15.42    3.15
   4   5   4   15.48    3.20
  -4   5  -4   11.99    1.60
   4  -5   5  726.37   39.29
  -4  -5  -5  703.80   38.25
   4  -5   5  766.19  152.16
   4   5   5  779.09  154.92
  -4   5  -5  647.20   34.51
   4  -5   6   14.27    3.11
  -4  -5  -6    8.52    2.33
   4  -5   6   11.32    2.86
   4   5   6    9.34    2.67
  -4   5  -6    6.85    1.57
   4  -5   7   82.64   11.37
  -4  -5  -7   77.45    6.61
   4  -5   7   81.47    7.65
   4   5   7   76.34    6.38
   4  -5   8   45.91    6.76
  -4  -5  -8   41.17    5.31
   4  -5   8   28.60    5.76
   4   5   8   27.60    3.62
   4  -5   9    5.18    2.05
  -4  -5  -9    1.61    1.66
   4  -5   9    2.80    1.13
   4   5   9    1.29    1.89
   4  -5  10   27.43    5.64
  -4  -5 -10   34.49    6.19
   4  -5  10   30.75    5.25
   4   5  10   22.30    4.49
   4  -5  11   16.94    4.02
  -4  -5 -11   24.68    3.43
   4  -5  11   21.84    4.23
   4   5  11   29.19    3.70
   4  -5  12    4.12    1.97
  -4  -5 -12    7.43    2.38
   4  -5  12    3.28    1.15
   4   5  12    1.41    1.52
   4  -5  13    5.95    2.64
  -4  -5 -13    5.26    2.47
   4  -5  13    1.28    0.92
   4   5  13    6.48    2.71
   4  -5  14   18.79    4.06
  -4  -5 -14   13.51    3.42
   4  -5  14   11.22    2.71
   4   5  14   13.07    3.42
   4  -5  15    0.71    0.76
  -4  -5 -15    5.14    2.21
   4   5  15    2.80    1.44
   4  -5  16    5.05    2.40
  -4  -5 -16   15.81    4.60
   4   5  16    5.97    2.02
   4  -5  17    5.60    2.32
  -4  -5 -17    4.24    2.01
   4   5  17    1.58    1.51
  -4  -6  19    3.91    2.45
  -4  -6  18    5.61    1.90
  -4   6  18   10.85    3.43
  -4  -6  18    9.84    3.40
  -4  -6  17    7.77    2.09
  -4   6  17    5.23    2.09
  -4  -6  17    6.31    2.19
  -4  -6  16   19.68    2.80
  -4   6  16   23.19    3.63
  -4  -6  16   25.00    3.67
  -4  -6  15    3.39    1.53
  -4   6  15    2.91    1.66
  -4  -6  15    7.99    2.43
  -4  -6  14    7.31    2.50
  -4   6  14    3.67    1.77
  -4  -6  14    2.47    1.51
  -4  -6  13   17.34    3.56
  -4   6  13   16.02    3.59
  -4  -6  13   17.97    4.13
  -4  -6  12   12.34    2.60
  -4   6  12   10.24    2.25
  -4  -6  12   17.92    3.77
  -4  -6  11  104.19    8.54
  -4   6  11  114.02    9.43
  -4  -6  11  132.39   10.91
  -4  -6  10    1.93    1.14
  -4   6  10    8.06    2.05
  -4  -6  10    4.65    1.75
  -4  -6   9    6.55    2.13
  -4   6   9    3.23    1.86
  -4  -6   9    6.92    2.43
  -4  -6   8    8.27    2.49
  -4   6   8    3.79    1.81
  -4  -6   8    5.43    1.83
  -4  -6   7    3.92    1.57
  -4   6   7    2.02    1.12
  -4  -6   6    3.88    1.40
  -4   6   6    4.68    1.81
  -4   6   5    1.60    0.46
  -4  -6   5    1.56    0.98
  -4   6   5    0.84    0.32
   4   6  -5    5.27    1.64
  -4   6   5    4.09    1.61
   4  -6  -4   12.22    1.61
  -4   6   4   10.72    1.51
  -4  -6   4   11.60    1.93
   4   6  -4   11.77    2.27
  -4   6   4   14.31    2.17
   4  -6  -3    1.41    0.69
  -4   6   3    0.55    0.48
  -4  -6   3    2.06    1.05
   4   6  -3    2.63    1.09
  -4   6   3    0.71    0.70
  -4   6   3    2.45    1.16
   4  -6  -2   81.83    6.13
  -4   6   2   76.57   15.00
  -4  -6   2   68.01    6.28
   4   6  -2   78.29    8.97
  -4   6   2   64.83    6.76
  -4   6   2   85.83    6.35
   4  -6  -1  126.68    9.94
  -4  -6   1  111.12    8.58
   4   6  -1  100.82    8.86
  -4   6   1  105.02    9.94
  -4   6   1  121.78    8.77
   4  -6   0    0.14    0.57
  -4  -6   0    1.27    0.99
   4   6   0    2.72    1.68
  -4   6   0    1.22    0.69
  -4   6   0    0.99    0.50
   4  -6   1  115.87    9.71
  -4  -6  -1  112.89    8.68
   4   6   1  125.24   13.28
  -4   6  -1  103.45    7.45
  -4   6  -1  116.52    8.35
   4  -6   2   59.70   10.85
  -4  -6  -2   46.01    5.81
   4   6   2   61.92    9.40
  -4   6  -2   47.17    5.54
  -4   6  -2   55.71    6.51
   4  -6   3  292.40   16.56
  -4  -6  -3  261.60   14.91
   4   6   3  291.45   17.06
  -4   6  -3  264.57   14.29
   4  -6   4   71.10    8.49
  -4  -6  -4   48.22    6.14
   4  -6   4   60.52    8.14
   4   6   4   70.13    8.21
  -4   6  -4   57.21    6.67
   4  -6   5    7.18    2.00
  -4  -6  -5    5.01    2.01
   4  -6   5    5.67    1.63
   4   6   5    5.08    1.60
  -4   6  -5    3.29    0.83
   4  -6   6   28.03    4.84
  -4  -6  -6   29.02    4.30
   4  -6   6   20.66    3.83
   4   6   6   25.57    3.75
  -4   6  -6   16.93    2.19
   4  -6   7   17.57    4.51
  -4  -6  -7   22.32    3.35
   4  -6   7   12.86    2.60
   4   6   7   16.16    2.64
   4  -6   8    3.95    1.91
  -4  -6  -8    1.43    1.47
   4  -6   8    2.81    1.03
   4   6   8    4.98    2.40
   4  -6   9   34.92    7.44
  -4  -6  -9   40.46    4.50
   4  -6   9   32.96    6.97
   4   6   9   44.73    5.39
   4  -6  10    6.46    2.96
  -4  -6 -10    6.56    2.43
   4  -6  10    2.75    0.95
   4   6  10    6.03    2.40
   4  -6  11    9.91    2.94
  -4  -6 -11    7.84    2.81
   4  -6  11    4.59    1.20
   4   6  11    8.45    2.50
   4  -6  12    6.50    3.24
  -4  -6 -12    7.54    3.23
   4   6  12   10.22    2.70
   4  -6  13   23.63    3.85
  -4  -6 -13   24.58    2.61
   4   6  13   21.39    2.57
   4  -6  14    5.83    2.74
  -4  -6 -14    6.07    2.96
   4   6  14    6.06    3.49
   4  -6  15   22.48    7.31
  -4  -6 -15   26.89    6.03
   4   6  15   16.21    4.45
   4  -6  16   12.55    3.85
  -4  -6 -16   19.30    4.62
   4   6  16   19.24    4.68
  -4  -7  18    0.64    0.91
  -4   7  18    4.78    2.47
  -4  -7  18    9.00    3.26
  -4  -7  17    3.80    1.35
  -4   7  17    4.15    2.04
  -4  -7  17    2.52    2.14
  -4  -7  16    5.30    1.70
  -4   7  16    7.33    2.02
  -4  -7  16   12.18    3.05
  -4  -7  15    9.15    2.42
  -4   7  15    7.56    2.27
  -4  -7  15   13.28    3.44
  -4  -7  14   37.15    4.34
  -4   7  14   48.88    5.62
  -4  -7  14   55.16    6.17
  -4  -7  13    1.36    0.92
  -4   7  13    2.32    1.48
  -4  -7  13    4.49    1.82
  -4  -7  12   12.37    2.90
  -4   7  12    9.91    2.32
  -4  -7  12   16.98    4.31
  -4  -7  11   36.57    8.20
  -4   7  11   48.10    4.87
  -4  -7  11   39.42    4.30
  -4  -7  10   88.25    7.52
  -4   7  10   83.27    7.12
  -4  -7  10  101.27    8.47
  -4  -7   9  144.94   11.66
  -4   7   9  143.04   11.43
  -4  -7   9  175.38   14.02
  -4  -7   8    3.85    1.70
  -4   7   8    4.21    1.88
  -4  -7   7  179.06   13.36
  -4   7   7  178.08   13.12
  -4  -7   6   10.17    2.57
  -4   7   6    8.00    2.09
  -4   7   5   69.06    5.03
  -4  -7   5   74.80    6.15
   4   7  -5   79.22    6.46
  -4   7   5   78.32    6.07
   4  -7  -4   76.02    4.89
  -4   7   4   76.77    4.46
  -4  -7   4   68.17    4.68
   4   7  -4   71.01    7.39
  -4   7   4   74.28    4.59
   4  -7  -3   43.50    6.35
  -4   7   3   40.52    4.84
  -4  -7   3   39.65    5.20
   4   7  -3   35.93    5.27
  -4   7   3   23.87    4.47
  -4   7   3   40.37    4.90
   4  -7  -2  138.33    8.21
  -4   7   2  125.65    7.18
  -4  -7   2  127.43    7.88
   4   7  -2  149.66   13.18
  -4   7   2  114.29    8.71
  -4   7   2  163.31    9.12
   4  -7  -1   52.26    9.17
  -4  -7   1   36.54    4.72
   4   7  -1   44.39    7.01
  -4   7   1   38.01    4.94
  -4   7   1   52.31    6.16
   4  -7   0  150.90    8.85
  -4  -7   0  146.93    8.92
   4   7   0  130.42   10.39
  -4   7   0  130.38    8.95
   4  -7   1    2.55    1.13
  -4  -7  -1    4.42    1.87
   4   7   1    2.59    1.16
  -4   7  -1    1.69    0.65
  -4   7  -1    2.00    0.70
   4  -7   2    0.79    0.90
  -4  -7  -2    2.41    1.25
   4   7   2    1.68    0.88
  -4   7  -2    0.53    0.38
  -4   7  -2    1.78    0.58
   4  -7   3   20.91    3.85
  -4  -7  -3   12.63    2.23
   4   7   3    8.90    2.32
  -4   7  -3   13.27    1.67
  -4   7  -3   17.73    2.21
   4  -7   4   14.48    2.47
  -4  -7  -4   11.98    2.44
   4   7   4   10.44    2.76
  -4   7  -4    7.16    1.53
   4  -7   5   99.49   13.85
  -4  -7  -5  103.46    8.45
   4   7   5   86.22    9.19
   4  -7   6  185.91   14.21
  -4  -7  -6  173.48   13.70
   4   7   6  169.02   13.34
   4  -7   7   97.50   10.29
  -4  -7  -7   90.75    7.92
   4   7   7  100.50    8.79
   4  -7   8   28.27    6.43
  -4  -7  -8   26.09    4.85
   4  -7   8   17.09    3.74
   4   7   8   20.65    4.13
   4  -7   9  120.80   14.19
  -4  -7  -9  147.91   13.18
   4   7   9  116.13   10.62
   4  -7  10   41.78    6.95
  -4  -7 -10   52.79    5.88
   4   7  10   45.85    5.18
   4  -7  11   99.64   14.71
  -4  -7 -11   83.63    8.66
   4   7  11   96.20    9.82
   4  -7  12    4.97    2.92
  -4  -7 -12   11.27    3.18
   4   7  12    9.92    3.38
   4  -7  13    2.19    1.07
  -4  -7 -13    4.16    2.06
   4   7  13    5.87    2.85
   4  -7  14   11.76    3.79
  -4  -7 -14   10.25    2.70
   4   7  14   12.56    2.64
   4  -7  15    0.51    1.30
  -4  -7 -15    0.18    1.45
   4   7  15    5.35    1.87
   4  -7  16   11.61    4.30
   4   7  16    7.09    2.74
  -4  -8  18   23.19    6.27
  -4  -8  18   34.84    9.18
  -4  -8  17    3.73    1.48
  -4   8  17    2.92    1.81
  -4  -8  17    3.36    1.59
  -4  -8  16   25.44    5.64
  -4   8  16   31.63    6.87
  -4  -8  16   29.29    6.34
  -4  -8  15    1.79    1.20
  -4   8  15    7.95    2.43
  -4  -8  15    3.93    2.32
  -4  -8  14    2.63    1.14
  -4   8  14    3.76    1.92
  -4  -8  14    2.14    1.56
  -4  -8  13   12.09    2.73
  -4   8  13    4.91    2.04
  -4  -8  13    8.23    1.93
  -4  -8  12    5.51    1.56
  -4   8  12    7.76    2.05
  -4  -8  12   12.05    3.16
  -4  -8  11   10.60    2.53
  -4   8  11   12.36    2.75
  -4  -8  11   16.60    3.89
  -4  -8  10    4.04    1.85
  -4   8  10    2.44    1.18
  -4  -8  10   -0.21    1.25
  -4  -8   9   46.38    4.85
  -4   8   9   57.62    5.50
  -4  -8   9   73.39    6.97
  -4  -8   8   96.20    8.10
  -4   8   8   98.03    8.05
  -4  -8   7   56.53    6.53
  -4   8   7   73.74    6.01
  -4  -8   6  253.73   19.10
  -4   8   6  247.23   17.75
  -4   8   6  255.37   18.87
   4  -8  -5    6.13    1.58
  -4  -8   5    5.28    1.79
   4   8  -5   10.47    2.65
  -4   8   5    6.21    1.63
   4  -8  -4    0.80    0.52
  -4   8   4    1.60    0.68
  -4  -8   4    2.03    1.35
   4   8  -4    0.81    0.59
  -4   8   4    1.75    0.79
   4  -8  -3  130.90    9.86
  -4   8   3  118.65    8.68
  -4  -8   3  128.10    9.90
   4   8  -3  133.97   12.53
  -4   8   3  103.60    9.72
   4  -8  -2    8.83    2.41
  -4  -8   2    8.06    2.08
   4   8  -2    4.14    1.44
  -4   8   2    3.60    1.23
  -4   8   2    6.25    1.45
   4  -8  -1   20.37    3.74
  -4  -8   1   21.44    3.39
   4   8  -1   22.52    3.88
  -4   8   1   16.31    2.11
   4  -8   0   47.11    8.66
  -4  -8   0   52.53    6.70
   4   8   0   35.36    5.46
  -4   8   0   37.46    4.45
  -4   8   0   47.89    5.66
   4  -8   1   22.94    4.15
  -4  -8  -1   15.52    2.56
   4   8   1   15.92    2.92
  -4   8  -1   15.26    1.87
  -4   8  -1   17.66    2.15
   4  -8   2    2.97    1.13
  -4  -8  -2    0.53    1.14
   4   8   2    1.72    1.10
  -4   8  -2    0.53    0.24
  -4   8  -2    0.90    0.28
   4  -8   3   64.21   10.30
  -4  -8  -3   45.28    5.45
   4   8   3   55.11    8.15
   4  -8   4   16.56    3.15
  -4  -8  -4   15.46    2.47
   4   8   4   13.94    2.43
   4  -8   5    8.96    2.78
  -4  -8  -5   19.08    3.49
   4   8   5   11.83    2.44
   4  -8   6   90.81   12.38
  -4  -8  -6   95.71    8.32
   4   8   6   70.19   10.35
   4  -8   7    7.31    2.72
  -4  -8  -7    7.32    2.33
   4   8   7    7.45    2.46
   4  -8   8  343.99   29.39
  -4  -8  -8  361.26   78.04
   4   8   8  337.76   28.61
   4  -8   9   58.57    8.27
  -4  -8  -9   53.00    5.85
   4   8   9   51.16    5.57
   4  -8  10   54.80    9.42
  -4  -8 -10   43.20    5.14
   4   8  10   57.51    6.35
   4  -8  11   10.58    2.74
  -4  -8 -11   15.47    3.32
   4   8  11   11.80    3.16
   4  -8  12    5.32    2.37
  -4  -8 -12    4.22    2.36
   4   8  12    0.00    1.37
   4  -8  13   20.23    5.35
  -4  -8 -13   11.38    2.87
   4   8  13   14.64    4.26
   4  -8  14    6.57    2.94
  -4  -8 -14    2.35    1.62
   4   8  14    4.48    1.96
   4  -8  15    6.98    2.98
  -4  -8 -15   11.60    3.60
   4   8  15    4.13    1.74
  -4  -9  17    3.67    1.94
  -4   9  17    4.45    1.99
  -4  -9  17    5.96    2.73
  -4  -9  16   13.11    3.19
  -4   9  16   11.66    3.47
  -4  -9  16   15.69    3.90
  -4  -9  15    5.08    1.64
  -4   9  15    8.48    2.60
  -4  -9  15    8.81    2.58
  -4  -9  14   27.19    3.67
  -4   9  14   32.99    4.33
  -4  -9  14   40.70    4.97
  -4  -9  13    2.36    1.19
  -4   9  13    3.20    1.64
  -4  -9  13    3.09    1.67
  -4  -9  12   21.13    4.17
  -4   9  12   24.20    4.54
  -4  -9  12   19.65    3.81
  -4  -9  11    4.36    1.79
  -4   9  11    1.60    1.32
  -4  -9  11    3.73    1.50
  -4  -9  10  141.96   13.34
  -4   9  10  126.55   11.86
  -4  -9  10  153.12   14.41
  -4  -9   9    4.41    1.89
  -4   9   9    4.44    1.56
  -4  -9   9    4.18    1.68
  -4  -9   8  126.93   11.33
  -4   9   8  140.46   12.16
  -4  -9   7    6.56    1.55
  -4   9   7    5.57    1.78
  -4  -9   6   54.85    5.29
  -4   9   6   47.13    5.00
  -4  -9   5  287.89   21.58
   4   9  -5  273.70   22.84
  -4   9   5  273.95   20.08
   4  -9  -4   58.58   14.86
  -4  -9   4   58.80   14.27
   4   9  -4   57.66   14.59
  -4   9   4   55.31    6.09
   4  -9  -3   26.04    5.55
  -4  -9   3   23.00    3.12
   4   9  -3   25.46    4.13
  -4   9   3   21.00    2.56
   4  -9  -2    4.66    1.31
  -4  -9   2    6.38    1.77
   4   9  -2    2.12    0.67
   4  -9  -1   11.21    2.84
  -4  -9   1    7.28    2.02
   4   9  -1   15.03    2.33
  -4   9   1   11.17    1.39
   4  -9   0  139.18   11.08
  -4  -9   0  147.32   11.60
   4   9   0  140.53   18.34
  -4   9   0  140.37   10.16
   4  -9   1    3.45    1.26
  -4  -9  -1    4.60    1.99
   4   9   1    1.15    0.92
   4  -9   2  217.80   16.36
  -4  -9  -2  212.93   16.29
   4   9   2  175.94   14.04
   4  -9   3    9.95    2.44
  -4  -9  -3    3.91    1.52
   4   9   3   11.54    2.35
   4  -9   4  168.94   17.35
  -4  -9  -4  211.84   16.87
   4   9   4  167.95   18.27
   4  -9   5    2.34    2.18
  -4  -9  -5    3.00    2.27
   4   9   5    1.54    1.33
   4  -9   6   76.86   13.30
  -4  -9  -6   96.32    8.94
   4   9   6   65.85    9.86
   4  -9   7    4.34    1.67
  -4  -9  -7    8.70    2.69
   4   9   7    4.33    1.62
   4  -9   8    5.09    2.07
  -4  -9  -8    5.18    2.59
   4   9   8    3.76    1.72
   4  -9   9    0.99    1.13
  -4  -9  -9   -1.27    1.55
   4   9   9    0.88    1.47
   4  -9  10    6.42    2.71
  -4  -9 -10    4.37    1.96
   4   9  10    2.59    1.46
   4  -9  11   34.63    6.95
  -4  -9 -11   44.08    3.87
   4   9  11   33.70    3.59
   4  -9  12    8.62    2.48
  -4  -9 -12    1.81    1.47
   4   9  12    4.10    2.20
   4  -9  13   19.28    7.41
  -4  -9 -13   24.92    5.83
   4   9  13   25.01    5.67
   4  -9  14   40.96   11.93
  -4  -9 -14   74.37    4.88
   4   9  14   63.97   13.15
   4  -9  15    4.19    1.90
  -4  -9 -15    6.22    2.51
   4   9  15    2.71    1.77
  -4 -10  16    4.44    2.12
  -4  10  16   12.32    3.80
  -4 -10  16    8.00    2.76
  -4 -10  15    4.40    1.81
  -4  10  15    4.85    1.85
  -4 -10  15    4.08    1.98
  -4 -10  14    6.80    1.91
  -4  10  14    7.39    2.14
  -4 -10  14   11.98    2.93
  -4 -10  13    1.52    1.40
  -4  10  13    1.69    0.94
  -4 -10  13    0.89    1.42
  -4 -10  12    3.91    1.60
  -4  10  12    0.88    0.87
  -4 -10  12    2.78    1.38
  -4 -10  11    3.50    1.37
  -4  10  11    7.75    2.70
  -4 -10  11   12.90    2.73
  -4 -10  10    9.09    2.24
  -4  10  10   14.84    3.00
  -4 -10  10   21.23    4.21
  -4 -10   9    6.18    2.11
  -4  10   9    4.94    1.39
  -4 -10   9    2.93    1.50
  -4 -10   8   43.30    4.96
  -4  10   8   40.54    4.30
  -4 -10   7    6.28    2.07
  -4  10   7   -0.14    0.71
  -4 -10   6    1.24    1.27
  -4  10   6    2.15    1.17
   4 -10  -5    0.81    0.53
  -4 -10   5    4.77    1.83
   4  10  -5    3.42    1.72
  -4  10   5    0.88    0.59
   4 -10  -4   76.56    7.69
  -4 -10   4   71.64    6.31
   4  10  -4   71.25    9.27
  -4  10   4   85.26    6.84
   4 -10  -3  156.80   12.62
  -4 -10   3  124.07   10.24
   4  10  -3  154.84   18.93
  -4  10   3  168.75   12.85
   4 -10  -2   74.90    6.30
  -4 -10   2   60.25    5.48
   4  10  -2   85.78    9.37
  -4  10   2   76.28    5.92
   4 -10  -1   12.80    2.47
  -4 -10   1   10.74    2.03
   4  10  -1   14.38    2.59
   4 -10   0    7.65    1.50
  -4 -10   0    1.19    1.24
   4  10   0    5.83    2.01
   4 -10   1    8.40    1.94
  -4 -10  -1    7.27    1.79
   4  10   1    6.81    1.58
   4 -10   2    5.20    2.27
  -4 -10  -2   11.24    2.63
   4  10   2    2.07    1.35
   4 -10   3    5.83    1.98
  -4 -10  -3    7.32    2.17
   4  10   3    5.73    2.32
   4 -10   4  139.21   16.50
  -4 -10  -4  149.68   13.37
   4  10   4  120.50   13.90
   4 -10   5   13.01    3.43
  -4 -10  -5    9.64    2.56
   4  10   5    6.00    1.74
   4 -10   6   90.72   15.96
  -4 -10  -6   95.23    9.46
   4  10   6   70.10    9.26
   4 -10   7    2.44    1.56
  -4 -10  -7    3.49    1.87
   4  10   7    3.57    1.78
   4 -10   8   25.55    6.10
  -4 -10  -8   41.05    5.21
   4  10   8   34.13    4.29
   4 -10   9   28.04    7.39
  -4 -10  -9   23.82    4.60
   4  10   9   15.76    3.23
   4 -10  10    5.22    1.94
  -4 -10 -10    6.91    2.20
   4  10  10    4.95    2.23
   4 -10  11   28.15    4.81
  -4 -10 -11   26.99    3.74
   4  10  11   11.69    2.97
   4 -10  12    6.62    2.37
  -4 -10 -12    7.80    2.90
   4  10  12    4.81    1.93
   4 -10  13   11.80    3.52
  -4 -10 -13   13.97    3.83
   4  10  13   12.06    4.14
   4 -10  14   12.79    3.79
  -4 -10 -14    5.85    2.37
   4  10  14   16.09    4.95
  -4 -11  15    2.68    1.20
  -4  11  15    1.94    1.17
  -4 -11  15    5.27    1.95
  -4 -11  14    6.52    2.30
  -4  11  14   12.85    3.21
  -4 -11  14   11.77    3.51
  -4 -11  13   10.10    2.90
  -4  11  13   15.75    4.23
  -4 -11  13    6.20    1.94
  -4 -11  12   19.61    3.45
  -4  11  12   26.08    3.46
  -4 -11  12   43.50    5.30
  -4 -11  11    7.00    2.25
  -4  11  11    1.63    1.02
  -4 -11  11    3.28    1.25
  -4 -11  10   20.72    2.29
  -4  11  10   16.11    3.78
  -4 -11  10   16.99    4.11
  -4 -11   9    2.19    1.34
  -4  11   9    0.29    0.69
  -4 -11   9    6.80    2.71
  -4 -11   8    2.81    1.50
  -4  11   8    0.69    0.72
  -4 -11   7   31.14    3.86
  -4  11   7   29.05    5.46
  -4 -11   6    3.22    1.39
  -4  11   6    4.29    1.24
  -4 -11   5   67.77    7.05
   4  11  -5   77.80   11.65
  -4  11   5   81.33    7.60
  -4 -11   4    4.58    1.87
   4  11  -4    1.92    0.81
  -4  11   4    2.07    0.83
   4 -11  -3   12.95    3.23
  -4 -11   3   14.92    3.18
   4  11  -3   12.89    3.20
   4 -11  -2   11.12    2.88
  -4 -11   2   11.63    2.73
   4  11  -2   12.13    2.74
   4 -11  -1   12.56    3.04
  -4 -11   1    9.58    2.54
   4  11  -1   17.35    3.44
   4 -11   0   42.15    6.71
  -4 -11   0   46.76    4.98
   4  11   0   41.65    7.72
   4 -11   1   24.90    5.69
  -4 -11  -1   12.89    2.87
   4  11   1   28.60    5.30
   4 -11   2   43.69    6.79
  -4 -11  -2   54.63    5.92
   4  11   2   39.64    5.94
   4 -11   3   12.08    2.94
  -4 -11  -3    9.70    2.68
   4  11   3   13.03    3.26
   4 -11   4   47.10    6.66
  -4 -11  -4   48.76    5.64
   4  11   4   35.33    4.88
   4 -11   5    9.01    2.48
  -4 -11  -5    1.43    1.45
   4  11   5    6.59    2.51
   4 -11   6   19.58    5.06
  -4 -11  -6   26.07    5.54
   4  11   6   15.72    4.57
   4 -11   7   35.84    6.60
  -4 -11  -7   30.41    4.06
   4  11   7   24.21    5.66
   4 -11   8   12.31    3.66
  -4 -11  -8    4.74    2.41
   4  11   8   10.03    2.80
   4 -11   9    9.74    2.75
  -4 -11  -9   15.85    4.03
   4  11   9    9.97    2.72
   4 -11  10    5.28    2.39
  -4 -11 -10    5.17    2.22
   4  11  10    5.61    2.20
   4 -11  11    7.15    2.89
  -4 -11 -11   11.36    3.51
   4  11  11    5.09    1.75
   4 -11  12    4.72    2.62
  -4 -11 -12    6.68    2.75
   4  11  12    1.13    1.23
   4 -11  13   -0.16    1.65
  -4 -11 -13    1.79    1.67
   4  11  13    0.43    1.28
  -4 -12  14   14.96    4.36
  -4  12  14   13.52    4.05
  -4 -12  14    8.37    2.92
  -4 -12  13    1.41    1.32
  -4  12  13    0.69    1.08
  -4 -12  13    3.42    1.99
  -4 -12  12    3.04    1.83
  -4  12  12    6.80    2.27
  -4 -12  12    5.33    2.05
  -4 -12  11   12.22    2.87
  -4  12  11   18.00    4.30
  -4 -12  11   18.49    4.49
  -4 -12  10    3.84    2.00
  -4  12  10    3.18    1.09
  -4 -12  10    2.57    1.29
  -4 -12   9   79.98    4.21
  -4  12   9   83.08    3.38
  -4 -12   8   47.21    3.51
  -4  12   8   41.33    2.26
  -4 -12   7    2.98    1.37
  -4  12   7    1.10    0.61
  -4 -12   6    2.05    1.04
  -4 -12   5   68.72    7.23
   4  12  -5   49.83    9.34
  -4 -12   4   60.09    6.46
   4  12  -4   57.74    8.48
   4 -12  -3    1.53    0.47
  -4 -12   3   12.87    3.37
   4  12  -3    6.95    2.36
   4 -12  -2    1.67    0.78
  -4 -12   2   -0.70    1.35
   4  12  -2    1.06    1.16
   4 -12  -1   20.70    5.16
  -4 -12   1   16.13    3.55
   4  12  -1   21.72    5.45
   4 -12   0    6.08    1.92
  -4 -12   0    7.56    2.75
   4  12   0    2.30    1.15
   4 -12   1   18.08    5.32
  -4 -12  -1   22.63    4.87
   4  12   1   16.95    3.77
   4 -12   2    2.63    1.12
  -4 -12  -2    3.90    1.85
   4  12   2    1.30    0.89
   4 -12   3   13.65    4.09
  -4 -12  -3    9.58    2.69
   4  12   3   10.29    2.33
   4 -12   4    6.40    3.29
  -4 -12  -4    6.05    2.93
   4  12   4    6.46    2.81
   4 -12   5   16.82    4.13
  -4 -12  -5   16.51    3.74
   4  12   5   15.65    3.97
   4 -12   6    9.79    3.31
  -4 -12  -6    8.15    2.72
   4  12   6    5.85    2.41
   4 -12   7   18.26    4.33
  -4 -12  -7   35.90    3.18
   4  12   7   20.71    2.91
   4 -12   8   32.21    5.02
  -4 -12  -8   23.19    3.48
   4  12   8   17.94    3.97
   4 -12   9    3.22    1.27
  -4 -12  -9    4.95    1.62
   4  12   9    5.85    2.15
   4 -12  10    3.03    1.82
  -4 -12 -10    9.03    3.40
   4  12  10   -0.18    1.32
   4 -12  11   40.44   11.62
  -4 -12 -11   73.59    4.60
   4  12  11   58.29   11.97
   4 -12  12    4.70    2.16
  -4 -12 -12    4.47    2.48
   4  12  12    4.06    2.18
  -4 -13  13    2.91    1.69
  -4  13  13    2.24    1.18
  -4 -13  13    2.45    1.44
  -4 -13  12    6.20    2.45
  -4  13  12    1.60    1.06
  -4 -13  12    3.39    1.47
  -4 -13  11    1.19    1.31
  -4  13  11    3.30    1.41
  -4 -13  11    6.18    1.92
  -4 -13  10    2.76    1.33
  -4 -13  10    0.73    1.21
  -4 -13   9   29.60    6.81
  -4 -13   9   37.25    8.35
  -4 -13   8    1.76    1.34
  -4 -13   7    2.48    1.39
  -4 -13   6    4.46    1.88
  -4 -13   5    9.05    2.88
   4  13  -5    3.51    1.25
  -4 -13   4    1.38    1.38
   4  13  -4    1.89    1.18
  -4 -13   3   31.39    4.08
   4  13  -3   41.70    5.71
   4 -13  -2    1.98    0.97
  -4 -13   2    5.07    2.14
   4  13  -2    1.89    1.02
   4 -13  -1   17.72    3.91
  -4 -13   1   17.76    3.65
   4  13  -1   17.89    3.90
   4 -13   0    4.74    1.78
  -4 -13   0    3.83    1.98
   4  13   0    1.71    1.30
   4 -13   1   15.69    2.97
  -4 -13  -1   18.31    3.99
   4  13   1    8.99    2.46
   4 -13   2    3.40    1.09
   4  13   2    1.80    1.12
   4 -13   3    2.54    1.27
  -4 -13  -3    7.56    2.79
   4  13   3    1.82    1.43
   4 -13   4    3.80    1.53
  -4 -13  -4    1.24    1.37
   4  13   4    2.55    1.32
   4 -13   5   10.22    3.09
  -4 -13  -5    1.60    1.59
   4  13   5    2.43    1.27
   4 -13   6    5.39    3.06
  -4 -13  -6    6.56    2.81
   4  13   6    3.09    1.32
   4 -13   7   20.19    6.93
  -4 -13  -7   16.60    4.34
   4  13   7   24.32    6.64
   4 -13   8   23.25    6.19
  -4 -13  -8   15.54    4.31
   4  13   8   19.28    4.23
   4 -13   9   25.30    6.43
  -4 -13  -9   36.35    8.07
   4  13   9   26.12    7.09
   4 -13  10   13.42    3.64
  -4 -13 -10   15.13    3.98
   4  13  10   17.64    4.37
   4 -13  11    5.12    2.38
  -4 -13 -11    7.71    3.03
   4  13  11    3.16    1.65
  -4 -14  11    7.02    2.77
  -4 -14  11    5.57    2.05
  -4 -14  10    2.87    1.76
  -4 -14  10    5.44    2.37
  -4 -14   9    5.90    2.22
  -4 -14   9    2.33    1.14
  -4 -14   8    2.79    1.27
  -4 -14   7    0.03    1.12
  -4 -14   6   23.81    5.60
  -4 -14   5   28.50    4.29
   4  14  -5   23.04    3.32
  -4 -14   4   12.61    3.47
   4  14  -4   12.27    3.18
  -4 -14   3    8.42    2.54
   4  14  -3   11.63    3.19
  -4 -14   2    7.93    2.63
   4  14  -2    0.29    1.29
   4 -14  -1   43.21    4.65
  -4 -14   1   64.35    7.35
   4  14  -1   40.33    6.71
   4 -14   0   11.32    2.74
  -4 -14   0    7.53    2.68
   4  14   0    7.86    1.94
   4 -14   1   26.45    3.29
  -4 -14  -1   38.21    4.89
   4  14   1   21.74    3.17
   4 -14   2    2.51    1.42
  -4 -14  -2    7.03    2.50
   4  14   2    0.81    0.84
   4 -14   3    6.60    2.13
  -4 -14  -3    5.18    2.45
   4  14   3    7.03    2.13
   4 -14   4   16.52    4.03
  -4 -14  -4   14.35    3.90
   4  14   4   13.22    3.84
   4 -14   5   10.49    3.01
  -4 -14  -5   15.46    4.24
   4  14   5   11.39    2.74
   4 -14   6    4.09    1.41
  -4 -14  -6    6.69    2.40
   4  14   6    4.16    1.42
   4 -14   7    3.66    2.28
  -4 -14  -7    3.54    1.59
   4  14   7    5.70    1.64
   4 -14   8   29.85    8.90
  -4 -14  -8   50.60   10.54
   4  14   8   27.38    8.06
   4 -14   9    3.78    1.82
  -4 -14  -9    6.52    2.94
   4  14   9    2.69    1.67
  -4 -15   9    1.78    1.33
  -4 -15   9    2.79    1.55
  -4 -15   8    3.39    1.78
  -4 -15   7   15.37    3.82
  -4 -15   6    5.43    2.39
  -4 -15   5    8.29    2.88
   4  15  -5    6.21    1.83
  -4 -15   4    1.61    1.31
   4  15  -4    3.06    1.02
  -4 -15   3    4.11    1.98
   4  15  -3    2.23    0.92
  -4 -15   2    6.87    2.54
   4  15  -2    5.49    1.86
  -4 -15   1   51.30   11.55
   4  15  -1   31.42    7.97
   4 -15   0    1.03    0.84
  -4 -15   0    1.72    1.62
   4  15   0    1.19    0.79
   4 -15   1    8.31    2.24
  -4 -15  -1   11.97    3.12
   4  15   1   12.32    3.46
   4 -15   2    2.97    1.52
  -4 -15  -2    3.61    1.82
   4  15   2    1.16    0.65
   4 -15   3    5.93    2.13
  -4 -15  -3    7.00    3.31
   4  15   3    4.52    2.00
   4 -15   4    1.36    1.18
  -4 -15  -4    2.67    1.60
   4  15   4   -0.12    0.57
   4 -15   5    5.67    2.09
  -4 -15  -5    9.56    3.00
   4  15   5    5.47    2.20
   4 -15   6    2.45    1.21
  -4 -15  -6    2.17    1.65
   4  15   6    2.34    1.37
   4 -15   7    4.25    1.77
  -4 -15  -7    2.64    1.63
   4  15   7    4.71    2.56
  -4 -16   6    5.55    2.53
  -4 -16   5   16.97    4.94
   4  16  -5   17.56    4.84
  -4 -16   4    7.41    2.77
   4  16  -4    3.33    0.91
  -4 -16   3    9.90    3.10
   4  16  -3    2.58    1.75
  -4 -16   2    3.42    2.01
   4  16  -2    2.10    1.13
  -4 -16   1    5.47    2.53
   4  16  -1    0.39    0.93
  -4 -16   0    2.05    1.85
   4  16   0    1.82    1.06
   4 -16   1    4.60    1.57
  -4 -16  -1    5.91    2.36
   4 -16   2    3.68    1.40
  -4 -16  -2    4.04    2.66
   4  16   2    1.19    0.84
   4 -16   3    2.62    1.14
  -4 -16  -3    4.24    2.82
   4  16   3    1.21    0.86
   4 -16   4    0.60    1.18
  -4 -16  -4    2.63    1.66
  -5   0  18    2.45    1.34
  -5   0  17    3.69    2.00
  -5   0  16   11.04    2.84
  -5   0  15    4.48    1.79
  -5   0  14   84.85    9.05
  -5   0  13    2.46    1.42
  -5   0  12  131.98   12.51
  -5   0  11    2.07    0.91
  -5   0  11    2.47    1.36
  -5   0  10   61.97    5.06
  -5   0  10   57.97    5.41
  -5   0   9    1.42    0.64
  -5   0   9    2.34    1.28
  -5   0   8   90.81    7.00
  -5   0   8   72.76    6.14
  -5   0   7    3.29    1.18
  -5   0   7    3.78    1.67
  -5   0   6  114.06    8.42
  -5   0   6  119.84    9.24
  -5   0   5    1.70    0.73
  -5   0   5    2.58    1.70
  -5   0   4   35.17    4.37
  -5   0   3    0.40    0.75
  -5   0   2    9.98    2.28
   5   0  -2   10.39    2.05
  -5   0   1    0.84    0.73
   5   0  -1    2.84    1.17
  -5   0   0   45.03    5.55
   5   0   0   53.27    8.68
  -5   0  -1    0.03    0.74
   5   0   1    4.42    1.58
  -5   0  -2  425.11   23.42
   5   0   2  460.73   25.78
  -5   0  -3    2.09    1.06
   5   0   3    1.94    0.98
  -5   0  -4  710.65   50.32
   5   0   4  733.23   51.73
  -5   0  -5    1.04    1.74
   5   0   5    1.69    1.43
  -5   0  -6   58.38   14.22
   5   0   6   87.82   12.91
  -5   0  -7    3.60    1.55
   5   0   7    1.48    0.95
   5   0   8   13.14    2.84
   5   0   9    2.56    1.46
   5   0   9    3.28    1.56
   5   0  10   21.25    4.49
   5   0  10   14.38    3.16
   5   0  11   -0.02    1.22
   5   0  11    1.58    1.15
   5   0  12   11.10    3.11
   5   0  12   13.40    3.61
   5   0  13    0.67    1.26
   5   0  13    1.06    1.27
   5   0  14    0.79    1.11
   5   0  14    2.21    1.73
   5   0  15    3.25    1.46
   5   0  15    3.08    1.92
   5   0  16   35.70    9.52
   5   0  16   31.29    8.24
  -5   1  18   10.25    3.33
  -5  -1  18   11.16    3.55
  -5   1  17    2.08    1.33
  -5  -1  17    1.87    1.26
  -5   1  16    2.46    1.37
  -5  -1  16    8.65    2.67
  -5   1  15    3.31    2.04
  -5  -1  15    2.57    1.79
  -5   1  14    4.20    2.08
  -5  -1  14    3.26    1.89
  -5   1  13   35.81    4.35
  -5  -1  13   49.30    5.50
  -5  -1  12    0.54    0.57
  -5   1  12    2.38    1.28
  -5  -1  12    1.16    1.34
  -5  -1  11   14.13    2.60
  -5   1  11   21.29    4.19
  -5  -1  11   15.33    3.19
  -5   1  10    1.16    0.62
  -5  -1  10    0.91    0.67
  -5   1  10    4.17    1.66
  -5  -1  10    3.98    1.61
  -5   1   9    1.47    0.77
  -5  -1   9    1.71    0.94
  -5   1   9    2.76    1.59
  -5  -1   9    2.66    1.29
  -5  -1   8   27.48    3.28
  -5   1   8   28.42    3.24
  -5   1   8   38.60    4.76
  -5  -1   8   30.20    3.76
  -5   1   7    1.17    0.44
  -5  -1   7    3.09    0.99
  -5   1   7    3.08    1.11
  -5   1   7    3.50    1.38
  -5  -1   7    2.93    1.26
  -5   1   6   19.43    4.06
  -5  -1   6   32.00    4.08
  -5   1   6   33.45    4.17
  -5   1   6   26.07    3.63
  -5  -1   6   29.29    4.03
  -5  -1   5   20.70    2.90
  -5   1   5   18.64    2.49
  -5   1   5   17.33    2.55
  -5  -1   4   17.56    2.55
  -5   1   4   16.37    2.30
  -5  -1   3    5.66    1.56
  -5   1   3    8.64    2.04
  -5  -1   2   52.82    6.44
  -5   1   2   48.09    5.92
   5   1  -2   60.52   11.30
  -5  -1   1    2.42    0.97
  -5   1   1    3.23    1.25
   5  -1  -1    2.69    1.62
   5   1  -1    1.34    0.64
  -5  -1   0   94.43    5.89
  -5   1   0  102.89    6.27
   5  -1   0  103.82    7.83
   5   1   0  129.76    7.93
  -5  -1  -1    2.55    1.29
  -5   1  -1    0.66    0.82
   5  -1   1    1.39    0.86
   5   1   1    4.34    1.51
  -5  -1  -2    2.35    0.99
  -5   1  -2    1.73    0.92
   5  -1   2    3.36    1.38
   5   1   2    0.67    1.45
  -5  -1  -3  200.29   14.85
  -5   1  -3  200.43   14.76
   5  -1   3  229.57   16.81
   5   1   3  223.20   16.46
  -5  -1  -4  223.56   16.50
  -5   1  -4  204.91   15.14
   5  -1   4  241.26   17.60
   5   1   4  206.11   15.11
   5  -1   5  240.04   18.13
  -5  -1  -5  206.07   15.67
   5  -1   5  219.25   16.50
   5   1   5  228.50   17.14
   5  -1   6   99.56    8.16
  -5  -1  -6   87.85    7.23
   5  -1   6   91.83    7.55
   5   1   6  112.61   13.46
   5  -1   7    5.00    1.85
  -5  -1  -7    5.11    1.78
   5   1   7    6.70    1.37
   5  -1   7    7.22    1.72
   5  -1   8   61.06    6.39
  -5  -1  -8   55.10    5.61
   5  -1   8   58.37    9.46
   5   1   8   54.73    7.81
   5  -1   9   19.67    5.42
  -5  -1  -9   12.95    3.07
   5  -1   9   16.31    4.16
   5   1   9   21.60    4.96
   5  -1  10   45.54    6.59
  -5  -1 -10   41.91    4.71
   5  -1  10   39.19    6.61
   5   1  10   45.94    6.46
   5  -1  11    9.29    3.20
  -5  -1 -11   13.90    2.97
   5   1  11   14.38    3.06
   5  -1  11   13.36    3.18
   5  -1  12   27.88    4.65
  -5  -1 -12   24.26    2.91
   5  -1  12   28.03    2.61
   5   1  12   33.66    2.62
   5  -1  13    3.82    2.28
  -5  -1 -13    0.28    1.41
   5   1  13    1.09    1.17
   5  -1  13   10.10    2.92
   5  -1  14   20.06    6.12
  -5  -1 -14   35.57    8.27
   5   1  14   30.36    6.99
   5  -1  14   38.08    8.54
   5  -1  15   13.35    3.45
  -5  -1 -15   22.99    5.42
   5  -1  15   20.92    4.85
   5   1  15   10.52    3.23
   5  -1  16    1.69    1.28
  -5  -1 -16   15.70    5.07
   5   1  16   12.53    4.01
   5  -1  16   10.28    3.42
  -5   2  18    2.41    1.77
  -5  -2  18    3.59    1.63
  -5   2  17    5.95    2.42
  -5  -2  17    2.98    1.51
  -5   2  16    3.45    1.64
  -5  -2  16    3.83    1.52
  -5   2  15    6.67    2.35
  -5  -2  15    6.44    2.04
  -5   2  14    5.10    2.05
  -5  -2  14    3.48    1.55
  -5  -2  13    4.24    1.17
  -5   2  13    3.20    1.45
  -5  -2  13    1.83    1.35
  -5  -2  12    8.43    1.93
  -5   2  12   11.18    2.80
  -5  -2  12    9.24    2.42
  -5  -2  11    1.38    0.89
  -5   2  11    5.01    2.10
  -5  -2  11    1.33    1.52
  -5  -2  10   49.60   11.92
  -5   2  10   48.14   11.75
  -5  -2  10   43.26    5.03
  -5   2   9   60.23    4.70
  -5  -2   9   56.51    4.83
  -5   2   9   51.54    4.78
  -5  -2   9   49.23   11.97
  -5   2   8  188.14   13.73
  -5  -2   8  158.80   12.01
  -5   2   8  168.48   12.93
  -5  -2   8  151.28   11.66
  -5  -2   7   98.53    7.69
  -5   2   7  111.67    8.33
  -5   2   7  112.40    8.89
  -5  -2   7  104.91    8.42
  -5   2   6   10.78    2.64
  -5  -2   6    8.49    2.01
  -5   2   6   13.91    1.98
  -5   2   6   13.86    2.17
  -5   2   5   25.82    5.23
  -5  -2   5   31.93    4.18
  -5   2   5   36.73    4.53
  -5   2   5   31.16    4.12
  -5   2   4    2.07    0.88
  -5  -2   4    2.45    1.04
  -5   2   4    4.45    1.10
  -5   2   4    6.34    1.98
  -5  -2   3    8.27    1.95
  -5   2   3    2.89    0.78
   5   2  -3    7.74    2.17
  -5  -2   2    1.49    0.82
  -5   2   2    2.43    1.08
   5   2  -2    6.49    2.38
  -5  -2   1  104.08    6.42
  -5   2   1   87.37    5.39
   5   2  -1  111.35   11.91
  -5  -2   0   82.50    5.35
  -5   2   0   85.42    5.38
   5  -2   0   80.40    5.10
   5   2   0   91.32   12.14
  -5  -2  -1   48.39    6.07
  -5   2  -1   45.23    5.57
   5  -2   1   65.32    6.76
   5   2   1   64.19    7.90
  -5  -2  -2   80.25    6.49
  -5   2  -2   89.92    7.05
   5  -2   2   96.74   11.77
   5   2   2  106.59   14.41
   5  -2   3   12.56    2.14
  -5  -2  -3   11.07    2.67
   5  -2   3   18.48    3.33
   5   2   3    7.90    2.22
   5  -2   4    1.83    1.23
  -5  -2  -4    3.26    1.70
   5  -2   4    0.94    1.01
   5   2   4    4.65    1.91
   5  -2   5    5.83    2.07
  -5  -2  -5    2.69    1.27
   5  -2   5    5.75    1.49
   5   2   5    3.63    1.12
   5  -2   6   83.09   11.38
  -5  -2  -6   73.47    6.40
   5  -2   6   80.10   10.75
   5   2   6   93.13   12.26
   5  -2   7  258.17   26.38
  -5  -2  -7  226.66   17.85
   5  -2   7  266.81   20.49
   5   2   7  254.57   19.79
   5  -2   8   91.30   13.77
  -5  -2  -8   96.12    9.02
   5  -2   8  103.53    9.31
   5   2   8   73.84   11.78
   5  -2   9   72.97   12.18
  -5  -2  -9   53.41    5.75
   5  -2   9   62.28   11.38
   5   2   9   70.92    8.52
   5  -2  10    3.07    1.27
  -5  -2 -10    5.21    1.77
   5  -2  10    1.33    1.00
   5   2  10    4.48    1.66
   5  -2  11    6.52    3.32
  -5  -2 -11    1.66    1.79
   5  -2  11    6.28    2.46
   5   2  11    7.97    2.97
   5  -2  12    2.87    1.61
  -5  -2 -12    1.94    1.47
   5  -2  12    1.20    1.10
   5   2  12    4.70    2.38
   5  -2  13   16.39    3.40
  -5  -2 -13   17.61    2.83
   5  -2  13   15.57    3.80
   5   2  13   16.50    2.26
   5  -2  14    2.00    1.14
  -5  -2 -14    3.14    1.63
   5  -2  14    1.00    0.95
   5   2  14    4.52    2.15
   5  -2  15    7.55    2.82
  -5  -2 -15   19.00    4.64
   5  -2  15    7.33    2.64
   5   2  15   14.27    3.76
   5  -2  16   28.46   10.03
  -5  -2 -16   52.61   13.55
   5   2  16   58.87   15.12
  -5   3  18    4.93    2.26
  -5  -3  18    3.35    1.90
  -5   3  17    2.59    1.94
  -5  -3  17    3.29    1.78
  -5   3  16    6.41    2.56
  -5  -3  16    6.27    2.74
  -5   3  15   12.10    3.13
  -5  -3  15    8.11    2.26
  -5  -3  14    3.85    1.80
  -5  -3  13    1.30    0.94
  -5   3  13    2.37    1.38
  -5  -3  13    6.76    3.13
  -5  -3  12    0.30    0.66
  -5   3  12    2.29    1.67
  -5  -3  11    8.52    1.91
  -5   3  11   11.48    2.70
  -5  -3  11    9.12    2.41
  -5  -3  10    5.10    1.57
  -5   3  10    4.72    1.94
  -5  -3  10    2.48    1.43
  -5  -3   9  181.12   14.06
  -5   3   9  180.02   14.22
  -5  -3   9  167.15   13.29
  -5   3   8   14.48    1.66
  -5  -3   8   16.10    2.33
  -5   3   8   10.02    1.72
  -5  -3   8   18.61    2.84
  -5  -3   7    1.02    0.83
  -5   3   7    2.38    0.70
  -5   3   7    1.44    1.48
  -5  -3   7    0.27    0.97
  -5  -3   6   22.37    3.20
  -5   3   6   20.66    2.64
  -5   3   6   23.19    3.30
  -5   3   5   31.15    5.78
  -5  -3   5   44.29    5.69
  -5   3   5   44.08    5.57
  -5   3   4    8.50    2.32
  -5  -3   4   13.30    2.23
  -5   3   4   15.64    2.12
   5   3  -4   20.30    3.28
  -5   3   4    9.89    2.39
  -5  -3   3    3.11    1.23
  -5   3   3    1.27    0.75
   5   3  -3    6.68    2.20
  -5   3   3    5.80    1.55
  -5  -3   2   53.07    6.50
  -5   3   2   54.63    6.51
   5   3  -2   68.10    8.21
  -5  -3   1   27.39    3.67
  -5   3   1   23.51    3.13
   5   3  -1   28.71    6.12
  -5  -3   0   67.56    4.57
  -5   3   0   59.73    7.20
   5   3   0   73.31   11.41
  -5  -3  -1  128.13    9.77
   5  -3   1  160.72   16.46
   5   3   1  159.68   20.46
   5  -3   2   14.41    2.29
  -5  -3  -2   16.30    2.84
   5  -3   2    9.85    2.82
   5   3   2    9.25    3.16
   5  -3   3  246.82   18.01
  -5  -3  -3  214.82   15.89
   5  -3   3  253.90   18.32
   5   3   3  254.85   18.65
   5  -3   4   11.40    2.25
  -5  -3  -4    8.39    2.44
   5  -3   4    7.32    2.09
   5   3   4    8.97    2.27
   5  -3   5   88.52   14.08
  -5  -3  -5   81.26    6.76
   5  -3   5   88.02    7.27
   5   3   5   86.29   11.65
   5  -3   6   54.71    8.70
  -5  -3  -6   47.51   11.56
   5  -3   6   59.42    7.77
   5   3   6   58.43    8.01
   5  -3   7    8.73    1.95
  -5  -3  -7    8.54    2.03
   5  -3   7   11.26    2.26
   5   3   7   11.68    2.11
   5  -3   8  100.84   12.95
  -5  -3  -8  100.58    9.27
   5  -3   8  112.77   10.02
   5   3   8  118.80   17.89
   5  -3   9    5.24    2.32
  -5  -3  -9    3.53    2.04
   5  -3   9    2.07    0.96
   5   3   9    4.42    2.34
   5  -3  10   19.06    4.40
  -5  -3 -10   16.87    4.07
   5  -3  10   19.02    4.76
   5   3  10   16.67    3.77
   5  -3  11    6.05    2.57
  -5  -3 -11   10.50    2.67
   5  -3  11    4.97    1.81
   5   3  11    3.11    1.40
   5  -3  12   10.83    3.33
  -5  -3 -12    2.72    1.60
   5  -3  12    4.18    1.56
   5   3  12    6.59    2.53
   5  -3  13    1.19    0.86
  -5  -3 -13    1.72    1.49
   5  -3  13    1.09    0.91
   5   3  13    4.24    1.89
   5  -3  14    7.36    2.70
  -5  -3 -14    2.33    1.64
   5  -3  14    2.79    1.43
   5   3  14    2.55    1.49
   5  -3  15   40.97   11.46
  -5  -3 -15   67.07   13.67
   5   3  15   61.33   12.51
  -5   4  18    2.40    1.77
  -5  -4  18    1.65    1.53
  -5   4  17   30.02    6.62
  -5  -4  17   46.70    9.76
  -5   4  16    3.36    1.78
  -5  -4  16    5.02    1.80
  -5   4  15    1.81    1.36
  -5  -4  15    8.26    2.82
  -5  -4  14    0.97    0.72
  -5   4  14    3.77    1.96
  -5  -4  14   -1.69    1.43
  -5  -4  13    1.88    0.79
  -5   4  13    2.46    1.29
  -5  -4  13    6.07    2.53
  -5  -4  12    4.70    1.33
  -5   4  12    6.15    2.12
  -5  -4  12    6.92    2.20
  -5  -4  11   13.45    2.90
  -5   4  11   21.04    4.37
  -5  -4  11   10.06    2.62
  -5  -4  10   77.81    7.08
  -5   4  10   72.45    6.83
  -5  -4  10   73.96    7.02
  -5  -4   9    4.97    1.65
  -5   4   9    7.22    1.95
  -5  -4   9    6.63    1.59
  -5  -4   8    5.34    1.73
  -5   4   8    5.44    1.89
  -5  -4   8    4.56    1.63
  -5  -4   7   56.95   13.77
  -5   4   7   70.89    5.24
  -5   4   7   74.61    6.20
  -5  -4   6  119.16    9.35
  -5   4   6  119.84    8.82
  -5   4   6  104.98    8.41
  -5  -4   5   18.79    2.79
  -5   4   5   23.07    2.93
  -5   4   5   20.82    3.15
  -5   4   4   21.85    2.86
  -5  -4   4   30.58    4.15
   5   4  -4   33.93    4.99
  -5   4   4   21.41    3.09
  -5  -4   3    6.64    1.95
  -5   4   3    7.31    1.69
   5   4  -3    9.21    2.44
  -5   4   3    8.63    2.11
  -5  -4   2    9.20    2.30
  -5   4   2   10.97    2.45
   5   4  -2    9.37    2.90
  -5   4   2    6.40    1.64
  -5  -4   1  111.74    8.61
  -5   4   1  112.88    8.48
   5   4  -1  123.28   17.51
  -5   4   1  100.22    7.52
   5  -4   0   71.53    5.69
  -5  -4   0   51.82    6.53
   5   4   0   73.64   10.20
   5  -4   1   23.89    4.11
  -5  -4  -1   15.34    2.44
   5   4   1   16.69    3.73
   5  -4   2   47.56    9.32
  -5  -4  -2   34.18    4.56
   5  -4   2   45.66    7.39
   5   4   2   49.39    8.37
   5  -4   3   24.08    4.09
  -5  -4  -3   17.43    2.50
   5  -4   3   18.58    3.40
   5   4   3   23.44    5.70
   5  -4   4   71.18    8.90
  -5  -4  -4   72.65    6.24
   5  -4   4   78.32    8.78
   5   4   4   85.28   12.23
   5  -4   5   12.43    2.77
  -5  -4  -5    9.28    1.85
   5  -4   5   12.08    2.15
   5   4   5   14.08    3.64
   5  -4   6    2.99    1.87
  -5  -4  -6    3.54    1.97
   5  -4   6    1.97    0.90
   5   4   6    5.93    1.90
   5  -4   7   17.61    4.76
  -5  -4  -7    9.46    2.30
   5  -4   7   13.51    3.15
   5   4   7   11.26    2.29
   5  -4   8    1.78    1.28
  -5  -4  -8    4.37    2.21
   5  -4   8    3.29    1.31
   5   4   8    1.03    1.55
   5  -4   9    8.31    2.40
  -5  -4  -9    3.94    1.45
   5  -4   9    6.31    1.85
   5   4   9    3.54    1.58
   5  -4  10    7.79    3.10
  -5  -4 -10   16.22    3.71
   5  -4  10    4.49    1.64
   5   4  10   12.60    2.77
   5  -4  11    4.93    2.33
  -5  -4 -11    4.42    2.54
   5  -4  11    0.36    0.56
   5   4  11    4.91    2.40
   5  -4  12   12.65    3.56
  -5  -4 -12   14.66    3.73
   5  -4  12    5.99    2.51
   5   4  12   11.54    3.31
   5  -4  13   19.48    6.69
  -5  -4 -13   15.21    4.24
   5   4  13   22.12    5.32
   5  -4  14    5.84    2.40
  -5  -4 -14    2.99    1.54
   5   4  14    1.93    1.42
   5  -4  15    5.23    2.94
  -5  -4 -15    9.04    3.39
   5   4  15    7.19    3.37
  -5   5  17    4.11    2.11
  -5  -5  17    3.17    2.29
  -5   5  16   16.40    4.67
  -5  -5  16   14.24    4.02
  -5   5  15   37.47    8.54
  -5  -5  15   47.53   10.66
  -5  -5  14   11.62    2.67
  -5   5  14    9.63    2.55
  -5  -5  14   21.59    3.18
  -5  -5  13    2.47    1.17
  -5   5  13    8.65    2.34
  -5  -5  13    8.22    2.09
  -5  -5  12   19.09    3.83
  -5   5  12   23.41    4.94
  -5  -5  12   30.03    4.81
  -5  -5  11    4.10    1.49
  -5   5  11    5.08    1.68
  -5  -5  11    7.43    2.24
  -5  -5  10   10.43    2.36
  -5   5  10    6.02    1.66
  -5  -5  10   10.02    2.55
  -5  -5   9    2.27    1.28
  -5   5   9    2.18    1.28
  -5  -5   9    9.06    2.45
  -5  -5   8    1.66    0.93
  -5   5   8    2.24    1.66
  -5  -5   8    2.50    1.31
  -5  -5   7  115.31    9.33
  -5   5   7  115.46    9.37
  -5  -5   6   65.62    5.58
  -5   5   6   74.01    5.51
  -5   5   6   73.74    6.09
  -5  -5   5   61.51    5.46
  -5   5   5   64.40    4.96
  -5   5   5   54.72    6.15
  -5  -5   4  106.26    8.44
  -5   5   4  112.39    8.42
   5   5  -4  134.23   10.74
  -5   5   4  101.59    7.96
  -5  -5   3    3.80    1.42
   5   5  -3    9.56    2.55
  -5   5   3    2.24    0.82
  -5  -5   2   53.04    6.69
  -5   5   2   47.41    5.78
   5   5  -2   68.16    8.56
  -5   5   2   45.69    5.61
   5  -5  -1   38.68    4.96
  -5  -5   1   27.48    3.87
   5   5  -1   42.74    6.34
  -5   5   1   28.25    3.59
   5  -5   0   48.47    9.84
  -5  -5   0   46.15    5.98
   5   5   0   47.58    9.37
  -5   5   0   43.82    5.39
   5  -5   1  390.40   28.56
  -5  -5  -1  314.52   23.40
   5   5   1  375.77   29.65
   5  -5   2   61.38    8.18
  -5  -5  -2   50.17    5.88
   5   5   2   58.78   15.99
   5  -5   3    3.85    1.83
  -5  -5  -3    3.23    1.33
   5  -5   3    4.44    1.39
   5   5   3    3.47    1.45
   5  -5   4   55.62    7.00
  -5  -5  -4   40.40    4.64
   5  -5   4   44.36    5.97
   5   5   4   51.44    6.06
   5  -5   5   17.35    3.37
  -5  -5  -5   15.37    2.44
   5  -5   5   13.54    2.69
   5   5   5   18.44    3.19
   5  -5   6    4.26    1.95
  -5  -5  -6    6.22    2.52
   5  -5   6    3.26    1.16
   5   5   6    8.19    2.22
   5  -5   7   95.33   14.11
  -5  -5  -7   91.16    8.60
   5  -5   7   90.98    9.09
   5   5   7   97.85   16.62
   5  -5   8   17.83    4.13
  -5  -5  -8   13.29    3.15
   5  -5   8   11.21    2.78
   5   5   8   12.84    4.27
   5  -5   9    8.71    3.16
  -5  -5  -9    3.69    1.79
   5  -5   9    1.23    0.55
   5   5   9    1.77    1.41
   5  -5  10    5.70    2.13
  -5  -5 -10    9.96    2.58
   5  -5  10    7.69    2.73
   5   5  10   15.21    3.46
   5  -5  11    3.89    2.02
  -5  -5 -11    1.68    2.08
   5   5  11   -0.39    1.44
   5  -5  12    2.60    1.53
  -5  -5 -12    3.60    2.23
   5   5  12    0.15    1.26
   5  -5  13   13.75    4.22
  -5  -5 -13    6.35    2.47
   5   5  13    3.69    1.59
   5  -5  14    7.68    3.07
  -5  -5 -14    5.50    2.54
   5   5  14    4.20    2.26
   5  -5  15   19.08    6.01
  -5  -5 -15   21.32    6.17
   5   5  15   21.29    6.16
  -5   6  17   35.58    9.45
  -5  -6  17   48.93   12.72
  -5   6  16    2.83    1.44
  -5  -6  16    3.96    1.67
  -5  -6  15   26.16    5.94
  -5   6  15   38.26    8.72
  -5  -6  15   47.26   10.61
  -5  -6  14    2.90    1.03
  -5   6  14    3.72    1.82
  -5  -6  14    6.72    2.46
  -5  -6  13   23.27    2.13
  -5   6  13   32.36    2.90
  -5  -6  13   29.86    2.99
  -5  -6  12    4.29    1.93
  -5   6  12    2.73    2.07
  -5  -6  12    6.28    2.60
  -5  -6  11    0.53    0.74
  -5   6  11    2.73    1.31
  -5  -6  11    1.98    1.47
  -5  -6  10   24.31    2.98
  -5   6  10   24.62    3.17
  -5  -6  10   23.00    4.76
  -5  -6   9   29.57    3.47
  -5   6   9   34.52    3.88
  -5  -6   9   31.75    3.89
  -5  -6   8    2.46    1.46
  -5   6   8    3.53    1.57
  -5  -6   7    1.50    1.05
  -5   6   7    1.77    1.00
  -5  -6   6    2.79    1.38
  -5   6   6    0.83    0.87
  -5  -6   5    3.32    1.45
  -5   6   5    3.61    1.03
   5   6  -5    7.59    1.73
  -5   6   5    3.88    1.37
  -5  -6   4    1.37    1.20
  -5   6   4    0.37    0.47
   5   6  -4    3.48    1.83
  -5   6   4    2.02    1.29
  -5  -6   3  156.22   12.13
  -5   6   3  164.18   12.17
   5   6  -3  187.31   19.96
  -5   6   3  160.83   12.05
   5  -6  -2    1.98    0.75
  -5  -6   2    4.43    2.10
   5   6  -2    6.27    2.04
  -5   6   2    3.01    1.11
   5  -6  -1   47.25    8.59
  -5  -6   1   43.19    5.29
   5   6  -1   65.68    9.70
  -5   6   1   44.22    4.93
   5  -6   0   44.40    6.76
  -5  -6   0   34.82    4.34
   5   6   0   45.51    7.67
  -5   6   0   33.59    3.80
   5  -6   1    2.32    0.92
  -5  -6  -1    2.16    1.28
   5   6   1    1.49    1.73
  -5   6  -1    0.93    0.60
   5  -6   2    7.84    2.38
  -5  -6  -2    5.69    1.83
   5   6   2   12.67    2.75
  -5   6  -2    7.28    1.71
   5  -6   3    4.91    2.06
  -5  -6  -3    1.76    1.23
   5   6   3    1.59    1.44
   5  -6   4   23.26    4.86
  -5  -6  -4   20.37    2.89
   5   6   4   20.04    3.26
   5  -6   5   37.31    6.50
  -5  -6  -5   29.79    5.35
   5   6   5   39.34    5.28
   5  -6   6   13.79    3.15
  -5  -6  -6   15.34    3.36
   5   6   6   13.32    3.09
   5  -6   7   11.53    3.30
  -5  -6  -7    5.32    1.94
   5  -6   7    1.95    0.82
   5   6   7    7.18    2.64
   5  -6   8    4.24    1.41
  -5  -6  -8    2.57    1.69
   5   6   8    0.95    1.01
   5  -6   9   20.27    4.62
  -5  -6  -9   17.98    3.84
   5   6   9   19.55    4.36
   5  -6  10    4.68    2.43
  -5  -6 -10   10.37    3.35
   5   6  10    8.33    2.55
   5  -6  11    3.08    1.62
  -5  -6 -11    1.80    1.93
   5   6  11    1.41    1.45
   5  -6  12   12.34    4.11
  -5  -6 -12    5.52    2.48
   5   6  12   11.40    3.07
   5  -6  13    1.08    1.25
   5   6  13    1.54    1.41
   5  -6  14    5.71    2.08
  -5  -6 -14    9.58    3.19
   5   6  14    9.62    3.29
  -5  -7  16    0.76    0.90
  -5   7  16    1.38    1.73
  -5  -7  16    4.50    1.87
  -5  -7  15    1.44    1.00
  -5   7  15   -0.48    1.07
  -5  -7  15    4.64    2.23
  -5  -7  14    2.44    1.03
  -5   7  14    9.07    2.42
  -5  -7  14    7.34    2.37
  -5  -7  13    6.74    2.00
  -5   7  13    2.58    1.19
  -5  -7  13    6.45    2.34
  -5  -7  12    0.37    0.98
  -5   7  12    1.21    1.14
  -5  -7  12    1.52    1.44
  -5  -7  11   38.60    4.45
  -5   7  11   47.72    5.47
  -5  -7  11   55.11    6.15
  -5  -7  10    6.46    1.69
  -5   7  10   10.91    2.68
  -5  -7  10    5.10    1.88
  -5  -7   9   65.96    6.57
  -5   7   9   71.81    7.07
  -5  -7   9   76.44    7.74
  -5  -7   8   10.47    2.54
  -5   7   8   21.13    4.27
  -5  -7   7    3.84    1.86
  -5   7   7    0.88    1.25
  -5  -7   6   35.81    8.08
  -5   7   6   53.70    5.15
  -5  -7   5   79.23    6.83
  -5   7   5   82.47    6.39
   5   7  -5   86.74    7.52
  -5   7   5   80.11    6.66
  -5  -7   4   20.67    2.92
  -5   7   4   23.90    2.63
   5   7  -4   22.62    4.24
  -5   7   4   27.01    3.18
   5  -7  -3    1.90    0.85
  -5  -7   3    3.26    1.61
   5   7  -3    2.94    1.45
  -5   7   3    2.24    1.21
   5  -7  -2    2.59    0.90
  -5  -7   2    4.66    1.94
   5   7  -2    1.21    0.98
  -5   7   2    1.47    0.88
   5  -7  -1   25.67    3.79
  -5  -7   1   26.31    3.63
   5   7  -1   23.17    4.22
  -5   7   1   21.06    2.41
   5  -7   0   48.02   13.18
  -5  -7   0   43.52    5.14
   5   7   0   42.16    7.02
  -5   7   0   43.01    4.41
   5  -7   1  128.24   14.80
  -5  -7  -1  104.42    8.82
   5   7   1  134.82   19.08
  -5   7  -1  118.00    9.14
   5  -7   2   53.98    9.66
  -5  -7  -2   43.54    5.14
   5   7   2   47.86   12.72
  -5   7  -2   44.14    4.49
   5  -7   3  244.00   24.06
  -5  -7  -3  216.39   18.65
   5   7   3  239.51   24.11
  -5   7  -3  216.22   17.92
   5  -7   4    7.74    2.07
  -5  -7  -4    9.82    2.74
   5   7   4    8.00    1.84
   5  -7   5  138.43   16.50
  -5  -7  -5  139.72   13.29
   5   7   5  174.26   20.05
   5  -7   6  122.17   19.33
  -5  -7  -6   98.24    9.64
   5   7   6  128.24   17.37
   5  -7   7   19.34    4.55
  -5  -7  -7   21.87    5.06
   5   7   7   15.06    3.55
   5  -7   8   12.25    2.75
  -5  -7  -8   19.13    4.14
   5   7   8    9.79    2.49
   5  -7   9   12.79    3.57
  -5  -7  -9   19.31    2.79
   5   7   9   12.38    3.48
   5  -7  10    6.25    2.76
  -5  -7 -10   -0.51    1.34
   5   7  10    9.96    2.94
   5  -7  11   -0.26    1.55
  -5  -7 -11    3.81    2.20
   5   7  11    3.86    2.34
   5  -7  12   25.19    7.15
  -5  -7 -12   49.66   10.60
   5   7  12   42.43    9.10
   5  -7  13    5.88    2.41
  -5  -7 -13    3.52    2.12
   5   7  13    4.60    2.41
   5  -7  14    5.56    1.95
  -5  -7 -14    1.85    1.65
   5   7  14    5.38    2.66
  -5  -8  16    3.79    1.64
  -5   8  16    2.33    1.34
  -5  -8  16    6.23    2.64
  -5  -8  15    2.65    1.35
  -5   8  15    5.76    2.46
  -5  -8  15    7.74    2.77
  -5  -8  14    4.93    1.97
  -5   8  14    5.90    2.04
  -5  -8  14    4.73    1.82
  -5  -8  13   33.21    7.46
  -5   8  13   34.54    7.82
  -5  -8  13   41.47    9.38
  -5  -8  12   26.75    3.37
  -5   8  12   37.80    4.51
  -5  -8  12   45.37    5.61
  -5  -8  11   11.84    3.19
  -5   8  11   18.87    2.33
  -5  -8  11   17.37    4.10
  -5  -8  10   42.67    5.03
  -5   8  10   48.61    5.49
  -5  -8  10   45.44    5.28
  -5  -8   9   87.06    8.75
  -5   8   9   78.70    7.81
  -5  -8   9  108.87   10.78
  -5  -8   8    3.59    1.46
  -5   8   8    0.66    0.79
  -5  -8   7  206.41   18.99
  -5   8   7  191.46   17.41
  -5  -8   6   34.89    4.17
  -5   8   6   36.06    3.89
  -5  -8   5    2.25    1.24
   5   8  -5    9.31    2.53
  -5   8   5    8.81    2.05
  -5  -8   4   32.18    5.68
   5   8  -4   39.34    5.49
  -5   8   4   35.53    6.01
   5  -8  -3  116.82   11.69
  -5  -8   3  100.54    9.20
   5   8  -3  113.30   16.44
  -5   8   3  111.42    9.60
   5  -8  -2  106.21    9.32
  -5  -8   2   81.89    7.75
   5   8  -2   84.23   11.06
  -5   8   2   91.44    7.90
   5  -8  -1    2.81    1.10
  -5  -8   1    3.44    2.08
   5   8  -1    4.20    1.63
  -5   8   1    1.81    0.75
   5  -8   0    1.70    1.06
  -5  -8   0    6.83    2.37
   5   8   0    0.74    0.87
  -5   8   0    2.93    1.00
   5  -8   1   37.08    9.75
  -5  -8  -1   21.01    4.01
   5   8   1   22.28    5.04
   5  -8   2   33.89    7.71
  -5  -8  -2   33.71    5.95
   5   8   2   45.35    5.87
   5  -8   3    8.74    2.21
  -5  -8  -3    7.35    2.15
   5   8   3    5.27    2.45
   5  -8   4  237.19   48.65
  -5  -8  -4  195.48   18.08
   5   8   4  233.19   47.07
   5  -8   5    7.14    2.66
  -5  -8  -5    2.63    1.89
   5   8   5    7.03    2.75
   5  -8   6   13.42    3.75
  -5  -8  -6    8.91    2.84
   5   8   6   18.19    4.28
   5  -8   7   53.14    9.10
  -5  -8  -7   62.55    7.38
   5   8   7   45.75    8.76
   5  -8   8    3.51    1.84
  -5  -8  -8   10.52    3.36
   5   8   8    1.03    0.91
   5  -8   9   26.76    4.48
  -5  -8  -9   17.97    4.39
   5   8   9   25.12    4.24
   5  -8  10    1.22    1.22
  -5  -8 -10    0.59    1.43
   5   8  10    4.44    2.69
   5  -8  11    3.46    1.41
  -5  -8 -11    2.68    2.31
   5   8  11    3.45    1.92
   5  -8  12   18.62    5.78
  -5  -8 -12   13.58    3.54
   5   8  12   19.22    4.52
   5  -8  13    1.92    1.35
  -5  -8 -13    2.03    1.57
   5   8  13    1.60    2.27
  -5  -9  15    1.22    1.09
  -5   9  15    1.89    1.23
  -5  -9  15    0.51    1.34
  -5  -9  14    3.47    1.44
  -5   9  14    5.79    2.20
  -5  -9  14    2.72    1.63
  -5  -9  13    0.44    1.00
  -5   9  13    3.10    1.52
  -5  -9  13    2.43    1.58
  -5  -9  12   10.92    2.63
  -5   9  12    9.01    2.38
  -5  -9  12    6.92    2.21
  -5  -9  11    2.97    1.09
  -5   9  11    5.05    2.20
  -5  -9  11    3.81    1.97
  -5  -9  10   15.20    3.67
  -5   9  10   13.71    3.39
  -5  -9  10    6.75    2.10
  -5  -9   9   22.76    4.23
  -5   9   9   31.93    3.87
  -5  -9   9   29.58    3.79
  -5  -9   8   39.17    4.95
  -5   9   8   35.24    4.01
  -5  -9   7    1.70    1.69
  -5   9   7    3.86    1.53
  -5  -9   6   22.15    4.51
  -5   9   6   14.81    2.99
  -5  -9   5   58.29    6.07
   5   9  -5   55.84    6.03
  -5   9   5   61.58    5.96
  -5  -9   4   61.62    6.44
   5   9  -4   67.59    9.34
  -5   9   4   62.54    6.01
   5  -9  -3   30.25    5.13
  -5  -9   3   34.75    4.05
   5   9  -3   31.62    4.47
  -5   9   3   28.22    2.99
   5  -9  -2   96.28   11.66
  -5  -9   2   85.96    8.52
   5   9  -2   87.55   10.49
   5  -9  -1   26.86    5.24
  -5  -9   1   23.65    3.08
   5   9  -1   28.86    4.01
   5  -9   0   29.47    4.63
  -5  -9   0   29.09    3.73
   5   9   0   32.96    4.71
   5  -9   1    7.75    1.78
  -5  -9  -1    8.08    2.77
   5   9   1   11.93    3.40
   5  -9   2    3.82    1.88
  -5  -9  -2    3.38    1.77
   5   9   2    1.43    1.17
   5  -9   3    3.95    1.80
  -5  -9  -3    0.14    1.25
   5   9   3    4.26    1.67
   5  -9   4   31.21    6.70
  -5  -9  -4   26.02    5.26
   5   9   4   27.81    6.79
   5  -9   5    9.64    2.82
  -5  -9  -5    4.37    1.82
   5   9   5   13.39    3.56
   5  -9   6   66.27   10.28
  -5  -9  -6   77.18    8.45
   5  -9   7   14.16    4.23
  -5  -9  -7   11.99    3.64
   5   9   7   17.66    4.59
   5  -9   8   22.75    6.21
  -5  -9  -8   27.72    4.35
   5   9   8   35.72    7.99
   5  -9   9    1.52    1.76
  -5  -9  -9    3.09    1.46
   5   9   9    3.06    1.33
   5  -9  10   34.30    8.88
  -5  -9 -10   38.58    8.80
   5   9  10   33.72   10.46
   5  -9  11   18.93    4.64
  -5  -9 -11   38.97    8.39
   5   9  11   16.35    4.70
   5  -9  12   34.68    8.74
  -5  -9 -12   45.98    9.71
   5   9  12   40.93    8.96
  -5 -10  14    3.79    1.69
  -5 -10  14    4.58    2.18
  -5 -10  13    3.10    1.32
  -5 -10  13    9.77    3.22
  -5 -10  12   24.25    5.30
  -5  10  12   27.53    5.87
  -5 -10  12   32.32    6.91
  -5 -10  11    1.20    1.11
  -5  10  11    2.16    0.98
  -5 -10  11    7.24    1.94
  -5 -10  10   23.76    3.39
  -5  10  10   22.27    3.22
  -5 -10  10   29.37    3.93
  -5 -10   9    1.51    1.13
  -5  10   9    2.12    1.23
  -5 -10   9    5.72    2.91
  -5 -10   8   41.41    2.85
  -5  10   8   48.62    2.58
  -5 -10   7    4.34    2.18
  -5 -10   6   48.84    5.92
  -5  10   6   51.84    5.45
  -5 -10   5    0.35    1.32
   5  10  -5    0.24    1.11
  -5 -10   4    9.58    2.54
   5  10  -4    0.82    1.58
  -5 -10   3   45.36    5.13
   5  10  -3   33.14    5.71
   5 -10  -2    1.62    0.78
  -5 -10   2    7.32    2.38
   5  10  -2   -0.35    1.07
   5 -10  -1   46.43    9.16
  -5 -10   1   72.94    7.67
   5  10  -1   61.06    7.78
   5 -10   0   46.08    7.45
  -5 -10   0   49.44    5.62
   5  10   0   51.06    7.14
   5 -10   1   18.27    4.92
  -5 -10  -1   22.09    4.58
   5  10   1   17.37    3.84
   5 -10   2   64.34   11.79
  -5 -10  -2   77.46    8.12
   5  10   2   71.43    9.30
   5 -10   3   11.27    2.67
  -5 -10  -3    4.34    2.03
   5  10   3    8.47    1.95
   5 -10   4   39.81    7.69
  -5 -10  -4   39.73    4.86
   5  10   4   38.79    6.90
   5 -10   5    1.12    1.18
  -5 -10  -5   12.23    3.74
   5  10   5    2.44    1.23
   5 -10   6    3.30    1.75
  -5 -10  -6    7.50    2.69
   5  10   6    4.06    2.10
   5 -10   7    2.64    1.22
  -5 -10  -7    3.02    2.01
   5  10   7    2.56    1.30
   5 -10   8    2.87    1.32
  -5 -10  -8    2.53    1.51
   5  10   8    4.02    1.87
   5 -10   9    4.26    2.33
  -5 -10  -9    6.35    1.90
   5  10   9    2.82    1.06
   5 -10  10    8.83    3.85
  -5 -10 -10   12.17    3.77
   5  10  10   15.44    4.42
   5 -10  11    2.55    1.37
  -5 -10 -11    9.96    3.52
   5  10  11    9.12    3.30
  -5 -11  13    3.91    1.78
  -5  11  13    0.80    1.06
  -5 -11  13    6.74    2.81
  -5 -11  12    8.53    2.80
  -5  11  12    1.38    0.99
  -5 -11  12    4.76    1.61
  -5 -11  11    4.20    1.52
  -5  11  11    4.80    1.61
  -5 -11  11    3.05    1.80
  -5 -11  10    3.55    1.93
  -5  11  10    1.50    0.85
  -5 -11  10    5.33    2.12
  -5 -11   9   27.18    6.32
  -5 -11   9   36.64    8.26
  -5 -11   8    4.71    2.29
  -5 -11   7   12.47    3.28
  -5 -11   6    2.13    1.31
  -5 -11   5    2.44    1.38
   5  11  -5    3.09    1.47
  -5 -11   4   40.79    5.00
   5  11  -4   36.69    6.44
  -5 -11   3    4.55    2.65
   5  11  -3    0.41    0.78
   5 -11  -2    6.29    2.00
  -5 -11   2    7.25    2.82
   5  11  -2    7.78    2.85
   5 -11  -1    9.83    2.47
  -5 -11   1   16.60    3.92
   5  11  -1   18.25    5.17
   5 -11   0    1.97    1.09
  -5 -11   0   11.71    3.30
   5  11   0    1.99    2.08
   5 -11   1   10.65    2.75
  -5 -11  -1    9.05    2.58
   5  11   1    8.28    1.92
   5 -11   2   13.77    4.43
  -5 -11  -2    9.00    2.69
   5  11   2   15.10    3.79
   5 -11   3    2.41    0.67
  -5 -11  -3    4.71    2.33
   5  11   3    3.46    2.03
   5 -11   4   12.49    3.95
  -5 -11  -4   26.77    3.38
   5  11   4   13.57    3.54
   5 -11   5    3.42    1.93
  -5 -11  -5    8.95    2.82
   5  11   5    3.39    1.92
   5 -11   6   14.19    4.92
  -5 -11  -6   18.36    3.12
   5  11   6   15.13    3.61
   5 -11   7   12.88    3.98
  -5 -11  -7    8.55    2.73
   5  11   7    8.46    2.50
   5 -11   8    2.75    1.93
  -5 -11  -8    4.49    2.01
   5  11   8    4.34    1.49
   5 -11   9    3.44    1.64
  -5 -11  -9    4.34    2.13
   5  11   9    0.41    1.33
   5 -11  10    2.46    1.96
  -5 -11 -10    3.24    2.06
   5  11  10    0.75    0.79
  -5 -12  12    1.56    1.27
  -5 -12  12    5.15    2.28
  -5 -12  11    2.59    1.35
  -5 -12  11    4.14    1.51
  -5 -12  10    3.06    1.84
  -5 -12  10    7.91    2.87
  -5 -12   9   29.30    6.64
  -5 -12   9   23.94    5.34
  -5 -12   8    3.44    1.44
  -5 -12   7    3.94    2.28
  -5 -12   6    7.00    2.08
  -5 -12   5   12.30    3.31
   5  12  -5   15.84    3.97
  -5 -12   4    9.22    2.82
   5  12  -4    2.52    0.79
  -5 -12   3   42.15    3.46
   5  12  -3   35.11    6.72
  -5 -12   2    9.84    3.13
   5  12  -2    5.40    1.96
   5 -12  -1   23.74    3.48
  -5 -12   1   36.58    3.28
   5  12  -1   27.94    4.34
   5 -12   0    5.54    1.77
  -5 -12   0    5.12    2.51
   5  12   0    6.59    2.01
   5 -12   1   18.80    4.65
  -5 -12  -1   31.28    4.26
   5  12   1   27.89    6.21
   5 -12   2    1.42    0.81
  -5 -12  -2    5.34    2.61
   5  12   2    5.08    2.24
   5 -12   3   20.12    3.36
  -5 -12  -3   21.96    3.41
   5  12   3   11.79    3.63
   5 -12   4   15.51    4.85
  -5 -12  -4   13.26    3.85
   5  12   4   10.39    3.54
   5 -12   5    3.36    0.86
  -5 -12  -5    3.33    1.66
   5  12   5    1.90    1.80
   5 -12   6    5.47    2.19
  -5 -12  -6   10.87    3.81
   5  12   6    2.80    1.33
   5 -12   7   24.44    7.79
  -5 -12  -7   31.06    6.80
   5  12   7   22.85    7.35
   5 -12   8    2.33    1.24
  -5 -12  -8   10.26    3.64
   5  12   8    0.19    1.06
   5 -12   9    2.02    1.13
  -5 -12  -9    2.90    1.89
   5  12   9    1.36    0.70
  -5 -13  10    1.50    1.29
  -5 -13  10    5.22    2.49
  -5 -13   9    5.94    2.46
  -5 -13   9    1.33    1.38
  -5 -13   8    2.05    1.46
  -5 -13   7    7.60    2.72
  -5 -13   6    3.72    2.02
  -5 -13   5    2.14    1.45
   5  13  -5    4.68    1.80
  -5 -13   4    2.94    1.50
   5  13  -4    1.98    0.78
  -5 -13   3    1.92    1.34
   5  13  -3    2.38    1.20
  -5 -13   2    5.49    1.91
   5  13  -2   11.75    2.74
  -5 -13   1    9.08    2.81
   5  13  -1    5.05    1.05
  -5 -13   0   23.19    5.49
   5  13   0   17.56    4.83
   5 -13   1    0.24    0.43
  -5 -13  -1    2.22    1.31
   5  13   1    2.65    0.96
   5 -13   2    2.79    1.15
  -5 -13  -2    5.18    2.24
   5  13   2    5.41    1.93
   5 -13   3   36.40   10.09
  -5 -13  -3   47.86   10.02
   5  13   3   29.04    7.82
   5 -13   4    2.90    1.80
  -5 -13  -4   12.70    4.07
   5  13   4    2.86    1.58
   5 -13   5   23.61    6.05
  -5 -13  -5   36.43    7.81
   5  13   5   25.50    6.38
   5 -13   6    2.10    0.79
  -5 -13  -6    4.71    2.32
   5  13   6    2.72    1.14
   5 -13   7    1.15    0.90
  -5 -13  -7    3.00    2.04
   5  13   7    6.75    2.65
  -5 -14   8   -0.62    1.30
  -5 -14   7    2.01    1.33
  -5 -14   6   19.02    4.80
  -5 -14   5   25.10    5.67
   5  14  -5   21.68    4.97
  -5 -14   4   13.71    3.39
   5  14  -4   10.64    4.60
  -5 -14   3   27.29    6.37
   5  14  -3   17.53    4.08
  -5 -14   2    1.47    1.70
   5  14  -2    2.80    0.76
  -5 -14   1   30.36    6.63
   5  14  -1   17.66    4.64
  -5 -14   0    5.13    1.98
   5  14   0    2.90    2.27
  -5 -14  -1   10.12    3.54
   5  14   1    5.70    2.14
   5 -14   2    2.56    1.10
  -5 -14  -2   10.61    3.72
   5  14   2    3.15    1.39
   5 -14   3    0.74    1.50
  -5 -14  -3    1.57    1.80
   5  14   3    3.26    1.59
   5 -14   4    4.92    1.93
  -5 -14  -4   10.78    3.98
   5  14   4    3.91    1.76
   5 -14   5    1.29    1.02
  -5 -14  -5    2.11    1.68
   5  14   5    6.12    2.52
  -5 -15   4   43.08   11.45
   5  15  -4   31.98   10.90
  -5 -15   3    2.53    1.60
   5  15  -3    1.89    1.18
  -5 -15   2   25.62    7.12
   5  15  -2   17.38    6.68
  -5 -15   1   15.30    4.65
   5  15  -1   17.50    5.26
  -5 -15   0   -0.15    1.56
   5  15   0    1.38    0.97
  -5 -15  -1   13.84    4.50
   5  15   1   10.51    4.48
   5  15   2    1.59    1.28
  -6   0  16    3.92    2.18
  -6   0  15    3.57    1.41
  -6   0  14    2.70    1.29
  -6   0  13    3.30    1.34
  -6   0  12   22.02    2.52
  -6   0  11    0.55    1.06
  -6   0  10   51.80    5.86
  -6   0   9    2.14    1.33
  -6   0   8    3.56    1.31
  -6   0   8    3.46    1.73
  -6   0   7    2.92    1.09
  -6   0   7    3.53    1.65
  -6   0   6   68.13    6.13
  -6   0   6   60.29    5.79
  -6   0   5    1.41    0.83
  -6   0   5    4.11    1.72
  -6   0   4  142.14   12.23
  -6   0   3    2.16    1.36
  -6   0   2   82.94    6.92
  -6   0   1    1.43    0.78
   6   0  -1    4.30    1.80
  -6   0   0   86.67    7.25
   6   0   0  102.03   14.55
  -6   0  -1    0.98    0.92
   6   0   1    2.70    1.71
  -6   0  -2    6.45    2.04
   6   0   2    9.61    2.12
  -6   0  -3    0.64    0.92
   6   0   3    1.77    0.92
  -6   0  -4   20.30    4.20
   6   0   4   19.81    5.28
  -6   0  -5    1.95    1.17
   6   0   5    5.39    1.68
  -6   0  -6   29.42    6.06
   6   0   6   35.37    5.85
  -6   0  -7    0.29    1.11
   6   0   7    2.14    1.06
  -6   0  -8  104.09    4.44
   6   0   8   86.18   11.34
  -6   0  -9    2.92    1.80
   6   0   9    2.06    1.56
  -6   0 -10   44.90    5.24
   6   0  10   40.24    7.56
  -6   0 -11    0.52    1.20
   6   0  11    2.39    1.33
  -6   0 -12    5.84    2.71
   6   0  12    7.19    2.14
  -6   0 -13    0.02    1.07
   6   0  13    2.24    1.28
  -6   1  16    3.70    2.28
  -6  -1  16    4.55    2.41
  -6   1  15   11.68    3.64
  -6  -1  15   13.08    3.68
  -6   1  14    8.89    2.76
  -6  -1  14    2.07    1.22
  -6   1  13    0.94    1.14
  -6  -1  13    2.06    1.33
  -6   1  12    2.15    1.24
  -6  -1  12    7.28    2.42
  -6   1  11    4.79    1.96
  -6  -1  11    1.95    1.33
  -6   1  10   35.97    4.33
  -6  -1  10   39.67    4.91
  -6  -1   9    1.55    0.88
  -6   1   9    5.04    1.79
  -6  -1   9    3.50    1.67
  -6  -1   8  123.32   11.31
  -6   1   8  135.51   12.77
  -6  -1   8  118.73   11.21
  -6  -1   7   -0.02    0.68
  -6   1   7    0.91    0.84
  -6   1   7    1.28    1.04
  -6  -1   7    3.77    1.79
  -6  -1   6   27.39    4.73
  -6   1   6   28.09    4.76
  -6   1   6   27.10    4.75
  -6  -1   6   33.97    5.90
  -6  -1   5    8.49    1.86
  -6   1   5    9.77    2.01
  -6   1   5    7.34    1.92
  -6  -1   4    4.76    1.60
  -6   1   4    9.09    1.84
  -6   1   4    8.35    2.16
  -6  -1   3    1.86    0.94
  -6   1   3    4.77    1.48
  -6  -1   2   18.79    2.49
  -6   1   2   24.24    3.02
   6   1  -2   18.32    2.69
  -6  -1   1   87.75    7.37
  -6   1   1   90.86    7.51
   6   1  -1   96.28   13.69
  -6  -1   0   70.60    6.56
  -6   1   0   75.17    6.84
   6  -1   0   80.55   13.65
   6   1   0   94.28   14.06
  -6  -1  -1   74.88    6.99
  -6   1  -1   71.87    6.64
   6  -1   1   71.28   10.44
   6   1   1   76.78   12.13
  -6  -1  -2    1.91    1.11
  -6   1  -2    6.00    2.01
   6  -1   2    2.85    1.33
   6   1   2    4.41    2.10
  -6  -1  -3    5.36    2.03
  -6   1  -3    1.46    0.99
   6  -1   3    1.89    0.79
   6   1   3    2.47    1.02
  -6  -1  -4   41.69    4.66
  -6   1  -4   49.71    5.33
   6  -1   4   42.29    8.17
   6   1   4   39.64    7.77
  -6  -1  -5   18.38    3.86
  -6   1  -5   17.21    3.64
   6  -1   5   26.66    4.72
   6   1   5   18.86    5.34
  -6  -1  -6  111.61   10.95
  -6   1  -6  113.45   11.08
   6   1   6  119.53   16.54
  -6  -1  -7    8.48    2.38
  -6   1  -7    6.12    2.73
   6  -1   7    7.04    2.85
   6   1   7   10.18    2.58
  -6  -1  -8    6.61    2.43
  -6   1  -8    9.33    2.69
   6  -1   8    2.71    0.74
   6   1   8    4.22    1.92
  -6  -1  -9    0.56    1.30
  -6   1  -9   13.54    3.49
   6  -1   9    9.95    2.93
  -6  -1 -10    1.57    1.21
  -6   1 -10    0.38    1.23
   6  -1  10    1.78    1.55
   6   1  10    4.14    2.58
  -6  -1 -11   15.82    4.45
  -6   1 -11   17.51    2.49
   6   1  11   14.82    4.75
   6  -1  11    9.48    4.51
  -6  -1 -12    2.66    1.85
  -6   1 -12   -0.18    1.45
   6  -1  12    1.21    1.15
   6   1  12    1.66    1.33
  -6  -1 -13    4.13    2.55
  -6   1 -13    4.72    2.14
   6   1  13    3.66    1.79
   6  -1  13    2.42    1.28
  -6   2  16    1.75    1.27
  -6  -2  16    1.22    1.67
  -6   2  15    2.69    1.37
  -6  -2  15    4.61    1.67
  -6   2  14    3.22    1.92
  -6  -2  14    0.37    1.22
  -6   2  13    9.77    3.23
  -6  -2  13    2.11    1.19
  -6   2  12   28.95    2.83
  -6  -2  12   31.26    2.68
  -6   2  11   26.18    2.62
  -6  -2  11   22.41    2.57
  -6  -2  10   32.95    3.71
  -6   2  10   32.79    4.03
  -6  -2  10   35.39    4.40
  -6  -2   9    1.93    0.97
  -6   2   9    2.79    1.34
  -6  -2   9    3.60    1.34
  -6  -2   8    3.82    1.43
  -6   2   8    1.34    1.23
  -6  -2   8    5.22    1.85
  -6  -2   7    1.08    0.79
  -6   2   7    1.33    0.84
  -6   2   7    2.82    1.33
  -6  -2   7    4.97    2.10
  -6  -2   6    3.34    1.38
  -6   2   6    2.57    1.04
  -6   2   6    2.30    1.25
  -6  -2   5   76.34    6.92
  -6   2   5   69.34    6.20
  -6   2   5   83.99    7.65
  -6  -2   4    9.55    2.06
  -6   2   4    3.75    1.24
  -6   2   4    5.60    1.89
  -6  -2   3   19.76    3.62
  -6   2   3   23.75    4.10
  -6   2   3   17.15    3.28
  -6  -2   2    5.87    2.03
  -6   2   2    0.78    0.77
   6   2  -2    3.97    1.70
  -6  -2   1   29.09    5.14
  -6   2   1   27.95    4.87
   6   2  -1   33.97    7.37
  -6  -2   0    1.83    1.09
  -6   2   0    3.79    1.30
   6   2   0    7.56    2.28
  -6  -2  -1   10.53    2.20
  -6   2  -1    8.45    1.90
   6  -2   1   13.13    3.42
   6   2   1   10.63    2.27
  -6  -2  -2   43.88    4.55
  -6   2  -2   33.58    5.89
   6  -2   2   35.23    9.23
   6   2   2   33.59    7.26
  -6  -2  -3   52.75    5.46
  -6   2  -3   51.29    5.30
   6  -2   3   53.19    8.58
   6   2   3   66.10   10.44
  -6  -2  -4   39.16    4.38
  -6   2  -4   43.28    4.78
   6  -2   4   48.28    8.32
   6   2   4   48.50   10.23
  -6  -2  -5    3.79    1.42
  -6   2  -5   11.77    2.85
   6  -2   5    6.10    1.87
   6   2   5    4.82    1.97
  -6  -2  -6    9.58    2.56
  -6   2  -6    6.44    2.08
   6  -2   6    7.56    2.14
   6   2   6    9.09    2.20
  -6  -2  -7   37.18    4.49
   6  -2   7   34.22    5.63
   6   2   7   36.44    6.00
   6  -2   8    2.64    1.43
  -6  -2  -8    5.80    2.50
   6  -2   8    1.03    0.87
   6  -2   9   50.22    5.97
  -6  -2  -9   31.67    3.94
   6  -2   9   28.51    6.84
   6   2   9   31.04    5.48
   6  -2  10    2.72    1.63
  -6  -2 -10    3.08    1.37
   6  -2  10    4.26    1.64
   6   2  10    3.76    1.74
   6  -2  11    3.51    1.53
  -6  -2 -11    7.38    2.63
   6  -2  11    3.08    0.99
   6   2  11    3.14    0.92
   6  -2  12   52.51   10.86
  -6  -2 -12   36.10    7.61
   6  -2  12   22.31    6.67
   6   2  12   37.14   11.06
   6  -2  13    2.78    1.71
  -6  -2 -13    2.27    1.49
   6   2  13    5.64    2.29
  -6   3  16    8.05    2.83
  -6  -3  16    8.00    2.98
  -6   3  15    0.79    1.34
  -6  -3  15    5.07    2.18
  -6   3  14    9.85    3.00
  -6  -3  14    4.67    1.67
  -6   3  13   68.13   14.77
  -6  -3  13   61.06   13.29
  -6   3  12    2.37    1.36
  -6  -3  12    1.41    1.14
  -6   3  11   37.95    2.83
  -6  -3  11   28.64    2.74
  -6  -3  10    2.57    0.86
  -6   3  10    5.94    2.35
  -6  -3  10    5.06    2.11
  -6  -3   9   12.70    2.71
  -6   3   9   12.37    2.88
  -6  -3   9   18.37    4.04
  -6  -3   8   -0.30    0.66
  -6   3   8    3.64    1.74
  -6  -3   8    1.92    1.28
  -6  -3   7   17.01    3.50
  -6   3   7   23.30    4.88
  -6  -3   7   13.18    3.05
  -6  -3   6    8.97    2.14
  -6   3   6    5.82    1.42
  -6   3   6    4.00    1.34
  -6  -3   5   36.11    8.10
  -6   3   5   37.29    3.58
  -6   3   5   44.46    4.39
  -6  -3   4   13.60    2.75
  -6   3   4    7.69    1.64
  -6   3   4    4.72    1.50
  -6  -3   3   37.74    3.85
  -6   3   3   41.16    4.00
   6   3  -3   45.32    4.75
  -6   3   3   49.81    4.78
  -6  -3   2    5.21    1.71
  -6   3   2    4.07    1.33
   6   3  -2    8.94    2.59
  -6   3   2    5.04    1.60
  -6  -3   1    6.33    2.26
  -6   3   1    6.78    2.02
   6   3  -1    8.66    2.24
  -6  -3   0   32.36    5.62
  -6   3   0   36.64    8.17
   6   3   0   48.79    8.04
  -6  -3  -1    3.72    1.67
  -6   3  -1    1.75    0.88
   6   3   1    4.81    1.55
  -6  -3  -2    3.57    1.40
  -6   3  -2    1.58    1.09
   6  -3   2    2.26    1.28
   6   3   2    2.83    1.11
  -6  -3  -3   48.46    5.36
  -6   3  -3   47.10    5.01
   6  -3   3   59.73    8.80
   6   3   3   61.80    9.89
  -6  -3  -4    2.84    1.36
   6  -3   4    0.45    0.47
   6   3   4    0.03    1.42
   6  -3   5   41.68    5.00
  -6  -3  -5   29.94    4.36
   6  -3   5   27.47    5.87
   6   3   5   39.06    5.96
   6  -3   6    3.76    2.11
  -6  -3  -6    1.50    1.23
   6  -3   6    4.72    1.70
   6   3   6    5.50    2.48
   6  -3   7    3.06    1.36
  -6  -3  -7    3.45    1.51
   6  -3   7    6.63    2.23
   6   3   7    4.43    1.80
   6  -3   8    2.15    1.40
  -6  -3  -8    3.15    1.61
   6  -3   8    5.79    2.10
   6   3   8    7.10    2.57
   6  -3   9    3.25    1.44
  -6  -3  -9    1.14    1.12
   6  -3   9    2.78    0.92
   6   3   9    6.99    2.26
   6  -3  10   28.36    8.87
  -6  -3 -10   26.03    6.18
   6  -3  10   15.32    4.04
   6   3  10   23.00    6.28
   6  -3  11   19.30    6.50
  -6  -3 -11   25.17    5.60
   6   3  11   22.55    7.03
   6  -3  12    4.33    1.86
  -6  -3 -12    4.97    2.03
   6   3  12    3.70    2.19
   6  -3  13   16.40    5.56
  -6  -3 -13   12.88    3.88
   6   3  13   18.96    6.19
  -6  -4  16    2.60    1.62
  -6   4  15    0.52    1.41
  -6  -4  15    3.40    1.99
  -6   4  14   -0.10    1.13
  -6  -4  14    1.40    1.27
  -6   4  13    9.73    2.72
  -6  -4  13    6.02    2.13
  -6   4  12    4.97    2.35
  -6  -4  12    4.46    2.63
  -6  -4  11    3.38    1.43
  -6   4  11    2.18    1.18
  -6  -4  11    5.36    2.32
  -6  -4  10    2.81    0.91
  -6   4  10    3.10    1.77
  -6  -4  10    6.55    2.64
  -6  -4   9   60.69    6.43
  -6   4   9   58.53    6.35
  -6  -4   9   57.68    6.33
  -6  -4   8    2.86    1.04
  -6   4   8    6.16    1.87
  -6  -4   8    1.34    1.19
  -6  -4   7   77.56    7.66
  -6   4   7   81.30    8.02
  -6  -4   6   15.90    3.27
  -6   4   6   22.31    4.52
  -6  -4   5    1.11    1.00
  -6   4   5    3.30    1.19
  -6   4   5    1.25    1.20
  -6  -4   4   33.49    3.74
  -6   4   4   31.70    3.29
  -6   4   4   43.47    4.57
  -6  -4   3   70.32    6.69
  -6   4   3   56.32    5.15
   6   4  -3   82.23    7.85
  -6   4   3   46.67    4.45
  -6  -4   2    3.44    1.72
  -6   4   2    2.43    1.22
   6   4  -2    4.79    2.35
  -6   4   2    3.16    1.38
  -6  -4   1    7.99    1.97
  -6   4   1   10.34    2.14
   6   4  -1    7.74    2.28
  -6   4   1    8.34    1.75
  -6  -4   0   15.67    3.10
  -6   4   0   14.01    2.69
   6   4   0   17.39    4.15
  -6  -4  -1   14.46    3.14
  -6   4  -1   12.86    2.71
   6   4   1   19.92    4.25
  -6  -4  -2    1.03    1.09
  -6   4  -2    6.50    2.01
   6   4   2    5.71    1.91
   6  -4   3   25.90    3.39
  -6  -4  -3   17.28    3.68
   6  -4   3   23.88    4.76
   6   4   3   27.40    5.06
   6  -4   4   65.45    6.83
  -6  -4  -4   42.09    4.75
   6  -4   4   43.61    7.07
   6   4   4   52.67    7.90
   6  -4   5  157.82   19.56
  -6  -4  -5  141.79   13.66
   6  -4   5  159.76   19.89
   6   4   5  171.15   21.16
   6  -4   6    5.23    2.48
  -6  -4  -6    4.09    2.41
   6  -4   6    2.27    1.17
   6   4   6    1.49    1.09
   6  -4   7   17.68    4.09
  -6  -4  -7   15.32    3.91
   6  -4   7   11.46    3.53
   6   4   7    8.93    2.79
   6  -4   8   13.88    3.88
  -6  -4  -8   10.25    2.91
   6  -4   8    9.95    2.82
   6   4   8   17.74    4.83
   6  -4   9   10.27    2.70
  -6  -4  -9   11.68    2.95
   6   4   9   14.43    4.73
   6  -4  10    9.67    2.60
  -6  -4 -10    7.27    2.34
   6   4  10    7.37    2.92
   6  -4  11    4.30    2.17
   6   4  11    7.96    2.68
   6  -4  12   25.50    8.56
  -6  -4 -12   26.25    7.14
   6   4  12   30.30    9.89
  -6   5  15    6.62    2.65
  -6  -5  15    3.62    1.96
  -6  -5  14    4.77    2.28
  -6   5  13   30.51    6.56
  -6  -5  13   27.15    6.03
  -6  -5  12   21.03    4.90
  -6   5  12   20.76    4.92
  -6  -5  12   17.13    4.42
  -6  -5  11  110.20    4.00
  -6   5  11  108.01   10.93
  -6  -5  11  108.90   11.00
  -6  -5  10    1.61    0.92
  -6   5  10    1.77    1.76
  -6  -5  10    2.00    1.24
  -6  -5   9   17.52    3.31
  -6   5   9   23.77    4.55
  -6  -5   9   18.84    3.89
  -6  -5   8   17.80    3.38
  -6   5   8   23.72    4.34
  -6  -5   8   17.37    3.43
  -6  -5   7    0.45    0.77
  -6   5   7    3.93    1.19
  -6  -5   6    5.34    1.94
  -6   5   6    4.65    1.31
  -6  -5   5    6.62    1.93
  -6   5   5    1.65    1.08
  -6  -5   4   11.11    2.48
  -6   5   4   12.13    2.48
   6   5  -4   17.65    3.90
  -6   5   4   13.66    2.91
  -6  -5   3   45.47    4.82
  -6   5   3   37.54    3.83
   6   5  -3   54.80    8.50
  -6   5   3   40.37    4.22
  -6  -5   2   22.05    4.43
  -6   5   2   23.72    2.68
   6   5  -2   29.89    5.97
  -6   5   2   30.49    3.38
  -6  -5   1    7.05    2.30
  -6   5   1    3.10    1.34
   6   5  -1    2.75    1.52
  -6   5   1    2.34    1.08
  -6  -5   0    6.33    1.88
  -6   5   0    7.82    1.92
   6   5   0    6.04    2.24
  -6   5   0    5.50    1.42
  -6  -5  -1    2.43    1.19
   6   5   1    2.11    1.67
   6  -5   2    3.51    1.38
  -6  -5  -2    9.22    2.45
   6   5   2    8.75    3.46
   6  -5   3   33.22    3.87
  -6  -5  -3   25.31    5.08
   6   5   3   33.38    5.17
   6  -5   4    2.22    1.45
  -6  -5  -4    2.11    1.27
   6  -5   4    0.77    0.66
   6   5   4    2.94    1.21
   6  -5   5   -0.06    1.02
  -6  -5  -5    1.29    1.38
   6  -5   5    2.60    0.99
   6   5   5    1.95    1.64
   6  -5   6    4.07    1.90
  -6  -5  -6    5.04    2.19
   6   5   6    3.24    1.47
   6  -5   7    1.75    1.46
  -6  -5  -7    3.52    1.97
   6   5   7    6.37    2.08
   6  -5   8   27.03    4.88
  -6  -5  -8   21.47    3.17
   6   5   8   19.44    6.11
   6  -5   9    4.04    1.64
  -6  -5  -9   10.43    2.90
   6   5   9    8.69    2.87
   6  -5  10    5.60    2.09
  -6  -5 -10   -0.10    1.11
   6   5  10    7.71    3.48
   6  -5  11    2.82    2.55
  -6  -5 -11    3.31    1.55
   6   5  11    3.46    1.53
   6  -5  12   -0.59    1.44
  -6  -5 -12    0.23    1.42
   6   5  12    2.19    1.13
  -6  -6  15    1.86    1.57
  -6   6  14    1.97    1.28
  -6  -6  14    6.18    2.43
  -6   6  13   41.46    8.63
  -6  -6  13   52.51   10.95
  -6  -6  12    2.96    1.25
  -6   6  12    1.65    1.20
  -6  -6  12    6.21    2.03
  -6  -6  11    5.81    2.30
  -6   6  11    8.25    2.30
  -6  -6  11    7.62    2.62
  -6  -6  10    4.33    1.99
  -6   6  10    9.16    2.41
  -6  -6  10    3.04    1.41
  -6  -6   9   39.43    2.71
  -6   6   9   53.30    3.11
  -6  -6   9   38.26    2.96
  -6  -6   8    4.16    1.66
  -6   6   8    0.72    1.03
  -6  -6   8    5.04    2.52
  -6  -6   7   49.91    5.52
  -6   6   7   66.08    7.06
  -6  -6   6   13.58    2.95
  -6   6   6   16.52    3.43
  -6  -6   5    5.47    1.82
  -6   6   5    4.02    1.26
  -6  -6   4    5.35    1.71
   6   6  -4    7.53    2.25
  -6   6   4    8.52    2.01
  -6  -6   3   11.97    2.76
  -6   6   3    4.66    1.18
   6   6  -3   15.44    3.84
  -6   6   3   13.71    2.85
  -6  -6   2    2.75    1.35
  -6   6   2    0.98    0.62
   6   6  -2    2.36    0.90
  -6   6   2    2.46    1.05
  -6  -6   1   18.10    3.76
  -6   6   1   16.94    3.31
   6   6  -1   23.91    5.62
  -6   6   1   16.50    3.24
  -6  -6   0    1.83    1.26
   6   6   0    7.15    2.07
  -6   6   0    4.96    1.42
   6  -6   1   57.69    5.92
  -6  -6  -1   45.38    5.04
   6   6   1   61.13   10.62
  -6   6  -1   42.78    4.34
   6  -6   2    3.18    1.06
  -6  -6  -2    6.58    2.24
   6   6   2    6.10    2.15
   6  -6   3   23.61    5.10
  -6  -6  -3   17.60    3.56
   6   6   3   20.52    6.18
   6  -6   4   15.92    3.83
  -6  -6  -4   10.44    2.48
   6   6   4    9.36    2.79
   6  -6   5  104.76   15.30
  -6  -6  -5   88.29    9.33
   6   6   5   97.11   16.00
   6  -6   6    3.52    1.38
  -6  -6  -6    5.56    2.35
   6   6   6    5.37    1.77
   6  -6   7   21.79    3.88
  -6  -6  -7   24.76    3.56
   6   6   7   19.66    5.40
   6  -6   8   19.06    6.25
  -6  -6  -8   15.86    4.06
   6   6   8   23.78    6.39
   6  -6   9    3.69    1.63
  -6  -6  -9    1.50    1.25
   6   6   9    3.40    1.07
   6  -6  10   20.68    7.14
  -6  -6 -10   23.84    5.35
   6   6  10   26.32    7.51
   6  -6  11    7.62    3.32
  -6  -6 -11   18.22    5.37
   6   6  11   10.98    3.89
  -6   7  14    2.31    1.60
  -6  -7  14    5.95    2.88
  -6  -7  13    5.37    2.18
  -6   7  13    2.79    1.33
  -6  -7  13    8.55    3.64
  -6  -7  12    5.60    1.60
  -6   7  12    9.22    2.78
  -6  -7  12   15.63    4.56
  -6  -7  11   14.08    3.56
  -6   7  11   16.93    4.23
  -6  -7  11    8.09    2.31
  -6  -7  10    4.94    2.39
  -6   7  10    5.75    2.55
  -6  -7  10    2.85    1.58
  -6  -7   9   11.44    2.76
  -6   7   9    9.33    2.63
  -6  -7   9   10.93    2.90
  -6  -7   8   32.21    2.50
  -6   7   8   34.82    2.72
  -6  -7   7    2.85    1.15
  -6   7   7    3.31    1.48
  -6  -7   6   18.06    3.60
  -6   7   6   16.79    3.17
  -6  -7   5    5.34    2.00
  -6   7   5   13.63    2.71
  -6  -7   4   21.03    4.06
   6   7  -4   28.91    2.70
  -6   7   4   27.58    4.79
  -6  -7   3    8.24    2.62
   6   7  -3    5.85    2.32
  -6   7   3    6.14    1.66
  -6  -7   2   12.66    2.99
  -6   7   2   10.86    2.29
   6   7  -2   13.81    3.56
  -6   7   2   12.46    2.58
  -6  -7   1    7.57    2.72
   6   7  -1    6.13    2.22
  -6   7   1    2.20    1.18
   6  -7   0    0.74    0.72
  -6  -7   0    0.77    1.47
   6   7   0    1.23    2.32
   6  -7   1   16.00    4.62
  -6  -7  -1   16.40    3.37
   6   7   1   20.67    4.60
   6  -7   2    2.38    1.11
  -6  -7  -2    6.38    2.76
   6   7   2    7.29    2.88
   6  -7   3   43.62    7.34
  -6  -7  -3   33.06    4.27
   6   7   3   30.16    5.15
   6  -7   4    2.58    1.33
  -6  -7  -4    3.89    1.83
   6   7   4    1.49    1.21
   6  -7   5   -0.17    1.04
  -6  -7  -5    1.19    1.23
   6   7   5    2.24    1.61
   6  -7   6    4.89    2.74
  -6  -7  -6    9.73    2.68
   6   7   6    3.65    1.90
   6  -7   7    8.57    2.65
  -6  -7  -7    9.45    2.88
   6   7   7   15.28    4.12
   6  -7   8   15.54    4.06
  -6  -7  -8   18.65    4.64
   6   7   8   21.89    5.68
   6  -7   9    6.65    2.24
   6   7   9   12.07    3.81
   6  -7  10    1.31    1.32
  -6  -7 -10    3.20    1.52
   6   7  10    5.20    2.68
   6  -7  11    6.17    2.46
  -6  -7 -11    1.84    1.46
   6   7  11    1.81    1.17
  -6  -8  13   23.52    6.48
  -6   8  13   27.92    7.43
  -6  -8  13   26.41    7.21
  -6  -8  12    1.05    0.93
  -6   8  12    1.95    1.11
  -6  -8  12    4.37    2.14
  -6  -8  11    4.57    1.78
  -6   8  11    6.73    2.38
  -6  -8  11    6.49    2.28
  -6  -8  10    2.41    1.12
  -6   8  10    3.05    1.12
  -6  -8  10    3.55    2.40
  -6  -8   9    0.81    0.96
  -6   8   9    2.07    0.96
  -6  -8   9   -0.33    1.32
  -6  -8   8    4.24    2.05
  -6   8   8    6.33    1.75
  -6  -8   7   18.88    2.42
  -6   8   7   12.79    3.09
  -6  -8   6   17.95    4.29
  -6   8   6    8.85    2.23
  -6  -8   5    3.71    1.66
   6   8  -5    1.24    1.29
  -6   8   5    1.43    0.98
  -6  -8   4    0.41    1.20
   6   8  -4    0.49    1.22
  -6  -8   3    4.51    1.94
   6   8  -3    1.89    1.36
  -6  -8   2   70.49    7.62
   6   8  -2   87.70   13.76
   6  -8  -1   43.70    4.73
  -6  -8   1   32.16    4.13
   6   8  -1   32.10    5.41
   6  -8   0  110.88   14.76
  -6  -8   0  118.81   12.19
   6   8   0  125.78   21.17
   6  -8   1    4.16    1.81
  -6  -8  -1    1.48    1.86
   6   8   1    5.30    2.39
   6  -8   2    2.50    1.28
  -6  -8  -2    1.06    1.42
   6   8   2    3.39    1.65
   6  -8   3    4.67    2.32
  -6  -8  -3    4.54    2.00
   6   8   3    5.60    2.50
   6  -8   4    0.83    1.07
  -6  -8  -4    4.58    2.35
   6   8   4    7.55    2.13
   6  -8   5   43.23    8.32
  -6  -8  -5   47.89    5.56
   6   8   5   48.50    9.54
   6  -8   6    4.24    1.64
  -6  -8  -6    6.77    2.43
   6   8   6    6.11    2.41
   6  -8   7    4.51    1.38
  -6  -8  -7    8.54    2.36
   6   8   7   15.93    4.89
   6  -8   8    7.63    2.66
  -6  -8  -8    0.98    1.24
   6   8   8   14.07    4.26
   6  -8   9    3.75    1.50
  -6  -8  -9    0.63    1.33
   6   8   9    1.84    1.24
   6  -8  10   23.41    7.54
  -6  -8 -10   30.35    8.15
   6   8  10   27.64    9.29
  -6  -9  12    1.79    1.07
  -6   9  12    1.88    1.19
  -6  -9  12    4.26    2.09
  -6  -9  11    0.19    1.02
  -6   9  11    2.21    1.14
  -6  -9  11    1.31    1.31
  -6  -9  10    9.54    2.87
  -6   9  10    8.14    2.60
  -6  -9  10    9.56    3.06
  -6  -9   9    3.09    1.86
  -6   9   9    0.96    0.89
  -6  -9   9    4.03    1.83
  -6  -9   8   52.17   11.43
  -6  -9   7   16.18    2.08
  -6  -9   6   68.04    7.39
  -6  -9   5   27.66    3.66
   6   9  -5   27.48    3.70
  -6  -9   4    1.11    1.19
   6   9  -4    4.63    1.95
  -6  -9   3   17.52    4.17
   6   9  -3   27.23    4.73
  -6  -9   2    3.47    2.22
   6   9  -2    1.75    0.94
   6  -9  -1    1.70    0.70
  -6  -9   1   -0.01    1.12
   6   9  -1    0.90    1.31
   6  -9   0    1.34    0.66
  -6  -9   0    2.38    1.27
   6   9   0    1.48    1.33
   6  -9   1   10.06    3.16
  -6  -9  -1   12.82    3.45
   6   9   1   13.94    4.78
   6  -9   2   23.47    4.47
  -6  -9  -2   23.64    3.36
   6   9   2   31.57    5.94
   6  -9   3    1.75    0.84
  -6  -9  -3    6.73    2.34
   6   9   3    1.83    1.62
   6  -9   4    6.01    1.91
  -6  -9  -4    2.74    1.41
   6   9   4    6.80    1.91
   6  -9   5    2.34    0.95
  -6  -9  -5    2.97    2.07
   6   9   5    1.28    1.08
   6  -9   6    4.85    2.36
  -6  -9  -6    9.05    2.97
   6   9   6   10.14    3.15
   6  -9   7    0.99    0.96
  -6  -9  -7   -1.19    1.36
   6  -9   8   45.05   11.50
  -6  -9  -8   40.10    8.65
   6   9   8   44.29   11.29
   6  -9   9   35.10   10.84
  -6  -9  -9   46.92   12.15
   6   9   9   32.90   10.94
  -6 -10  11   16.34    4.64
  -6 -10  11   13.13    3.98
  -6 -10  10   39.88    8.31
  -6 -10  10   56.17   11.59
  -6 -10   9    4.40    1.81
  -6 -10   9    3.16    1.67
  -6 -10   8    1.91    1.24
  -6 -10   7   11.68    3.31
  -6 -10   6   82.63   17.84
  -6 -10   5   47.88   10.65
   6  10  -5   30.52    7.10
  -6 -10   4   72.02   15.60
   6  10  -4   82.22   21.48
  -6 -10   3    3.54    2.30
   6  10  -3    5.15    2.11
  -6 -10   2    7.44    2.27
   6  10  -2   13.77    3.56
  -6 -10   1    6.60    2.43
   6  10  -1   13.04    3.64
   6 -10   0    0.13    0.91
  -6 -10   0    5.06    2.60
   6  10   0    1.86    0.70
   6 -10   1    1.53    1.12
  -6 -10  -1    3.54    1.56
   6  10   1    3.96    1.22
   6 -10   2    5.47    1.89
  -6 -10  -2    5.35    2.16
   6  10   2    9.57    2.88
   6 -10   3    0.75    0.85
  -6 -10  -3    5.74    2.60
   6  10   3    1.74    1.05
   6 -10   4   16.20    4.46
  -6 -10  -4   17.42    2.73
   6  10   4   14.56    4.06
   6 -10   5   19.86    6.85
  -6 -10  -5   22.90    5.15
   6  10   5   26.15    7.58
   6 -10   6    2.39    0.76
  -6 -10  -6    2.80    1.64
   6  10   6    6.03    2.51
   6 -10   7   23.08    6.36
  -6 -10  -7   16.82    4.16
   6  10   7   10.10    3.51
   6 -10   8    1.91    1.28
  -6 -10  -8    3.03    2.11
   6  10   8    3.59    2.27
  -6 -11   9    4.68    2.03
  -6 -11   9    3.05    2.40
  -6 -11   8   30.60    6.63
  -6 -11   7    4.46    2.07
  -6 -11   6    7.81    2.96
  -6 -11   5   50.72   10.46
   6  11  -5   57.52   11.79
  -6 -11   4    1.95    1.96
   6  11  -4    2.77    1.13
  -6 -11   3   43.12    8.95
   6  11  -3   36.68    9.42
  -6 -11   2    3.98    2.16
   6  11  -2    1.60    0.99
  -6 -11   1   13.26    3.86
   6  11  -1   12.98    4.06
  -6 -11   0    4.58    2.09
   6  11   0    9.00    3.23
  -6 -11  -1   29.68    6.41
   6  11   1   30.49    7.35
   6 -11   2    0.94    0.70
  -6 -11  -2    5.35    1.82
   6  11   2    3.68    1.12
   6 -11   3    2.84    1.25
  -6 -11  -3    2.76    1.73
   6  11   3    7.04    2.13
   6 -11   4    0.60    0.86
  -6 -11  -4    4.81    2.15
   6  11   4    2.96    1.04
   6 -11   5    3.95    1.72
  -6 -11  -5    2.36    1.66
   6  11   5    4.65    2.11
   6 -11   6   25.60    7.00
  -6 -11  -6   17.25    5.11
   6  11   6   22.92    6.66
  -6 -12   7   18.53    5.38
  -6 -12   6    3.97    1.91
  -6 -12   5   15.20    3.88
   6  12  -5    8.55    2.83
  -6 -12   4    4.79    2.21
   6  12  -4    3.88    1.64
  -6 -12   3   14.65    3.85
   6  12  -3   16.73    5.61
  -6 -12   2    6.76    2.84
   6  12  -2    6.48    2.47
  -6 -12   1    6.87    2.37
   6  12  -1   10.63    3.79
  -6 -12   0   16.20    4.08
   6  12   0   18.25    4.79
  -6 -12  -1    4.70    2.39
   6  12   1    1.49    1.38
  -6 -12  -2   18.36    4.47
   6 -12   3   33.45   10.89
  -6 -12  -3   29.85    8.02
   6  12   3   29.44    8.85
   6 -12   4    2.50    0.96
  -6 -12  -4    2.11    1.67
   6  12   4    4.29    2.03
   6  13  -4    1.29    1.48
  -6 -13   3    2.97    1.80
   6  13  -3    1.88    1.80
  -6 -13   2    5.60    2.61
   6  13  -2    2.43    1.66
  -6 -13   1   23.41    6.75
   6  13  -1   18.01    5.25
  -6 -13   0   10.34    3.61
   6  13   0    8.30    2.86
  -7   0  13    5.47    2.18
  -7   0  12    5.73    2.06
  -7   0  11    0.64    1.19
  -7   0  10    2.58    1.22
  -7   0   9    2.70    1.30
  -7   0   8    6.13    2.46
  -7   0   7    2.51    1.19
  -7   0   6   13.94    3.69
  -7   0   5    1.76    0.82
  -7   0   5    2.44    1.12
  -7   0   4   33.43    2.18
  -7   0   3    3.17    1.41
  -7   0   2    1.97    0.87
  -7   0   1    2.79    1.07
  -7   0   0    2.41    1.41
   7   0   0    2.80    1.21
  -7   0  -1    2.93    1.37
   7   0   1    1.66    1.27
  -7   0  -2    2.14    1.10
   7   0   2    9.37    3.37
  -7   0  -3    2.17    1.02
   7   0   3    6.74    2.77
  -7   0  -4   45.53    5.19
   7   0   4   47.59   10.29
  -7   0  -5    2.10    1.34
   7   0   5    2.32    1.47
  -7   0  -6    5.87    1.97
   7   0   6    3.61    1.88
  -7   0  -7    1.47    1.56
   7   0   7    1.79    0.98
  -7   0  -8    3.02    1.86
   7   0   8    4.12    1.37
  -7   0  -9    2.77    1.57
   7   0   9    2.62    1.70
  -7   1  13    4.40    2.26
  -7  -1  13    1.31    1.24
  -7   1  12   27.23    5.99
  -7  -1  12   28.72    6.17
  -7   1  11    1.00    1.21
  -7  -1  11    5.02    1.68
  -7   1  10   21.44    5.02
  -7  -1  10   20.50    4.62
  -7   1   9    5.55    2.09
  -7  -1   9    4.62    1.52
  -7   1   8   46.71    5.26
  -7  -1   8   45.90    5.35
  -7   1   7    8.95    2.31
  -7  -1   7    9.13    2.40
  -7  -1   6    1.95    0.84
  -7   1   6    3.28    1.37
  -7  -1   6    1.25    1.05
  -7  -1   5   58.16    2.87
  -7   1   5   43.61    2.41
  -7   1   5   51.10    3.02
  -7  -1   5   51.38    3.13
  -7  -1   4   61.03    2.89
  -7   1   4   56.81    2.63
  -7   1   4   68.36    3.40
  -7  -1   3    6.55    1.98
  -7   1   3    1.34    0.81
  -7  -1   2    6.92    2.23
  -7   1   2    7.12    2.13
  -7  -1   1    1.69    1.00
  -7   1   1    4.17    1.90
   7   1  -1    5.59    2.42
  -7  -1   0   13.21    3.21
  -7   1   0   18.06    4.28
   7   1   0   20.38    2.40
  -7  -1  -1   12.61    3.29
  -7   1  -1    9.82    2.81
   7  -1   1    4.60    1.87
   7   1   1   13.30    4.10
  -7  -1  -2  130.59    4.73
  -7   1  -2  127.66    4.55
   7  -1   2  138.91   16.24
   7   1   2  133.10   14.98
  -7  -1  -3    9.99    2.75
  -7   1  -3    8.71    2.40
   7  -1   3   11.24    2.91
   7   1   3    6.71    2.24
  -7  -1  -4   82.99    8.69
  -7   1  -4   83.70    8.64
   7  -1   4   72.06   12.89
   7   1   4   81.11   13.05
  -7  -1  -5   35.47    8.05
  -7   1  -5   40.73    9.15
   7  -1   5   30.77    7.88
   7   1   5   36.21   11.12
  -7  -1  -6   16.18    4.08
  -7   1  -6   15.58    3.84
   7  -1   6   19.76    5.72
   7   1   6   24.92    7.51
  -7  -1  -7   41.20    8.60
  -7   1  -7   35.01    7.51
   7  -1   7   35.90    9.74
   7   1   7   31.09    7.63
  -7  -1  -8    1.26    1.19
  -7   1  -8    1.19    1.27
   7  -1   8    2.08    1.29
   7   1   8    0.75    1.01
  -7  -1  -9    3.54    2.17
  -7   1  -9    0.81    1.28
   7  -1   9    2.79    1.31
   7   1   9   12.53    3.75
  -7   2  13    6.88    2.69
  -7  -2  13    3.70    2.02
  -7   2  12    0.61    1.21
  -7  -2  12    2.80    1.37
  -7   2  11   10.55    3.11
  -7  -2  11    7.78    2.43
  -7   2  10   -0.06    1.05
  -7  -2  10    1.49    1.07
  -7   2   9   39.48    8.80
  -7  -2   9   38.36    8.51
  -7   2   8    3.39    1.70
  -7  -2   7    5.95    2.38
  -7   2   7   14.10    3.36
  -7  -2   7    7.01    2.12
  -7  -2   6   11.74    2.73
  -7   2   6   18.89    2.81
  -7  -2   6   10.06    2.62
  -7  -2   5   13.58    3.31
  -7   2   5   22.89    2.23
  -7  -2   4    2.32    1.05
  -7   2   4    1.86    0.88
  -7   2   4    1.33    1.03
  -7  -2   3    9.07    2.36
  -7   2   3    5.55    1.85
  -7   2   3   11.55    2.89
  -7  -2   2    1.71    1.01
  -7   2   2    3.74    1.64
  -7  -2   1   23.51    2.38
  -7   2   1   14.24    3.45
   7   2  -1   26.44    2.43
  -7  -2   0   55.03    3.18
  -7   2   0   49.03    2.84
   7   2   0   57.46   10.70
  -7  -2  -1   31.18    2.52
  -7   2  -1   25.96    2.41
   7   2   1   35.15    5.30
  -7  -2  -2   12.62    3.12
  -7   2  -2    7.65    2.25
   7  -2   2   11.74    2.97
   7   2   2   12.07    3.85
  -7  -2  -3   84.15    8.70
  -7   2  -3   70.83    7.35
   7  -2   3   87.64   11.78
   7   2   3   81.16   12.79
  -7  -2  -4    1.49    1.23
  -7   2  -4    5.92    2.35
   7  -2   4    4.85    2.00
   7   2   4    5.82    2.42
  -7  -2  -5   40.35    8.98
  -7   2  -5   23.67    5.45
   7  -2   5   29.10    8.21
   7   2   5   35.37   10.24
  -7  -2  -6   10.84    3.14
  -7   2  -6   10.79    3.16
   7  -2   6   10.81    3.71
   7   2   6   11.76    3.57
  -7  -2  -7    2.32    1.29
  -7   2  -7    7.11    2.80
   7  -2   7    3.92    1.31
   7   2   7    2.83    1.67
  -7  -2  -8    9.81    3.12
  -7   2  -8    9.55    3.01
   7   2   8    9.88    3.19
  -7  -2  -9    7.51    2.98
  -7   2  -9    7.38    2.83
   7   2   9    7.37    3.41
  -7   3  13    2.29    1.37
  -7  -3  13    1.71    1.35
  -7   3  12    5.13    2.07
  -7  -3  12   10.02    3.41
  -7   3  11    4.02    1.86
  -7  -3  11    2.65    1.33
  -7   3  10    4.20    1.76
  -7  -3  10    0.74    1.12
  -7   3   9   31.91    7.28
  -7  -3   9   25.97    6.07
  -7  -3   8    1.48    0.90
  -7   3   8    3.27    1.61
  -7  -3   8    0.94    1.57
  -7  -3   7   50.30    5.49
  -7   3   7   54.68    5.95
  -7  -3   7   54.93    6.04
  -7  -3   6   13.75    3.30
  -7   3   6   13.18    3.13
  -7  -3   5    2.10    1.04
  -7   3   5    3.99    1.87
  -7  -3   4   16.61    3.88
  -7   3   4   10.47    2.69
  -7  -3   3   22.62    2.17
  -7   3   3   20.60    1.70
  -7   3   3   21.19    2.06
  -7  -3   2    2.00    1.07
  -7   3   2    0.48    0.67
   7   3  -2    5.35    2.30
  -7   3   2    2.35    1.08
  -7  -3   1   47.64    3.17
  -7   3   1   48.82    2.85
   7   3  -1   46.07    6.42
  -7  -3   0   20.59    2.27
  -7   3   0   19.41    2.03
   7   3   0   22.35    5.89
  -7  -3  -1    6.72    1.97
  -7   3  -1    2.64    1.32
   7   3   1    3.09    1.22
  -7  -3  -2   72.98    7.67
  -7   3  -2   60.97    6.41
   7   3   2   78.93   11.97
  -7  -3  -3    1.92    1.29
  -7   3  -3   -0.29    0.87
   7  -3   3    2.43    1.47
   7   3   3    3.75    1.83
  -7  -3  -4   24.68    5.73
  -7   3  -4   24.08    5.59
   7  -3   4   23.02    6.98
   7   3   4   28.72    7.46
  -7  -3  -5    0.37    1.25
  -7   3  -5    5.54    1.70
   7  -3   5    0.73    1.22
   7   3   5    1.94    1.46
  -7  -3  -6    1.58    1.36
  -7   3  -6    5.57    2.16
   7  -3   6    1.51    0.65
   7   3   6    0.64    0.99
  -7  -3  -7   72.34    4.21
  -7   3  -7   67.42   13.56
   7   3   7   69.52   17.95
  -7  -3  -8    5.83    2.71
  -7   3  -8    7.56    2.63
   7   3   8    6.76    3.01
  -7  -3  -9   48.01   12.33
  -7   3  -9   48.65   12.55
   7   3   9   25.96    9.58
  -7   4  12    3.56    2.05
  -7  -4  12   -0.66    1.23
  -7   4  11   25.66    5.78
  -7  -4  11   25.77    5.66
  -7   4  10   23.12    5.09
  -7  -4  10   32.68    6.91
  -7   4   9    7.96    2.58
  -7  -4   9   10.48    3.01
  -7  -4   8    0.63    0.75
  -7   4   8    2.36    1.19
  -7  -4   8    1.27    1.18
  -7  -4   7    2.16    1.20
  -7   4   7    1.70    0.76
  -7  -4   7    2.52    1.26
  -7  -4   6   12.58    2.94
  -7   4   6   10.25    2.47
  -7  -4   5   -0.14    0.90
  -7   4   5    3.76    1.84
  -7  -4   4    1.83    0.99
  -7   4   4    3.65    1.99
  -7  -4   3    6.48    2.06
  -7   4   3    9.86    2.40
  -7  -4   2    1.78    1.00
  -7   4   2    2.00    0.75
   7   4  -2   -1.75    1.35
  -7   4   2    1.84    1.20
  -7  -4   1    1.69    1.13
  -7   4   1    2.72    1.05
   7   4  -1    3.88    1.61
  -7   4   1    1.92    1.24
  -7  -4   0    3.28    1.17
  -7   4   0    8.26    2.06
   7   4   0    9.86    2.97
  -7   4   0    7.12    1.96
  -7  -4  -1   58.51    6.35
  -7   4  -1   41.52    4.72
   7   4   1   46.99   10.17
  -7  -4  -2    0.32    1.17
  -7   4  -2    2.05    1.23
  -7  -4  -3   28.29    6.52
  -7   4  -3   21.09    4.85
   7   4   3   23.42    7.06
  -7  -4  -4    5.89    2.21
  -7   4  -4    1.69    1.42
  -7  -4  -5   15.86    4.21
  -7   4  -5   15.33    4.11
   7   4   5   18.77    6.21
  -7  -4  -6    2.44    1.27
  -7   4  -6    4.40    1.76
   7   4   6    1.88    1.24
  -7  -4  -7    3.80    1.60
   7   4   7    2.60    1.06
  -7  -4  -8   11.81    4.01
  -7   4  -8   11.31    3.68
   7   4   8   13.59    4.84
  -7  -5  12    1.61    1.67
  -7   5  11    6.62    2.28
  -7  -5  11    6.92    2.68
  -7   5  10    1.73    1.20
  -7  -5  10    2.31    1.30
  -7  -5   9    1.34    1.27
  -7   5   9    2.06    1.10
  -7  -5   9    0.89    1.22
  -7   5   8   36.78    7.73
  -7  -5   8   41.36    8.67
  -7  -5   7   18.01    4.35
  -7   5   7   10.10    2.30
  -7  -5   6    3.89    1.58
  -7   5   6    4.31    1.15
  -7  -5   5    5.94    2.46
  -7   5   5    6.58    1.85
  -7  -5   4   38.83    4.54
  -7   5   4   48.78    5.38
  -7  -5   3    0.83    0.95
   7   5  -3    1.15    1.57
  -7   5   3    3.22    1.45
  -7  -5   2    1.24    1.10
   7   5  -2    6.64    2.83
  -7   5   2    4.36    1.98
  -7  -5   1   31.16    3.94
  -7   5   1   30.67    3.54
   7   5  -1   30.45    6.37
  -7   5   1   27.95    3.32
  -7  -5   0    6.19    2.75
  -7   5   0    2.87    0.96
   7   5   0    4.57    2.19
  -7  -5  -1   10.04    2.86
  -7   5  -1    4.79    2.03
   7   5   1    9.03    2.75
  -7  -5  -2    2.75    1.30
  -7   5  -2    3.67    1.10
   7   5   2    4.45    1.61
  -7  -5  -3    0.20    1.25
  -7   5  -3    4.49    1.57
   7   5   3    2.94    1.62
  -7  -5  -4    2.33    1.32
  -7   5  -4    1.49    1.08
   7   5   4    2.34    0.89
  -7  -5  -5   11.03    3.18
  -7   5  -5   12.53    3.41
   7   5   5   11.74    4.63
  -7  -5  -6    3.87    2.29
   7   5   6    9.82    3.67
   7  -5   7    4.71    2.00
  -7  -5  -7    2.29    1.41
   7   5   7    3.03    0.90
   7  -5   8   15.71    4.70
  -7  -5  -8    7.89    2.79
   7   5   8   13.34    4.15
  -7   6  11    2.42    1.26
  -7  -6  11    3.86    2.24
  -7  -6  10    3.03    1.70
  -7   6  10    1.93    1.57
  -7  -6  10    0.71    1.06
  -7  -6   9   42.15    8.74
  -7   6   9   50.75   10.32
  -7  -6   9   38.37    8.01
  -7  -6   8    2.56    1.15
  -7   6   8    2.34    1.55
  -7  -6   8    1.33    1.32
  -7  -6   7    7.00    2.31
  -7   6   7    3.77    1.56
  -7  -6   6    3.28    1.56
  -7   6   6    1.68    0.89
  -7  -6   5    2.48    1.14
  -7   6   5    1.58    1.43
  -7  -6   4   11.60    2.87
  -7   6   4   13.03    3.27
  -7  -6   3    5.27    1.63
   7   6  -3    6.60    2.52
  -7  -6   2    6.88    2.13
   7   6  -2    6.29    2.42
  -7  -6   1    5.34    2.15
   7   6  -1    2.11    0.88
  -7  -6   0    1.07    1.26
  -7   6   0    3.21    0.97
   7   6   0    0.78    0.66
  -7  -6  -1   11.54    2.89
  -7   6  -1    8.64    2.14
   7   6   1   13.82    4.16
  -7  -6  -2    2.65    2.08
  -7   6  -2    0.22    0.75
   7   6   2    2.63    1.35
  -7  -6  -3    2.74    1.43
  -7   6  -3    3.56    1.13
   7   6   3    5.02    1.52
  -7  -6  -4   23.10    5.28
   7   6   4   15.77    4.96
   7  -6   5    5.19    1.69
  -7  -6  -5    3.16    2.01
   7   6   5    7.19    2.62
   7  -6   6   18.82    4.71
  -7  -6  -6   10.70    3.54
   7   6   6   13.95    3.79
   7  -6   7    6.80    2.83
  -7  -6  -7    4.24    1.94
   7   6   7    3.97    1.85
  -7  -7  10    4.31    2.01
  -7   7  10    6.33    2.23
  -7  -7  10    5.41    2.11
  -7  -7   9    0.89    1.45
  -7   7   9    1.35    1.09
  -7  -7   9   -0.51    1.19
  -7  -7   8    4.30    1.67
  -7   7   8    1.00    1.04
  -7  -7   8    1.37    1.28
  -7  -7   7   16.31    3.72
  -7  -7   6    3.66    1.74
  -7  -7   5   31.25    6.60
  -7  -7   4    4.97    2.21
   7   7  -4   10.15    3.50
  -7  -7   3    1.43    1.21
   7   7  -3    4.98    1.93
  -7  -7   2    4.74    1.47
   7   7  -2    7.39    3.34
  -7  -7   1    2.80    1.35
   7   7  -1    2.42    1.64
  -7  -7   0   15.96    4.39
   7   7   0   21.79    6.37
  -7  -7  -1    1.84    1.26
  -7   7  -1    3.63    1.14
   7   7   1    2.19    1.36
  -7  -7  -2   56.88   11.71
  -7   7  -2   39.83    8.15
   7   7   2   51.42   12.66
   7  -7   3    2.08    1.61
  -7  -7  -3    1.26    1.33
   7   7   3    3.17    1.53
   7  -7   4    5.97    2.36
  -7  -7  -4    4.32    2.05
   7   7   4    2.44    1.76
   7  -7   5   10.00    3.10
  -7  -7  -5    6.92    2.82
   7   7   5    5.55    2.19
   7  -7   6    3.01    1.48
  -7  -7  -6    0.36    1.23
   7   7   6    4.39    2.15
  -7  -8   9   22.42    6.21
  -7  -8   8   15.21    4.44
  -7  -8   7   11.45    3.41
  -7  -8   6    5.53    2.27
  -7  -8   5    5.46    2.20
  -7  -8   4   35.25    7.44
   7   8  -4   32.13    7.04
  -7  -8   3    4.37    1.62
   7   8  -3    3.47    1.69
  -7  -8   2    4.91    1.74
   7   8  -2   15.80    5.05
  -7  -8   1    2.99    1.88
   7   8  -1    2.90    1.24
  -7  -8   0    3.48    1.93
   7   8   0    7.16    3.21
  -7  -8  -1   17.90    4.47
   7   8   1   21.48    6.27
   7  -8   2    2.43    0.93
  -7  -8  -2    0.92    1.30
   7   8   2    2.98    1.23
   7  -8   3   18.43    4.15
  -7  -8  -3   12.42    2.17
   7   8   3   15.46    4.74
   7  -8   4   16.64    5.01
  -7  -8  -4   21.02    5.88
   7   8   4   23.50    7.20
  -7  -8  -5   11.11    3.87
   7   8   5   12.23    5.64
  -7  -9   7    4.59    2.22
  -7  -9   6    2.29    1.66
  -7  -9   5    1.05    1.23
  -7  -9   4   10.36    3.19
   7   9  -4   12.67    3.48
  -7  -9   3    0.65    1.20
   7   9  -3    0.72    1.28
  -7  -9   2   29.20    6.36
   7   9  -2   28.92    6.84
  -7  -9   1    3.29    1.50
   7   9  -1    2.42    1.24
  -7  -9   0    6.04    2.84
   7   9   0    2.32    1.14
  -7  -9  -1   18.23    5.12
   7   9   1   22.57    7.46
  -7  -9  -2   54.50   13.96
   7   9   2   41.50   12.47
   7  -9   3    0.96    0.81
  -7  -9  -3    1.74    1.52
   7   9   3    2.38    1.24
  -7 -10   3    3.37    1.79
   7  10  -3    3.47    1.90
  -7 -10   2    0.54    1.27
   7  10  -2    0.91    0.86
  -7 -10   1   17.34    4.96
   7  10  -1   20.58    5.96
   7  10   0    1.55    1.18
  -8   0   7    0.93    1.59
  -8   0   6    5.04    2.23
  -8   0   5    4.82    2.24
  -8   0   4    2.09    1.19
  -8   0   2    2.22    1.01
  -8   0   1    1.16    1.45
  -8   0   0   80.59    3.98
  -8   0  -1    1.47    1.18
  -8   0  -2   31.16    8.12
   8   0   2   32.37    8.41
  -8   0  -3    0.78    1.10
   8   0   3    1.59    0.90
  -8   1   7    2.43    1.27
  -8  -1   7    5.44    2.24
  -8   1   6   38.67    9.96
  -8  -1   6   39.21   10.14
  -8   1   5    4.76    1.89
  -8  -1   5    3.44    1.93
  -8   1   4   30.45    6.45
  -8  -1   4   26.98    5.80
  -8  -1   3    3.90    1.51
  -8   1   3    2.66    1.22
  -8  -1   2   46.98    9.61
  -8  -1   1   38.90    8.09
  -8   1   1   28.22    5.95
  -8  -1   0   18.90    4.40
  -8   1   0   13.40    3.25
  -8  -1  -1   13.48    3.94
  -8   1  -1   12.07    3.64
   8   1   1   22.23    6.19
  -8   1  -2    6.69    2.37
   8   1   2    4.44    2.33
  -8  -1  -3    2.88    1.96
  -8   1  -3    1.87    1.16
   8  -1   3    0.80    1.14
   8   1   3    5.00    2.33
  -8   2   7   11.85    3.93
  -8  -2   7    6.62    2.63
  -8   2   6    4.69    2.02
  -8  -2   6    8.80    3.09
  -8   2   5   13.60    4.03
  -8  -2   5   11.14    3.58
  -8   2   4    2.01    1.03
  -8  -2   3   36.55    7.64
  -8   2   3   35.48    7.50
  -8  -2   2   10.92    3.23
  -8   2   2    9.81    3.04
  -8  -2   1   25.06    6.76
  -8  -2   0    8.81    3.02
  -8   2   0    9.24    2.99
   8   2   0   13.92    4.09
  -8  -2  -1    1.16    1.05
  -8   2  -1    3.62    2.14
   8   2   1    2.21    1.00
  -8  -2  -2    1.53    1.31
  -8   2  -2    1.49    1.05
   8   2   2    5.20    2.06
  -8   3   6    6.08    2.28
  -8  -3   6    4.48    2.25
  -8   3   5   10.11    3.48
  -8  -3   4    6.14    2.21
  -8   3   4    6.40    2.47
  -8  -3   3   14.84    4.30
  -8   3   3   11.57    3.62
  -8  -3   2   15.28    4.48
  -8   3   2   22.47    6.14
  -8  -3   1   28.42    7.52
   8   3  -1   30.84    8.22
  -8   3   1   18.75    5.08
  -8  -3   0    2.55    1.63
   8   3   0    6.72    2.74
  -8  -3  -1   13.61    3.93
  -8   3  -1   15.55    4.47
   8   3   1   14.00    4.96
  -8  -3  -2    4.20    2.28
  -8   3  -2    2.60    1.14
   8   3   2    2.98    1.22
  -8  -4   4    3.03    1.80
  -8   4   4    2.35    1.48
  -8  -4   3   71.50   18.04
  -8  -4   2    6.89    2.75
  -8  -4   1    6.22    2.50
   8   4  -1    7.00    2.52
  -8  -4   0   18.01    5.06
   8   4   0   15.73    5.31
   0   0   0    0.00    0.00

_computing_structure_solution     'SHELXT 2014/5 (Sheldrick, 2014)'
;
_shelx_hkl_checksum              10028
_olex2_submission_special_instructions 'No special instructions were received'
loop_
_space_group_symop_operation_xyz
'x, y, z'
'-x, y+1/2, -z+1/2'
'-x, -y, -z'
'x, -y-1/2, z-1/2'
loop_
_atom_site_label
_atom_site_type_symbol
_atom_site_fract_x
_atom_site_fract_y
_atom_site_fract_z
_atom_site_U_iso_or_equiv
_atom_site_adp_type
_atom_site_occupancy
_atom_site_site_symmetry_order
_atom_site_calc_flag
_atom_site_refinement_flags_posn
S1 S 0.17307(11) 0.80682(5) 0.53765(4) 0.03061(18) Uani 1 1 d .
O1 O 0.3895(3) 0.59625(13) 0.58775(11) 0.0318(5) Uani 1 1 d .
O2 O 0.5680(3) 0.76735(12) 0.66234(10) 0.0269(4) Uani 1 1 d .
O3 O 0.1832(3) 0.91346(13) 0.53013(12) 0.0335(5) Uani 1 1 d .
O4 O 0.0435(3) 0.77699(15) 0.47006(13) 0.0413(5) Uani 1 1 d .
O5 O 0.1112(3) 0.78740(15) 0.61353(12) 0.0384(5) Uani 1 1 d .
N1 N 0.4174(3) 0.78173(15) 0.52874(13) 0.0258(5) Uani 1 1 d .
C1 C 0.8312(5) 1.1104(2) 0.71067(19) 0.0435(8) Uani 1 1 d .
H1A H 0.880770 1.156871 0.677902 0.065 Uiso 1 1 calc GR
H1B H 0.946508 1.071296 0.728521 0.065 Uiso 1 1 calc GR
H1C H 0.774777 1.137432 0.755198 0.065 Uiso 1 1 calc GR
C2 C 0.6606(5) 1.05642(19) 0.66416(16) 0.0314(6) Uani 1 1 d .
C3 C 0.4707(5) 1.0964(2) 0.63465(16) 0.0346(7) Uani 1 1 d .
H3 H 0.449517 1.157372 0.644184 0.041 Uiso 1 1 calc R
C4 C 0.3130(5) 1.04827(19) 0.59170(17) 0.0336(6) Uani 1 1 d .
H4 H 0.187150 1.076103 0.572571 0.040 Uiso 1 1 calc R
C5 C 0.3466(4) 0.95791(19) 0.57781(16) 0.0290(6) Uani 1 1 d .
C6 C 0.5312(4) 0.91451(18) 0.60620(15) 0.0265(6) Uani 1 1 d .
C7 C 0.6861(4) 0.96538(19) 0.64922(16) 0.0294(6) Uani 1 1 d .
H7 H 0.811345 0.937263 0.668662 0.035 Uiso 1 1 calc R
C8 C 0.5711(4) 0.81566(17) 0.59080(15) 0.0248(6) Uani 1 1 d .
H8 H 0.712461 0.809825 0.573073 0.030 Uiso 1 1 calc R
C9 C 0.6832(4) 0.68483(18) 0.66631(16) 0.0281(6) Uani 1 1 d .
H9A H 0.681474 0.661161 0.719174 0.034 Uiso 1 1 calc R
H9B H 0.829176 0.699059 0.659335 0.034 Uiso 1 1 calc R
C10 C 0.6140(4) 0.60954(18) 0.60945(15) 0.0256(6) Uani 1 1 d .
C11 C 0.5229(4) 0.61929(18) 0.52708(16) 0.0280(6) Uani 1 1 d .
H11 H 0.553240 0.568109 0.493639 0.034 Uiso 1 1 calc R
C12 C 0.4750(4) 0.70485(18) 0.48232(16) 0.0288(6) Uani 1 1 d .
H12A H 0.598142 0.721178 0.456104 0.035 Uiso 1 1 calc R
H12B H 0.360123 0.693246 0.441830 0.035 Uiso 1 1 calc R
C13 C 0.7325(4) 0.52416(18) 0.63209(15) 0.0261(6) Uani 1 1 d .
C14 C 0.9280(5) 0.5073(2) 0.60492(17) 0.0331(6) Uani 1 1 d .
H14 H 0.982985 0.547126 0.570138 0.040 Uiso 1 1 calc R
C15 C 1.0401(5) 0.4305(2) 0.63017(19) 0.0390(7) Uani 1 1 d .
H15 H 1.170122 0.418887 0.611640 0.047 Uiso 1 1 calc R
C16 C 0.9617(5) 0.3714(2) 0.68222(18) 0.0368(7) Uani 1 1 d .
H16 H 1.039179 0.320461 0.698911 0.044 Uiso 1 1 calc R
C17 C 0.7678(5) 0.38772(19) 0.70971(17) 0.0351(7) Uani 1 1 d .
H17 H 0.714137 0.347705 0.744670 0.042 Uiso 1 1 calc R
C18 C 0.6538(5) 0.46403(18) 0.68486(16) 0.0314(6) Uani 1 1 d .
H18 H 0.523741 0.475232 0.703535 0.038 Uiso 1 1 calc R
loop_
_atom_site_aniso_label
_atom_site_aniso_U_11
_atom_site_aniso_U_22
_atom_site_aniso_U_33
_atom_site_aniso_U_23
_atom_site_aniso_U_13
_atom_site_aniso_U_12
S1 0.0221(3) 0.0366(4) 0.0320(4) -0.0013(3) -0.0029(3) 0.0008(3)
O1 0.0237(10) 0.0354(11) 0.0354(11) 0.0044(9) -0.0011(8) -0.0046(8)
O2 0.0292(10) 0.0262(10) 0.0246(9) 0.0022(7) -0.0003(8) 0.0028(8)
O3 0.0278(10) 0.0332(11) 0.0377(11) -0.0016(9) -0.0065(9) 0.0067(8)
O4 0.0291(11) 0.0480(14) 0.0433(13) -0.0067(10) -0.0136(9) 0.0023(10)
O5 0.0267(10) 0.0518(14) 0.0372(12) 0.0025(10) 0.0057(9) -0.0026(10)
N1 0.0223(11) 0.0289(12) 0.0256(11) -0.0016(9) -0.0016(9) 0.0032(9)
C1 0.050(2) 0.0335(17) 0.0459(19) -0.0024(14) -0.0030(16) -0.0078(15)
C2 0.0384(16) 0.0285(15) 0.0276(14) 0.0021(11) 0.0041(12) -0.0021(13)
C3 0.0516(19) 0.0247(14) 0.0280(15) 0.0041(11) 0.0061(13) 0.0041(13)
C4 0.0387(16) 0.0312(15) 0.0305(15) 0.0055(12) 0.0014(12) 0.0105(13)
C5 0.0281(14) 0.0301(15) 0.0283(14) 0.0035(11) 0.0002(11) 0.0014(12)
C6 0.0278(14) 0.0262(14) 0.0254(13) 0.0041(10) 0.0030(11) 0.0006(11)
C7 0.0290(14) 0.0307(15) 0.0282(14) 0.0032(11) 0.0008(11) 0.0001(12)
C8 0.0204(12) 0.0273(14) 0.0258(13) 0.0018(11) -0.0016(10) 0.0004(11)
C9 0.0276(13) 0.0278(14) 0.0278(14) 0.0044(11) -0.0024(11) 0.0021(11)
C10 0.0227(13) 0.0267(14) 0.0273(14) 0.0034(11) 0.0019(11) -0.0029(11)
C11 0.0310(14) 0.0260(14) 0.0261(14) -0.0007(11) -0.0020(11) -0.0022(11)
C12 0.0321(14) 0.0296(15) 0.0241(14) -0.0019(11) -0.0008(11) 0.0018(12)
C13 0.0297(14) 0.0251(14) 0.0231(13) -0.0003(10) 0.0010(11) -0.0022(11)
C14 0.0299(15) 0.0337(16) 0.0359(16) 0.0023(12) 0.0043(12) -0.0024(12)
C15 0.0329(16) 0.0354(17) 0.0486(19) -0.0009(14) 0.0030(14) 0.0037(13)
C16 0.0435(18) 0.0271(15) 0.0372(17) -0.0019(12) -0.0091(14) 0.0042(13)
C17 0.0489(18) 0.0289(15) 0.0271(15) 0.0032(12) 0.0014(13) -0.0042(14)
C18 0.0361(16) 0.0291(15) 0.0289(15) 0.0023(11) 0.0030(12) -0.0015(12)
loop_
_atom_type_symbol
_atom_type_description
_atom_type_scat_dispersion_real
_atom_type_scat_dispersion_imag
_atom_type_scat_source
C C 0.0033 0.0016 'International Tables Vol C Tables 4.2.6.8 and 6.1.1.4'
H H 0.0000 0.0000 'International Tables Vol C Tables 4.2.6.8 and 6.1.1.4'
N N 0.0061 0.0033 'International Tables Vol C Tables 4.2.6.8 and 6.1.1.4'
O O 0.0106 0.0060 'International Tables Vol C Tables 4.2.6.8 and 6.1.1.4'
S S 0.1246 0.1234 'International Tables Vol C Tables 4.2.6.8 and 6.1.1.4'
loop_
_geom_angle_atom_site_label_1
_geom_angle_atom_site_label_2
_geom_angle_atom_site_label_3
_geom_angle
O3 S1 N1 100.03(11)
O4 S1 O3 105.59(12)
O4 S1 O5 119.21(13)
O4 S1 N1 109.64(13)
O5 S1 O3 107.01(12)
O5 S1 N1 113.22(12)
C11 O1 C10 61.24(16)
C8 O2 C9 115.0(2)
C5 O3 S1 116.71(17)
C8 N1 S1 115.61(18)
C12 N1 S1 121.79(18)
C12 N1 C8 118.6(2)
H1A C1 H1B 109.5
H1A C1 H1C 109.5
H1B C1 H1C 109.5
C2 C1 H1A 109.5
C2 C1 H1B 109.5
C2 C1 H1C 109.5
C3 C2 C1 121.1(3)
C7 C2 C1 121.5(3)
C7 C2 C3 117.4(3)
C2 C3 H3 119.0
C4 C3 C2 122.0(3)
C4 C3 H3 119.0
C3 C4 H4 120.8
C5 C4 C3 118.4(3)
C5 C4 H4 120.8
C4 C5 O3 115.7(2)
C4 C5 C6 122.1(3)
C6 C5 O3 122.2(2)
C5 C6 C7 117.7(3)
C5 C6 C8 122.7(2)
C7 C6 C8 119.6(2)
C2 C7 C6 122.4(3)
C2 C7 H7 118.8
C6 C7 H7 118.8
O2 C8 N1 112.8(2)
O2 C8 C6 108.7(2)
O2 C8 H8 108.3
N1 C8 C6 110.4(2)
N1 C8 H8 108.3
C6 C8 H8 108.3
O2 C9 H9A 107.5
O2 C9 H9B 107.5
O2 C9 C10 119.1(2)
H9A C9 H9B 107.0
C10 C9 H9A 107.5
C10 C9 H9B 107.5
O1 C10 C9 118.6(2)
O1 C10 C11 59.13(17)
O1 C10 C13 114.0(2)
C11 C10 C9 126.9(2)
C11 C10 C13 117.9(2)
C13 C10 C9 110.4(2)
O1 C11 C10 59.63(16)
O1 C11 H11 113.5
O1 C11 C12 117.6(2)
C10 C11 H11 113.5
C10 C11 C12 127.7(2)
C12 C11 H11 113.5
N1 C12 C11 115.7(2)
N1 C12 H12A 108.4
N1 C12 H12B 108.4
C11 C12 H12A 108.4
C11 C12 H12B 108.4
H12A C12 H12B 107.4
C14 C13 C10 120.4(2)
C14 C13 C18 119.4(3)
C18 C13 C10 120.1(2)
C13 C14 H14 120.3
C15 C14 C13 119.4(3)
C15 C14 H14 120.3
C14 C15 H15 119.5
C16 C15 C14 121.0(3)
C16 C15 H15 119.5
C15 C16 H16 120.0
C15 C16 C17 120.0(3)
C17 C16 H16 120.0
C16 C17 H17 120.2
C16 C17 C18 119.7(3)
C18 C17 H17 120.2
C13 C18 H18 119.7
C17 C18 C13 120.6(3)
C17 C18 H18 119.7
loop_
_geom_bond_atom_site_label_1
_geom_bond_atom_site_label_2
_geom_bond_distance
S1 O3 1.587(2)
S1 O4 1.421(2)
S1 O5 1.421(2)
S1 N1 1.618(2)
O1 C10 1.451(3)
O1 C11 1.444(3)
O2 C8 1.418(3)
O2 C9 1.423(3)
O3 C5 1.417(3)
N1 C8 1.458(3)
N1 C12 1.455(3)
C1 H1A 0.9600
C1 H1B 0.9600
C1 H1C 0.9600
C1 C2 1.508(4)
C2 C3 1.393(4)
C2 C7 1.385(4)
C3 H3 0.9300
C3 C4 1.380(4)
C4 H4 0.9300
C4 C5 1.380(4)
C5 C6 1.383(4)
C6 C7 1.390(4)
C6 C8 1.514(4)
C7 H7 0.9300
C8 H8 0.9800
C9 H9A 0.9700
C9 H9B 0.9700
C9 C10 1.515(4)
C10 C11 1.475(4)
C10 C13 1.503(4)
C11 H11 0.9800
C11 C12 1.496(4)
C12 H12A 0.9700
C12 H12B 0.9700
C13 C14 1.391(4)
C13 C18 1.395(4)
C14 H14 0.9300
C14 C15 1.388(4)
C15 H15 0.9300
C15 C16 1.377(4)
C16 H16 0.9300
C16 C17 1.383(4)
C17 H17 0.9300
C17 C18 1.386(4)
C18 H18 0.9300
