#------------------------------------------------------------------------------
#$Date: 2018-01-06 04:42:23 +0200 (Sat, 06 Jan 2018) $
#$Revision: 204896 $
#$URL: file:///home/coder/svn-repositories/cod/cif/1/54/81/1548129.cif $
#------------------------------------------------------------------------------
#
# This file is available in the Crystallography Open Database (COD),
# http://www.crystallography.net/
#
# All data on this site have been placed in the public domain by the
# contributors.
#
data_1548129
loop_
_publ_author_name
'Wu, Yang'
'Yuan, Chunhao'
'Wang, Chang'
'Mao, Biming'
'Jia, Hao'
'Gao, Xing'
'Liao, Jianning'
'Jiang, Feng'
'Zhou, Leijie'
'Wang, Qijun'
'Guo, Hongchao'
_publ_section_title
;
 Palladium-Catalyzed [5 + 2] Cycloaddition of Vinyloxiranes with
 Sulfamate-Derived Cyclic Imines To Construct 1,3-Oxazepine Heterocycles.
;
_journal_issue                   23
_journal_name_full               'Organic letters'
_journal_page_first              6268
_journal_page_last               6271
_journal_paper_doi               10.1021/acs.orglett.7b02704
_journal_volume                  19
_journal_year                    2017
_chemical_formula_moiety         'C18 H17 N O5 S'
_chemical_formula_sum            'C18 H17 N O5 S'
_chemical_formula_weight         359.38
_space_group_crystal_system      triclinic
_space_group_IT_number           2
_space_group_name_Hall           '-P 1'
_space_group_name_H-M_alt        'P -1'
_symmetry_space_group_name_Hall  '-P 1'
_symmetry_space_group_name_H-M   'P -1'
_atom_sites_solution_hydrogens   geom
_atom_sites_solution_primary     dual
_audit_creation_date             2017-06-13
_audit_creation_method
;
Olex2 1.2
(compiled 2017.03.28 svn.r3405 for OlexSys, GUI svn.r5337)
;
_cell_angle_alpha                110.691(2)
_cell_angle_beta                 92.738(2)
_cell_angle_gamma                93.838(2)
_cell_formula_units_Z            2
_cell_length_a                   6.1967(2)
_cell_length_b                   11.1950(3)
_cell_length_c                   12.7835(3)
_cell_measurement_reflns_used    4170
_cell_measurement_temperature    173(2)
_cell_measurement_theta_max      30.2100
_cell_measurement_theta_min      2.1080
_cell_volume                     825.33(4)
_computing_cell_refinement       'CrysAlisPro 1.171.39.9d (Rigaku OD, 2015)'
_computing_data_collection
'CrystalClear-SM Expert 2.0 r4 (Rigaku, 2009)'
_computing_data_reduction        'CrysAlisPro 1.171.39.9d (Rigaku OD, 2015)'
_computing_molecular_graphics    'Olex2 (Dolomanov et al., 2009)'
_computing_publication_material  'CIFTAB (Sheldrick, 2013)'
_computing_structure_refinement  'ShelXL (Sheldrick, 2015)'
_computing_structure_solution    'ShelXT (Sheldrick, 2015)'
_diffrn_ambient_temperature      173(2)
_diffrn_measured_fraction_theta_full 0.999
_diffrn_measured_fraction_theta_max 0.997
_diffrn_measurement_device_type  'Rigaku Saturn724+ (2x2 bin mode)'
_diffrn_measurement_method       'profile data from \w-scans'
_diffrn_radiation_monochromator  'Graphite Monochromator'
_diffrn_radiation_type           MoK\a
_diffrn_radiation_wavelength     0.71073
_diffrn_reflns_av_R_equivalents  0.0374
_diffrn_reflns_av_unetI/netI     0.0426
_diffrn_reflns_Laue_measured_fraction_full 0.999
_diffrn_reflns_Laue_measured_fraction_max 0.997
_diffrn_reflns_limit_h_max       8
_diffrn_reflns_limit_h_min       -7
_diffrn_reflns_limit_k_max       14
_diffrn_reflns_limit_k_min       -14
_diffrn_reflns_limit_l_max       16
_diffrn_reflns_limit_l_min       -16
_diffrn_reflns_number            11406
_diffrn_reflns_point_group_measured_fraction_full 0.999
_diffrn_reflns_point_group_measured_fraction_max 0.997
_diffrn_reflns_theta_full        25.242
_diffrn_reflns_theta_max         27.492
_diffrn_reflns_theta_min         3.020
_diffrn_source                   'Sealed Tube'
_exptl_absorpt_coefficient_mu    0.226
_exptl_absorpt_correction_T_max  1.0000
_exptl_absorpt_correction_T_min  0.9223
_exptl_absorpt_correction_type   multi-scan
_exptl_absorpt_process_details
'CrystalClear-SM Expert 2.0 r4 (Rigaku, 2009)'
_exptl_crystal_colour            Colorless
_exptl_crystal_density_diffrn    1.446
_exptl_crystal_description       block
_exptl_crystal_F_000             376
_exptl_crystal_size_max          0.426
_exptl_crystal_size_mid          0.155
_exptl_crystal_size_min          0.107
_refine_diff_density_max         0.321
_refine_diff_density_min         -0.453
_refine_diff_density_rms         0.057
_refine_ls_extinction_method     none
_refine_ls_goodness_of_fit_ref   1.036
_refine_ls_hydrogen_treatment    constr
_refine_ls_matrix_type           full
_refine_ls_number_parameters     227
_refine_ls_number_reflns         3766
_refine_ls_number_restraints     0
_refine_ls_restrained_S_all      1.036
_refine_ls_R_factor_all          0.0587
_refine_ls_R_factor_gt           0.0469
_refine_ls_shift/su_max          0.000
_refine_ls_shift/su_mean         0.000
_refine_ls_structure_factor_coef Fsqd
_refine_ls_weighting_details
'w=1/[\s^2^(Fo^2^)+(0.0506P)^2^+0.4524P] where P=(Fo^2^+2Fc^2^)/3'
_refine_ls_weighting_scheme      calc
_refine_ls_wR_factor_gt          0.1101
_refine_ls_wR_factor_ref         0.1207
_reflns_Friedel_coverage         0.000
_reflns_number_gt                3132
_reflns_number_total             3766
_reflns_threshold_expression     'I > 2\s(I)'
_cod_data_source_file            ol7b02704_si_005.cif
_cod_data_source_block           sa5128a
_cod_depositor_comments
;
The following automatic conversions were performed:

'_exptl_absorpt_correction_type' value 'Multi-scan' changed to
'multi-scan' according to
/home/data/users/saulius/crontab/automatic-downloads/rss-feeds/ACS/lib/dictionaries/cif_core.dic
dictionary named 'cif_core.dic' version 2.4.2 from 2011-04-26.

Automatic conversion script
Id: cif_fix_values 4973 2017-02-22 13:04:09Z antanas 

 Adding full bibliography for 1548127--1548130.cif.
;
_cod_database_code               1548129
_shelx_shelxl_version_number     2016/6
_shelx_space_group_comment
;
The symmetry employed for this shelxl refinement is uniquely defined
by the following loop, which should always be used as a source of
symmetry information in preference to the above space-group names.
They are only intended as comments.
;
_olex2_refinement_description
;
1. Fixed Uiso
 At 1.2 times of:
  All C(H) groups, All C(H,H) groups
 At 1.5 times of:
  All C(H,H,H) groups
2.a Ternary CH refined with riding coordinates:
 C3(H3), C6(H6)
2.b Secondary CH2 refined with riding coordinates:
 C4(H4A,H4B), C7(H7A,H7B)
2.c Aromatic/amide H refined with riding coordinates:
 C9(H9), C10(H10), C11(H11), C12(H12), C13(H13), C14(H14), C15(H15), C17(H17)
2.d Idealised Me refined as rotating group:
 C18(H18A,H18B,H18C)
;
_shelx_res_file
;
TITL sa5128a_a.res in P-1
    sa5128a.res
    created by SHELXL-2016/6 at 13:34:14 on 13-Jun-2017
REM Old TITL sa5128a in P-1
REM SHELXT solution in P-1
REM R1 0.498, Rweak 0.108, Alpha 0.039, Orientation as input
REM Formula found by SHELXT: C16 N O5 S
CELL 0.71073 6.1967 11.195 12.7835 110.691 92.738 93.838
ZERR 2 0.0002 0.0003 0.0003 0.002 0.002 0.002
LATT 1
SFAC C H N O S
UNIT 36 34 2 10 2

L.S. 10 0 173
PLAN  20
BOND $H
list 4
fmap 2
ACTA
OMIT -2 55
OMIT 0 -1 1
OMIT 0 1 0
OMIT 0 0 1
REM <olex2.extras>
REM <HklSrc "%.\\sa5128a.hkl">
REM </olex2.extras>

WGHT    0.050600    0.452400
FVAR       0.84046
S1    5    0.166703    0.316936    0.776570    11.00000    0.02283    0.02620 =
         0.03016    0.00919    0.00600    0.00196
O1    4    0.040374    0.356026    0.699801    11.00000    0.02093    0.04274 =
         0.04328    0.01781    0.00261    0.00742
O2    4    0.087087    0.207262    0.799161    11.00000    0.04229    0.02898 =
         0.04187    0.01265    0.01306   -0.00236
O3    4    0.195012    0.431624    0.893465    11.00000    0.03385    0.02763 =
         0.03328    0.00713    0.01485   -0.00059
O4    4    0.468581    0.437915    0.632052    11.00000    0.02437    0.02247 =
         0.02149    0.00665    0.00377    0.00210
O5    4    0.474645    0.103730    0.457369    11.00000    0.03724    0.02406 =
         0.02811    0.00699    0.00685    0.01084
N1    3    0.419088    0.304745    0.746863    11.00000    0.02357    0.02384 =
         0.02463    0.00869    0.00437    0.00593
C1    1    0.331636    0.542460    0.902401    11.00000    0.02494    0.02496 =
         0.02658    0.00886    0.00357    0.00036
C2    1    0.493925    0.537820    0.830815    11.00000    0.02104    0.02735 =
         0.02276    0.00775    0.00023    0.00348
C3    1    0.530330    0.418106    0.733223    11.00000    0.01740    0.02646 =
         0.02420    0.00795    0.00157    0.00186
AFIX  13
H3    2    0.686262    0.408189    0.734519    11.00000   -1.20000
AFIX   0
C4    1    0.535650    0.342403    0.532914    11.00000    0.02475    0.02635 =
         0.02231    0.00515    0.00698    0.00292
AFIX  23
H4A   2    0.675525    0.316955    0.550255    11.00000   -1.20000
H4B   2    0.552699    0.379391    0.475356    11.00000   -1.20000
AFIX   0
C5    1    0.372944    0.223879    0.487677    11.00000    0.02670    0.02008 =
         0.02311    0.00602    0.00667    0.00720
C6    1    0.351189    0.140091    0.554285    11.00000    0.02783    0.02112 =
         0.02703    0.00688    0.00481    0.00738
AFIX  13
H6    2    0.209181    0.091924    0.544969    11.00000   -1.20000
AFIX   0
C7    1    0.470812    0.177395    0.669188    11.00000    0.02864    0.02549 =
         0.02807    0.01042    0.00476    0.01074
AFIX  23
H7A   2    0.432298    0.112960    0.701272    11.00000   -1.20000
H7B   2    0.625751    0.179283    0.661191    11.00000   -1.20000
AFIX   0
C8    1    0.184353    0.225062    0.410630    11.00000    0.02754    0.02449 =
         0.02148    0.00889    0.00379    0.00312
C9    1    0.110352    0.340544    0.411142    11.00000    0.03054    0.02402 =
         0.02614    0.00944    0.00584    0.00323
AFIX  43
H9    2    0.182833    0.417898    0.457822    11.00000   -1.20000
AFIX   0
C10   1   -0.070419    0.340905    0.342600    11.00000    0.03541    0.03386 =
         0.03073    0.01667    0.00736    0.01167
AFIX  43
H10   2   -0.117062    0.418246    0.342841    11.00000   -1.20000
AFIX   0
C11   1   -0.181317    0.226033    0.273843    11.00000    0.03092    0.05046 =
         0.02967    0.01751   -0.00316    0.00363
AFIX  43
H11   2   -0.303197    0.226156    0.228527    11.00000   -1.20000
AFIX   0
C12   1   -0.109651    0.111058    0.272983    11.00000    0.04212    0.03574 =
         0.02936    0.00742   -0.00613   -0.00547
AFIX  43
H12   2   -0.184145    0.034049    0.226947    11.00000   -1.20000
AFIX   0
C13   1    0.072059    0.109737    0.340104    11.00000    0.03836    0.02383 =
         0.02891    0.00875   -0.00074    0.00104
AFIX  43
H13   2    0.119504    0.031999    0.338273    11.00000   -1.20000
AFIX   0
C14   1    0.299348    0.653140    0.990891    11.00000    0.03630    0.03234 =
         0.02649    0.00767    0.01030    0.00508
AFIX  43
H14   2    0.187225    0.654181    1.036952    11.00000   -1.20000
AFIX   0
C15   1    0.437721    0.762271    1.009296    11.00000    0.04272    0.02801 =
         0.02269    0.00389    0.00360    0.00455
AFIX  43
H15   2    0.417707    0.837019    1.068598    11.00000   -1.20000
AFIX   0
C16   1    0.606559    0.762510    0.940778    11.00000    0.03637    0.02955 =
         0.02450    0.00917   -0.00235   -0.00231
C17   1    0.630199    0.649273    0.851808    11.00000    0.02530    0.03245 =
         0.02400    0.00827    0.00118   -0.00100
AFIX  43
H17   2    0.740751    0.648068    0.804833    11.00000   -1.20000
AFIX   0
C18   1    0.759402    0.880494    0.961798    11.00000    0.05602    0.03398 =
         0.03693    0.00447    0.00446   -0.01137
AFIX 137
H18A  2    0.694898    0.954661    1.008387    11.00000   -1.50000
H18B  2    0.787448    0.889488    0.891618    11.00000   -1.50000
H18C  2    0.893221    0.872488    0.998780    11.00000   -1.50000
AFIX   0
HKLF 4




REM  sa5128a_a.res in P-1
REM R1 =  0.0469 for    3132 Fo > 4sig(Fo)  and  0.0587 for all    3766 data
REM    227 parameters refined using      0 restraints

END

WGHT      0.0497      0.4592

REM Highest difference peak  0.321,  deepest hole -0.453,  1-sigma level  0.057
Q1    1   0.4387  0.2844  0.5143  11.00000  0.05    0.32
Q2    1   0.1401  0.2802  0.4138  11.00000  0.05    0.29
Q3    1   0.4888  0.7769  0.9575  11.00000  0.05    0.27
Q4    1   0.1591  0.3240  0.6967  11.00000  0.05    0.27
Q5    1   0.4989  0.4848  0.7858  11.00000  0.05    0.26
Q6    1   0.3538  0.2047  0.5347  11.00000  0.05    0.26
Q7    1   0.3761  0.5410  0.8395  11.00000  0.05    0.26
Q8    1   0.4568  0.5216  0.8835  11.00000  0.05    0.26
Q9    1   0.2778  0.4911  0.8980  11.00000  0.05    0.25
Q10   1   0.4264  0.1747  0.6165  11.00000  0.05    0.25
Q11   1   0.3086  0.3000  0.7580  11.00000  0.05    0.24
Q12   1   0.2631  0.2329  0.4633  11.00000  0.05    0.24
Q13   1   0.5839  0.5831  0.8660  11.00000  0.05    0.24
Q14   1  -0.0991  0.1704  0.2477  11.00000  0.05    0.24
Q15   1   0.1600  0.1734  0.3497  11.00000  0.05    0.22
Q16   1   0.2680  0.6103  0.9266  11.00000  0.05    0.22
Q17   1   0.1360  0.3995  0.7688  11.00000  0.05    0.21
Q18   1   0.5090  0.5976  0.8184  11.00000  0.05    0.21
Q19   1   0.6564  0.7018  0.9189  11.00000  0.05    0.21
Q20   1  -0.1409  0.2754  0.3329  11.00000  0.05    0.20
;
_shelx_res_checksum              14063
_shelx_hkl_file
;
   0   0  -1    0.06    0.14
   0   0   1    0.74    0.36
   0   0   1    0.38    0.26
   0   0  -1    0.38    0.19
   0   0   1    0.14    0.19
   0   0  -1    0.40    0.28
   0   0  -2  323.14    5.87
   0   0  -2  304.77    7.65
   0   0   2  315.17    7.31
   0   0   2  303.81    7.59
   0   0  -2  301.33    7.06
   0   0  -2  302.57    7.81
   0   0   2  293.75    7.67
   0   0   2  302.18    5.69
   0   0  -3  153.79    6.18
   0   0   3  147.45    6.47
   0   0  -3  150.93    6.54
   0   0   3  140.73    6.51
   0   0   3  143.52    4.78
   0   0   3  139.91    6.01
   0   0  -3  145.75    6.66
   0   0  -3  143.12    4.79
   0   0  -4 1059.19   14.95
   0   0  -4 1089.13   19.32
   0   0   4 1078.70   20.93
   0   0  -4 1021.05   19.91
   0   0   4 1073.24   15.01
   0   0  -4 1078.95   20.86
   0   0   4 1073.24   20.24
   0   0   4 1094.23   19.36
   0   0   5    2.27    1.26
   0   0   5    0.26    1.04
   0   0  -5   -0.16    0.28
   0   0  -5    3.01    1.13
   0   0  -5    0.26    0.58
   0   0   5    1.55    1.31
   0   0  -5    0.07    0.63
   0   0   5    0.18    0.72
   0   0   6    6.19    1.50
   0   0  -6    5.03    1.86
   0   0  -6    5.84    1.86
   0   0   6    8.02    2.20
   0   0   6    6.20    2.22
   0   0  -6    9.08    1.76
   0   0  -7   10.16    1.88
   0   0   7   12.63    2.14
   0   0   7    8.15    2.51
   0   0  -7    8.71    2.41
   0   0   8   32.82    3.67
   0   0   8   18.61    4.22
   0   0  -8   28.90    4.83
   0   0  -8   32.17    3.59
   0   0  -8   31.35    4.92
   0   0  -9  172.34    8.96
   0   0   9  206.08    9.65
   0   0   9  172.53   12.97
   0   0  -9  224.61   14.30
   0   0  -9  163.56   11.72
   0   0 -10    8.33    2.09
   0   0 -10    9.07    2.98
   0   0 -10    9.39    2.07
   0   0  10    9.55    3.63
   0   0 -10    8.34    3.44
   0   0 -11   13.42    3.84
   0   0 -11   13.10    2.81
   0   0  11   21.21    5.21
   0   0 -11   19.41    4.98
   0   0 -12    2.15    2.34
   0   0 -12    0.71    0.58
   0   0 -12    1.72    2.21
   0   0  12    4.32    3.30
   0   0  13    0.78    1.53
   0   0 -13    2.02    2.22
   0   0 -13    5.84    3.61
   0   0 -14    3.84    3.46
   0   0  14    1.10    1.04
   0   0  15    5.35    3.83
   0   0 -15    4.57    3.43
   0   0 -16   50.52    9.73
   0   0  16   35.12    8.59
   0  -1  16   -0.30    0.78
   0   1 -16    0.84    2.47
   0  -1  15   82.68   12.92
   0   1 -15  101.83   12.51
   0   1 -15  102.62   12.87
   0  -1  14  120.59   14.31
   0   1 -14  124.48   13.56
   0   1 -14  147.18   14.51
   0  -1  13    3.19    2.88
   0   1 -13    4.26    2.91
   0   1 -13    1.79    2.15
   0   1 -12   -1.46    1.56
   0  -1  12   -1.39    1.39
   0   1 -12    2.42    2.04
   0   1 -12    0.69    0.92
   0   1 -11  103.65   10.49
   0   1 -11   89.96    9.81
   0  -1  11  116.20    7.67
   0  -1  11   78.71    9.79
   0   1 -10  247.31   10.66
   0   1 -10  276.79   16.18
   0  -1  10  221.64   15.61
   0   1 -10  240.48   15.24
   0  -1  10  277.46   11.49
   0  -1   9    0.92    1.34
   0   1  -9    1.60    1.14
   0   1  -9    2.64    0.98
   0   1  -9    3.17    1.67
   0   1  -8   37.34    5.20
   0   1  -8   42.19    5.28
   0  -1   8   39.31    5.64
   0  -1   8   48.76    4.31
   0   1  -8   40.66    3.88
   0   1  -7   59.92    6.12
   0  -1   7   71.59    4.89
   0   1  -7   57.69    5.89
   0   1  -7   66.29    4.62
   0  -1   7   62.86    6.91
   0  -1   6    5.99    1.79
   0  -1   6    4.27    1.43
   0  -1   6    3.20    1.35
   0   1  -6    5.63    1.72
   0  -1   6    7.25    1.57
   0   1  -6    5.05    1.37
   0   1  -6    5.75    1.93
   0   1  -5   52.65    4.74
   0  -1   5   54.08    4.94
   0   1  -5   54.51    3.55
   0  -1   5   58.88    3.83
   0  -1   5   57.42    5.18
   0  -1   5   52.42    5.05
   0   1  -5   48.33    4.74
   0   1  -5   55.66    4.93
   0   1  -4 1044.69   19.04
   0  -1   4 1042.73   14.32
   0  -1   4 1030.83   18.27
   0  -1   4 1011.69   19.65
   0   1  -4 1067.30   14.09
   0   1  -4 1020.07   18.09
   0  -1   3 3714.52   23.61
   0   1  -3 3679.16   23.28
   0  -1   3 3694.54   29.03
   0   1  -3 3664.74   28.63
   0   1  -3 3631.73   31.97
   0  -1   3 3703.71   31.76
   0   1  -3 3648.62   31.97
   0  -1   3 3584.75   32.10
   0  -1   2  273.66    7.19
   0   1  -2  272.44    7.13
   0   1  -2  277.61    6.00
   0  -1   2  275.39    7.30
   0   1  -2  282.07    5.70
   0   1  -2  280.19    7.25
   0  -1   2  257.37    5.89
   0  -1   2  269.88    5.56
   0  -1   1   -0.16    0.12
   0   1  -1    0.10    0.21
   0  -1   0    0.00    0.24
   0   1   0    0.18    0.31
   0  -1   0    0.06    0.33
   0   1   0   -0.07    0.17
   0   1   0   -0.01    0.10
   0  -1  -1   26.37    1.93
   0   1   1   28.07    2.00
   0  -1  -1   28.39    1.98
   0   1   1    9.21    1.30
   0   1   1   27.25    1.96
   0   1   1   26.49    2.07
   0  -1  -1   14.75    1.51
   0  -1  -1   36.27    2.50
   0   1   2  930.10   15.45
   0  -1  -2  963.25   15.49
   0   1   2  939.74   15.49
   0  -1  -2  928.23   12.61
   0  -1  -2  952.81   13.01
   0  -1  -2  927.86   15.92
   0   1   2  950.44   13.77
   0   1   3 1492.94   20.17
   0  -1  -3 1496.43   22.75
   0   1   3 1442.57   22.67
   0  -1  -3 1407.80   22.34
   0  -1  -3 1457.24   18.11
   0   1   3 1456.54   22.80
   0  -1  -3 1454.79   17.69
   0  -1  -3 1514.39   20.48
   0   1   4   72.00    5.04
   0  -1  -4   64.47    4.13
   0  -1  -4   62.28    4.26
   0   1   4   50.96    4.95
   0   1   4   62.09    5.41
   0  -1  -4   45.88    4.49
   0  -1  -4   67.54    5.56
   0  -1  -4   70.02    5.05
   0  -1  -5   86.98    5.18
   0   1   5   80.69    6.28
   0  -1  -5   77.30    6.63
   0  -1  -5   79.58    6.14
   0   1   5   86.08    6.94
   0  -1  -5   90.13    7.19
   0  -1  -5   87.08    5.32
   0  -1  -6  158.85    9.45
   0   1   6  129.65    9.41
   0  -1  -6  143.29    7.44
   0  -1  -6  147.86    9.75
   0  -1  -6  139.93    7.03
   0   1   6  157.74    9.14
   0   1   7    3.86    1.93
   0  -1  -7    2.29    1.04
   0  -1  -7    6.45    2.08
   0  -1  -7    2.26    1.72
   0  -1  -7    4.00    1.31
   0  -1  -8 1207.66   32.70
   0  -1  -8 1191.88   24.27
   0  -1  -8 1141.82   22.19
   0  -1  -8 1146.08   29.51
   0  -1  -9    0.53    0.78
   0  -1  -9    0.44    0.83
   0  -1  -9   -0.02    0.73
   0   1   9   -1.93    1.31
   0  -1  -9    2.53    2.29
   0  -1 -10    5.01    1.82
   0  -1 -10    7.97    3.14
   0   1  10    2.49    1.89
   0  -1 -11   13.79    3.04
   0   1  11   15.25    4.88
   0  -1 -11   20.48    4.75
   0  -1 -12   17.09    5.11
   0   1  12   10.65    4.75
   0  -1 -13   48.60    8.83
   0   1  13   55.13    9.83
   0   1  14   54.24   10.16
   0  -1 -14   80.26   11.32
   0   1  15    5.22    3.47
   0  -1 -15    5.80    3.93
   0   1  16    6.80    3.55
   0   2 -17   21.06    6.86
   0   2 -17   20.45    6.15
   0   2 -16    2.84    2.92
   0  -2  16   12.09    6.09
   0   2 -16    7.06    3.15
   0   2 -15   57.54    9.22
   0  -2  15   65.45   11.33
   0   2 -15   62.99   10.59
   0   2 -14   42.60    7.94
   0  -2  14   42.36    8.26
   0   2 -14   43.08    7.46
   0  -2  13   47.49    8.18
   0   2 -13   43.85    7.08
   0   2 -13   45.78    8.18
   0   2 -12   25.97    5.51
   0  -2  12   33.58    4.34
   0   2 -12   26.66    5.69
   0  -2  12   17.32    4.74
   0  -2  11  495.20   24.60
   0  -2  11  577.70   17.04
   0   2 -11  513.14   23.82
   0   2 -11  566.16   23.60
   0   2 -10   78.90    8.20
   0  -2  10   85.31    6.35
   0   2 -10   79.68    5.94
   0  -2  10   72.51    8.77
   0   2 -10   80.09    8.78
   0   2  -9   59.93    4.95
   0  -2   9   72.29    5.61
   0   2  -9   57.84    6.95
   0  -2   9   55.20    7.22
   0   2  -9   62.51    6.98
   0   2  -8   36.99    5.15
   0   2  -8   45.28    5.43
   0   2  -8   40.63    3.84
   0  -2   8   48.72    4.38
   0  -2   7   60.54    6.44
   0   2  -7   65.17    6.43
   0   2  -7   73.54    4.80
   0   2  -7   71.26    6.25
   0  -2   7   77.86    5.22
   0   2  -6   27.89    2.91
   0  -2   6   23.67    2.71
   0  -2   6   22.05    3.57
   0  -2   6   21.76    3.13
   0   2  -6   19.89    2.93
   0   2  -6   23.40    3.87
   0  -2   6   18.00    3.50
   0  -2   5  285.41   10.18
   0  -2   5  286.46    8.75
   0   2  -5  298.27   11.81
   0   2  -5  306.42   10.44
   0   2  -5  287.02    8.59
   0   2  -5  283.11   11.73
   0  -2   5  298.02   11.94
   0  -2   5  291.84   11.96
   0  -2   4  761.00   13.44
   0   2  -4  772.16   16.93
   0   2  -4  743.59   13.88
   0   2  -4  770.28   17.45
   0  -2   4  795.25   17.35
   0  -2   4  765.98   17.12
   0   2  -4  762.94   13.30
   0  -2   4  768.11   14.54
   0  -2   3  874.79   16.08
   0  -2   3  919.62   16.91
   0   2  -3  900.44   16.70
   0   2  -3  878.56   12.34
   0   2  -3  912.79   13.81
   0  -2   3  921.17   13.96
   0  -2   2   15.35    1.74
   0   2  -2   19.80    2.00
   0  -2   2   18.26    2.17
   0   2  -2   15.73    1.88
   0  -2   1 2561.07   23.05
   0   2  -1 2595.99   22.74
   0   2  -1 2522.53   22.69
   0  -2   1 2516.74   23.16
   0   2  -1 2485.82   22.62
   0  -2   1 2552.42   22.49
   0  -2   0 3342.89   21.11
   0   2   0 3360.55   21.01
   0  -2   0 3175.73   26.59
   0   2   0 3275.31   25.58
   0   2   0 3190.26   27.00
   0  -2   0 3173.82   25.93
   0   2   0 3263.20   26.67
   0  -2   0 3308.24   25.82
   0   2   1 1007.52   15.57
   0   2   1  980.96   14.93
   0   2   1  983.79   14.77
   0  -2  -1  960.88   14.65
   0  -2  -1 1016.54   15.14
   0  -2  -1  971.08   16.07
   0   2   1 1001.47   16.23
   0  -2  -1  977.44   15.52
   0  -2  -2  330.99   10.21
   0   2   2  323.79   10.57
   0  -2  -2  327.39    9.53
   0  -2  -2  316.76   10.54
   0   2   2  329.00    9.50
   0   2   2  334.97   10.35
   0   2   2  326.95    9.52
   0   2   3  360.15   10.85
   0  -2  -3  370.12   12.40
   0   2   3  355.03   10.89
   0   2   3  361.30   12.48
   0  -2  -3  381.79   13.01
   0   2   3  373.75   12.61
   0  -2  -3  353.91   10.55
   0  -2  -3  363.74   10.93
   0   2   4 2800.13   38.76
   0   2   4 2778.66   33.40
   0  -2  -4 2719.93   31.22
   0   2   4 2790.46   34.11
   0  -2  -4 2750.42   31.67
   0   2   4 2659.33   37.78
   0  -2  -4 2756.87   37.92
   0  -2  -4 2813.23   38.45
   0   2   5 2077.63   31.62
   0  -2  -5 1975.76   35.14
   0   2   5 1980.66   35.86
   0  -2  -5 2149.45   29.01
   0  -2  -5 2119.30   30.50
   0  -2  -6   45.74    5.78
   0  -2  -6   38.55    4.26
   0  -2  -6   41.77    4.25
   0   2   6   40.82    5.55
   0   2   7  144.03   11.31
   0  -2  -7  139.39    8.57
   0  -2  -7  145.79   11.01
   0  -2  -7  160.37    8.76
   0  -2  -8   90.28    9.45
   0   2   8   74.09    8.80
   0  -2  -8   84.06    6.62
   0  -2  -9  201.27   10.66
   0   2   9  193.57   15.06
   0  -2  -9  216.09   15.19
   0  -2 -10    3.87    1.97
   0  -2 -10    2.50    2.68
   0   2  10    1.65    1.72
   0  -2 -11   23.29    5.56
   0   2  11   19.92    5.52
   0  -2 -11   26.88    4.26
   0   2  12   -0.90    1.61
   0  -2 -12    0.55    0.78
   0   2  12    2.06    2.90
   0   2  13   -1.62    0.48
   0  -2 -13    5.49    3.32
   0   2  13    4.20    2.72
   0   2  14   21.58    5.55
   0   2  14   12.77    4.79
   0  -2 -14   16.40    5.01
   0  -2 -15   26.95    7.77
   0   2  15   17.81    6.96
   0   2  15   12.57    5.60
   0   3 -17    4.03    3.77
   0   3 -17    4.21    3.41
   0   3 -16    1.50    1.79
   0  -3  16    5.47    4.70
   0   3 -16    1.17    0.97
   0  -3  15    3.55    2.37
   0   3 -15    4.86    3.16
   0   3 -15    3.95    3.04
   0  -3  14   97.92   12.82
   0   3 -14  133.47   13.90
   0   3 -14  104.45   11.43
   0   3 -13  226.39   15.96
   0   3 -13  237.61   17.79
   0  -3  13  194.18   16.79
   0   3 -12    2.02    2.41
   0  -3  12    1.68    1.40
   0  -3  12    1.18    2.15
   0   3 -12   -0.09    0.96
   0   3 -11  254.69   14.97
   0  -3  11  264.56   11.89
   0  -3  11  270.33   17.74
   0   3 -11  237.82   15.81
   0   3 -10   96.70    6.85
   0  -3  10  109.59    7.48
   0  -3  10  112.35   10.88
   0   3 -10   86.12    8.22
   0   3 -10   92.14    9.32
   0   3  -9  130.78   10.51
   0   3  -9  132.96    7.64
   0  -3   9  151.33   11.67
   0   3  -9  132.35    9.41
   0  -3   9  154.83    8.54
   0  -3   8    4.87    2.20
   0   3  -8    2.23    1.66
   0   3  -8    1.08    0.47
   0   3  -8    1.68    1.38
   0  -3   8    3.33    1.31
   0  -3   7  465.37   15.58
   0  -3   7  493.47   18.56
   0   3  -7  467.38   17.98
   0   3  -7  482.99   13.40
   0  -3   7  479.59   13.60
   0   3  -7  461.00   14.93
   0  -3   6   12.85    2.52
   0  -3   6   20.90    2.78
   0   3  -6   21.03    2.94
   0   3  -6   16.76    2.33
   0   3  -6   21.91    3.68
   0   3  -5  131.68    8.21
   0   3  -5  132.18    6.50
   0   3  -5  126.45    6.14
   0  -3   5  134.56    8.51
   0  -3   5  134.59    6.72
   0  -3   5  138.14    8.40
   0  -3   4   32.62    3.87
   0   3  -4   40.30    2.92
   0  -3   4   36.94    3.85
   0   3  -4   41.00    3.53
   0   3  -4   33.50    3.74
   0  -3   4   38.14    3.50
   0  -3   3  187.04    7.60
   0   3  -3  194.57    7.60
   0   3  -3  193.60    8.47
   0   3  -2   54.23    2.31
   0  -3   2   70.87    4.82
   0   3  -2   58.40    4.26
   0  -3   2   54.35    4.55
   0   3  -2   63.03    4.49
   0  -3   2   63.96    4.40
   0  -3   1   39.72    2.34
   0   3  -1   36.13    2.16
   0  -3   1   36.82    3.35
   0  -3   1   31.14    3.21
   0   3  -1   36.16    3.32
   0  -3   1   36.84    3.52
   0   3  -1   30.36    3.02
   0   3  -1   36.92    3.36
   0   3   0   33.20    3.37
   0   3   0   35.72    3.22
   0   3   0   36.12    3.61
   0  -3   0   38.45    3.42
   0  -3   0   38.22    3.64
   0  -3   0   35.92    3.40
   0   3   0   37.08    2.75
   0  -3   0   41.05    2.97
   0  -3  -1   46.63    3.76
   0   3   1   46.79    3.90
   0   3   1   48.56    4.38
   0  -3  -1   38.65    4.07
   0   3   1   43.72    3.97
   0  -3  -1   40.02    3.64
   0   3   1   44.12    3.65
   0  -3  -1   44.55    4.02
   0   3   2 1013.83   18.97
   0  -3  -2 1021.24   18.89
   0   3   2 1076.08   20.47
   0   3   2 1035.28   21.49
   0  -3  -2 1017.70   19.81
   0  -3  -2 1003.58   19.71
   0  -3  -2  964.83   20.97
   0   3   2 1055.33   20.26
   0   3   3  152.46    8.04
   0  -3  -3  144.41    8.32
   0  -3  -3  149.57    7.93
   0   3   3  147.83    8.71
   0   3   3  143.64    7.80
   0  -3  -3  152.92    8.91
   0   3   3  148.80    8.85
   0   3   4 1048.16   22.08
   0   3   4  908.75   24.08
   0  -3  -4  920.98   23.01
   0  -3  -4 1017.19   21.61
   0   3   4 1017.81   21.87
   0  -3  -4 1006.89   21.30
   0   3   5   81.94    6.72
   0  -3  -5   96.35    6.89
   0  -3  -5   79.17    7.34
   0  -3  -5   85.45    6.66
   0   3   5   78.46    6.59
   0   3   5   72.24    7.25
   0  -3  -6  113.35    7.74
   0  -3  -6  107.21    9.33
   0   3   6   92.51    8.80
   0   3   7  155.25   10.62
   0  -3  -7  151.19   11.59
   0   3   7  139.81   11.62
   0  -3  -7  160.79    9.54
   0  -3  -8  184.62   10.75
   0  -3  -8  176.77   13.65
   0   3   8  159.85   13.10
   0  -3  -9   18.80    3.68
   0  -3  -9   19.17    4.88
   0   3   9   10.06    3.93
   0   3   9   16.66    3.49
   0  -3 -10   64.94    6.85
   0   3  10   47.34    8.08
   0  -3 -10   47.19    8.11
   0   3  10   53.93    7.47
   0  -3 -11   59.63    6.74
   0   3  11   44.91    7.28
   0  -3 -11   46.07    8.45
   0   3  11   47.19    8.49
   0  -3 -12    5.38    3.54
   0   3  12    4.97    3.13
   0   3  12    3.21    3.11
   0   3  13   23.58    6.21
   0  -3 -13   28.14    7.13
   0   3  13   20.03    6.27
   0   3  14    1.75    3.54
   0   3  14    3.35    1.57
   0  -3 -14    1.48    2.68
   0   4 -18   11.50    5.18
   0   4 -17   21.26    6.07
   0  -4  17   12.76    6.04
   0   4 -17   20.14    6.71
   0  -4  16  128.25   16.03
   0   4 -16  122.07   14.95
   0   4 -16  156.02   14.90
   0  -4  15   21.40    6.65
   0   4 -15   19.70    4.83
   0   4 -15   18.48    5.74
   0  -4  14   17.40    5.80
   0   4 -14   11.66    4.50
   0   4 -14   13.50    3.84
   0   4 -13    9.75    3.45
   0   4 -13    6.37    3.02
   0   4 -12  451.40   20.58
   0   4 -12  423.69   22.49
   0  -4  12  423.42   16.18
   0  -4  11   12.39    2.76
   0   4 -11   13.51    3.46
   0   4 -11    8.21    3.42
   0  -4  11   17.49    4.58
   0  -4  10   95.80    7.27
   0   4 -10   80.25    8.98
   0  -4  10  103.60   10.56
   0   4 -10   94.63    7.02
   0   4 -10   99.65    8.39
   0  -4   9   69.81    7.90
   0   4  -9   77.33    8.41
   0   4  -9   71.63    5.91
   0  -4   9   82.22    6.57
   0   4  -9   68.89    6.55
   0   4  -8   46.38    6.09
   0   4  -8   48.97    5.02
   0  -4   8   59.74    7.03
   0   4  -8   51.29    4.89
   0  -4   8   59.40    5.45
   0  -4   7   58.44    5.25
   0   4  -7   50.34    4.72
   0   4  -7   46.08    5.81
   0  -4   7   47.19    5.97
   0   4  -7   51.27    4.64
   0   4  -6   45.77    3.86
   0   4  -6   44.49    4.38
   0   4  -6   37.60    5.00
   0  -4   6   39.80    5.00
   0  -4   6   34.94    3.98
   0  -4   5  266.41   12.56
   0   4  -5  311.52   11.33
   0  -4   5  305.67   12.71
   0   4  -5  271.04   12.43
   0  -4   5  305.27   11.36
   0   4  -5  290.54    8.60
   0   4  -4  119.81    4.66
   0  -4   4  110.11    6.78
   0   4  -4  126.80    7.07
   0   4  -4  123.03    7.78
   0  -4   4  121.62    8.05
   0  -4   3  221.38    9.70
   0  -4   3  210.95    9.87
   0   4  -3  197.98    8.98
   0   4  -3  203.21    9.52
   0   4  -2  336.70   11.76
   0   4  -2  350.68    6.91
   0  -4   2  309.67   11.80
   0  -4   2  343.22   12.01
   0  -4   2  314.57   12.04
   0   4  -2  343.83   11.74
   0  -4   1  726.51   17.62
   0   4  -1  675.74   16.41
   0   4  -1  667.03   16.69
   0   4  -1  684.43   11.53
   0  -4   1  674.12   11.72
   0  -4   1  669.62   16.76
   0  -4   1  655.90   16.79
   0   4   0 1151.02   22.41
   0  -4   0 1139.73   22.57
   0  -4   0 1117.54   17.77
   0   4   0 1076.89   22.08
   0  -4   0 1053.83   21.23
   0   4   0 1109.49   17.54
   0   4   0 1134.74   21.17
   0  -4   0 1123.86   22.31
   0  -4  -1  257.92   10.86
   0   4   1  265.61    9.89
   0  -4  -1  270.91   10.90
   0   4   1  285.14   11.60
   0   4   1  273.56   11.91
   0  -4  -1  250.68   11.15
   0  -4  -1  285.41   10.16
   0   4   1  268.95   10.69
   0  -4  -2  197.65    9.90
   0   4   2  198.72    9.53
   0   4   2  216.74   10.43
   0  -4  -2  210.75    9.77
   0  -4  -2  217.29   10.02
   0  -4  -2  188.25   10.59
   0   4   2  216.26   10.97
   0   4   2  216.83   10.00
   0   4   3  979.43   22.06
   0   4   3  866.26   23.36
   0  -4  -3  885.37   22.32
   0  -4  -3  943.56   22.22
   0   4   3  923.35   22.06
   0  -4  -4  152.51    9.30
   0  -4  -4  135.27    9.44
   0   4   4  125.60    9.66
   0   4   4  157.69    9.48
   0   4   5  717.80   24.44
   0  -4  -5  851.21   22.49
   0  -4  -5  728.65   23.86
   0   4   5  865.55   23.44
   0  -4  -6    2.73    1.85
   0   4   6    1.99    1.82
   0  -4  -6    0.89    1.23
   0   4   6    1.86    1.24
   0   4   7  130.59   10.15
   0  -4  -7  130.64    9.40
   0  -4  -7  115.03   10.89
   0   4   7  119.95   11.33
   0   4   8    1.32    1.45
   0  -4  -8    0.22    0.70
   0   4   8    0.57    0.70
   0  -4  -8    0.47    0.67
   0   4   9   82.85    8.99
   0   4   9   56.72    8.94
   0  -4  -9   61.53    8.78
   0  -4  -9   72.71    7.57
   0  -4 -10   95.97   11.56
   0   4  10  102.72   12.52
   0  -4 -10  110.90    9.49
   0   4  10  103.75   10.80
   0  -4 -11    1.99    2.94
   0   4  11    2.09    3.06
   0  -4 -11   -0.76    1.03
   0   4  12   39.61    7.18
   0   4  12   26.53    7.47
   0  -4 -12   19.61    5.63
   0   4  13    3.78    3.69
   0   4  13    4.22    2.82
   0  -4 -13    2.19    2.55
   0   5 -18    1.18    2.73
   0   5 -17   24.78    6.96
   0   5 -17   24.60    6.30
   0  -5  17   43.54    9.71
   0  -5  16   -0.68    0.95
   0   5 -16    5.21    3.15
   0   5 -16    3.96    2.85
   0  -5  15    4.05    3.57
   0   5 -15    2.17    2.60
   0   5 -15   -1.49    0.85
   0   5 -14    6.25    3.29
   0  -5  14   14.69    5.37
   0   5 -14   11.26    3.69
   0  -5  13   65.47    6.74
   0   5 -13   90.28    9.52
   0   5 -13   67.22    9.51
   0  -5  13   83.31   11.14
   0  -5  12   75.59   10.01
   0  -5  12   57.83    6.41
   0   5 -12   69.93    7.66
   0   5 -12   55.03    8.25
   0  -5  11    5.73    2.21
   0  -5  11    3.56    2.13
   0   5 -11    5.79    2.36
   0   5 -11    3.34    1.71
   0  -5  10  102.20    7.99
   0   5 -10  109.85    8.37
   0   5 -10  111.22   10.78
   0  -5  10  128.98   11.65
   0  -5   9  546.05   18.06
   0   5  -9  580.61   17.98
   0   5  -9  583.76   23.83
   0  -5   8   56.52    5.70
   0   5  -8   57.51    7.22
   0   5  -8   69.58    5.68
   0  -5   8   68.03    7.50
   0   5  -7  115.99    9.45
   0  -5   7  122.66    8.24
   0  -5   7  140.80   10.37
   0   5  -7  121.81    6.72
   0   5  -7  130.27    8.34
   0   5  -6    9.77    1.71
   0  -5   6   10.98    2.40
   0   5  -6   14.96    2.77
   0   5  -6   11.19    3.17
   0  -5   6   15.60    3.55
   0   5  -5  297.06    7.87
   0  -5   5  292.62   12.52
   0   5  -5  299.37   12.19
   0   5  -5  293.22   13.64
   0   5  -4  456.34   15.90
   0  -5   4  482.22   15.85
   0   5  -4  467.46   15.54
   0  -5   3   28.63    3.84
   0   5  -3   28.25    3.66
   0   5  -3   33.39    2.23
   0  -5   3   32.59    4.30
   0   5  -3   29.41    3.96
   0  -5   3   27.65    4.11
   0  -5   2   20.88    3.56
   0   5  -2   22.25    2.02
   0   5  -2   23.75    3.47
   0   5  -2   18.21    3.30
   0  -5   2   26.36    3.73
   0   5  -2   19.57    3.54
   0  -5   2   17.06    3.23
   0   5  -1  144.33    8.96
   0  -5   1  158.43    6.56
   0  -5   1  144.28    8.85
   0  -5   1  172.00    9.64
   0   5  -1  153.45    6.32
   0   5  -1  167.82    9.48
   0   5  -1  165.24    9.03
   0  -5   1  158.10    9.37
   0   5   0   85.81    6.58
   0   5   0   96.27    7.31
   0  -5   0   89.38    7.13
   0   5   0   88.47    5.57
   0  -5   0   90.10    7.18
   0  -5   0   95.29    5.85
   0  -5   0   87.32    6.94
   0   5   1   19.85    2.97
   0   5   1   13.74    2.93
   0  -5  -1   21.62    3.66
   0  -5  -1   17.14    2.84
   0   5   1   15.83    2.82
   0  -5  -1   21.04    3.33
   0   5   2   13.33    2.64
   0   5   2   11.00    2.73
   0  -5  -2    7.68    2.42
   0  -5  -2   10.68    2.45
   0  -5  -2   13.28    2.57
   0  -5  -3  156.86   10.08
   0   5   3  145.83   10.45
   0  -5  -3  163.09   10.10
   0   5   4   47.58    6.15
   0  -5  -4   45.08    5.54
   0   5   4   43.59    5.22
   0  -5  -4   46.50    5.86
   0   5   5  367.84   18.52
   0  -5  -5  372.50   16.27
   0  -5  -5  391.33   18.46
   0   5   5  418.87   17.11
   0   5   6  136.68   12.09
   0   5   6  165.49   11.47
   0  -5  -6  137.69   11.76
   0  -5  -6  166.82   11.05
   0   5   7    8.06    3.44
   0  -5  -7    5.10    2.43
   0   5   7    7.45    2.70
   0  -5  -7    7.85    3.09
   0   5   8   44.66    7.85
   0  -5  -8   51.54    6.56
   0  -5  -8   37.58    6.80
   0   5   8   39.85    6.20
   0   5   9    3.47    1.34
   0  -5  -9    8.36    3.00
   0  -5  -9    5.13    2.93
   0   5   9    3.46    3.68
   0   5  10   96.31   12.14
   0  -5 -10   96.71    9.44
   0   5  10  106.83   11.48
   0  -5 -10   84.52   11.50
   0  -5 -11    6.50    3.82
   0   5  11   12.23    4.14
   0   5  11   10.70    4.35
   0  -5 -12   77.95   11.91
   0   5  12   79.96   12.30
   0   5  12   69.29    9.94
   0  -5 -13   12.79    5.12
   0   5  13   18.49    6.84
   0   6 -17   11.20    2.93
   0  -6  17    9.79    5.47
   0   6 -16   43.49    7.27
   0   6 -16   48.37    9.53
   0   6 -15    3.08    1.93
   0   6 -15    0.40    2.32
   0  -6  15    3.63    2.58
   0  -6  14    3.20    1.69
   0   6 -14    0.20    0.28
   0   6 -14    4.58    2.22
   0  -6  13   29.68    4.89
   0   6 -13   29.59    5.29
   0   6 -13   18.36    4.89
   0  -6  13   26.92    6.53
   0  -6  12   22.20    5.79
   0  -6  12   13.91    3.26
   0   6 -12   12.69    3.79
   0   6 -12   18.96    3.92
   0   6 -11  296.23   19.12
   0   6 -11  313.52   14.61
   0  -6  11  273.30   14.25
   0  -6  11  295.86   19.00
   0  -6  10   16.32    4.42
   0  -6  10   15.35    3.09
   0   6 -10   11.11    2.56
   0   6 -10   11.98    3.50
   0  -6   9  499.88   18.65
   0  -6   9  545.57   23.06
   0   6  -9  550.98   16.46
   0   6  -9  507.59   22.73
   0  -6   8   79.68    8.26
   0   6  -8   76.31    5.57
   0  -6   8   71.55    6.93
   0   6  -8   69.44    7.81
   0   6  -7  623.29   13.98
   0  -6   7  574.30   19.63
   0   6  -7  703.62   24.20
   0  -6   7  685.74   23.03
   0   6  -6  157.33   10.94
   0   6  -6  143.54    5.92
   0  -6   6  132.11    9.37
   0  -6   5  468.88   17.34
   0   6  -5  530.75   19.48
   0  -6   4   21.43    3.75
   0   6  -4   18.37    1.74
   0   6  -4   22.61    3.82
   0   6  -3   21.31    3.50
   0  -6   3   19.11    3.71
   0   6  -3   18.58    1.82
   0  -6   2  536.33   18.76
   0  -6   2  581.52   12.35
   0   6  -2  567.18   11.70
   0   6  -2  588.81   18.54
   0   6  -2  528.49   18.34
   0   6  -1    2.84    1.61
   0  -6   1    0.63    0.79
   0  -6   1    2.08    1.25
   0   6  -1    1.13    0.79
   0   6  -1    1.39    1.47
   0   6   0   15.34    3.12
   0  -6   0   15.63    3.66
   0   6   0   15.44    2.50
   0  -6   0   19.30    2.95
   0   6   0   13.14    3.08
   0   6   1   31.71    4.59
   0   6   1   29.66    4.71
   0   6   1   35.67    4.30
   0  -6  -1   39.69    4.52
   0  -6  -1   40.86    5.38
   0  -6  -2   89.59    8.06
   0   6   2   84.62    7.45
   0  -6  -2   73.04    6.82
   0   6   2   86.00    8.39
   0   6   3   10.97    2.95
   0  -6  -3   13.85    3.36
   0  -6  -3   13.42    3.19
   0   6   3   11.36    3.26
   0  -6  -4  124.56    9.78
   0  -6  -4  118.37    9.87
   0   6   4  119.14    9.44
   0   6   4  111.76   10.35
   0  -6  -5   14.13    3.37
   0   6   5   11.36    2.91
   0  -6  -5    9.34    2.81
   0   6   5   14.84    3.94
   0   6   6    2.88    2.19
   0  -6  -6    3.21    1.99
   0   6   6    1.35    2.02
   0  -6  -6    1.74    1.66
   0   6   7   60.91    9.00
   0  -6  -7   73.18    9.29
   0  -6  -7   64.75    7.53
   0   6   7   82.03    8.85
   0   6   8    4.19    2.57
   0  -6  -8    2.57    1.42
   0   6   8    2.78    3.02
   0  -6  -8    2.23    2.20
   0  -6  -9   25.29    6.34
   0   6   9   19.37    5.66
   0  -6  -9   23.52    4.93
   0   6   9   17.08    4.95
   0   6  10   12.85    4.26
   0  -6 -10    7.83    4.52
   0  -6 -10    6.60    3.11
   0   6  10    8.48    3.47
   0   6  11   26.13    6.96
   0   6  11   25.09    5.80
   0  -6 -11   20.94    6.23
   0  -6 -12   24.30    7.08
   0   6  12   18.45    6.58
   0  -7  17    6.71    4.56
   0   7 -17    5.16    3.37
   0   7 -16    8.29    3.37
   0  -7  16    9.82    5.07
   0   7 -15   52.12    7.00
   0   7 -15   57.12   10.20
   0   7 -14    4.16    2.68
   0  -7  14    5.29    3.63
   0   7 -14    4.96    2.60
   0   7 -13   21.71    5.80
   0  -7  13   21.02    4.45
   0   7 -13   35.80    5.44
   0  -7  13   36.03    7.12
   0   7 -12   20.50    5.22
   0   7 -12   19.22    3.70
   0  -7  12   22.66    6.04
   0  -7  12   26.23    4.90
   0  -7  11   29.41    4.94
   0  -7  11   33.54    6.42
   0   7 -11   19.17    4.84
   0   7 -11   31.07    4.42
   0   7 -10  214.61   10.59
   0   7 -10  193.10   15.16
   0  -7  10  209.40   15.39
   0  -7  10  207.76   13.05
   0   7  -9   10.86    2.16
   0  -7   9   15.82    3.81
   0   7  -9   15.88    4.05
   0  -7   9   18.76    4.62
   0  -7   8  723.93   25.70
   0   7  -8  711.39   26.40
   0  -7   8  658.01   22.71
   0   7  -8  723.97   15.78
   0  -7   7  140.81   10.97
   0  -7   7  115.08    9.58
   0   7  -7  126.78    5.78
   0   7  -7  122.71   10.46
   0   7  -6  468.66    9.97
   0  -7   6  463.28   18.81
   0   7  -6  485.05   20.26
   0   7  -6  494.52   10.20
   0   7  -5  689.27   10.96
   0  -7   5  645.02   22.14
   0  -7   4   44.68    5.89
   0   7  -4   46.89    2.92
   0   7  -4   52.30    6.16
   0   7  -3  125.38    5.35
   0   7  -3  123.93    9.33
   0  -7   3  130.29    9.98
   0   7  -2    5.60    2.22
   0   7  -2    5.44    1.27
   0  -7   2    5.34    1.43
   0   7  -2    5.42    2.43
   0  -7   2    4.23    1.69
   0   7  -1  339.18   15.25
   0  -7   1  351.45   12.04
   0   7  -1  335.49   11.66
   0  -7   1  317.51   15.88
   0   7   0   62.20    5.55
   0  -7   0   65.76    5.81
   0   7   0   59.57    6.50
   0   7   0   56.14    6.86
   0  -7   0   59.52    6.97
   0   7   1  544.04   19.66
   0  -7  -1  492.58   17.37
   0   7   1  484.71   20.72
   0   7   2  147.68   10.53
   0  -7  -2  143.53   11.30
   0  -7  -2  140.56   10.11
   0   7   2  148.75   11.86
   0   7   3   39.77    5.65
   0  -7  -3   37.97    5.94
   0   7   3   23.99    5.26
   0  -7  -3   31.21    5.17
   0  -7  -4   41.83    6.23
   0   7   4   50.48    7.67
   0  -7  -4   45.18    6.41
   0   7   4   53.20    6.67
   0  -7  -5  107.89   10.28
   0  -7  -5   76.59    9.19
   0   7   5   84.08   10.21
   0   7   5   90.43    9.13
   0   7   6   18.06    4.29
   0  -7  -6   14.53    4.09
   0  -7  -6   18.72    4.88
   0   7   6    7.99    3.81
   0   7   7    6.09    2.87
   0  -7  -7    2.51    0.95
   0  -7  -7    3.29    2.27
   0   7   7    1.62    1.86
   0   7   8   49.82    7.70
   0  -7  -8   54.32    8.87
   0  -7  -8   48.41    7.38
   0  -7  -9   50.97    9.12
   0  -7  -9   65.57    8.78
   0   7   9   71.28   11.36
   0   7   9   67.78    9.22
   0   7  10    6.43    2.90
   0  -7 -10    3.19    4.02
   0   7  10    5.31    4.44
   0   7  11   14.79    6.53
   0  -7 -11   15.24    6.00
   0   8 -17   26.21    7.44
   0   8 -16   -1.78    2.28
   0  -8  16   -0.98    1.08
   0  -8  15    5.77    3.29
   0   8 -15    5.72    2.87
   0  -8  14   56.74   10.00
   0   8 -14   68.60   10.74
   0   8 -13   83.56    7.84
   0  -8  13   96.16    9.60
   0   8 -13   82.61   11.43
   0  -8  13  107.36   12.71
   0  -8  12   30.10    5.48
   0  -8  12   50.18    8.30
   0   8 -12   36.58    7.28
   0   8 -12   29.08    4.31
   0   8 -11  193.36   10.28
   0   8 -11  180.99   15.79
   0  -8  11  197.52   13.74
   0  -8  11  208.22   16.55
   0  -8  10    0.32    1.58
   0   8 -10    1.44    2.51
   0  -8  10   -1.01    1.95
   0   8 -10   -0.10    0.37
   0   8  -9  289.34   10.23
   0  -8   9  309.13   18.18
   0   8  -9  314.26   19.09
   0   8  -8  327.92   18.82
   0   8  -8  296.10    9.17
   0  -8   8  284.11   16.03
   0  -8   8  336.54   18.11
   0   8  -7  462.93   10.17
   0   8  -7  471.52   10.07
   0  -8   7  493.74   21.06
   0   8  -6  309.63    7.37
   0  -8   6  315.97   16.72
   0  -8   5   89.40    9.10
   0   8  -5   83.18    8.82
   0   8  -5   80.76    3.78
   0  -8   4    6.01    2.32
   0   8  -4    6.26    2.57
   0   8  -4    5.40    1.10
   0   8  -3   26.62    4.56
   0  -8   3   28.58    5.19
   0   8  -3   34.17    3.12
   0  -8   2  665.62   24.80
   0   8  -2  672.76   24.52
   0   8  -2  711.55   16.52
   0   8  -2  722.70   23.76
   0   8  -1  222.98   14.18
   0   8  -1  225.33   10.40
   0  -8   1  267.34   15.89
   0   8  -1  219.96   13.04
   0  -8   1  258.63   11.24
   0  -8   0  104.27    7.84
   0  -8   0  115.90   10.49
   0   8   0   93.49    9.26
   0   8   0  123.77    9.86
   0   8   1  108.73   10.54
   0   8   1  119.48    9.85
   0  -8  -1  122.97    9.34
   0   8   2  209.47   13.21
   0  -8  -2  187.72   12.25
   0   8   2  186.94   14.29
   0  -8  -2  230.34   15.12
   0   8   3  301.94   16.48
   0  -8  -3  306.20   17.75
   0   8   3  256.35   17.52
   0  -8  -3  292.79   16.39
   0  -8  -4   15.06    3.83
   0   8   4    8.40    3.52
   0  -8  -4   14.16    4.27
   0   8   4   11.53    3.70
   0  -8  -5   14.48    4.63
   0   8   5    3.67    2.48
   0  -8  -5    5.54    3.56
   0   8   5    8.12    2.60
   0  -8  -6    3.25    2.71
   0  -8  -6   -1.31    1.17
   0   8   6    1.80    2.36
   0   8   6    6.98    3.91
   0  -8  -7   86.86   11.61
   0   8   7   85.24    9.96
   0   8   7   74.26   11.03
   0  -8  -7  112.05   11.46
   0  -8  -8    2.67    2.41
   0  -8  -8    2.80    0.93
   0   8   8    3.19    2.40
   0   8   8    3.62    3.64
   0  -8  -9   11.68    5.19
   0   8   9   12.87    4.96
   0  -8  -9   19.57    5.28
   0  -8 -10   12.20    5.81
   0   8  10   10.09    5.34
   0   9 -16   75.81   12.59
   0  -9  16   87.63   14.16
   0   9 -15   19.06    6.01
   0  -9  15   18.50    5.74
   0  -9  14    1.79    3.11
   0   9 -14    0.59    1.83
   0  -9  13    4.66    2.44
   0  -9  13    2.41    1.82
   0   9 -13    1.16    2.44
   0   9 -12   10.71    4.00
   0  -9  12   11.74    4.58
   0  -9  12    4.02    2.18
   0  -9  11    4.20    2.93
   0  -9  11    0.33    1.21
   0   9 -11    1.84    2.40
   0  -9  10   24.83    4.83
   0  -9  10   30.94    6.86
   0   9 -10   42.89    7.54
   0   9  -9   52.00    7.98
   0   9  -9   41.94    3.36
   0  -9   9   38.73    6.85
   0  -9   9   35.22    6.22
   0   9  -8    0.17    0.25
   0  -9   8    0.64    1.62
   0  -9   8   -0.37    0.99
   0   9  -8    0.07    1.17
   0   9  -7  208.78   14.87
   0  -9   7  186.28   13.97
   0  -9   6  119.61   11.10
   0   9  -6  107.82    3.95
   0   9  -5   43.77    6.54
   0   9  -5   23.86    2.14
   0  -9   5   41.46    6.46
   0  -9   4    4.61    2.15
   0   9  -4    8.25    3.28
   0   9  -4    5.62    1.25
   0   9  -3   85.32    8.81
   0  -9   3  102.26   10.43
   0   9  -3   94.77    5.71
   0   9  -2  165.28    8.57
   0   9  -2  180.74   12.62
   0  -9   2  146.85   12.47
   0   9  -2  171.64   13.41
   0  -9   2  190.47    9.37
   0  -9   1  306.41   13.18
   0   9  -1  290.12   17.70
   0  -9   1  315.45   18.45
   0   9  -1  311.38   16.56
   0   9   0 1497.51   40.75
   0   9   0 1588.80   37.87
   0  -9   0 1484.83   31.66
   0   9   1  477.10   23.42
   0  -9  -1  525.82   24.21
   0   9   1  504.84   21.73
   0  -9  -2   36.72    5.83
   0   9   2   54.88    7.44
   0   9   2   45.98    7.69
   0  -9  -2   55.12    8.42
   0   9   3   18.84    4.59
   0   9   3   14.23    4.19
   0  -9  -3   19.69    4.46
   0  -9  -3   16.01    4.27
   0   9   4   19.50    5.30
   0   9   4   13.25    4.28
   0  -9  -4   21.27    5.01
   0  -9  -4   24.79    5.61
   0   9   5    6.20    2.88
   0  -9  -5    6.06    3.19
   0  -9  -5    1.83    1.73
   0   9   5    5.41    2.93
   0   9   6   70.14    9.29
   0  -9  -6   63.95    9.63
   0  -9  -6   79.81   10.00
   0   9   6   64.81   10.63
   0   9   7   17.38    6.16
   0   9   7    9.99    3.49
   0  -9  -7   10.52    3.96
   0  -9  -7   18.47    4.98
   0  -9  -8   17.72    5.80
   0   9   8   11.98    5.31
   0  -9  -8   13.93    4.72
   0   9   9   -0.65    0.55
   0  -9  -9   -1.28    1.41
   0 -10  16    5.80    4.55
   0  10 -16    1.71    2.15
   0 -10  15   28.13    7.74
   0  10 -15   19.04    6.24
   0 -10  14  197.14   18.87
   0  10 -14  169.13   17.75
   0 -10  13    1.25    2.19
   0  10 -13    1.02    1.91
   0 -10  13    4.61    4.70
   0 -10  12   12.87    4.25
   0 -10  12   13.64    4.44
   0  10 -12   18.90    5.82
   0  10 -11   71.55   10.43
   0 -10  11   66.05    9.97
   0 -10  11   55.33    8.24
   0 -10  10   23.05    5.49
   0  10 -10   27.48    6.03
   0 -10  10   31.64    6.88
   0  10  -9    0.19    2.11
   0 -10   9    4.02    2.95
   0 -10   9    1.38    1.54
   0 -10   8  123.21   12.08
   0  10  -8  100.10   11.16
   0 -10   7    0.87    1.41
   0  10  -7   -1.02    1.01
   0  10  -6  126.03   12.08
   0 -10   6  127.94   12.28
   0 -10   5    3.80    2.49
   0  10  -5    2.07    1.33
   0  10  -4  506.60   23.00
   0 -10   4  454.76   23.48
   0  10  -3    4.22    2.29
   0 -10   3    3.46    2.07
   0 -10   2  616.60   27.81
   0  10  -2  548.17   25.34
   0 -10   2  570.99   17.37
   0  10  -2  561.19   23.64
   0 -10   1   82.89    7.25
   0  10  -1   86.49   10.44
   0  10  -1   89.17    9.41
   0 -10   0   17.61    4.41
   0  10   0   14.17    3.97
   0  10   0   18.01    5.37
   0 -10   0   13.62    3.35
   0  10   1   10.32    3.48
   0  10   1    4.84    2.68
   0 -10  -1    7.66    3.97
   0 -10  -1    7.04    2.87
   0  10   2    4.22    3.21
   0  10   2    9.38    3.19
   0 -10  -2    6.10    2.74
   0 -10  -2    4.01    2.33
   0  10   3   84.66   11.28
   0  10   3   83.52    9.82
   0 -10  -3   79.83    9.58
   0 -10  -3   94.22   11.07
   0 -10  -4    5.90    3.94
   0  10   4    1.47    2.09
   0  10   4    4.90    2.80
   0 -10  -4    4.28    2.83
   0 -10  -5    6.32    3.38
   0  10   5    7.49    4.27
   0 -10  -5    4.43    1.63
   0  10   5    1.14    1.52
   0  10   6    5.58    3.35
   0 -10  -6    5.21    3.51
   0 -10  -6    1.93    2.33
   0  10   6    3.85    2.83
   0 -10  -7   68.29   11.12
   0 -10  -7   80.87   11.24
   0  10   7   73.11   12.07
   0 -10  -8   18.78    6.34
   0 -10  -8   34.05    7.40
   0  10   8   25.49    8.20
   0  11 -15    7.13    3.81
   0 -11  15    8.62    4.87
   0  11 -14   10.82    5.22
   0 -11  14    7.30    4.51
   0 -11  13    2.62    2.13
   0  11 -13    5.82    3.98
   0 -11  13    3.67    3.67
   0 -11  12   17.77    6.07
   0 -11  12   27.02    6.33
   0  11 -12   24.57    6.10
   0  11 -11  131.74   14.49
   0 -11  11  131.91   13.32
   0 -11  11  135.37   14.34
   0 -11  10   40.72    8.13
   0  11 -10   29.61    7.12
   0 -11  10   32.61    6.52
   0 -11   9   12.64    4.66
   0 -11   9    8.97    3.95
   0  11  -9    8.24    3.30
   0  11  -8   73.06    9.90
   0 -11   8   59.20    9.06
   0  11  -7   50.85    8.18
   0 -11   7   53.24    8.49
   0  11  -6   16.11    4.45
   0 -11   6   11.82    3.71
   0 -11   5   62.02    9.00
   0  11  -5   64.39    8.69
   0  11  -4  111.92   11.53
   0 -11   4  120.33   12.90
   0 -11   3  106.49   12.46
   0  11  -3   94.50   10.44
   0  11  -2    3.66    2.25
   0 -11   2   -0.41    2.22
   0  11  -2    1.84    0.50
   0 -11   1   10.02    3.82
   0 -11   1    5.74    2.26
   0  11  -1    7.93    3.43
   0  11  -1    6.99    2.90
   0 -11   0   56.73    6.78
   0  11   0   65.94    8.76
   0  11   0   50.39    9.02
   0 -11   0   72.45   10.40
   0 -11  -1    2.64    2.55
   0  11   1    3.70    2.25
   0 -11  -1    2.39    1.84
   0  11   1    6.92    3.66
   0 -11  -2   28.95    6.99
   0  11   2   16.31    5.51
   0 -11  -2   23.88    5.00
   0  11   2   21.71    5.71
   0  11   3    2.96    3.04
   0 -11  -3    1.41    2.22
   0 -11  -3    3.70    4.10
   0  11   3    2.87    2.27
   0  11   4  190.32   15.97
   0 -11  -4  189.68   16.15
   0 -11  -4  199.37   17.74
   0  11   4  161.22   16.86
   0 -11  -5   42.87    8.83
   0 -11  -5   26.37    6.84
   0  11   5   29.29    8.03
   0 -11  -6  159.34   16.50
   0  11   6  121.62   15.67
   0 -11  -6  111.38   13.56
   0 -11  -7    1.99    3.26
   0 -11  -7    3.17    2.91
   0  12 -14   55.90   10.64
   0 -12  14   41.59    8.71
   0 -12  13    1.14    1.86
   0  12 -13    3.92    3.77
   0 -12  13    6.48    3.69
   0 -12  12    3.62    2.93
   0 -12  12    1.49    2.75
   0  12 -12    8.56    4.15
   0 -12  11   66.35   10.24
   0 -12  11   46.74    8.59
   0  12 -11   41.57    8.65
   0  12 -10   56.03    9.67
   0 -12  10   75.98   10.66
   0 -12  10   60.65    9.36
   0  12  -9  106.76   12.96
   0 -12   9   78.11   10.90
   0 -12   8    5.22    3.30
   0  12  -8    8.50    4.19
   0  12  -7   -2.22    1.51
   0 -12   7    3.88    2.69
   0  12  -6    8.78    4.24
   0 -12   6   12.32    4.77
   0 -12   5   54.16    9.50
   0  12  -5   62.01    9.01
   0  12  -4   35.77    6.84
   0 -12   4   31.45    7.45
   0  12  -3    4.78    2.44
   0 -12   3    9.83    4.25
   0 -12   2    8.73    3.82
   0  12  -2    6.62    3.05
   0  12  -1   15.12    4.56
   0  12  -1    7.37    3.87
   0 -12   1   20.12    5.70
   0 -12   0    2.70    3.99
   0  12   0    1.40    2.17
   0  12   0    4.06    3.27
   0 -12  -1   32.70    7.61
   0  12   1   39.93    8.37
   0  12   1   33.25    6.76
   0  12   2    1.10    1.61
   0  12   2    4.93    4.25
   0 -12  -2    3.02    2.54
   0 -12  -3   89.37   12.54
   0  12   3   72.13   10.34
   0  12   3   81.14   12.53
   0 -12  -4   39.56    9.00
   0  12   4   37.13    8.92
   0  12   5   11.17    5.43
   0 -12  -5   23.24    6.67
   0 -12  -6    7.72    4.25
   0 -13  13    5.46    4.83
   0 -13  13    1.77    3.14
   0  13 -13   -2.15    3.04
   0  13 -12   45.01    9.54
   0 -13  12   59.63   10.48
   0 -13  12   53.95    9.64
   0 -13  11   12.27    4.99
   0 -13  11    8.78    3.67
   0 -13  10    3.18    1.91
   0  13 -10    5.64    3.43
   0 -13  10    5.86    3.20
   0  13  -9    3.25    2.59
   0 -13   9    0.48    1.08
   0  13  -8    2.81    0.84
   0 -13   8    8.62    4.58
   0  13  -7    7.20    3.55
   0 -13   7    3.54    2.21
   0 -13   6   64.91   10.47
   0  13  -6   65.51    9.98
   0  13  -5    0.85    2.36
   0 -13   5   -1.25    2.22
   0 -13   4   30.28    7.41
   0  13  -4   21.19    5.72
   0  13  -3    4.57    3.01
   0 -13   3   -1.44    1.76
   0  13  -2   24.51    6.18
   0 -13   2   29.27    7.10
   0  13  -1    9.56    4.60
   0  13  -1   10.84    3.94
   0 -13   1    6.88    3.42
   0 -13   0    1.40    1.58
   0  13   0    3.17    2.23
   0  13   0    3.19    3.85
   0  13   1    9.03    5.74
   0  13   1    8.29    4.16
   0 -13  -1    7.84    4.08
   0 -13  -2    4.71    4.11
   0  13   2    0.07    1.35
   0  13   3   68.92   12.35
   0 -13  -3   90.86   13.78
   0 -14  13    9.43    3.85
   0 -14  12    7.43    4.45
   0 -14  12    6.00    3.54
   0 -14  11   17.33    5.72
   0  14 -11   15.89    6.30
   0 -14  11   32.87    7.17
   0  14 -10   13.63    6.33
   0 -14  10    3.75    1.49
   0 -14  10    8.74    4.82
   0  14  -9   72.48   11.94
   0 -14   9   77.26   11.91
   0 -14   8   -0.34    1.24
   0  14  -8    2.74    1.87
   0 -14   7   79.85   12.61
   0  14  -7   93.91   12.59
   0 -14   6   19.13    5.92
   0  14  -6   15.54    5.15
   0  14  -5    4.20    3.75
   0 -14   5   -1.20    0.42
   0  14  -4   20.08    5.84
   0 -14   4   20.59    6.81
   0  14  -3    3.45    3.13
   0 -14   3    9.79    5.52
   0 -14   2   24.48    6.88
   0  14  -2   31.56    6.74
   0  14  -1   26.56    6.32
   0 -14   1   22.90    7.07
   0 -14   0    5.78    3.16
   0  14   0    7.23    4.07
   0  14   0    2.79    3.43
   0  14   1    2.57    2.49
   0 -15  10   42.89    9.28
   0 -15   9    6.62    3.20
   0  15  -9    4.95    4.29
   0  15  -8   24.74    7.17
   0 -15   8   25.42    7.62
   0  15  -7   14.04    5.39
   0 -15   7   10.77    5.00
   0 -15   6   37.08    8.60
   0  15  -6   32.49    8.22
   0  15  -5    7.45    4.29
   0  15  -4   22.70    6.15
   0  15  -3   31.05    7.61
   0  15  -2    4.56    2.94
  -1  15   0   -2.78    2.10
  -1  15  -1    3.64    1.69
  -1  15  -2   21.93    6.19
  -1  15  -3    2.00    3.20
  -1  15  -4   70.81   11.81
  -1  15  -5   12.22    4.45
  -1  15  -6    5.07    3.74
   1 -15   7    1.36    1.32
  -1  15  -7    6.38    4.72
  -1  15  -8    3.94    3.64
   1 -15   9   14.48    4.98
   1 -15  10    5.96    3.99
   1 -15  11    1.61    2.60
  -1  14   2    9.16    4.95
  -1  14   2    6.60    4.64
  -1  14   1    4.28    1.86
  -1  14   1    9.97    5.18
   1 -14   0    7.50    4.03
  -1  14   0    6.09    2.47
   1 -14   1    3.23    2.38
  -1  14  -1   14.40    5.47
  -1  14  -2    3.46    3.17
   1 -14   2   -4.75    3.59
   1 -14   3    1.19    1.90
  -1  14  -3    4.22    3.86
   1 -14   4   16.39    6.01
  -1  14  -4   13.36    5.27
   1 -14   5   22.67    6.88
  -1  14  -5   25.25    6.83
  -1  14  -6    1.97    2.18
   1 -14   6   -3.85    2.89
   1 -14   7    2.13    2.98
  -1  14  -7    4.99    3.12
  -1  14  -8    1.95    1.00
   1 -14   8    2.21    2.29
  -1  14  -9    0.96    2.02
   1 -14   9    3.01    2.97
   1 -14   9    4.94    2.97
   1 -14  10    0.39    1.41
   1 -14  10   -1.71    1.22
  -1  14 -10    1.14    0.69
  -1  14 -11   -2.93    2.25
   1 -14  11    1.43    1.75
   1 -14  11    4.66    2.83
   1 -14  12   87.75   13.20
   1 -14  12   79.13   12.00
   1 -14  13    9.33    4.55
   1 -14  14   12.15    5.53
  -1  13   4    6.97    5.31
  -1  13   4    4.01    3.45
   1 -13  -4    1.94    1.49
  -1  13   3    7.91    3.18
   1 -13  -3    3.91    2.52
  -1  13   3    7.19    4.10
  -1  13   2   28.85    7.64
  -1  13   2   34.52    7.71
   1 -13  -2   32.71    8.05
  -1  13   1   22.81    5.79
  -1  13   1   28.71    7.06
   1 -13  -1   22.82    7.13
  -1  13   0   10.33    4.54
   1 -13   0   16.21    5.62
  -1  13   0    5.93    2.58
  -1  13  -1   13.95    4.91
   1 -13   1   24.35    7.23
  -1  13  -2    3.00    2.30
   1 -13   2    1.74    1.90
   1 -13   3   76.07   11.45
  -1  13  -3   62.23    9.83
   1 -13   4   21.60    5.71
  -1  13  -4   28.79    7.04
   1 -13   5    8.36    2.99
  -1  13  -5    5.98    3.59
   1 -13   6   17.61    5.84
  -1  13  -6   10.91    5.01
  -1  13  -7   14.90    5.88
   1 -13   7    9.41    4.33
   1 -13   8   -0.21    1.27
  -1  13  -8   -1.02    1.33
  -1  13  -9    5.09    3.55
   1 -13   9    7.14    3.71
   1 -13   9    3.21    3.40
   1 -13  10    1.10    1.41
   1 -13  10    8.82    2.63
  -1  13 -10    7.14    3.77
  -1  13 -11   16.94    5.65
   1 -13  11   26.99    7.08
   1 -13  11   18.57    5.86
   1 -13  12   28.50    7.05
   1 -13  12   36.84    8.20
  -1  13 -12   37.91    8.71
   1 -13  13   87.74   13.08
   1 -13  13   80.16   11.95
  -1  13 -13   81.08   13.29
   1 -13  14   -0.53    3.48
   1 -13  14    4.22    3.83
   1 -12  -6   18.91    6.02
   1 -12  -6   27.46    7.88
  -1  12   6   29.32    8.13
   1 -12  -5   -1.46    1.67
   1 -12  -5    1.01    2.40
  -1  12   5   -0.06    2.70
  -1  12   5    3.42    3.54
   1 -12  -4  142.55   15.90
  -1  12   4  144.97   15.31
  -1  12   4  146.86   16.48
   1 -12  -4  108.11   12.82
  -1  12   3    1.21    1.12
   1 -12  -3    4.81    2.93
   1 -12  -3    4.26    3.29
  -1  12   3    1.20    3.27
  -1  12   2   12.97    4.99
  -1  12   2   10.49    4.27
   1 -12  -2   13.23    4.52
   1 -12  -2   15.41    5.56
   1 -12  -1    2.00    1.84
  -1  12   1    5.66    3.52
  -1  12   1    6.08    4.25
   1 -12  -1   -0.78    0.75
   1 -12   0   49.57    8.79
  -1  12   0   46.98    8.27
   1 -12   0   28.93    5.65
  -1  12   0   44.03    8.14
  -1  12  -1   31.76    6.72
   1 -12   1   32.17    7.07
  -1  12  -1   21.50    6.02
  -1  12  -2    3.69    2.97
   1 -12   2    4.18    2.96
   1 -12   3    6.35    3.29
  -1  12  -3   -0.12    1.62
   1 -12   4   62.94   10.21
  -1  12  -4   66.70    9.78
  -1  12  -5   91.20   11.41
   1 -12   5  110.84   12.89
   1 -12   6  190.81   17.18
  -1  12  -6  181.16   16.22
   1 -12   7   12.92    4.80
  -1  12  -7   29.78    6.54
  -1  12  -8   79.00   11.02
   1 -12   8   53.39    9.32
  -1  12  -9    2.86    2.25
   1 -12   9    5.64    3.33
   1 -12   9    3.15    2.81
   1 -12  10   19.61    5.83
  -1  12 -10   16.54    5.43
   1 -12  10    9.89    4.15
   1 -12  11    8.70    3.99
  -1  12 -11    6.10    2.79
   1 -12  11    8.26    4.51
   1 -12  12    8.10    3.87
   1 -12  12    3.45    2.53
  -1  12 -12    5.39    2.78
  -1  12 -13    1.80    2.89
   1 -12  13    5.37    3.55
   1 -12  13    6.04    3.05
  -1  12 -14   42.23    9.68
   1 -12  14   29.88    6.94
   1 -12  14   40.10    8.50
   1 -12  15   -3.45    2.79
   1 -11  -7    6.75    4.65
   1 -11  -7   14.95    5.95
  -1  11   7   17.04    6.40
   1 -11  -6   20.19    5.83
  -1  11   6   15.17    5.47
  -1  11   6   19.82    6.02
   1 -11  -6   17.61    6.16
   1 -11  -5    8.81    4.18
  -1  11   5   10.98    4.28
  -1  11   5   -1.01    2.44
   1 -11  -5    6.53    3.44
  -1  11   4   -2.07    1.36
  -1  11   4    2.37    1.84
   1 -11  -4    3.54    3.36
   1 -11  -4    4.21    3.10
  -1  11   3    2.34    3.26
   1 -11  -3    3.08    2.64
   1 -11  -3    5.82    3.96
  -1  11   3    3.70    2.50
  -1  11   2    0.12    1.87
   1 -11  -2    1.19    1.67
  -1  11   2    2.10    2.40
   1 -11  -2    3.77    3.33
   1 -11  -1   72.68    8.87
  -1  11   1   64.17    9.35
   1 -11  -1   64.90    9.77
  -1  11   1   54.91    8.85
   1 -11   0    6.34    3.49
  -1  11   0    2.33    2.52
  -1  11   0    3.20    2.96
   1 -11   0    5.73    2.57
  -1  11  -1   67.08    9.67
   1 -11   1   80.08   10.31
  -1  11  -1   68.74    9.35
  -1  11  -2   51.40    8.17
   1 -11   2   57.01    8.87
  -1  11  -3  171.88   14.50
   1 -11   3  154.09   14.43
  -1  11  -4  716.13   29.99
   1 -11   4  586.20   28.61
   1 -11   5   20.23    5.01
  -1  11  -5   27.25    6.03
   1 -11   6    4.11    2.31
  -1  11  -6    8.61    3.61
   1 -11   7   -0.46    1.14
  -1  11  -7    2.52    1.81
   1 -11   8  167.07   14.03
   1 -11   8  162.09   14.89
  -1  11  -8  158.11   15.22
   1 -11   9   49.51    7.84
  -1  11  -9   50.18    8.67
   1 -11   9   44.56    7.99
   1 -11  10    5.24    3.07
   1 -11  10    7.29    3.33
  -1  11 -10    6.73    4.16
   1 -11  11    1.33    1.59
   1 -11  11    2.86    2.79
  -1  11 -11    1.95    2.58
  -1  11 -12    0.16    1.68
   1 -11  12    6.24    3.26
   1 -11  12    4.98    2.59
   1 -11  13    7.15    4.00
  -1  11 -13    7.36    4.35
   1 -11  13    6.63    3.65
   1 -11  14   17.01    6.48
   1 -11  14   18.38    5.43
  -1  11 -14   22.15    7.14
  -1  11 -15    1.65    3.12
   1 -11  15    5.58    3.00
  -1  10   8   17.38    6.43
  -1  10   8   25.09    6.08
   1 -10  -8   14.18    5.72
   1 -10  -7   21.25    6.11
  -1  10   7   11.34    5.09
   1 -10  -7   19.66    5.82
  -1  10   7   21.55    6.78
   1 -10  -6    5.65    3.24
   1 -10  -6    7.87    3.04
  -1  10   6    5.10    3.55
  -1  10   6    1.34    2.60
   1 -10  -5   25.07    5.94
   1 -10  -5   37.66    7.22
  -1  10   5   23.88    7.18
  -1  10   4   10.39    4.71
   1 -10  -4    1.71    1.61
   1 -10  -4    8.01    3.90
  -1  10   4    4.87    2.98
  -1  10   3    8.05    3.35
   1 -10  -3    9.76    4.49
   1 -10  -3    6.93    3.03
  -1  10   3    3.09    2.57
  -1  10   2   15.66    4.48
  -1  10   2   20.04    5.21
   1 -10  -2   27.79    6.54
   1 -10  -2   12.40    3.85
  -1  10   1    2.53    2.24
   1 -10  -1    1.41    1.28
   1 -10  -1   -0.69    1.43
  -1  10   0  374.24   20.92
  -1  10   0  390.24   21.43
   1 -10   0  359.53   17.84
   1 -10   0  420.69   22.91
  -1  10  -1  190.53   14.92
   1 -10   1  210.88   16.09
  -1  10  -1  168.23   13.83
   1 -10   1  171.15   11.53
  -1  10  -2    6.14    2.79
   1 -10   2   12.76    4.05
  -1  10  -3  209.01   15.42
   1 -10   3  233.34   16.83
  -1  10  -4   36.82    6.32
   1 -10   4   24.56    5.69
  -1  10  -5  204.00   15.41
   1 -10   5  169.56   14.18
  -1  10  -6    3.61    2.24
   1 -10   6   -0.94    0.83
  -1  10  -7  344.70   20.52
   1 -10   7  333.46   20.24
  -1  10  -8  128.56   13.18
   1 -10   8  170.36   14.47
   1 -10   8  143.75   12.48
   1 -10   9  115.12   11.36
  -1  10  -9  102.61   12.14
  -1  10  -9   91.24    6.76
   1 -10   9   90.94   10.55
  -1  10 -10    5.81    2.61
   1 -10  10    4.57    3.21
   1 -10  10    3.02    1.40
  -1  10 -11   88.68   11.79
   1 -10  11   67.70    9.34
   1 -10  11   96.66   11.43
  -1  10 -12    5.24    3.17
   1 -10  12    9.28    3.91
   1 -10  12    2.71    2.39
   1 -10  13    5.41    3.08
   1 -10  13    8.81    4.08
  -1  10 -13   11.69    4.78
   1 -10  14    4.75    4.06
  -1  10 -14    6.30    4.18
   1 -10  14    5.69    3.86
  -1  10 -15   12.31    5.21
   1 -10  15    7.30    3.27
   1 -10  16    5.16    4.43
  -1  10 -16   11.93    5.71
  -1   9  10   24.69    8.20
  -1   9   9   -1.50    1.27
   1  -9  -9    4.79    3.66
  -1   9   9    0.10    2.61
  -1   9   8    6.86    4.22
  -1   9   8    8.53    2.81
   1  -9  -8    4.11    2.56
   1  -9  -8   11.94    5.22
  -1   9   7   62.47   10.19
  -1   9   7   54.90    8.92
   1  -9  -7   50.93    7.96
   1  -9  -7   59.91    9.74
  -1   9   6   18.57    5.10
   1  -9  -6   23.28    5.60
  -1   9   6   21.61    5.48
   1  -9  -6    5.51    2.87
   1  -9  -5   25.12    5.95
  -1   9   5   24.30    6.27
  -1   9   5   31.44    6.54
   1  -9  -5   28.78    6.43
   1  -9  -4    3.71    2.89
   1  -9  -4    1.33    2.18
  -1   9   4   -0.02    1.42
  -1   9   4    4.54    2.89
  -1   9   3  176.97   14.76
   1  -9  -3  187.83   14.83
  -1   9   3  199.71   15.34
   1  -9  -3  155.43   12.99
   1  -9  -2  145.25   12.84
  -1   9   2  144.82   12.82
  -1   9   2  108.66   10.99
   1  -9  -2  121.57   10.86
   1  -9  -1   41.15    6.21
  -1   9   1   58.09    8.00
   1  -9  -1   67.72    8.61
  -1   9   1   40.35    6.55
   1  -9   0   45.45    6.15
  -1   9   0   52.50    7.45
  -1   9   0   48.27    7.06
   1  -9   0   56.80    7.66
   1  -9   1    2.04    1.27
  -1   9  -1    6.86    2.98
  -1   9  -1    8.01    3.06
   1  -9   1    8.40    3.30
   1  -9   2    0.08    1.13
  -1   9  -2    5.22    2.62
  -1   9  -3    8.91    3.23
   1  -9   3    6.45    2.75
   1  -9   4  312.48   18.18
  -1   9  -4  332.54   18.42
  -1   9  -4  298.05   12.04
   1  -9   5   15.69    3.97
  -1   9  -5   13.87    3.78
  -1   9  -5    9.81    2.15
  -1   9  -6   17.09    2.75
  -1   9  -6   21.62    4.76
   1  -9   6   20.10    4.68
  -1   9  -7    1.88    1.39
   1  -9   7    1.68    2.08
  -1   9  -8  819.09   20.00
   1  -9   8  763.42   29.09
   1  -9   8  826.68   28.51
   1  -9   9   40.36    6.58
  -1   9  -9   33.95    6.73
   1  -9   9   41.39    6.99
  -1   9  -9   40.41    4.79
  -1   9 -10   29.03    4.30
   1  -9  10   32.24    6.19
   1  -9  10   27.96    5.66
  -1   9 -10   23.76    5.75
  -1   9 -11    1.44    0.98
  -1   9 -11    0.53    0.99
   1  -9  11   -0.61    1.50
   1  -9  11    3.35    3.43
   1  -9  12   70.05   10.02
  -1   9 -12   65.42   10.50
  -1   9 -12   65.06    7.04
   1  -9  12   69.80    9.28
   1  -9  13  291.38   20.95
  -1   9 -13  246.31   20.47
   1  -9  13  243.32   17.43
   1  -9  14   37.83    8.10
   1  -9  14   38.93    7.43
  -1   9 -14   40.81    8.75
   1  -9  15   69.22   11.32
  -1   9 -15   57.68   10.46
   1  -9  16    0.78    3.02
  -1   9 -16   -3.10    3.28
  -1   8  11  104.10   14.77
  -1   8  10   24.46    7.00
  -1   8  10   12.45    5.57
   1  -8 -10   19.79    6.29
  -1   8   9   -0.29    1.31
  -1   8   9    2.41    3.05
   1  -8  -9    2.79    3.51
  -1   8   8    4.64    3.86
  -1   8   8    3.46    2.71
   1  -8  -8    0.57    2.60
   1  -8  -8    6.48    3.39
   1  -8  -7    2.62    2.19
  -1   8   7    8.13    4.12
   1  -8  -7    4.53    2.74
  -1   8   7    7.60    4.33
  -1   8   6  149.63   13.70
   1  -8  -6  157.58   13.15
  -1   8   6  158.85   15.04
   1  -8  -6  156.12   14.56
   1  -8  -5   65.90    8.95
  -1   8   5   64.23    8.70
   1  -8  -5   75.60    8.86
  -1   8   5   62.37    9.13
   1  -8  -4    2.66    2.15
   1  -8  -4    8.47    3.36
  -1   8   4    4.06    2.49
  -1   8   4    4.50    2.20
   1  -8  -3  293.44   16.90
  -1   8   3  357.70   19.19
  -1   8   3  287.68   17.75
   1  -8  -3  341.02   18.36
   1  -8  -2   22.79    4.80
  -1   8   2   20.27    4.59
   1  -8  -2   18.39    4.00
  -1   8   2   21.91    4.73
  -1   8   1    9.09    3.05
   1  -8  -1   15.40    3.57
  -1   8   1   11.74    3.37
   1  -8  -1   20.67    4.35
   1  -8   0    3.41    1.68
  -1   8   0    1.38    1.82
   1  -8   0    2.51    1.39
  -1   8   0    5.25    2.15
   1  -8   1   28.96    4.25
   1  -8   1   32.06    5.53
  -1   8  -1   31.35    4.94
  -1   8  -1   31.14    5.60
   1  -8   2  100.00    9.68
  -1   8  -2  106.70    9.95
  -1   8  -2   79.74    6.33
  -1   8  -3  319.97   16.90
  -1   8  -3  319.10   12.24
   1  -8   3  321.76   17.13
  -1   8  -4   86.01    6.13
  -1   8  -4   90.70    9.14
   1  -8   4   77.36    8.37
  -1   8  -5  208.41   14.05
  -1   8  -5  173.99    8.58
   1  -8   5  184.85   13.15
   1  -8   6  149.07   11.89
  -1   8  -6  172.76   13.14
  -1   8  -6  160.90    8.45
   1  -8   7  350.40   17.29
   1  -8   7  291.93   16.71
  -1   8  -7  338.19   18.77
   1  -8   8  340.26   17.88
  -1   8  -8  284.45   17.88
   1  -8   8  326.00   18.02
  -1   8  -8  319.47   12.78
  -1   8  -9   28.25    4.16
  -1   8  -9   17.15    4.42
   1  -8   9   24.49    5.22
   1  -8   9   25.76    5.22
   1  -8  10  314.08   18.38
  -1   8 -10  302.77   19.51
   1  -8  10  326.00   18.83
  -1   8 -10  288.79   13.70
  -1   8 -11  211.34   16.95
  -1   8 -11  206.88   12.27
   1  -8  11  198.16   14.70
   1  -8  11  204.49   15.75
   1  -8  12   32.38    6.01
  -1   8 -12   50.69    8.92
  -1   8 -12   50.49    6.58
   1  -8  12   60.46    9.26
   1  -8  13   55.51    9.31
  -1   8 -13   57.39    7.55
  -1   8 -13   70.60   10.66
   1  -8  13   69.61    9.29
   1  -8  14    6.55    3.13
  -1   8 -14    5.16    2.32
   1  -8  14    3.55    3.97
  -1   8 -14    9.58    4.40
   1  -8  15   35.38    8.28
  -1   8 -15   36.95    7.98
  -1   8 -16   36.09    8.21
   1  -8  16   32.96    8.13
  -1   8 -17    1.84    2.67
  -1   7  12    5.38    3.68
  -1   7  11    8.50    3.43
   1  -7 -11   11.14    5.22
  -1   7  11   12.70    5.23
  -1   7  10    4.36    2.89
   1  -7 -10    4.27    3.51
  -1   7  10    4.82    4.26
   1  -7  -9    1.97    2.13
  -1   7   9    2.49    1.97
   1  -7  -9    9.31    4.64
  -1   7   9    5.27    3.96
   1  -7  -8  110.96   12.87
  -1   7   8  124.13   12.73
  -1   7   8  101.88   12.37
   1  -7  -8  127.40   11.17
  -1   7   7    3.30    2.72
   1  -7  -7    4.70    2.58
   1  -7  -7    1.93    1.42
  -1   7   7    3.50    2.30
  -1   7   6   41.83    7.11
  -1   7   6   59.46    8.12
   1  -7  -6   45.18    6.73
   1  -7  -6   44.92    7.48
  -1   7   5   -0.68    0.93
   1  -7  -5    0.23    0.71
   1  -7  -5    1.44    0.86
  -1   7   4  274.03   16.54
   1  -7  -4  266.81   15.03
  -1   7   4  258.89   16.33
   1  -7  -4  237.33   15.26
   1  -7  -3 1135.29   31.76
   1  -7  -3 1131.00   30.80
  -1   7   3 1108.62   32.69
  -1   7   3 1043.88   31.57
   1  -7  -2   28.47    4.75
   1  -7  -2   36.80    5.41
  -1   7   2   36.47    6.05
  -1   7   2   27.89    5.30
  -1   7   1   47.61    6.16
   1  -7  -1   61.79    7.11
  -1   7   1   60.46    7.28
   1  -7  -1   44.48    5.77
   1  -7   0   35.13    4.78
  -1   7   0   39.20    5.71
  -1   7   0   29.25    4.55
   1  -7   0   39.17    5.67
   1  -7   1   90.94    7.01
  -1   7  -1   82.09    8.23
  -1   7  -1   60.82    5.47
   1  -7   1   93.50    8.59
  -1   7  -1   61.65    6.67
  -1   7  -2  248.05   14.24
  -1   7  -2  246.01   10.62
  -1   7  -3  158.91   11.27
  -1   7  -3  154.54    8.09
  -1   7  -4   66.66    7.41
  -1   7  -4   73.21    5.41
   1  -7   4   70.84    7.56
  -1   7  -5   90.79    8.91
   1  -7   5   93.51    8.76
  -1   7  -5  105.21    6.60
   1  -7   6  104.79    8.80
   1  -7   6   98.84    9.04
  -1   7  -6   87.95    8.72
  -1   7  -7   11.65    3.52
   1  -7   7   19.68    4.02
   1  -7   7   17.96    3.88
  -1   7  -8    0.51    1.34
   1  -7   8   -0.21    1.48
  -1   7  -8    1.99    1.99
   1  -7   8    0.45    1.17
   1  -7   9  146.84   11.91
   1  -7   9  137.43   11.36
  -1   7  -9  136.84    9.14
  -1   7  -9  144.03   12.44
   1  -7  10   -0.02    0.70
  -1   7 -10    0.23    1.15
  -1   7 -10   -0.36    0.46
  -1   7 -11  155.34   10.94
  -1   7 -11  128.41   12.74
   1  -7  11  135.98   11.60
   1  -7  11  166.09   14.19
  -1   7 -12   69.01    7.89
   1  -7  12   73.28    9.93
   1  -7  12   66.28    8.51
  -1   7 -12   69.79   10.04
  -1   7 -13  107.91   10.55
   1  -7  13  111.68   11.00
   1  -7  13  129.30   13.63
  -1   7 -13  110.06   13.03
   1  -7  14    4.45    3.13
  -1   7 -14    2.86    1.99
   1  -7  14    0.85    1.09
  -1   7 -14    5.97    3.57
  -1   7 -15   25.70    5.61
   1  -7  15   24.53    6.69
  -1   7 -15   15.81    4.65
  -1   7 -16   26.94    7.50
  -1   7 -16   27.53    5.92
   1  -7  16   23.04    6.80
  -1   7 -17   17.95    6.35
  -1   6  13   11.05    4.47
   1  -6 -12   10.22    5.05
  -1   6  12   18.61    6.47
  -1   6  12   18.35    6.22
  -1   6  11    4.71    3.51
  -1   6  11    1.53    3.17
   1  -6 -11    4.92    3.79
  -1   6  10    6.00    3.78
   1  -6 -10    2.75    2.41
  -1   6  10    2.76    2.87
  -1   6   9   48.76    8.20
   1  -6  -9   41.22    8.10
   1  -6  -9   45.13    6.20
  -1   6   9   35.59    7.39
  -1   6   8   41.94    7.21
   1  -6  -8   31.89    6.39
  -1   6   8   38.73    7.17
   1  -6  -8   35.30    5.54
   1  -6  -7   26.13    4.61
  -1   6   7   15.03    4.26
  -1   6   7   27.38    5.78
   1  -6  -7   24.46    5.41
   1  -6  -6   41.32    6.83
   1  -6  -6   48.38    6.12
  -1   6   6   50.53    7.36
  -1   6   6   63.63    8.11
  -1   6   5   50.83    7.05
  -1   6   5   50.57    7.12
   1  -6  -5   53.61    7.43
   1  -6  -5   64.26    6.90
  -1   6   4   58.31    7.36
   1  -6  -4   46.98    6.39
  -1   6   4   50.33    6.66
   1  -6  -4   50.72    5.97
   1  -6  -3    6.79    2.32
  -1   6   3    8.31    2.87
  -1   6   3    2.56    2.11
   1  -6  -3    1.85    1.51
  -1   6   2    1.69    1.86
   1  -6  -2    0.66    1.07
   1  -6  -2    1.03    1.07
  -1   6   2    1.06    1.81
  -1   6   1   21.43    3.77
   1  -6  -1   29.84    4.20
   1  -6  -1   40.89    5.40
  -1   6   1   32.31    5.17
   1  -6   0   24.23    3.59
   1  -6   0   25.63    4.07
  -1   6   0   25.04    4.37
  -1   6   0   27.03    3.65
  -1   6   0   16.70    3.40
  -1   6  -1   89.29    7.96
   1  -6   1   94.20    7.53
   1  -6   1   85.57    7.58
  -1   6  -1   98.01    7.46
  -1   6  -1   93.48    6.56
   1  -6   1   97.29    6.70
   1  -6   2   35.07    4.76
  -1   6  -2   38.47    5.37
   1  -6   2   30.60    4.17
  -1   6  -2   42.59    4.16
   1  -6   3   -0.09    0.80
  -1   6  -3   -0.22    0.73
  -1   6  -3    0.31    0.31
   1  -6   3    0.33    0.44
   1  -6   4  290.90   14.24
  -1   6  -4  291.49   14.54
  -1   6  -4  311.36   10.85
  -1   6  -5  196.04   12.20
   1  -6   5  217.16   12.44
  -1   6  -6   51.67    6.35
   1  -6   6   59.28    6.51
  -1   6  -7    2.58    1.51
   1  -6   7    4.37    1.96
  -1   6  -7    4.63    2.04
   1  -6   7    8.40    2.68
   1  -6   8  193.58   12.53
  -1   6  -8  176.13    9.99
  -1   6  -8  182.07   13.01
   1  -6   8  182.92   12.06
   1  -6   9  122.20   10.16
  -1   6  -9  108.69   10.57
   1  -6   9  112.71   10.37
  -1   6  -9  108.21    8.37
   1  -6  10  442.23   19.61
   1  -6  10  506.99   22.92
  -1   6 -10  490.16   18.80
  -1   6 -10  463.75   22.96
  -1   6 -11    8.63    3.48
   1  -6  11    8.92    3.36
  -1   6 -11   10.84    3.12
   1  -6  11    7.97    2.95
  -1   6 -12   35.29    6.69
   1  -6  12   37.01    6.78
  -1   6 -12   41.60    6.37
   1  -6  12   28.17    5.06
  -1   6 -13   12.25    4.44
  -1   6 -13   14.11    4.14
   1  -6  13   10.30    4.47
   1  -6  13    6.90    2.56
  -1   6 -14   95.41   10.72
   1  -6  14  121.64   13.65
  -1   6 -14   85.98   11.77
   1  -6  14  108.41   10.60
  -1   6 -15   13.94    5.04
  -1   6 -15   14.31    4.33
   1  -6  15   11.61    5.33
  -1   6 -16   -2.22    1.43
  -1   6 -16    0.07    0.83
  -1   6 -17   14.68    5.74
  -1   6 -17   13.86    4.81
  -1   5  14   66.30   11.40
   1  -5 -13   11.29    5.34
  -1   5  13   16.96    6.33
  -1   5  13    6.96    3.04
   1  -5 -12   39.07    8.61
  -1   5  12   34.42    8.10
  -1   5  12   23.85    7.27
  -1   5  11    5.06    3.05
   1  -5 -11    4.40    3.40
  -1   5  11    7.29    4.15
   1  -5 -10    9.96    4.21
  -1   5  10   13.34    4.74
  -1   5  10   16.80    5.37
   1  -5  -9   14.33    3.37
  -1   5   9   10.01    3.87
   1  -5  -9   14.11    4.66
  -1   5   9   15.06    4.10
   1  -5  -8  119.89    9.19
  -1   5   8  127.93   11.82
  -1   5   8  124.07   12.57
   1  -5  -8  122.87   12.38
   1  -5  -7   27.90    4.39
   1  -5  -7   16.45    4.30
  -1   5   7   22.88    5.21
  -1   5   7   26.72    5.43
  -1   5   6    1.82    1.57
  -1   5   6    2.73    1.75
   1  -5  -6    2.40    2.01
   1  -5  -6    0.05    1.18
   1  -5  -5   54.36    6.92
   1  -5  -5   59.78    6.13
  -1   5   5   45.27    6.26
  -1   5   5   68.29    7.79
  -1   5   4  169.96   11.65
   1  -5  -4  166.66   10.01
  -1   5   4  156.47   10.83
   1  -5  -4  172.26   11.63
  -1   5   3   89.70    7.73
  -1   5   3   86.02    8.09
   1  -5  -3   81.11    7.46
   1  -5  -3   95.14    7.41
  -1   5   2  535.42   19.11
   1  -5  -2  504.74   16.85
  -1   5   2  409.07   15.84
   1  -5  -2  422.35   16.07
   1  -5  -1   54.29    5.30
  -1   5   1   50.51    5.93
  -1   5   1   51.05    5.23
  -1   5   1   49.72    5.08
   1  -5  -1   51.31    5.21
   1  -5  -1   56.89    5.63
   1  -5   0   96.26    7.37
   1  -5   0   83.08    6.21
  -1   5   0   98.45    6.68
  -1   5   0   92.47    7.55
   1  -5   0   95.20    6.63
  -1   5   0   95.98    6.51
  -1   5  -1   82.79    5.77
   1  -5   1   66.64    5.32
   1  -5   1   70.46    6.19
  -1   5  -1   73.50    6.67
   1  -5   1   71.34    5.65
  -1   5  -1   76.68    6.02
   1  -5   2  472.03   14.61
  -1   5  -2  447.67   16.44
   1  -5   2  466.74   16.21
  -1   5  -2  462.87   12.73
  -1   5  -3  451.60   12.45
   1  -5   3  439.52   14.50
  -1   5  -3  445.88   16.39
  -1   5  -4  110.55    8.41
   1  -5   4  111.62    8.09
  -1   5  -5  241.51   12.76
   1  -5   5  247.86   12.16
   1  -5   5  247.75   11.43
   1  -5   6    1.38    0.77
   1  -5   6    1.67    0.74
  -1   5  -6    0.40    0.51
  -1   5  -7   17.02    3.05
  -1   5  -7   19.73    3.89
   1  -5   7   18.53    3.61
   1  -5   7   17.32    3.56
   1  -5   8   74.42    7.27
   1  -5   8   87.34    8.35
  -1   5  -8   75.83    8.08
  -1   5  -8   80.76    7.06
   1  -5   9    2.36    1.40
  -1   5  -9    3.66    2.19
   1  -5   9    5.37    2.23
  -1   5  -9    2.24    1.75
  -1   5 -10    2.15    1.28
  -1   5 -10    2.38    2.29
   1  -5  10    0.57    0.82
   1  -5  10    3.55    1.73
  -1   5 -11  313.93   16.66
   1  -5  11  303.11   16.00
   1  -5  11  360.76   20.44
  -1   5 -11  314.46   19.22
  -1   5 -12   15.42    4.36
   1  -5  12   17.53    3.98
  -1   5 -12   18.98    4.52
   1  -5  12   17.13    4.95
  -1   5 -13   39.04    6.62
   1  -5  13   46.70    8.31
   1  -5  13   47.28    6.81
  -1   5 -13   39.63    7.42
  -1   5 -14    5.42    2.71
   1  -5  14    2.64    1.60
   1  -5  14    5.08    3.38
  -1   5 -14    5.02    2.78
  -1   5 -15    3.80    2.63
   1  -5  15    2.90    3.28
  -1   5 -15    1.48    1.46
   1  -5  16   68.98   11.79
  -1   5 -16   70.91   10.65
  -1   5 -16   64.04   10.55
  -1   5 -17   57.42    9.80
  -1   5 -17   56.09   10.35
  -1   5 -18   32.82    8.26
  -1   4  14   18.00    6.93
  -1   4  14   13.19    4.86
   1  -4 -13    3.86    4.03
  -1   4  13    1.71    2.77
  -1   4  13    8.31    4.96
   1  -4 -12   57.13    9.84
  -1   4  12   50.01    9.53
  -1   4  12   64.72   10.07
  -1   4  11    1.16    1.97
   1  -4 -11    2.21    1.19
  -1   4  11    1.15    2.52
  -1   4  10    6.93    2.73
   1  -4 -10    2.82    0.94
   1  -4 -10    2.62    2.19
  -1   4   9   47.45    7.14
   1  -4  -9   62.33    6.12
  -1   4   9   47.15    7.70
   1  -4  -8    4.81    1.71
  -1   4   8    7.81    3.13
   1  -4  -8    1.48    1.51
  -1   4   8    5.89    2.80
   1  -4  -7    2.91    0.99
  -1   4   7    5.72    3.09
   1  -4  -7    1.72    1.46
  -1   4   7    3.14    1.66
   1  -4  -6  125.36    8.08
   1  -4  -6  120.46   10.35
  -1   4   6  153.46   11.51
  -1   4   6  123.35   10.32
   1  -4  -5  114.40    7.53
  -1   4   5  130.40    8.25
   1  -4  -5  106.21    9.21
  -1   4   5  118.57    9.49
  -1   4   5  136.55   10.44
   1  -4  -4  261.97   13.57
  -1   4   4  285.35   12.11
  -1   4   4  248.57   12.79
   1  -4  -4  284.76   11.60
  -1   4   4  288.92   14.43
   1  -4  -3  501.14   16.47
  -1   4   3  490.21   15.38
   1  -4  -3  468.35   14.71
  -1   4   3  478.80   17.78
  -1   4   3  510.11   16.87
  -1   4   2 1814.04   32.33
  -1   4   2 1880.58   29.59
   1  -4  -2 1861.24   31.51
   1  -4  -2 1755.06   28.41
   1  -4  -2 1728.74   31.63
   1  -4  -2 1803.27   29.26
  -1   4   2 1795.62   28.85
  -1   4   2 1913.50   31.43
   1  -4  -1   75.37    5.81
  -1   4   1   77.01    5.62
  -1   4   1   77.25    6.59
  -1   4   1   66.72    5.62
   1  -4  -1   68.74    6.16
   1  -4  -1   68.04    5.54
   1  -4  -1   72.37    5.38
  -1   4   1   64.17    5.23
  -1   4   0   11.73    2.06
   1  -4   0    8.44    1.72
   1  -4   0    9.30    2.01
  -1   4   0   12.43    2.24
   1  -4   0   12.48    2.23
   1  -4   0   12.00    2.43
  -1   4   0   15.17    2.78
  -1   4   0    9.25    2.18
   1  -4   1  119.13    7.22
  -1   4  -1  118.08    7.36
   1  -4   1  113.72    6.15
   1  -4   1  117.78    7.83
  -1   4  -1  113.23    6.17
  -1   4  -1  117.81    7.65
  -1   4  -1  129.72    6.53
  -1   4  -2  158.08    8.92
   1  -4   2  167.46    8.81
  -1   4  -2  140.71    8.17
   1  -4   2  182.23    9.78
  -1   4  -2  171.46    7.31
   1  -4   2  195.17    8.21
   1  -4   3  911.32   20.94
   1  -4   3  973.30   22.86
  -1   4  -3  933.08   21.01
  -1   4  -3  929.21   21.67
   1  -4   4   91.17    6.73
   1  -4   4   91.65    7.18
  -1   4  -4   98.13    6.92
   1  -4   4   98.06    6.34
  -1   4  -4  104.92    7.46
  -1   4  -5   50.31    5.19
   1  -4   5   50.62    5.21
  -1   4  -5   45.81    5.08
   1  -4   5   59.49    5.41
   1  -4   6  314.26   13.37
  -1   4  -6  308.27   13.97
  -1   4  -6  333.33   12.63
  -1   4  -6  345.97   13.90
   1  -4   6  338.18   14.12
   1  -4   7    2.19    1.64
   1  -4   7    1.82    1.62
  -1   4  -7    1.11    1.25
  -1   4  -7   -0.51    0.52
  -1   4  -8    6.99    2.32
  -1   4  -8    5.14    2.64
   1  -4   8    9.88    2.50
   1  -4   8    9.59    2.49
   1  -4   9   23.16    4.83
  -1   4  -9   19.85    3.72
   1  -4   9   22.20    3.99
  -1   4  -9   24.04    4.61
  -1   4 -10  207.32   14.48
   1  -4  10  200.44   12.23
  -1   4 -10  203.89   13.13
   1  -4  10  232.96   15.34
  -1   4 -11   26.72    5.35
   1  -4  11   24.36    4.64
   1  -4  11   32.28    5.94
  -1   4 -11   24.03    4.93
   1  -4  12    6.73    2.63
  -1   4 -12    6.64    1.81
   1  -4  12   14.02    4.66
  -1   4 -12    9.04    2.96
  -1   4 -13  310.48   19.03
   1  -4  13  238.54   14.61
  -1   4 -13  290.53   19.48
   1  -4  13  300.04   20.89
  -1   4 -14   42.38    7.68
  -1   4 -14   43.48    7.98
   1  -4  14   53.10    9.29
   1  -4  15    2.19    3.62
  -1   4 -15    6.60    3.90
  -1   4 -15    2.72    1.66
  -1   4 -16   51.49    9.19
   1  -4  16   41.88    8.40
  -1   4 -16   37.68    7.83
  -1   4 -17   23.80    6.93
  -1   4 -17   15.62    5.67
  -1   3  15   63.14   11.21
   1  -3 -14    8.81    4.35
  -1   3  14    1.87    2.91
  -1   3  13   33.80    8.00
  -1   3  13   36.72    7.93
   1  -3 -13   36.23    8.75
   1  -3 -12   14.51    4.55
  -1   3  12    5.08    3.02
  -1   3  12   15.52    5.39
   1  -3 -11    1.74    2.81
  -1   3  11    2.04    0.91
  -1   3  11    0.41    1.48
  -1   3  10   46.26    7.23
  -1   3  10   35.75    6.76
   1  -3 -10   35.08    6.65
   1  -3 -10   40.90    4.74
  -1   3   9    6.62    3.32
   1  -3  -9    3.20    1.27
  -1   3   9    7.49    3.28
  -1   3   8   16.73    3.85
   1  -3  -8    9.90    3.27
   1  -3  -8   12.43    2.45
   1  -3  -8   16.35    2.74
  -1   3   8   17.23    4.12
   1  -3  -7   20.63    3.19
  -1   3   7   15.31    3.65
   1  -3  -7   17.89    4.19
  -1   3   7   12.99    3.32
   1  -3  -7   15.51    2.52
   1  -3  -6  481.76   14.61
   1  -3  -6  435.86   18.61
  -1   3   6  448.89   18.71
   1  -3  -6  475.89   13.89
  -1   3   6  481.26   19.19
  -1   3   5  166.25    8.25
   1  -3  -5  151.97    7.65
   1  -3  -5  135.70    9.78
  -1   3   5  140.65    9.64
  -1   3   5  159.11   10.60
  -1   3   4  792.30   20.73
   1  -3  -4  773.02   16.60
  -1   3   4  849.16   22.62
   1  -3  -4  794.10   20.68
  -1   3   4  818.74   17.74
   1  -3  -3 2045.51   26.65
  -1   3   3 2051.75   27.23
  -1   3   3 2045.43   32.36
   1  -3  -3 2071.20   32.86
  -1   3   3 2053.36   30.68
   1  -3  -3 2054.44   30.30
  -1   3   3 2139.82   34.35
   1  -3  -2  300.93   11.88
   1  -3  -2  298.29   10.35
  -1   3   2  307.22   12.38
  -1   3   2  310.89   10.67
   1  -3  -2  295.87   11.43
  -1   3   2  298.80   10.08
   1  -3  -2  294.41   10.07
  -1   3   2  288.49   11.48
  -1   3   1  633.66   14.80
  -1   3   1  661.19   13.85
  -1   3   1  671.15   17.17
   1  -3  -1  649.19   15.57
   1  -3  -1  676.59   15.16
   1  -3  -1  635.09   13.67
   1  -3  -1  683.99   17.47
  -1   3   1  700.75   16.11
  -1   3   0  776.63   15.62
   1  -3   0  773.52   18.08
   1  -3   0  749.93   13.33
  -1   3   0  802.28   16.58
   1  -3   0  757.05   15.77
  -1   3   0  775.61   17.88
   1  -3   0  791.96   16.30
  -1   3   0  802.61   13.75
  -1   3  -1  127.25    7.20
   1  -3   1  126.45    6.69
   1  -3   1  106.53    6.57
  -1   3  -1  130.29    6.19
  -1   3  -1  134.17    6.88
   1  -3   1  125.23    5.29
  -1   3  -2  104.13    6.47
   1  -3   2  105.13    6.61
  -1   3  -2   96.92    6.21
   1  -3   2  105.18    6.27
  -1   3  -3   13.34    2.35
   1  -3   3   10.27    2.10
   1  -3   3    7.22    1.69
  -1   3  -3   10.53    2.10
   1  -3   3    8.70    1.68
  -1   3  -4   50.63    4.69
   1  -3   4   47.09    4.61
   1  -3   4   52.71    4.56
  -1   3  -4   49.83    4.76
   1  -3   4   53.76    4.96
   1  -3   5    3.44    1.31
  -1   3  -5    7.25    1.86
   1  -3   5    3.32    1.68
   1  -3   5    6.01    1.81
  -1   3  -5    8.33    2.11
  -1   3  -5    6.94    1.95
  -1   3  -6 2702.95   36.95
   1  -3   6 2714.77   37.21
   1  -3   6 2701.28   39.13
  -1   3  -6 2587.51   35.64
  -1   3  -7    0.13    0.14
   1  -3   7    3.17    1.66
  -1   3  -7    0.34    0.56
  -1   3  -7    3.09    1.77
   1  -3   7    0.36    1.19
  -1   3  -8  444.95   17.43
   1  -3   8  409.51   15.77
  -1   3  -8  399.87   17.75
   1  -3   8  462.88   19.07
  -1   3  -9  368.24   17.67
   1  -3   9  349.93   15.38
   1  -3   9  389.48   18.78
  -1   3  -9  391.29   17.55
   1  -3  10   16.43    3.48
  -1   3 -10   16.69    3.97
   1  -3  10   30.47    5.56
  -1   3 -10   23.01    4.82
   1  -3  11    1.07    1.15
  -1   3 -11    1.70    1.55
   1  -3  11   -2.13    1.66
  -1   3 -11    1.59    2.40
  -1   3 -12   86.90   10.03
  -1   3 -12   87.99   10.00
   1  -3  12  115.79   12.22
   1  -3  12   91.87    8.64
  -1   3 -13   17.33    4.76
  -1   3 -13   21.46    5.41
   1  -3  13   19.30    4.10
   1  -3  13   25.38    6.08
  -1   3 -14   15.45    4.65
  -1   3 -14   17.95    5.26
   1  -3  14   18.68    5.06
  -1   3 -15    4.64    3.67
   1  -3  15    3.60    2.85
  -1   3 -15    2.87    2.18
  -1   3 -16    9.31    4.22
  -1   3 -16   21.23    6.37
   1  -3  16   12.45    6.18
  -1   3 -17    4.96    3.74
  -1   3 -17    1.00    2.18
  -1   2  16   77.83   12.34
  -1   2  15   23.98    6.86
   1  -2 -15   10.61    4.33
  -1   2  15   14.06    5.84
  -1   2  14   27.84    7.32
   1  -2 -14   26.39    6.86
  -1   2  14   14.65    5.71
   1  -2 -13   45.73    8.69
  -1   2  13   57.08    9.83
  -1   2  13   38.54    8.50
   1  -2 -12   38.04    7.53
  -1   2  12   36.54    8.02
  -1   2  12   45.90    8.09
  -1   2  11   12.88    4.70
   1  -2 -11    8.51    3.66
  -1   2  11   10.66    4.18
   1  -2 -10  121.84   12.00
  -1   2  10  104.67   11.35
   1  -2 -10  116.85    6.67
   1  -2  -9  160.29    7.68
   1  -2  -9  175.13   13.50
   1  -2  -9  150.64    7.96
   1  -2  -8  124.48    6.85
   1  -2  -8  128.51   10.98
  -1   2   8  104.40    9.77
   1  -2  -8  118.30    6.39
  -1   2   7   37.59    5.52
   1  -2  -7   35.81    3.41
   1  -2  -7   36.92    3.57
   1  -2  -7   40.24    5.62
   1  -2  -6  825.17   15.53
   1  -2  -6  864.89   24.90
  -1   2   6  776.96   23.33
   1  -2  -6  909.11   17.10
   1  -2  -5   27.23    4.11
   1  -2  -5   30.59    2.90
   1  -2  -5   23.78    2.59
  -1   2   5   28.23    4.15
  -1   2   5   24.02    3.69
   1  -2  -4   98.13    4.95
   1  -2  -4   97.47    6.72
  -1   2   4   99.38    5.12
  -1   2   4  102.88    7.48
  -1   2   4  108.09    7.53
   1  -2  -4   82.57    6.63
  -1   2   4  102.72    7.42
  -1   2   4   90.92    6.59
   1  -2  -3    3.27    1.47
   1  -2  -3    4.52    1.33
  -1   2   3    4.18    1.12
   1  -2  -3    4.58    1.04
  -1   2   3    3.64    1.30
  -1   2   3    5.17    1.21
  -1   2   3    2.45    0.78
  -1   2   2 2073.17   22.07
  -1   2   2 2068.16   27.20
   1  -2  -2 2074.94   28.83
   1  -2  -2 2103.39   22.32
   1  -2  -2 2096.73   23.79
   1  -2  -2 2112.63   27.86
  -1   2   2 2122.97   29.02
  -1   2   2 2076.38   23.66
  -1   2   1   20.56    2.52
   1  -2  -1   22.70    2.29
   1  -2  -1   21.84    2.85
   1  -2  -1   17.52    2.37
  -1   2   1   16.72    2.08
   1  -2  -1   23.28    2.11
  -1   2   1   17.13    2.56
  -1   2   1   22.44    2.12
  -1   2   0   80.77    5.13
   1  -2   0   82.20    4.67
   1  -2   0   81.97    4.52
  -1   2   0   90.13    4.81
   1  -2   0   88.42    5.32
   1  -2   0   93.23    3.44
  -1   2   0   89.53    4.85
  -1   2   0   85.61    3.31
   1  -2   1   67.19    4.27
  -1   2  -1   54.41    4.02
   1  -2   1   69.63    4.56
  -1   2  -1   54.53    3.94
   1  -2   2 9906.73   43.56
   1  -2   2 9880.90   55.40
  -1   2  -2 9887.65   53.54
   1  -2   2 9913.47   55.27
  -1   2  -2 9999.00   54.84
  -1   2  -3 3775.17   32.60
  -1   2  -3 3755.99   34.92
   1  -2   3 3820.05   32.52
   1  -2   3 3866.50   35.62
   1  -2   3 3727.54   35.71
  -1   2  -3 3756.30   35.76
   1  -2   4 2283.14   29.55
   1  -2   4 2317.84   29.62
  -1   2  -4 2330.74   29.40
  -1   2  -4 2335.74   29.56
  -1   2  -4 2297.57   29.98
   1  -2   4 2328.98   29.41
   1  -2   5 1350.95   24.34
  -1   2  -5 1339.41   24.72
  -1   2  -5 1379.52   24.92
   1  -2   5 1338.68   24.26
  -1   2  -5 1347.76   23.85
   1  -2   5 1272.92   24.69
  -1   2  -6   60.51    5.83
   1  -2   6   60.15    5.42
   1  -2   6   66.41    5.83
   1  -2   6   67.92    6.20
  -1   2  -6   62.30    5.46
  -1   2  -6   68.76    6.19
  -1   2  -7   33.92    4.52
   1  -2   7   41.45    5.23
   1  -2   7   45.03    5.22
  -1   2  -7   44.93    5.47
  -1   2  -7   45.99    4.83
  -1   2  -8   23.23    4.05
  -1   2  -8   33.82    4.91
   1  -2   8   33.52    5.52
   1  -2   8   36.06    4.64
  -1   2  -9  106.99    9.52
   1  -2   9  115.60    8.68
   1  -2   9  137.83   11.42
  -1   2  -9  116.71   10.15
  -1   2 -10   -0.32    0.60
   1  -2  10    0.01    0.46
  -1   2 -10   -0.80    1.00
   1  -2  10   -0.25    1.48
   1  -2  11   14.91    3.29
  -1   2 -11   17.97    4.69
   1  -2  11   22.47    4.82
  -1   2 -11   17.85    4.41
   1  -2  12   12.55    3.41
  -1   2 -12    7.06    3.25
   1  -2  12    8.81    3.30
  -1   2 -12   11.75    4.25
  -1   2 -13    3.86    2.56
   1  -2  13    5.85    5.04
   1  -2  13    1.79    1.21
  -1   2 -13    0.42    0.26
  -1   2 -14    6.29    3.90
  -1   2 -14   11.72    4.01
   1  -2  14    6.83    4.39
  -1   2 -15   88.36   13.27
  -1   2 -15   89.42   11.89
   1  -2  15  114.97   15.02
  -1   2 -16    8.13    4.26
   1  -2  16   11.16    4.98
  -1   2 -16    4.95    2.89
  -1   2 -17    3.14    2.44
  -1   1  16   95.01   13.84
  -1   1  15   -0.21    1.97
   1  -1 -15    1.92    0.76
  -1   1  15    4.26    4.03
  -1   1  14   76.14   11.68
   1  -1 -14   65.21   10.36
  -1   1  13   28.51    6.78
   1  -1 -13   29.02    6.55
   1  -1 -12   60.32    8.94
  -1   1  12   50.73    8.60
   1  -1 -11   21.55    5.12
  -1   1  11   21.65    5.36
   1  -1 -10    5.94    1.58
   1  -1 -10    6.08    1.30
  -1   1  10    2.62    2.00
   1  -1  -9  163.66    7.00
   1  -1  -9  166.51    6.73
   1  -1  -9  146.45   11.87
  -1   1   9  159.33   12.83
   1  -1  -8  118.06   10.03
   1  -1  -8  112.02    5.50
   1  -1  -8  112.75    5.26
  -1   1   8  106.92    9.65
  -1   1   7  184.45   11.85
   1  -1  -7  188.17   11.74
   1  -1  -7  194.84    6.87
   1  -1  -7  189.66    6.45
   1  -1  -6    6.71    1.91
   1  -1  -6    7.95    1.29
   1  -1  -6    6.91    1.20
  -1   1   6    7.18    2.49
   1  -1  -5  418.25   14.85
   1  -1  -5  393.37    8.10
   1  -1  -5  380.60   14.06
  -1   1   5  405.40   14.89
  -1   1   5  420.28   14.86
   1  -1  -5  420.20    8.66
  -1   1   4   39.14    4.01
  -1   1   4   34.23    4.09
   1  -1  -4   38.43    2.34
   1  -1  -4   40.98    4.38
  -1   1   4   35.42    4.26
  -1   1   4   38.09    2.40
   1  -1  -4   32.77    3.63
  -1   1   3  368.43   11.76
  -1   1   3  390.31   10.95
   1  -1  -3  367.52   11.74
   1  -1  -3  390.89    7.24
   1  -1  -3  379.90   10.78
  -1   1   3  397.78    7.33
  -1   1   3  397.10   12.58
   1  -1  -2 1544.48   14.50
  -1   1   2 1526.03   17.70
  -1   1   2 1535.43   14.52
   1  -1  -2 1526.70   21.48
   1  -1  -2 1521.12   17.51
  -1   1   2 1557.32   21.64
   1  -1  -1   53.95    2.37
  -1   1   1   48.57    3.47
  -1   1   1   55.55    2.41
  -1   1   1   58.92    3.93
   1  -1  -1   50.73    2.77
   1  -1  -1   57.87    3.84
  -1   1   1   53.72    2.91
   1  -1   0 4861.12   32.54
  -1   1   0 4898.36   32.06
   1  -1   0 4906.19   29.89
  -1   1   0 4911.42   30.00
  -1   1  -1    9.26    1.40
  -1   1  -1    7.45    1.36
  -1   1  -1    8.28    0.93
   1  -1   1    7.08    0.80
   1  -1   1    7.52    1.27
   1  -1   1    7.84    1.40
   1  -1   2 7746.54   39.49
   1  -1   2 7650.30   37.91
   1  -1   2 7582.10   46.08
  -1   1  -2 7676.31   39.19
  -1   1  -2 7695.60   45.07
  -1   1  -2 7674.88   38.40
  -1   1  -3 1290.45   19.95
  -1   1  -3 1323.99   20.73
  -1   1  -3 1372.12   18.32
   1  -1   3 1362.15   20.69
   1  -1   3 1352.31   19.76
   1  -1   3 1335.86   18.36
  -1   1  -4   84.19    5.69
  -1   1  -4   85.31    6.00
  -1   1  -4   81.35    5.36
   1  -1   4   96.93    6.17
   1  -1   4   94.97    5.51
   1  -1   4   91.40    5.96
  -1   1  -4   95.09    6.37
  -1   1  -5  375.48   12.54
   1  -1   5  367.01   13.60
  -1   1  -5  384.21   12.59
  -1   1  -5  374.21   13.73
  -1   1  -5  342.42   13.29
   1  -1   5  354.81   11.85
  -1   1  -6  431.98   14.27
  -1   1  -6  416.95   15.88
   1  -1   6  443.33   14.71
  -1   1  -6  426.09   14.35
   1  -1   6  425.22   16.10
  -1   1  -7  332.46   13.33
  -1   1  -7  357.97   15.86
  -1   1  -7  309.66   13.12
   1  -1   7  377.16   16.47
   1  -1   7  373.97   14.28
  -1   1  -8  464.68   17.43
  -1   1  -8  524.79   20.63
   1  -1   8  504.60   20.50
   1  -1   8  477.34   17.01
  -1   1  -9    4.84    2.82
   1  -1   9    1.70    1.55
   1  -1   9    2.68    2.22
  -1   1  -9    5.21    2.06
  -1   1 -10  143.94   12.48
   1  -1  10  131.80    9.67
   1  -1  10  150.11   12.83
  -1   1 -10  135.07   10.92
   1  -1  11  338.98   16.22
   1  -1  11  373.42   21.76
  -1   1 -11  327.95   18.13
  -1   1 -11  373.38   21.02
  -1   1 -12  100.50   11.25
   1  -1  12   74.20    7.85
  -1   1 -12   95.61   10.31
   1  -1  12   90.29   11.50
  -1   1 -13   14.73    4.47
   1  -1  13   10.69    3.03
  -1   1 -13   13.25    4.39
   1  -1  13   14.02    4.65
  -1   1 -14   45.79    8.19
  -1   1 -14   40.70    7.80
   1  -1  14   48.32    8.78
  -1   1 -15   14.73    4.99
  -1   1 -15   19.78    6.55
   1  -1  15   16.72    6.05
  -1   1 -16   29.77    7.36
   1  -1  16   28.18    7.73
   1   0 -16   32.42    7.63
  -1   0  16   28.14    7.90
   1   0 -15    2.55    1.02
  -1   0  15    3.33    3.55
  -1   0  14    2.59    2.82
   1   0 -14    4.57    2.92
  -1   0  13    8.78    4.19
   1   0 -13    7.64    3.35
   1   0 -12   66.13    9.04
  -1   0  12   71.67   10.00
  -1   0  11  397.34   22.31
   1   0 -11  387.50   20.58
   1   0 -11  389.21   21.42
   1   0 -10   81.93    4.28
   1   0 -10   87.42    9.63
   1   0 -10   71.51    3.98
  -1   0  10   80.50    9.73
   1   0 -10   88.25    9.45
   1   0  -9   65.93    3.66
  -1   0   9   67.00    7.95
   1   0  -9   65.25    3.61
   1   0  -9   76.47    8.42
   1   0  -9   66.65    7.58
   1   0  -8   79.38    3.72
   1   0  -8  123.35    9.63
   1   0  -8   98.76    4.09
   1   0  -8  116.16    9.82
  -1   0   8   93.39    8.90
   1   0  -7  109.30    3.88
   1   0  -7  103.74    8.92
  -1   0   7  110.64    8.85
   1   0  -7  120.31    8.82
   1   0  -6   58.75    2.50
   1   0  -6   72.80    6.68
  -1   0   6   70.34    6.45
   1   0  -6   74.62    6.42
  -1   0   5    0.72    0.83
   1   0  -5    2.71    1.29
  -1   0   5    1.31    1.35
  -1   0   5    2.29    1.22
   1   0  -5    0.49    0.86
   1   0  -5   -0.19    0.24
   1   0  -4  122.72    6.81
   1   0  -4  111.10    6.40
  -1   0   4  124.67    6.96
   1   0  -4  137.76    7.77
  -1   0   4  125.14    7.01
  -1   0   4  131.08    7.49
   1   0  -3 3230.12   30.92
  -1   0   3 3181.50   31.00
  -1   0   3 3252.28   30.19
   1   0  -3 3248.08   29.62
   1   0  -2 4777.10   29.31
   1   0  -2 4863.24   32.89
  -1   0   2 4692.27   35.15
  -1   0   2 4824.07   29.71
  -1   0   2 4749.48   33.18
   1   0  -2 4837.18   35.03
  -1   0   1 1697.27   14.59
  -1   0   1 1668.18   12.83
   1   0  -1 1668.14   14.34
  -1   0   1 1662.34   17.55
  -1   0   1 1630.58   17.04
   1   0  -1 1617.38   17.28
   1   0   0 1116.26    9.68
   1   0   0 1124.77   14.01
  -1   0   0 1120.75    9.79
  -1   0   0 1119.43   14.06
   1   0   0 1091.99   11.20
  -1   0  -1 2160.16   18.07
  -1   0  -1 1863.64   21.19
   1   0   1 1870.09   21.02
   1   0   1 2109.80   17.76
  -1   0  -2 1287.31   12.88
  -1   0  -2 1312.51   19.23
   1   0   2 1233.56   19.21
   1   0   2 1254.02   12.64
   1   0   2 1200.74   17.06
  -1   0  -2 1262.41   17.50
  -1   0  -3  429.11    9.49
   1   0   3  421.22   12.00
   1   0   3  454.86   12.37
   1   0   3  438.25    9.29
  -1   0  -3  437.27   12.26
  -1   0  -3  448.96   12.70
  -1   0  -4   65.48    5.18
  -1   0  -4   80.84    6.09
   1   0   4   70.62    5.52
   1   0   4   71.24    4.67
  -1   0  -4   69.59    4.40
   1   0   4   64.77    5.14
  -1   0  -4   71.93    5.88
  -1   0  -5  227.29   10.10
  -1   0  -5  209.72   11.02
  -1   0  -5  212.28   11.22
   1   0   5  240.08   10.50
  -1   0  -5  230.44    9.07
   1   0   5  221.96   10.93
   1   0   5  205.95    9.04
  -1   0  -6  129.36    8.35
   1   0   6  137.12    9.56
  -1   0  -6  146.37    9.93
  -1   0  -6  136.80    7.98
   1   0   6  139.91    8.28
   1   0   6  156.91    8.88
   1   0   7  436.89   15.71
   1   0   7  410.32   17.81
  -1   0  -7  386.88   15.00
  -1   0  -7  442.47   15.77
  -1   0  -7  441.62   18.51
   1   0   7  439.09   15.62
   1   0   8  722.45   21.37
  -1   0  -8  722.98   21.60
   1   0   8  768.04   26.41
  -1   0  -8  750.09   25.95
  -1   0  -9   21.60    4.90
   1   0   9   21.88    5.11
   1   0   9   24.06    4.00
  -1   0  -9   20.19    4.17
   1   0  10  306.58   15.08
   1   0  10  363.99   20.59
  -1   0 -10  327.87   17.09
  -1   0 -10  350.70   19.88
   1   0  11   55.14    6.56
  -1   0 -11   69.45    8.60
  -1   0 -11   73.16    9.62
   1   0  11   60.30    9.24
   1   0  12   23.67    6.41
  -1   0 -12   14.58    3.97
  -1   0 -12   21.86    5.10
  -1   0 -13   83.35    8.53
  -1   0 -13   94.58   10.84
  -1   0 -13  112.45   13.27
   1   0  13  105.58   13.39
  -1   0 -14  181.45   17.20
   1   0  14  172.23   18.02
   1   0  15   -1.22    0.26
  -1   0 -15    4.07    2.64
  -1  -1  16   17.66    7.15
   1   1 -16   10.04    4.55
  -1  -1  15   12.95    4.57
   1   1 -15   19.15    5.08
   1   1 -14   20.98    5.48
   1   1 -14   16.44    5.25
  -1  -1  14   10.90    4.52
   1   1 -13   48.81    7.80
   1   1 -13   41.88    7.72
  -1  -1  13   37.74    7.47
   1   1 -12  278.05   17.68
  -1  -1  12  266.97   19.28
   1   1 -12  259.41   18.44
  -1  -1  11  409.87   22.28
   1   1 -11  431.63   22.56
   1   1 -11  443.86   21.30
   1   1 -10    0.94    0.44
   1   1 -10   -0.87    1.14
   1   1 -10    0.03    0.24
  -1  -1  10    4.25    2.68
   1   1 -10    2.74    1.65
   1   1  -9   77.50    3.38
   1   1  -9   77.11    7.80
   1   1  -9   72.52    8.24
  -1  -1   9   83.24    8.81
   1   1  -8   94.44    3.35
   1   1  -8  117.89    8.83
   1   1  -8  117.16    9.78
  -1  -1   8  105.70    9.21
   1   1  -7    5.41    0.74
  -1  -1   7    6.62    1.98
   1   1  -7    8.69    2.78
   1   1  -7    8.78    2.34
  -1  -1   6  342.63   14.24
  -1  -1   6  383.65   14.12
   1   1  -6  359.74   13.23
   1   1  -6  343.34   14.20
   1   1  -5  197.54   10.25
  -1  -1   5  200.70    9.06
  -1  -1   5  190.94   10.06
   1   1  -5  211.38    9.88
  -1  -1   5  194.39    9.72
   1   1  -5  187.87    8.48
  -1  -1   4 1141.56   20.90
  -1  -1   4 1156.04   21.83
   1   1  -4 1101.38   18.13
   1   1  -4 1154.55   20.47
  -1  -1   4 1132.62   18.95
  -1  -1   3 2460.85   28.02
  -1  -1   3 2421.70   23.55
   1   1  -3 2434.22   23.41
   1   1  -3 2426.49   27.46
  -1  -1   3 2451.20   26.65
  -1  -1   2 2308.49   16.47
  -1  -1   2 2229.47   16.77
   1   1  -2 2221.06   22.52
  -1  -1   2 2234.83   19.35
   1   1  -2 2235.64   19.03
  -1  -1   2 2251.62   22.93
   1   1  -1 2067.98   17.26
  -1  -1   1 2032.15   18.77
  -1  -1   1 2031.40   17.53
   1   1  -1 2038.17   18.49
  -1  -1   1 1991.97   19.38
  -1  -1   0 1210.43   16.79
  -1  -1   0 1252.98   15.76
   1   1   0 1239.45   15.68
   1   1   1    2.55    0.83
   1   1   1    3.56    0.92
  -1  -1  -1    2.16    1.00
  -1  -1  -1    2.38    1.01
   1   1   2  245.86    9.18
   1   1   2  262.77    9.23
   1   1   2  249.29    5.03
  -1  -1  -2  255.19    4.97
  -1  -1  -2  237.25    8.90
  -1  -1  -2  277.93    9.54
  -1  -1  -2  260.38    9.31
  -1  -1  -3   46.24    4.45
   1   1   3   40.74    2.78
   1   1   3   40.61    4.10
  -1  -1  -3   41.02    4.24
  -1  -1  -3   36.59    3.87
   1   1   3   35.08    3.81
  -1  -1  -3   39.44    2.67
   1   1   3   39.82    3.95
  -1  -1  -4 1138.23   22.54
   1   1   4 1129.24   22.83
  -1  -1  -4 1179.73   24.59
   1   1   4 1182.25   18.09
   1   1   4 1144.72   24.37
   1   1   4 1200.07   25.00
  -1  -1  -4 1191.21   24.74
  -1  -1  -4 1178.87   17.88
  -1  -1  -5   -0.19    0.64
  -1  -1  -5    0.04    0.63
  -1  -1  -5    0.94    1.31
   1   1   5    0.87    1.06
   1   1   5   -0.15    0.36
   1   1   5   -0.12    0.15
   1   1   6  155.39    9.43
   1   1   6  145.98    8.30
  -1  -1  -6  141.06    9.08
   1   1   6  168.41   11.10
  -1  -1  -6  165.28    8.94
  -1  -1  -6  121.79    9.61
   1   1   7  524.64   17.36
   1   1   7  547.81   21.46
   1   1   7  476.25   17.17
  -1  -1  -7  477.69   20.18
  -1  -1  -7  554.32   17.78
   1   1   8  367.11   15.72
  -1  -1  -8  394.45   19.52
   1   1   8  398.43   19.62
  -1  -1  -8  368.19   15.54
  -1  -1  -9  528.17   23.87
   1   1   9  547.80   24.51
   1   1   9  488.57   19.00
  -1  -1  -9  494.63   19.51
  -1  -1 -10   61.54    8.74
  -1  -1 -10   46.26    5.99
  -1  -1 -10   48.55    6.59
   1   1  10   58.57    8.38
  -1  -1 -11  631.81   29.10
  -1  -1 -11  630.72   22.42
   1   1  11  636.06   30.22
  -1  -1 -12   15.33    3.69
  -1  -1 -12   25.04    6.06
   1   1  12   28.65    7.17
  -1  -1 -13  213.55   18.55
   1   1  13  179.16   17.37
  -1  -1 -14    5.42    3.66
   1   1  14   -0.11    2.37
  -1  -1 -15    8.64    3.30
   1   1  15   -1.14    0.66
   1   2 -17   13.17    4.16
   1   2 -16    4.38    1.65
  -1  -2  16    9.33    4.52
   1   2 -16    9.29    4.77
   1   2 -15   27.64    6.27
   1   2 -15   27.48    6.86
  -1  -2  15   15.62    5.75
   1   2 -14  102.09   11.47
   1   2 -14   89.10   12.34
  -1  -2  14   87.13   12.20
   1   2 -13    4.00    2.91
  -1  -2  13    4.34    2.51
   1   2 -13    4.85    1.75
   1   2 -12    1.82    1.93
  -1  -2  12   -0.48    0.56
   1   2 -12    1.16    1.03
   1   2 -11  123.74   12.13
   1   2 -11  101.38    4.10
   1   2 -11  129.98   10.93
  -1  -2  11  118.66   11.97
   1   2 -10  259.84   14.35
  -1  -2  10  231.98    6.50
   1   2 -10  225.32   15.34
  -1  -2  10  210.36   15.19
   1   2  -9   26.83    4.47
  -1  -2   9   34.39    5.64
   1   2  -9   18.94    4.28
  -1  -2   9   27.71    2.19
   1   2  -8  206.34   11.10
   1   2  -8  159.65    5.00
  -1  -2   8  215.07    6.02
  -1  -2   8  188.65   12.44
   1   2  -8  171.99   11.75
  -1  -2   7   43.95    5.60
   1   2  -7   49.61    4.95
  -1  -2   7   40.30    4.69
   1   2  -7   49.67    5.91
  -1  -2   7   55.32    2.97
   1   2  -7   49.73    2.72
   1   2  -6   55.80    4.68
   1   2  -6   51.89    2.68
  -1  -2   6   46.02    4.49
   1   2  -6   43.43    5.29
  -1  -2   6   47.10    5.35
  -1  -2   6   51.96    2.84
   1   2  -5  748.44   19.32
  -1  -2   5  722.10   10.62
   1   2  -5  721.65   15.00
  -1  -2   5  725.09   19.73
  -1  -2   5  701.45   15.57
  -1  -2   5  737.89   18.93
   1   2  -5  710.74   10.11
  -1  -2   4  670.78   16.39
   1   2  -4  653.82   16.33
  -1  -2   4  680.10   10.75
   1   2  -4  637.32   12.14
   1   2  -4  665.74   10.28
  -1  -2   4  642.15   17.24
  -1  -2   4  653.35   12.56
  -1  -2   3 5046.11   28.16
   1   2  -3 5080.82   27.84
  -1  -2   3 4956.71   41.33
   1   2  -3 5114.74   30.74
   1   2  -3 4988.29   41.27
  -1  -2   3 5180.82   30.86
  -1  -2   2    0.85    0.42
   1   2  -2    0.76    0.33
   1   2  -2    0.25    0.20
  -1  -2   2    0.14    0.48
   1   2  -1 1556.84   20.28
  -1  -2   1 1652.24   20.76
  -1  -2   1 1555.09   16.61
   1   2  -1 1625.42   16.52
  -1  -2   1 1558.48   21.16
   1   2  -1 1613.88   21.41
  -1  -2   0  152.82    6.96
  -1  -2   0  141.67    6.65
   1   2   0  148.25    4.01
  -1  -2   0  152.98    5.48
  -1  -2   0  142.73    4.16
  -1  -2   0  154.10    6.79
   1   2   0  141.64    6.68
   1   2   1  180.08    4.36
  -1  -2  -1  185.52    8.47
  -1  -2  -1  189.98    7.32
  -1  -2  -1  179.41    8.00
  -1  -2  -1  207.75    8.54
   1   2   1  186.55    8.10
  -1  -2  -1  196.36    4.60
  -1  -2  -2  492.58   13.47
   1   2   2  491.73    8.58
  -1  -2  -2  470.81   14.30
   1   2   2  464.87   14.14
   1   2   2  504.30    8.37
   1   2   2  471.30   13.31
  -1  -2  -2  467.53   14.13
   1   2   3 1984.96   20.64
   1   2   3 1946.27   30.21
   1   2   3 1970.61   20.37
   1   2   3 2090.28   32.38
  -1  -2  -3 2023.51   32.06
  -1  -2  -3 2057.36   30.88
   1   2   3 2005.61   29.97
  -1  -2  -3 2001.77   30.64
  -1  -2  -4    9.37    2.13
   1   2   4   11.92    1.95
  -1  -2  -4    6.95    2.07
   1   2   4   11.10    1.89
   1   2   4   11.25    2.32
   1   2   4   13.93    3.29
   1   2   5   87.20    5.69
  -1  -2  -5   85.64    7.58
   1   2   5   85.59    7.84
   1   2   5   85.00    6.85
   1   2   6  127.49   10.09
  -1  -2  -6  117.02    9.66
  -1  -2  -6  127.08    8.79
   1   2   6  125.93    7.64
  -1  -2  -7    8.02    2.27
  -1  -2  -7    8.04    3.08
   1   2   7    1.24    2.79
  -1  -2  -8   83.74    7.75
  -1  -2  -8   81.90    9.04
   1   2   8   92.62   10.16
   1   2   9   18.23    4.57
  -1  -2  -9   28.20    5.73
  -1  -2  -9   27.51    4.48
  -1  -2 -10  144.73   10.69
   1   2  10  116.36   12.48
  -1  -2 -10  119.52   12.29
  -1  -2 -11   22.85    4.45
  -1  -2 -11   25.29    6.55
   1   2  11   17.52    5.23
   1   2  12   20.10    4.84
  -1  -2 -12   20.09    5.27
  -1  -2 -12   14.71    3.74
   1   2  12   20.71    5.91
   1   2  13   58.81    8.71
   1   2  13   45.32    8.91
  -1  -2 -13   60.92   10.58
  -1  -2 -14   20.30    6.58
   1   2  14    7.11    4.43
   1   3 -17   19.94    7.09
   1   3 -17   24.03    6.24
   1   3 -16   -3.51    2.06
   1   3 -16    2.44    2.41
  -1  -3  16    1.54    2.92
   1   3 -15   38.41    7.88
  -1  -3  15   27.66    7.77
   1   3 -15   31.55    6.75
   1   3 -14   16.92    5.11
   1   3 -14    7.29    3.88
  -1  -3  14   16.16    5.37
  -1  -3  13    9.14    3.97
   1   3 -13    7.85    3.01
   1   3 -13   10.93    4.19
   1   3 -12  157.88   12.35
  -1  -3  12  148.94   13.92
   1   3 -12  154.75   14.19
   1   3 -11  197.54   12.76
  -1  -3  11  180.64   14.66
   1   3 -11  193.95   14.75
  -1  -3  11  203.60    7.04
   1   3 -10   79.68    4.36
  -1  -3  10   84.06    4.71
  -1  -3  10   67.65    8.34
   1   3 -10   82.81    9.11
   1   3 -10   82.79    7.66
   1   3  -9   -0.47    0.51
   1   3  -9   -0.79    1.16
   1   3  -9   -0.17    0.13
  -1  -3   9    1.34    1.34
  -1  -3   9    0.19    0.25
   1   3  -8   79.26    4.28
   1   3  -8   71.85    6.06
   1   3  -8   62.50    7.21
  -1  -3   8   75.33    4.40
  -1  -3   8   76.46    8.07
   1   3  -7  398.69   12.91
  -1  -3   7  374.76   16.37
   1   3  -7  401.64    9.65
  -1  -3   7  418.89   10.35
  -1  -3   7  418.48   13.89
  -1  -3   6    1.59    1.07
   1   3  -6    2.47    1.48
  -1  -3   6    1.84    0.99
  -1  -3   6    1.75    0.68
   1   3  -6    1.18    0.28
   1   3  -6    2.32    0.71
   1   3  -5   76.26    4.39
   1   3  -5   77.48    4.28
  -1  -3   5   72.67    6.24
   1   3  -5   74.91    6.26
  -1  -3   5   76.19    6.44
  -1  -3   5   79.45    4.58
  -1  -3   5   73.87    4.43
   1   3  -4    2.79    0.96
   1   3  -4    3.91    1.83
   1   3  -4    2.27    0.60
  -1  -3   4    1.41    0.62
  -1  -3   4    1.68    1.09
  -1  -3   4    2.60    1.07
  -1  -3   3  365.53   11.65
   1   3  -3  381.20   10.63
  -1  -3   3  360.43   10.22
   1   3  -3  367.04   11.67
   1   3  -2  639.39   14.65
  -1  -3   2  633.98   14.56
   1   3  -2  632.55   13.47
  -1  -3   2  610.38   13.51
  -1  -3   2  666.59   16.27
   1   3  -1  158.64    7.56
   1   3  -1  162.47    8.00
  -1  -3   1  143.93    7.23
  -1  -3   1  157.81    4.68
  -1  -3   1  150.24    6.11
   1   3  -1  158.21    6.00
  -1  -3   1  158.96    8.08
   1   3   0  603.75   15.72
  -1  -3   0  540.81   14.95
  -1  -3   0  584.35   11.30
   1   3   0  567.14   10.61
  -1  -3   0  593.36   11.70
  -1  -3   0  557.25   15.57
   1   3   0  549.59   15.19
   1   3   1  705.91   18.31
  -1  -3  -1  639.44   16.87
  -1  -3  -1  661.20   11.76
   1   3   1  667.16   11.46
  -1  -3  -1  609.98   16.54
  -1  -3  -1  672.34   15.06
   1   3   1  651.09   14.51
  -1  -3  -1  641.57   17.35
   1   3   2    8.71    2.19
   1   3   2    5.76    1.44
   1   3   2    7.36    1.34
  -1  -3  -2   10.03    2.37
  -1  -3  -2    8.25    1.95
  -1  -3  -2    7.93    2.55
  -1  -3  -2   13.22    2.76
   1   3   3    7.70    1.50
  -1  -3  -3    7.83    2.10
  -1  -3  -3    5.81    1.92
   1   3   3    6.58    1.50
   1   3   3    8.32    2.30
   1   3   3    7.44    2.12
  -1  -3  -3    9.11    2.46
  -1  -3  -4    3.85    1.81
   1   3   4    7.18    1.61
   1   3   4    6.64    1.61
  -1  -3  -4    7.01    2.22
   1   3   4    6.47    2.04
  -1  -3  -5  249.66   13.76
  -1  -3  -5  254.32   12.60
   1   3   5  220.92   13.25
   1   3   5  262.89   10.32
   1   3   5  260.94   10.48
   1   3   6   -0.23    0.38
  -1  -3  -6    1.58    0.79
   1   3   6    0.62    1.08
  -1  -3  -6    0.23    0.31
   1   3   6    0.27    0.24
  -1  -3  -7   63.89    6.95
   1   3   7   68.57    6.33
  -1  -3  -7   60.78    7.76
   1   3   7   72.86    8.73
  -1  -3  -8   50.01    6.33
   1   3   8   51.05    6.03
  -1  -3  -8   40.77    6.80
   1   3   8   38.94    6.83
   1   3   9   10.89    2.66
  -1  -3  -9   13.16    4.31
  -1  -3  -9   19.65    4.61
   1   3   9    9.82    3.36
   1   3  10  265.06   15.15
  -1  -3 -10  232.01   14.66
   1   3  10  216.17   17.71
  -1  -3 -10  211.32   17.19
  -1  -3 -11   19.46    4.72
   1   3  11   22.56    5.18
  -1  -3 -11   18.78    6.02
   1   3  11   19.73    6.10
  -1  -3 -12    2.70    2.62
   1   3  12    1.84    2.41
  -1  -3 -12    3.63    1.87
   1   3  12    2.09    1.75
   1   3  13   39.86    8.84
  -1  -3 -13   39.29    8.62
  -1  -3 -14   60.23   11.35
   1   3  14   58.92   11.30
   1   4 -18    5.09    2.40
   1   4 -17    2.51    3.59
  -1  -4  17    3.26    3.98
   1   4 -17    3.11    2.83
   1   4 -16   -0.05    1.62
   1   4 -16    2.14    2.14
  -1  -4  16   -0.10    2.34
   1   4 -15   25.85    6.92
  -1  -4  15   21.22    6.47
   1   4 -15   24.99    5.66
   1   4 -14  141.27   12.81
  -1  -4  14  125.28   14.23
   1   4 -14  126.75   14.10
   1   4 -13   18.83    3.97
  -1  -4  13   21.32    5.72
   1   4 -13   20.86    5.47
   1   4 -12   20.86    4.86
   1   4 -12   19.95    4.21
  -1  -4  12   20.31    5.42
  -1  -4  11  117.61    6.49
   1   4 -11  106.59    8.95
  -1  -4  11  106.86   11.06
   1   4 -11  101.24   10.84
  -1  -4  10   21.88    2.81
   1   4 -10   25.96    4.11
   1   4 -10   14.47    2.10
  -1  -4  10   18.30    4.46
   1   4 -10   14.87    3.97
   1   4  -9   38.93    5.78
   1   4  -9   42.32    3.69
   1   4  -9   45.19    5.10
  -1  -4   9   40.22    6.09
  -1  -4   9   48.47    4.21
  -1  -4   8   39.93    4.54
   1   4  -8   37.25    3.99
   1   4  -8   43.59    3.72
   1   4  -8   36.56    5.52
  -1  -4   8   31.40    5.37
  -1  -4   8   49.66    4.29
  -1  -4   7  136.98    7.29
   1   4  -7  126.88    6.60
   1   4  -7  134.48    6.68
   1   4  -7  146.64   10.55
  -1  -4   7  139.97    7.20
   1   4  -6   -0.15    0.35
  -1  -4   6    0.66    0.11
   1   4  -6    0.63    0.44
  -1  -4   6    1.33    1.10
  -1  -4   6    0.33    0.52
   1   4  -6    0.98    0.98
  -1  -4   5   10.54    1.43
   1   4  -5   12.42    2.12
   1   4  -5   15.10    1.63
  -1  -4   5   17.64    2.64
   1   4  -5   16.91    3.14
   1   4  -4  437.56   13.15
   1   4  -4  447.48   14.73
  -1  -4   4  460.49   13.41
  -1  -4   4  415.10   14.75
   1   4  -3  255.55   10.25
  -1  -4   3  251.50   10.43
   1   4  -3  236.15    9.83
  -1  -4   3  232.38    9.81
  -1  -4   3  242.56   11.64
   1   4  -2 1721.77   27.69
  -1  -4   2 1778.62   25.80
   1   4  -2 1745.17   24.69
   1   4  -2 1799.29   29.70
  -1  -4   2 1800.91   30.16
   1   4  -1  622.85   13.81
   1   4  -1  660.64   17.64
  -1  -4   1  662.65   17.83
  -1  -4   1  702.12   19.08
  -1  -4   1  621.94   14.73
  -1  -4   1  672.43   11.00
   1   4  -1  608.65   17.74
   1   4   0  290.06   12.24
  -1  -4   0  296.94   12.52
   1   4   0  315.95    9.53
  -1  -4   0  316.67    9.49
  -1  -4   0  326.49   10.25
   1   4   0  316.27    9.51
  -1  -4   0  319.25   13.04
   1   4   0  300.66   12.64
   1   4   1   50.90    4.33
  -1  -4  -1   54.46    5.55
  -1  -4  -1   50.86    4.03
   1   4   1   49.54    3.86
  -1  -4  -1   45.44    4.13
   1   4   1   38.82    4.93
  -1  -4  -2  470.12   12.11
   1   4   2  447.95   11.94
  -1  -4  -2  462.57   16.55
   1   4   2  416.18   16.45
  -1  -4  -2  468.40   15.11
   1   4   2  434.03   14.50
  -1  -4  -3  537.49   18.38
   1   4   3  503.79   13.53
   1   4   3  486.36   18.57
   1   4   4    9.86    2.21
  -1  -4  -4   14.86    3.44
   1   4   4   10.00    2.07
  -1  -4  -4   11.27    2.96
   1   4   4    5.87    1.99
  -1  -4  -5   31.56    4.97
   1   4   5   31.69    3.76
  -1  -4  -5   35.07    5.41
   1   4   5   31.89    4.02
   1   4   5   21.10    4.35
  -1  -4  -6   66.75    7.27
   1   4   6   53.28    7.42
  -1  -4  -6   55.37    7.18
   1   4   6   52.54    5.56
  -1  -4  -7   24.27    4.62
   1   4   7   22.97    4.11
  -1  -4  -7   18.96    4.45
   1   4   7   17.35    4.75
   1   4   8    9.51    2.61
  -1  -4  -8    7.54    2.80
   1   4   8   12.39    4.01
  -1  -4  -8    2.57    1.27
   1   4   9   22.86    4.59
  -1  -4  -9   20.35    4.81
  -1  -4  -9   17.32    4.96
   1   4   9   18.41    4.96
  -1  -4 -10    5.77    2.97
  -1  -4 -10    0.29    1.30
   1   4  10    1.71    1.21
   1   4  10    4.93    2.07
  -1  -4 -11   44.83    8.35
   1   4  11   55.22    7.54
  -1  -4 -11   65.74    8.49
   1   4  11   49.88    9.23
   1   4  12   20.42    6.55
  -1  -4 -12   20.23    5.67
  -1  -4 -13   27.15    7.64
   1   4  13   29.35    7.96
   1   5 -17    2.08    2.09
  -1  -5  17    3.36    4.28
   1   5 -17   -1.95    2.72
   1   5 -16    2.96    2.59
  -1  -5  16    4.06    3.95
   1   5 -16    0.63    2.44
   1   5 -15   16.23    4.26
  -1  -5  15   19.20    6.41
   1   5 -15   20.32    5.80
   1   5 -14   35.34    5.91
  -1  -5  14   23.23    6.84
   1   5 -14   35.83    7.73
   1   5 -13    2.79    2.72
  -1  -5  13    4.03    2.88
   1   5 -13    3.90    2.03
  -1  -5  12  203.57   16.51
  -1  -5  12  234.67   10.26
   1   5 -12  222.49   13.24
   1   5 -12  195.64   15.69
   1   5 -11   69.72    6.78
  -1  -5  11   79.38    6.20
  -1  -5  11   57.79    8.56
   1   5 -11   63.50    8.66
   1   5 -10    9.02    1.94
  -1  -5  10    6.26    2.73
  -1  -5  10    8.88    2.11
   1   5 -10    9.20    3.37
   1   5 -10    4.16    1.72
   1   5  -9   59.12    5.16
  -1  -5   9   70.17    5.79
  -1  -5   9   64.79    5.96
  -1  -5   9   61.53    7.77
   1   5  -9   72.93    8.31
   1   5  -9   57.86    5.04
   1   5  -8   28.46    3.25
   1   5  -8   24.87    3.27
  -1  -5   8   19.02    4.02
  -1  -5   8   34.65    4.15
   1   5  -8   30.59    5.29
  -1  -5   7   15.33    3.53
   1   5  -7   20.57    3.11
   1   5  -7   22.27    2.40
  -1  -5   7   24.97    3.49
   1   5  -7   23.90    4.47
  -1  -5   6   22.66    3.27
   1   5  -6   26.20    4.49
   1   5  -6   17.35    1.75
   1   5  -6   16.73    2.79
   1   5  -5  271.10   11.49
  -1  -5   5  287.33   12.07
   1   5  -5  284.87   13.34
   1   5  -4   19.85    3.43
  -1  -5   4   13.37    3.00
   1   5  -4    9.54    2.18
  -1  -5   4   13.70    2.66
   1   5  -3 3180.30   41.02
  -1  -5   3 3398.03   42.23
  -1  -5   3 3339.29   41.23
   1   5  -3 3257.41   39.33
  -1  -5   2  407.32    7.12
  -1  -5   2  424.70   14.56
   1   5  -2  411.37   13.05
   1   5  -2  399.91   15.71
  -1  -5   1   76.87    6.69
  -1  -5   1   68.78    5.54
  -1  -5   1   68.76    3.96
   1   5  -1   68.54    5.25
   1   5  -1   66.75    3.96
   1   5  -1   59.98    6.21
   1   5   0    6.03    2.25
   1   5   0    5.26    1.42
  -1  -5   0    3.85    1.25
  -1  -5   0    6.61    1.54
   1   5   0    6.57    1.49
  -1  -5   0    7.12    2.41
   1   5   1   80.52    5.98
  -1  -5  -1   71.60    6.93
  -1  -5  -1   67.69    5.53
   1   5   1   75.85    5.46
  -1  -5  -1   79.91    6.02
   1   5   1   64.73    6.74
   1   5   2   -0.74    0.46
  -1  -5  -2    0.06    0.66
   1   5   2    1.29    1.57
  -1  -5  -2    0.70    1.37
  -1  -5  -2    0.34    0.80
   1   5   3    7.76    2.90
   1   5   3    9.71    2.19
  -1  -5  -3    7.74    2.80
  -1  -5  -3    8.86    2.67
  -1  -5  -4   84.07    8.11
   1   5   4   65.83    5.89
  -1  -5  -4   71.13    7.43
   1   5   4   66.62    5.87
   1   5   4   57.35    7.43
   1   5   5    3.23    1.25
   1   5   5    7.77    3.15
  -1  -5  -5    6.63    2.34
  -1  -5  -5    4.85    2.11
  -1  -5  -6  164.84   12.01
   1   5   6  174.87   10.42
   1   5   6  149.82   13.16
  -1  -5  -6  140.80   12.06
  -1  -5  -7  331.37   17.70
   1   5   7  326.52   15.36
  -1  -5  -7  330.70   19.45
   1   5   7  294.66   19.36
  -1  -5  -8   58.60    8.61
   1   5   8   69.91    7.58
  -1  -5  -8   64.89    8.47
   1   5   8   55.88    8.92
   1   5   9    4.55    2.69
  -1  -5  -9    1.72    2.95
  -1  -5  -9    3.30    2.16
   1   5   9    2.71    2.36
   1   5  10   37.41    6.15
  -1  -5 -10   25.43    6.52
  -1  -5 -10   37.50    6.74
   1   5  10   33.95    7.27
  -1  -5 -11    2.20    2.92
  -1  -5 -11    1.32    2.72
   1   5  11    0.55    1.68
  -1  -5 -12    0.02    2.06
   1   5  12    4.02    3.76
  -1  -6  17   10.68    5.14
   1   6 -17   10.16    4.45
  -1  -6  16    3.67    3.91
   1   6 -16   -1.01    1.73
  -1  -6  15   28.39    7.58
   1   6 -15   26.97    5.42
   1   6 -15   33.68    7.68
   1   6 -14   31.84    5.55
  -1  -6  14   39.45    8.43
   1   6 -14   29.88    7.49
   1   6 -13  118.02    9.68
   1   6 -13  118.90   13.05
  -1  -6  13  103.10   12.29
  -1  -6  12    9.88    4.05
  -1  -6  12    9.31    2.28
   1   6 -12   12.23    3.04
   1   6 -12    7.93    3.42
   1   6 -11   -0.08    0.92
  -1  -6  11    0.06    0.41
   1   6 -11    0.28    0.49
  -1  -6  11    0.82    0.80
  -1  -6  10   64.10    6.18
   1   6 -10   64.92    8.56
  -1  -6  10   69.69    8.87
   1   6 -10   59.96    5.32
   1   6  -9   24.93    5.11
  -1  -6   9   18.94    4.69
   1   6  -9   21.67    2.85
  -1  -6   9   19.31    3.33
   1   6  -8  128.30    5.90
   1   6  -8  139.63   11.45
  -1  -6   8  111.26    8.13
  -1  -6   8  111.96   10.02
   1   6  -7  177.26   12.30
   1   6  -7  162.58    5.46
  -1  -6   7  167.26   10.13
  -1  -6   7  146.58   10.98
  -1  -6   6  456.67   16.85
   1   6  -6  527.43   19.83
   1   6  -5   -0.06    0.88
  -1  -6   5    4.00    1.54
   1   6  -4  192.95   10.78
  -1  -6   4  172.90   10.42
   1   6  -3 1024.83   23.47
  -1  -6   3  972.59   25.33
   1   6  -2   39.24    5.52
  -1  -6   2   43.39    5.32
  -1  -6   2   47.48    5.27
   1   6  -2   49.45    4.88
  -1  -6   2   48.47    2.96
  -1  -6   1  211.01   10.88
  -1  -6   1  160.87   10.82
   1   6  -1  196.54    7.50
   1   6  -1  191.05    9.50
  -1  -6   1  207.30    7.71
   1   6  -1  178.55   11.68
  -1  -6   0  442.94   15.46
  -1  -6   0  463.46   18.67
   1   6   0  438.20   14.28
   1   6   0  424.11   13.11
  -1  -6   0  458.21   13.56
  -1  -6  -1  266.62   14.58
   1   6   1  235.27   11.13
   1   6   1  245.43   11.16
  -1  -6  -1  259.28   11.43
   1   6   1  214.01   13.57
  -1  -6  -1  258.18   11.75
  -1  -6  -2  132.80    8.35
  -1  -6  -2  148.95   11.00
   1   6   2  145.84    8.55
  -1  -6  -2  141.07    9.15
   1   6   2  124.40   10.57
   1   6   3   10.74    3.36
   1   6   3   13.23    2.64
  -1  -6  -3    9.95    2.62
  -1  -6  -3   16.12    3.55
  -1  -6  -4  272.47   15.96
   1   6   4  254.00   12.10
  -1  -6  -4  233.01   14.02
   1   6   4  214.23   15.16
  -1  -6  -5  294.09   16.85
   1   6   5  269.96   13.20
  -1  -6  -5  254.19   15.64
   1   6   5  236.95   16.70
   1   6   6   16.82    5.16
  -1  -6  -6   12.44    3.82
   1   6   6   24.56    4.31
  -1  -6  -6   25.58    5.20
   1   6   7    5.81    2.29
  -1  -6  -7    5.24    2.09
  -1  -6  -7    7.96    3.25
   1   6   7    9.65    3.46
   1   6   8    0.43    1.39
  -1  -6  -8    2.89    1.91
  -1  -6  -8    0.18    1.15
  -1  -6  -9   93.37   10.73
   1   6   9   89.03   12.59
   1   6   9   71.62    8.08
  -1  -6  -9   68.96   10.35
  -1  -6 -10    2.14    1.81
  -1  -6 -10    0.66    0.83
   1   6  10    2.15    3.25
  -1  -6 -11    6.41    4.80
  -1  -6 -11    0.52    0.60
   1   6  11    2.63    3.09
  -1  -6 -12   38.87    8.67
   1   7 -17   25.98    7.85
  -1  -7  16   16.65    5.47
   1   7 -16   23.62    7.28
   1   7 -15   17.01    5.65
  -1  -7  15   16.59    5.98
   1   7 -14   73.66   10.88
  -1  -7  14   89.03   12.23
   1   7 -13   -0.67    1.82
  -1  -7  13    1.80    1.15
   1   7 -13   -1.06    0.97
   1   7 -12   14.91    2.92
  -1  -7  12   15.89    4.87
  -1  -7  12   10.33    2.68
   1   7 -12   10.19    4.05
   1   7 -11    1.26    0.53
  -1  -7  11    3.02    1.70
  -1  -7  11    1.92    2.57
   1   7 -11    3.70    2.17
   1   7 -10   68.00    9.38
  -1  -7  10   62.07    6.72
  -1  -7  10   72.73    9.65
   1   7 -10   63.70    4.90
   1   7  -9   18.14    2.22
  -1  -7   9   15.85    3.45
   1   7  -9   13.43    4.12
  -1  -7   9   18.57    4.76
   1   7  -8   19.39    1.79
  -1  -7   8   23.47    5.12
  -1  -7   8   18.92    3.80
   1   7  -8   23.91    4.96
   1   7  -7  238.61   14.57
  -1  -7   7  227.89   12.97
   1   7  -6  213.46   13.21
  -1  -7   6  200.00   12.29
   1   7  -5  136.61   10.04
  -1  -7   5  116.94    9.35
   1   7  -4    4.02    2.15
  -1  -7   4   -0.02    0.55
  -1  -7   3   15.63    3.63
   1   7  -3   20.44    3.43
   1   7  -2  557.31   11.65
  -1  -7   2  523.12   20.56
   1   7  -2  557.41   18.26
  -1  -7   2  568.19   11.60
   1   7  -2  519.19   21.30
   1   7  -1    6.36    2.67
  -1  -7   1    8.58    1.79
   1   7  -1    5.68    1.27
   1   7  -1    6.37    2.08
  -1  -7   1   10.62    2.95
  -1  -7   0  258.83   15.00
  -1  -7   0  261.69   11.02
   1   7   0  236.13   11.49
   1   7   0  236.56   10.59
   1   7   0  225.55   14.15
   1   7   1  346.46   18.45
  -1  -7  -1  378.08   18.67
   1   7   1  387.22   14.86
  -1  -7  -1  361.08   14.67
  -1  -7  -2 1812.18   41.49
   1   7   2 1811.88   32.93
  -1  -7  -2 1704.27   34.88
   1   7   2 1751.26   42.99
   1   7   3   18.66    4.61
  -1  -7  -3   13.23    3.67
   1   7   3   15.96    3.02
  -1  -7  -3    9.80    2.83
  -1  -7  -4  115.15   10.96
  -1  -7  -4  113.54   10.33
   1   7   4  121.96    9.08
   1   7   4  104.66   11.46
  -1  -7  -5   73.59    9.34
   1   7   5   84.04    8.02
  -1  -7  -5   74.15    8.94
   1   7   5   66.18    9.54
   1   7   6   94.04    8.77
  -1  -7  -6   91.40   10.18
  -1  -7  -6   68.10    9.04
   1   7   6   87.49   11.37
   1   7   7   39.28    5.82
  -1  -7  -7   27.37    5.66
  -1  -7  -7   36.05    7.14
   1   7   7   27.84    6.67
   1   7   8   -0.32    1.25
  -1  -7  -8    1.77    0.89
  -1  -7  -8   -0.20    2.06
   1   7   9    9.55    4.76
  -1  -7  -9    5.04    2.83
  -1  -7  -9   15.49    5.07
   1   7  10    8.30    4.62
  -1  -7 -10    5.43    1.88
  -1  -7 -10    8.84    4.82
   1   7  11    0.49    2.21
  -1  -7 -11    2.29    2.56
  -1  -8  16    9.79    4.19
   1   8 -16    7.41    4.41
   1   8 -15    0.69    1.46
  -1  -8  15    5.50    3.92
  -1  -8  14   40.00    8.63
   1   8 -14   27.34    6.72
   1   8 -13   41.78    8.33
  -1  -8  13   72.35   10.87
  -1  -8  12    4.68    2.42
   1   8 -12    3.29    2.31
  -1  -8  11    1.72    1.27
   1   8 -11    7.49    3.79
  -1  -8  11    8.11    3.70
  -1  -8  10    2.96    2.04
   1   8 -10    5.97    1.33
  -1  -8  10    5.90    3.30
   1   8 -10    9.83    3.67
   1   8  -9  157.78   13.45
  -1  -8   9  139.68   10.99
  -1  -8   9  153.06   13.18
   1   8  -8  154.08   12.55
  -1  -8   8  131.39   10.82
  -1  -8   7    0.68    1.04
   1   8  -7    2.82    1.96
  -1  -8   6  100.62    9.58
   1   8  -6  120.65   10.34
  -1  -8   5   45.45    6.39
   1   8  -5   48.32    6.30
  -1  -8   4  180.74   13.01
   1   8  -4  203.74   12.50
  -1  -8   3    2.98    1.81
   1   8  -3    4.51    2.43
  -1  -8   2   50.06    6.88
   1   8  -2   59.10    4.20
   1   8  -2   57.27    6.41
  -1  -8   2   65.73    4.43
   1   8  -2   45.65    7.12
   1   8  -1  121.33    7.11
  -1  -8   1  139.73    7.69
  -1  -8   1  109.15   10.31
   1   8  -1  123.58    9.11
   1   8  -1  117.13   10.99
  -1  -8   0   13.35    2.75
  -1  -8   0   17.59    4.18
   1   8   0   12.15    3.45
   1   8   0   17.72    3.23
   1   8   1  964.36   32.78
   1   8   1 1007.97   25.66
  -1  -8  -1 1038.90   26.18
   1   8   2  581.47   20.12
  -1  -8  -2  612.66   25.69
  -1  -8  -2  535.80   20.39
   1   8   2  521.21   25.10
  -1  -8  -3   70.49    8.88
   1   8   3   82.90    7.81
  -1  -8  -3   72.65    8.11
   1   8   3   78.03   10.11
   1   8   4   11.32    4.19
   1   8   4   12.36    3.39
  -1  -8  -4   13.85    4.08
  -1  -8  -4   16.99    4.68
   1   8   5   41.31    8.10
  -1  -8  -5   64.14    8.94
  -1  -8  -5   61.82    8.34
   1   8   5   43.65    6.06
   1   8   6   17.95    5.65
  -1  -8  -6   18.62    5.28
   1   8   6   13.25    3.41
  -1  -8  -6   19.57    5.36
   1   8   7    2.38    2.94
  -1  -8  -7    4.19    3.07
  -1  -8  -7    4.06    2.98
   1   8   8   22.34    6.49
  -1  -8  -8   20.13    5.78
  -1  -8  -8   22.63    5.81
  -1  -8  -9   62.75    9.58
   1   8   9   79.14   12.38
  -1  -8  -9   71.69   11.22
  -1  -8 -10   21.26    6.73
  -1  -8 -10   15.93    5.19
  -1  -9  16   61.50   11.62
   1   9 -16   50.54   10.06
   1   9 -15    8.85    3.69
  -1  -9  15   16.20    5.83
  -1  -9  14   -1.35    1.56
   1   9 -14    9.60    5.12
   1   9 -13   31.73    7.28
  -1  -9  13   31.73    7.29
  -1  -9  12    0.26    0.27
  -1  -9  12    0.03    0.19
   1   9 -11   37.67    7.17
  -1  -9  11   30.45    5.27
  -1  -9  11   46.79    8.21
  -1  -9  10  277.00   19.20
  -1  -9  10  213.13   14.69
   1   9 -10  245.18   17.77
  -1  -9   9  208.67   14.67
   1   9  -9  234.54   17.24
  -1  -9   9  229.37   16.63
  -1  -9   8    2.08    1.22
   1   9  -8    6.00    3.28
  -1  -9   7    2.93    1.93
   1   9  -7    1.02    0.38
   1   9  -6    8.60    3.46
  -1  -9   6   15.21    4.31
  -1  -9   5   93.34   10.03
   1   9  -5   96.24    9.60
   1   9  -4   74.09    8.14
  -1  -9   4   73.65    8.71
  -1  -9   3  241.30   16.26
   1   9  -3  254.36   14.34
   1   9  -2  757.30   16.57
   1   9  -2  763.01   24.37
  -1  -9   2  821.18   17.09
  -1  -9   2  729.70   28.34
   1   9  -2  739.03   29.01
   1   9  -1   31.04    6.26
   1   9  -1   22.43    4.16
  -1  -9   1   23.61    5.00
  -1  -9   1   29.70    3.83
  -1  -9   0   86.28   10.04
   1   9   0   86.68    8.10
  -1  -9   0   77.46    6.88
   1   9   0   81.64   10.01
  -1  -9  -1  220.05   16.29
   1   9   1  196.11   12.41
   1   9   1  185.64   15.19
  -1  -9  -1  197.30   12.05
  -1  -9  -2  153.90   11.56
   1   9   2  163.92   11.39
   1   9   2  138.57   13.64
  -1  -9  -3   56.66    8.61
   1   9   3   40.84    5.91
  -1  -9  -3   42.34    6.50
   1   9   3   57.23    9.07
   1   9   4  131.52   14.34
  -1  -9  -4  128.62   13.06
  -1  -9  -4  110.05   11.09
   1   9   4  129.68   10.75
   1   9   5   -0.63    0.81
  -1  -9  -5    0.23    1.56
  -1  -9  -5    0.34    2.01
   1   9   5    1.03    1.55
   1   9   6   36.08    8.48
  -1  -9  -6   39.32    7.46
  -1  -9  -6   49.91    8.38
  -1  -9  -7  118.52   13.19
  -1  -9  -7  106.86   12.89
   1   9   7  126.65   15.52
  -1  -9  -8    7.61    3.89
  -1  -9  -8    1.61    8.09
   1   9   8    9.04    5.01
  -1  -9  -9   53.52   10.85
  -1  -9  -9   67.31   10.53
  -1 -10  15    4.37    3.37
   1  10 -15    2.72    2.95
  -1 -10  14   34.89    8.34
   1  10 -14   25.73    6.86
  -1 -10  13   30.43    5.93
   1  10 -13   36.02    8.00
  -1 -10  13   30.56    7.26
   1  10 -12  170.52   17.18
  -1 -10  12  153.10   13.18
  -1 -10  11  102.10   12.66
  -1 -10  11   70.33    9.01
   1  10 -11   85.85   11.53
  -1 -10  10   89.39   10.08
   1  10 -10  112.04   12.58
  -1 -10  10  107.89   12.01
  -1 -10   9    4.91    2.48
   1  10  -9    7.40    3.48
   1  10  -8   83.13   10.24
  -1 -10   8   54.11    7.86
  -1 -10   7   12.94    4.23
   1  10  -7   12.51    3.79
   1  10  -6    7.34    3.56
  -1 -10   6    9.80    3.62
   1  10  -5    6.13    2.61
  -1 -10   5   10.97    3.37
  -1 -10   4   25.18    5.29
   1  10  -4   23.12    4.82
  -1 -10   3  159.16   14.11
   1  10  -3  144.60   11.56
   1  10  -2   88.14   10.94
  -1 -10   2   86.41   10.51
   1  10  -2   94.60    9.13
  -1 -10   2   96.34    6.36
  -1 -10   1    4.05    1.78
   1  10  -1   10.96    3.27
   1  10  -1    6.16    2.99
  -1 -10   0   59.86    9.13
   1  10   0   36.52    5.69
  -1 -10   0   43.31    5.48
   1  10   0   47.77    7.99
   1  10   1   20.83    5.53
   1  10   1   25.83    4.69
  -1 -10  -1   19.15    4.00
   1  10   2   31.46    7.07
  -1 -10  -2   49.56    8.19
   1  10   2   37.00    5.88
  -1 -10  -2   42.27    6.31
   1  10   3   14.48    5.02
  -1 -10  -3   24.34    5.53
   1  10   3   22.13    4.86
  -1 -10  -3   17.77    5.45
   1  10   4   30.29    6.96
  -1 -10  -4   34.09    6.55
  -1 -10  -4   39.64    7.82
   1  10   5   13.13    4.86
  -1 -10  -5   16.42    5.18
  -1 -10  -5    8.52    4.10
  -1 -10  -6  172.80   16.77
  -1 -10  -6  159.66   15.73
   1  10   6  157.51   17.72
   1  10   7    6.82    4.89
  -1 -10  -7    2.83    1.30
  -1 -10  -7    3.73    3.03
  -1 -10  -8    4.80    4.26
  -1 -10  -8   15.01    5.93
  -1 -11  15    1.93    1.44
   1  11 -15    2.28    4.93
  -1 -11  14   17.02    5.68
   1  11 -14   25.00    7.11
  -1 -11  13   96.08   13.25
  -1 -11  13   82.02   10.17
   1  11 -13   91.69   13.11
  -1 -11  12   19.08    4.98
  -1 -11  12   31.50    7.53
   1  11 -12   25.77    7.29
  -1 -11  11    4.60    2.27
  -1 -11  11    6.64    3.47
   1  11 -11    6.74    4.39
  -1 -11  10   84.92   11.47
   1  11 -10   94.50   11.98
  -1 -11  10   86.85   10.98
  -1 -11   9   36.95    7.08
   1  11  -9   43.61    7.48
   1  11  -8    1.00    0.50
  -1 -11   8    1.52    2.11
  -1 -11   7    4.68    2.22
   1  11  -7    1.62    1.57
   1  11  -6   26.69    5.83
  -1 -11   6   23.14    6.01
  -1 -11   5   37.72    7.24
   1  11  -5   41.33    6.79
   1  11  -4   -0.23    0.89
  -1 -11   4    1.63    2.13
   1  11  -3  144.63   11.99
  -1 -11   3  143.31   14.38
   1  11  -2   68.75    9.94
  -1 -11   2   75.80   10.54
   1  11  -2   82.00    9.21
   1  11  -1   -0.95    0.86
   1  11  -1    4.16    2.20
  -1 -11   1    2.52    2.01
   1  11   0   12.73    5.65
  -1 -11   0   14.83    5.08
   1  11   0   18.24    4.33
   1  11   1   11.15    4.78
   1  11   1   10.62    3.65
  -1 -11  -1    5.75    2.99
   1  11   2    5.15    3.76
  -1 -11  -2    2.18    1.75
  -1 -11  -2   10.24    4.55
   1  11   2    3.95    2.25
  -1 -11  -3  129.31   14.64
   1  11   3  131.75   15.39
  -1 -11  -3  105.54   11.23
   1  11   4    4.74    3.01
  -1 -11  -4    3.70    2.73
  -1 -11  -4    3.18    2.84
   1  11   5   56.43   10.94
  -1 -11  -5   43.66    8.22
  -1 -11  -5   61.23   10.35
   1  11   6   17.16    6.44
  -1 -11  -6   13.20    4.98
  -1 -11  -6   22.80    8.02
  -1 -11  -7   34.23    8.01
  -1 -11  -7   25.02    7.23
   1  12 -14    5.99    4.94
  -1 -12  14    2.26    3.29
  -1 -12  13    5.95    2.61
   1  12 -13    9.29    4.24
  -1 -12  13   15.28    5.18
  -1 -12  12   -0.76    2.19
  -1 -12  12    1.66    2.64
  -1 -12  11   79.56   11.94
   1  12 -11   84.93   12.26
  -1 -12  11   71.97   10.38
  -1 -12  10   12.81    4.39
  -1 -12  10   19.33    5.99
   1  12 -10   14.41    5.43
  -1 -12   9   14.77    5.02
   1  12  -9   17.98    5.91
  -1 -12   8    8.78    3.92
   1  12  -8    6.19    3.25
  -1 -12   7   39.10    7.88
   1  12  -7   43.37    7.57
   1  12  -6    3.22    2.89
  -1 -12   6    2.18    2.10
   1  12  -5   10.26    3.93
  -1 -12   5   12.12    4.50
   1  12  -4   46.82    7.78
  -1 -12   4   30.10    6.87
   1  12  -3   30.36    6.00
  -1 -12   3   32.80    7.58
   1  12  -2   15.81    4.39
   1  12  -2   19.36    5.93
  -1 -12   2   20.98    5.78
   1  12  -1    2.37    2.74
   1  12  -1    3.34    2.70
  -1 -12   1    5.76    4.04
   1  12   0   14.59    5.04
   1  12   0   12.28    3.79
  -1 -12   0   17.52    5.42
   1  12   1   38.04    8.32
  -1 -12  -1   41.30    8.89
   1  12   2    5.02    2.88
  -1 -12  -2    1.35    1.69
   1  12   3   20.16    6.52
  -1 -12  -3   30.15    7.16
   1  12   4   12.75    5.70
  -1 -12  -4    6.49    3.33
  -1 -12  -5   44.59    9.14
  -1 -13  13   68.14   11.49
   1  13 -13   50.45    9.72
  -1 -13  12    5.02    3.64
  -1 -13  12    3.26    1.92
   1  13 -12    1.03    1.76
  -1 -13  11   20.55    5.95
  -1 -13  11   31.74    7.90
   1  13 -11   17.44    6.08
  -1 -13  10   14.14    4.77
   1  13 -10    8.83    4.16
  -1 -13   9   43.08    8.83
   1  13  -9   23.35    6.05
  -1 -13   8   16.10    5.90
   1  13  -8   25.81    6.74
  -1 -13   7   79.13   11.60
   1  13  -7   50.27    8.71
  -1 -13   6    8.73    3.87
   1  13  -6   17.81    5.04
   1  13  -5   40.06    7.71
  -1 -13   5   45.49    8.96
   1  13  -4   29.34    6.48
  -1 -13   4   37.13    8.51
   1  13  -3   -0.04    1.63
  -1 -13   3   -2.53    1.17
   1  13  -2    6.07    2.73
  -1 -13   2    4.03    3.43
   1  13  -1   27.48    7.81
   1  13  -1   35.45    7.06
  -1 -13   1   51.79   10.01
   1  13   0    4.32    3.57
  -1 -13   0    4.84    0.77
   1  13   1    4.15    2.26
  -1 -13  -1    1.42    1.00
   1  13   2    7.13    4.12
  -1 -13  -2   12.12    4.81
  -1 -14  12    9.45    4.24
  -1 -14  11    5.28    3.24
   1  14 -11   10.73    5.17
  -1 -14  11    4.97    4.56
  -1 -14  10   33.50    7.87
   1  14 -10   35.28    8.12
  -1 -14   9   -3.21    3.00
   1  14  -9    4.02    4.03
  -1 -14   8   36.38    8.42
   1  14  -8   24.26    6.51
   1  14  -7    1.03    1.77
  -1 -14   7    4.91    3.01
  -1 -14   6   40.41    9.04
   1  14  -6   45.67    8.56
  -1 -14   5    3.87    4.07
   1  14  -5    7.73    3.50
   1  14  -4   46.68    8.05
  -1 -14   4   42.68    9.32
   1  14  -3   20.26    5.81
  -1 -14   3   40.62    9.19
  -1 -14   2   31.56    8.45
  -1 -14   1   52.56   10.83
   1  15 -10   10.02    4.54
  -1 -15   9   20.63    6.76
   1  15  -9   23.13    5.90
   1  15  -8    8.99    4.04
   1  15  -7  119.44   14.48
   1  15  -6   -4.04    4.02
   1  15  -5   87.27   11.93
  -2  15  -3   -0.37    0.36
  -2  15  -4   -0.70    0.44
  -2  15  -5   28.21    8.21
  -2  15  -6    8.88    4.87
   2 -15   8    8.80    4.37
   2 -15   9   15.85    5.52
   2 -15  10   24.77    7.21
   2 -15  11    2.16    1.98
  -2  14   1   15.50    5.49
   2 -14   0   12.17    4.83
  -2  14   0   17.53    5.08
   2 -14   1    1.22    2.28
  -2  14  -1   -0.78    1.41
   2 -14   2    0.76    3.24
  -2  14  -2   -4.52    2.59
   2 -14   3   -1.30    0.89
  -2  14  -3    6.88    3.29
  -2  14  -4    7.18    3.92
   2 -14   4    9.79    4.26
   2 -14   5    5.02    4.27
  -2  14  -5    0.85    1.20
  -2  14  -6   55.84   10.64
   2 -14   6   56.27   10.23
  -2  14  -7   -1.88    1.01
   2 -14   7   -2.93    2.73
   2 -14   8   -2.18    1.47
   2 -14   8    3.07    1.87
  -2  14  -8    4.26    3.49
   2 -14   9    4.58    1.69
   2 -14   9   14.12    4.91
  -2  14  -9   15.08    5.86
   2 -14  10    2.48    3.80
   2 -14  10    4.46    2.83
  -2  14 -10   -1.26    1.94
   2 -14  11    1.79    2.68
   2 -14  11    4.80    4.12
   2 -14  12   14.51    5.55
   2 -14  13   39.84    8.92
   2 -13  -4   26.65    7.32
  -2  13   4   20.77    6.02
   2 -13  -3   -1.30    1.35
  -2  13   3    0.88    1.40
  -2  13   3   -1.83    2.67
  -2  13   2   10.69    5.71
  -2  13   2    6.02    3.14
  -2  13   1    4.23    4.34
   2 -13  -1    1.23    2.45
  -2  13   1    3.77    3.19
   2 -13   0    4.49    1.73
  -2  13   0   -0.16    2.49
  -2  13  -1   76.67   11.43
   2 -13   1   80.23   11.86
   2 -13   2    0.47    1.34
  -2  13  -2    5.42    3.33
   2 -13   3    7.16    3.83
  -2  13  -3   17.50    5.80
   2 -13   4    2.44    2.14
  -2  13  -4   -1.79    1.39
   2 -13   5   62.98   10.24
  -2  13  -5  101.10   13.40
  -2  13  -6  130.60   15.02
   2 -13   6  116.01   14.12
   2 -13   7    7.84    4.09
  -2  13  -7   10.86    4.55
   2 -13   8    3.16    3.15
   2 -13   8   -1.10    1.03
  -2  13  -8    0.43    1.56
   2 -13   9    2.16    3.05
   2 -13   9    1.77    2.40
  -2  13  -9    6.46    4.30
   2 -13  10   -0.44    0.92
   2 -13  10    3.68    3.64
  -2  13 -10    5.76    4.80
   2 -13  11    5.21    3.50
  -2  13 -11    3.05    1.84
  -2  13 -12    8.20    3.83
   2 -13  12    9.54    4.37
   2 -13  12    9.12    4.17
   2 -13  13   -2.14    3.07
   2 -13  13    7.85    4.42
   2 -13  14    6.35    3.76
   2 -13  14    7.06    4.15
  -2  12   6    6.62    3.98
   2 -12  -6    5.56    4.42
  -2  12   5  109.10   14.54
   2 -12  -5   93.55   13.04
   2 -12  -5   97.71   12.76
  -2  12   5   93.03   12.46
  -2  12   4    3.65    3.73
   2 -12  -4    2.97    1.68
   2 -12  -4   -0.43    2.11
  -2  12   4    2.67    3.09
  -2  12   3    3.29    2.86
   2 -12  -3    2.82    3.51
  -2  12   3   -1.02    2.09
   2 -12  -3   -0.65    1.49
  -2  12   2   55.13    9.69
   2 -12  -2   43.31    7.91
  -2  12   2   34.90    7.51
   2 -12  -2   31.53    6.93
  -2  12   1    4.70    4.48
   2 -12  -1   21.09    5.55
  -2  12   1   18.76    5.25
  -2  12   0   -0.64    0.63
   2 -12   0    0.36    2.49
  -2  12   0    4.33    2.83
   2 -12   1   30.84    6.85
  -2  12  -1   15.72    5.30
  -2  12  -2  103.70   12.79
   2 -12   2  137.08   14.43
  -2  12  -3   85.94   11.56
   2 -12   3   98.59   12.72
   2 -12   4    3.10    2.59
  -2  12  -4    4.89    2.35
  -2  12  -5   44.63    8.19
   2 -12   5   41.83    8.28
   2 -12   6   28.09    7.23
  -2  12  -6   52.22    9.17
   2 -12   7   -3.50    2.59
  -2  12  -7    3.82    3.06
   2 -12   8   14.86    4.91
  -2  12  -8   15.99    5.51
   2 -12   8    9.98    3.88
   2 -12   9   -0.43    1.85
   2 -12   9    2.08    1.81
  -2  12  -9    0.09    2.57
   2 -12  10   -0.01    0.97
   2 -12  10    2.15    2.38
   2 -12  11    1.87    2.27
  -2  12 -11    3.11    3.13
   2 -12  11    6.82    3.86
  -2  12 -12   40.86    9.07
   2 -12  12   37.20    7.79
   2 -12  12   42.36    9.20
   2 -12  13    9.22    4.87
  -2  12 -13    3.25    3.27
   2 -12  13   10.15    4.56
   2 -12  14   27.71    7.59
   2 -12  14   36.24    8.41
   2 -12  15   21.67    6.96
   2 -12  15   10.49    5.22
  -2  11   7   81.77   12.58
   2 -11  -7  104.14   14.58
  -2  11   7   87.58   12.99
  -2  11   6  116.73   14.02
  -2  11   6   97.01   13.62
   2 -11  -6   97.79   11.87
   2 -11  -6   84.53   12.70
  -2  11   5   13.40    5.14
   2 -11  -5   25.78    6.02
  -2  11   5   22.45    6.55
   2 -11  -5   25.17    6.45
  -2  11   4    1.21    2.14
   2 -11  -4    6.72    3.45
   2 -11  -4    3.29    2.42
  -2  11   4    6.77    3.21
  -2  11   3   24.99    5.47
   2 -11  -3   43.23    7.86
   2 -11  -3   23.53    5.82
  -2  11   3   40.29    8.31
   2 -11  -2   14.67    4.56
  -2  11   2    8.65    4.06
   2 -11  -2    3.57    2.59
  -2  11   2    9.92    4.57
   2 -11  -1    1.29    2.19
  -2  11   1    3.23    3.02
   2 -11  -1    1.67    2.24
  -2  11   1    2.99    3.02
  -2  11   0   55.96    9.68
  -2  11   0   67.00    8.97
   2 -11   0   81.18   10.80
  -2  11  -1   59.24    9.61
   2 -11   1   78.60   10.60
  -2  11  -2  319.48   20.96
   2 -11   2  289.08   19.92
   2 -11   3   17.19    4.81
  -2  11  -3   12.24    4.60
  -2  11  -4  106.22   12.34
   2 -11   4  116.25   12.57
   2 -11   5    3.25    2.64
  -2  11  -5    5.72    3.43
   2 -11   6    7.44    2.84
  -2  11  -6    5.15    3.74
   2 -11   7    7.05    3.06
  -2  11  -7    7.59    3.61
   2 -11   7    5.02    2.78
   2 -11   8    4.88    2.08
   2 -11   8    1.57    0.85
  -2  11  -9   58.73    9.62
   2 -11   9   54.99    9.30
   2 -11   9   63.78    8.76
  -2  11 -10  125.80   14.28
   2 -11  10  134.90   12.96
   2 -11  10  109.71   13.43
  -2  11 -11   60.79   10.17
   2 -11  11   73.74    9.91
   2 -11  11   63.99    9.86
   2 -11  12    1.06    3.00
  -2  11 -12   -0.60    2.37
   2 -11  12    5.57    3.39
   2 -11  13    4.84    3.67
   2 -11  13    8.99    4.29
  -2  11 -13    0.74    1.65
   2 -11  14   33.86    7.62
  -2  11 -14   27.54    8.07
   2 -11  14   32.29    8.05
   2 -11  15   37.87    9.10
   2 -11  15   29.88    7.47
  -2  10   9  181.34   19.13
  -2  10   9  134.41   16.58
   2 -10  -8   87.94   13.01
  -2  10   8   90.25   12.89
  -2  10   8   86.20   13.02
  -2  10   7   18.84    6.11
  -2  10   7    7.27    3.60
   2 -10  -7    8.24    4.40
  -2  10   6   20.91    6.07
   2 -10  -6   43.74    7.38
  -2  10   6   32.91    7.94
   2 -10  -6   23.29    6.80
  -2  10   5    8.12    4.40
   2 -10  -5    5.19    1.61
  -2  10   5    4.55    3.20
   2 -10  -5    1.54    1.46
  -2  10   4   43.73    7.77
   2 -10  -4   46.29    7.55
   2 -10  -4   46.35    8.36
  -2  10   4   57.67    9.70
  -2  10   3    2.84    2.83
   2 -10  -3    2.61    2.61
  -2  10   3    4.19    3.32
   2 -10  -3    6.52    3.59
  -2  10   2   17.20    5.13
  -2  10   2   15.40    4.06
   2 -10  -2   24.03    5.67
   2 -10  -2   15.91    4.49
  -2  10   1    1.01    2.57
  -2  10   1   -0.04    0.68
   2 -10  -1    2.97    2.40
   2 -10  -1    2.03    1.99
  -2  10   0   17.82    4.06
   2 -10   0   15.15    4.74
  -2  10   0   17.07    5.24
  -2  10  -1   71.92    9.84
   2 -10   1   77.66    9.65
  -2  10  -2    3.47    3.31
   2 -10   2    8.48    2.77
   2 -10   3   20.74    5.12
  -2  10  -3   25.42    5.97
   2 -10   4   13.85    4.87
  -2  10  -4   15.61    4.73
  -2  10  -5  150.64   13.86
   2 -10   5  153.81   14.07
   2 -10   6   21.67    5.25
  -2  10  -6   18.88    5.18
   2 -10   7    5.33    3.55
  -2  10  -7    4.49    3.40
   2 -10   7    6.00    2.61
   2 -10   8  157.05   12.43
  -2  10  -8  131.62   13.60
   2 -10   8  141.81   13.79
   2 -10   9   25.68    5.65
   2 -10   9   20.59    5.31
  -2  10  -9   13.36    4.28
  -2  10 -10  163.24   11.56
   2 -10  10  163.34   14.02
  -2  10 -10  122.19   13.81
   2 -10  10  136.29   14.17
  -2  10 -11    2.40    2.15
   2 -10  11    0.18    0.70
  -2  10 -11    0.47    1.28
   2 -10  11    1.11    1.98
   2 -10  12    2.53    1.58
   2 -10  12    2.05    2.55
  -2  10 -12    0.42    1.62
   2 -10  13    6.05    3.06
   2 -10  13    8.25    4.01
  -2  10 -13    5.63    3.06
   2 -10  14   10.05    4.03
   2 -10  14    4.12    3.12
  -2  10 -14    1.84    2.34
   2 -10  15   19.14    5.63
   2 -10  15   30.06    7.31
  -2  10 -15   23.81    6.22
   2 -10  16   11.15    4.59
  -2   9  10    6.40    3.85
  -2   9  10    9.75    4.98
  -2   9   9   50.98    9.67
  -2   9   9   49.90    9.66
   2  -9  -9   43.07    9.52
  -2   9   8    5.91    4.06
   2  -9  -8    9.21    5.26
  -2   9   8    7.08    3.14
   2  -9  -7    0.40    0.42
   2  -9  -7    1.52    1.88
  -2   9   7    5.49    4.55
  -2   9   7    1.62    3.12
  -2   9   6   43.17    8.01
  -2   9   6   48.73    8.54
   2  -9  -6   67.98    8.69
   2  -9  -6   39.14    7.96
  -2   9   5    8.05    3.54
   2  -9  -5   19.49    4.78
  -2   9   5   11.79    4.15
   2  -9  -5   13.50    4.28
  -2   9   4    4.49    2.39
   2  -9  -4    4.68    2.97
  -2   9   4    3.93    2.54
   2  -9  -4    3.74    2.49
   2  -9  -3  233.92   16.00
  -2   9   3  209.71   15.34
  -2   9   3  239.05   18.04
   2  -9  -3  241.92   17.12
  -2   9   2   19.20    4.65
   2  -9  -2   22.73    5.20
   2  -9  -2   13.27    3.83
  -2   9   2   20.95    5.48
  -2   9   1  330.29   20.28
   2  -9  -1  310.36   18.49
   2  -9  -1  258.41   16.28
  -2   9   1  252.27   15.40
  -2   9   0   19.20    4.31
   2  -9   0   25.91    5.17
  -2   9   0   16.49    4.76
   2  -9   0   20.52    4.39
  -2   9  -1    1.40    1.72
   2  -9   1    5.52    2.87
  -2   9  -1   -1.24    2.03
  -2   9  -2  187.60   15.41
   2  -9   2  134.33   12.08
  -2   9  -3    1.64    0.92
   2  -9   3    1.57    2.32
  -2   9  -4   40.62    6.74
   2  -9   4   36.70    6.09
   2  -9   5    9.05    3.02
  -2   9  -5   11.32    3.80
  -2   9  -6   73.52    9.52
   2  -9   6  106.66    9.34
   2  -9   6   90.55   10.18
  -2   9  -7   70.78    9.51
   2  -9   7   94.12   10.57
   2  -9   7   91.72    8.83
   2  -9   8    1.54    1.43
   2  -9   8    1.04    1.20
  -2   9  -8    0.78    0.11
  -2   9  -9   -0.42    0.95
   2  -9   9    1.74    1.31
   2  -9   9    1.84    1.29
  -2   9 -10   72.38   10.14
  -2   9 -10   73.29    7.77
   2  -9  10   94.60   10.37
   2  -9  10   87.62   10.92
  -2   9 -11   31.03    6.98
  -2   9 -11   34.07    5.70
   2  -9  11   35.70    6.67
   2  -9  11   30.45    6.52
   2  -9  12   13.54    4.40
  -2   9 -12   12.82    3.72
  -2   9 -12   12.81    4.88
   2  -9  12   13.37    4.33
  -2   9 -13    4.00    2.83
   2  -9  13    2.40    2.00
   2  -9  13    1.46    1.31
  -2   9 -13    1.89    2.83
   2  -9  14   99.31   12.34
   2  -9  14   91.14   12.47
  -2   9 -14   82.19    9.82
  -2   9 -14  105.97   13.77
   2  -9  15    0.49    0.84
   2  -9  15   -1.69    1.03
   2  -9  16   44.23    9.12
  -2   9 -16   32.08    8.66
  -2   8  11   27.83    8.45
  -2   8  11   24.17    7.31
  -2   8  10    9.42    4.19
  -2   8  10    8.67    4.72
  -2   8   9   -1.80    3.05
  -2   8   9    2.56    3.70
   2  -8  -9    1.24    2.99
  -2   8   8   42.51    8.55
  -2   8   8   44.78    8.28
   2  -8  -8   39.47    8.68
  -2   8   7    1.86    2.81
   2  -8  -7    2.12    0.83
  -2   8   7    3.91    2.99
   2  -8  -7    2.35    2.35
  -2   8   6   25.76    6.38
   2  -8  -6   30.05    5.36
   2  -8  -6   36.36    7.61
  -2   8   6   17.59    5.27
  -2   8   5  120.22   12.66
   2  -8  -5  122.53   10.84
   2  -8  -5   87.34   10.76
  -2   8   5   97.27   10.74
   2  -8  -4   29.14    5.31
  -2   8   4   24.96    5.60
   2  -8  -4   19.35    4.66
  -2   8   4   18.53    4.71
  -2   8   3  175.77   14.87
   2  -8  -3  163.71   12.40
   2  -8  -3  149.42   12.77
  -2   8   3  159.91   12.47
  -2   8   2    0.90    0.30
  -2   8   2    2.62    2.07
   2  -8  -2    0.84    1.50
   2  -8  -2    0.81    1.45
  -2   8   1  125.22    9.90
   2  -8  -1  109.94   10.21
  -2   8   1  135.21   12.33
  -2   8   0   26.16    4.32
   2  -8   0   24.16    4.95
  -2   8   0   21.53    4.98
   2  -8   0   21.59    4.36
   2  -8   1   10.49    3.06
  -2   8  -1   10.01    3.57
  -2   8  -1    3.29    1.96
   2  -8   2    2.15    1.50
  -2   8  -2    1.21    1.00
  -2   8  -3    4.77    2.40
   2  -8   3    0.29    0.15
  -2   8  -4  341.49   18.62
   2  -8   4  297.02   17.21
  -2   8  -5  177.46   13.66
   2  -8   5  225.09   14.93
  -2   8  -6   34.13    6.11
   2  -8   6   38.42    5.42
   2  -8   6   35.69    6.04
   2  -8   7   13.57    3.45
   2  -8   7   10.55    3.21
  -2   8  -7   14.76    4.12
  -2   8  -8  293.43   18.65
   2  -8   8  270.54   17.41
   2  -8   8  320.20   16.69
  -2   8  -9    8.09    3.49
   2  -8   9    5.40    2.60
   2  -8   9    2.32    1.49
   2  -8  10   97.51   10.32
  -2   8 -10  106.60   11.67
  -2   8 -10  113.22    9.86
   2  -8  10  115.83   12.01
   2  -8  11   17.12    4.57
  -2   8 -11   19.11    5.37
   2  -8  11   13.44    4.73
  -2   8 -11   15.61    4.40
  -2   8 -12    6.29    3.20
   2  -8  12    3.22    2.06
   2  -8  12    3.34    2.88
  -2   8 -12    0.70    1.34
   2  -8  13   17.98    5.28
  -2   8 -13   20.37    4.75
   2  -8  13   20.30    5.41
  -2   8 -13   22.29    6.20
  -2   8 -14   12.03    3.92
  -2   8 -14    1.27    0.86
   2  -8  14    7.11    2.79
   2  -8  14   13.17    4.92
  -2   8 -15    5.16    2.91
   2  -8  15    2.14    2.68
   2  -8  15    1.30    0.23
  -2   8 -15    2.15    3.23
   2  -8  16    3.33    3.90
  -2   8 -16    4.66    4.04
  -2   8 -16   -1.05    1.55
  -2   7  12    6.54    4.20
  -2   7  12    4.47    3.79
  -2   7  11    1.14    1.72
  -2   7  11    0.43    1.44
   2  -7 -10   16.90    5.55
  -2   7  10   23.04    6.46
  -2   7  10   21.56    5.87
  -2   7   9    9.20    3.76
   2  -7  -9   10.15    4.44
  -2   7   9   15.32    5.36
   2  -7  -8   20.18    3.99
  -2   7   8   22.22    5.58
   2  -7  -8   19.87    5.74
  -2   7   8   14.93    5.15
  -2   7   7   39.22    7.04
  -2   7   7   52.65    8.43
   2  -7  -7   47.65    8.32
   2  -7  -7   49.44    6.47
  -2   7   6  355.91   21.57
   2  -7  -6  333.37   16.92
   2  -7  -6  322.68   20.32
  -2   7   6  318.34   19.25
   2  -7  -5   33.29    5.15
  -2   7   5   22.78    5.50
   2  -7  -5   27.52    5.83
  -2   7   5   35.93    6.22
  -2   7   4   66.94    7.91
  -2   7   4   93.91   10.73
   2  -7  -4   74.79    7.80
   2  -7  -4   83.67    9.44
   2  -7  -3    1.25    1.26
   2  -7  -3   -2.44    1.81
  -2   7   3    0.98    0.20
  -2   7   3    1.16    1.91
  -2   7   2  282.08   17.31
   2  -7  -2  253.45   15.07
   2  -7  -2  233.29   13.72
  -2   7   2  233.57   13.11
   2  -7  -1   28.92    4.82
   2  -7  -1   21.98    4.34
  -2   7   1   31.83    5.38
  -2   7   1   24.56    4.05
  -2   7   0  102.33   10.25
   2  -7   0  101.80    9.20
   2  -7   0   78.75    7.77
  -2   7   0   92.69    7.60
  -2   7  -1   47.35    5.31
  -2   7  -1   62.67    7.71
   2  -7   1   72.57    7.84
   2  -7   2   32.22    5.63
  -2   7  -2   26.99    5.18
  -2   7  -3  107.90   10.10
   2  -7   3  149.79   11.54
  -2   7  -4   28.55    5.18
   2  -7   4   34.17    5.58
  -2   7  -5   83.22    8.77
   2  -7   5   72.09    8.17
   2  -7   5   69.80    6.52
  -2   7  -6    1.06    1.03
   2  -7   6    1.39    1.07
   2  -7   6    1.51    1.37
  -2   7  -7  378.72   19.63
   2  -7   7  380.02   19.30
   2  -7   8  340.25   16.92
  -2   7  -8  305.74   18.02
   2  -7   8  308.51   17.69
  -2   7  -9  187.69   14.34
  -2   7  -9  204.70   12.99
   2  -7   9  192.27   13.38
   2  -7   9  212.98   15.14
   2  -7  10  139.30   12.42
  -2   7 -10  131.57   10.82
   2  -7  10  133.41   11.71
  -2   7 -10  130.30   12.77
   2  -7  11    2.00    1.50
  -2   7 -11    7.05    2.52
   2  -7  11    4.38    2.74
  -2   7 -11    2.74    1.91
   2  -7  12   11.57    3.75
  -2   7 -12   14.86    4.98
   2  -7  12   13.02    3.71
  -2   7 -12   23.59    5.06
  -2   7 -13   15.68    4.96
   2  -7  13   11.11    3.76
  -2   7 -13   10.70    3.94
   2  -7  13   15.36    4.79
  -2   7 -14   38.97    7.20
   2  -7  14   40.45    8.07
   2  -7  14   35.57    7.07
  -2   7 -14   49.81    9.49
   2  -7  15   14.91    4.68
  -2   7 -15   11.26    4.54
  -2   7 -15   15.86    5.70
   2  -7  15   11.82    4.58
   2  -7  16   55.33   10.38
  -2   7 -16   50.31    9.67
  -2   7 -16   52.73    9.02
  -2   7 -17    5.18    2.45
  -2   7 -17    6.47    2.91
  -2   6  13    1.44    3.32
  -2   6  13    5.00    4.05
   2  -6 -12   27.82    7.16
  -2   6  12   17.81    5.86
  -2   6  12   26.99    7.52
  -2   6  11   12.24    5.19
   2  -6 -11    5.57    4.39
  -2   6  11    4.17    4.41
  -2   6  10    4.54    3.29
   2  -6 -10    6.48    3.98
  -2   6  10    0.97    0.73
   2  -6  -9   55.75    9.24
  -2   6   9   42.74    8.42
  -2   6   9   49.00    8.38
   2  -6  -8    1.74    1.38
  -2   6   8    8.21    4.42
   2  -6  -8    3.67    2.44
  -2   6   8    6.65    3.32
  -2   6   7  189.86   14.87
   2  -6  -7  179.78   11.45
   2  -6  -7  173.09   15.07
  -2   6   6  182.68   14.88
   2  -6  -6  170.25   14.35
   2  -6  -6  172.95   11.20
  -2   6   6  190.18   13.75
  -2   6   5   28.27    5.55
   2  -6  -5   18.93    4.90
   2  -6  -5   27.26    4.32
  -2   6   5   21.57    4.63
  -2   6   4   80.46    9.23
   2  -6  -4   74.22    7.06
  -2   6   4   65.20    7.29
   2  -6  -4   53.92    7.20
   2  -6  -3   83.57    7.53
  -2   6   3   82.30    8.94
  -2   6   3   74.94    7.31
   2  -6  -3   71.07    7.95
  -2   6   2    5.18    1.73
   2  -6  -2    7.13    2.14
   2  -6  -2    4.53    2.20
  -2   6   2    4.70    2.61
  -2   6   1   17.36    3.20
   2  -6  -1   16.21    3.45
  -2   6   1   18.03    4.07
   2  -6  -1   21.55    3.91
   2  -6  -1   18.40    3.18
  -2   6   0    6.39    2.07
   2  -6   0    5.53    1.58
  -2   6   0    3.95    2.10
   2  -6   0    3.54    1.60
   2  -6   0    5.09    1.73
   2  -6   1  482.24   18.58
   2  -6   1  481.16   14.79
   2  -6   2    9.69    2.92
  -2   6  -2    6.94    2.22
   2  -6   2   10.48    2.41
   2  -6   3    0.97    0.70
   2  -6   3    0.95    0.93
  -2   6  -3    0.42    0.96
   2  -6   4    2.31    1.29
  -2   6  -4    0.67    1.72
   2  -6   4    3.12    2.19
   2  -6   4    2.08    1.44
  -2   6  -5  313.32   16.19
   2  -6   5  335.38   16.44
   2  -6   5  356.10   13.79
  -2   6  -6  204.64   13.28
   2  -6   6  237.27   11.94
   2  -6   6  208.65   13.44
  -2   6  -7   46.85    6.56
   2  -6   7   52.21    6.25
   2  -6   7   46.31    6.48
   2  -6   8  346.99   16.55
  -2   6  -8  300.80   17.12
   2  -6   8  306.92   16.96
   2  -6   9    0.35    0.47
  -2   6  -9    0.11    0.75
   2  -6   9   -0.07    1.06
  -2   6  -9   -0.05    1.43
   2  -6  10   41.15    6.88
  -2   6 -10   44.51    7.01
   2  -6  10   42.49    6.32
  -2   6 -10   52.11    7.22
   2  -6  11   -0.20    0.61
   2  -6  11    1.66    1.34
  -2   6 -11    3.45    2.39
  -2   6 -12   10.44    3.32
   2  -6  12   13.88    4.07
   2  -6  12   10.91    3.65
  -2   6 -12    4.53    1.28
  -2   6 -13  100.26   11.10
  -2   6 -13  102.34   12.22
   2  -6  13  111.91   12.78
   2  -6  13  104.73   11.47
   2  -6  14    6.08    2.97
  -2   6 -14   11.07    3.90
   2  -6  14   13.99    4.46
  -2   6 -14    8.02    3.76
  -2   6 -15   29.62    6.67
   2  -6  15   27.08    7.64
  -2   6 -15   36.46    7.59
  -2   6 -16    1.31    1.34
  -2   6 -16   -0.54    1.29
  -2   6 -17   10.91    5.66
  -2   6 -17    7.48    4.29
  -2   5  13   58.49   10.75
  -2   5  13   50.16   10.64
  -2   5  12    4.30    4.37
   2  -5 -12    3.02    3.02
  -2   5  12    2.28    3.10
  -2   5  11    4.68    2.39
   2  -5 -11    4.33    2.70
  -2   5  11    4.76    2.79
  -2   5  10   22.46    6.42
   2  -5 -10   23.49    6.27
  -2   5  10   23.95    5.95
  -2   5   9   45.22    7.92
   2  -5  -9   32.70    7.09
  -2   5   9   32.80    6.69
   2  -5  -8   27.18    4.00
  -2   5   8   34.20    6.54
   2  -5  -8   28.35    5.98
  -2   5   8   25.81    5.32
  -2   5   7   61.98    8.84
   2  -5  -7   78.45    6.84
   2  -5  -7   63.89    8.94
  -2   5   7   64.86    8.36
  -2   5   6  205.43   15.30
  -2   5   6  169.43   12.36
   2  -5  -6  194.65   10.66
   2  -5  -6  167.87   13.48
  -2   5   5   33.20    6.08
   2  -5  -5   39.37    6.14
  -2   5   5   29.00    4.87
   2  -5  -5   31.87    4.08
   2  -5  -4  278.48   15.65
  -2   5   4  320.12   17.19
   2  -5  -4  307.42   13.30
  -2   5   4  263.71   13.38
  -2   5   3    3.69    1.62
  -2   5   3    8.60    3.19
   2  -5  -3    7.61    2.22
   2  -5  -3    5.18    2.21
  -2   5   2  477.81   19.84
   2  -5  -2  438.60   14.37
   2  -5  -2  413.18   17.22
   2  -5  -2  442.58   16.03
  -2   5   2  493.06   15.70
  -2   5   1  257.98   14.26
   2  -5  -1  230.53   12.36
   2  -5  -1  249.92   12.16
   2  -5  -1  249.48   10.06
  -2   5   1  262.77   10.44
  -2   5   0    1.17    0.84
   2  -5   0    1.17    1.47
  -2   5   0    2.92    1.65
   2  -5   0   -0.03    0.35
   2  -5   0    1.32    0.94
   2  -5   1  318.48   10.59
  -2   5  -1  286.44   14.34
   2  -5   1  322.13   14.01
   2  -5   2  103.09    8.06
  -2   5  -2   88.29    6.99
  -2   5  -2   91.46    8.20
   2  -5   2   98.85    5.94
  -2   5  -3   18.19    4.06
   2  -5   3   28.05    3.15
   2  -5   3   22.01    2.91
  -2   5  -4   19.90    3.76
   2  -5   4   17.15    2.88
   2  -5   4   19.98    3.81
  -2   5  -5   -0.46    0.64
   2  -5   5    0.59    1.20
   2  -5   5    1.40    1.40
   2  -5   6  141.59    8.97
  -2   5  -6  124.56    9.68
   2  -5   6  115.01    9.44
   2  -5   7  238.31   12.69
   2  -5   7  196.99   12.68
  -2   5  -7  206.70   13.00
   2  -5   8   89.24    8.95
  -2   5  -8  104.51    9.05
  -2   5  -8   89.75    9.10
   2  -5   8   96.88    8.83
  -2   5  -9   11.49    3.57
   2  -5   9   18.10    4.44
   2  -5   9   13.32    3.76
  -2   5  -9   12.28    3.67
   2  -5  10   37.64    6.04
  -2   5 -10   35.15    5.93
   2  -5  10   36.85    6.20
  -2   5 -10   36.58    6.10
   2  -5  11   -1.33    1.72
   2  -5  11    2.49    1.74
  -2   5 -11    0.70    0.55
  -2   5 -12   15.15    4.85
   2  -5  12   15.14    4.65
  -2   5 -12   17.39    4.99
   2  -5  12   14.16    4.31
  -2   5 -13   48.34    8.26
   2  -5  13   38.93    7.01
  -2   5 -13   52.12    8.59
   2  -5  13   38.35    7.04
   2  -5  14    6.73    2.82
  -2   5 -14   11.72    4.00
   2  -5  14   18.47    5.86
  -2   5 -14   16.12    4.69
  -2   5 -15   75.78   10.66
   2  -5  15   71.28   11.37
  -2   5 -15   57.19    9.57
   2  -5  16   -0.34    1.17
  -2   5 -16    6.40    4.24
  -2   5 -16    7.44    4.36
  -2   5 -17    7.08    4.14
  -2   5 -17   10.29    4.68
  -2   4  14   87.56   13.36
  -2   4  14   66.52   11.92
  -2   4  13  103.22   13.75
   2  -4 -13  100.71   13.74
  -2   4  13   82.48   12.55
   2  -4 -12    8.37    4.59
  -2   4  12    4.30    1.43
  -2   4  12    8.46    4.44
   2  -4 -11   77.09   11.05
  -2   4  11   65.05    9.82
  -2   4  11   56.22    9.48
  -2   4  10    6.00    3.27
   2  -4 -10    7.45    3.95
  -2   4  10    4.45    2.56
   2  -4  -9    7.78    2.10
  -2   4   9    7.48    3.64
   2  -4  -9    6.41    3.14
  -2   4   9    7.55    3.30
   2  -4  -8  107.33    7.21
  -2   4   8  121.23   12.18
  -2   4   8  104.04   10.48
   2  -4  -8   98.85   10.95
  -2   4   7  152.51   13.06
   2  -4  -7  131.35   11.95
   2  -4  -7  145.65    8.29
  -2   4   7  140.19   11.31
   2  -4  -6  134.11    7.84
  -2   4   6  135.49    8.26
  -2   4   6  153.32   12.62
  -2   4   6  129.88   10.29
   2  -4  -6  129.51   11.29
  -2   4   5  283.58   16.40
  -2   4   5  262.89   11.35
   2  -4  -5  259.88   14.98
   2  -4  -5  273.31   11.26
  -2   4   5  249.30   13.17
  -2   4   4  190.60    9.59
   2  -4  -4  190.69    9.35
   2  -4  -4  169.27   11.48
  -2   4   4  172.91    9.99
  -2   4   3    4.26    1.75
   2  -4  -3    3.10    1.21
  -2   4   3    0.66    0.88
   2  -4  -3    2.27    1.43
   2  -4  -3    2.26    1.23
  -2   4   3    3.35    1.47
  -2   4   2  827.66   24.55
  -2   4   2  817.25   20.01
   2  -4  -2  884.83   18.06
   2  -4  -2  788.77   19.44
  -2   4   2  829.75   17.84
   2  -4  -2  750.51   21.93
  -2   4   1    4.78    1.37
  -2   4   1    2.72    1.48
   2  -4  -1    6.50    1.78
   2  -4  -1    4.12    1.87
   2  -4  -1    4.20    1.18
  -2   4   1    2.45    1.14
  -2   4   0   69.84    6.71
  -2   4   0   76.95    6.42
  -2   4   0   85.24    6.75
  -2   4   0   92.68    4.82
   2  -4   0   91.52    6.81
   2  -4   0   86.28    4.57
   2  -4   1  599.46   17.65
  -2   4  -1  568.21   18.60
  -2   4  -1  625.35   17.94
  -2   4  -1  585.91   18.11
   2  -4   1  634.39   12.26
   2  -4   2   75.85    6.84
  -2   4  -2   80.86    7.02
   2  -4   2   82.61    6.74
   2  -4   2   79.42    4.59
   2  -4   3   39.17    4.88
  -2   4  -3   42.89    4.97
   2  -4   3   41.66    3.59
   2  -4   3   31.18    4.28
   2  -4   4   81.98    7.19
   2  -4   4   88.75    5.78
  -2   4  -4   75.33    6.75
  -2   4  -5 1074.47   26.19
   2  -4   5 1122.09   27.58
   2  -4   6  759.57   23.44
  -2   4  -6  804.68   23.32
   2  -4   7   35.98    5.34
   2  -4   7   38.09    4.97
  -2   4  -7   26.34    4.57
  -2   4  -8   87.87    8.65
   2  -4   8   73.90    7.88
  -2   4  -8   75.81    8.06
   2  -4   8   96.99    8.62
  -2   4  -9   22.10    4.44
  -2   4  -9   32.24    5.34
   2  -4   9   27.09    4.92
   2  -4   9   26.71    5.14
  -2   4 -10   46.14    6.80
   2  -4  10   40.82    6.39
   2  -4  10   52.17    7.31
  -2   4 -10   35.47    6.14
   2  -4  11  119.38   11.75
   2  -4  11  118.64   11.29
  -2   4 -11  120.88   11.61
  -2   4 -11   96.10   10.25
   2  -4  12   -0.02    0.20
  -2   4 -12   -0.21    0.81
   2  -4  12    4.53    3.50
  -2   4 -12    3.35    1.96
   2  -4  13    3.78    1.98
   2  -4  13    2.62    2.72
  -2   4 -13    5.16    2.30
  -2   4 -14   11.56    4.40
   2  -4  14    9.03    4.02
   2  -4  14   10.59    4.48
  -2   4 -14    3.66    2.41
  -2   4 -15   11.61    4.82
   2  -4  15    8.16    4.57
  -2   4 -15   17.49    5.20
  -2   4 -16   11.19    5.22
  -2   4 -16   18.43    5.64
   2  -4  16   24.62    6.63
  -2   4 -17    0.29    1.44
  -2   3  15    5.22    3.73
  -2   3  14  114.14   15.00
   2  -3 -14  130.20   15.51
  -2   3  14   92.54   13.42
  -2   3  13   48.71    9.50
   2  -3 -13   62.29   10.40
  -2   3  13   39.40    8.36
  -2   3  12   22.96    5.83
   2  -3 -12   20.45    6.16
  -2   3  12   15.81    5.44
  -2   3  11   11.36    4.13
   2  -3 -11   15.28    5.15
  -2   3  11   17.71    5.82
  -2   3  10  104.99   11.87
   2  -3 -10   76.30    9.94
  -2   3  10   93.10   11.09
   2  -3  -9   91.36    5.49
   2  -3  -9  101.12   11.10
  -2   3   9   81.48    9.90
  -2   3   8  242.81   16.38
   2  -3  -8  215.97    8.96
  -2   3   8  221.04   14.93
   2  -3  -8  244.59   16.33
   2  -3  -8  228.77    8.91
   2  -3  -7   11.21    1.94
  -2   3   7    4.13    1.99
   2  -3  -7   13.05    3.67
   2  -3  -7   10.78    2.07
  -2   3   7   13.76    3.53
   2  -3  -6    0.73    0.50
  -2   3   6   -0.90    0.68
   2  -3  -6   -0.35    0.76
  -2   3   6    0.74    0.75
  -2   3   5 1265.81   32.30
  -2   3   5 1211.84   21.14
   2  -3  -5 1038.61   28.78
   2  -3  -5 1152.97   20.20
  -2   3   5 1108.85   26.10
   2  -3  -4  153.90    8.44
  -2   3   4  160.60   11.25
  -2   3   4  148.14    7.36
   2  -3  -4  146.83   10.08
   2  -3  -4  155.03    7.47
  -2   3   4  144.69    8.42
  -2   3   3    1.02    0.70
   2  -3  -3    2.04    0.92
   2  -3  -3    0.89    1.01
  -2   3   3    0.72    0.21
   2  -3  -3    0.81    0.71
  -2   3   3    0.83    0.89
   2  -3  -2  125.34    8.48
  -2   3   2  119.09    8.72
   2  -3  -2  125.08    6.84
   2  -3  -2  140.16    6.17
  -2   3   2  137.45    7.50
  -2   3   2  148.20    6.49
   2  -3  -1  449.07   16.08
  -2   3   1  451.50   16.18
  -2   3   1  478.14   15.70
  -2   3   1  478.17   14.09
   2  -3  -1  446.06   15.16
  -2   3   1  467.58    9.67
   2  -3  -1  465.11    9.40
   2  -3  -1  453.29   13.34
  -2   3   0    4.47    1.40
   2  -3   0    2.88    1.43
  -2   3   0    1.38    0.91
  -2   3   0    0.16    0.59
   2  -3   0    1.23    0.82
  -2   3   0    2.59    0.63
   2  -3   0    2.29    0.53
   2  -3   1  286.50   12.14
  -2   3  -1  308.69   12.50
  -2   3  -1  288.95   11.82
  -2   3  -1  277.56   11.37
   2  -3   1  285.66    6.30
   2  -3   1  299.94   11.71
   2  -3   1  278.05    5.97
   2  -3   2  238.66   11.05
  -2   3  -2  218.94   10.44
  -2   3  -2  222.60   10.62
   2  -3   2  226.89    6.54
   2  -3   2  233.35   10.76
   2  -3   3  210.42   10.34
  -2   3  -3  203.49    9.92
   2  -3   3  203.10    7.42
  -2   3  -3  191.37   10.25
   2  -3   3  215.17   10.84
   2  -3   4  380.93   14.86
  -2   3  -4  426.30   14.59
   2  -3   4  411.73   14.81
  -2   3  -4  404.79   12.25
   2  -3   4  405.27   12.24
  -2   3  -5 2583.57   35.34
   2  -3   5 2576.62   38.69
  -2   3  -5 2664.24   37.65
   2  -3   5 2579.57   34.44
   2  -3   6  511.55   18.84
  -2   3  -6  510.72   17.34
   2  -3   7  166.96   11.21
  -2   3  -7  199.85   12.51
  -2   3  -7  174.06   10.88
   2  -3   7  198.60   11.54
  -2   3  -8  265.19   14.94
   2  -3   8  241.09   14.19
   2  -3   8  272.21   14.89
  -2   3  -8  217.49   13.04
  -2   3  -9  163.19   12.44
   2  -3   9  144.49   11.38
  -2   3  -9  151.66   11.23
   2  -3   9  165.82   12.26
  -2   3 -10  110.19   10.78
   2  -3  10  112.12   10.37
   2  -3  10  122.74   11.17
  -2   3 -10  107.31    9.83
   2  -3  11    4.47    2.32
   2  -3  11    3.75    2.47
  -2   3 -11    4.62    3.41
  -2   3 -11    3.43    2.52
   2  -3  12    0.34    0.91
   2  -3  12    1.17    0.96
  -2   3 -12    1.98    1.08
  -2   3 -13   71.84   10.36
   2  -3  13   77.22   10.58
  -2   3 -13   61.16    8.61
   2  -3  13   63.35    8.45
  -2   3 -14    2.96    3.15
   2  -3  14    2.15    2.46
   2  -3  14   -0.06    1.68
  -2   3 -14    0.74    1.53
  -2   3 -15    9.80    4.93
   2  -3  15    8.71    4.05
  -2   3 -15    8.77    3.51
  -2   3 -16    4.27    2.18
  -2   3 -16    2.43    1.70
   2  -3  16    0.48    1.57
  -2   2  15   23.63    7.28
   2  -2 -15   30.36    7.80
  -2   2  15   31.73    8.66
  -2   2  14   11.03    4.71
   2  -2 -14    8.30    4.80
  -2   2  14    4.65    3.71
  -2   2  13   25.01    7.07
   2  -2 -13   14.68    4.65
  -2   2  13   23.14    6.49
  -2   2  12   19.31    5.68
   2  -2 -12   16.80    4.81
  -2   2  12   11.50    5.14
  -2   2  11    3.20    2.24
  -2   2  11    0.85    1.85
  -2   2  10    1.64    1.79
   2  -2 -10    1.87    2.01
  -2   2  10   -2.16    1.95
  -2   2   9  320.05   19.13
   2  -2  -9  305.17   18.10
   2  -2  -9  258.89    6.94
  -2   2   9  283.05   17.24
  -2   2   8   78.60    9.15
   2  -2  -8   63.85    8.00
  -2   2   8   56.95    7.06
   2  -2  -8   65.49    3.86
   2  -2  -8   66.30    3.72
  -2   2   7    1.71    1.25
   2  -2  -7    0.94    0.61
   2  -2  -7    3.62    2.14
   2  -2  -7    1.89    0.80
  -2   2   7    3.14    2.29
  -2   2   6 1494.07   18.85
  -2   2   6 1605.31   36.76
   2  -2  -6 1576.55   34.88
   2  -2  -6 1528.81   18.72
  -2   2   5  105.89    8.99
  -2   2   5  115.53    5.41
   2  -2  -5  104.25    5.00
   2  -2  -5  110.39    8.77
   2  -2  -5  104.80    7.36
  -2   2   5  107.50    7.74
  -2   2   4  287.75   13.78
   2  -2  -4  277.69   10.62
  -2   2   4  280.51    8.57
   2  -2  -4  280.76   13.24
   2  -2  -4  280.69    8.39
  -2   2   4  282.63   11.01
   2  -2  -3    1.90    0.77
  -2   2   3    5.51    2.07
   2  -2  -3    5.69    2.00
  -2   2   3    3.40    1.24
   2  -2  -3    4.19    1.15
  -2   2   3    4.46    1.25
  -2   2   2  448.51   15.62
  -2   2   2  437.61   14.88
   2  -2  -2  431.77   14.69
   2  -2  -2  432.82    9.28
  -2   2   2  447.38    9.76
  -2   2   2  422.08   11.53
   2  -2  -2  415.33   11.18
   2  -2  -1  122.72    7.62
  -2   2   1  125.44    7.83
  -2   2   1  113.02    3.45
  -2   2   1  123.49    7.44
   2  -2  -1  116.95    7.34
  -2   2   1  111.66    6.21
   2  -2  -1  104.81    3.26
   2  -2  -1  119.20    6.27
   2  -2   0  531.80   15.34
  -2   2   0  584.09   15.95
  -2   2   0  554.61   14.60
  -2   2   0  573.41   15.79
   2  -2   0  574.16   14.59
   2  -2   1  354.46   12.09
  -2   2  -1  390.27   12.77
   2  -2   1  378.78   12.19
  -2   2  -1  380.97   12.38
   2  -2   2 2989.39   37.07
   2  -2   2 2814.23   33.10
  -2   2  -2 2936.09   34.00
   2  -2   2 2847.56   22.62
  -2   2  -2 2928.01   37.00
  -2   2  -2 2839.67   22.95
   2  -2   3  149.28    8.88
  -2   2  -3  146.60    7.52
   2  -2   3  154.61    7.94
   2  -2   3  136.17    6.19
  -2   2  -3  149.58    6.59
  -2   2  -3  138.78    8.49
  -2   2  -4  694.13   16.69
   2  -2   4  730.07   20.15
   2  -2   4  703.38   17.54
  -2   2  -4  706.52   17.14
   2  -2   4  703.65   16.39
  -2   2  -4  736.56   20.43
   2  -2   5  602.64   17.05
   2  -2   5  611.79   16.85
   2  -2   5  553.63   18.43
  -2   2  -5  621.65   16.78
  -2   2  -5  617.62   17.56
   2  -2   6  147.00    8.94
   2  -2   6  139.07    9.80
  -2   2  -6  159.83   10.74
   2  -2   6  160.04    9.66
  -2   2  -6  159.20    9.32
   2  -2   7   78.54    7.78
  -2   2  -7   93.21    8.69
   2  -2   7   98.25    8.37
  -2   2  -7   90.04    7.41
  -2   2  -8  229.56   14.34
   2  -2   8  205.06   12.89
   2  -2   8  235.65   13.97
  -2   2  -8  203.40   11.88
  -2   2  -9   47.16    6.85
  -2   2  -9   43.83    6.09
   2  -2   9   37.87    5.81
   2  -2   9   54.19    7.17
  -2   2 -10  447.79   22.16
   2  -2  10  469.25   22.44
   2  -2  10  387.41   19.18
  -2   2 -10  402.89   18.37
  -2   2 -11    7.18    3.14
   2  -2  11    4.55    3.05
   2  -2  11    1.64    1.46
  -2   2 -11    3.66    1.70
  -2   2 -12   93.52   11.35
  -2   2 -12   80.56    9.03
   2  -2  12  103.07   11.71
   2  -2  12   72.60    8.99
  -2   2 -13    0.74    1.86
   2  -2  13    5.44    3.23
   2  -2  13    1.81    1.74
  -2   2 -13   -3.37    2.59
  -2   2 -14    5.66    3.02
  -2   2 -14    2.78    2.53
   2  -2  14    9.46    4.00
   2  -2  14   10.70    4.99
  -2   2 -15   31.13    6.18
  -2   2 -15   46.24    9.48
   2  -2  15   52.89    9.47
  -2   2 -16   23.69    7.92
   2  -2  16   11.60    6.15
  -2   1  15    5.16    3.90
   2  -1 -15    3.30    3.15
  -2   1  15    5.91    4.94
  -2   1  14   -1.76    1.82
   2  -1 -14    0.98    2.74
  -2   1  14   -0.62    1.97
  -2   1  13   51.14    9.53
   2  -1 -13   60.14    9.68
   2  -1 -12    0.66    1.63
  -2   1  12    2.23    1.21
   2  -1 -11   30.13    6.28
  -2   1  11   46.61    7.73
   2  -1 -10  605.49   25.72
  -2   1  10  561.89   25.68
   2  -1  -9 1042.39   31.99
  -2   1   9  962.74   31.55
   2  -1  -8   10.10    3.21
  -2   1   8    9.95    3.05
   2  -1  -7    4.78    2.24
  -2   1   7    2.14    1.56
   2  -1  -6  177.32   11.05
  -2   1   6  165.87   10.15
   2  -1  -6  147.28    3.84
  -2   1   5  302.04    6.51
  -2   1   5  339.80   13.01
   2  -1  -5  325.92   14.10
   2  -1  -5  312.30   12.32
   2  -1  -5  298.18    6.43
   2  -1  -4  277.68   12.18
  -2   1   4  272.89    6.92
  -2   1   4  288.63   10.58
   2  -1  -4  282.29   10.11
   2  -1  -4  269.33    6.82
   2  -1  -3  431.73    9.49
  -2   1   3  463.50   15.55
  -2   1   3  450.29   11.23
  -2   1   3  446.50   14.71
   2  -1  -3  444.22   14.50
  -2   1   3  461.33    9.98
   2  -1  -3  427.77   10.70
  -2   1   3  461.53   15.13
   2  -1  -2   33.33    2.90
  -2   1   2   31.38    3.65
   2  -1  -2   31.85    3.75
  -2   1   2   34.39    3.94
   2  -1  -2   30.64    2.27
  -2   1   2   31.16    2.80
  -2   1   2   32.12    2.39
   2  -1  -1 2112.71   28.27
  -2   1   1 2117.11   28.66
   2  -1  -1 2133.99   25.48
  -2   1   1 2107.82   29.37
   2  -1   0   17.06    2.29
  -2   1   0   20.26    2.66
   2  -1   0   16.93    2.56
  -2   1   0   21.37    2.96
  -2   1  -1   18.41    2.91
   2  -1   1   18.24    2.39
  -2   1  -1   20.96    2.59
   2  -1   1   21.31    3.02
  -2   1  -1   21.21    1.65
   2  -1   1   22.84    1.71
   2  -1   2  213.91    7.81
  -2   1  -2  222.23    8.00
   2  -1   2  214.37    9.78
  -2   1  -2  209.20    6.91
   2  -1   2  204.35    6.80
  -2   1  -3    0.12    0.71
   2  -1   3   -0.26    0.91
   2  -1   3    4.27    1.29
  -2   1  -3    3.38    1.00
  -2   1  -3    5.47    1.45
   2  -1   3    2.08    0.85
   2  -1   4  172.46   10.10
  -2   1  -4  159.25    8.46
  -2   1  -4  170.89    7.40
  -2   1  -4  157.70    9.50
   2  -1   4  180.86    7.83
   2  -1   4  159.96    8.25
   2  -1   5  654.68   15.84
  -2   1  -5  688.81   16.50
   2  -1   5  603.13   19.85
  -2   1  -5  626.93   18.71
   2  -1   5  691.32   19.10
  -2   1  -6   16.80    3.73
   2  -1   6    8.21    2.73
   2  -1   6   16.46    2.81
   2  -1   6   10.62    2.69
  -2   1  -6   10.48    2.28
   2  -1   7  189.17   10.01
  -2   1  -7  199.44   12.99
  -2   1  -7  225.12   11.01
   2  -1   7  192.44   12.12
   2  -1   7  171.63   11.46
   2  -1   8   66.76    7.25
  -2   1  -8   59.97    6.16
   2  -1   8   66.66    7.77
  -2   1  -8   71.07    8.32
  -2   1  -9  826.73   29.28
  -2   1  -9  726.60   22.50
   2  -1   9  790.80   28.64
   2  -1   9  758.14   25.91
  -2   1 -10  249.93   17.28
  -2   1 -10  213.05   12.95
   2  -1  10  257.67   17.22
   2  -1  10  216.78   14.44
   2  -1  11   92.10    9.64
  -2   1 -11  101.81   11.65
  -2   1 -11   83.40    8.57
   2  -1  11  107.61   11.76
  -2   1 -12    1.03    1.83
  -2   1 -12   -1.78    0.68
   2  -1  12    0.12    0.46
   2  -1  12   -1.65    2.44
  -2   1 -13   16.37    4.92
   2  -1  13   10.52    3.55
  -2   1 -13    8.02    4.56
   2  -1  13   12.23    4.80
  -2   1 -14    2.36    2.07
  -2   1 -14    8.23    3.82
   2  -1  14    5.92    3.87
  -2   1 -15   -1.54    0.84
   2  -1  15    3.26    3.38
   2   0 -16   11.77    5.54
  -2   0  16    6.74    3.76
   2   0 -15    0.71    3.21
  -2   0  15    0.47    1.68
   2   0 -14    5.85    3.98
  -2   0  14    4.95    4.13
   2   0 -13   61.98    9.14
  -2   0  13   67.89   10.49
   2   0 -12   53.00    8.05
  -2   0  12   58.22    9.12
   2   0 -11    5.02    2.12
  -2   0  11    5.31    3.22
  -2   0  10   78.09    9.33
   2   0 -10  105.71   10.15
   2   0  -9  113.41   10.79
   2   0  -9  121.45   10.29
  -2   0   9  106.86   10.18
   2   0  -8   21.94    4.58
   2   0  -8   24.39    4.43
  -2   0   8   17.36    3.88
   2   0  -7   54.35    6.28
   2   0  -7   65.44    7.30
  -2   0   6  421.89   15.81
   2   0  -6  431.17   17.55
   2   0  -5  379.24   13.19
  -2   0   5  388.73   13.79
   2   0  -5  369.81   13.92
   2   0  -5  402.00   15.79
  -2   0   4    0.53    0.36
   2   0  -4    1.67    1.18
   2   0  -4    0.87    0.45
  -2   0   4    0.85    0.86
   2   0  -4    0.42    0.41
  -2   0   4    1.13    1.07
  -2   0   4    2.23    1.44
  -2   0   3 1813.97   28.51
   2   0  -3 1781.85   27.38
   2   0  -3 1844.88   18.75
  -2   0   3 1801.80   22.77
  -2   0   3 1822.85   27.71
  -2   0   3 1828.36   18.67
  -2   0   2 2106.10   23.22
  -2   0   2 2211.63   28.58
   2   0  -2 2082.14   22.78
  -2   0   2 2164.77   20.89
  -2   0   2 2157.39   28.07
  -2   0   1 5419.76   40.34
  -2   0   1 5298.54   40.42
  -2   0   1 5409.64   43.53
  -2   0   1 5302.73   39.05
  -2   0   1 5422.78   29.07
  -2   0   0  855.41   14.47
  -2   0   0  833.53   17.40
   2   0   0  858.44   17.51
  -2   0   0  846.39   11.93
   2   0   0  861.46   11.85
   2   0   1   21.17    2.06
  -2   0  -1   22.32    2.11
  -2   0  -1   23.79    3.40
   2   0   1   25.01    2.42
  -2   0  -1   23.47    2.37
   2   0   1   26.19    3.23
  -2   0  -2  137.45    4.84
   2   0   2  143.22    5.07
  -2   0  -2  131.11    7.76
   2   0   2  128.11    7.74
  -2   0  -2  144.96    6.76
   2   0   2  139.38    6.46
   2   0   3  223.61    6.75
  -2   0  -3  221.75    6.62
  -2   0  -3  219.94   10.73
  -2   0  -3  206.01    9.10
   2   0   3  223.41   11.00
   2   0   3  213.31    9.11
   2   0   4    4.33    1.55
   2   0   4    5.19    1.21
  -2   0  -4    6.85    2.18
  -2   0  -4    6.07    1.17
   2   0   4    7.84    1.94
   2   0   5    4.01    1.32
   2   0   5    9.94    2.79
  -2   0  -5    5.01    1.73
   2   0   5    4.40    1.75
  -2   0  -5    8.54    1.68
  -2   0  -6  293.98   15.31
  -2   0  -6  424.21   12.81
   2   0   6  340.17   15.61
   2   0   6  383.98   16.24
   2   0   6  364.92   12.03
  -2   0  -7   38.22    6.09
   2   0   7   37.12    4.17
  -2   0  -7   38.61    4.19
   2   0   7   33.06    5.41
   2   0   7   28.08    4.85
   2   0   8  115.75    9.80
   2   0   8  123.60   10.78
  -2   0  -8  144.61   11.96
  -2   0  -8  122.85    8.39
  -2   0  -9   -0.42    0.34
   2   0   9   -0.60    1.44
   2   0  10   98.82    9.97
   2   0  10  121.30   12.09
  -2   0 -10  112.49    9.40
  -2   0 -10  128.21   12.63
  -2   0 -11  259.94   19.14
   2   0  11  230.32   15.66
   2   0  11  264.69   18.88
  -2   0 -11  216.79   14.10
  -2   0 -12   20.40    4.50
  -2   0 -12   29.84    6.79
   2   0  12   22.97    5.13
   2   0  12   32.76    7.01
  -2   0 -13   39.54    6.77
   2   0  13   33.13    6.28
  -2   0 -13   40.90    8.42
   2   0  13   38.59    8.21
  -2   0 -14   16.95    5.71
   2   0  14   16.13    5.71
  -2   0 -15   92.72   13.34
   2   0  15   94.07   13.88
   2   1 -16    5.26    3.80
  -2  -1  16    0.79    0.27
   2   1 -15   14.88    4.32
  -2  -1  15   13.69    5.65
   2   1 -14    3.01    2.11
  -2  -1  14    5.35    3.59
   2   1 -13  110.17   11.73
   2   1 -13   92.68   12.19
  -2  -1  13   79.80   10.98
   2   1 -12   16.77    4.86
   2   1 -12   17.37    4.92
  -2  -1  12    9.20    3.92
   2   1 -11    1.77    0.55
   2   1 -11    1.87    2.07
  -2  -1  11    2.87    2.40
   2   1 -10    1.68    1.95
   2   1 -10    2.05    2.04
  -2  -1  10    0.93    1.67
   2   1  -9    0.72    0.74
   2   1  -9    0.67    0.25
  -2  -1   9    0.23    1.31
   2   1  -8  343.30   15.47
  -2  -1   8  310.70   15.99
   2   1  -8  339.93   17.79
   2   1  -7   23.26    4.18
   2   1  -7   19.45    3.49
  -2  -1   7   18.45    3.64
   2   1  -6   10.28    2.63
   2   1  -6    9.56    2.42
  -2  -1   6    8.37    2.34
   2   1  -5 2188.21   31.55
  -2  -1   5 2173.91   31.99
  -2  -1   5 2228.19   33.15
  -2  -1   4  214.38    5.83
  -2  -1   4  217.61    5.97
  -2  -1   4  217.59    9.46
  -2  -1   4  219.97   10.29
  -2  -1   4  228.16    9.58
   2   1  -4  225.35   10.54
   2   1  -4  203.97    8.87
  -2  -1   3   16.38    2.28
   2   1  -3   17.07    1.99
  -2  -1   3   15.69    2.05
  -2  -1   3   17.03    2.53
   2   1  -3   16.05    2.36
  -2  -1   3   17.23    2.77
   2   1  -3   18.04    2.75
   2   1  -2  688.87   13.73
  -2  -1   2  645.12   14.48
  -2  -1   2  685.23   14.64
   2   1  -2  678.35   14.76
  -2  -1   2  693.73   13.92
   2   1  -1   51.23    4.19
  -2  -1   1   55.82    4.44
  -2  -1   1   57.32    3.63
  -2  -1   1   53.52    3.75
   2   1  -1   54.71    3.75
  -2  -1   0  387.02    7.95
  -2  -1   0  376.48    7.52
  -2  -1   0  364.88   10.17
   2   1   0  381.94   10.20
   2   1   0  392.34   12.27
  -2  -1  -1   19.48    3.15
  -2  -1  -1   23.27    2.95
   2   1   1   29.28    3.06
   2   1   1   22.88    3.42
  -2  -1  -2   47.09    5.15
   2   1   2   51.46    4.48
  -2  -1  -2   48.06    4.61
   2   1   2   41.11    4.88
  -2  -1  -3   88.78    7.08
   2   1   3   74.88    6.04
  -2  -1  -3   78.20    6.96
  -2  -1  -3   77.15    6.33
  -2  -1  -3   68.85    2.74
   2   1   3   84.54    6.82
   2   1   4   58.99    6.32
   2   1   4   64.15    3.47
  -2  -1  -4   57.85    6.18
  -2  -1  -4   67.45    3.53
   2   1   4   64.15    6.17
   2   1   5  414.27   16.95
   2   1   5  433.28   10.90
  -2  -1  -5  395.99   17.32
   2   1   5  406.10   16.40
  -2  -1  -5  459.13   11.18
  -2  -1  -6   -0.77    0.76
  -2  -1  -6    1.43    1.38
   2   1   6    0.79    1.17
   2   1   6    0.01    0.68
   2   1   6   -1.27    0.22
  -2  -1  -7    1.41    1.06
  -2  -1  -7    2.43    1.39
   2   1   7    0.26    0.79
   2   1   7    0.98    1.27
   2   1   7    0.93    0.91
  -2  -1  -8  254.71   16.61
   2   1   8  240.60   14.84
  -2  -1  -8  267.16   12.11
  -2  -1  -9    9.46    2.72
  -2  -1  -9    5.76    2.44
   2   1   9    5.75    2.53
   2   1   9    3.40    1.59
  -2  -1 -10  317.05   20.58
   2   1  10  322.61   20.33
  -2  -1 -10  306.47   15.41
   2   1  10  307.40   17.91
   2   1  11   66.23    8.69
  -2  -1 -11   86.97   11.51
   2   1  11   64.91    9.63
  -2  -1 -12   54.20    7.79
  -2  -1 -12   51.77    9.07
   2   1  12   66.94   10.55
  -2  -1 -13    8.27    3.53
  -2  -1 -13    8.09    4.11
   2   1  13    6.20    4.22
  -2  -1 -14    8.57    4.15
   2   1  14   10.46    4.91
   2   2 -17   20.02    6.75
   2   2 -16    0.68    2.68
  -2  -2  16    7.32    4.38
   2   2 -15    9.78    4.70
   2   2 -15    2.81    1.91
  -2  -2  15    8.32    4.57
   2   2 -14   79.55    9.84
   2   2 -14   69.31   10.57
  -2  -2  14   47.38    9.47
   2   2 -13    3.92    2.70
   2   2 -13    4.11    2.39
  -2  -2  13    3.61    3.53
   2   2 -12   50.74    7.26
  -2  -2  12   38.34    7.31
   2   2 -11   43.18    7.47
   2   2 -11   45.97    6.48
  -2  -2  11   44.10    7.32
   2   2 -10   86.24    8.35
  -2  -2  10   80.37    9.26
   2   2 -10   89.45    9.81
   2   2  -9   71.94    7.07
  -2  -2   9   64.78    7.80
   2   2  -9   69.91    8.37
   2   2  -8  118.37   10.37
   2   2  -8  128.95    8.89
  -2  -2   8  113.50    9.58
   2   2  -7  507.14   16.32
   2   2  -7  528.32   20.23
  -2  -2   6  680.63   17.88
  -2  -2   6  680.83    9.14
   2   2  -6  708.09   17.72
  -2  -2   6  694.95    9.32
  -2  -2   6  673.11   20.29
  -2  -2   5  345.53    7.91
  -2  -2   5  321.52   11.39
   2   2  -5  336.09   11.21
  -2  -2   5  350.08   13.56
   2   2  -5  322.23   13.60
  -2  -2   5  345.90    8.17
  -2  -2   4  480.50   10.81
  -2  -2   4  457.27   12.33
   2   2  -4  452.06   12.25
  -2  -2   4  461.98   14.34
   2   2  -4  475.36   14.90
  -2  -2   4  469.76   15.28
  -2  -2   4  471.97   10.82
  -2  -2   3  330.88    9.80
  -2  -2   3  333.08    9.89
  -2  -2   3  314.27   11.72
   2   2  -3  341.34   11.37
  -2  -2   3  331.12    9.99
   2   2  -2  280.32    9.01
  -2  -2   2  263.81    9.78
  -2  -2   2  273.46    9.42
  -2  -2   2  279.13    8.76
  -2  -2   2  282.81   10.34
  -2  -2   1    1.59    0.83
   2   2  -1    2.77    1.21
   2   2  -1    1.44    0.81
  -2  -2   1    3.22    0.87
  -2  -2   1    5.14    1.43
   2   2  -1    1.71    0.66
  -2  -2   0  787.80    9.83
   2   2   0  784.29    9.70
  -2  -2   0  788.24   17.68
  -2  -2   0  828.94   19.56
   2   2   0  783.10   17.63
   2   2   1 1658.85   29.49
  -2  -2  -1 1649.45   27.01
  -2  -2  -1 1641.53   29.30
   2   2   1 1667.90   26.94
   2   2   2   10.20    2.42
  -2  -2  -2   15.21    2.92
   2   2   2   13.23    2.94
  -2  -2  -2    9.61    2.42
   2   2   3   53.08    5.75
   2   2   3   41.81    5.30
  -2  -2  -3   53.25    5.78
   2   2   4  302.30    7.11
  -2  -2  -4  291.18   14.19
   2   2   4  299.09   14.27
   2   2   4  299.47    7.07
   2   2   4  289.10   14.16
   2   2   5    9.75    1.61
  -2  -2  -5    3.25    1.83
   2   2   5    6.62    2.28
   2   2   5    6.88    1.47
   2   2   5   12.03    3.52
   2   2   6  121.64    9.95
   2   2   6  117.46    6.77
  -2  -2  -6  114.46   10.21
  -2  -2  -7   30.35    5.58
   2   2   7   24.38    4.58
   2   2   7   19.42    3.09
   2   2   7   25.59    5.02
  -2  -2  -8   88.88   10.14
   2   2   8   87.85    9.06
   2   2   8   94.12   10.29
  -2  -2  -9   39.66    7.13
   2   2   9   59.63    8.60
  -2  -2 -10  166.51   12.98
   2   2  10  158.03   14.81
   2   2  11   12.29    3.35
  -2  -2 -11   15.86    4.38
  -2  -2 -11    3.41    3.04
   2   2  11   12.95    4.30
  -2  -2 -12    7.37    3.48
  -2  -2 -12   14.21    4.13
   2   2  12   14.38    5.13
  -2  -2 -13   56.04    8.29
  -2  -2 -13   40.88    9.19
   2   2  13   61.90   11.12
  -2  -2 -14    4.31    4.62
   2   2  14   -2.66    2.14
   2   3 -17    8.35    4.69
   2   3 -16    1.56    2.45
   2   3 -16    1.79    1.48
  -2  -3  16    4.44    3.54
   2   3 -15    5.73    3.30
   2   3 -15    9.10    4.16
  -2  -3  15   11.85    4.56
   2   3 -14  121.62   11.89
  -2  -3  14  114.74   13.96
   2   3 -14   89.39   11.93
   2   3 -13  125.68   11.65
   2   3 -13  126.68   14.25
  -2  -3  13  112.33   12.95
   2   3 -12   20.22    5.50
   2   3 -12   12.59    3.33
  -2  -3  12   11.32    3.83
   2   3 -11    1.85    1.56
   2   3 -11    2.76    1.53
  -2  -3  11   -0.71    0.16
  -2  -3  10   41.85    6.85
   2   3 -10   49.13    5.99
   2   3 -10   37.24    6.25
  -2  -3   9   48.78    6.88
   2   3  -9   59.55    7.63
   2   3  -9   45.79    5.32
  -2  -3   8   43.98    2.48
   2   3  -8   50.64    6.68
   2   3  -8   51.59    5.25
  -2  -3   8   42.64    6.04
  -2  -3   8   46.63    2.55
  -2  -3   7  167.74    5.86
   2   3  -7  154.08    8.30
  -2  -3   7  157.74    5.73
  -2  -3   7  151.09   10.56
   2   3  -7  182.06   11.57
  -2  -3   7  165.73    8.95
  -2  -3   6  350.24    9.38
  -2  -3   6  348.45    9.38
   2   3  -6  332.55   11.12
  -2  -3   6  335.71   11.60
   2   3  -6  348.61   15.04
  -2  -3   5  248.52    8.53
  -2  -3   5  249.36    8.88
  -2  -3   5  239.39    8.50
   2   3  -5  231.96   11.34
   2   3  -5  251.01    8.83
  -2  -3   5  223.57   11.28
  -2  -3   4  133.82    6.87
  -2  -3   4  122.35    6.61
  -2  -3   4  131.91    5.84
   2   3  -4  122.65    7.52
  -2  -3   4  129.04    8.00
  -2  -3   3   45.85    4.25
  -2  -3   3   36.36    3.81
  -2  -3   3   39.68    3.04
  -2  -3   3   37.18    3.89
   2   3  -3   39.58    3.93
  -2  -3   3   42.46    4.63
  -2  -3   2   21.03    3.14
  -2  -3   2   21.83    3.06
  -2  -3   2   19.33    2.56
   2   3  -2   20.06    2.47
  -2  -3   2   20.34    3.06
  -2  -3   1  638.01   17.46
  -2  -3   1  597.27   17.98
  -2  -3   1  644.61   12.14
   2   3  -1  643.69   11.85
  -2  -3   1  664.55   18.11
   2   3  -1  649.04   17.62
   2   3   0   92.37    3.59
  -2  -3   0  100.43    7.37
  -2  -3   0   82.80    7.10
  -2  -3   0   97.53    7.12
  -2  -3   0  102.70    4.00
   2   3   0   90.23    6.81
  -2  -3  -1   28.05    3.56
  -2  -3  -1   22.22    3.80
  -2  -3  -1   19.94    3.45
   2   3   1   25.55    3.88
   2   3   2    2.61    1.37
  -2  -3  -2    2.50    1.32
   2   3   3   12.69    1.29
  -2  -3  -3   16.38    3.17
   2   3   3   17.81    3.92
   2   3   4   30.24    2.45
  -2  -3  -4   25.80    4.49
   2   3   4   34.77    2.51
   2   3   4   24.99    4.33
  -2  -3  -5    2.19    1.95
   2   3   5    0.63    0.14
  -2  -3  -5    1.10    1.75
   2   3   5    0.34    0.69
   2   3   5    1.36    1.45
  -2  -3  -6   21.49    4.73
   2   3   6   21.36    2.82
  -2  -3  -6   15.97    4.06
   2   3   6   20.62    2.71
   2   3   6   20.82    4.54
  -2  -3  -7   74.16    8.14
   2   3   7   73.34    5.71
  -2  -3  -7   58.21    8.14
   2   3   7   61.12    5.75
   2   3   7   65.05    8.41
  -2  -3  -8  114.31   10.55
   2   3   8  123.89    8.27
  -2  -3  -8  108.17   11.68
   2   3   8  131.02   12.50
   2   3   9   10.83    2.77
  -2  -3  -9    6.90    3.12
  -2  -3  -9   10.31    4.34
   2   3   9    6.87    3.94
  -2  -3 -10   34.11    6.33
   2   3  10   31.21    4.71
  -2  -3 -10   25.82    6.28
   2   3  10   45.61    8.19
  -2  -3 -11   -0.40    1.42
  -2  -3 -11    0.90    1.54
   2   3  11    3.32    3.04
  -2  -3 -12  116.73   12.10
  -2  -3 -12  108.37   14.17
   2   3  12  115.72   14.04
  -2  -3 -13   34.09    8.30
   2   3  13   49.06    9.42
   2   4 -17   66.36   10.50
   2   4 -16   45.72    9.22
   2   4 -16   66.83   10.11
  -2  -4  16   67.75   11.83
   2   4 -15   13.93    5.41
   2   4 -15   18.80    4.96
  -2  -4  15    9.27    4.70
   2   4 -14   15.09    4.91
   2   4 -14   12.98    4.00
  -2  -4  14    6.34    3.55
   2   4 -13  145.00   11.75
  -2  -4  13  105.46   12.54
   2   4 -13  126.37   13.69
   2   4 -12   11.55    3.36
  -2  -4  12   10.32    3.91
   2   4 -12    8.97    3.47
   2   4 -11   53.10    8.41
   2   4 -11   44.36    5.71
  -2  -4  10   17.60    1.84
  -2  -4  10   14.72    1.62
   2   4 -10   19.39    3.64
  -2  -4  10   13.71    3.76
   2   4 -10   22.22    4.80
   2   4  -9    2.56    1.52
  -2  -4   9    1.26    0.54
  -2  -4   9    1.90    1.74
   2   4  -9    2.85    1.84
  -2  -4   8    7.58    2.00
  -2  -4   8    9.84    1.80
   2   4  -8    8.06    1.58
   2   4  -8    7.30    2.08
  -2  -4   8    6.95    2.69
   2   4  -8   13.08    3.77
   2   4  -7   16.12    2.34
  -2  -4   7   15.95    2.64
  -2  -4   7   19.53    2.58
   2   4  -7   14.24    2.34
  -2  -4   7   11.78    3.08
   2   4  -7   17.43    3.84
   2   4  -6   45.18    4.10
  -2  -4   6   46.31    4.17
  -2  -4   6   45.32    3.71
   2   4  -6   39.47    3.38
  -2  -4   6   29.25    4.71
   2   4  -6   41.87    5.29
  -2  -4   5    5.08    1.08
   2   4  -5    2.42    0.89
  -2  -4   5    4.24    1.48
   2   4  -5    1.82    1.01
  -2  -4   4   91.06    6.51
  -2  -4   4   89.89    4.11
  -2  -4   4   82.32    6.65
   2   4  -4   87.19    6.65
  -2  -4   3  356.94   13.30
   2   4  -3  350.32   12.19
  -2  -4   3  346.75   12.57
  -2  -4   3  359.29    8.25
  -2  -4   3  334.55   12.82
  -2  -4   2  111.71    7.94
   2   4  -2  106.59    6.10
  -2  -4   2   99.63    6.03
  -2  -4   2  127.42    8.26
   2   4  -2  109.54    7.81
  -2  -4   1 4260.10   36.44
  -2  -4   1 4260.71   34.88
   2   4  -1 4235.84   33.65
   2   4  -1 4343.81   50.05
  -2  -4   0   86.50    7.58
  -2  -4   0  103.98    4.91
  -2  -4   0  106.18    6.47
   2   4   0   96.90    4.43
   2   4   0   98.30    7.78
  -2  -4  -1  298.61   14.25
  -2  -4  -1  339.13    7.81
   2   4   1  320.72    7.13
  -2  -4  -1  362.65   13.27
   2   4   1  367.19   16.03
  -2  -4  -2  415.54   17.38
  -2  -4  -2  354.33   14.46
   2   4   2  366.36    7.47
   2   4   2  408.85   17.88
  -2  -4  -3   26.34    4.42
  -2  -4  -3   26.82    4.29
   2   4   3   29.14    2.40
   2   4   3   23.64    2.09
   2   4   3   30.31    5.00
   2   4   4   23.99    2.49
  -2  -4  -4   19.53    3.95
  -2  -4  -4   22.70    4.31
   2   4   4   25.34    2.35
   2   4   4   26.34    4.98
  -2  -4  -5   52.79    6.88
   2   4   5   45.56    3.86
  -2  -4  -5   45.55    6.44
   2   4   5   50.13    3.80
   2   4   5   58.87    7.56
  -2  -4  -6    1.05    1.71
  -2  -4  -6   -0.01    0.80
   2   4   6    1.60    1.05
   2   4   6    0.59    0.77
   2   4   6    2.10    2.22
  -2  -4  -7  210.32   14.54
   2   4   7  208.52   10.23
   2   4   7  202.10   15.97
  -2  -4  -7  192.21   14.89
  -2  -4  -8   40.32    6.83
   2   4   8   55.58    5.72
   2   4   8   46.21    7.81
  -2  -4  -8   43.27    7.58
  -2  -4  -9   29.80    6.43
  -2  -4  -9   32.46    6.28
   2   4   9   37.46    7.47
  -2  -4 -10    1.01    2.27
  -2  -4 -10   -0.24    1.36
  -2  -4 -11   40.27    7.43
   2   4  11   23.63    7.29
  -2  -4 -11   22.76    6.28
  -2  -4 -12    8.73    3.83
  -2  -4 -12   16.27    6.41
   2   4  12   20.49    7.17
   2   5 -16   10.23    5.08
   2   5 -16    2.59    1.24
  -2  -5  16    6.85    4.28
   2   5 -15    3.56    3.88
   2   5 -15    7.48    2.65
  -2  -5  15    3.66    3.31
  -2  -5  14  194.65   18.23
   2   5 -14  214.83   14.72
   2   5 -14  194.66   18.02
   2   5 -13   13.67    3.54
  -2  -5  13   11.96    4.64
   2   5 -13   16.06    5.24
   2   5 -12  280.95   14.53
  -2  -5  12  243.91   18.42
   2   5 -12  285.56   19.47
  -2  -5  11   79.47    4.96
   2   5 -11   73.51    6.96
  -2  -5  11   70.97    9.55
   2   5 -11   97.21   10.80
   2   5 -10  152.94    9.21
  -2  -5  10  128.93   12.27
   2   5 -10  152.90   13.14
  -2  -5  10  147.98    7.37
  -2  -5   9   36.63    4.38
   2   5  -9   35.99    3.77
   2   5  -9   46.46    4.53
  -2  -5   9   37.82    6.48
  -2  -5   9   51.46    4.63
   2   5  -9   51.19    7.04
  -2  -5   8    1.23    0.84
  -2  -5   8    0.28    0.78
   2   5  -8    0.89    0.53
   2   5  -8    1.50    0.95
  -2  -5   8    2.13    2.15
   2   5  -8    0.40    0.67
   2   5  -7   60.52    4.17
   2   5  -7   66.01    5.53
  -2  -5   7   71.88    4.58
  -2  -5   7   58.08    6.98
   2   5  -7   67.17    7.43
   2   5  -6   24.75    3.42
  -2  -5   6   40.53    4.46
   2   5  -6   34.52    5.01
  -2  -5   6   31.17    2.58
   2   5  -5  235.44   11.02
  -2  -5   5  251.97   11.52
  -2  -5   5  236.24    5.67
   2   5  -5  257.85   12.71
   2   5  -4  290.42   12.60
  -2  -5   4  283.51   12.71
  -2  -5   4  283.37    5.60
  -2  -5   3   98.14    7.73
  -2  -5   3  111.82    4.26
  -2  -5   3  117.21    4.25
   2   5  -3  116.37    7.40
  -2  -5   3  108.52    7.33
   2   5  -2    0.70    1.65
  -2  -5   2    0.75    0.51
  -2  -5   2   -0.30    0.61
  -2  -5   2    0.39    0.71
   2   5  -2   -0.18    0.41
   2   5  -1    6.52    2.56
  -2  -5   1    5.37    1.39
  -2  -5   1    4.73    1.54
  -2  -5   1    3.31    1.17
   2   5  -1    4.55    1.24
   2   5   0   19.89    4.13
  -2  -5   0   14.77    2.24
  -2  -5   0   19.70    2.91
  -2  -5   0   12.83    3.11
   2   5   0   14.89    2.19
   2   5   1   50.74    3.54
  -2  -5  -1   45.13    6.07
  -2  -5  -1   48.59    3.66
  -2  -5  -1   48.89    5.19
   2   5   1   40.98    5.83
  -2  -5  -2  186.42   12.48
   2   5   2  164.69    6.35
  -2  -5  -2  164.64   10.34
   2   5   2  176.91   12.36
  -2  -5  -3  108.91   10.02
   2   5   3  109.57    5.47
  -2  -5  -3   95.91    8.49
   2   5   3  108.00    5.37
   2   5   3  101.29   10.06
  -2  -5  -4  251.73   15.54
   2   5   4  237.93    8.79
  -2  -5  -4  219.46   13.78
   2   5   4  214.22    8.04
   2   5   4  259.97   16.43
  -2  -5  -5   71.61    8.44
   2   5   5   60.85    4.83
  -2  -5  -5   65.22    7.96
   2   5   5   55.36    4.34
   2   5   5   71.68    9.27
   2   5   6    6.50    2.88
  -2  -5  -6    3.58    2.53
  -2  -5  -6    2.53    2.45
   2   5   6    1.86    1.05
  -2  -5  -7  321.69   19.01
   2   5   7  319.61   13.16
  -2  -5  -7  292.14   19.33
   2   5   7  328.69   20.99
  -2  -5  -8    2.72    2.78
  -2  -5  -8    0.98    1.88
   2   5   8   -0.62    1.40
  -2  -5  -9   -1.28    1.13
  -2  -5  -9    0.39    0.87
   2   5   9   -1.30    0.86
  -2  -5 -10   -1.35    1.76
  -2  -5 -10   -0.81    2.16
   2   5  10   -0.92    1.42
  -2  -5 -11   84.98   11.01
  -2  -5 -11   72.11   11.77
   2   5  11  112.00   14.70
  -2  -5 -12    4.72    4.20
   2   5  12    9.17    5.25
   2   6 -16   37.32    8.53
  -2  -6  16   25.49    7.50
  -2  -6  15   75.36   11.66
   2   6 -15   75.99   12.03
  -2  -6  14   78.35   11.93
   2   6 -14   87.15    8.69
   2   6 -14   95.00   12.60
   2   6 -13    2.71    1.34
  -2  -6  13    1.63    2.47
   2   6 -13    3.00    3.25
  -2  -6  12  176.19   15.83
   2   6 -12  217.55   17.25
   2   6 -12  191.76   11.18
   2   6 -11  157.60    9.49
  -2  -6  11  140.13   13.56
   2   6 -11  151.83   13.84
  -2  -6  11  147.01    8.41
   2   6 -10   60.15    5.22
  -2  -6  10   49.13    7.63
  -2  -6  10   57.85    5.59
  -2  -6   9   38.14    3.86
   2   6  -9   31.02    5.75
   2   6  -9   38.04    3.59
  -2  -6   9   38.98    4.60
  -2  -6   9   38.11    6.45
  -2  -6   8  140.99    6.37
  -2  -6   8  134.53   11.49
  -2  -6   8  122.85    8.55
   2   6  -8  139.26   11.58
   2   6  -8  134.85    5.97
  -2  -6   7  300.63    7.12
  -2  -6   7  297.06   13.50
  -2  -6   6    0.75    1.03
   2   6  -6   -1.25    1.25
  -2  -6   5  248.43   12.70
   2   6  -5  273.65   13.56
  -2  -6   4    3.71    1.62
   2   6  -4    7.51    1.87
  -2  -6   3   84.98    7.84
  -2  -6   3   88.70    7.06
  -2  -6   3   82.19    3.26
   2   6  -3   77.66    6.36
   2   6  -2    1.35    1.33
  -2  -6   2    3.18    0.92
  -2  -6   2    0.27    0.92
  -2  -6   2    4.44    2.18
   2   6  -2    4.10    1.56
  -2  -6   1  132.00    6.92
  -2  -6   1  122.82   10.05
  -2  -6   1  134.71    8.02
   2   6  -1  114.50    6.70
   2   6  -1  123.33    9.94
   2   6   0    4.98    2.06
  -2  -6   0    5.45    1.79
  -2  -6   0    2.84    1.41
  -2  -6   0    4.21    2.22
   2   6   0    3.33    1.17
  -2  -6  -1  462.59   13.32
  -2  -6  -1  473.17   20.75
   2   6   1  417.18   11.93
   2   6   1  466.84   20.82
  -2  -6  -1  416.59   15.60
   2   6   2   -1.27    1.79
  -2  -6  -2    1.38    0.90
  -2  -6  -2   -1.29    1.42
  -2  -6  -2    1.79    1.24
   2   6   2    1.20    1.13
  -2  -6  -3  258.77   16.10
   2   6   3  223.54    8.85
  -2  -6  -3  235.52   13.90
   2   6   3  263.16   16.64
  -2  -6  -4  567.56   24.49
   2   6   4  543.98   14.73
  -2  -6  -4  498.99   21.63
   2   6   4  556.45   25.75
  -2  -6  -5  338.17   19.62
   2   6   5  347.49   12.43
   2   6   5  380.68   21.84
   2   6   6    2.38    1.71
   2   6   6   10.45    2.34
  -2  -6  -6   12.33    4.12
  -2  -6  -6   13.06    4.17
   2   6   7    6.46    3.82
  -2  -6  -7    5.05    2.91
  -2  -6  -7    2.97    2.59
  -2  -6  -8  115.73   12.31
  -2  -6  -8   88.09   11.40
   2   6   8   97.28   12.71
   2   6   9    4.61    3.35
  -2  -6  -9    1.60    2.43
  -2  -6  -9    4.47    4.03
   2   6  10   30.64    7.80
  -2  -6 -10   24.64    6.95
  -2  -6 -10   41.03    8.18
   2   6  11   32.12    8.09
  -2  -6 -11   32.90    7.86
  -2  -6 -11   27.88    6.73
  -2  -7  16   25.02    7.21
   2   7 -16   23.23    7.13
  -2  -7  15   52.23    9.93
   2   7 -15   50.18    9.39
  -2  -7  14    4.24    3.36
   2   7 -14    5.37    4.29
  -2  -7  13  114.74   13.63
   2   7 -13  125.40   14.04
   2   7 -12   92.80   11.37
  -2  -7  12   85.88   11.34
   2   7 -11   35.90    3.86
   2   7 -11   41.47    7.33
  -2  -7  11   34.65    4.68
  -2  -7  11   37.95    7.44
  -2  -7  10  106.91    8.37
   2   7 -10  126.32    6.44
  -2  -7  10   99.04   11.17
  -2  -7   9   59.44    6.46
   2   7  -9   50.53    3.40
   2   7  -9   56.10    7.71
  -2  -7   9   64.11    8.50
  -2  -7   8  229.65   12.93
   2   7  -8  255.23   16.21
  -2  -7   8  219.80   15.46
  -2  -7   7  270.53   14.28
   2   7  -7  279.35   15.87
  -2  -7   6  247.21   13.76
   2   7  -6  265.30   14.53
  -2  -7   5   48.50    6.08
   2   7  -5   56.54    6.42
  -2  -7   4  184.67   12.25
   2   7  -4  180.17   10.76
  -2  -7   3   60.42    7.25
  -2  -7   3   49.00    2.45
   2   7  -3   56.05    5.76
  -2  -7   2   56.27    7.19
   2   7  -2   65.22    5.85
  -2  -7   2   77.97    4.53
   2   7  -2   72.63    8.15
   2   7  -1   27.14    5.16
  -2  -7   1   17.33    3.29
   2   7  -1   18.59    3.05
  -2  -7   1   23.05    3.02
  -2  -7   1   22.74    4.84
  -2  -7   0  243.37   11.28
  -2  -7   0  252.59   15.84
  -2  -7   0  257.88   11.54
   2   7   0  238.90   10.34
   2   7   0  243.79   15.88
  -2  -7  -1  174.95    9.32
  -2  -7  -1  217.21   15.06
  -2  -7  -1  159.49   10.08
   2   7   1  186.01    8.99
   2   7   1  197.12   14.48
  -2  -7  -2   32.51    3.76
  -2  -7  -2   44.81    7.13
   2   7   2   43.17    4.36
  -2  -7  -2   40.04    5.51
   2   7   2   43.62    7.10
  -2  -7  -3  390.34   21.18
   2   7   3  371.27   12.88
  -2  -7  -3  359.11   17.89
   2   7   3  412.65   22.53
   2   7   4   20.08    5.53
  -2  -7  -4   12.35    3.99
  -2  -7  -4   22.91    5.73
   2   7   4   11.53    2.52
   2   7   5    2.84    3.06
  -2  -7  -5    1.13    1.65
  -2  -7  -5    5.36    3.51
   2   7   6    3.61    2.74
  -2  -7  -6    5.61    3.10
  -2  -7  -6    6.71    3.08
   2   7   7    0.57    1.66
  -2  -7  -7    3.19    2.27
  -2  -7  -7    4.03    3.23
   2   7   8    3.59    2.53
  -2  -7  -8    7.33    4.04
  -2  -7  -8    1.61    2.37
   2   7   9   54.55   10.56
  -2  -7  -9   76.06   11.10
  -2  -7  -9   51.22    9.64
   2   7  10    4.41    3.07
  -2  -7 -10    5.30    4.03
  -2  -7 -10    5.97    4.19
  -2  -7 -11   12.58    4.28
  -2  -8  16   27.12    8.33
   2   8 -16   27.82    7.28
  -2  -8  15   10.84    5.17
   2   8 -15    6.12    4.11
  -2  -8  14    9.07    4.71
   2   8 -14   13.96    4.80
  -2  -8  13    8.15    3.68
   2   8 -13   17.94    6.04
  -2  -8  12    5.93    3.40
   2   8 -12    8.42    3.43
  -2  -8  11   65.47    7.17
   2   8 -11   76.46    9.94
  -2  -8  10  655.66   23.25
  -2  -8  10  624.80   28.83
  -2  -8   9  121.23   10.05
   2   8  -9  147.00   12.90
  -2  -8   9  128.34   12.30
  -2  -8   8  187.67   12.79
   2   8  -8  229.43   15.68
   2   8  -7    9.17    2.94
  -2  -8   7   10.41    2.86
  -2  -8   6    5.71    2.59
   2   8  -6   11.03    3.48
  -2  -8   5  189.15   13.22
   2   8  -5  191.49   12.18
   2   8  -4   27.23    4.65
  -2  -8   4   32.21    5.61
  -2  -8   3   35.40    2.15
  -2  -8   3   27.43    5.23
   2   8  -2   29.20    6.01
  -2  -8   2   24.96    2.70
  -2  -8   2   26.89    5.11
   2   8  -2   29.37    4.41
   2   8  -1   30.68    4.22
  -2  -8   1   27.23    5.47
  -2  -8   1   36.89    3.99
   2   8  -1   38.97    6.60
  -2  -8   0   42.33    6.85
  -2  -8   0   41.95    4.88
   2   8   0   36.17    4.37
   2   8   0   42.70    7.15
   2   8   1   -0.30    0.33
  -2  -8  -1    2.62    2.10
  -2  -8  -1    1.56    1.33
   2   8   1    2.48    1.34
   2   8   2    9.31    3.30
  -2  -8  -2   11.80    3.19
  -2  -8  -2   14.87    4.41
   2   8   2   15.01    2.91
   2   8   3    3.34    0.98
  -2  -8  -3    5.71    2.64
   2   8   3    5.76    1.70
  -2  -8  -3    3.50    2.29
  -2  -8  -4   81.43   10.51
  -2  -8  -4   63.86    8.23
   2   8   4   73.42   10.21
   2   8   5    3.58    3.00
  -2  -8  -5    2.46    3.11
  -2  -8  -5    4.37    2.35
   2   8   6   50.61    9.56
  -2  -8  -6   57.63    9.47
  -2  -8  -6   52.33    8.44
   2   8   7   -0.58    2.08
  -2  -8  -7    2.09    1.99
  -2  -8  -7    0.69    1.69
   2   8   8    3.09    4.38
  -2  -8  -8    6.56    3.70
  -2  -8  -8    7.97    4.36
  -2  -8  -9  193.38   17.81
  -2  -8  -9  179.90   18.74
   2   8   9  193.46   20.66
  -2  -8 -10   -2.51    3.06
  -2  -9  15    9.30    4.41
   2   9 -15   15.05    6.09
  -2  -9  14   -0.18    1.85
   2   9 -14    1.82    2.07
  -2  -9  13   62.83   10.60
   2   9 -13   83.68   11.48
  -2  -9  12   10.53    4.90
   2   9 -12    1.46    2.47
  -2  -9  11   58.61    7.43
   2   9 -11   55.46    8.70
  -2  -9  11   61.25    9.40
  -2  -9  10  182.21   13.34
  -2  -9  10  156.35   14.71
  -2  -9   9    2.13    2.29
   2   9  -9   -0.30    0.44
   2   9  -8   34.16    6.13
  -2  -9   8   29.91    5.40
  -2  -9   7  156.54   12.87
   2   9  -7  155.47   12.59
  -2  -9   6   58.78    7.96
   2   9  -6   64.33    7.64
  -2  -9   5   65.41    8.34
   2   9  -5   53.47    6.93
  -2  -9   4    2.32    1.63
   2   9  -4    4.75    2.65
  -2  -9   3    2.18    1.92
   2   9  -3    2.34    1.59
  -2  -9   2  158.44   13.70
  -2  -9   2  176.09    7.60
   2   9  -2  156.95   10.59
   2   9  -2  158.85   13.99
  -2  -9   1  198.10   15.34
  -2  -9   1  232.28   10.61
   2   9  -1  196.68   11.48
   2   9  -1  178.44   15.20
  -2  -9   0   41.59    7.10
  -2  -9   0   60.77    6.07
   2   9   0   49.34    5.50
   2   9   0   46.11    8.01
   2   9   1    2.70    2.17
  -2  -9  -1    2.88    1.81
  -2  -9  -1    4.69    2.34
   2   9   1    2.94    1.45
   2   9   2    5.05    3.46
  -2  -9  -2   11.94    4.05
  -2  -9  -2   12.67    3.62
   2   9   2    7.98    2.58
  -2  -9  -3  144.64   14.06
  -2  -9  -3  128.19   11.38
   2   9   3  122.86   13.76
   2   9   4    2.01    2.53
  -2  -9  -4    4.30    2.91
  -2  -9  -4    0.01    1.68
  -2  -9  -5  119.49   13.55
  -2  -9  -5   97.28   11.24
   2   9   5   90.26   12.95
   2   9   6    5.44    3.81
  -2  -9  -6    9.24    5.10
  -2  -9  -6    1.75    2.57
   2   9   7   -2.57    2.87
  -2  -9  -7   -0.42    0.61
   2   9   8   52.14   10.65
  -2  -9  -8   56.01   10.30
  -2  -9  -8   49.68    9.64
  -2  -9  -9    5.43    4.58
  -2  -9  -9   21.31    7.94
  -2 -10  15    6.49    5.08
   2  10 -15    0.26    1.53
  -2 -10  14    8.23    5.22
   2  10 -14   16.59    5.41
  -2 -10  13    9.77    4.36
   2  10 -13   22.08    6.24
  -2 -10  12   17.05    4.48
  -2 -10  12   12.68    5.25
   2  10 -12   24.44    6.51
  -2 -10  11   12.71    3.84
  -2 -10  11   16.85    5.49
   2  10 -11   24.35    6.34
  -2 -10  10    4.77    3.21
  -2 -10  10    2.05    2.56
   2  10 -10    3.07    2.12
  -2 -10   9   25.32    5.34
   2  10  -9   23.85    5.29
  -2 -10   8   46.28    7.28
   2  10  -8   49.52    7.63
  -2 -10   7   49.45    7.90
   2  10  -7   52.32    7.71
   2  10  -6    8.97    3.05
  -2 -10   6   18.03    5.01
  -2 -10   5  371.08   21.41
   2  10  -5  397.55   19.61
  -2 -10   4   92.86   10.80
   2  10  -4  100.22    9.40
  -2 -10   3    1.72    1.41
   2  10  -3    0.93    1.43
  -2 -10   2   89.57   10.85
   2  10  -2   77.30    8.04
   2  10  -2   76.35   10.84
   2  10  -1   11.52    4.43
  -2 -10   1    7.12    2.92
   2  10  -1    8.54    2.46
   2  10   0   24.12    5.90
   2  10   0   29.40    4.85
  -2 -10   0   24.94    6.36
  -2 -10   0   26.31    4.24
   2  10   1    1.25    2.28
  -2 -10  -1    0.58    1.15
  -2 -10  -1    2.64    2.05
   2  10   2    6.32    3.29
  -2 -10  -2   11.17    3.47
  -2 -10  -2    9.23    4.32
   2  10   3    2.49    1.73
  -2 -10  -3    1.90    2.13
  -2 -10  -3    2.38    3.31
   2  10   4   29.40    7.66
  -2 -10  -4   26.61    5.94
   2  10   5   15.52    5.79
  -2 -10  -5   13.44    4.30
  -2 -10  -5   16.58    5.95
   2  10   6    0.02    2.02
  -2 -10  -6    4.02    3.48
  -2 -10  -6    7.87    4.91
  -2 -10  -7    6.39    4.07
  -2 -10  -7   -3.34    3.05
  -2 -10  -8   12.19    5.14
  -2 -11  14    1.28    1.35
   2  11 -14    7.75    4.55
  -2 -11  13    1.34    3.17
   2  11 -13    3.37    3.25
  -2 -11  12   11.90    4.44
  -2 -11  12   19.72    6.08
   2  11 -12   24.74    6.87
  -2 -11  11    7.44    3.43
  -2 -11  11    0.80    2.26
   2  11 -11    4.30    2.64
  -2 -11  10   -2.10    3.05
  -2 -11  10    3.80    3.72
   2  11 -10    3.77    2.88
  -2 -11   9   42.68    7.67
   2  11  -9   51.02    8.62
  -2 -11   8   68.54    9.83
   2  11  -8   68.62    9.13
   2  11  -7   35.62    6.48
  -2 -11   7   43.57    8.00
   2  11  -6    1.77    1.94
  -2 -11   6    3.02    2.04
   2  11  -5    3.63    2.77
  -2 -11   5    3.21    2.54
   2  11  -4   20.10    4.76
  -2 -11   4   35.08    7.25
  -2 -11   3   42.28    8.37
   2  11  -3   47.27    6.42
   2  11  -2   -0.44    1.50
   2  11  -2    5.62    2.55
  -2 -11   2    8.92    4.41
   2  11  -1    0.10    1.56
  -2 -11   1    0.77    1.96
   2  11  -1    0.31    1.22
   2  11   0   36.63    7.85
  -2 -11   0   63.59   10.40
  -2 -11  -1  177.24   17.07
   2  11   1  154.56   16.39
   2  11   2   -0.73    1.77
  -2 -11  -2    5.87    3.43
   2  11   3   15.26    6.33
  -2 -11  -3    5.85    4.55
   2  11   4   10.60    4.73
  -2 -11  -4    9.57    5.06
   2  11   5    3.66    2.74
  -2 -11  -5    2.10    3.22
   2  12 -14   21.41    6.47
   2  12 -13   69.34   12.33
  -2 -12  13   52.00   10.35
  -2 -12  12   -3.40    2.63
  -2 -12  12   11.38    5.78
   2  12 -12    4.83    3.70
  -2 -12  11   11.61    3.87
  -2 -12  11    3.88    2.81
   2  12 -11   11.82    4.70
  -2 -12  10   20.03    5.19
   2  12 -10   28.22    6.88
  -2 -12   9    2.45    2.33
   2  12  -9    0.13    2.05
  -2 -12   8   57.30    9.31
   2  12  -8   76.48   10.18
   2  12  -7    5.74    3.14
  -2 -12   7    1.52    1.48
   2  12  -6   37.54    6.87
  -2 -12   6   38.04    8.05
   2  12  -5    3.12    2.27
  -2 -12   5    8.52    4.60
   2  12  -4    2.63    1.84
  -2 -12   4    2.69    3.08
   2  12  -3   15.81    4.21
  -2 -12   3    9.89    4.15
   2  12  -2   15.50    5.40
  -2 -12   2   17.54    5.52
   2  12  -1   24.33    6.95
  -2 -12   1   21.95    6.56
   2  12   0    7.03    4.59
  -2 -12   0    7.77    4.61
   2  12   1   16.96    5.65
  -2 -12  -1   25.87    7.01
   2  12   2    5.52    3.89
  -2 -12  -2   -4.11    3.72
   2  12   3    3.76    2.84
  -2 -12  -3   -2.23    2.59
   2  13 -13   14.67    4.90
  -2 -13  12   22.88    6.22
   2  13 -12   25.69    6.54
  -2 -13  11   11.33    4.47
  -2 -13  11    1.35    1.33
   2  13 -11   16.85    5.96
  -2 -13  10   -0.01    1.66
   2  13 -10    0.43    1.52
  -2 -13   9    8.78    3.63
   2  13  -9   18.65    6.14
  -2 -13   8    4.78    4.02
   2  13  -8    2.00    2.62
   2  13  -7    5.32    2.44
  -2 -13   7    1.33    2.95
   2  13  -6   -0.10    1.96
  -2 -13   6   -2.02    2.87
   2  13  -5    1.94    2.11
  -2 -13   5    5.50    4.24
  -2 -13   4   26.42    7.16
   2  13  -4   25.47    5.53
  -2 -13   3    6.83    4.02
  -2 -13   2   12.00    5.18
  -2 -13   1  177.68   18.29
   2  13  -1  176.91   18.86
   2  13   0   39.76    9.69
  -2 -13   0   42.23    9.40
  -2 -14  11    1.34    1.97
   2  14 -11    3.32    2.69
  -2 -14  10   16.65    5.71
   2  14 -10    8.60    2.99
  -2 -14   9   12.57    5.50
   2  14  -9    8.79    4.14
  -2 -14   8    2.79    1.81
   2  14  -8    2.80    1.30
  -2 -14   7    7.48    3.34
   2  14  -7   23.89    6.21
   2  14  -6   -4.24    2.11
  -2 -14   6    3.98    3.82
  -2 -14   5   78.18   12.78
  -2 -14   4   -0.67    2.42
  -2 -14   3    1.83    2.83
   2  15 -10    7.13    2.59
   2  15  -9   13.35    6.12
   2  15  -8   10.08    5.19
   3 -14   1   11.81    5.67
  -3  14  -1    0.63    1.33
   3 -14   2   18.84    6.07
  -3  14  -2   19.32    6.14
   3 -14   3    4.91    2.78
  -3  14  -3    5.98    3.43
   3 -14   4   54.15   10.68
  -3  14  -4   69.09   11.79
   3 -14   5    4.41    2.44
  -3  14  -5    4.86    4.36
  -3  14  -6   86.71   12.77
   3 -14   6   62.91   11.17
   3 -14   7   11.77    5.48
  -3  14  -7   11.63    5.92
   3 -14   8   38.56    8.51
  -3  14  -8   56.03   10.68
   3 -13  -4    1.62    2.60
   3 -13  -3   20.28    6.24
  -3  13   2   70.70   11.69
   3 -13  -2   63.86   10.54
   3 -13  -1   53.92    9.93
  -3  13   1   72.19   12.37
   3 -13   0    6.21    3.34
  -3  13   0    6.83    3.84
  -3  13  -1    9.71    4.38
   3 -13   1    4.64    3.59
   3 -13   2   56.74   10.05
  -3  13  -2   44.30    9.34
   3 -13   3    5.52    2.34
  -3  13  -3   20.78    6.31
  -3  13  -4   77.46   11.98
   3 -13   4   87.92   12.80
   3 -13   5   12.41    4.44
  -3  13  -5    8.67    3.59
   3 -13   6    5.77    3.63
  -3  13  -6   14.97    5.53
   3 -13   7    4.12    3.19
  -3  13  -7   20.39    6.53
   3 -13   8    2.77    2.07
  -3  13  -8    2.57    1.90
   3 -13   8    3.69    1.54
  -3  13  -9    2.72    2.93
   3 -13   9    3.18    1.95
   3 -13   9    1.66    2.80
   3 -13  10   10.80    4.10
  -3  13 -10   17.46    6.20
   3 -13  10   14.03    6.22
  -3  13 -11    1.00    2.26
   3 -13  11   -4.05    4.22
   3 -13  12   -0.14    3.22
   3 -12  -5  208.97   20.04
  -3  12   4   81.96   12.84
   3 -12  -4   84.41   11.56
   3 -12  -4   52.28    9.79
   3 -12  -3    0.05    0.36
   3 -12  -3    4.25    3.55
   3 -12  -2   25.94    6.12
  -3  12   2   34.26    8.28
   3 -12  -1   27.54    6.82
  -3  12   1   42.11    9.01
   3 -12   0   29.31    7.30
  -3  12   0   28.33    7.79
   3 -12   1   11.60    4.60
  -3  12  -1   13.64    5.23
   3 -12   2   26.54    6.54
  -3  12  -2    8.24    3.80
  -3  12  -3  173.18   16.99
   3 -12   3  151.19   15.85
   3 -12   4   -1.31    1.65
  -3  12  -4    7.88    4.67
  -3  12  -5   37.95    8.29
   3 -12   5   54.75    9.68
  -3  12  -6   19.49    6.41
   3 -12   6   19.29    5.02
   3 -12   6   11.10    3.94
   3 -12   7   29.45    7.53
  -3  12  -7   21.64    6.53
   3 -12   7   32.31    5.87
  -3  12  -8    3.83    2.96
   3 -12   8    5.44    4.00
   3 -12   8    4.68    3.08
  -3  12  -9    3.00    3.10
   3 -12   9    1.01    1.17
   3 -12   9    2.84    3.77
  -3  12 -10    1.66    1.94
   3 -12  10    2.87    3.23
   3 -12  10    4.63    3.91
   3 -12  11   23.31    5.98
  -3  12 -11   20.27    6.94
   3 -12  11   26.23    6.58
   3 -12  12   21.85    6.48
   3 -12  12   31.71    6.73
  -3  12 -12   34.35    9.13
   3 -12  13   14.11    5.49
   3 -12  13   18.07    6.37
  -3  12 -13   21.17    7.23
   3 -12  14    2.57    0.73
   3 -12  14    0.76    2.42
  -3  11   6   47.29    9.92
   3 -11  -6   38.10    8.73
   3 -11  -5    2.07    0.65
   3 -11  -5    0.05    1.63
   3 -11  -4    5.36    2.83
  -3  11   4    7.93    4.88
   3 -11  -4    9.24    4.52
   3 -11  -3    8.51    3.11
  -3  11   3    6.44    3.53
   3 -11  -3    3.55    2.90
  -3  11   2  113.43   14.34
   3 -11  -2  115.05   12.30
  -3  11   2   92.97   10.53
  -3  11   1   42.94    6.81
  -3  11   1   65.29   10.91
   3 -11  -1   56.05    9.06
  -3  11   0   54.99    9.68
   3 -11   0   65.57    9.77
   3 -11   1    3.19    2.39
  -3  11  -1    0.59    0.33
  -3  11  -2  201.47   18.41
   3 -11   2  171.16   15.69
  -3  11  -3   31.71    6.89
   3 -11   3   46.72    8.47
  -3  11  -4  160.49   15.78
   3 -11   4  161.17   15.30
   3 -11   5    1.66    3.13
  -3  11  -5    5.88    3.66
   3 -11   6   19.82    5.25
   3 -11   6   21.16    4.66
  -3  11  -6   13.00    4.31
  -3  11  -7   29.47    6.76
   3 -11   7   35.65    7.96
   3 -11   7   27.95    5.29
   3 -11   8   46.20    6.83
  -3  11  -8   31.11    7.47
   3 -11   8   54.43    9.28
  -3  11  -9    8.82    3.70
   3 -11   9    8.24    3.61
   3 -11   9    1.20    1.78
  -3  11 -10   22.39    6.55
   3 -11  10   22.52    5.43
   3 -11  10   21.68    6.58
   3 -11  11    3.74    2.99
   3 -11  11    1.07    2.47
  -3  11 -11    2.79    3.00
   3 -11  12   -0.88    3.03
  -3  11 -12    1.76    2.45
   3 -11  12    3.26    3.58
   3 -11  13    1.78    2.10
   3 -11  13    6.07    3.66
  -3  11 -13   -2.69    2.56
   3 -11  14   -0.27    1.14
   3 -11  14   -0.34    1.71
   3 -11  15    7.13    3.93
   3 -11  15    7.15    5.36
  -3  10   8    6.65    4.86
  -3  10   7    3.40    4.03
   3 -10  -7    1.22    1.39
   3 -10  -6    8.98    3.93
  -3  10   6   10.26    4.64
   3 -10  -6    4.83    3.75
  -3  10   5   13.60    4.37
   3 -10  -5   17.57    4.76
  -3  10   5   21.15    6.23
   3 -10  -5   21.15    6.47
  -3  10   4    2.39    1.56
   3 -10  -4    2.83    2.12
  -3  10   4    5.17    2.20
   3 -10  -4    2.47    2.31
  -3  10   3   20.33    4.74
   3 -10  -3   21.57    5.23
  -3  10   3   35.77    7.83
   3 -10  -3   24.84    6.02
  -3  10   2   76.05   11.23
   3 -10  -2   64.69    8.99
   3 -10  -2   65.85    9.48
  -3  10   2   50.11    7.07
  -3  10   1  161.46   16.04
   3 -10  -1  142.30   13.42
  -3  10   1  139.42   11.59
  -3  10   0   80.43   11.10
   3 -10   0   72.57    9.55
   3 -10   1   24.96    6.01
  -3  10  -1   24.35    5.75
  -3  10  -2  249.38   19.28
   3 -10   2  266.20   18.69
  -3  10  -3  114.16   12.91
   3 -10   3   97.13   11.38
  -3  10  -4  126.95   13.45
   3 -10   4  135.76   13.59
  -3  10  -5  127.06   13.45
   3 -10   5  112.52    9.35
   3 -10   5  147.66   13.96
  -3  10  -6  131.00   13.66
   3 -10   6  131.12   10.29
   3 -10   6  103.86   12.08
  -3  10  -7   95.51   12.00
   3 -10   7  109.82    9.95
   3 -10   7  103.24   12.39
  -3  10  -8   -0.24    0.78
   3 -10   8    0.27    0.73
   3 -10   8    1.72    2.44
  -3  10  -9   20.29    5.42
   3 -10   9   18.30    4.45
   3 -10   9   10.02    3.70
  -3  10 -10    1.46    1.65
   3 -10  10    3.20    3.05
   3 -10  10    1.27    1.35
   3 -10  11   18.26    5.89
  -3  10 -11   21.76    5.35
   3 -10  11   19.14    5.41
  -3  10 -11   13.93    5.06
  -3  10 -12    5.74    2.60
   3 -10  12   15.28    5.55
   3 -10  12    9.72    4.09
  -3  10 -12   10.01    4.52
   3 -10  13    3.49    2.99
   3 -10  13    6.61    3.78
  -3  10 -13    6.90    2.80
   3 -10  14    1.51    1.65
   3 -10  14    7.38    3.44
  -3  10 -14    5.51    4.67
   3 -10  15    3.96    3.06
   3 -10  15    8.11    4.80
  -3  10 -15    2.52    2.97
  -3   9   9    9.59    4.52
  -3   9   8   22.18    6.75
   3  -9  -8   19.57    6.58
  -3   9   7    3.79    2.41
   3  -9  -7   11.59    5.56
  -3   9   7    3.67    2.81
  -3   9   6    9.11    4.56
   3  -9  -6   10.98    4.10
  -3   9   6    9.53    4.09
   3  -9  -6    2.71    2.12
  -3   9   5    6.40    3.33
   3  -9  -5    4.10    3.47
   3  -9  -5    9.85    2.60
  -3   9   5   14.45    4.97
  -3   9   4   71.15   10.72
   3  -9  -4   60.81    9.64
   3  -9  -4   68.33    8.99
  -3   9   4   48.55    7.31
  -3   9   3    0.55    1.67
   3  -9  -3    1.25    2.17
  -3   9   3    0.37    2.71
   3  -9  -3    0.44    1.46
  -3   9   2   14.74    5.20
  -3   9   2    9.59    2.75
   3  -9  -2   11.49    3.36
   3  -9  -2    6.44    3.46
  -3   9   1  276.09   20.02
   3  -9  -1  258.47   16.86
  -3   9   1  272.64   14.91
  -3   9   0  168.77   15.02
   3  -9   0  144.79   12.67
  -3   9  -1   56.46    8.85
   3  -9   1   44.33    7.37
  -3   9  -2   64.56    9.74
   3  -9   2   55.49    8.13
  -3   9  -3   55.28    8.62
   3  -9   3   69.34    8.81
   3  -9   4   -2.43    1.99
  -3   9  -4    0.34    1.35
  -3   9  -5  301.18   19.86
   3  -9   5  347.67   15.39
   3  -9   5  317.12   19.72
  -3   9  -6   61.05    8.57
   3  -9   6   67.18    7.12
   3  -9   6   51.89    8.26
  -3   9  -7   12.24    4.30
   3  -9   7    8.71    3.03
   3  -9   7   13.09    4.41
  -3   9  -8   -0.76    0.77
   3  -9   8    0.84    1.08
   3  -9   8    1.27    1.74
  -3   9  -9    5.48    3.11
   3  -9   9   11.92    3.76
   3  -9   9   13.72    4.57
   3  -9  10    4.74    3.80
  -3   9 -10    1.83    1.34
   3  -9  10    1.21    1.67
   3  -9  11    9.31    4.40
  -3   9 -11    7.89    3.43
  -3   9 -11    6.99    2.25
   3  -9  11   10.20    3.39
   3  -9  12   59.58    8.75
  -3   9 -12   54.78    8.35
   3  -9  12   35.95    7.88
  -3   9 -12   43.90    9.00
  -3   9 -13    2.42    1.83
   3  -9  13    6.40    3.69
   3  -9  13    4.76    3.83
  -3   9 -13    5.43    2.99
   3  -9  14   -3.18    2.52
  -3   9 -14    0.77    1.95
  -3   9 -14    1.76    2.54
  -3   9 -15    4.68    2.68
   3  -9  15    5.23    1.65
   3  -9  15    3.08    2.17
  -3   9 -15    1.43    3.16
   3  -9  16   11.65    5.58
  -3   9 -16   12.02    5.62
  -3   8  10    4.96    4.52
  -3   8   9  159.92   17.93
   3  -8  -9  134.43   16.03
  -3   8   9  112.87   13.68
  -3   8   8   32.08    7.15
  -3   8   8   40.12    8.72
   3  -8  -8   30.81    7.38
  -3   8   7    8.83    3.70
  -3   8   7    7.10    3.41
   3  -8  -7   12.46    4.83
  -3   8   6   13.73    4.07
   3  -8  -6   16.76    3.98
  -3   8   6   22.07    6.24
   3  -8  -6   16.23    4.95
  -3   8   5    4.35    1.80
   3  -8  -5    8.15    3.30
  -3   8   5    5.47    3.61
   3  -8  -5    5.40    3.02
  -3   8   4    0.69    1.08
   3  -8  -4    0.10    1.11
  -3   8   4    3.41    3.01
   3  -8  -4    1.38    1.84
  -3   8   3    2.06    2.01
  -3   8   3    0.78    0.84
   3  -8  -3    3.13    1.62
   3  -8  -3    2.14    2.14
  -3   8   2   55.85    8.80
  -3   8   2   44.57    5.77
   3  -8  -2   43.73    7.27
   3  -8  -2   62.86    7.71
  -3   8   1    1.86    1.68
   3  -8  -1   -0.08    1.38
  -3   8   1    2.49    3.03
  -3   8   0  121.33   12.30
   3  -8   0  128.96   11.22
   3  -8   1    3.56    1.55
  -3   8  -1    4.35    2.73
  -3   8  -2  199.55   15.46
   3  -8   2  241.42   15.75
  -3   8  -3    1.04    2.07
   3  -8   3    0.75    2.09
  -3   8  -4    0.99    1.66
   3  -8   4    7.92    2.88
   3  -8   4    4.47    1.78
  -3   8  -5   41.63    6.87
   3  -8   5   46.24    5.36
   3  -8   5   38.72    6.73
  -3   8  -6  118.64   11.86
   3  -8   6  130.53    9.30
   3  -8   6  122.76   12.03
  -3   8  -7  155.52   13.67
   3  -8   7  176.14   11.53
   3  -8   7  168.47   14.35
   3  -8   8  329.43   16.80
   3  -8   8  309.68   19.99
  -3   8  -8  313.64   19.86
   3  -8   9    1.22    0.79
  -3   8  -9    0.09    1.10
   3  -8   9    0.26    0.38
  -3   8 -10   63.83    9.42
   3  -8  10   77.94   10.57
   3  -8  10   66.53    8.28
   3  -8  11    0.24    1.79
  -3   8 -11    2.64    2.64
   3  -8  11    0.01    0.71
  -3   8 -11    3.07    2.81
  -3   8 -12    0.21    0.99
   3  -8  12   -0.26    2.12
   3  -8  12    3.24    1.66
  -3   8 -12    2.93    2.93
  -3   8 -13   10.24    4.42
   3  -8  13   17.54    5.68
   3  -8  13   17.07    5.53
  -3   8 -13   23.25    6.67
   3  -8  14    0.23    1.63
  -3   8 -14    4.94    3.03
   3  -8  14    6.06    4.42
  -3   8 -14    3.92    3.52
  -3   8 -15   15.72    5.70
   3  -8  15   14.58    5.04
  -3   8 -15   18.81    5.77
   3  -8  15    9.14    3.98
  -3   8 -16    1.84    2.15
  -3   8 -16    3.05    2.80
  -3   7  11    1.91    2.41
  -3   7  11    3.93    3.88
  -3   7  10   15.21    5.68
   3  -7 -10    2.06    2.53
  -3   7  10    9.26    4.32
  -3   7   9   61.77   11.05
   3  -7  -9   44.62    8.86
  -3   7   9   52.74    9.46
  -3   7   8   27.96    6.12
  -3   7   8   42.17    8.60
   3  -7  -8   35.34    8.07
  -3   7   7  112.03   13.18
   3  -7  -7   83.96   11.38
   3  -7  -7   96.54    8.93
  -3   7   7   98.97   10.69
  -3   7   6   95.55   12.45
   3  -7  -6   67.69    9.85
   3  -7  -6   82.86    8.28
  -3   7   6   87.02    9.59
  -3   7   5   11.16    3.30
   3  -7  -5   13.57    3.51
  -3   7   5   15.67    4.90
   3  -7  -5   10.33    3.76
  -3   7   4  123.40   12.82
   3  -7  -4   86.88   10.53
   3  -7  -4  107.83    9.46
  -3   7   4  103.14    9.23
  -3   7   3    1.26    1.58
   3  -7  -3    3.68    1.74
  -3   7   3    1.50    2.24
   3  -7  -3    2.45    1.67
  -3   7   2   39.05    7.17
   3  -7  -2   43.24    5.90
   3  -7  -2   22.95    4.83
  -3   7   2   30.86    4.51
  -3   7   1  222.22   16.28
   3  -7  -1  205.33   13.28
   3  -7  -1  192.62   10.08
  -3   7   1  213.08   10.83
  -3   7   0   17.61    4.45
   3  -7   0   22.77    4.34
   3  -7   0   17.17    2.68
  -3   7  -1   98.64   10.36
   3  -7   1  110.43   10.11
   3  -7   1  102.10    6.80
   3  -7   2    1.88    1.15
  -3   7  -2    1.61    1.74
   3  -7   2    5.41    2.48
   3  -7   3   12.60    2.54
  -3   7  -3    9.54    3.27
   3  -7   3    9.69    3.21
   3  -7   3   10.65    2.27
   3  -7   4    0.49    0.46
  -3   7  -4    0.36    1.80
   3  -7   4    2.02    1.37
   3  -7   4    2.09    1.57
  -3   7  -5  617.91   25.54
   3  -7   5  668.06   18.87
   3  -7   5  617.24   25.61
  -3   7  -6   77.60    9.01
   3  -7   6   66.65    6.40
   3  -7   6   69.97    8.55
  -3   7  -7   61.49    8.21
   3  -7   7   74.83    7.32
   3  -7   7   64.77    8.54
   3  -7   8  131.00   12.60
  -3   7  -8  128.97   12.10
   3  -7   8  153.76   11.08
   3  -7   9   86.29   10.61
  -3   7  -9  100.67   10.89
   3  -7   9   88.97    8.95
  -3   7 -10   50.55    7.51
   3  -7  10   40.60    6.42
  -3   7 -10   40.63    7.18
   3  -7  10   37.50    7.09
   3  -7  11   13.00    3.97
   3  -7  11   13.63    4.29
  -3   7 -11   12.84    4.28
  -3   7 -11    9.49    3.64
  -3   7 -12    6.37    3.14
   3  -7  12    2.15    1.55
   3  -7  12    3.86    3.17
  -3   7 -12    2.32    2.01
  -3   7 -13   10.99    4.38
   3  -7  13   23.00    6.14
   3  -7  13   11.99    4.57
  -3   7 -13   27.52    6.47
  -3   7 -14    3.92    1.55
   3  -7  14    3.64    3.28
  -3   7 -14   -0.36    0.31
   3  -7  14    3.28    2.86
   3  -7  15   26.15    6.66
  -3   7 -15   44.84    9.13
   3  -7  15   33.72    8.40
  -3   7 -15   27.97    6.91
  -3   7 -16    3.39    2.93
   3  -7  16   -1.56    1.31
  -3   7 -16    6.60    3.84
  -3   6  12   18.07    6.73
  -3   6  12   13.43    5.42
  -3   6  11  136.95   15.99
   3  -6 -11  123.07   15.57
  -3   6  11  118.44   14.01
  -3   6  10   55.50   10.49
   3  -6 -10   52.61    9.60
  -3   6  10   56.07    9.03
   3  -6  -9  131.47   14.80
  -3   6   9  141.09   13.64
  -3   6   8   -0.80    1.02
   3  -6  -8    1.98    2.07
  -3   6   8    1.71    2.23
   3  -6  -7    9.24    2.60
   3  -6  -7    2.53    2.45
  -3   6   7    4.53    2.42
  -3   6   6  102.87   12.20
  -3   6   6   86.28    8.80
   3  -6  -6   88.97   10.61
   3  -6  -6   99.29    8.42
  -3   6   5   56.34    8.85
   3  -6  -5   60.91    8.67
   3  -6  -5   57.24    6.36
  -3   6   5   43.86    5.98
  -3   6   4   22.56    4.09
  -3   6   4   41.92    7.34
   3  -6  -4   31.17    5.76
   3  -6  -4   35.13    5.12
  -3   6   3    0.99    0.51
   3  -6  -3   -0.18    1.13
  -3   6   3    2.02    1.81
   3  -6  -3   -0.09    0.72
  -3   6   2   33.08    6.27
   3  -6  -2   26.26    4.96
   3  -6  -2   28.94    4.63
   3  -6  -2   25.94    3.43
  -3   6   2   23.89    3.55
  -3   6   1   87.91    9.87
   3  -6  -1   99.35    8.58
   3  -6  -1   83.85    5.71
  -3   6   1   97.31    6.40
  -3   6   0   98.06    9.87
   3  -6   0  105.01    8.99
   3  -6   0   94.27    5.64
  -3   6  -1   20.89    4.35
   3  -6   1   22.07    4.51
   3  -6   1   21.51    2.70
   3  -6   2   26.51    4.76
  -3   6  -2   32.46    5.53
   3  -6   2   36.13    3.55
  -3   6  -3   23.88    4.87
   3  -6   3   28.69    3.16
   3  -6   3   33.45    5.49
   3  -6   3   28.68    3.28
   3  -6   4    2.37    1.11
  -3   6  -4    0.14    0.26
   3  -6   4    3.40    1.47
  -3   6  -5   43.29    6.50
   3  -6   5   44.43    4.59
   3  -6   5   41.23    6.40
  -3   6  -6   51.73    7.10
   3  -6   6   50.24    5.34
   3  -6   6   39.09    6.29
   3  -6   7 1259.78   36.63
  -3   6  -7 1311.20   36.04
  -3   6  -8    8.50    3.36
   3  -6   8    8.18    2.27
   3  -6   9   21.44    5.41
  -3   6  -9   17.28    4.61
   3  -6   9   18.64    3.82
  -3   6 -10    1.96    1.42
   3  -6  10    1.20    1.89
  -3   6 -10    1.65    1.61
   3  -6  10   -0.08    1.31
  -3   6 -11    0.30    1.49
   3  -6  11    1.91    1.94
   3  -6  11    2.44    2.34
  -3   6 -11    2.31    2.31
  -3   6 -12    3.78    2.85
   3  -6  12    1.83    1.95
  -3   6 -12   -0.09    1.09
   3  -6  12   -0.36    1.09
   3  -6  13    4.85    3.18
  -3   6 -13    3.12    2.96
   3  -6  13    1.40    2.26
  -3   6 -13    4.53    2.85
   3  -6  14   -2.12    1.86
  -3   6 -14    5.74    3.41
   3  -6  14    0.98    1.01
  -3   6 -14    3.16    1.82
  -3   6 -15    9.32    4.04
   3  -6  15    7.85    1.08
  -3   6 -15    5.88    2.99
  -3   6 -16   33.47    7.73
   3  -6  16   46.16   10.22
  -3   6 -16   25.49    6.87
  -3   5  13   27.70    7.48
  -3   5  12  181.08   18.76
   3  -5 -12  196.26   19.49
  -3   5  12  160.14   16.55
  -3   5  11   86.55   12.52
   3  -5 -11   75.32   11.35
  -3   5  11   48.74    8.91
  -3   5  10   16.61    5.58
   3  -5 -10   10.60    3.73
  -3   5  10   11.01    3.59
  -3   5   9   37.56    8.47
   3  -5  -9   31.60    6.93
  -3   5   9   35.19    6.70
  -3   5   8   35.86    7.50
   3  -5  -8   22.58    5.71
  -3   5   8   21.25    4.83
  -3   5   7  392.84   23.49
   3  -5  -7  347.62   21.17
   3  -5  -7  378.80   14.67
  -3   5   7  355.39   18.41
   3  -5  -6    7.28    2.33
   3  -5  -6    3.35    2.56
  -3   5   6    8.59    2.98
  -3   5   5   89.77   10.49
   3  -5  -5   62.26    8.34
   3  -5  -5   94.58    7.42
  -3   5   5   68.07    6.82
   3  -5  -4  128.30   11.58
   3  -5  -4  141.78    9.31
  -3   5   4  120.33    8.35
  -3   5   3 1019.16   32.55
   3  -5  -3  951.91   30.15
   3  -5  -3  955.47   20.83
   3  -5  -3  927.36   23.88
  -3   5   2   38.26    6.25
   3  -5  -2   44.92    6.28
   3  -5  -2   42.04    3.83
   3  -5  -2   49.42    5.47
  -3   5   2   59.85    4.88
  -3   5   1    3.12    0.94
  -3   5   1    5.96    2.71
   3  -5  -1    6.39    2.13
   3  -5  -1    3.73    1.15
  -3   5   0    1.16    1.87
   3  -5   0    2.32    1.47
   3  -5   0    0.88    0.43
   3  -5   1   78.08    7.45
   3  -5   1   73.58    3.96
  -3   5  -2  138.17   10.84
   3  -5   2  151.03    5.92
   3  -5   2  154.81   10.72
   3  -5   2  151.26    6.12
   3  -5   3    2.76    1.02
  -3   5  -3    0.53    1.75
   3  -5   3    1.03    0.37
   3  -5   3    2.30    0.96
  -3   5  -4  253.79   14.24
   3  -5   4  267.33    9.96
   3  -5   4  284.84   15.60
   3  -5   5    9.94    3.06
  -3   5  -5    8.90    2.93
   3  -5   5   10.85    2.43
   3  -5   6    9.17    2.81
  -3   5  -6    8.49    2.28
   3  -5   6   10.35    2.41
   3  -5   7  427.96   21.09
  -3   5  -7  415.52   19.08
   3  -5   7  427.71   16.73
   3  -5   8  118.90   11.26
  -3   5  -8  129.95   10.98
   3  -5   8  125.09    9.78
   3  -5   9   67.88    8.92
  -3   5  -9   76.13    9.11
  -3   5  -9   65.39    8.31
   3  -5   9   67.04    7.81
  -3   5 -10   53.91    8.28
  -3   5 -10   50.76    7.82
   3  -5  10   56.15    8.37
   3  -5  10   63.60    7.97
   3  -5  11    1.85    2.05
  -3   5 -11   -0.19    1.29
   3  -5  11   -0.58    1.21
   3  -5  12   24.31    6.20
  -3   5 -12   16.95    4.90
   3  -5  12   20.16    5.40
  -3   5 -12   15.89    4.43
   3  -5  13    1.80    2.13
  -3   5 -13    2.43    2.40
   3  -5  13    3.53    2.27
  -3   5 -13    2.79    2.97
   3  -5  14   20.82    6.01
  -3   5 -14   16.30    5.10
   3  -5  14   22.47    7.10
  -3   5 -14   22.76    6.19
  -3   5 -15   38.55    8.71
   3  -5  15   35.42    7.72
   3  -5  15   50.15    9.69
  -3   5 -15   37.43    7.40
  -3   5 -16   10.25    4.54
   3  -5  16    7.35    4.70
  -3   4  14   47.73   10.41
  -3   4  13    1.67    3.18
   3  -4 -13    7.95    4.63
  -3   4  13    0.69    2.25
  -3   4  12  106.66   13.88
   3  -4 -12   71.81   11.86
  -3   4  12   81.24   11.60
  -3   4  11    5.03    1.72
   3  -4 -11    4.76    3.13
  -3   4  11    3.38    2.97
  -3   4  10   66.39   10.32
   3  -4 -10   57.01    9.30
  -3   4  10   57.70    8.50
  -3   4   9    2.56    2.41
   3  -4  -9   -0.56    1.17
  -3   4   9    0.90    1.43
  -3   4   8   80.05   10.65
   3  -4  -8   72.69    9.55
   3  -4  -8   61.74    4.98
  -3   4   8   53.62    7.29
  -3   4   7    2.15    1.96
   3  -4  -7    1.20    0.81
   3  -4  -7    2.95    2.41
  -3   4   7    0.74    1.70
   3  -4  -6  363.97   19.54
   3  -4  -6  408.22   13.74
  -3   4   6  363.11   16.52
  -3   4   5  159.21   13.70
  -3   4   5  144.94    8.62
   3  -4  -5  136.14   11.45
   3  -4  -5  156.42    8.62
  -3   4   5  145.07    9.45
  -3   4   4 1148.69   34.62
  -3   4   4 1249.74   26.06
   3  -4  -4 1167.37   32.69
   3  -4  -4 1241.34   24.21
   3  -4  -4 1208.48   24.59
  -3   4   3   35.46    6.08
   3  -4  -3   41.99    6.00
   3  -4  -3   45.01    3.97
   3  -4  -3   43.53    4.69
  -3   4   3   47.75    4.26
  -3   4   2    1.02    0.76
  -3   4   2    3.74    1.78
   3  -4  -2    2.17    1.25
   3  -4  -2    1.11    0.75
   3  -4  -2    0.13    1.09
  -3   4   1    2.01    0.67
  -3   4   1   -0.27    0.56
   3  -4  -1    1.30    1.04
   3  -4  -1    2.24    0.64
  -3   4   0    1.65    1.77
   3  -4   0    1.41    1.13
   3  -4   0    0.19    0.21
   3  -4   1    5.27    0.77
  -3   4  -1    5.47    2.11
   3  -4   1    7.68    2.31
  -3   4  -2  196.00   11.79
   3  -4   2  215.36    6.00
   3  -4   2  213.79    6.13
   3  -4   2  224.73   12.57
  -3   4  -3  363.34   16.21
   3  -4   3  397.45   10.01
   3  -4   4  623.70   22.30
  -3   4  -4  671.52   21.63
   3  -4   4  685.66   15.41
   3  -4   5   23.41    4.74
  -3   4  -5   32.34    5.00
  -3   4  -5   29.50    3.93
   3  -4   5   32.76    3.78
   3  -4   6    8.16    2.95
  -3   4  -6   13.68    3.39
   3  -4   6    9.89    2.34
   3  -4   7    0.36    1.56
  -3   4  -7    1.16    1.86
   3  -4   7    0.81    0.76
  -3   4  -8    2.17    1.81
   3  -4   8    0.09    0.68
   3  -4   8    4.04    1.68
  -3   4  -9    6.86    2.13
  -3   4  -9    2.32    2.36
   3  -4   9    2.94    1.84
   3  -4   9    9.48    3.41
  -3   4 -10   53.42    7.97
   3  -4  10   55.51    8.30
  -3   4 -10   45.90    6.81
   3  -4  10   51.69    7.22
   3  -4  11   27.13    6.20
  -3   4 -11   18.55    5.41
   3  -4  11   26.77    5.87
  -3   4 -11   15.24    4.23
  -3   4 -12   39.56    7.10
   3  -4  12   37.79    7.17
   3  -4  12   37.23    6.98
  -3   4 -12   29.43    6.04
  -3   4 -13    0.25    1.15
   3  -4  13   -1.92    1.56
   3  -4  13    2.76    2.89
  -3   4 -13   -0.46    1.37
  -3   4 -14    1.30    2.53
   3  -4  14    4.59    2.69
   3  -4  14    1.64    2.44
  -3   4 -14    3.60    2.15
  -3   4 -15   29.56    7.82
   3  -4  15   32.14    7.89
   3  -4  15   27.92    6.97
  -3   4 -16    5.02    3.90
   3  -4  16    1.28    2.65
  -3   3  15    9.33    5.52
  -3   3  14   12.95    5.23
   3  -3 -14    5.77    4.17
  -3   3  14    4.59    4.52
  -3   3  13    0.31    1.83
   3  -3 -13   -1.18    0.39
  -3   3  13   -1.78    1.14
   3  -3 -12    2.62    3.48
  -3   3  12    2.90    3.49
  -3   3  12    4.35    3.44
  -3   3  11   76.47   11.38
   3  -3 -11   77.69   10.55
  -3   3  11   87.42   11.38
  -3   3  10    9.36    4.51
   3  -3 -10    3.08    3.35
  -3   3  10    7.04    3.24
  -3   3   9   12.76    3.85
   3  -3  -9    7.05    2.95
  -3   3   9   10.86    3.09
  -3   3   8    3.78    3.17
   3  -3  -8    4.43    2.48
   3  -3  -8    1.43    0.86
  -3   3   8    1.97    1.76
   3  -3  -7 1189.47   35.58
  -3   3   7 1125.64   30.52
   3  -3  -7 1191.29   19.73
   3  -3  -6  640.73   24.91
  -3   3   6  686.15   27.28
  -3   3   6  649.81   15.77
   3  -3  -6  659.03   15.40
  -3   3   5   71.59    8.59
  -3   3   5   80.92    5.72
   3  -3  -5   79.76    8.50
   3  -3  -5   81.12    6.39
  -3   3   5   90.60    7.06
   3  -3  -5   78.01    5.53
  -3   3   4 1713.00   40.07
  -3   3   4 1832.20   28.57
   3  -3  -4 1870.08   39.84
   3  -3  -4 1794.23   26.93
  -3   3   4 1879.80   28.19
   3  -3  -4 1738.80   27.02
  -3   3   3  614.48   22.95
  -3   3   3  671.09   18.05
   3  -3  -3  683.96   23.15
   3  -3  -3  657.13   13.76
  -3   3   3  712.95   14.85
   3  -3  -3  653.22   17.14
  -3   3   2  118.47    9.66
  -3   3   2  117.39    7.77
   3  -3  -2  112.98    4.47
  -3   3   2  118.42    4.68
   3  -3  -2  115.10    7.45
  -3   3   1   79.70    7.69
  -3   3   1  106.21    7.61
   3  -3  -1   91.20    6.88
   3  -3   0   55.89    5.61
  -3   3   0   49.50    5.63
   3  -3   1   -0.41    0.32
  -3   3  -1    0.70    0.58
   3  -3   2    6.57    2.38
   3  -3   2    7.07    2.43
  -3   3  -2    5.69    1.79
   3  -3   2    4.92    0.95
   3  -3   3  708.37   22.62
   3  -3   3  618.67   19.43
  -3   3  -3  678.79   20.30
  -3   3  -3  646.92   12.96
   3  -3   3  636.47   12.75
   3  -3   4    3.50    1.57
  -3   3  -4    3.25    1.38
  -3   3  -4    3.50    1.18
   3  -3   4    2.74    0.98
   3  -3   5   67.55    7.45
  -3   3  -5   62.83    6.30
  -3   3  -5   79.24    6.25
   3  -3   5   76.03    5.99
   3  -3   6  342.39   17.26
  -3   3  -6  349.21   15.07
   3  -3   6  378.07   14.70
  -3   3  -7    2.12    1.12
   3  -3   7    5.12    2.35
  -3   3  -8    0.39    0.54
  -3   3  -8    0.49    1.04
   3  -3   8    0.29    0.45
   3  -3   8    0.74    1.00
   3  -3   9    2.51    2.20
  -3   3  -9    5.52    2.85
   3  -3   9    1.64    1.64
  -3   3  -9    2.99    1.79
   3  -3  10    9.69    3.90
  -3   3 -10   14.47    4.42
   3  -3  10   13.33    3.72
  -3   3 -10    6.83    2.99
  -3   3 -11   22.71    5.84
   3  -3  11   16.94    4.93
   3  -3  11   23.68    5.77
  -3   3 -11   25.20    5.06
  -3   3 -12  145.73   14.89
  -3   3 -12  123.32   11.45
   3  -3  12  124.85   13.16
   3  -3  12  128.50   13.03
   3  -3  13   19.00    5.06
   3  -3  13   27.37    6.17
  -3   3 -13   17.06    4.57
  -3   3 -13   28.87    7.14
   3  -3  14    5.97    2.87
  -3   3 -14   11.58    5.20
   3  -3  14   11.69    4.75
  -3   3 -15    0.72    1.63
   3  -3  15    5.92    4.98
  -3   2  15    8.52    4.94
  -3   2  14    3.53    3.91
   3  -2 -14    8.87    3.91
  -3   2  14    2.92    3.36
   3  -2 -13   13.97    5.09
  -3   2  13   17.16    5.86
  -3   2  13    9.07    4.67
  -3   2  12   10.51    4.87
   3  -2 -12    9.39    3.49
  -3   2  12   15.96    5.02
  -3   2  11    2.33    2.70
   3  -2 -11    7.31    2.64
  -3   2  11    2.41    2.22
  -3   2  10   43.81    7.99
   3  -2 -10   40.56    7.02
  -3   2  10   34.30    6.36
  -3   2   9  570.26   27.40
   3  -2  -9  524.52   24.62
  -3   2   8  463.06   23.85
   3  -2  -8  468.59   22.41
  -3   2   8  413.61   19.30
  -3   2   7  421.45    9.39
   3  -2  -7  468.41    9.79
   3  -2  -7  452.61   20.96
  -3   2   7  426.98   18.08
   3  -2  -6   38.47    5.78
   3  -2  -6   42.33    3.29
  -3   2   6   29.79    5.43
  -3   2   6   35.55    3.05
  -3   2   6   30.65    4.28
   3  -2  -5  257.45    8.92
  -3   2   5  267.43    9.20
   3  -2  -5  262.91   14.61
   3  -2  -5  238.89   10.58
  -3   2   5  279.70   11.90
  -3   2   4  147.62    7.42
   3  -2  -4  139.95    6.99
  -3   2   4  128.56   10.33
   3  -2  -4  141.92   10.45
   3  -2  -4  133.39    6.96
  -3   2   4  145.20    7.44
   3  -2  -3  127.24    6.99
  -3   2   3  135.98   10.18
  -3   2   3  134.78    7.54
   3  -2  -3  139.65    5.86
  -3   2   3  153.33    6.38
   3  -2  -3  152.08   10.21
   3  -2  -2    2.71    1.11
  -3   2   2    2.21    1.67
  -3   2   2    1.83    1.28
  -3   2   2    1.00    0.46
   3  -2  -1  413.72   14.30
  -3   2   1  438.17   14.71
   3  -2   0   -0.22    0.19
   3  -2   0   -0.65    0.71
  -3   2   0    0.66    1.43
  -3   2   0    1.65    0.88
   3  -2   1 1544.17   28.26
  -3   2  -1 1599.69   28.89
   3  -2   1 1582.95   30.23
   3  -2   2  173.71    9.22
  -3   2  -2  185.02    9.52
   3  -2   2  196.25   11.13
  -3   2  -2  182.43    5.98
   3  -2   2  178.53    5.88
   3  -2   3   -0.85    0.20
  -3   2  -3    0.41    1.07
  -3   2  -3    0.94    0.82
   3  -2   3   -0.86    0.70
   3  -2   3   -0.39    0.32
   3  -2   4  372.74   13.51
  -3   2  -4  373.59   13.25
  -3   2  -4  373.52   12.71
   3  -2   4  371.52   12.15
   3  -2   5  142.66    8.76
  -3   2  -5  157.70    8.90
   3  -2   5  140.87   10.73
  -3   2  -5  147.67    8.96
   3  -2   5  131.49    8.17
   3  -2   6    2.11    1.76
   3  -2   6    3.55    1.76
  -3   2  -6    1.97    1.27
   3  -2   6    1.28    1.18
   3  -2   7    5.63    2.37
  -3   2  -7   12.28    3.62
  -3   2  -7    6.47    2.16
   3  -2   7   13.12    3.22
  -3   2  -8   83.42    7.61
  -3   2  -8   83.14    9.38
   3  -2   8   74.62    8.82
   3  -2   8   81.70    8.23
  -3   2  -9  139.19   12.67
  -3   2  -9  109.36    9.06
   3  -2   9  103.67   10.78
   3  -2   9  112.59   10.68
  -3   2 -10    5.44    2.16
   3  -2  10    5.62    2.94
   3  -2  10    4.94    2.52
  -3   2 -10    4.40    2.02
  -3   2 -11   13.53    4.70
   3  -2  11   12.45    4.24
   3  -2  11   22.20    5.47
  -3   2 -11   23.27    4.51
   3  -2  12   12.22    4.19
  -3   2 -12    9.96    4.26
   3  -2  12   11.64    3.74
  -3   2 -12    7.84    2.67
   3  -2  13    6.47    3.31
  -3   2 -13   10.44    4.66
   3  -2  13    2.20    3.24
  -3   2 -14    8.98    4.71
   3  -2  14    8.98    3.63
   3  -2  14   15.62    5.58
  -3   2 -15   16.06    6.16
   3  -2  15   26.86    7.17
  -3   1  15   52.04   10.38
   3  -1 -15   55.43   10.10
  -3   1  15   32.08    8.44
   3  -1 -14    1.62    1.69
  -3   1  14   -0.03    0.78
  -3   1  13    7.87    3.45
   3  -1 -13    2.88    3.70
  -3   1  13    4.55    3.49
  -3   1  12   26.13    6.04
   3  -1 -12   23.37    5.39
  -3   1  12   19.81    5.50
  -3   1  11   84.66   11.27
   3  -1 -11   82.34   10.22
  -3   1  11   59.25    8.87
   3  -1 -10  109.51   11.11
  -3   1  10  106.37   10.99
   3  -1  -9   69.08    8.62
  -3   1   9   65.04    7.98
   3  -1  -8  157.17   12.25
  -3   1   8  131.87   10.50
  -3   1   7   25.99    5.25
   3  -1  -7   35.73    5.48
  -3   1   7   20.74    4.08
  -3   1   6  247.75   15.34
  -3   1   6  256.40    6.80
   3  -1  -6  263.56   14.46
   3  -1  -6  270.82    7.12
  -3   1   6  242.87   12.04
  -3   1   5   12.89    1.73
  -3   1   5   13.74    3.36
   3  -1  -5   13.13    1.81
   3  -1  -5   10.74    2.39
   3  -1  -5   14.87    3.42
  -3   1   5   13.31    2.47
  -3   1   4    4.26    1.84
  -3   1   4    3.05    1.15
  -3   1   4    3.40    1.40
  -3   1   3   30.34    4.63
   3  -1  -3   40.88    3.87
  -3   1   3   41.32    3.31
   3  -1  -3   40.51    5.03
  -3   1   3   37.52    3.79
  -3   1   2 2505.40   38.65
   3  -1  -2 2503.06   31.83
  -3   1   2 2482.58   20.85
  -3   1   2 2454.90   32.55
  -3   1   2 2451.08   20.56
  -3   1   1  365.79   13.89
   3  -1  -1  323.47   12.29
  -3   1   1  316.41    5.77
  -3   1   1  293.94    5.83
  -3   1   1  346.37   12.95
  -3   1   0 1044.59   23.57
   3  -1   0 1037.44   21.24
  -3   1   0 1038.64   21.92
   3  -1   0 1116.18   24.15
   3  -1   1    1.77    0.76
   3  -1   1    0.61    0.83
  -3   1  -1    1.02    0.77
  -3   1  -1    0.78    0.54
   3  -1   1    1.05    1.09
   3  -1   2  214.86    9.06
  -3   1  -2  226.17    9.27
   3  -1   2  208.31   11.53
  -3   1  -2  204.76    7.58
   3  -1   2  194.28    7.24
   3  -1   3  321.21   10.90
  -3   1  -3  336.63   10.95
   3  -1   3  349.75   15.68
  -3   1  -3  312.85   10.92
   3  -1   3  332.08   11.10
   3  -1   4    8.15    2.59
   3  -1   4    8.28    1.69
  -3   1  -4    8.26    1.83
  -3   1  -4   12.34    2.56
   3  -1   4    7.65    2.13
   3  -1   5  199.49    9.21
  -3   1  -5  191.13    8.90
   3  -1   5  187.41   10.24
   3  -1   5  162.66   11.90
   3  -1   6   68.31    5.70
  -3   1  -6   63.21    5.47
   3  -1   6   62.24    7.46
   3  -1   6   64.19    6.70
   3  -1   7  223.57   10.95
  -3   1  -7  270.14   16.64
  -3   1  -7  247.09   11.43
   3  -1   7  238.88   13.69
   3  -1   7  203.89   14.30
  -3   1  -8   77.45    9.30
  -3   1  -8   70.23    6.26
   3  -1   8   62.99    7.68
   3  -1   8   75.43    8.83
  -3   1  -9   10.22    3.58
   3  -1   9    1.21    1.20
   3  -1   9   11.93    3.78
  -3   1  -9    5.17    1.94
   3  -1  10   24.66    5.54
  -3   1 -10   16.73    4.64
   3  -1  10   19.86    4.98
  -3   1 -10   12.44    3.03
   3  -1  11    2.63    2.64
  -3   1 -11    0.86    0.76
   3  -1  11    3.71    2.18
  -3   1 -11    1.71    1.54
  -3   1 -12   22.42    6.07
   3  -1  12   35.28    7.13
   3  -1  12   35.83    7.34
  -3   1 -13    2.74    1.88
   3  -1  13    4.59    2.51
   3  -1  13    3.42    2.47
   3  -1  14    9.63    4.35
  -3   1 -14   10.96    5.31
   3  -1  14   13.56    5.15
   3  -1  15    8.28    4.30
  -3   0  16   50.00   10.74
  -3   0  15    7.16    3.43
   3   0 -15    9.57    4.30
  -3   0  15   10.82    5.24
   3   0 -14    5.90    4.06
  -3   0  14    6.86    4.19
   3   0 -13   11.89    4.07
  -3   0  13    4.37    2.77
   3   0 -12    0.11    1.15
  -3   0  12   -0.67    0.73
   3   0 -11    5.83    3.32
  -3   0  11    5.43    2.88
   3   0 -10    0.51    1.64
  -3   0  10    1.24    2.20
   3   0  -9    9.19    3.42
  -3   0   9   15.48    4.10
   3   0  -8   37.22    5.68
  -3   0   8   28.09    4.75
   3   0  -7   72.21    7.49
  -3   0   7   71.37    7.07
  -3   0   6    8.09    1.14
   3   0  -6    8.95    1.12
   3   0  -6   10.05    3.04
  -3   0   6    8.07    2.43
   3   0  -5  105.49    8.38
  -3   0   5  106.79    4.99
  -3   0   5  103.78    7.14
   3   0  -5   99.08    4.73
   3   0  -4  105.96    7.91
  -3   0   4  107.90    6.53
   3   0  -4  106.81    5.60
  -3   0   4  116.31    5.97
  -3   0   3  929.15   16.81
   3   0  -3  918.02   18.04
  -3   0   3  939.04   18.78
  -3   0   2  869.93   19.56
  -3   0   2  854.82   20.82
  -3   0   2  921.49   22.58
  -3   0   2  871.96   14.50
   3   0  -2  860.50   18.95
  -3   0   2  843.05   20.21
  -3   0   2  838.78   14.46
  -3   0   1   14.40    2.53
  -3   0   1   14.70    2.90
   3   0  -1   15.30    2.80
  -3   0   1   18.22    2.59
  -3   0   1   17.64    2.07
  -3   0   0 1557.56   23.88
  -3   0   0 1483.34   28.76
   3   0   0 1478.87   28.10
  -3   0   0 1505.16   19.38
   3   0   0 1462.93   18.71
   3   0   1  764.17   14.96
  -3   0  -1  765.20   15.44
   3   0   1  763.24   21.20
  -3   0  -1  731.93   15.05
   3   0   1  713.44   14.53
   3   0   2  112.86    5.34
  -3   0  -2  112.91    5.49
   3   0   2  114.44    8.62
  -3   0  -2  111.75    6.60
   3   0   2  102.72    6.12
   3   0   3  174.91    6.55
  -3   0  -3  184.64    6.64
  -3   0  -3  158.83    8.67
   3   0   3  166.17    8.64
   3   0   4    9.56    1.65
   3   0   4    9.63    2.84
  -3   0  -4    9.09    1.76
   3   0   4    9.54    2.50
   3   0   5  270.50    9.19
  -3   0  -5  289.41    9.39
   3   0   5  261.54   12.87
   3   0   5  256.48   14.93
   3   0   6  286.17   10.37
  -3   0  -6  268.82   15.99
  -3   0  -6  309.84   10.37
   3   0   6  265.41   13.96
   3   0   6  245.50   15.43
   3   0   7   21.74    3.07
  -3   0  -7   27.77    5.51
  -3   0  -7   26.34    3.29
   3   0   7   18.86    4.03
   3   0   7   18.77    4.26
   3   0   8   10.67    3.56
  -3   0  -8    9.08    3.76
   3   0   8    9.58    2.99
  -3   0  -8   10.18    2.42
   3   0   9   36.20    6.91
  -3   0  -9   32.65    6.62
  -3   0  -9   33.22    4.49
   3   0   9   30.11    5.85
  -3   0 -10    3.59    1.79
   3   0  10    3.66    2.65
  -3   0 -10    3.00    2.61
  -3   0 -11    0.96    2.77
   3   0  11    3.17    3.56
   3   0  11    4.34    3.32
  -3   0 -12   30.02    7.35
   3   0  12   22.44    5.52
   3   0  12   42.50    8.11
   3   0  13    3.29    1.23
   3   0  13    2.71    2.20
  -3   0 -14    1.80    2.92
   3   0  14    1.95    0.57
   3   0  14    5.40    3.89
   3   1 -16   14.29    4.69
  -3  -1  16   16.71    6.59
   3   1 -15   -0.74    2.02
  -3  -1  15    1.19    1.79
   3   1 -14   16.46    5.27
  -3  -1  14    9.21    4.57
   3   1 -13    6.43    3.23
  -3  -1  13    5.01    2.79
   3   1 -12  105.14   11.08
  -3  -1  12   87.56   11.25
   3   1 -11   10.79    3.20
  -3  -1  11   11.69    4.09
   3   1 -10   13.50    3.57
  -3  -1  10   13.49    3.82
   3   1  -9  205.77   15.13
   3   1  -9  192.80   12.84
  -3  -1   9  179.11   13.12
   3   1  -8  232.62   13.40
  -3  -1   8  229.30   13.85
   3   1  -8  259.94   16.16
   3   1  -7    7.01    2.57
  -3  -1   7    9.25    2.68
   3   1  -7    7.68    2.31
  -3  -1   6  287.06    6.87
   3   1  -6  270.02   13.08
  -3  -1   6  259.91   12.67
  -3  -1   6  286.07    7.05
   3   1  -6  296.64   15.13
  -3  -1   5    2.84    1.03
   3   1  -5    0.70    0.74
  -3  -1   5    1.72    0.97
   3   1  -5    1.77    0.62
  -3  -1   4    5.77    1.55
  -3  -1   4    6.51    1.90
   3   1  -4    6.23    1.60
   3   1  -3  177.66    8.23
  -3  -1   3  170.08    8.49
  -3  -1   3  162.43    9.08
  -3  -1   3  182.56    9.49
  -3  -1   3  180.78    8.40
  -3  -1   2   77.16    6.11
  -3  -1   2   79.01    5.68
  -3  -1   2   76.08    6.22
  -3  -1   2   76.89    5.20
   3   1  -2   80.33    6.00
  -3  -1   1  300.01   10.35
  -3  -1   1  284.83   12.53
  -3  -1   1  298.77    9.92
  -3  -1   1  295.78   10.26
   3   1  -1  287.63   12.16
  -3  -1   0  143.38    6.40
  -3  -1   0  135.41    5.84
  -3  -1   0  123.75    6.87
   3   1   0  128.03    8.42
   3   1   0  139.84    7.01
  -3  -1  -1   96.05    4.42
  -3  -1  -1   94.73    6.32
  -3  -1  -1   92.93    4.06
   3   1   1  101.36    6.48
   3   1   1   92.64    7.66
   3   1   2    2.25    0.93
  -3  -1  -2    0.34    0.29
  -3  -1  -2    0.00    0.09
  -3  -1  -2    0.76    0.96
   3   1   2    0.82    1.51
   3   1   3   35.02    4.33
   3   1   3   33.23    5.31
  -3  -1  -4   39.13    2.14
   3   1   4   48.17    5.68
   3   1   4   45.35    5.99
   3   1   5  238.83   14.49
   3   1   5  228.67    6.81
  -3  -1  -5  221.38   14.14
  -3  -1  -5  252.21    6.85
   3   1   5  263.92   13.84
   3   1   6  262.58   16.48
   3   1   6  282.80    8.96
  -3  -1  -6  259.61   16.23
  -3  -1  -6  298.14    8.84
   3   1   6  278.44   15.18
   3   1   7   24.81    2.98
  -3  -1  -7   26.21    5.42
   3   1   7   20.67    5.12
  -3  -1  -7   30.08    3.25
   3   1   7   26.38    4.86
   3   1   8  647.06   27.03
  -3  -1  -8  653.78   28.25
   3   1   8  746.88   28.32
  -3  -1  -8  729.28   17.67
   3   1   9   39.27    7.00
  -3  -1  -9   41.73    7.51
   3   1   9   40.68    6.75
  -3  -1 -10   29.33    6.86
   3   1  10   42.17    7.42
   3   1  10   40.33    7.63
   3   1  11   10.34    4.00
  -3  -1 -11   10.92    4.84
   3   1  11   18.36    5.24
  -3  -1 -12   18.19    5.59
   3   1  12   17.52    4.90
   3   1  12   14.22    5.00
  -3  -1 -13    1.63    2.07
  -3  -1 -13    4.67    4.24
   3   1  13    0.57    1.97
   3   1  14   17.26    6.36
   3   2 -17    8.81    4.25
   3   2 -16   10.02    3.50
  -3  -2  16    9.22    5.11
   3   2 -15   41.44    7.84
  -3  -2  15   46.31    9.64
   3   2 -14   16.48    4.89
  -3  -2  14   18.07    6.08
   3   2 -13  108.78   11.27
  -3  -2  13  102.35   12.83
   3   2 -13  115.72   13.43
   3   2 -12    4.56    3.15
   3   2 -12    9.24    3.32
  -3  -2  12   11.13    4.07
   3   2 -11  275.38   16.10
  -3  -2  11  251.77   17.61
   3   2 -11  282.20   19.31
   3   2 -10   66.21    7.48
  -3  -2  10   74.73    9.11
   3   2 -10   79.91    9.69
   3   2  -9  259.50   14.09
  -3  -2   9  237.12   15.25
   3   2  -8  126.17    9.32
  -3  -2   8  132.41   10.81
  -3  -2   7  197.14    5.17
   3   2  -7  197.06   11.05
  -3  -2   7  187.46   11.93
  -3  -2   7  185.65    5.18
   3   2  -6  461.91   16.03
  -3  -2   6  474.12   10.86
  -3  -2   6  444.32   10.79
  -3  -2   6  421.61   16.53
   3   2  -6  467.54   19.03
   3   2  -5   15.29    3.09
  -3  -2   5   13.69    2.10
  -3  -2   5    8.56    2.34
  -3  -2   5    9.34    2.66
  -3  -2   5   10.74    2.05
  -3  -2   4  486.33   13.83
  -3  -2   4  478.65   15.58
  -3  -2   4  461.70   15.02
  -3  -2   4  473.89   14.09
   3   2  -4  500.42   16.65
  -3  -2   3   24.40    3.48
  -3  -2   3   23.10    3.39
   3   2  -3   17.27    2.70
  -3  -2   3   24.91    3.56
   3   2  -3   23.57    3.30
  -3  -2   3   24.02    3.48
   3   2  -2  303.10   12.60
  -3  -2   2  309.06   12.94
  -3  -2   2  289.42   10.67
  -3  -2   2  302.25   11.72
  -3  -2   1    1.42    1.19
   3   2  -1    2.48    1.28
   3   2  -1    1.25    1.02
  -3  -2   1    0.93    0.47
   3   2   0    3.48    1.46
  -3  -2   0    2.39    0.83
  -3  -2   0    3.07    0.89
   3   2   0    2.44    0.80
  -3  -2   0    3.00    1.32
   3   2   1  434.12   17.80
  -3  -2  -1  402.15   14.87
   3   2   1  441.54   15.18
   3   2   2   14.13    3.84
   3   2   2   19.12    3.61
   3   2   3  522.25   20.72
  -3  -2  -3  505.24   19.75
   3   2   3  532.52   18.71
  -3  -2  -4    7.66    2.82
   3   2   4   10.21    2.85
   3   2   4   11.75    3.39
   3   2   5  570.02   23.31
  -3  -2  -5  594.55   23.81
   3   2   5  598.95   22.26
   3   2   6  147.15    5.30
  -3  -2  -6  152.67   12.67
   3   2   6  145.50   12.31
   3   2   7   14.33    2.01
  -3  -2  -7   15.90    3.92
   3   2   7   15.81    4.37
   3   2   7   15.32    3.92
   3   2   8   -0.09    0.80
   3   2   8    0.46    0.41
  -3  -2  -8    0.54    0.26
  -3  -2  -9   94.56   11.76
   3   2   9  117.27   12.65
   3   2   9  110.02   12.45
   3   2  10   20.12    5.54
  -3  -2 -10   10.43    4.29
   3   2  10   23.90    5.81
  -3  -2 -11   12.85    4.14
  -3  -2 -11    4.35    2.41
   3   2  11   10.44    4.24
  -3  -2 -12   -0.08    0.65
   3   2  12   -1.59    0.93
  -3  -2 -13    7.49    2.78
  -3  -2 -13    8.71    5.30
   3   2  13    2.31    3.17
   3   3 -17   10.41    5.00
   3   3 -16   33.57    7.40
  -3  -3  16   19.11    6.58
   3   3 -15   40.70    9.33
   3   3 -15   35.67    6.85
  -3  -3  15   45.35    9.49
   3   3 -14   48.90    9.34
   3   3 -14   37.87    6.83
  -3  -3  14   39.46    8.29
   3   3 -13   65.53    8.59
  -3  -3  13   75.47   10.91
   3   3 -13   72.12   10.70
   3   3 -12  119.96   10.72
  -3  -3  12  104.48   12.25
   3   3 -12  138.15   14.08
   3   3 -11  132.54   10.77
  -3  -3  11  113.23   11.97
   3   3 -11  153.02   14.25
   3   3 -10    2.75    2.73
   3   3 -10    1.87    0.95
  -3  -3  10    1.62    1.47
   3   3  -9  462.02   17.70
  -3  -3   9  413.59   20.33
   3   3  -9  459.35   21.87
  -3  -3   8   51.44    2.99
   3   3  -8   49.78    5.53
  -3  -3   8   46.84    6.44
   3   3  -8   62.72    7.77
  -3  -3   8   51.18    3.06
   3   3  -7    5.57    2.29
  -3  -3   7    6.44    1.37
   3   3  -7    9.30    2.50
  -3  -3   7    6.38    2.51
  -3  -3   7    8.44    1.55
  -3  -3   6  126.27    6.69
  -3  -3   6  115.60    7.55
  -3  -3   6  113.66    8.95
  -3  -3   6  128.21    6.87
   3   3  -6  117.85    9.44
  -3  -3   5  617.46   16.15
  -3  -3   5  569.03   16.11
  -3  -3   5  558.31   15.60
   3   3  -5  592.02   19.24
  -3  -3   4   21.38    3.23
  -3  -3   4   15.71    2.53
   3   3  -4   17.34    3.14
  -3  -3   4   17.43    3.11
  -3  -3   3  533.33   16.75
  -3  -3   3  511.03   14.70
  -3  -3   3  527.14   15.94
   3   3  -3  491.71   14.86
  -3  -3   3  476.99   16.37
   3   3  -2    6.71    1.63
  -3  -3   2    7.89    2.50
  -3  -3   2    1.31    1.46
  -3  -3   2    5.17    1.40
  -3  -3   1  247.27    8.25
   3   3  -1  282.69   13.37
   3   3  -1  265.79    8.19
   3   3  -1  270.52   12.10
  -3  -3   0   79.64    3.53
  -3  -3   0   79.42    3.70
   3   3   0   84.19    7.68
   3   3   0   83.80    7.05
   3   3   1   77.46    7.65
   3   3   1   80.91    7.27
  -3  -3  -2   29.28    4.55
   3   3   2   44.50    6.04
   3   3   2   33.92    5.06
  -3  -3  -3   42.36    5.95
   3   3   3   51.63    6.67
   3   3   3   52.91    6.53
   3   3   4    0.28    1.35
  -3  -3  -4    2.13    1.70
   3   3   4    0.84    1.59
   3   3   5   11.65    4.17
  -3  -3  -5   13.79    3.56
   3   3   5   21.10    4.46
  -3  -3  -6    4.30    2.72
   3   3   6    6.55    3.08
   3   3   6    5.04    2.16
  -3  -3  -7  288.75   19.05
   3   3   7  319.46   19.59
   3   3   7  320.36   19.41
  -3  -3  -8   56.82    8.31
  -3  -3  -8   40.87    7.68
   3   3   8   72.21    9.63
  -3  -3  -9  176.38   14.82
  -3  -3  -9  158.81   15.60
   3   3   9  171.49   15.97
  -3  -3 -10   -2.26    2.13
  -3  -3 -10   -0.32    1.43
   3   3  10    0.51    3.11
  -3  -3 -11    3.59    3.09
  -3  -3 -11    2.96    1.83
   3   3  11    3.35    2.56
  -3  -3 -12    4.29    3.07
  -3  -3 -12    1.37    2.66
   3   3  12    1.94    2.72
  -3  -3 -13   38.67    7.51
   3   4 -16   18.19    6.46
   3   4 -16   15.21    4.98
  -3  -4  16   16.45    6.94
   3   4 -15   33.92    7.67
   3   4 -15   33.87    6.64
  -3  -4  15   40.23    8.74
   3   4 -14   12.10    5.59
   3   4 -14   13.59    3.99
  -3  -4  14   10.83    4.51
   3   4 -13   61.94    7.86
   3   4 -13   61.35    9.83
  -3  -4  13   52.27    8.78
   3   4 -12  339.71   17.33
  -3  -4  12  326.57   21.43
   3   4 -11    0.97    1.00
   3   4 -11    0.81    0.87
   3   4 -10   35.44    4.88
  -3  -4  10   34.53    6.54
   3   4 -10   43.64    7.32
   3   4  -9   16.47    4.17
  -3  -4   9   10.90    1.69
   3   4  -9   12.09    2.81
  -3  -4   9    6.58    2.74
   3   4  -8    0.67    0.95
  -3  -4   8   -0.29    0.37
  -3  -4   8    1.12    1.53
  -3  -4   8    0.00    0.09
   3   4  -8    2.03    1.82
  -3  -4   7  288.69   10.76
  -3  -4   7  257.51   11.00
  -3  -4   7  239.20   14.14
   3   4  -7  279.67   15.21
  -3  -4   7  272.83   10.69
  -3  -4   6  296.51   11.79
  -3  -4   6  262.34   10.48
   3   4  -6  268.86   13.98
  -3  -4   6  272.45   11.41
  -3  -4   5  129.28    8.23
  -3  -4   5  147.89    8.82
  -3  -4   5  140.59    7.33
   3   4  -5  140.72    9.27
  -3  -4   4    0.15    0.82
  -3  -4   4    0.86    0.85
   3   4  -4    0.52    0.61
  -3  -4   3  846.84   17.93
  -3  -4   3  813.29   19.89
   3   4  -3  807.16   18.73
  -3  -4   2  175.23   10.84
  -3  -4   2  208.81    8.91
   3   4  -2  202.56    8.51
   3   4  -2  198.48   11.37
   3   4  -1   12.37    3.32
  -3  -4   1    6.14    2.63
  -3  -4   1    7.90    1.42
   3   4  -1    6.44    1.43
   3   4   0   12.16    2.99
  -3  -4   0    7.97    1.20
  -3  -4   0   10.21    2.75
   3   4   0    9.36    1.29
  -3  -4  -1  110.62    9.75
  -3  -4  -1  111.20    8.42
   3   4   1  122.25    9.62
   3   4   2   -0.89    1.39
  -3  -4  -2   -0.81    0.68
  -3  -4  -2    0.62    0.93
  -3  -4  -3   65.00    7.81
  -3  -4  -3   56.74    6.86
   3   4   3   74.96    8.42
  -3  -4  -4   28.05    5.38
  -3  -4  -4   22.37    4.65
   3   4   4   31.68    5.76
  -3  -4  -5  273.47   17.09
   3   4   5  241.19   16.32
  -3  -4  -6   45.39    7.22
  -3  -4  -6   35.24    6.59
   3   4   6   40.26    6.76
  -3  -4  -7  394.70   21.83
  -3  -4  -7  370.76   22.25
   3   4   7  391.01   22.43
  -3  -4  -8   17.39    5.01
  -3  -4  -8   15.14    4.92
   3   4   8   16.20    5.27
  -3  -4  -9    3.53    2.52
  -3  -4  -9    1.37    2.58
   3   4   9    2.39    1.95
  -3  -4 -10   25.58    6.03
  -3  -4 -10   18.66    6.24
   3   4  10   23.71    6.50
  -3  -4 -11    2.97    3.60
  -3  -4 -11    1.33    2.52
   3   4  11    7.38    4.49
  -3  -4 -12    0.42    2.22
  -3  -4 -12    1.01    2.84
   3   4  12    6.21    4.60
   3   5 -16   19.52    6.27
  -3  -5  16   21.31    6.46
  -3  -5  15   75.41   12.11
   3   5 -15   89.69   13.11
   3   5 -14   10.69    5.05
   3   5 -14   12.28    3.69
  -3  -5  14    9.55    4.51
   3   5 -13  148.99   11.49
  -3  -5  13  133.45   14.61
   3   5 -13  164.99   16.10
   3   5 -12   63.92    7.06
  -3  -5  12   82.15   11.09
   3   5 -12   96.54   11.57
   3   5 -11   34.58    4.84
  -3  -5  11   31.56    6.82
  -3  -5  10    9.33    1.89
   3   5 -10   14.39    3.10
  -3  -5  10    8.88    3.37
  -3  -5   9  193.73    8.95
   3   5  -9  196.22   10.15
  -3  -5   9  175.33   13.87
   3   5  -9  188.22   13.77
  -3  -5   8   35.52    4.14
  -3  -5   8   35.80    4.30
  -3  -5   8   31.97    3.81
  -3  -5   8   32.53    5.63
   3   5  -8   30.23    5.44
  -3  -5   7   39.31    4.49
  -3  -5   7   49.99    5.21
  -3  -5   7   48.10    4.24
  -3  -5   7   47.90    6.72
   3   5  -7   48.95    6.37
  -3  -5   6  203.22   10.91
  -3  -5   6  206.44    8.32
   3   5  -6  201.01   11.97
  -3  -5   5  425.65   11.41
   3   5  -5  386.75   15.58
  -3  -5   4 1287.22   19.87
   3   5  -4 1274.84   25.96
  -3  -5   3    1.62    1.21
  -3  -5   3    3.12    1.47
   3   5  -3    1.44    0.50
   3   5  -2    4.90    2.41
  -3  -5   2    2.07    0.79
  -3  -5   2    4.15    1.22
   3   5  -2    3.78    1.39
   3   5  -1    3.40    2.00
  -3  -5   1    2.95    1.39
  -3  -5   1    3.05    1.43
  -3  -5   1    1.64    0.68
   3   5  -1    1.35    0.82
  -3  -5   0   82.89    8.59
  -3  -5   0   81.94    4.33
  -3  -5   0   77.58    6.72
   3   5   0   74.19    3.86
   3   5   0   85.17    8.29
   3   5   1   18.30    4.12
  -3  -5  -1   10.64    3.18
  -3  -5  -1   10.72    2.62
  -3  -5  -2   31.20    5.45
  -3  -5  -2   31.26    4.85
   3   5   2   33.02    5.87
  -3  -5  -3  222.19   15.21
  -3  -5  -3  211.58   13.69
   3   5   3  236.71   15.72
  -3  -5  -4   25.33    5.28
  -3  -5  -4   13.84    4.12
   3   5   5    3.65    2.48
  -3  -5  -5    1.54    1.21
  -3  -5  -5    6.34    3.26
   3   5   6   29.01    6.06
  -3  -5  -6   35.02    6.47
  -3  -5  -6   30.27    6.30
  -3  -5  -7  152.29   14.17
  -3  -5  -7  115.37   12.81
   3   5   7  120.49   13.18
   3   5   8   17.06    4.55
  -3  -5  -8    9.34    3.40
  -3  -5  -8    9.82    3.98
   3   5   9   13.23    4.84
  -3  -5  -9   20.77    6.27
  -3  -5  -9   10.67    4.72
  -3  -5 -10   63.11   10.15
  -3  -5 -10   44.17    9.51
  -3  -5 -11   37.98    7.85
  -3  -5 -11   24.98    7.15
   3   5  11   30.10    8.10
  -3  -5 -12   18.91    6.42
   3   6 -16   62.13   11.24
  -3  -6  16   38.36    8.80
   3   6 -15    3.71    3.45
  -3  -6  15    2.40    4.21
   3   6 -14    4.46    3.28
  -3  -6  14    2.39    0.98
  -3  -6  13    0.35    2.06
   3   6 -13   -0.29    0.24
   3   6 -12    2.17    1.34
  -3  -6  12    3.45    3.39
   3   6 -12    2.11    2.47
   3   6 -11  226.77   11.61
   3   6 -11  250.29   17.76
  -3  -6  10  207.28   10.27
   3   6 -10  187.40    9.62
  -3  -6  10  180.05   15.00
   3   6 -10  223.84   16.18
  -3  -6   9   24.38    3.91
  -3  -6   9   19.94    5.04
   3   6  -9   20.08    4.66
  -3  -6   8  356.64   14.83
  -3  -6   8  369.10   19.97
  -3  -6   7  774.42   22.85
  -3  -6   7  809.59   14.99
   3   6  -7  795.12   25.62
  -3  -6   6   12.90    1.71
  -3  -6   6   19.00    3.54
   3   6  -6   18.57    3.42
  -3  -6   5   66.59    7.19
  -3  -6   5   74.61    4.01
   3   6  -5   65.60    6.65
  -3  -6   4  641.71   22.99
  -3  -6   4  685.44   13.07
   3   6  -4  639.34   19.21
  -3  -6   3  357.46   17.62
  -3  -6   3  390.48   11.32
  -3  -6   3  378.27   14.61
   3   6  -3  345.19   12.93
  -3  -6   2   73.42    8.23
  -3  -6   2   79.76    6.24
  -3  -6   2   93.00    6.19
   3   6  -2   84.40    5.87
   3   6  -2   85.15    8.80
  -3  -6   1  497.01   21.84
  -3  -6   1  530.84   14.60
  -3  -6   1  526.12   16.20
   3   6  -1  552.65   13.65
   3   6  -1  563.90   22.78
   3   6   0   -0.68    1.30
  -3  -6   0    0.73    0.51
  -3  -6   0    0.52    1.52
  -3  -6   0    1.78    1.18
   3   6   0    0.90    0.68
  -3  -6  -1   21.44    2.04
  -3  -6  -1   39.32    6.48
  -3  -6  -1   25.88    4.27
   3   6   1   24.62    2.05
   3   6   1   37.68    6.05
  -3  -6  -2   58.11    8.16
  -3  -6  -2   45.29    6.13
   3   6   2   54.64    7.67
   3   6   3    3.72    2.63
  -3  -6  -3    5.17    2.72
  -3  -6  -3    3.59    2.12
   3   6   4    7.84    3.21
  -3  -6  -4    6.69    3.72
  -3  -6  -4    8.27    3.02
   3   6   5    4.32    3.42
  -3  -6  -5    2.60    2.59
  -3  -6  -5    0.65    1.85
   3   6   6   12.78    4.28
  -3  -6  -6   23.67    7.10
  -3  -6  -6   13.75    4.69
   3   6   7    1.01    1.24
  -3  -6  -7    2.25    3.67
  -3  -6  -7    4.49    2.96
   3   6   8   10.48    5.38
  -3  -6  -8   -0.44    1.73
  -3  -6  -8    6.28    3.67
   3   6   9    9.45    4.30
  -3  -6  -9    4.64    4.27
  -3  -6  -9    4.51    3.16
  -3  -6 -10    0.47    1.32
  -3  -6 -10   -0.35    0.64
  -3  -6 -11   94.52   12.95
   3   7 -16    4.22    3.03
  -3  -7  16    2.72    3.13
   3   7 -15   49.42    9.71
  -3  -7  15   53.53    9.74
  -3  -7  14    3.29    3.91
   3   7 -14    3.25    3.55
  -3  -7  13   13.11    4.58
   3   7 -13   23.16    6.41
  -3  -7  12    2.73    3.03
   3   7 -12    0.66    1.75
   3   7 -11   46.09    7.59
  -3  -7  11   46.93    8.00
  -3  -7  10   21.69    3.68
  -3  -7  10   16.56    4.85
   3   7 -10   23.98    5.37
  -3  -7   9   18.27    4.68
   3   7  -9   12.47    3.85
  -3  -7   9   19.81    3.79
  -3  -7   8  957.18   27.19
   3   7  -8 1032.57   31.64
  -3  -7   7   32.43    4.96
   3   7  -7   41.82    6.28
  -3  -7   6    1.92    1.69
   3   7  -6    1.22    1.29
  -3  -7   5    4.56    2.19
   3   7  -5    3.26    1.49
  -3  -7   4   28.17    2.29
  -3  -7   4   24.62    4.85
  -3  -7   4   32.74    2.54
  -3  -7   3  227.09   15.06
   3   7  -3  248.26   11.84
  -3  -7   3  271.43    9.05
  -3  -7   2  125.02   11.36
  -3  -7   2  117.50    8.18
  -3  -7   2  139.62    7.59
   3   7  -2  130.25    7.85
   3   7  -2  114.21   11.41
   3   7  -1   18.52    4.89
  -3  -7   1   19.80    3.20
  -3  -7   1   20.73    3.10
  -3  -7   1   21.00    5.06
   3   7  -1   25.52    3.18
  -3  -7   0  145.26   12.92
  -3  -7   0  133.38    9.17
   3   7   0  145.59    6.93
   3   7   0  130.19   11.92
  -3  -7  -1  419.73   22.67
  -3  -7  -1  446.85   18.35
   3   7   1  442.55   10.57
  -3  -7  -2   52.02    8.12
  -3  -7  -2   40.69    5.92
   3   7   2   46.94    8.08
   3   7   3    7.16    3.21
  -3  -7  -3   10.23    3.64
  -3  -7  -3    5.62    2.52
   3   7   4    2.32    3.27
  -3  -7  -4    6.95    3.37
  -3  -7  -4    3.64    1.96
   3   7   5   12.45    5.61
  -3  -7  -5   14.31    4.55
  -3  -7  -5   11.45    3.96
   3   7   6    6.45    3.55
  -3  -7  -6    7.63    3.72
  -3  -7  -6    2.50    2.29
   3   7   7    3.94    2.74
  -3  -7  -7    8.30    4.00
  -3  -7  -7    4.19    3.17
   3   7   8    8.05    4.03
  -3  -7  -8    7.69    3.73
  -3  -7  -8   -0.18    1.99
   3   7   9   35.98    8.92
  -3  -7  -9   33.98    7.89
  -3  -7  -9   27.16    7.87
  -3  -7 -10   37.27    8.91
  -3  -7 -10   47.14    9.40
  -3  -8  15   29.48    8.26
   3   8 -15   35.30    8.23
  -3  -8  14    8.76    5.13
   3   8 -14    1.93    1.47
  -3  -8  13   24.44    6.68
   3   8 -13   41.14    8.17
  -3  -8  12    6.60    3.77
   3   8 -12    1.11    1.74
  -3  -8  11  175.35   16.12
   3   8 -11  181.39   15.20
  -3  -8  10    0.64    0.29
  -3  -8  10    0.68    0.62
   3   8 -10    0.50    2.16
  -3  -8   9    8.65    4.27
   3   8  -9   15.32    4.21
  -3  -8   9   15.01    3.47
  -3  -8   8   27.23    4.72
   3   8  -8   31.35    5.78
  -3  -8   7   99.78    9.81
   3   8  -7  105.00    9.73
  -3  -8   6    1.46    1.79
   3   8  -6    0.64    0.68
  -3  -8   5    7.48    3.11
   3   8  -5    0.30    1.29
  -3  -8   4    4.15    2.47
   3   8  -4    1.89    1.52
  -3  -8   3   70.57    8.89
  -3  -8   3   75.96    4.44
   3   8  -3   76.91    6.88
  -3  -8   2  307.87   19.22
  -3  -8   2  366.68   12.17
   3   8  -2  319.86   13.22
   3   8  -2  343.57   20.30
  -3  -8   1   49.44    7.92
  -3  -8   1   43.57    4.78
   3   8  -1   43.88    4.53
   3   8  -1   51.91    8.08
  -3  -8   0  402.74   22.62
  -3  -8   0  390.11   15.97
   3   8   0  417.20   13.08
   3   8   0  424.72   23.31
   3   8   1   21.57    5.52
  -3  -8  -1   20.25    3.98
  -3  -8  -1   17.12    4.67
   3   8   2   13.89    4.75
  -3  -8  -2    8.89    3.12
  -3  -8  -2   11.56    4.42
   3   8   3   -0.52    1.21
  -3  -8  -3   -1.79    0.95
   3   8   4    2.74    2.22
  -3  -8  -4    1.64    2.06
  -3  -8  -4    3.96    3.11
   3   8   5   29.87    7.44
  -3  -8  -5   22.42    5.85
  -3  -8  -5   28.77    7.07
   3   8   6    4.50    2.22
  -3  -8  -6    3.72    3.22
  -3  -8  -6    7.60    4.04
   3   8   7   23.00    6.93
  -3  -8  -7   23.00    6.34
  -3  -8  -7   40.42    8.49
   3   8   8    9.71    5.40
  -3  -8  -8    4.78    3.39
  -3  -8  -8   14.14    5.22
  -3  -8  -9    6.30    3.93
  -3  -8  -9   16.55    6.54
  -3  -9  15    7.14    4.00
   3   9 -15   11.32    5.35
  -3  -9  14   24.33    7.38
   3   9 -14   22.55    6.04
  -3  -9  13    9.19    3.93
   3   9 -13   10.84    4.11
  -3  -9  12   11.40    4.54
   3   9 -12   23.40    6.49
  -3  -9  11    0.01    1.37
   3   9 -11   -0.34    1.55
  -3  -9  10   19.58    4.24
  -3  -9  10   20.17    5.82
   3   9 -10   16.36    4.73
   3   9  -9   20.89    5.57
  -3  -9   9   17.02    4.10
  -3  -9   8    5.71    2.94
   3   9  -8    4.23    2.20
  -3  -9   7    0.02    1.17
   3   9  -7    0.99    1.98
  -3  -9   6    2.63    1.93
   3   9  -6    4.17    2.11
  -3  -9   5   19.44    4.94
   3   9  -5   24.86    4.87
  -3  -9   4   11.03    4.14
   3   9  -4    5.86    2.63
  -3  -9   3  210.17   16.27
   3   9  -3  222.69   12.40
   3   9  -2   10.18    3.90
  -3  -9   2   10.35    4.04
   3   9  -2    6.57    2.02
  -3  -9   1   79.45   10.56
   3   9  -1   72.17    6.15
   3   9  -1   96.11   11.71
  -3  -9   0   57.96    9.34
  -3  -9   0   58.20    6.19
   3   9   0   78.53   10.52
  -3  -9  -1  129.63   13.72
  -3  -9  -1  151.90   11.10
   3   9   1  174.71   16.12
  -3  -9  -2   -0.30    0.82
  -3  -9  -2    2.55    1.84
   3   9   3   51.86    9.53
  -3  -9  -3   42.36    6.90
  -3  -9  -3   47.79    8.81
  -3  -9  -4    2.72    2.41
  -3  -9  -4    1.16    2.26
   3   9   5    2.00    2.93
  -3  -9  -5    1.70    1.85
  -3  -9  -5    0.52    3.68
  -3  -9  -6  115.96   13.47
  -3  -9  -6  122.58   14.85
   3   9   6  140.93   16.76
  -3  -9  -7   14.95    5.22
  -3  -9  -7   26.36    8.05
  -3  -9  -8    3.56    2.95
  -3 -10  14    3.36    4.13
   3  10 -14    6.77    3.88
  -3 -10  13   52.98   10.17
   3  10 -13   65.58   10.04
  -3 -10  12    4.14    3.29
   3  10 -12    3.44    2.96
  -3 -10  11   16.86    4.38
  -3 -10  11    9.66    3.77
   3  10 -11   16.23    5.46
  -3 -10  10    2.16    1.23
  -3 -10  10    2.02    2.32
   3  10 -10    4.89    3.27
   3  10  -9    2.14    1.34
  -3 -10   9   -1.57    1.35
  -3 -10   8   94.58   10.67
   3  10  -8   96.44   10.80
  -3 -10   7    4.18    2.88
   3  10  -7   11.19    3.84
   3  10  -6   45.77    6.91
  -3 -10   6   45.09    7.50
  -3 -10   5   20.44    5.14
   3  10  -5   21.15    4.60
  -3 -10   4   12.29    4.32
   3  10  -4   15.40    3.63
  -3 -10   3    1.58    1.85
   3  10  -3    0.53    0.70
   3  10  -2    6.22    3.34
  -3 -10   2    8.49    3.99
   3  10  -1   18.31    5.37
  -3 -10   1   21.86    5.76
  -3 -10   0   52.60    9.22
   3  10   0   54.04    9.57
   3  10   1    8.11    4.36
  -3 -10  -1   11.68    4.70
   3  10   2    7.46    3.34
  -3 -10  -2   13.34    5.32
   3  10   3   67.72   10.91
  -3 -10  -3   67.60   11.02
   3  10   4    6.46    4.32
  -3 -10  -4    3.34    3.65
   3  10   5    9.15    4.75
  -3 -10  -5   10.58    5.50
   3  11 -14   31.41    8.14
  -3 -11  13   14.83    9.11
   3  11 -13   20.53    6.08
  -3 -11  12   16.90    6.25
   3  11 -12    9.71    4.23
  -3 -11  11  142.03   13.35
  -3 -11  11  130.15   15.53
   3  11 -11  109.35   13.06
   3  11 -10  116.16   12.88
  -3 -11  10  129.30   13.05
   3  11  -9   46.76    8.07
  -3 -11   9   28.87    6.46
   3  11  -8   15.54    4.63
  -3 -11   8    4.31    1.79
  -3 -11   7   -1.47    2.41
   3  11  -7    2.48    2.13
  -3 -11   6   73.90   10.70
   3  11  -6   75.81    9.22
   3  11  -5   47.28    6.79
  -3 -11   5   36.96    7.33
  -3 -11   4    1.44    2.21
   3  11  -4    1.10    1.37
  -3 -11   3    0.16    1.82
   3  11  -2   31.32    7.18
  -3 -11   2   29.10    6.89
   3  11  -1    7.75    3.98
  -3 -11   1    3.66    2.87
   3  11   0   18.87    6.08
  -3 -11   0    9.53    4.21
  -3 -11  -1  137.70   15.91
   3  11   1  147.99   16.60
   3  11   2   16.12    5.97
  -3 -11  -2   14.75    5.68
   3  11   3   27.53    7.13
  -3 -11  -3   16.20    6.00
   3  12 -13    3.21    3.37
  -3 -12  12   61.72   11.60
   3  12 -12   63.66   10.45
  -3 -12  11    4.95    3.33
   3  12 -11    9.32    5.41
  -3 -12  10   62.75    9.83
   3  12 -10   75.10   10.81
   3  12  -9   53.01    8.49
  -3 -12   9   54.05    9.39
   3  12  -8   62.97    9.38
  -3 -12   8   49.35    8.90
  -3 -12   7   -3.55    2.19
   3  12  -7   -2.24    2.12
  -3 -12   6    5.47    3.51
   3  12  -6   11.58    4.45
  -3 -12   5    5.62    3.79
  -3 -12   4   13.36    4.73
  -3 -12   3   21.37    6.09
  -3 -12   2   -2.00    1.43
   3  12  -1   22.68    7.11
  -3 -12   1   16.38    5.94
   3  12   0   18.02    6.38
  -3 -12   0   12.19    5.31
   3  12   1    8.06    5.58
  -3 -12  -1    3.16    3.98
   3  13 -12   37.54    8.47
   3  13 -11   71.83   11.12
  -3 -13  10   24.38    6.39
   3  13 -10   30.63    7.27
   3  13  -9   11.20    3.99
  -3 -13   9   21.20    6.57
   3  13  -8    2.45    2.72
  -3 -13   8   -2.52    1.38
  -3 -13   7   13.14    5.34
  -3 -13   6   30.53    7.42
  -3 -13   5    1.79    2.71
  -3 -13   4   13.64    6.01
  -3 -13   3   22.68    6.53
  -3 -13   2   18.44    6.18
   3  14 -11   14.02    4.93
  -3 -14  10   18.88    6.70
   3  14 -10    5.19    2.57
  -3 -14   9   50.31   10.16
  -3 -14   8   16.92    6.29
  -3 -14   7    2.80    3.47
   4 -13  -2    0.64    1.98
   4 -13  -1   17.10    4.71
   4 -13   0   46.82    8.97
  -4  13  -1    3.99    3.89
   4 -13   1    3.89    3.88
  -4  13  -2   10.74    5.86
   4 -13   2    4.74    3.72
  -4  13  -3  115.23   15.16
   4 -13   3  101.90   13.45
  -4  13  -4   90.39   13.72
   4 -13   4   99.14   13.40
  -4  13  -5    6.17    4.44
   4 -13   5    8.76    3.71
  -4  13  -6    6.30    4.80
   4 -13   6    3.63    1.66
  -4  13  -7   10.04    3.68
   4 -13   7    5.19    2.24
  -4  13  -8    3.78    3.31
   4 -13   8   10.52    5.15
  -4  13  -9   58.37   10.76
   4 -13   9   68.66   11.87
   4 -12  -3   10.93    4.28
  -4  12   2   20.14    6.97
   4 -12  -2   24.36    6.39
  -4  12   1   26.04    7.44
   4 -12  -1   24.33    6.29
  -4  12   0   10.89    5.39
   4 -12   0    8.62    4.68
  -4  12  -1  109.20   15.03
   4 -12   1  135.34   14.92
  -4  12  -2   56.52   10.17
   4 -12   2   44.71    9.12
  -4  12  -3    1.02    2.15
   4 -12   3    2.05    3.01
  -4  12  -4   79.13   12.19
   4 -12   4   88.38   12.42
  -4  12  -5   -0.29    1.33
   4 -12   5    3.81    3.60
  -4  12  -6   43.29    8.71
   4 -12   6   62.85   11.17
  -4  12  -7    3.64    3.62
   4 -12   7   -0.90    1.55
  -4  12  -8    2.08    2.05
   4 -12   8    1.79    1.22
  -4  12  -9   36.98    8.16
   4 -12   9   40.05    9.16
   4 -12  10   12.64    5.70
  -4  12 -10   21.43    6.46
   4 -12  11   17.01    6.03
  -4  12 -11   22.80    6.58
   4 -11  -5    0.54    2.30
  -4  11   4    9.16    4.31
   4 -11  -4    1.56    2.76
  -4  11   3   21.08    7.27
   4 -11  -3   14.40    4.59
  -4  11   2   14.09    5.52
   4 -11  -2   14.60    5.12
  -4  11   1  147.69   16.90
   4 -11  -1  143.42   14.63
  -4  11   0  109.71   14.45
   4 -11   0   92.50   11.66
  -4  11  -1   88.30   12.90
   4 -11   1   74.19   10.69
  -4  11  -2    9.43    5.14
   4 -11   2    6.93    2.84
  -4  11  -3   10.76    4.85
   4 -11   3    7.49    3.52
   4 -11   4   39.32    7.62
  -4  11  -4   36.91    8.03
  -4  11  -5   47.76    9.30
   4 -11   5   68.04   10.37
  -4  11  -6   59.06   10.28
   4 -11   6   66.83   10.74
  -4  11  -7  127.00   14.84
   4 -11   7  106.13   13.36
  -4  11  -8   57.64   10.01
   4 -11   8   45.91    8.73
   4 -11   9   47.92    9.52
  -4  11  -9   54.79   10.18
   4 -11  10    6.69    4.89
  -4  11 -10    5.84    3.84
   4 -11  11    6.04    3.39
  -4  11 -11    1.82    3.41
   4 -11  12    8.57    4.45
  -4  11 -12    8.76    4.71
   4 -11  13    9.68    4.36
  -4  11 -13    3.43    2.31
  -4  10   6    7.47    4.76
   4 -10  -6    4.02    3.32
  -4  10   5   11.68    5.18
   4 -10  -5   11.97    4.31
   4 -10  -5    7.58    4.83
  -4  10   4    4.64    4.31
   4 -10  -4    2.57    1.65
  -4  10   3    1.30    1.47
   4 -10  -3    1.74    2.23
  -4  10   2   57.91   10.69
   4 -10  -2   58.58    8.48
  -4  10   1    6.30    3.89
   4 -10  -1    3.60    2.63
  -4  10   0   36.33    7.85
   4 -10   0   37.43    7.03
  -4  10  -1   39.70    8.28
   4 -10   1   40.08    7.54
  -4  10  -2  136.94   14.85
   4 -10   2  167.08   15.16
  -4  10  -3    3.40    2.68
   4 -10   3    6.18    3.30
  -4  10  -4   55.30    9.39
   4 -10   4   69.95   10.24
  -4  10  -5   47.08    8.48
   4 -10   5   65.91   10.28
  -4  10  -6   12.09    5.09
   4 -10   6   15.39    5.39
  -4  10  -7   53.62    9.54
   4 -10   7   62.03    9.91
   4 -10   8   12.97    4.18
  -4  10  -8   11.63    4.83
   4 -10   9   21.86    6.34
  -4  10  -9   22.69    6.73
   4 -10  10    3.00    2.97
  -4  10 -10   -0.41    1.45
   4 -10  11   34.45    8.25
  -4  10 -11   32.18    7.71
  -4  10 -12    9.24    4.03
   4 -10  12   13.30    5.93
  -4  10 -12    1.38    2.50
  -4  10 -13   34.75    7.56
   4 -10  13   45.43    9.93
  -4  10 -13   31.40    8.03
   4 -10  14    4.75    4.05
  -4  10 -14   -0.60    1.65
  -4   9   7   18.70    6.76
   4  -9  -7   21.29    6.97
  -4   9   6    5.68    4.29
   4  -9  -6    7.96    4.65
  -4   9   5   12.12    6.10
   4  -9  -5   12.91    4.34
   4  -9  -5    6.33    4.21
  -4   9   4    3.05    2.93
   4  -9  -4    7.30    2.95
   4  -9  -4    0.41    2.24
  -4   9   3   82.07   12.16
   4  -9  -3   55.55    8.11
   4  -9  -2   15.48    4.23
  -4   9   2   11.41    4.25
  -4   9   1   10.76    4.42
   4  -9  -1    2.99    1.63
  -4   9   0   37.52    7.95
   4  -9   0   29.06    5.98
  -4   9  -1   58.96    9.66
   4  -9   1   73.76    9.18
  -4   9  -2   28.28    6.79
   4  -9   2   32.56    6.64
  -4   9  -3   36.04    7.39
   4  -9   3   33.54    6.65
  -4   9  -4   25.79    6.24
   4  -9   4   26.41    3.80
   4  -9   4   40.21    7.43
   4  -9   5    0.91    1.10
   4  -9   5    1.95    0.53
  -4   9  -6   38.25    7.45
   4  -9   6   32.07    4.66
   4  -9   6   38.92    7.30
  -4   9  -7   90.96   11.78
   4  -9   7   85.76    7.84
   4  -9   7   70.91   10.37
   4  -9   8   25.75    6.41
  -4   9  -8   14.76    4.73
   4  -9   8   17.09    3.78
   4  -9   9   11.45    3.58
  -4   9  -9   16.95    4.95
   4  -9   9   20.00    4.58
   4  -9  10   46.56    8.72
  -4   9 -10   30.42    7.39
   4  -9  10   40.59    6.61
   4  -9  11   -1.38    1.74
  -4   9 -11    1.50    2.19
   4  -9  11    4.06    2.55
  -4   9 -12   -2.74    1.66
   4  -9  12   -1.67    1.84
  -4   9 -12    0.24    2.72
   4  -9  12    1.39    2.91
   4  -9  13  170.67   18.34
  -4   9 -13  176.53   16.97
  -4   9 -13  178.63   18.32
   4  -9  13  159.19   15.13
  -4   9 -14   10.10    4.70
   4  -9  14   16.16    6.06
   4  -9  14   11.67    5.03
  -4   9 -14   21.49    6.56
  -4   9 -15   45.27    9.80
  -4   9 -15   40.90    9.27
   4  -9  15   47.78    9.68
  -4   8   9    3.49    3.54
  -4   8   8   15.83    5.57
   4  -8  -8   13.02    4.72
  -4   8   7    0.41    2.12
   4  -8  -7    6.41    4.45
  -4   8   6   67.28   10.98
   4  -8  -6   41.51    9.01
  -4   8   5    2.70    1.42
   4  -8  -5    1.69    2.11
   4  -8  -5    1.22    0.43
  -4   8   4   51.07    9.23
   4  -8  -4   30.48    6.80
   4  -8  -4   45.98    6.69
  -4   8   3   19.42    6.26
   4  -8  -3   29.85    5.51
  -4   8   2   17.20    5.14
   4  -8  -2    5.33    2.06
  -4   8   1   61.24    9.45
   4  -8  -1   69.90    8.54
  -4   8   0    1.87    2.83
   4  -8   0    3.07    1.79
  -4   8  -1  212.52   17.18
   4  -8   1  210.79   15.41
  -4   8  -2    4.87    2.79
   4  -8   2    2.42    1.35
   4  -8   2    4.29    2.18
  -4   8  -3    5.05    2.58
   4  -8   3    1.59    1.10
   4  -8   3    1.52    1.59
  -4   8  -4   14.91    4.57
   4  -8   4   14.64    2.61
   4  -8   4   18.10    4.88
  -4   8  -5  226.48   17.09
   4  -8   5  224.28   10.65
   4  -8   5  258.35   18.34
  -4   8  -6   52.38    8.09
   4  -8   6   50.76    5.58
   4  -8   6   46.63    7.97
   4  -8   7   46.20    7.99
  -4   8  -7   48.48    8.18
   4  -8   8    5.29    3.26
  -4   8  -8    6.40    3.54
   4  -8   8    4.42    2.24
   4  -8   9   93.57   12.25
  -4   8  -9   93.67   11.29
   4  -8   9  101.72    9.53
   4  -8  10   57.63    9.90
   4  -8  10   51.08    7.07
  -4   8 -10   40.70    8.07
  -4   8 -11    5.95    3.13
   4  -8  11    5.17    3.13
  -4   8 -11    3.17    2.01
   4  -8  11    2.43    2.02
  -4   8 -12   36.96    7.75
   4  -8  12   46.96    9.29
  -4   8 -12   34.87    7.50
   4  -8  12   40.16    7.11
  -4   8 -13   -0.24    1.29
   4  -8  13    0.87    2.56
  -4   8 -13    1.82    2.65
   4  -8  13   -1.24    0.79
  -4   8 -14    5.77    3.52
   4  -8  14    5.91    3.70
  -4   8 -14    7.94    4.80
   4  -8  14   11.82    5.76
   4  -8  15    5.47    3.60
  -4   8 -15    2.09    1.74
   4  -8  15    4.39    3.01
  -4   8 -15    3.27    4.13
  -4   7  10    3.08    3.41
  -4   7   9  131.97   16.83
   4  -7  -9  136.07   16.19
  -4   7   8   51.86   10.17
   4  -7  -8   37.49    8.72
  -4   7   7   48.55    9.04
   4  -7  -7   42.58    8.23
  -4   7   6    5.22    3.60
   4  -7  -6    1.82    2.42
   4  -7  -6    3.06    1.34
  -4   7   5   40.08    8.31
   4  -7  -5   19.15    5.06
   4  -7  -5   31.55    5.22
  -4   7   4   24.87    4.06
  -4   7   4   31.69    7.13
   4  -7  -4   19.40    5.63
   4  -7  -4   33.12    5.22
  -4   7   3   24.70    6.42
  -4   7   3   36.24    4.33
  -4   7   2   11.99    2.42
  -4   7   2    2.92    2.56
   4  -7  -2    7.97    2.65
  -4   7   1   -1.25    0.73
   4  -7  -1   -2.61    2.39
  -4   7   0   69.06    9.89
   4  -7   0   73.37    8.38
  -4   7  -1   49.45    7.99
   4  -7   1   51.54    3.51
  -4   7  -2  389.25   21.78
   4  -7   2  412.44   10.16
  -4   7  -3  361.75   21.06
   4  -7   3  403.39   11.07
  -4   7  -4  137.14   12.63
   4  -7   4  131.30    6.99
   4  -7   4  120.69   11.88
   4  -7   5   25.22    5.67
  -4   7  -5   17.62    4.87
   4  -7   5   14.52    2.59
   4  -7   6    3.49    2.79
  -4   7  -6    2.57    0.98
   4  -7   6    4.92    1.53
   4  -7   7    0.60    0.93
  -4   7  -7    1.19    1.64
   4  -7   7    1.99    1.33
   4  -7   8    8.14    3.89
  -4   7  -8   13.43    4.35
   4  -7   8    7.18    2.33
   4  -7   9  250.27   19.46
  -4   7  -9  276.41   19.01
   4  -7   9  309.98   16.61
   4  -7  10   18.66    5.53
  -4   7 -10   19.71    5.27
   4  -7  10   21.20    4.77
  -4   7 -11   35.09    7.14
   4  -7  11   33.11    7.68
  -4   7 -11   25.77    6.06
   4  -7  11   33.96    6.29
  -4   7 -12    2.80    1.72
  -4   7 -12   -0.78    0.76
   4  -7  12   -0.63    1.95
   4  -7  12    1.81    3.24
  -4   7 -13   43.78    8.74
   4  -7  13   40.55    7.80
  -4   7 -13   40.18    8.01
   4  -7  13   25.45    7.15
   4  -7  14    0.66    1.47
  -4   7 -14    6.10    4.21
   4  -7  14    2.42    2.27
  -4   7 -14    4.15    2.36
   4  -7  15   10.53    5.64
  -4   7 -15    5.09    3.45
   4  -7  15   10.28    4.85
  -4   6  11    3.56    3.85
  -4   6  10   90.67   13.69
   4  -6 -10   64.03   11.75
  -4   6   9    4.54    2.93
   4  -6  -9    5.26    3.01
  -4   6   8   14.05    5.34
   4  -6  -8    6.08    3.89
  -4   6   7    1.82    1.59
  -4   6   7    8.40    4.25
   4  -6  -7    1.79    2.58
  -4   6   6    9.39    2.84
  -4   6   6   13.49    4.64
   4  -6  -6   16.22    5.15
   4  -6  -6   15.09    3.32
  -4   6   5   33.63    7.35
   4  -6  -5   35.38    7.17
   4  -6  -5   32.54    5.01
  -4   6   5   30.24    4.82
  -4   6   4   22.01    3.56
  -4   6   4   14.04    4.78
   4  -6  -4   15.83    4.67
   4  -6  -4   25.51    4.61
  -4   6   3   57.92    8.94
   4  -6  -3   46.89    6.13
  -4   6   3   49.41    4.42
  -4   6   2    1.19    0.81
  -4   6   2    2.32    2.34
   4  -6  -2    4.08    1.79
  -4   6   1  215.35   16.35
   4  -6  -1  231.10   14.04
  -4   6   0   71.08    9.04
   4  -6   0   80.13    8.46
  -4   6  -1   12.79    3.63
   4  -6   1   16.82    4.17
  -4   6  -2   84.19    9.54
   4  -6   2   71.81    3.15
   4  -6   3   35.16    6.16
  -4   6  -3   38.97    6.47
   4  -6   3   38.90    2.98
   4  -6   3   38.73    3.15
  -4   6  -4  563.62   24.22
   4  -6   4  612.83   13.99
   4  -6   4  596.33   14.43
  -4   6  -5  643.30   25.76
   4  -6   5  694.94   17.10
   4  -6   6    5.73    2.46
  -4   6  -6    4.08    1.72
   4  -6   6    9.88    2.28
   4  -6   7   42.86    7.38
  -4   6  -7   44.42    7.05
   4  -6   7   44.67    5.41
   4  -6   8    1.67    2.76
  -4   6  -8    1.26    1.56
   4  -6   8    0.11    0.97
   4  -6   9    6.45    3.27
  -4   6  -9   10.11    3.74
   4  -6   9    5.70    2.20
  -4   6 -10    2.35    1.46
   4  -6  10    3.04    2.88
   4  -6  10    1.10    1.68
  -4   6 -11   41.90    7.81
   4  -6  11   47.01    7.48
  -4   6 -11   32.58    6.87
   4  -6  11   39.21    8.09
  -4   6 -12   42.99    8.15
   4  -6  12   37.01    8.10
  -4   6 -12   48.10    8.63
   4  -6  12   50.13    8.02
   4  -6  13    1.71    2.23
  -4   6 -13    0.15    1.30
  -4   6 -13    1.64    1.03
   4  -6  14    4.33    3.23
  -4   6 -14    7.16    4.01
   4  -6  14    2.54    1.51
  -4   6 -14   10.86    4.74
  -4   6 -15    4.78    4.83
   4  -6  15    0.45    1.97
   4  -6  15   -1.09    2.33
  -4   5  11    1.19    3.54
   4  -5 -11    4.16    3.85
  -4   5  10   51.33   10.00
   4  -5 -10   55.74   10.31
  -4   5   9  104.52   13.53
   4  -5  -9  110.54   13.44
  -4   5   9   71.11    8.87
  -4   5   8    7.57    4.05
   4  -5  -8    2.91    2.22
  -4   5   8    5.32    2.56
  -4   5   7    0.89    2.25
   4  -5  -7    2.57    2.87
  -4   5   7    0.28    1.09
  -4   5   6   32.73    6.77
   4  -5  -6   32.51    6.49
   4  -5  -6   24.54    4.01
  -4   5   6   28.87    4.45
  -4   5   5  119.19   12.87
   4  -5  -5  127.25   12.61
  -4   5   5  117.73    8.21
   4  -5  -5  139.94    9.51
  -4   5   4  442.92   24.05
   4  -5  -4  457.01   23.47
   4  -5  -4  487.49   18.26
  -4   5   3  570.66   26.42
   4  -5  -3  570.07   13.29
  -4   5   3  629.91   14.18
   4  -5  -3  659.35   21.78
  -4   5   2  506.19   24.16
   4  -5  -2  532.82   19.93
  -4   5   2  480.30    9.45
  -4   5   1   17.23    4.40
   4  -5  -1   19.19    3.87
   4  -5   0    2.11    1.81
  -4   5   0    0.26    0.40
   4  -5   1  373.93   17.97
  -4   5  -1  330.43   18.35
   4  -5   2  400.59   19.30
  -4   5  -2  366.61   18.82
   4  -5   3   23.81    4.68
  -4   5  -3   19.80    4.67
   4  -5   3   16.07    1.81
   4  -5   4   26.23    5.25
  -4   5  -4   23.14    4.60
   4  -5   4   28.49    2.99
  -4   5  -5   35.62    5.88
   4  -5   5   43.98    4.29
   4  -5   6   10.29    3.87
  -4   5  -6   13.68    3.94
   4  -5   6   13.57    2.77
   4  -5   7    1.75    1.20
  -4   5  -7    1.68    1.70
   4  -5   7    1.38    1.09
   4  -5   8  143.96   13.77
  -4   5  -8  166.32   12.98
   4  -5   8  173.36   11.44
  -4   5  -9    4.42    2.65
   4  -5   9    6.18    2.22
   4  -5   9   11.34    4.84
  -4   5 -10   14.58    4.80
  -4   5 -10    9.13    3.59
   4  -5  10   16.82    4.28
   4  -5  10   13.05    4.64
   4  -5  11   22.28    5.99
  -4   5 -11   14.09    4.87
  -4   5 -11   16.82    4.77
   4  -5  11   23.20    5.32
   4  -5  12    1.23    2.94
  -4   5 -12    1.96    2.23
   4  -5  12    1.00    1.98
  -4   5 -12    2.09    1.80
   4  -5  13    3.53    2.72
  -4   5 -13   12.12    5.16
   4  -5  13    7.01    4.30
  -4   5 -13    8.30    4.11
  -4   5 -14    4.71    3.49
   4  -5  14    3.73    2.83
   4  -5  14    6.08    3.32
  -4   5 -15   66.70   11.50
   4  -5  15   57.25    9.90
   4  -5  15   54.56   10.37
  -4   4  12   13.96    6.17
   4  -4 -12   24.86    6.93
  -4   4  11    4.41    3.74
   4  -4 -11    2.71    2.89
  -4   4  11    5.22    3.21
  -4   4  10   23.86    7.38
   4  -4 -10   17.84    5.66
  -4   4  10   24.03    5.51
  -4   4   9   14.61    5.13
   4  -4  -9    7.02    4.03
  -4   4   9    8.53    2.68
  -4   4   8   52.55    9.13
   4  -4  -8   38.32    7.59
  -4   4   8   36.92    6.02
   4  -4  -7  282.68   11.58
  -4   4   7  252.56   19.31
   4  -4  -7  293.50   19.63
  -4   4   7  260.41   14.34
   4  -4  -6  117.37    7.90
  -4   4   6  101.99   12.10
  -4   4   6  110.18    8.40
   4  -4  -5   45.22    5.03
  -4   4   5   41.92    7.50
   4  -4  -5   45.45    7.23
  -4   4   5   49.02    5.08
   4  -4  -4 1017.59   24.85
  -4   4   4  941.56   33.85
   4  -4  -4 1139.30   34.98
   4  -4  -4 1053.30   19.40
  -4   4   4 1128.32   20.61
   4  -4  -3   10.03    2.78
  -4   4   3    8.30    3.24
   4  -4  -3    9.13    1.47
  -4   4   3   11.61    1.73
   4  -4  -2   23.34    3.93
  -4   4   2   18.72    4.27
   4  -4  -1   41.49    5.39
  -4   4   1   42.48    6.68
   4  -4   0  176.74   11.59
  -4   4   0  154.93   12.02
   4  -4   1    2.57    1.59
  -4   4  -1    2.53    1.66
   4  -4   2  101.75    9.64
  -4   4  -2   96.23    9.14
   4  -4   3   28.43    5.34
  -4   4  -3   27.06    4.80
   4  -4   3   26.59    2.25
  -4   4  -4  742.36   24.32
   4  -4   4  761.81   15.52
  -4   4  -5   25.87    3.39
  -4   4  -5   25.14    4.44
   4  -4   5   22.91    4.87
   4  -4   5   28.20    3.49
   4  -4   6  280.59   17.71
   4  -4   6  313.62   13.10
  -4   4  -7    3.68    1.76
   4  -4   7    1.70    1.01
   4  -4   7    3.53    1.88
   4  -4   8  134.08   12.96
  -4   4  -8  133.26   11.23
   4  -4   8  150.66   10.90
   4  -4   9    9.77    3.70
  -4   4  -9    5.66    2.58
  -4   4  -9    4.91    2.63
   4  -4   9    4.12    1.90
  -4   4 -10   68.56   10.19
   4  -4  10   70.42   10.30
  -4   4 -10   61.88    8.41
   4  -4  10   90.05    9.71
   4  -4  11    3.72    2.35
  -4   4 -11    4.65    3.35
  -4   4 -11    7.77    3.03
   4  -4  11    8.36    3.56
  -4   4 -12    3.09    3.00
   4  -4  12    3.36    2.96
   4  -4  12    2.29    1.63
  -4   4 -12    0.97    1.64
  -4   4 -13    0.88    2.22
   4  -4  13    2.23    3.07
   4  -4  13    7.06    4.30
  -4   4 -14    2.77    1.85
   4  -4  14    6.65    4.03
   4  -4  14    5.34    3.35
   4  -4  15    0.30    2.32
   4  -4  15    1.80    2.99
  -4   3  13   35.99    8.37
   4  -3 -13   26.87    7.44
  -4   3  13   19.53    6.17
  -4   3  12   -3.42    3.13
   4  -3 -12    3.00    2.89
  -4   3  12    3.98    2.78
  -4   3  11    0.50    1.72
   4  -3 -11    2.70    2.21
  -4   3  11    3.48    2.54
  -4   3  10   31.90    7.61
   4  -3 -10   37.31    7.59
  -4   3  10   14.84    4.45
  -4   3   9   60.11    9.90
   4  -3  -9   54.74    8.61
  -4   3   9   46.92    7.00
  -4   3   8   97.87   11.93
   4  -3  -8   92.69   10.91
  -4   3   8   92.31    9.09
  -4   3   7  311.66   20.92
   4  -3  -7  325.41   11.05
  -4   3   7  290.31   14.75
  -4   3   6   61.84    9.03
   4  -3  -6   75.77    5.83
   4  -3  -6   73.11    9.21
  -4   3   6   62.53    6.18
  -4   3   5   11.66    4.11
   4  -3  -5   17.79    3.07
   4  -3  -5   17.28    4.25
   4  -3  -5    8.57    1.82
  -4   3   5   12.46    2.37
  -4   3   4   13.83    3.93
   4  -3  -4   13.33    2.62
   4  -3  -4   20.88    4.68
  -4   3   4   16.90    2.53
   4  -3  -3  184.65   10.57
  -4   3   3  161.83   12.89
  -4   3   3  178.77    5.84
  -4   3   2   80.13    8.51
   4  -3  -2   79.04    7.15
  -4   3   1   32.99    5.54
   4  -3  -1   31.83    4.75
  -4   3   0  147.77   11.04
   4  -3   0  142.39   10.48
  -4   3  -1  565.13   21.02
   4  -3   1  636.91   22.39
  -4   3  -2   64.77    6.99
   4  -3   2   66.01    7.64
  -4   3  -3  354.99   15.96
   4  -3   3  389.03   18.58
  -4   3  -3  356.05    9.39
   4  -3   3  361.40    9.44
  -4   3  -4  429.79   17.02
  -4   3  -4  470.96   13.42
   4  -3   4  448.35   12.70
  -4   3  -5  238.85   12.68
   4  -3   5  238.42   15.90
  -4   3  -5  251.79   11.26
   4  -3   5  250.47   11.02
  -4   3  -6  142.12    9.90
   4  -3   6  146.59   12.90
   4  -3   6  159.16    9.79
  -4   3  -7  406.95   17.33
   4  -3   7  367.41   21.10
   4  -3   8    5.60    2.62
  -4   3  -8    8.87    2.69
   4  -3   8    6.62    3.04
   4  -3   9    3.46    2.59
  -4   3  -9    5.11    3.76
  -4   3  -9   -0.02    0.82
   4  -3   9    2.72    2.11
   4  -3  10   18.68    5.18
  -4   3 -10   16.44    5.14
  -4   3 -10   23.89    4.63
   4  -3  10   21.78    4.99
  -4   3 -11   10.87    4.09
   4  -3  11    9.41    4.00
   4  -3  11   18.42    4.74
  -4   3 -11   14.64    3.88
  -4   3 -12    6.82    4.03
   4  -3  12   -0.97    2.49
   4  -3  12    1.59    2.53
  -4   3 -13    4.07    3.26
   4  -3  13    1.52    2.89
   4  -3  13    5.64    3.91
   4  -3  14    7.41    3.82
  -4   3 -14    4.32    3.89
   4  -3  14    1.79    1.52
   4  -3  15    5.56    3.71
   4  -3  15    5.35    3.90
   4  -2 -14    5.58    2.68
  -4   2  14    4.34    3.23
  -4   2  13   12.31    5.87
   4  -2 -13   11.91    4.50
  -4   2  13   10.29    4.20
  -4   2  12    4.99    3.87
   4  -2 -12    3.48    3.05
  -4   2  12    3.74    3.80
  -4   2  11    3.94    3.45
   4  -2 -11    2.55    2.49
  -4   2  11    2.71    2.46
  -4   2  10    5.53    3.46
   4  -2 -10    4.36    2.88
  -4   2  10    3.02    2.18
  -4   2   9   25.00    6.08
   4  -2  -9   16.48    5.10
  -4   2   9   12.36    3.51
  -4   2   8   98.01   11.78
   4  -2  -8   93.23   10.68
  -4   2   8   91.56    8.72
  -4   2   7  200.57   15.88
   4  -2  -7  237.49   16.27
   4  -2  -7  209.18    7.86
  -4   2   7  191.44   11.65
  -4   2   6   40.62    6.89
  -4   2   6   36.84    3.73
   4  -2  -6   40.85    3.91
   4  -2  -6   35.09    6.09
  -4   2   6   36.94    4.53
  -4   2   5   15.00    2.54
  -4   2   5   18.55    4.89
   4  -2  -5   20.54    2.97
   4  -2  -5   17.00    3.91
  -4   2   5   17.33    2.66
  -4   2   4   35.92    6.04
   4  -2  -4   43.93    4.66
  -4   2   4   41.63    4.72
  -4   2   4   48.23    3.87
  -4   2   3   57.75    7.30
   4  -2  -3   62.30    5.78
  -4   2   3   59.62    3.42
  -4   2   2   48.75    6.50
   4  -2  -2   45.51    5.18
  -4   2   1    1.66    1.69
   4  -2  -1    8.57    2.57
  -4   2   0 1105.46   28.21
   4  -2   0 1186.82   28.77
  -4   2  -1  258.22   13.01
   4  -2   1  296.00   15.18
  -4   2  -2  150.51    9.60
   4  -2   2  152.99   11.25
  -4   2  -2  160.47    5.85
   4  -2   2  151.56    5.76
   4  -2   3   52.60    5.58
  -4   2  -3   72.60    6.55
   4  -2   3   62.01    7.71
  -4   2  -3   62.21    4.53
   4  -2   3   56.15    4.24
   4  -2   4   -0.38    0.54
   4  -2   4    0.10    0.43
  -4   2  -4    2.28    1.39
  -4   2  -4    0.67    0.81
   4  -2   4    0.43    0.78
   4  -2   5  610.02   19.08
   4  -2   5  599.89   25.05
   4  -2   5  625.25   18.32
  -4   2  -6  153.82    9.39
   4  -2   6  159.75   13.49
   4  -2   6  174.30   10.58
  -4   2  -7  301.58   13.91
   4  -2   7  284.82   18.56
   4  -2   7  342.73   16.24
  -4   2  -8   71.41    9.90
  -4   2  -8   61.63    6.40
   4  -2   8   61.99    8.93
   4  -2   8   66.26    7.58
  -4   2  -9  110.90   12.42
  -4   2  -9  103.46    8.71
   4  -2   9   88.59    9.49
   4  -2   9  100.42   11.56
  -4   2 -10   11.11    4.94
   4  -2  10   12.14    4.61
   4  -2  10   10.89    3.99
  -4   2 -10   11.79    2.81
  -4   2 -11    4.56    3.28
   4  -2  11    3.40    2.15
   4  -2  11    3.84    2.52
   4  -2  12   -0.01    0.86
   4  -2  12    2.58    1.70
   4  -2  13    4.84    3.45
  -4   2 -13   12.04    5.25
   4  -2  13    4.83    1.48
  -4   2 -14   62.21   12.12
   4  -2  14   45.16    9.37
   4  -2  14   49.14    9.47
   4  -2  15   19.25    5.75
  -4   1  15   35.75    8.15
  -4   1  14   71.57   12.48
   4  -1 -14   73.64   11.35
  -4   1  14   79.12   11.47
  -4   1  13   36.01    8.58
   4  -1 -13   32.13    7.03
  -4   1  13   28.29    6.95
  -4   1  12   12.18    4.77
   4  -1 -12   11.95    3.88
  -4   1  12   13.99    4.28
  -4   1  11    2.72    2.45
   4  -1 -11    7.62    3.44
  -4   1  11    6.48    3.18
  -4   1  10   29.50    6.87
   4  -1 -10   35.43    6.66
  -4   1  10   27.54    5.49
  -4   1   9   16.54    4.87
   4  -1  -9   13.98    3.70
  -4   1   9   11.41    3.44
  -4   1   8    0.24    1.55
   4  -1  -8    3.58    2.11
  -4   1   8    3.08    1.88
   4  -1  -7  195.85    6.60
  -4   1   7  222.20   16.09
   4  -1  -7  214.79   14.83
  -4   1   7  202.61   11.81
  -4   1   6   51.51    7.36
  -4   1   6   54.31    4.24
   4  -1  -6   52.22    7.01
  -4   1   6   51.43    5.45
   4  -1  -6   48.13    3.92
  -4   1   5  273.44   10.93
   4  -1  -5  266.86   15.29
   4  -1  -5  275.90   10.72
  -4   1   5  291.07   11.57
   4  -1  -4  589.68   16.74
  -4   1   4  589.58   14.33
  -4   1   4  566.18   16.78
  -4   1   3   10.39    1.58
   4  -1  -3    7.66    2.25
  -4   1   3    8.65    2.35
  -4   1   3   12.17    1.78
  -4   1   3   10.20    2.36
  -4   1   2    2.46    0.69
   4  -1  -2    0.28    0.70
  -4   1   2    0.14    0.65
  -4   1   2    2.01    0.65
   4  -1  -1    1.26    0.88
  -4   1   1   -0.04    0.88
  -4   1   1    0.00    0.25
  -4   1   1    0.37    0.41
  -4   1   0  290.24   13.36
   4  -1   0  296.45   14.45
  -4   1   0  273.13    6.80
   4  -1   1    6.30    1.20
   4  -1   1    7.67    2.71
  -4   1  -1    6.84    2.05
   4  -1   1    5.92    1.62
  -4   1  -1    9.06    1.53
   4  -1   2  449.67   14.61
  -4   1  -2  503.29   15.91
   4  -1   2  535.47   21.13
  -4   1  -2  482.74   12.73
   4  -1   2  476.26   12.48
   4  -1   3   34.71    4.01
  -4   1  -3   39.94    4.21
   4  -1   3   43.70    6.21
  -4   1  -3   45.48    4.47
   4  -1   3   43.10    4.17
   4  -1   4  432.90   13.90
  -4   1  -4  457.30   14.03
   4  -1   4  435.18   20.95
  -4   1  -4  440.59   15.56
   4  -1   4  435.15   14.88
   4  -1   5   16.91    2.79
   4  -1   5   21.17    4.67
  -4   1  -5   27.82    3.44
   4  -1   5   18.24    3.25
   4  -1   6  305.91   12.12
  -4   1  -6  293.79   11.77
   4  -1   6  267.26   17.58
   4  -1   6  308.76   14.91
   4  -1   7   11.75    3.71
  -4   1  -7    6.46    3.05
  -4   1  -7   11.97    2.53
   4  -1   7   10.93    3.43
  -4   1  -8  109.31   12.07
  -4   1  -8  148.89    8.84
   4  -1   8  138.08   11.37
   4  -1   8  130.95   13.16
  -4   1  -9   -0.14    1.45
   4  -1   9    2.60    3.02
   4  -1   9    3.36    3.00
  -4   1  -9    0.47    1.25
  -4   1 -10   57.06    9.84
   4  -1  10   65.74    8.90
   4  -1  10   49.09    8.93
   4  -1  11    8.60    3.50
  -4   1 -11   12.69    5.05
   4  -1  11   10.17    3.91
  -4   1 -12    0.35    1.56
   4  -1  12    4.55    2.77
   4  -1  12    2.78    2.60
  -4   1 -13   24.93    7.49
   4  -1  13   31.24    7.34
   4  -1  13   26.10    6.33
   4  -1  14   46.84    9.21
   4  -1  14   64.18   10.79
   4   0 -15    1.19    2.46
  -4   0  15    1.31    0.86
  -4   0  14   15.57    5.82
   4   0 -14   27.18    7.00
  -4   0  14   24.93    6.72
  -4   0  13    5.08    4.21
   4   0 -13    4.51    3.62
  -4   0  13    5.71    3.37
  -4   0  12   38.60    7.88
   4   0 -12   53.47    8.79
  -4   0  12   44.62    8.11
  -4   0  11   47.72    9.33
   4   0 -11   40.84    6.84
  -4   0  11   32.88    6.22
   4   0 -10   12.20    3.73
  -4   0  10    8.87    2.93
   4   0  -9    3.87    2.56
  -4   0   9    3.74    2.07
  -4   0   8   80.91   10.08
  -4   0   8   99.01    8.94
  -4   0   7   94.21   10.40
  -4   0   7   86.45    4.27
   4   0  -7   92.30    9.20
  -4   0   7   93.00    8.04
  -4   0   6  339.42   18.78
   4   0  -6  361.80   10.79
   4   0  -6  335.10   16.88
  -4   0   6  369.66   11.06
  -4   0   6  346.75   14.45
  -4   0   5   83.20    8.79
  -4   0   5   91.59    6.76
  -4   0   5   94.09    6.35
   4   0  -5  100.38    6.33
  -4   0   4   28.19    4.77
  -4   0   4   30.02    3.51
   4   0  -4   27.26    3.56
  -4   0   4   31.96    3.95
  -4   0   4   21.92    3.02
  -4   0   3   15.05    2.18
  -4   0   3   15.02    3.22
  -4   0   3   20.66    2.61
   4   0  -3   16.76    3.05
  -4   0   2   88.75    7.82
  -4   0   2   99.75    5.35
   4   0  -2  107.90    7.95
  -4   0   2  100.58    5.52
  -4   0   1   57.34    5.87
   4   0  -1   42.19    5.38
  -4   0   1   47.91    3.73
  -4   0   1   44.55    4.92
  -4   0   0   57.97    5.34
   4   0   0   67.09    7.00
  -4   0   0   59.02    4.24
  -4   0   0   55.20    4.88
   4   0   0   59.64    4.27
  -4   0  -1  122.22    7.25
  -4   0  -1  115.57    6.57
   4   0   1  138.92   10.34
   4   0   1  121.66    6.59
   4   0   2    2.16    1.04
  -4   0  -2    1.95    0.75
   4   0   2    4.60    2.03
  -4   0  -2    2.92    1.42
   4   0   3  463.63   11.80
  -4   0  -3  479.90   12.06
  -4   0  -3  450.66   15.73
   4   0   3  492.03   21.31
   4   0   3  440.17   15.06
   4   0   4    6.52    1.38
   4   0   4    5.38    2.34
  -4   0  -4    8.94    1.65
   4   0   4    7.55    2.24
   4   0   5    1.62    0.73
   4   0   5    4.48    2.37
  -4   0  -5    4.10    1.32
   4   0   5    5.86    2.47
   4   0   6   -0.22    0.29
  -4   0  -6    1.14    1.74
   4   0   6    0.04    1.45
  -4   0  -6   -0.03    0.11
   4   0   6   -0.20    0.64
  -4   0  -7  203.58   16.12
  -4   0  -7  224.26    8.63
   4   0   7  228.54   14.47
   4   0   7  205.13   16.05
   4   0   8   30.26    6.46
  -4   0  -8   25.86    6.07
   4   0   8   29.34    5.54
   4   0   9   26.36    6.37
  -4   0  -9   19.79    5.81
   4   0   9   26.40    5.75
  -4   0 -10   22.00    5.84
   4   0  10   25.63    6.42
   4   0  10   26.88    6.19
   4   0  11  101.54   12.77
  -4   0 -11   88.38   12.51
   4   0  11   90.28   11.60
   4   0  12    4.19    3.62
  -4   0 -12    4.09    3.15
   4   0  12    3.56    2.54
  -4   0 -13    5.39    5.22
   4   0  13    6.24    3.62
   4   0  13    2.92    1.73
   4   0  14   27.00    6.88
   4   0  14   22.87    7.35
   4   1 -16    2.71    2.31
  -4  -1  16    6.54    4.79
   4   1 -15    7.45    4.10
  -4  -1  15    7.45    4.57
   4   1 -14    2.98    1.55
  -4  -1  14   15.07    5.83
   4   1 -13   12.71    3.61
  -4  -1  13   15.59    5.82
   4   1 -12   39.72    7.08
  -4  -1  12   44.12    7.74
   4   1 -11  223.60   16.31
  -4  -1  11  230.77   16.82
   4   1 -10    4.36    2.47
  -4  -1  10    4.40    2.67
   4   1  -9  181.01   13.24
  -4  -1   9  159.77   12.44
   4   1  -8    1.16    1.76
  -4  -1   8    2.06    1.72
  -4  -1   7   25.95    2.52
   4   1  -7   25.37    4.70
  -4  -1   7   22.68    2.33
  -4  -1   7   15.26    3.37
  -4  -1   6   73.99    6.86
  -4  -1   6   88.51    5.73
   4   1  -5  153.50    8.11
  -4  -1   5  156.95    9.39
  -4  -1   5  135.16    7.93
  -4  -1   4    0.93    1.14
  -4  -1   4    1.49    1.48
  -4  -1   4    2.11    1.32
   4   1  -4   -0.17    0.40
  -4  -1   4    0.73    0.96
   4   1  -3  251.52   11.79
  -4  -1   3  219.57   11.96
  -4  -1   3  225.99    9.93
  -4  -1   2    6.03    1.82
   4   1  -2    8.10    2.29
  -4  -1   2    4.53    1.71
  -4  -1   2    7.05    2.05
   4   1  -1    0.37    0.94
  -4  -1   1    0.39    0.43
  -4  -1   1    1.38    1.30
  -4  -1   1    1.34    1.33
  -4  -1   0   39.48    3.97
  -4  -1   0   36.07    3.61
  -4  -1   0   35.47    4.09
   4   1   0   41.25    5.42
   4   1   0   34.95    3.82
  -4  -1  -1  102.95    5.69
  -4  -1  -1   90.78    4.94
  -4  -1  -1   86.90    6.78
   4   1   1   90.55    6.60
   4   1   1   95.05    8.74
  -4  -1  -2    0.92    0.48
   4   1   2    2.29    1.60
   4   1   2    2.76    2.49
  -4  -1  -2    1.34    0.67
  -4  -1  -3   15.28    1.66
  -4  -1  -3   19.34    1.49
   4   1   4    1.59    1.86
   4   1   4    1.33    1.82
   4   1   5   23.86    5.40
  -4  -1  -5   16.60    4.13
   4   1   5   31.39    4.98
   4   1   6  127.15   12.26
  -4  -1  -6  142.75   13.10
   4   1   6  159.43   11.83
   4   1   7  218.33   16.86
  -4  -1  -7  175.38   15.32
   4   1   7  228.31   15.15
  -4  -1  -8   39.07    7.32
   4   1   8   31.47    6.48
   4   1   8   40.01    6.77
   4   1   9  161.10   15.50
  -4  -1  -9  127.71   14.20
   4   1   9  155.57   13.86
   4   1  10   33.09    7.22
  -4  -1 -10   23.23    6.30
   4   1  10   30.62    6.73
  -4  -1 -11  144.48   16.40
   4   1  11  171.02   16.75
   4   1  11  147.77   15.53
  -4  -1 -12    2.81    3.25
   4   1  12    2.52    2.88
   4   1  12    2.44    2.61
   4   1  13    3.90    2.76
   4   1  13    3.91    4.97
  -4  -1 -14    8.70    4.37
   4   2 -16    8.45    3.60
  -4  -2  16    9.16    4.78
   4   2 -15    1.41    2.13
  -4  -2  15    0.45    2.22
   4   2 -14    6.21    2.77
  -4  -2  14    7.28    3.40
   4   2 -13    5.31    2.49
  -4  -2  13    4.23    3.30
   4   2 -12   12.79    4.13
  -4  -2  12   15.04    4.27
   4   2 -11    2.05    2.52
  -4  -2  11    9.10    3.87
   4   2 -10   46.02    6.71
  -4  -2  10   39.05    6.25
   4   2  -9  310.56   16.72
  -4  -2   9  277.82   16.57
   4   2  -8    1.03    1.21
  -4  -2   8    0.30    0.28
  -4  -2   8    2.32    2.38
  -4  -2   7  347.92   10.53
  -4  -2   7  327.04   16.16
  -4  -2   7  333.73   10.53
  -4  -2   6   17.56    2.66
  -4  -2   6   11.13    2.19
  -4  -2   6   13.28    3.24
  -4  -2   5  135.71    8.25
  -4  -2   5  116.34    7.89
  -4  -2   5  106.90    8.13
   4   2  -4    5.34    1.88
   4   2  -3  570.87   18.57
  -4  -2   3  529.41   17.09
  -4  -2   2   10.87    2.63
   4   2  -2   17.92    3.68
  -4  -2   2   11.73    2.47
  -4  -2   2   11.34    2.48
  -4  -2   1  131.82    7.38
   4   2  -1  135.09   10.32
  -4  -2   1  134.05    7.05
  -4  -2   1  106.32    7.64
   4   2  -1  122.93    7.91
  -4  -2   0   34.65    3.22
   4   2   0   35.23    5.67
  -4  -2   0   44.51    3.46
   4   2   0   30.48    4.20
   4   2   1   63.10    7.51
  -4  -2  -1   62.88    3.30
  -4  -2  -1   61.43    3.11
   4   2   1   71.55    6.51
   4   2   2   98.22    9.59
   4   2   2   98.71    8.18
   4   2   3 1150.69   34.46
   4   2   3 1133.14   28.96
   4   2   4   32.44    6.05
  -4  -2  -4   28.45    5.68
   4   2   5    6.67    2.72
   4   2   5    4.32    2.18
  -4  -2  -5    8.71    3.42
   4   2   6   11.01    4.78
  -4  -2  -6    7.12    3.65
   4   2   6   13.66    3.76
  -4  -2  -7    7.39    3.51
   4   2   7    9.73    4.59
   4   2   7    8.85    3.13
  -4  -2  -8   77.97   10.67
   4   2   8   93.56   11.56
   4   2   9  159.73   15.55
   4   2   9  171.90   15.43
  -4  -2  -9  157.37   16.16
   4   2  10    2.40    2.40
  -4  -2 -10   -0.10    2.13
   4   2  10    1.45    1.84
  -4  -2 -11    7.70    4.49
   4   2  11   13.27    5.26
   4   2  11    8.11    4.22
  -4  -2 -12    4.48    2.25
  -4  -2 -12    4.04    3.93
   4   2  12   10.34    4.60
  -4  -2 -13    8.88    5.01
  -4  -3  16    4.54    4.21
   4   3 -15    1.60    2.60
  -4  -3  15   -1.21    1.97
   4   3 -14    2.37    2.55
  -4  -3  14    3.73    3.41
   4   3 -13   16.82    4.57
  -4  -3  13   12.13    5.11
   4   3 -12  245.05   16.24
  -4  -3  12  220.07   17.78
   4   3 -12  270.04   20.34
   4   3 -11  227.40   14.87
  -4  -3  11  264.79   18.42
   4   3 -11  286.32   19.95
   4   3 -10  249.50   14.88
  -4  -3  10  241.85   16.76
   4   3 -10  274.96   18.56
   4   3  -9    1.13    2.44
   4   3  -9    1.24    0.78
  -4  -3   9    0.03    0.16
   4   3  -8    6.14    2.36
  -4  -3   8    3.31    1.06
  -4  -3   8    3.98    2.53
   4   3  -7    7.16    2.33
  -4  -3   7   11.45    2.22
  -4  -3   7    5.88    1.61
  -4  -3   7    6.64    2.89
  -4  -3   6  171.46    9.42
  -4  -3   6  152.95    9.29
  -4  -3   6  149.72   10.69
   4   3  -6  168.92   11.72
  -4  -3   5   49.69    5.28
   4   3  -5   62.16    6.62
  -4  -3   4  339.35   14.83
  -4  -3   3    1.91    1.70
  -4  -3   2  884.29   20.06
   4   3  -2  824.56   24.71
   4   3  -1    7.98    2.59
  -4  -3   1    4.75    1.22
   4   3  -1    5.70    2.26
  -4  -3   1    4.16    1.21
   4   3   0    9.93    2.55
  -4  -3   0    6.56    1.21
  -4  -3   0    6.53    1.18
   4   3   1   26.71    4.46
   4   3   1   16.64    4.70
   4   3   2    3.67    2.26
   4   3   2    1.94    1.78
   4   3   3    1.79    1.44
  -4  -3  -3    3.29    1.92
   4   3   3    0.27    1.28
  -4  -3  -4  205.12   15.02
   4   3   4  220.80   16.61
   4   3   4  239.10   15.32
  -4  -3  -5  549.00   25.53
   4   3   5  536.72   25.79
   4   3   5  576.79   24.55
   4   3   6   11.10    3.82
  -4  -3  -6   10.30    4.03
   4   3   6    9.43    3.62
   4   3   7    2.99    2.53
  -4  -3  -7    5.50    3.45
   4   3   7    5.57    3.29
  -4  -3  -8   14.04    4.52
   4   3   8   20.14    5.63
   4   3   8   26.50    5.81
  -4  -3  -9    7.80    4.35
  -4  -3  -9    2.42    1.14
   4   3   9    3.48    3.56
  -4  -3 -10    9.05    4.14
  -4  -3 -10    4.40    3.82
   4   3  10    3.79    3.45
  -4  -3 -11  132.77   15.28
  -4  -3 -11  124.73   16.02
   4   3  11  149.16   16.17
  -4  -3 -12    2.01    2.16
   4   3  12    5.24    4.63
  -4  -3 -13   10.14    5.19
  -4  -4  16   -0.57    0.90
   4   4 -15    2.89    2.91
  -4  -4  15    1.85    2.96
   4   4 -14  112.92   11.44
  -4  -4  14   96.74   13.16
   4   4 -14  112.91   14.51
   4   4 -13    1.35    2.26
   4   4 -13    1.88    1.76
  -4  -4  13    2.42    3.34
   4   4 -12   15.69    5.65
   4   4 -12   13.24    3.85
  -4  -4  12   22.23    5.85
   4   4 -11    8.45    4.39
   4   4 -11    2.93    4.85
  -4  -4  11    1.92    1.90
   4   4 -10   87.67    8.52
  -4  -4  10   69.45    9.21
   4   4 -10   84.57   10.50
  -4  -4   9  244.61   16.40
   4   4  -9  269.33   17.89
   4   4  -8   16.63    4.16
  -4  -4   8   18.98    2.82
  -4  -4   8   14.85    4.02
   4   4  -7    0.23    1.61
  -4  -4   7    1.85    1.27
  -4  -4   7    3.86    2.19
  -4  -4   6   73.31    6.65
   4   4  -6   81.99    8.04
  -4  -4   5  889.33   24.67
   4   4  -5  992.72   26.47
  -4  -4   4  524.53   19.60
   4   4  -4  563.61   18.33
  -4  -4   3  261.19   14.28
  -4  -4   3  256.20   11.82
   4   4  -3  281.51   11.78
  -4  -4   2  755.99   25.31
  -4  -4   2  851.38   18.88
  -4  -4   1  104.81    5.63
  -4  -4   1   96.18    5.28
   4   4  -1   98.18    8.65
   4   4   0    3.04    1.83
  -4  -4   0    0.71    0.81
   4   4   1   19.79    4.36
  -4  -4  -2  177.17   12.94
   4   4   2  190.55   13.15
   4   4   3   -0.93    1.49
  -4  -4  -3    0.99    1.47
  -4  -4  -4   47.82    7.62
  -4  -4  -4   29.52    5.79
   4   4   4   38.96    6.42
   4   4   5   13.00    4.05
  -4  -4  -5    6.61    3.19
   4   4   6   -0.99    1.15
  -4  -4  -6    1.59    1.71
  -4  -4  -6   -0.25    1.51
   4   4   7   24.75    6.09
  -4  -4  -7   28.89    6.66
  -4  -4  -7   19.25    5.34
  -4  -4  -8   51.98    9.04
  -4  -4  -8   63.64    9.78
   4   4   8   53.71    9.42
   4   4   9    7.41    4.25
  -4  -4  -9   12.85    5.05
  -4  -4  -9    2.78    2.80
   4   4  10    1.36    2.38
  -4  -4 -10    3.60    2.13
  -4  -4 -10    2.52    3.29
   4   4  11    2.23    2.79
  -4  -4 -11    4.07    4.15
  -4  -4 -11    6.90    4.51
  -4  -4 -12   -4.22    2.62
  -4  -5  16    1.44    1.86
   4   5 -15   44.21    9.40
  -4  -5  15   46.05    9.74
   4   5 -14   10.74    4.30
  -4  -5  14   15.55    5.61
   4   5 -13   28.07    7.46
  -4  -5  13   15.85    5.50
   4   5 -12    3.68    2.87
   4   5 -12    0.94    0.77
  -4  -5  12    2.74    2.69
   4   5 -11    3.84    3.15
  -4  -5  11    3.94    3.17
   4   5 -10   29.77    6.05
  -4  -5  10   24.95    5.59
   4   5  -9    2.18    0.95
  -4  -5   9    4.62    2.57
  -4  -5   9    1.81    0.80
  -4  -5   8  117.65    8.11
  -4  -5   8  102.00   10.36
   4   5  -8  132.37   11.42
  -4  -5   7   70.89    6.73
  -4  -5   7   84.31    8.99
   4   5  -7   87.48    8.90
  -4  -5   6  970.14   26.73
   4   5  -6 1073.60   29.18
  -4  -5   5  622.03   22.14
   4   5  -5  652.52   21.22
  -4  -5   4   85.47    8.49
  -4  -5   4   85.33    6.68
   4   5  -4   93.52    7.40
  -4  -5   3  149.42   11.55
  -4  -5   3  145.13    8.75
   4   5  -3  154.79    8.75
  -4  -5   2   32.53    5.51
  -4  -5   2   37.81    3.87
   4   5  -2   42.79    4.10
  -4  -5   1  257.18   16.06
  -4  -5   1  246.52    8.41
   4   5  -1  264.41   15.60
  -4  -5   0   25.07    4.46
  -4  -5   0   27.45    5.46
   4   5   0   27.72    5.35
   4   5   1   12.43    3.55
  -4  -5  -1   10.49    3.58
  -4  -5  -1   11.73    3.23
   4   5   2    4.37    2.70
  -4  -5  -2    3.26    1.85
  -4  -5  -2    4.57    2.63
   4   5   3   29.15    5.65
  -4  -5  -3   26.99    5.74
  -4  -5  -3   32.08    5.89
  -4  -5  -4  131.72   13.09
   4   5   4  120.47   12.15
  -4  -5  -4  139.36   12.63
   4   5   5   22.47    5.49
  -4  -5  -5   20.05    5.50
  -4  -5  -5   10.46    3.85
   4   5   6   11.25    3.75
  -4  -5  -6    9.87    4.06
  -4  -5  -6    5.37    3.56
   4   5   7   18.95    5.29
  -4  -5  -7   15.89    5.97
  -4  -5  -7   13.50    4.97
   4   5   8   29.51    7.32
  -4  -5  -8   41.31    8.20
  -4  -5  -8   23.32    6.46
   4   5   9    0.11    1.09
  -4  -5  -9    1.18    1.96
   4   5  10   23.60    7.35
  -4  -5 -10   21.33    6.59
  -4  -5 -10   27.87    7.77
  -4  -5 -11    1.56    2.91
  -4  -6  16   33.65    9.14
   4   6 -15   56.30   10.22
  -4  -6  15   46.69   10.27
   4   6 -14   11.04    4.89
  -4  -6  14    2.75    2.59
   4   6 -13   34.50    7.52
  -4  -6  13   24.13    6.22
   4   6 -12   40.13    7.99
  -4  -6  12   48.91    8.70
   4   6 -11    2.36    2.13
  -4  -6  11    2.49    2.83
   4   6 -10    0.74    2.03
  -4  -6  10    5.66    3.12
  -4  -6   9  130.41    9.12
  -4  -6   9  122.67   12.30
   4   6  -9  148.89   12.71
  -4  -6   8   60.17    6.58
  -4  -6   8   53.56    7.96
   4   6  -8   58.23    7.49
  -4  -6   7   48.76    6.23
   4   6  -7   49.96    6.72
  -4  -6   6  506.64   20.80
   4   6  -6  554.37   20.84
  -4  -6   5    3.32    1.89
   4   6  -5    4.82    1.71
  -4  -6   4   76.55    8.52
   4   6  -4  101.38    7.67
   4   6  -3    3.38    1.71
  -4  -6   3    1.26    1.97
  -4  -6   2  201.03   14.72
  -4  -6   2  211.73   11.48
   4   6  -2  218.41    9.28
   4   6  -2  232.56   15.01
   4   6  -1    4.61    1.24
   4   6  -1    4.89    3.04
  -4  -6   1    6.98    2.36
  -4  -6   1    3.09    2.16
  -4  -6   0  349.10   20.49
  -4  -6   0  376.64   17.22
   4   6   0  390.63   20.34
   4   6   1    3.62    2.67
  -4  -6  -1    2.39    1.62
  -4  -6  -1    2.14    1.86
  -4  -6  -2   89.17   10.79
  -4  -6  -2   84.09    9.10
   4   6   2   79.92    9.70
  -4  -6  -3  205.45   15.21
   4   6   3  217.99   16.65
  -4  -6  -4    9.97    3.54
  -4  -6  -4    5.90    3.23
   4   6   5   56.88    8.78
  -4  -6  -5   47.62    8.67
  -4  -6  -5   55.70    8.69
   4   6   6    5.51    2.03
  -4  -6  -6    6.83    4.24
  -4  -6  -6    5.93    3.47
  -4  -6  -7   71.97   10.96
  -4  -6  -7   78.40   11.58
   4   6   7  102.91   13.33
   4   6   8   28.28    7.89
  -4  -6  -8   28.24    7.49
  -4  -6  -8   32.02    7.52
   4   6   9    1.76    2.24
  -4  -6  -9    9.23    4.73
  -4  -6  -9    3.16    3.37
   4   7 -15    6.31    4.09
  -4  -7  15    5.17    4.63
   4   7 -14   27.35    7.04
  -4  -7  14   16.26    5.69
   4   7 -13    0.25    1.30
  -4  -7  13    7.62    4.31
   4   7 -12    4.09    2.13
  -4  -7  12    2.85    3.37
  -4  -7  11    3.42    2.91
   4   7 -11    1.61    1.61
  -4  -7  10    4.30    3.35
   4   7 -10    7.67    2.99
  -4  -7   9    9.79    3.64
  -4  -7   9    9.15    2.70
   4   7  -9   12.77    4.21
  -4  -7   8   21.10    4.03
   4   7  -8   26.69    5.21
  -4  -7   7  183.49   12.77
   4   7  -7  190.29   13.19
  -4  -7   6   78.20    8.63
   4   7  -6  100.15    8.92
  -4  -7   5   38.46    6.31
  -4  -7   5   26.84    3.19
   4   7  -5   32.78    4.66
  -4  -7   4    3.28    1.40
  -4  -7   4    0.50    0.99
   4   7  -4    2.20    1.56
  -4  -7   3   35.57    4.26
   4   7  -3   27.72    3.81
   4   7  -2   27.10    5.87
  -4  -7   2   29.54    4.21
  -4  -7   2   29.04    5.64
   4   7  -2   36.23    3.83
  -4  -7   1  308.46   19.85
  -4  -7   1  291.22   14.12
  -4  -7   0  248.71   17.92
  -4  -7   0  246.15   13.97
   4   7   0  260.81   17.78
  -4  -7  -1   61.92    9.20
  -4  -7  -1   58.96    7.37
   4   7   1   59.77    8.75
  -4  -7  -2  139.10   14.22
  -4  -7  -2  142.38   12.00
   4   7   2  160.04   14.46
  -4  -7  -3   83.63   11.56
  -4  -7  -3   66.13    8.69
   4   7   3   88.83   11.36
   4   7   4    2.06    1.88
  -4  -7  -4    0.82    1.86
  -4  -7  -4    4.23    3.38
   4   7   5    0.03    1.92
  -4  -7  -5    4.37    2.95
  -4  -7  -5    2.70    2.61
   4   7   6   13.88    5.42
  -4  -7  -6   19.39    5.60
  -4  -7  -6   11.40    4.69
   4   7   7   22.51    6.60
  -4  -7  -7   20.71    6.36
  -4  -7  -7   12.14    4.67
   4   7   8   66.52   12.39
  -4  -7  -8   54.97   10.41
  -4  -7  -8   49.86   10.34
  -4  -7  -9    6.98    4.72
  -4  -8  15    4.11    3.51
  -4  -8  14   63.18   10.96
   4   8 -14   90.15   12.40
   4   8 -13   11.96    4.93
  -4  -8  13   16.88    6.16
  -4  -8  12    8.89    3.33
   4   8 -12   26.32    6.65
  -4  -8  11   42.42    8.40
   4   8 -11   62.04    9.11
  -4  -8  10    7.62    4.08
   4   8 -10   10.44    4.24
  -4  -8   9   -0.22    1.72
  -4  -8   9    2.16    2.08
   4   8  -9   -2.30    2.40
  -4  -8   8   23.25    4.73
   4   8  -8   25.30    5.22
  -4  -8   7    1.67    1.35
   4   8  -7    0.76    1.52
  -4  -8   6   54.74    7.84
   4   8  -6   60.49    7.08
  -4  -8   5    6.39    2.30
   4   8  -5    8.90    2.33
  -4  -8   4  101.34   11.34
   4   8  -4  102.93    8.11
  -4  -8   3    4.52    2.80
   4   8  -3    6.17    2.24
  -4  -8   2   82.60   10.79
   4   8  -2   92.35   10.95
   4   8  -1   39.87    7.36
  -4  -8   1   39.30    5.42
  -4  -8   1   38.63    7.65
   4   8   0   -2.77    1.99
  -4  -8   0    1.85    1.66
  -4  -8   0    1.77    1.60
  -4  -8  -1  113.23   13.12
  -4  -8  -1   94.84    9.38
   4   8   1  105.91   12.26
   4   8   2    1.70    2.01
  -4  -8  -2    2.02    1.92
  -4  -8  -2   -0.05    0.92
  -4  -8  -3   70.08   10.47
  -4  -8  -3   58.89    8.63
   4   8   3   70.60   10.87
   4   8   4    8.94    4.07
  -4  -8  -4    4.21    3.70
  -4  -8  -4    3.28    2.04
   4   8   5   10.55    5.50
  -4  -8  -5   22.95    6.10
  -4  -8  -5   14.17    5.01
   4   8   6   42.95    8.97
  -4  -8  -6   54.26   10.20
  -4  -8  -6   42.50    8.39
   4   8   7    6.34    4.87
  -4  -8  -7    5.92    3.24
  -4  -8  -7    7.53    3.92
  -4  -8  -8    9.15    4.60
  -4  -9  14    4.86    4.52
   4   9 -14    1.94    1.87
  -4  -9  13   27.35    7.15
   4   9 -13   24.05    6.23
  -4  -9  12    8.12    4.75
   4   9 -12    3.35    2.05
  -4  -9  11   37.73    8.39
   4   9 -11   57.43    9.23
  -4  -9  10    4.52    2.51
   4   9 -10   13.39    3.87
  -4  -9   9   10.76    3.32
   4   9  -9    6.35    3.34
  -4  -9   8   -0.19    0.83
   4   9  -8    4.08    3.07
  -4  -9   7    1.06    1.31
   4   9  -7   -0.99    1.14
   4   9  -6   47.01    6.45
  -4  -9   6   33.41    6.46
  -4  -9   5   22.80    5.58
   4   9  -5   22.55    4.07
  -4  -9   4   13.22    4.33
   4   9  -4   11.48    3.02
  -4  -9   3    2.56    1.09
   4   9  -2   51.10    8.69
  -4  -9   2   52.59    8.94
   4   9  -1   -1.10    1.26
  -4  -9   1    2.35    2.95
  -4  -9   0  107.77   13.15
   4   9   0  144.16   14.81
   4   9   1    6.25    3.61
  -4  -9  -1    0.65    1.58
  -4  -9  -2   56.96    9.61
   4   9   2   73.70   11.51
   4   9   3   30.98    7.47
  -4  -9  -3   30.94    7.16
   4   9   4   19.11    6.39
  -4  -9  -4   35.83    7.91
   4   9   5    8.66    4.49
  -4  -9  -5   10.01    4.69
   4  10 -14   47.55    9.53
  -4 -10  13    8.73    4.68
   4  10 -13    3.17    1.65
  -4 -10  12   10.88    5.66
   4  10 -12   21.85    5.69
  -4 -10  11   56.64    9.75
   4  10 -11   72.68   10.22
  -4 -10  10  132.76   17.09
   4  10 -10  104.13   11.57
  -4 -10   9   16.01    4.63
   4  10  -9   19.46    4.64
  -4 -10   8   75.09    9.97
   4  10  -8   64.07    8.45
  -4 -10   7   -0.37    1.83
   4  10  -7    2.35    0.82
  -4 -10   6   13.78    4.97
   4  10  -6   23.57    4.99
  -4 -10   5   59.87    9.71
  -4 -10   4    3.01    2.06
  -4 -10   3   53.63    9.22
  -4 -10   2   10.00    3.99
   4  10  -1   41.17    8.38
  -4 -10   1   30.94    7.68
   4  10   0   12.88    5.30
  -4 -10   0    3.76    1.98
   4  10   1    8.73    4.17
  -4 -10  -1    2.43    3.04
   4  10   2    8.50    4.30
  -4 -10  -2    3.12    4.13
   4  10   3    1.38    2.85
  -4 -10  -3    4.30    2.40
   4  11 -13   56.29   10.17
  -4 -11  12   10.40    5.69
   4  11 -12    2.71    1.91
  -4 -11  11   35.88    8.56
   4  11 -11   30.47    6.54
   4  11 -10   29.83    6.53
  -4 -11   9    0.66    1.94
   4  11  -9    0.22    1.42
  -4 -11   8   22.48    5.96
   4  11  -8   22.55    4.99
  -4 -11   7   39.75    7.71
  -4 -11   6    3.89    3.62
  -4 -11   5    5.52    2.48
  -4 -11   4   61.33   10.26
  -4 -11   3   16.28    4.48
  -4 -11   2    6.11    3.21
   4  11  -1   24.01    6.62
  -4 -11   1   15.05    5.51
   4  11   0   26.66    7.82
  -4 -11   0   26.26    7.63
   4  11   1   40.36    9.17
  -4 -11  -1   26.67    7.16
   4  12 -12    5.98    3.46
   4  12 -11  251.66   19.74
   4  12 -10   39.45    6.96
  -4 -12   9   16.64    5.42
  -4 -12   8    5.75    2.93
  -4 -12   7   11.68    4.77
  -4 -12   6   31.91    7.36
  -4 -12   5   24.23    6.84
  -4 -12   4    1.61    2.31
  -4 -12   3   38.81    8.71
  -4 -12   2   42.60    9.46
   4  12  -1   35.40    7.89
  -4 -12   1   25.65    7.39
  -4 -13   9   28.38    7.25
  -4 -13   8   61.61   10.91
  -4 -13   7   -2.66    1.92
  -4 -13   6    4.03    3.12
  -4 -13   5   41.17    9.19
   5 -12  -2    1.42    2.51
   5 -12  -1   -1.85    2.48
   5 -12   0   67.93   10.45
  -5  12  -1   -4.22    3.87
   5 -12   1   -1.27    2.36
  -5  12  -2    5.43    4.59
   5 -12   2    0.14    0.98
  -5  12  -3   14.35    5.15
   5 -12   3    9.06    4.72
  -5  12  -4    8.50    3.80
   5 -12   4    8.21    3.68
  -5  12  -5    6.53    4.52
   5 -12   5    4.67    0.55
  -5  12  -6   28.78    8.08
   5 -12   6   27.43    7.61
   5 -12   7   24.82    7.77
  -5  12  -7   21.11    7.04
  -5  12  -8   18.78    6.08
  -5  12  -9   17.95    6.85
   5 -11  -3    5.24    3.11
  -5  11   2    7.50    5.50
   5 -11  -2    7.49    3.25
  -5  11   1   13.48    5.39
   5 -11  -1   16.35    4.82
  -5  11   0   14.11    5.96
   5 -11   0   15.29    5.27
  -5  11  -1   28.65    8.03
   5 -11   1   32.46    7.54
  -5  11  -2    5.59    3.18
   5 -11   2    4.25    3.01
  -5  11  -3   16.83    6.30
   5 -11   3   11.26    4.77
  -5  11  -4    2.66    2.83
   5 -11   4    1.78    1.11
  -5  11  -5   10.59    5.31
   5 -11   5    3.53    2.44
   5 -11   6   26.71    7.18
  -5  11  -6   23.06    6.55
   5 -11   7   19.30    6.33
  -5  11  -7   14.72    5.47
   5 -11   8    0.57    1.32
  -5  11  -8    3.85    3.55
   5 -11   9    4.30    2.66
  -5  11  -9   11.47    4.91
   5 -11  10   19.98    7.10
  -5  11 -10   21.23    7.29
  -5  11 -11   19.24    6.73
  -5  11 -12    3.06    3.35
  -5  10   4    2.72    2.69
  -5  10   3   10.44    5.62
   5 -10  -3    0.07    2.23
  -5  10   2   -1.35    2.85
   5 -10  -2   -0.89    1.86
  -5  10   1   52.88   10.17
   5 -10  -1   65.87    9.68
  -5  10   0   44.22    9.50
   5 -10   0   54.77    8.56
  -5  10  -1   12.40    4.84
   5 -10   1   16.52    5.25
  -5  10  -2   12.07    4.38
   5 -10   2   14.14    5.18
  -5  10  -3   42.41    8.85
   5 -10   3   48.56    8.86
  -5  10  -4   40.61    8.55
   5 -10   4   42.86    8.55
  -5  10  -5   50.59    9.40
   5 -10   5   58.71    9.93
   5 -10   6   11.80    4.44
  -5  10  -6    7.75    3.47
   5 -10   7    3.47    4.65
  -5  10  -7   -4.36    4.19
   5 -10   8   70.01   11.58
  -5  10  -8   91.50   12.75
   5 -10   9   18.04    6.25
  -5  10  -9   23.49    6.17
   5 -10  10   67.91   11.94
  -5  10 -10   66.53   11.27
   5 -10  11    6.92    4.38
  -5  10 -11   14.82    6.15
  -5  10 -12   17.03    5.72
  -5  10 -12   15.82    5.58
  -5  10 -13    2.54    1.96
  -5  10 -13   12.19    6.44
  -5   9   6   46.60   10.54
  -5   9   5    8.84    5.54
  -5   9   4   23.20    7.31
   5  -9  -4   21.34    5.09
  -5   9   3    8.12    4.37
   5  -9  -3    6.08    3.22
  -5   9   2   75.93   11.67
   5  -9  -2   64.73    9.30
  -5   9   1   65.76   11.02
   5  -9  -1   68.47    9.86
  -5   9   0    4.67    3.80
   5  -9   0   -1.49    1.43
  -5   9  -1   11.36    4.38
   5  -9   1    8.52    3.39
  -5   9  -2   80.13   11.94
   5  -9   2   67.70    9.82
  -5   9  -3    0.83    2.89
   5  -9   3    2.02    2.10
   5  -9   4   19.06    5.70
  -5   9  -4   22.85    6.12
   5  -9   5   10.59    3.94
  -5   9  -5    9.40    4.20
   5  -9   6   28.99    6.93
  -5   9  -6   28.35    5.99
   5  -9   7   65.95   10.75
  -5   9  -7   72.98   10.94
   5  -9   8    4.76    4.72
  -5   9  -8   11.56    4.16
   5  -9   9    1.24    1.09
  -5   9  -9    2.57    2.69
   5  -9  10   23.73    7.19
  -5   9 -10   31.56    7.71
   5  -9  11   95.67   13.90
  -5   9 -11   80.90   11.52
  -5   9 -12   24.41    7.39
  -5   9 -12   27.76    7.29
   5  -9  12   26.24    6.90
  -5   9 -13   10.60    5.15
  -5   9 -13    1.94    2.88
  -5   8   7    0.90    3.17
   5  -8  -7    2.58    3.08
  -5   8   6   46.56   10.23
  -5   8   5    5.63    3.62
  -5   8   4    0.73    1.69
   5  -8  -4    1.29    1.62
  -5   8   3   55.50   10.07
   5  -8  -3   58.03    8.22
  -5   8   2    4.84    3.13
   5  -8  -2    1.33    2.62
  -5   8   1   51.05    9.46
   5  -8  -1   36.82    6.46
  -5   8   0    0.90    1.01
   5  -8   0   -1.75    2.30
  -5   8  -1   12.00    4.44
   5  -8   1   23.04    5.48
  -5   8  -2   87.01   11.40
   5  -8   2   97.78   11.56
   5  -8   3   25.58    6.06
  -5   8  -3   30.72    6.85
   5  -8   4   46.03    8.05
  -5   8  -4   60.42    9.45
   5  -8   5   48.47    8.77
  -5   8  -5   28.49    6.69
   5  -8   6  109.96   13.11
  -5   8  -6   91.17   11.55
   5  -8   7   13.99    5.40
  -5   8  -7   12.49    4.22
   5  -8   8    3.35    2.57
  -5   8  -8    4.57    3.06
   5  -8   9   71.05   11.22
  -5   8  -9   50.82    9.32
   5  -8  10   17.64    6.14
  -5   8 -10   14.02    4.67
  -5   8 -11   10.66    4.64
   5  -8  11    4.42    3.38
  -5   8 -12    4.19    3.16
  -5   8 -12    4.92    3.43
   5  -8  12    2.67    3.33
  -5   8 -13    4.98    3.17
  -5   8 -13    5.04    3.99
   5  -8  13    2.99    4.12
  -5   7   8   12.25    5.88
   5  -7  -8   13.63    5.22
  -5   7   7    2.48    2.77
   5  -7  -7    3.18    3.46
  -5   7   6    0.68    2.73
   5  -7  -5   12.05    3.25
  -5   7   5    7.59    3.26
  -5   7   4   33.81    7.53
   5  -7  -4   33.25    5.70
  -5   7   3    4.20    3.37
   5  -7  -3    4.13    2.89
  -5   7   2  103.50   13.17
   5  -7  -2  127.55   11.47
  -5   7   1  246.17   19.30
   5  -7  -1  284.36   17.48
   5  -7   0   18.51    4.38
  -5   7   0   12.55    4.23
   5  -7   1   42.05    7.22
  -5   7  -1   43.34    7.78
   5  -7   2    0.60    2.09
  -5   7  -2    0.12    2.27
   5  -7   3   34.30    6.44
  -5   7  -3   28.75    6.25
   5  -7   4    3.68    2.93
  -5   7  -4    2.40    1.10
   5  -7   5   36.01    6.81
  -5   7  -5   41.35    7.25
   5  -7   6    1.11    1.67
  -5   7  -6    0.59    1.72
   5  -7   7   20.56    5.43
  -5   7  -7   21.00    5.45
   5  -7   8    5.83    3.19
  -5   7  -8    0.13    0.36
   5  -7   9   59.16   10.18
  -5   7  -9   55.79    8.64
  -5   7 -10    0.19    1.61
   5  -7  10    3.86    3.61
  -5   7 -11   24.80    7.32
  -5   7 -11   20.17    5.42
   5  -7  11   27.18    7.10
   5  -7  12   56.05   10.51
  -5   7 -12   54.31    9.81
  -5   7 -12   50.80    9.50
   5  -7  13    6.92    3.82
  -5   7 -13   10.58    4.86
  -5   6   9   11.39    4.76
   5  -6  -9    7.84    4.09
  -5   6   8   35.54    8.98
   5  -6  -8   35.63    7.55
  -5   6   7   12.06    5.30
   5  -6  -7    5.70    3.51
  -5   6   6    8.58    4.18
   5  -6  -5   26.93    4.80
  -5   6   5   16.43    5.74
   5  -6  -4   13.08    3.58
  -5   6   4   14.21    5.42
   5  -6  -3   19.84    4.27
  -5   6   3    9.30    3.88
   5  -6  -2  401.02   19.77
  -5   6   2  378.37   23.94
   5  -6  -1  159.71   12.62
  -5   6   1  154.43   14.61
   5  -6   0   26.09    5.29
  -5   6   0   28.72    6.39
   5  -6   1  171.05   13.68
  -5   6  -1  164.14   14.61
   5  -6   2  344.25   20.17
  -5   6  -2  277.88   18.85
   5  -6   3   45.12    7.65
  -5   6  -3   47.16    7.48
   5  -6   4  203.68   16.42
  -5   6  -4  199.71   15.36
   5  -6   5    5.19    3.44
  -5   6  -5    6.03    2.70
   5  -6   6  220.66   17.52
  -5   6  -6  171.61   14.11
  -5   6  -7    0.41    1.20
   5  -6   7    1.06    0.33
  -5   6  -8    8.12    2.93
   5  -6   8    3.79    2.60
  -5   6  -9   13.39    4.54
   5  -6   9   12.22    5.60
  -5   6 -10   13.64    4.65
   5  -6  10   12.43    5.82
   5  -6  11   53.03    9.83
  -5   6 -11   52.12   10.04
  -5   6 -11   30.14    6.55
   5  -6  12    1.71    1.56
  -5   6 -12   10.01    5.16
  -5   6 -13  106.58   15.06
   5  -6  13  109.27   14.98
   5  -6  14    2.80    3.70
  -5   5  10   66.19   11.99
   5  -5 -10   43.88    9.45
  -5   5   9    6.97    4.71
   5  -5  -9    6.69    3.85
  -5   5   8   33.57    8.43
   5  -5  -8   45.44    9.12
  -5   5   7    0.78    2.11
   5  -5  -7    3.41    2.86
  -5   5   6  130.86   14.76
   5  -5  -5  109.54    9.27
  -5   5   5   97.19   12.46
   5  -5  -4   10.37    3.06
  -5   5   4    9.83    3.72
   5  -5  -3   22.40    4.46
  -5   5   3   15.75    4.83
   5  -5  -2  445.55   20.31
  -5   5   2  391.20   23.20
   5  -5  -1  394.58   19.41
  -5   5   1  354.82   21.70
   5  -5   0   49.30    7.60
  -5   5   0   47.98    7.43
   5  -5   1   59.82    7.88
  -5   5  -1   60.84    8.36
   5  -5   2   -0.63    1.06
  -5   5  -2   -0.44    1.24
   5  -5   3   67.95    8.89
  -5   5  -3   54.64    7.89
   5  -5   4  150.50   13.65
  -5   5  -4  138.67   12.16
   5  -5   5   55.82    8.66
  -5   5  -5   61.88    8.16
   5  -5   5   56.82    4.57
   5  -5   6   59.75    9.10
  -5   5  -6   60.58    7.84
   5  -5   6   57.46    5.30
  -5   5  -7    2.24    1.63
   5  -5   7    0.96    0.72
   5  -5   7    2.90    1.96
   5  -5   8   47.80    8.70
  -5   5  -8   37.08    6.47
   5  -5   8   49.23    6.16
   5  -5   9    2.00    2.68
  -5   5  -9    2.63    1.44
   5  -5   9   -0.74    1.15
   5  -5  10    1.40    1.64
  -5   5 -10    6.11    3.38
  -5   5 -10    1.30    1.56
   5  -5  10    1.98    1.67
   5  -5  11   39.88    8.58
  -5   5 -11   45.14    9.17
   5  -5  11   53.03    8.03
   5  -5  12   48.38    9.17
  -5   5 -12   49.72    9.88
   5  -5  12   41.07    7.71
  -5   5 -13    9.24    4.96
   5  -5  13   23.81    7.36
   5  -5  14   -0.21    1.41
  -5   4  11   10.96    4.38
   5  -4 -11    9.70    4.32
  -5   4  10    4.57    2.92
   5  -4 -10   15.92    5.44
  -5   4   9   47.90    9.68
   5  -4  -9   69.66   10.76
  -5   4   8   13.86    5.76
   5  -4  -8   19.84    5.71
  -5   4   7   87.52   12.11
   5  -4  -7   93.90   11.82
  -5   4   6   28.33    6.84
   5  -4  -6   23.71    3.90
  -5   4   5   63.85   10.05
   5  -4  -5   61.39    6.68
  -5   4   4  163.58   15.06
   5  -4  -4  172.61   11.40
  -5   4   3   15.73    4.37
   5  -4  -3   19.59    3.88
   5  -4  -2   30.22    5.04
  -5   4   2   23.21    5.54
  -5   4   1   15.68    4.64
   5  -4  -1   24.84    4.82
  -5   4   0    0.26    1.35
   5  -4   0    1.43    1.14
  -5   4  -1  427.91   21.29
   5  -4   1  409.37   20.22
  -5   4  -2  451.56   21.36
   5  -4   2  437.81   21.56
  -5   4  -3  387.92   19.53
   5  -4   3  385.25   20.67
  -5   4  -4    7.30    2.97
   5  -4   4    4.07    2.02
   5  -4   4    6.61    1.33
  -5   4  -5   48.30    6.64
   5  -4   5   57.47    8.53
   5  -4   5   55.02    4.80
  -5   4  -6   64.81    7.54
   5  -4   6   52.36    8.86
   5  -4   6   60.96    5.81
  -5   4  -7  243.55   14.71
   5  -4   7  249.71   18.98
   5  -4   7  250.31   12.87
   5  -4   8   10.94    4.18
  -5   4  -8    4.99    2.12
   5  -4   8    5.69    2.19
   5  -4   9   49.47    9.06
  -5   4  -9   47.40    7.01
   5  -4   9   43.04    6.66
   5  -4  10   21.32    6.47
  -5   4 -10   23.99    6.47
   5  -4  10   26.09    4.98
  -5   4 -11   15.70    5.42
   5  -4  11   24.41    7.41
   5  -4  11   19.99    4.87
  -5   4 -12   33.72    9.10
   5  -4  12   28.22    7.59
   5  -4  12   17.37    5.50
  -5   4 -13   23.12    7.13
   5  -4  13   13.34    4.71
   5  -4  14    1.05    3.33
   5  -4  14    2.73    2.78
  -5   3  12   78.68   13.36
   5  -3 -12   59.93   10.71
  -5   3  11    7.92    3.94
   5  -3 -11    9.58    3.70
  -5   3  10    3.81    3.95
   5  -3 -10    0.57    2.03
  -5   3   9    2.89    2.64
   5  -3  -9    1.27    1.61
  -5   3   8   84.21   12.01
   5  -3  -8  105.20   12.10
  -5   3   7   63.12   10.38
   5  -3  -7   85.41   11.24
  -5   3   6   40.09    7.68
   5  -3  -6   51.09    5.40
  -5   3   5   43.98    7.74
   5  -3  -5   44.59    5.37
  -5   3   4   34.72    6.59
   5  -3  -4   35.46    4.88
  -5   3   3    2.48    1.93
   5  -3  -3    6.60    2.19
  -5   3   2   17.55    4.40
   5  -3  -2   16.65    3.92
  -5   3   1   85.67    9.53
   5  -3  -1   79.38    8.14
  -5   3   0  235.65   15.29
   5  -3   0  268.12   15.71
  -5   3  -1   38.95    6.06
   5  -3   1   48.26    6.79
  -5   3  -2  218.93   13.75
   5  -3   2  224.94   15.37
   5  -3   3    4.95    1.19
  -5   3  -3    3.59    1.99
   5  -3   3    8.03    2.98
  -5   3  -4   68.35    7.23
   5  -3   4   87.48   10.15
   5  -3   4   78.11    5.32
   5  -3   5    0.30    0.97
  -5   3  -5   -0.45    0.07
   5  -3   5    1.09    1.09
   5  -3   6    3.31    2.43
  -5   3  -6   10.73    2.86
   5  -3   6    6.89    2.57
  -5   3  -7   98.42    8.68
   5  -3   7  107.40   12.50
   5  -3   7  112.91    9.11
  -5   3  -8   58.43    6.92
   5  -3   8   70.69    7.71
  -5   3  -9   80.02   11.26
   5  -3   9   61.13    7.77
  -5   3 -10    4.23    3.68
   5  -3  10    1.44    2.48
   5  -3  10    0.66    1.91
  -5   3 -11   20.36    6.64
   5  -3  11   20.40    6.21
   5  -3  11   20.16    5.70
  -5   3 -12    1.58    1.65
   5  -3  12    3.54    3.12
   5  -3  12    9.93    4.10
   5  -3  13   11.40    4.86
  -5   3 -13    5.13    4.02
   5  -3  13    7.24    3.40
   5  -3  14   15.77    6.65
   5  -3  14   12.85    5.98
   5  -2 -13   -0.46    0.85
  -5   2  12    1.47    2.85
   5  -2 -12    1.90    3.26
  -5   2  11   40.62    8.93
   5  -2 -11   58.82    9.81
  -5   2  10   88.37   13.06
   5  -2 -10  115.98   13.19
  -5   2   9  144.31   15.85
   5  -2  -9  184.43   16.21
  -5   2   8    8.62    4.51
   5  -2  -8    3.68    2.65
  -5   2   7    0.23    1.80
  -5   2   7    0.55    1.13
  -5   2   6   62.41    9.59
   5  -2  -6   62.23    5.86
  -5   2   6   61.27    5.47
   5  -2  -5   -0.49    0.19
  -5   2   5   -0.98    1.55
  -5   2   5    0.53    0.72
  -5   2   4   17.47    4.51
   5  -2  -4   25.75    4.29
  -5   2   4   19.89    2.12
   5  -2  -3    0.69    0.40
  -5   2   3    2.95    1.71
  -5   2   2   53.17    7.39
   5  -2  -2   57.57    6.56
  -5   2   1   29.40    5.15
   5  -2  -1   30.62    5.14
   5  -2   0    2.08    2.03
  -5   2   0    0.01    0.46
  -5   2  -1   61.94    7.04
   5  -2   1   76.20    8.69
  -5   2  -2   12.36    3.20
  -5   2  -2   11.49    1.61
   5  -2   2   13.59    1.68
  -5   2  -3   97.03    8.26
   5  -2   3  108.97   11.02
   5  -2   3   95.44    5.76
   5  -2   4   28.54    5.84
  -5   2  -4   19.19    3.51
   5  -2   4   24.26    3.28
   5  -2   5   33.27    6.43
  -5   2  -5   27.03    4.14
   5  -2   5   27.14    3.96
  -5   2  -6  266.82   12.87
   5  -2   6  234.21   17.73
   5  -2   6  251.43   13.15
   5  -2   7   37.54    7.32
  -5   2  -7   39.26    4.93
   5  -2   7   43.42    5.93
  -5   2  -8   23.10    6.37
   5  -2   8   22.07    5.54
   5  -2   8   18.88    4.38
  -5   2  -9   40.81    8.11
   5  -2   9   45.99    7.18
   5  -2   9   56.54    9.71
  -5   2 -10   35.24    8.20
   5  -2  10   20.80    5.42
   5  -2  10   26.17    5.89
   5  -2  11    0.87    3.29
  -5   2 -11    1.36    2.06
   5  -2  11    0.30    2.40
   5  -2  12    6.66    3.25
  -5   2 -12   14.20    5.80
   5  -2  12   10.28    5.21
   5  -2  13    0.19    0.61
   5  -2  13    3.09    2.74
   5  -2  14   11.55    5.66
  -5   1  13   22.79    7.45
   5  -1 -13   21.55    6.57
  -5   1  12   30.89    8.29
   5  -1 -12   22.96    5.91
  -5   1  11   16.05    6.11
   5  -1 -11   21.12    5.42
  -5   1  10   16.47    5.09
   5  -1 -10   14.28    4.67
  -5   1  10   11.70    4.05
  -5   1   9   28.73    7.32
   5  -1  -9   42.92    7.35
  -5   1   9   28.24    4.88
  -5   1   8    8.57    3.76
   5  -1  -8    9.63    3.43
  -5   1   8    6.19    2.66
  -5   1   7   31.39    6.60
  -5   1   7   38.35    4.94
  -5   1   6   10.13    4.07
   5  -1  -6   16.08    2.90
  -5   1   6   20.33    3.36
  -5   1   5   18.79    5.11
   5  -1  -5   21.39    3.58
  -5   1   5   22.16    3.06
  -5   1   4   41.11    7.02
  -5   1   4   37.23    3.42
   5  -1  -4   34.00    4.67
  -5   1   3  217.14   14.91
  -5   1   3  231.32    7.09
   5  -1  -3  228.91   12.90
  -5   1   3  198.64    6.67
  -5   1   2   67.48    7.78
  -5   1   2   58.37    2.92
   5  -1  -2   71.21    7.37
  -5   1   2   51.41    2.68
  -5   1   1   20.29    4.17
  -5   1   1   16.91    1.51
   5  -1  -1   23.68    4.76
  -5   1   1   16.33    1.53
  -5   1   0   52.05    6.22
   5  -1   0   50.70    7.01
  -5   1   0   50.68    3.14
  -5   1  -1   40.34    5.26
   5  -1   1   51.05    7.18
  -5   1  -1   42.40    3.42
  -5   1  -2   56.71    5.95
  -5   1  -2   53.66    4.42
   5  -1   2   66.64    8.19
   5  -1   2   62.47    4.71
  -5   1  -3  152.61    9.05
   5  -1   3  136.11   12.40
   5  -1   3  138.20    7.98
  -5   1  -4   64.61    5.61
   5  -1   4   60.87    8.51
   5  -1   4   66.86    6.17
   5  -1   5    5.19    2.03
  -5   1  -5    5.45    1.67
   5  -1   6   20.81    5.76
   5  -1   6   19.72    3.79
   5  -1   7    3.22    2.04
   5  -1   7    4.26    2.53
  -5   1  -8    2.79    2.40
   5  -1   8    5.38    1.51
  -5   1  -9  143.67   15.27
   5  -1   9  156.26   13.38
   5  -1   9  131.86   14.58
   5  -1  10    2.09    1.31
  -5   1 -10   10.51    5.30
   5  -1  10    6.68    3.39
   5  -1  11   70.91   11.61
  -5   1 -11   49.70    9.47
   5  -1  11   66.78    9.89
  -5   1 -12    7.83    5.16
   5  -1  12    3.21    2.95
   5  -1  12    3.56    3.09
   5  -1  13    5.43    2.85
   5  -1  13    6.85    5.11
   5   0 -14   41.43    8.68
  -5   0  13    3.30    2.70
   5   0 -13    3.55    2.78
  -5   0  12    0.28    2.65
   5   0 -12    1.05    2.19
  -5   0  11   25.72    7.32
   5   0 -11   38.02    7.50
  -5   0  11   31.93    6.55
  -5   0  10   35.72    8.40
   5   0 -10   34.43    7.01
  -5   0  10   38.02    6.27
  -5   0   9    6.37    3.15
   5   0  -9    7.82    3.31
  -5   0   9    7.06    2.98
  -5   0   8   30.22    6.34
  -5   0   8   16.28    3.82
   5   0  -7   14.79    2.49
  -5   0   7   12.27    4.16
  -5   0   7   12.08    2.81
  -5   0   6   92.47   10.52
   5   0  -6   90.27    6.73
  -5   0   6   99.02    7.71
   5   0  -5  189.01   10.52
  -5   0   5  188.32   14.19
  -5   0   5  193.63    9.86
   5   0  -4    8.77    2.33
  -5   0   4   13.17    4.01
  -5   0   4    7.37    1.81
  -5   0   3   64.66    7.83
  -5   0   3   70.75    4.99
  -5   0   3   54.27    4.39
   5   0  -3   70.69    7.12
  -5   0   2   36.91    5.47
  -5   0   2   43.81    3.72
  -5   0   2   38.58    3.65
   5   0  -2   49.35    6.26
  -5   0   1   77.14    7.54
  -5   0   1   76.78    5.07
   5   0  -1   79.14    8.47
  -5   0   0    2.42    1.48
   5   0   0    0.35    1.05
  -5   0   0    1.46    1.06
  -5   0  -1   13.43    2.60
   5   0   1   12.03    2.28
  -5   0  -1   16.71    3.08
   5   0   1   12.48    3.99
  -5   0  -1   11.47    2.34
  -5   0  -2   78.20    6.04
   5   0   2   72.94    9.25
  -5   0  -2   61.17    4.97
   5   0   2   68.73    5.85
   5   0   3    2.67    1.59
  -5   0  -3    2.09    1.12
   5   0   3    2.16    2.05
  -5   0  -4  121.44    6.20
   5   0   4  125.34    9.27
   5   0   4  140.48   13.12
   5   0   5  342.28   16.15
   5   0   5  282.27   19.27
   5   0   6   75.91    8.11
   5   0   6   59.35    9.25
   5   0   7    3.31    2.35
  -5   0  -7    3.05    2.73
   5   0   7    2.40    2.22
   5   0   8   97.90   12.73
  -5   0  -8   83.71   11.57
   5   0   8  104.66   10.86
  -5   0  -9    8.87    3.85
   5   0   9   11.25    4.53
   5   0   9   13.14    4.64
  -5   0 -10    1.35    2.78
   5   0  10    4.86    3.26
   5   0  10    4.11    3.57
   5   0  11   99.27   14.18
  -5   0 -11   78.56   12.35
   5   0  11  108.26   12.59
   5   0  12   17.22    6.22
  -5   0 -12    8.17    5.09
   5   0  12   12.16    4.82
   5   0  13    9.68    5.26
   5   1 -15   -0.44    1.76
   5   1 -14    1.57    1.18
  -5  -1  13    3.44    4.79
   5   1 -13    3.84    3.75
  -5  -1  13    2.57    2.82
  -5  -1  12    8.85    4.17
   5   1 -12   14.27    4.83
  -5  -1  12   12.11    4.23
  -5  -1  11   18.17    6.04
   5   1 -11   14.41    4.88
  -5  -1  11   17.68    4.65
  -5  -1  10   65.05   10.23
   5   1 -10   62.57    8.85
  -5  -1  10   51.79    7.34
  -5  -1   9    1.12    2.22
  -5  -1   9    1.98    1.58
  -5  -1   8  153.16   14.49
  -5  -1   8  172.59   12.22
  -5  -1   7   53.24    4.81
  -5  -1   7   52.15    7.87
  -5  -1   7   53.20    6.35
  -5  -1   6    1.69    2.10
   5   1  -6    4.16    1.80
  -5  -1   6    1.29    1.46
  -5  -1   5   37.06    6.02
   5   1  -5   42.88    5.09
  -5  -1   5   36.94    4.71
  -5  -1   4   32.85    5.48
   5   1  -4   38.03    5.09
  -5  -1   4   30.67    4.04
  -5  -1   3    3.77    1.85
  -5  -1   3    2.60    1.82
   5   1  -3    1.12    0.71
  -5  -1   3    4.02    1.42
  -5  -1   2    0.42    1.10
   5   1  -2    0.19    1.10
  -5  -1   2    1.41    1.25
   5   1  -1   12.78    3.41
  -5  -1   1   10.87    2.72
  -5  -1   1   10.96    2.49
   5   1   0   37.72    6.45
   5   1   0   41.48    4.48
  -5  -1   0   45.00    4.87
  -5  -1   0   36.12    4.02
  -5  -1   0   41.51    4.82
   5   1   1    1.99    1.40
   5   1   1    4.82    2.63
  -5  -1  -1    1.67    0.94
  -5  -1  -1    0.69    0.90
   5   1   2  166.52   13.93
  -5  -1  -2  175.13    7.01
   5   1   2  196.97   11.12
   5   1   3  316.87   19.32
   5   1   3  302.11   14.73
   5   1   4    4.46    2.12
   5   1   4    2.87    2.93
   5   1   5  244.52   18.61
   5   1   5  293.75   16.21
   5   1   6   -0.35    1.18
  -5  -1  -6    5.98    2.75
   5   1   6    3.67    2.84
   5   1   7   59.18    9.70
  -5  -1  -7   71.05   10.69
  -5  -1  -8    7.83    4.57
   5   1   8   13.39    5.37
   5   1   8   13.74    4.46
   5   1   9    3.31    2.51
  -5  -1  -9    3.12    3.85
   5   1   9    4.86    3.84
  -5  -1 -10   33.03    7.85
   5   1  10   43.99    8.59
   5   1  10   36.99    7.53
  -5  -1 -11    0.45    1.13
   5   1  11   -0.07    2.70
   5   1  12   13.28    5.95
   5   1  12    3.14    2.59
   5   2 -15    0.96    0.77
   5   2 -14   43.31    7.70
  -5  -2  14   37.56    7.83
   5   2 -13   36.20    7.46
  -5  -2  13   42.12    8.27
   5   2 -12    0.23    0.95
  -5  -2  12    0.35    2.49
   5   2 -11   19.20    4.82
  -5  -2  11   24.29    5.80
  -5  -2  10  162.49   13.74
  -5  -2   9   65.70    8.38
  -5  -2   8    8.37    3.21
  -5  -2   7   10.67    2.39
  -5  -2   7   10.53    3.10
  -5  -2   6    4.59    2.50
  -5  -2   6    5.32    2.06
  -5  -2   6    3.43    1.75
  -5  -2   5   30.84    5.39
  -5  -2   5   24.43    3.98
   5   2  -5   26.34    4.27
  -5  -2   4   32.17    5.26
   5   2  -4   32.27    4.73
  -5  -2   4   42.82    5.09
  -5  -2   3   85.36    7.94
   5   2  -3   88.78    8.43
  -5  -2   2  166.19   10.33
   5   2  -2  186.16   12.84
  -5  -2   1   37.11    4.45
   5   2  -1   38.44    5.91
  -5  -2   1   35.87    4.08
  -5  -2   0  569.15   15.10
   5   2   0  577.44   24.19
   5   2   0  556.30   18.98
   5   2   1   38.47    6.85
  -5  -2  -1   32.33    2.83
   5   2   1   35.12    4.88
   5   2   2   19.65    3.87
   5   2   2   16.09    5.06
   5   2   3    1.28    1.90
   5   2   3    2.04    1.74
   5   2   4  157.08   14.77
   5   2   4  142.24   11.59
   5   2   5    6.93    2.39
   5   2   5   14.44    5.09
  -5  -2  -5    7.28    3.85
   5   2   6    7.05    2.95
   5   2   6    3.69    2.82
  -5  -2  -6    5.73    3.10
   5   2   7   30.06    6.16
  -5  -2  -7   24.26    6.31
   5   2   7   27.28    6.91
   5   2   8    6.40    3.57
  -5  -2  -8    9.26    4.42
   5   2   8   13.77    5.29
   5   2   9   35.07    6.85
   5   2   9   54.78    9.79
  -5  -2  -9   47.42    9.12
   5   2  10    7.23    4.71
  -5  -2 -10    6.73    4.12
   5   2  10    4.35    3.44
  -5  -2 -11    8.16    4.94
   5   2  11    8.74    4.90
   5   2  11   12.05    4.33
  -5  -3  15   14.76    9.17
   5   3 -14    1.38    1.66
  -5  -3  14    5.64    4.18
   5   3 -13   18.72    5.25
  -5  -3  13   22.66    6.53
  -5  -3  12   78.91   10.73
  -5  -3  11    2.46    1.94
  -5  -3  10    1.38    2.03
  -5  -3   9   22.55    5.31
  -5  -3   8  124.74   10.96
  -5  -3   7   19.58    3.52
  -5  -3   7   24.81    4.73
  -5  -3   6  146.16    9.93
  -5  -3   6  148.29   11.01
  -5  -3   5   -0.17    0.59
  -5  -3   5    1.01    1.50
  -5  -3   4   31.52    5.22
  -5  -3   4   25.33    4.49
  -5  -3   3  573.02   19.54
   5   3  -3  597.74   22.35
  -5  -3   2  443.37   15.79
   5   3  -2  445.07   20.45
   5   3  -1    1.70    1.50
  -5  -3   1    1.57    1.33
   5   3   0    5.62    2.22
  -5  -3   0    2.05    0.84
   5   3   0    3.51    2.71
   5   3   1   71.28    8.88
   5   3   1   58.08    6.99
   5   3   2  292.27   19.20
   5   3   2  299.82   16.09
   5   3   3   12.11    3.74
  -5  -3  -3    6.21    2.82
   5   3   3   11.87    3.30
  -5  -3  -4   81.46   10.36
   5   3   4  104.15   12.49
   5   3   4   85.43    9.41
   5   3   5    9.33    3.95
   5   3   5    9.76    4.65
  -5  -3  -5    5.12    3.27
  -5  -3  -6  153.26   15.29
   5   3   6  156.35   15.92
   5   3   6  192.47   15.46
   5   3   7   15.67    4.67
   5   3   7   15.97    5.44
  -5  -3  -7   13.61    5.03
   5   3   8   22.28    5.52
   5   3   8   23.73    6.86
  -5  -3  -8   25.36    6.51
   5   3   9   19.42    5.99
  -5  -3  -9   11.25    4.65
   5   3  10   59.31   10.17
  -5  -3 -10   59.18   10.80
  -5  -3 -10   54.67   10.68
   5   3  11    4.25    4.60
  -5  -4  15   10.26    5.23
  -5  -4  14   93.35   12.57
  -5  -4  13   32.33    7.38
  -5  -4  12    5.32    3.53
  -5  -4  11    0.38    0.63
  -5  -4  10    0.96    2.19
  -5  -4   9    6.84    3.26
  -5  -4   8  104.27   10.50
  -5  -4   7  143.88    9.92
  -5  -4   7  123.86   11.15
  -5  -4   6  130.60   10.06
  -5  -4   6  157.16   12.03
  -5  -4   5   72.29    7.91
  -5  -4   4  132.48   10.95
  -5  -4   3   83.50    9.22
  -5  -4   3   79.26    7.08
  -5  -4   2   70.36    8.63
  -5  -4   2   76.50    6.20
  -5  -4   1  233.83   16.14
  -5  -4   1  259.05    9.39
   5   4  -1  268.88   15.04
   5   4   0  267.01   15.62
   5   4   1   46.28    7.57
   5   4   1   46.36    6.75
  -5  -4  -2  146.97   13.21
   5   4   2  170.73   15.59
   5   4   2  170.92   13.07
   5   4   3    4.14    3.06
  -5  -4  -3    3.40    2.10
   5   4   3    3.38    3.58
   5   4   4    8.30    3.44
  -5  -4  -4    6.79    3.54
  -5  -4  -5  252.86   19.55
   5   4   5  263.35   18.23
   5   4   6    6.53    2.62
  -5  -4  -6    2.40    1.43
  -5  -4  -6    6.17    3.21
   5   4   7   22.86    5.93
  -5  -4  -7   32.95    7.48
  -5  -4  -7   28.01    6.78
   5   4   8    0.89    3.12
  -5  -4  -8    3.44    3.58
  -5  -4  -8    0.93    1.53
   5   4   9   72.02   11.28
  -5  -4  -9   53.38    9.90
  -5  -4  -9   45.44    9.89
   5   4  10    2.00    3.59
  -5  -5  15    8.77    4.15
  -5  -5  14   73.01   11.24
   5   5 -13   31.82    7.01
  -5  -5  13   15.09    5.49
  -5  -5  12   68.77   10.22
   5   5 -12   76.52   11.04
   5   5 -11    3.81    2.38
  -5  -5  11    3.57    2.74
   5   5 -10    2.06    2.20
  -5  -5  10   -0.29    1.00
  -5  -5   9   64.22    8.86
   5   5  -9   83.94    9.86
  -5  -5   8   68.26    6.85
  -5  -5   8   68.37    8.76
   5   5  -8   84.40    9.53
  -5  -5   7   31.30    4.98
  -5  -5   7   28.92    5.36
   5   5  -7   41.27    6.30
  -5  -5   6   29.57    5.11
   5   5  -6   35.65    5.72
  -5  -5   5   59.56    7.34
  -5  -5   4   14.03    3.95
  -5  -5   3   21.29    5.09
  -5  -5   2    6.18    1.82
  -5  -5   2    9.26    3.35
   5   5  -1   13.82    3.87
  -5  -5   1   16.80    4.47
   5   5   0   18.92    4.39
  -5  -5   0   12.97    4.11
   5   5   1    8.42    3.06
  -5  -5  -1    9.88    3.56
  -5  -5  -1    5.10    2.88
  -5  -5  -2  209.27   17.29
  -5  -5  -2  224.39   16.21
   5   5   2  219.77   15.82
  -5  -5  -3   67.26   10.33
  -5  -5  -3   75.21    9.71
   5   5   3   73.41    9.52
   5   5   4   25.64    6.13
  -5  -5  -4   20.17    5.69
  -5  -5  -4   20.44    5.58
  -5  -5  -5  101.22   13.03
  -5  -5  -5   95.57   12.14
   5   5   5  103.28   12.46
   5   5   6   11.72    5.03
  -5  -5  -6   18.44    6.13
  -5  -5  -6    7.90    3.61
  -5  -5  -7  153.18   16.93
  -5  -5  -7  117.43   14.47
   5   5   7  140.14   15.52
  -5  -5  -8   88.12   12.98
  -5  -5  -8   84.19   12.93
   5   5   8  101.05   13.40
   5   5   9   21.04    7.58
  -5  -5  -9   19.22    6.57
  -5  -6  15    1.72    3.19
   5   6 -14   -0.95    2.46
  -5  -6  14    0.92    2.54
   5   6 -13    3.87    4.25
  -5  -6  13    4.21    3.24
   5   6 -12   50.48    8.75
  -5  -6  12   43.81    8.83
   5   6 -11   44.27    8.01
  -5  -6  11   22.40    6.12
  -5  -6  10   54.33    9.16
   5   6 -10   55.02    9.12
   5   6  -9   32.01    6.46
  -5  -6   9   17.98    5.07
   5   6  -8   28.88    6.50
  -5  -6   8   29.08    4.73
  -5  -6   8   23.50    5.86
  -5  -6   7   26.52    5.15
   5   6  -7   42.83    6.86
  -5  -6   6   38.25    6.28
   5   6  -6   45.11    6.13
  -5  -6   5   54.14    7.61
   5   6  -5   57.14    6.75
  -5  -6   4  189.98   14.86
  -5  -6   3    4.90    3.33
  -5  -6   2   31.01    6.12
  -5  -6   1   69.52    9.59
  -5  -6   1   65.64    7.69
   5   6  -1   77.96    9.54
   5   6   0    1.23    1.60
  -5  -6   0   -0.57    1.76
  -5  -6   0    1.04    1.48
  -5  -6  -1  138.16   14.04
  -5  -6  -1  132.11   11.89
   5   6   1  112.34   11.76
   5   6   2   37.61    7.02
  -5  -6  -2   28.65    6.91
  -5  -6  -2   36.64    6.40
   5   6   3    4.55    3.19
  -5  -6  -3    5.45    3.04
  -5  -6  -3    4.82    3.01
  -5  -6  -4   91.73   12.42
  -5  -6  -4   71.78   10.06
   5   6   4   90.40   11.38
   5   6   5   54.98    9.24
  -5  -6  -5   72.03   11.22
  -5  -6  -5   52.26    9.08
   5   6   6    5.23    4.31
  -5  -6  -6    4.04    3.20
  -5  -6  -6    4.48    3.99
   5   6   7   -4.74    3.31
  -5  -6  -7    2.65    2.77
  -5  -6  -7    3.17    3.77
  -5  -6  -8  102.11   14.37
   5   6   8  106.44   14.98
   5   7 -14    2.74    1.85
  -5  -7  14    4.78    3.55
   5   7 -13    2.65    3.12
  -5  -7  13    0.25    1.51
   5   7 -12   10.55    4.33
  -5  -7  12   14.46    5.14
   5   7 -11   13.28    4.72
  -5  -7  11    7.94    4.75
   5   7 -10    1.10    2.08
  -5  -7  10    2.75    2.78
  -5  -7   9  119.06   13.08
   5   7  -9  140.72   12.86
   5   7  -8    1.23    2.20
  -5  -7   8    1.65    0.53
  -5  -7   8    1.75    2.67
   5   7  -7    0.75    1.44
  -5  -7   7    1.45    1.67
  -5  -7   6   76.26    9.57
   5   7  -6   95.82    9.18
   5   7  -5   25.96    4.70
  -5  -7   5   16.92    4.72
  -5  -7   4   52.67    8.17
  -5  -7   3   32.17    6.51
  -5  -7   2   55.24    8.71
  -5  -7   2   58.20    6.75
  -5  -7   1    1.03    0.71
  -5  -7   1    3.50    2.57
   5   7   0   40.87    7.72
  -5  -7   0   38.12    6.50
  -5  -7   0   36.36    7.34
   5   7   1    1.81    1.45
  -5  -7  -1   -0.60    1.22
   5   7   2   -1.58    1.61
  -5  -7  -2    1.08    2.65
  -5  -7  -2    2.84    2.45
   5   7   3   29.70    6.92
  -5  -7  -3   23.50    6.05
  -5  -7  -3   28.83    6.29
   5   7   4   14.20    4.94
  -5  -7  -4    7.84    4.63
  -5  -7  -4    7.52    3.96
   5   7   5   33.73    7.54
  -5  -7  -5   37.93    9.00
  -5  -7  -5   41.33    8.18
   5   7   6   19.11    5.86
  -5  -7  -6   21.68    6.10
  -5  -7  -6   23.77    6.88
  -5  -7  -7   30.84    7.88
  -5  -8  14    9.24    5.28
   5   8 -13    1.09    2.16
  -5  -8  13    2.78    4.35
   5   8 -12   40.61    8.28
  -5  -8  12   31.06    7.65
   5   8 -11    8.63    4.03
  -5  -8  11    3.16    3.24
   5   8 -10    5.24    3.31
  -5  -8  10    2.46    2.19
   5   8  -9    8.96    3.57
  -5  -8   9    6.06    3.78
   5   8  -8    7.73    3.11
  -5  -8   8    8.97    3.00
  -5  -8   7   81.67    9.75
   5   8  -7   83.08    8.97
   5   8  -6    1.03    1.52
  -5  -8   6    0.97    2.44
  -5  -8   5   61.05    9.01
  -5  -8   4    1.91    2.40
  -5  -8   3  125.97   13.88
  -5  -8   2   41.97    7.90
   5   8  -1    0.10    1.03
  -5  -8   1    3.82    2.63
   5   8   0   10.06    4.28
  -5  -8   0    1.00    0.71
   5   8   1    1.19    2.91
  -5  -8  -1    3.34    2.70
  -5  -8  -2   57.96   10.35
   5   8   2   77.62   11.10
   5   8   3    2.01    3.04
  -5  -8  -3    1.00    1.27
   5   8   4   25.80    6.92
  -5  -8  -4   48.05   10.24
   5   8   5    5.88    4.15
  -5  -8  -5    5.74    4.55
  -5  -8  -6    1.81    2.50
   5   9 -13    2.86    3.19
  -5  -9  13    3.63    3.52
   5   9 -12   -0.67    1.75
  -5  -9  12    5.76    4.08
   5   9 -11    9.89    4.31
  -5  -9  11    6.38    4.09
   5   9 -10    9.27    4.32
  -5  -9  10    5.89    3.77
   5   9  -9    9.20    3.10
  -5  -9   9    7.44    4.17
  -5  -9   8   50.21    7.83
   5   9  -8   67.48    8.92
  -5  -9   7    3.27    2.62
  -5  -9   6    1.16    1.13
  -5  -9   5   76.57   10.75
  -5  -9   4    1.06    1.38
  -5  -9   3   11.48    4.62
  -5  -9   2  117.04   14.15
   5   9  -1   14.11    5.24
  -5  -9   1   10.11    4.25
   5   9   0    4.20    3.18
  -5  -9   0    8.17    5.04
   5   9   1   16.49    4.77
  -5  -9  -1   15.76    5.46
   5   9   2    6.75    4.77
  -5  -9  -2    2.00    1.00
   5   9   3    3.44    2.84
  -5  -9  -3    5.99    3.83
   5  10 -13    8.15    4.83
   5  10 -12    2.70    2.95
  -5 -10  12    5.05    4.26
   5  10 -11   18.49    5.46
  -5 -10  11   34.43    8.97
   5  10 -10    0.74    2.40
  -5 -10  10    0.88    3.11
  -5 -10   8   95.10   11.57
  -5 -10   7    3.79    2.99
  -5 -10   6    2.58    2.83
  -5 -10   5    4.14    2.85
  -5 -10   4   32.07    6.99
  -5 -10   3    3.27    3.06
  -5 -10   2   19.60    5.91
   5  10  -1    1.19    2.77
  -5 -10   1    0.59    3.48
   5  10   0   67.25   11.21
  -5 -10   0   50.45    9.88
   5  10   1   23.82    6.77
  -5 -10  -1   19.90    6.04
  -5 -11  10    0.89    0.32
  -5 -11   8    0.87    2.46
  -5 -11   7    3.94    3.38
  -5 -11   6    0.74    1.77
  -5 -11   5   16.78    5.50
  -5 -11   4    6.26    3.43
  -5 -11   3   77.48   12.43
  -5 -11   2   -5.82    4.50
  -5 -12   8    9.26    3.76
  -5 -12   7   -2.33    2.34
  -5 -12   6   20.29    6.57
  -5 -12   5    4.47    4.74
   6 -11  -2    2.60    1.75
   6 -11  -1   -4.53    3.44
   6 -11   0   15.84    5.68
   6 -11   1    0.45    2.59
   6 -11   2    3.08    4.04
  -6  11  -2    3.93    3.57
   6 -11   3   48.13    9.76
  -6  11  -3   34.63    9.65
   6 -11   4   99.55   14.34
  -6  11  -4   94.75   14.17
   6 -11   5    0.51    1.83
  -6  11  -5    5.52    2.75
  -6  11  -6    9.70    4.71
  -6  11  -7    1.81    2.54
  -6  11  -8    9.57    4.50
   6 -10  -2   13.73    5.16
   6 -10  -1   20.95    6.48
  -6  10   1   11.22    5.12
   6 -10   0   10.53    4.74
  -6  10   0   11.81    5.00
   6 -10   1   72.04   10.77
  -6  10  -1   58.28   10.90
   6 -10   2    6.13    3.52
  -6  10  -2   11.89    5.77
   6 -10   3    5.51    3.96
  -6  10  -3    1.19    1.69
   6 -10   4   11.96    5.29
  -6  10  -4   28.08    7.69
   6 -10   5    7.98    3.78
  -6  10  -5    3.21    2.80
   6 -10   6    3.87    2.93
  -6  10  -6    1.02    1.30
   6 -10   7    5.80    1.56
  -6  10  -7    9.22    4.96
   6 -10   8   42.31    9.58
  -6  10  -8   24.15    7.12
  -6  10  -9   16.04    6.28
  -6  10 -10    1.97    0.67
  -6  10 -11   13.91    5.60
   6  -9  -3    8.89    3.86
  -6   9   3    3.86    2.49
   6  -9  -2    3.83    2.92
  -6   9   2    5.07    3.47
   6  -9  -1   24.29    6.51
  -6   9   1   17.10    6.19
   6  -9   0   94.82   12.01
  -6   9   0   90.77   13.42
   6  -9   1   18.03    4.97
  -6   9  -1   10.14    3.77
   6  -9   2   13.15    4.54
  -6   9  -2   11.96    5.07
   6  -9   3   66.85   10.64
  -6   9  -3   55.49   10.13
   6  -9   4    8.87    4.49
  -6   9  -4    1.97    2.43
   6  -9   5    5.57    3.65
  -6   9  -5    1.73    1.35
   6  -9   6    3.51    2.44
  -6   9  -6    6.27    3.93
   6  -9   7    2.58    2.30
  -6   9  -7    3.54    3.79
   6  -9   8   14.09    4.97
  -6   9  -8   18.87    5.74
  -6   9  -9    2.02    2.38
   6  -9   9    4.42    4.35
  -6   9 -10   21.57    7.04
  -6   9 -11    8.74    4.51
  -6   8   5    0.27    3.84
  -6   8   4   23.49    8.16
   6  -8  -3    0.51    1.95
  -6   8   3    0.62    1.34
   6  -8  -2   89.89   11.20
  -6   8   2   69.69   11.61
   6  -8  -1   29.03    6.00
  -6   8   1   23.51    7.17
   6  -8   0  139.27   14.14
  -6   8   0  105.31   13.91
   6  -8   1   14.44    3.87
  -6   8  -1   19.61    6.26
   6  -8   2   23.64    6.10
  -6   8  -2   22.19    6.69
   6  -8   3   16.01    4.60
  -6   8  -3    6.58    4.52
   6  -8   4    1.49    1.41
  -6   8  -4    2.66    2.13
   6  -8   5    3.15    2.40
  -6   8  -5   11.84    4.97
   6  -8   6    7.56    4.36
  -6   8  -6   10.82    4.24
   6  -8   7  104.10   14.01
  -6   8  -7   67.27    9.98
  -6   8  -8   38.30    8.07
   6  -8   8   25.59    6.80
  -6   8  -9   -3.04    2.41
   6  -8   9   -0.03    2.38
  -6   8 -10    4.70    4.15
   6  -8  10   -2.24    3.05
  -6   7   6   21.97    7.04
  -6   7   5    4.05    2.96
  -6   7   4   11.76    4.88
   6  -7  -3  116.45   12.11
  -6   7   3   93.57   13.41
   6  -7  -2   41.46    7.64
  -6   7   2   45.55    9.05
   6  -7  -1   27.38    5.63
  -6   7   1   26.43    7.25
   6  -7   0   -2.56    1.86
  -6   7   0    1.84    2.59
   6  -7   1    6.72    3.68
  -6   7  -1    7.60    3.45
   6  -7   2  122.44   13.46
  -6   7  -2  111.26   13.47
  -6   7  -3   -1.68    2.73
   6  -7   3    0.34    1.15
  -6   7  -4    5.97    3.17
   6  -7   4    7.90    3.25
  -6   7  -5    0.27    1.09
   6  -7   5    2.76    3.36
  -6   7  -6   15.52    4.79
   6  -7   6   17.67    5.23
  -6   7  -7    3.24    2.78
   6  -7   7    1.62    1.71
  -6   7  -8    7.84    3.49
   6  -7   8    9.25    4.82
  -6   7  -9   27.56    6.80
   6  -7   9   31.13    8.33
   6  -7  10   33.19    8.07
  -6   6   8   11.64    4.94
  -6   6   7   13.79    6.15
  -6   6   6   14.37    6.00
  -6   6   5   -1.36    0.51
  -6   6   4  115.45   14.51
   6  -6  -4  137.19   11.99
  -6   6   3   14.12    5.12
   6  -6  -3    6.44    3.39
  -6   6   2   70.09   11.01
   6  -6  -2   56.77    7.98
  -6   6   1    5.30    2.66
   6  -6  -1    0.78    1.52
  -6   6   0   41.83    8.19
   6  -6   0   39.35    7.15
  -6   6  -1   20.01    5.99
   6  -6   1   28.42    6.23
   6  -6   2   42.39    7.82
  -6   6  -2   37.31    7.32
  -6   6  -3    8.13    4.25
   6  -6   3    5.25    2.80
  -6   6  -4    4.35    2.25
   6  -6   4    2.84    2.72
  -6   6  -5   52.55    8.41
   6  -6   5   56.39    9.27
  -6   6  -6   98.42   11.17
   6  -6   6   82.90   11.98
  -6   6  -7   15.76    4.77
   6  -6   7   23.25    6.58
  -6   6  -8    8.53    3.85
   6  -6   8    3.68    2.70
   6  -6   9    3.70    3.11
   6  -6  10   16.16    5.67
   6  -6  11    2.02    3.94
  -6   6 -11    2.06    2.74
  -6   5   8    7.80    5.29
  -6   5   7   34.68    8.30
  -6   5   6    9.16    5.26
  -6   5   5   89.18   12.70
  -6   5   4   23.48    6.74
   6  -5  -4   19.46    4.46
  -6   5   3  179.70   17.31
   6  -5  -3  207.10   14.60
  -6   5   2    1.50    2.45
   6  -5  -2    1.98    2.05
  -6   5   1  132.26   14.14
   6  -5  -1  119.74   11.70
  -6   5   0   11.74    4.29
   6  -5   0   11.93    4.45
  -6   5  -1   61.73    9.16
   6  -5   1   80.23    9.89
  -6   5  -2   28.06    6.06
   6  -5   2   41.69    7.24
  -6   5  -3    3.31    2.65
   6  -5   3    0.70    1.37
  -6   5  -4   24.90    5.38
   6  -5   4   23.68    5.82
  -6   5  -5    9.53    3.63
   6  -5   5   16.44    5.29
  -6   5  -6    7.81    3.43
   6  -5   6   10.08    4.39
   6  -5   7    4.98    3.91
  -6   5  -7    1.99    2.61
   6  -5   8    9.29    4.93
   6  -5   9   37.18    8.37
   6  -5  10   -0.34    1.65
  -6   5 -11    1.69    2.89
   6  -5  11    0.92    1.84
  -6   4   9   52.76   11.16
  -6   4   8   57.43   10.86
  -6   4   7    4.43    3.63
  -6   4   6  110.17   13.98
  -6   4   5   36.04    7.97
   6  -4  -5   37.96    5.56
  -6   4   4  217.70   18.97
   6  -4  -4  271.45   16.04
  -6   4   3   48.33    8.83
   6  -4  -3   47.84    6.89
  -6   4   2   21.71    5.94
   6  -4  -2   26.64    5.11
  -6   4   1  110.10   12.22
   6  -4  -1  109.58   11.08
  -6   4   0   -0.02    0.75
   6  -4   0    1.81    1.35
  -6   4  -1  143.17   13.25
   6  -4   1  168.02   14.33
  -6   4  -2   18.06    4.41
   6  -4   2   27.17    6.00
  -6   4  -3   68.47    8.67
   6  -4   3   76.16   10.19
   6  -4   4   10.25    3.61
  -6   4  -4   10.53    3.90
  -6   4  -5   42.04    6.54
   6  -4   5   56.55    9.19
   6  -4   6   11.22    4.15
  -6   4  -6    4.14    1.71
   6  -4   7    6.38    3.75
   6  -4   8   44.94    8.80
   6  -4   9   14.62    5.43
  -6   4 -10   11.52    4.90
   6  -4  10    5.43    3.92
  -6   4 -11    9.72    4.95
   6  -4  11    4.96    3.64
  -6   3  10   20.64    7.75
  -6   3   9   64.09   11.57
  -6   3   8   24.87    7.35
  -6   3   7   28.40    7.37
  -6   3   6    8.58    3.45
   6  -3  -5   13.96    3.49
  -6   3   5    6.66    4.02
  -6   3   4   85.01   11.35
   6  -3  -4   94.36    9.24
   6  -3  -3   11.60    2.87
  -6   3   3   10.28    3.67
  -6   3   2  120.77   12.60
   6  -3  -2  128.86   11.49
  -6   3   1   51.67    8.26
   6  -3  -1   47.81    7.22
   6  -3   0    8.06    3.62
  -6   3   0    1.50    2.26
  -6   3  -1  108.11   11.03
   6  -3   1  105.31   11.52
  -6   3  -2  228.00   15.27
   6  -3   2  290.87   19.34
   6  -3   3    3.56    3.28
  -6   3  -3    0.71    1.51
  -6   3  -4   83.31    8.45
   6  -3   4   96.33   11.87
   6  -3   5    3.68    2.64
  -6   3  -5    2.25    1.38
   6  -3   6    0.65    0.86
   6  -3   7    4.97    2.58
   6  -3   8    5.42    3.77
  -6   3  -9    0.81    2.16
   6  -3   9    2.67    2.27
  -6   3 -10    5.93    3.36
   6  -3  10    1.41    1.66
  -6   3 -11    3.99    3.17
   6  -3  11    2.53    2.56
  -6   2  11   -0.25    3.13
  -6   2  10   24.52    8.20
  -6   2   9   21.23    7.00
  -6   2   8   50.15    9.90
  -6   2   7    1.46    1.50
  -6   2   6   11.26    4.68
  -6   2   5    1.50    2.19
   6  -2  -5   -0.20    0.94
  -6   2   4    6.16    3.00
   6  -2  -4    6.81    2.37
  -6   2   3   27.06    5.88
   6  -2  -3   29.25    5.00
   6  -2  -2    7.14    2.72
  -6   2   2    0.65    0.82
   6  -2  -1   32.84    5.76
  -6   2   1   19.47    5.17
   6  -2   0   19.65    4.97
  -6   2   0   18.84    4.33
  -6   2  -1   53.68    7.12
   6  -2   1   68.14    9.33
  -6   2  -2   66.05    7.73
   6  -2   2   52.86    8.19
   6  -2   3    1.67    1.95
  -6   2  -3    0.54    1.34
  -6   2  -4  146.28   10.21
   6  -2   4  148.55   14.60
   6  -2   5   68.60   10.74
   6  -2   6    8.89    4.36
   6  -2   7   27.71    7.45
   6  -2   8   15.27    5.68
  -6   2  -9   27.19    7.61
   6  -2   9   33.50    8.59
   6  -2  10    7.07    4.88
  -6   2 -10    0.59    2.88
   6  -2  11   33.04    8.58
  -6   1  11   -4.42    4.10
  -6   1  10   32.46    8.27
  -6   1   9   19.58    5.84
  -6   1   8   72.96   10.96
  -6   1   7   43.14    8.68
  -6   1   6   23.21    6.40
  -6   1   5    0.30    2.33
   6  -1  -5    2.13    1.77
  -6   1   4  100.59   11.36
   6  -1  -4  117.14   10.00
  -6   1   3   21.16    4.63
   6  -1  -3   25.77    4.85
  -6   1   2   56.09    7.80
   6  -1  -2   75.63    8.69
  -6   1   1   24.53    5.00
   6  -1  -1   30.48    5.77
  -6   1   0    0.87    1.28
   6  -1   0   -1.01    1.08
  -6   1  -1  154.70   11.19
   6  -1   1  197.59   15.45
  -6   1  -2   96.20    8.42
   6  -1   2  125.86   12.76
   6  -1   3   18.06    5.38
   6  -1   4    2.39    2.50
   6  -1   5   72.60   10.49
   6  -1   6    0.07    1.50
   6  -1   7   35.45    7.97
   6  -1   8   23.69    6.09
  -6   1  -8   37.37    8.63
   6  -1   9    0.65    2.43
  -6   1  -9    5.79    3.81
   6  -1  10   26.00    6.89
  -6   1 -10   25.91    7.62
  -6   0  12   18.84    6.57
  -6   0  11   18.17    6.08
  -6   0  10    1.45    2.46
  -6   0   9   75.96   11.92
  -6   0   8    5.05    3.29
  -6   0   7    5.55    3.55
   6   0  -6   12.59    3.11
  -6   0   6    9.39    3.79
   6   0  -5   33.75    5.09
  -6   0   5   30.47    6.40
   6   0  -4   11.87    3.21
  -6   0   4   12.53    4.25
  -6   0   3   75.55    8.99
   6   0  -3   83.61    8.78
   6   0  -2    8.59    3.22
  -6   0   2    1.89    1.76
  -6   0   1    2.31    2.08
   6   0  -1    7.92    3.37
  -6   0   0  122.61    9.62
   6   0   0  132.79   12.27
  -6   0  -1    3.45    1.99
   6   0   1   -0.03    1.79
   6   0   2   63.57    9.51
   6   0   2   33.82    4.31
   6   0   3   96.79    7.85
   6   0   3  116.69   12.64
   6   0   4    0.96    0.94
   6   0   4    3.51    3.09
   6   0   5   79.28   11.04
   6   0   5   62.11    7.26
   6   0   6  134.80   14.81
   6   0   6  156.67   12.23
   6   0   7    4.34    2.98
   6   0   7    2.45    3.97
  -6   0  -7    2.05    3.17
   6   0   8    1.37    1.78
  -6   0  -8    0.84    2.28
   6   0   8    3.04    3.07
   6   0   9    2.23    3.07
  -6   0  -9    5.64    4.23
   6   0   9    5.02    3.16
  -6   0 -10    3.51    3.98
   6   0  10   12.98    4.27
  -6  -1  12   17.04    6.65
  -6  -1  11    3.18    3.15
  -6  -1  10   93.92   13.67
  -6  -1   9   12.12    5.17
  -6  -1   8   22.94    6.46
  -6  -1   7    0.76    0.77
  -6  -1   6  107.04   11.86
   6   1  -6  130.42    9.76
  -6  -1   5    4.39    2.84
   6   1  -5    8.47    2.97
   6   1  -4   -0.73    0.69
  -6  -1   4    1.46    1.95
  -6  -1   3    4.65    2.32
   6   1  -3   12.74    3.82
  -6  -1   2    1.49    2.02
   6   1  -2    0.90    1.36
   6   1  -1  118.28   11.32
  -6  -1   1   96.78    8.58
   6   1   0  314.97   19.20
  -6  -1   0  294.84   13.55
   6   1   1   34.66    6.86
   6   1   1   38.71    4.64
   6   1   2    1.44    1.74
   6   1   2    1.53    0.40
   6   1   3   21.87    4.18
   6   1   3   20.26    5.64
   6   1   4   89.26   11.38
   6   1   4   70.65    7.80
   6   1   5   -0.59    1.22
   6   1   5    3.75    3.61
   6   1   6   37.66    6.45
  -6  -1  -6   30.05    7.22
   6   1   6   53.66    9.46
   6   1   7    2.33    1.78
  -6  -1  -7    4.54    2.87
   6   1   7    4.71    3.05
   6   1   8   91.58   13.23
  -6  -1  -8   89.06   12.98
   6   1   8   99.60   11.50
   6   1   9   16.20    5.61
   6   1   9   15.74    5.81
  -6  -1  -9   13.18    5.56
   6   1  10    6.72    4.05
  -6  -2  12    4.35    3.49
  -6  -2  11  194.61   19.46
  -6  -2  10   15.38    5.22
  -6  -2   9   -0.39    1.40
  -6  -2   8   33.33    6.87
  -6  -2   7   13.38    4.35
  -6  -2   6  163.61   11.55
  -6  -2   6  154.86   13.82
  -6  -2   6  161.41   11.08
  -6  -2   5   56.76    8.02
  -6  -2   5   65.43    6.87
   6   2  -5   73.56    7.98
  -6  -2   4   52.94    7.46
   6   2  -4   61.12    7.77
  -6  -2   4   53.95    6.02
  -6  -2   3   48.97    6.50
   6   2  -3   55.66    7.78
  -6  -2   2    2.45    2.06
   6   2  -2    6.02    2.47
  -6  -2   1  131.99    9.07
   6   2  -1  162.98   13.49
   6   2   0   52.35    8.29
   6   2   1    6.74    3.22
   6   2   1    4.29    1.82
   6   2   2   23.06    5.92
   6   2   2   22.95    4.40
   6   2   3   12.83    3.46
   6   2   3   12.28    4.59
   6   2   4   12.73    3.58
   6   2   4   21.27    5.69
   6   2   5   58.93    9.72
  -6  -2  -5   43.55    8.72
   6   2   5   57.55    7.99
   6   2   6    0.03    0.36
  -6  -2  -6    3.68    3.76
   6   2   6    0.09    1.22
   6   2   7   51.83    8.50
  -6  -2  -7   47.88    9.57
   6   2   7   32.51    8.40
   6   2   8    6.71    3.94
   6   2   8    3.27    2.34
  -6  -2  -8    2.49    3.74
   6   2   9   -2.23    2.95
  -6  -2  -9   -1.82    3.34
   6   2   9    3.49    3.68
   6   2  10    6.75    4.04
  -6  -3  13   20.28    6.98
  -6  -3  12   73.28   12.04
  -6  -3  11  103.70   14.01
  -6  -3  10   21.07    5.89
  -6  -3   9   21.44    6.29
  -6  -3   8    3.27    1.91
  -6  -3   8    3.39    2.64
  -6  -3   7  159.30   14.32
  -6  -3   7  168.71   12.74
  -6  -3   6    4.14    2.54
  -6  -3   6    7.73    2.56
  -6  -3   6    4.91    2.19
  -6  -3   5  148.04   12.00
  -6  -3   5  149.21   12.55
  -6  -3   5  142.21   10.92
  -6  -3   4    4.00    2.21
  -6  -3   4    5.71    2.54
   6   3  -3   12.06    3.64
  -6  -3   3    9.41    3.23
   6   3  -2  178.26   14.06
   6   3  -1   53.67    8.35
   6   3   0    3.24    2.77
   6   3   1   71.21    9.74
   6   3   1   56.48    7.24
   6   3   2   83.35   11.13
   6   3   2   92.40    9.33
   6   3   3    7.44    2.80
   6   3   3   16.91    4.97
  -6  -3  -4   90.44   12.08
   6   3   4   95.38   12.33
   6   3   4   79.93    9.82
  -6  -3  -5   81.78   11.72
   6   3   5   80.59   12.65
   6   3   5   95.18   11.04
   6   3   6   -0.79    0.93
  -6  -3  -6    6.36    5.06
   6   3   6    3.15    2.64
  -6  -3  -7   76.30   11.98
   6   3   7   59.06   11.63
   6   3   7   76.91   10.50
   6   3   8    2.40    3.54
   6   3   8    5.79    4.01
  -6  -3  -8    6.53    5.29
   6   3   9   10.90    4.93
  -6  -4  10   20.90    5.61
  -6  -4   9    4.18    2.70
  -6  -4   8   11.76    3.63
  -6  -4   7    2.03    1.89
  -6  -4   7    5.34    2.50
  -6  -4   6  329.67   19.20
  -6  -4   6  312.44   17.37
  -6  -4   6  321.98   17.89
  -6  -4   5    2.75    2.07
  -6  -4   5    0.09    1.32
  -6  -4   4    1.96    1.97
  -6  -4   4    3.31    2.13
  -6  -4   3   39.84    6.84
  -6  -4   2   49.28    7.65
  -6  -4   1   51.88    8.76
   6   4   0   -0.67    1.14
   6   4   1   45.76    6.90
   6   4   2   43.81    6.83
  -6  -4  -2   45.12    7.79
   6   4   2   51.22    8.92
  -6  -4  -3   58.57    9.28
   6   4   3   53.75    8.02
   6   4   4   19.85    5.23
  -6  -4  -4   16.49    5.61
   6   4   5   11.25    4.23
  -6  -4  -5   11.52    5.12
  -6  -4  -5   12.42    5.29
   6   4   6   11.07    4.73
  -6  -4  -6   11.83    5.74
  -6  -4  -6    8.43    4.58
   6   4   7    5.61    3.52
  -6  -4  -7    2.87    4.05
  -6  -4  -7    4.75    4.29
   6   4   8   -5.37    3.43
  -6  -4  -8    1.98    3.15
  -6  -5  11   30.69    6.99
  -6  -5  10    7.99    3.57
  -6  -5   9   80.05   10.07
  -6  -5   8    8.91    3.66
  -6  -5   7  208.03   15.56
  -6  -5   6   57.10    8.04
  -6  -5   6   56.57    7.69
  -6  -5   5   19.73    4.71
  -6  -5   4  112.64   11.77
  -6  -5   3  180.39   15.24
  -6  -5   2    5.09    3.13
  -6  -5   1    4.55    3.15
   6   5   0    3.31    2.94
  -6  -5   0   -0.14    1.55
  -6  -5  -1   79.86   11.30
  -6  -5  -1   72.69    9.85
   6   5   1   94.89   10.87
   6   5   2   14.54    5.03
  -6  -5  -2    7.19    3.89
  -6  -5  -2    6.74    3.63
   6   5   3   20.22    5.35
  -6  -5  -3   11.80    5.03
  -6  -5  -3   13.42    5.23
   6   5   4   11.74    4.26
  -6  -5  -4   13.08    5.11
  -6  -5  -4   20.17    5.71
   6   5   5   30.38    6.97
  -6  -5  -5   24.17    6.28
  -6  -5  -5   27.13    6.76
   6   5   6    2.83    3.64
  -6  -5  -6   -1.92    2.42
  -6  -5  -6   -0.68    2.17
   6   5   7    3.46    3.36
  -6  -5  -7    2.73    3.28
  -6  -6  12    0.97    1.23
  -6  -6  11    5.09    3.96
  -6  -6  10   42.82    8.70
  -6  -6   9   74.21   10.23
  -6  -6   8   10.03    3.90
  -6  -6   7   39.55    6.43
  -6  -6   7   40.46    7.38
  -6  -6   6    0.65    2.45
  -6  -6   5   43.24    7.64
  -6  -6   4    1.73    1.43
  -6  -6   3   59.69    9.40
  -6  -6   2    6.60    3.70
  -6  -6   1   90.68   11.60
  -6  -6   1   78.33    9.54
   6   6   0   -0.55    1.40
  -6  -6   0    1.06    2.86
  -6  -6   0    1.01    2.08
   6   6   1    0.61    1.38
  -6  -6  -1    2.12    2.51
  -6  -6  -1    3.70    2.41
   6   6   2   57.49    8.79
  -6  -6  -2   58.72    9.04
  -6  -6  -2   61.36   10.02
   6   6   3    9.60    4.28
  -6  -6  -3    8.83    3.43
  -6  -6  -3   12.28    4.59
   6   6   4   15.38    5.84
  -6  -6  -4   19.84    6.58
  -6  -6  -4   10.91    4.27
   6   6   5    6.05    3.84
  -6  -6  -5    2.57    4.16
  -6  -6  -5    2.03    2.10
   6   6   6    5.39    3.59
  -6  -6  -6    6.62    4.68
  -6  -7  13    6.93    4.81
  -6  -7  12   19.08    6.11
  -6  -7  11    4.20    3.84
  -6  -7  10   34.90    7.87
  -6  -7   9    1.41    1.66
  -6  -7   8   14.52    4.09
  -6  -7   7   -0.22    1.52
  -6  -7   6    3.61    2.31
  -6  -7   5    9.01    3.79
  -6  -7   4   21.27    5.47
  -6  -7   3   30.28    6.48
  -6  -7   2   18.44    5.43
  -6  -7   1    9.50    4.18
   6   7   0   42.46    8.35
  -6  -7   0   43.38    8.44
   6   7   1   -0.23    0.96
  -6  -7  -1    3.91    3.15
   6   7   2    3.08    2.40
  -6  -7  -2   -0.12    2.32
   6   7   3    3.67    3.96
  -6  -7  -3   -0.94    1.89
   6   7   4   29.49    7.68
   6   7   5    8.78    4.63
   6   8 -12   -2.34    2.56
  -6  -8  12    9.08    5.14
   6   8 -11   -1.48    1.38
  -6  -8  11    1.10    2.70
  -6  -8  10    4.52    3.53
  -6  -8   9   12.82    5.24
  -6  -8   7    8.61    4.08
  -6  -8   6   68.01   10.19
  -6  -8   5   -0.16    1.08
  -6  -8   4    9.96    4.25
  -6  -8   3    5.31    3.51
  -6  -8   2   50.48    9.43
  -6  -8   1   14.33    5.18
   6   8   0   11.28    4.87
  -6  -8   0    6.46    3.94
   6   8   1   -1.05    1.41
  -6  -8  -1   -0.02    0.85
   6   8   2   10.60    5.17
   6   8   3    1.35    2.86
  -6  -9  11    3.47    4.47
  -6  -9  10   12.56    5.62
  -6  -9   9    1.80    2.94
  -6  -9   7   28.73    6.81
  -6  -9   6    3.84    2.56
  -6  -9   5    5.02    2.74
  -6  -9   4    0.20    2.82
  -6  -9   3   60.14   10.15
  -6  -9   2   -0.99    1.22
  -6  -9   1   18.99    6.21
   6   9   0    0.32    1.90
   6   9   1   14.80    5.48
  -6 -10   9    8.26    4.74
  -6 -10   7    0.47    0.52
  -6 -10   6   22.64    6.48
  -6 -10   5   10.18    4.63
  -6 -10   4    6.05    4.47
  -6 -10   3    2.97    2.11
  -6 -11   6   14.41    6.21
   7 -10   0   13.62    5.71
   7 -10   1   20.22    6.87
  -7  10  -4   14.49    5.59
  -7  10  -5    2.07    3.88
  -7  10  -6   16.79    6.69
   7  -9  -1    3.70    2.24
   7  -9   0   73.37   11.15
  -7   9   0   47.68   10.39
  -7   9  -1   23.42    8.03
   7  -9   1   17.18    5.54
  -7   9  -2    6.80    4.13
   7  -9   2   -1.43    2.36
  -7   9  -3   -3.07    0.83
   7  -9   3    0.71    2.21
  -7   9  -4    9.41    4.73
   7  -9   4    6.43    4.24
  -7   9  -5   23.06    6.05
  -7   9  -6   -3.56    3.22
  -7   9  -7   10.07    5.70
  -7   8   2   43.76   10.22
   7  -8  -2   26.43    6.59
  -7   8   1   25.60    7.93
   7  -8  -1   16.92    5.95
  -7   8   0    0.41    2.02
   7  -8   0    2.90    3.65
  -7   8  -1   11.74    6.02
   7  -8   1   10.75    4.23
  -7   8  -2   41.53    9.34
   7  -8   2   46.05    8.99
  -7   8  -3    0.39    1.62
   7  -8   3    7.23    3.81
  -7   8  -4   22.79    5.96
   7  -8   4   14.82    5.06
  -7   8  -5    8.40    4.96
   7  -8   5    4.99    3.10
  -7   8  -6    0.24    0.99
   7  -8   6    7.07    5.43
  -7   8  -7   14.92    5.63
  -7   7   4   28.16    8.68
  -7   7   3   54.75   11.59
  -7   7   2   38.38    8.87
   7  -7  -2   35.54    7.76
  -7   7   1   26.12    7.16
   7  -7  -1   40.88    8.07
  -7   7   0   12.10    5.59
   7  -7   0   16.57    5.61
  -7   7  -1   21.87    6.62
   7  -7   1   32.31    6.69
  -7   7  -2  161.18   16.88
   7  -7   2  156.88   16.12
  -7   7  -3   81.10   11.91
   7  -7   3   85.79   12.07
  -7   7  -4    4.15    2.86
   7  -7   4   13.54    4.77
  -7   7  -5    3.55    2.59
   7  -7   5    1.41    2.52
  -7   7  -6   10.98    4.41
   7  -7   6    9.26    5.28
   7  -7   7   45.01    9.88
  -7   6   5   16.99    6.17
  -7   6   4    9.22    4.10
  -7   6   3  111.80   14.96
  -7   6   2    7.43    3.80
   7  -6  -2   -0.30    1.65
  -7   6   1   78.12   12.24
   7  -6  -1   97.91   11.82
  -7   6   0    2.87    2.71
   7  -6   0    6.27    2.71
  -7   6  -1  166.97   16.79
   7  -6   1  183.66   17.06
  -7   6  -2    3.84    4.01
   7  -6   2    5.20    2.92
  -7   6  -3   50.01    8.61
   7  -6   3   49.06    9.15
  -7   6  -4    9.62    4.84
   7  -6   4   12.19    4.69
   7  -6   5    5.37    4.13
  -7   6  -5    5.05    3.36
   7  -6   6    3.29    3.36
   7  -6   7   -5.36    4.01
  -7   5   6   61.62   11.85
  -7   5   5   42.23    9.68
  -7   5   4  234.23   21.63
   7  -5  -3    0.63    1.49
  -7   5   3    2.58    3.24
  -7   5   2  194.28   18.60
   7  -5  -2  194.72   16.12
  -7   5   1    7.77    4.08
   7  -5  -1   13.07    4.92
  -7   5   0   73.82   10.84
   7  -5   0   53.29    9.12
   7  -5   1   15.63    5.63
  -7   5  -1    8.83    3.49
  -7   5  -2   71.25   10.33
   7  -5   2   70.29   10.58
   7  -5   3    9.50    4.14
  -7   5  -3    8.36    3.90
   7  -5   4   25.28    6.66
  -7   5  -4   12.30    4.12
   7  -5   5    0.59    0.99
   7  -5   6    0.92    2.60
   7  -5   7   22.10    7.05
   7  -5   8    4.77    3.90
  -7   4   7   31.37    8.90
  -7   4   6    1.29    2.47
  -7   4   5    4.32    1.67
  -7   4   4   33.49    8.29
   7  -4  -3   39.00    6.86
  -7   4   3   21.31    6.17
  -7   4   2   65.45   10.26
   7  -4  -2   76.95   10.03
  -7   4   1  112.64   13.30
   7  -4  -1  104.14   12.06
   7  -4   0   45.18    8.07
  -7   4   0   33.97    7.20
   7  -4   1   32.63    6.90
  -7   4  -1   26.73    5.71
   7  -4   2   30.79    7.32
  -7   4  -2   19.50    5.41
   7  -4   3    1.15    3.76
  -7   4  -3    2.00    1.40
   7  -4   4   78.52   12.03
   7  -4   5   -0.12    1.23
   7  -4   6   33.66    7.61
   7  -4   7   -0.05    1.74
   7  -4   8    0.86    2.32
  -7   3   8    3.29    4.55
  -7   3   7    8.37    4.14
  -7   3   6    9.13    4.13
  -7   3   5   24.47    6.68
  -7   3   4   83.61   12.30
   7  -3  -4   72.37    9.20
  -7   3   3   15.41    4.86
   7  -3  -3   11.95    3.92
   7  -3  -2    2.14    2.23
  -7   3   2    0.34    2.79
  -7   3   1   48.74    8.35
   7  -3  -1   68.73   10.09
  -7   3   0  133.33   13.22
   7  -3   0  116.65   12.90
   7  -3   1   24.21    5.99
  -7   3  -1   17.53    4.55
   7  -3   2    1.15    3.11
  -7   3  -2    0.02    1.49
   7  -3   3   73.04   10.99
   7  -3   4    0.37    2.32
   7  -3   5   38.39    8.63
   7  -3   6    3.44    3.47
   7  -3   7   48.95   10.06
   7  -3   8    3.70    4.30
  -7   2   9   12.39    5.56
  -7   2   8   -0.32    0.79
  -7   2   7   62.45   11.48
  -7   2   6    1.54    2.64
  -7   2   5   -0.19    2.26
  -7   2   4    2.36    2.46
   7  -2  -4    2.79    3.00
  -7   2   3   13.12    4.66
   7  -2  -3    9.79    3.05
  -7   2   2   42.01    7.33
   7  -2  -2   34.12    6.63
  -7   2   1   66.14    9.04
   7  -2  -1   87.82   10.84
  -7   2   0   15.56    4.98
   7  -2   0   13.39    4.71
   7  -2   1   50.93    8.87
   7  -2   2   90.08   11.60
   7  -2   3    4.46    2.38
   7  -2   4   59.44   10.45
   7  -2   5   69.48   11.05
   7  -2   6    3.78    2.32
   7  -2   7   21.52    7.21
   7  -2   8    0.39    2.52
  -7   1  10   11.91    5.27
  -7   1   9   30.04    7.35
  -7   1   8   52.28   10.25
  -7   1   7   61.29   10.80
  -7   1   6    6.28    3.13
  -7   1   5   -1.76    2.52
   7  -1  -4   66.67    8.40
  -7   1   4   62.14    9.73
   7  -1  -3   -3.01    3.15
  -7   1   3    1.04    2.67
  -7   1   2   32.11    6.35
   7  -1  -2   53.93    8.23
  -7   1   1  137.70   12.38
   7  -1  -1  133.82   13.29
   7  -1   0    2.37    3.13
   7  -1   1  124.89   13.38
   7  -1   2  123.57   13.73
   7  -1   3    0.38    1.72
   7  -1   4    8.08    4.59
   7  -1   5    5.05    3.44
   7  -1   6   15.82    7.53
   7  -1   7    2.39    1.79
  -7   1  -8    2.36    3.02
  -7   0  10    6.40    4.51
  -7   0   9    8.77    4.19
  -7   0   8   99.73   13.72
  -7   0   7    8.36    4.36
  -7   0   6  120.41   13.93
  -7   0   5   64.23   10.00
  -7   0   4   22.27    5.58
   7   0  -4   16.34    4.59
  -7   0   3    6.95    2.82
   7   0  -3    5.01    3.34
   7   0  -2   30.03    6.49
  -7   0   2   19.54    4.94
   7   0  -1   35.26    7.07
   7   0   0   22.48    5.85
   7   0   1  189.62   16.74
   7   0   2    1.67    0.86
   7   0   3    8.40    4.15
   7   0   4  118.26   14.11
   7   0   5    2.34    2.37
   7   0   6    0.71    0.56
  -7   0  -7    4.28    4.23
   7   0   7   -5.29    5.40
  -7  -1  10   -1.14    0.77
  -7  -1   9  248.23   21.79
  -7  -1   8    3.95    3.88
  -7  -1   7    3.10    2.82
  -7  -1   6    7.24    3.75
  -7  -1   5   65.60    9.56
   7   1  -5   54.61    7.46
  -7  -1   4   15.62    4.63
   7   1  -4   17.19    5.08
   7   1  -3   14.42   12.36
   7   1  -2   30.73    6.95
   7   1  -1   30.84    6.61
   7   1   0   -1.57    0.83
   7   1   1   26.50    6.45
   7   1   2   37.84    7.72
   7   1   3   43.55    9.21
   7   1   4    5.62    3.82
   7   1   5    5.29    3.35
   7   1   6   13.02    6.31
  -7  -1  -6    6.30    4.73
  -7  -1  -7   30.58    8.38
  -7  -2  11   86.81   14.17
  -7  -2  10   34.99    8.62
  -7  -2   9    2.49    2.87
  -7  -2   8   17.00    5.00
  -7  -2   7   26.71    7.00
  -7  -2   6   15.70    4.72
  -7  -2   5   32.04    6.47
   7   2  -4   18.66    5.02
   7   2  -3   80.08   10.14
   7   2  -2   -0.23    0.33
   7   2  -1   60.67    8.98
   7   2   0   14.32    5.26
   7   2   1   55.20    9.71
   7   2   2   11.58    4.50
   7   2   3  105.78   13.43
   7   2   4    4.46    3.48
  -7  -2  -5   11.09    4.99
   7   2   5   29.17    8.14
  -7  -2  -6    2.67    2.72
   7   2   6   -0.60    0.59
  -7  -2  -7   23.94    7.28
  -7  -3  11    4.21    3.58
  -7  -3  10   16.00    6.14
  -7  -3   9   88.50   12.41
  -7  -3   8   -0.71    2.10
  -7  -3   7    7.16    3.50
  -7  -3   5   56.68    8.05
  -7  -3   4  118.34   12.40
   7   3  -2   27.51    6.78
   7   3  -1   11.12    4.79
   7   3   0   25.96    6.53
   7   3   1   34.82    8.13
   7   3   2    5.73    3.56
   7   3   3   55.07   10.93
   7   3   4    3.66    3.76
  -7  -3  -4   -0.16    1.43
  -7  -3  -5   13.87    6.59
   7   3   5   20.95    6.87
  -7  -3  -6    5.42    4.45
  -7  -4  11   16.20    6.12
  -7  -4  10   14.59    5.93
  -7  -4   9    9.79    3.73
  -7  -4   8   62.29    9.77
  -7  -4   5   52.73    8.33
  -7  -4   4  103.40   12.00
  -7  -4   3  106.36   12.35
  -7  -4   2   46.56    8.15
  -7  -4   1   84.52   11.81
  -7  -4   0    9.12    3.76
  -7  -4  -1    2.01    2.38
  -7  -4  -2   53.40   10.16
  -7  -4  -2   52.99    9.44
  -7  -4  -3    3.04    2.91
  -7  -4  -3    2.18    2.83
  -7  -4  -4   45.26    9.37
  -7  -4  -4   51.76    9.82
  -7  -4  -5    5.23    4.29
  -7  -5  11    8.06    5.45
  -7  -5   5   14.85    4.86
  -7  -5   4    2.71    2.57
  -7  -5   3   10.68    4.11
  -7  -5   2    5.27    3.31
  -7  -5   1   40.55    8.02
  -7  -5   0    6.48    3.27
  -7  -5  -1    0.65    1.98
  -7  -5  -1    6.20    3.45
  -7  -5  -2   22.18    6.90
  -7  -5  -2   20.95    6.49
  -7  -5  -3   25.87    7.51
  -7  -5  -3   30.58    7.54
  -7  -5  -4    7.50    4.17
  -7  -5  -5    5.85    3.38
  -7  -6   5    0.57    2.46
  -7  -6   4   65.14   10.16
  -7  -6   3   -0.72    2.10
  -7  -6   2   -1.85    2.04
  -7  -6   1    6.48    3.10
  -7  -6   0   50.28    9.87
  -7  -6  -1    3.80    3.23
  -7  -7   5    2.80    2.54
  -7  -7   4    3.62    3.63
  -7  -7   3   12.14    4.39
  -7  -7   2    5.17    3.67
  -7  -7   1   44.26    9.66
  -7  -7   0    1.12    2.35
  -7  -8   5    9.86    4.17
  -7  -8   4   23.64    6.94
  -7  -8   3   11.43    4.67
  -7  -8   2    2.16    3.54
  -7  -9   5   58.55   10.49
  -8   8  -2   21.13    6.97
  -8   7   1   10.38    4.86
   8  -7   0   14.74    5.93
  -8   7   0   10.57    4.72
   8  -7   1   12.29    4.83
  -8   7  -1   17.45    6.36
   8  -7   2    8.80    5.15
  -8   7  -2   -0.64    2.55
  -8   6   2   28.53    8.49
   8  -6  -1   13.51    5.19
  -8   6   1   10.16    4.32
   8  -6   0    2.67    1.28
  -8   6   0    5.67    2.26
   8  -6   1   11.76    5.34
  -8   6  -1   13.88    5.40
   8  -6   2   51.08    9.55
   8  -6   3   18.29    6.55
  -8   5   4    4.92    4.15
  -8   5   3   10.67    5.95
  -8   5   2    7.09    4.50
   8  -5  -1   62.31   10.41
  -8   5   1   55.84    9.51
   8  -5   0    1.66    2.49
  -8   5   0    3.76    3.80
   8  -5   1   30.61    8.09
   8  -5   2    1.55    2.41
   8  -5   3    4.57    2.74
   8  -5   4   10.39    5.44
  -8   4   5    3.71    3.43
  -8   4   4   18.25    6.81
  -8   4   3    9.73    4.15
  -8   4   2   27.47    6.75
   8  -4  -2   19.81    7.01
  -8   4   1   13.58    5.33
   8  -4  -1    4.24    2.51
   8  -4   0   50.17    9.41
   8  -4   1    9.70    4.91
   8  -4   2   48.23   10.41
   8  -4   3    4.64    4.27
   8  -4   4    6.07    4.38
  -8   3   6    2.61    3.45
  -8   3   5   25.68    7.27
  -8   3   4    8.75    4.79
  -8   3   3    9.60    4.61
   8  -3  -2    1.43    1.48
   8  -3  -1   74.60   10.54
   8  -3   0   39.56    7.97
   8  -3   1  147.88   15.77
   8  -3   2    2.84    3.58
   8  -3   3    4.51    3.01
   8  -3   4   49.35    9.47
  -8   2   7    5.40    4.59
  -8   2   6    4.16    3.32
  -8   2   5   62.42   10.63
  -8   2   4   55.62   10.41
   8  -2  -2    2.02    2.15
   8  -2  -1  152.34   15.52
   8  -2   0   32.58    6.77
   8  -2   1   34.39    7.76
   8  -2   2    1.62    0.54
   8  -2   3   26.08    7.77
   8  -2   4    2.27    2.94
  -8   1   8   28.11    8.40
  -8   1   7   18.42    5.72
  -8   1   6   76.18   11.95
  -8   1   5    4.38    2.70
   8  -1  -3   11.83    4.42
   8  -1  -2   73.09   10.91
   8  -1  -1   -0.97    2.51
   8  -1   0   45.06    8.86
   8  -1   1    6.97    3.64
   8  -1   2    4.61    2.35
   8  -1   3    3.29    2.33
   8  -1   4   50.39    9.37
  -8   0   8    8.01    3.75
  -8   0   7    8.91    4.28
   8   0  -3    5.89    4.11
   8   0  -2   10.06    4.16
   8   0  -1   36.36    7.50
   8   0   0   22.44    6.82
   8   0   1   19.55    5.86
   8   0   2   14.03    5.00
   8   0   3  142.63   16.88
   8   1  -3   18.70    5.71
   8   1  -2   99.85   12.29
   8   1  -1   27.01    6.64
   8   1   0   -0.61    1.46
   8   1   1   52.95    9.82
   8   1   2   10.27    5.43
   8   1   3   64.27   11.13
   8   2  -3    3.89    3.37
   8   2  -2   81.49   11.08
   8   2  -1   15.55    5.71
   8   2   0  127.21   15.46
   8   2   1    2.06    4.25
   8   2   2   57.80   10.38
  -8  -3   3   18.84    5.89
  -8  -3   2   16.88    5.55
   8   3   0    3.13    0.16
   8   3   1   40.09    8.69
  -8  -3  -3   10.35    4.95
  -8  -4   3   -1.56    2.07
  -8  -4   2   21.53    6.56
  -8  -4   1   46.02    9.48
  -8  -4   0   36.53    8.80
  -8  -4  -2   15.65    6.33
  -8  -5   3    3.21    2.70
  -8  -5   2   16.46    5.68
  -8  -6   3    1.62    1.46
   0   0   0    0.00    0.00


TITL sa5128a in P-1
REM P-1 (#2 in standard setting)
CELL 0.71073   6.196664  11.194973  12.783522 110.6915  92.7377  93.8375
ZERR    4.00   0.000206   0.000301   0.000348   0.0025   0.0025   0.0024
LATT  1
SFAC C H N O
UNIT 44.00 40.00 4.00 4.00
TREF
HKLF 4
END
_computing_structure_solution     'SHELXT 2014/5 (Sheldrick, 2014)'
;
_shelx_hkl_checksum              8056
_olex2_submission_special_instructions 'No special instructions were received'
loop_
_space_group_symop_operation_xyz
'x, y, z'
'-x, -y, -z'
loop_
_atom_site_label
_atom_site_type_symbol
_atom_site_fract_x
_atom_site_fract_y
_atom_site_fract_z
_atom_site_U_iso_or_equiv
_atom_site_adp_type
_atom_site_occupancy
_atom_site_site_symmetry_order
_atom_site_calc_flag
_atom_site_refinement_flags_posn
S1 S 0.16670(8) 0.31694(5) 0.77657(4) 0.02651(15) Uani 1 1 d .
O1 O 0.0404(2) 0.35603(15) 0.69980(13) 0.0348(4) Uani 1 1 d .
O2 O 0.0871(3) 0.20726(14) 0.79916(13) 0.0376(4) Uani 1 1 d .
O3 O 0.1950(2) 0.43162(13) 0.89347(12) 0.0323(3) Uani 1 1 d .
O4 O 0.4686(2) 0.43791(12) 0.63205(10) 0.0230(3) Uani 1 1 d .
O5 O 0.4746(2) 0.10373(13) 0.45737(11) 0.0299(3) Uani 1 1 d .
N1 N 0.4191(3) 0.30474(15) 0.74686(13) 0.0237(3) Uani 1 1 d .
C1 C 0.3316(3) 0.54246(18) 0.90240(16) 0.0256(4) Uani 1 1 d .
C2 C 0.4939(3) 0.53782(18) 0.83081(15) 0.0240(4) Uani 1 1 d .
C3 C 0.5303(3) 0.41811(18) 0.73322(15) 0.0230(4) Uani 1 1 d .
H3 H 0.686262 0.408189 0.734519 0.028 Uiso 1 1 calc R
C4 C 0.5356(3) 0.34240(18) 0.53291(15) 0.0252(4) Uani 1 1 d .
H4A H 0.675525 0.316955 0.550255 0.030 Uiso 1 1 calc R
H4B H 0.552699 0.379391 0.475356 0.030 Uiso 1 1 calc R
C5 C 0.3729(3) 0.22388(17) 0.48768(15) 0.0234(4) Uani 1 1 d .
C6 C 0.3512(3) 0.14009(18) 0.55429(15) 0.0255(4) Uani 1 1 d .
H6 H 0.209181 0.091924 0.544969 0.031 Uiso 1 1 calc R
C7 C 0.4708(3) 0.17739(18) 0.66919(16) 0.0267(4) Uani 1 1 d .
H7A H 0.432298 0.112960 0.701272 0.032 Uiso 1 1 calc R
H7B H 0.625751 0.179283 0.661191 0.032 Uiso 1 1 calc R
C8 C 0.1844(3) 0.22506(18) 0.41063(15) 0.0242(4) Uani 1 1 d .
C9 C 0.1104(3) 0.34054(19) 0.41114(16) 0.0266(4) Uani 1 1 d .
H9 H 0.182833 0.417898 0.457822 0.032 Uiso 1 1 calc R
C10 C -0.0704(3) 0.3409(2) 0.34260(17) 0.0314(5) Uani 1 1 d .
H10 H -0.117062 0.418246 0.342841 0.038 Uiso 1 1 calc R
C11 C -0.1813(4) 0.2260(2) 0.27384(17) 0.0363(5) Uani 1 1 d .
H11 H -0.303197 0.226156 0.228527 0.044 Uiso 1 1 calc R
C12 C -0.1097(4) 0.1111(2) 0.27298(17) 0.0376(5) Uani 1 1 d .
H12 H -0.184145 0.034049 0.226947 0.045 Uiso 1 1 calc R
C13 C 0.0721(4) 0.10974(19) 0.34010(16) 0.0308(5) Uani 1 1 d .
H13 H 0.119504 0.031999 0.338273 0.037 Uiso 1 1 calc R
C14 C 0.2993(4) 0.6531(2) 0.99089(17) 0.0321(5) Uani 1 1 d .
H14 H 0.187225 0.654181 1.036952 0.039 Uiso 1 1 calc R
C15 C 0.4377(4) 0.7623(2) 1.00930(16) 0.0324(5) Uani 1 1 d .
H15 H 0.417707 0.837019 1.068598 0.039 Uiso 1 1 calc R
C16 C 0.6066(3) 0.7625(2) 0.94078(16) 0.0307(5) Uani 1 1 d .
C17 C 0.6302(3) 0.64927(19) 0.85181(16) 0.0279(4) Uani 1 1 d .
H17 H 0.740751 0.648068 0.804833 0.034 Uiso 1 1 calc R
C18 C 0.7594(4) 0.8805(2) 0.9618(2) 0.0452(6) Uani 1 1 d .
H18A H 0.694898 0.954661 1.008387 0.068 Uiso 1 1 calc GR
H18B H 0.787448 0.889488 0.891618 0.068 Uiso 1 1 calc GR
H18C H 0.893221 0.872488 0.998780 0.068 Uiso 1 1 calc GR
loop_
_atom_site_aniso_label
_atom_site_aniso_U_11
_atom_site_aniso_U_22
_atom_site_aniso_U_33
_atom_site_aniso_U_23
_atom_site_aniso_U_13
_atom_site_aniso_U_12
S1 0.0228(3) 0.0262(3) 0.0302(3) 0.0092(2) 0.00600(19) 0.00196(19)
O1 0.0209(7) 0.0427(9) 0.0433(9) 0.0178(7) 0.0026(6) 0.0074(6)
O2 0.0423(9) 0.0290(8) 0.0419(9) 0.0127(7) 0.0131(7) -0.0024(7)
O3 0.0338(8) 0.0276(7) 0.0333(8) 0.0071(6) 0.0148(6) -0.0006(6)
O4 0.0244(7) 0.0225(7) 0.0215(6) 0.0067(5) 0.0038(5) 0.0021(5)
O5 0.0372(8) 0.0241(7) 0.0281(7) 0.0070(6) 0.0068(6) 0.0108(6)
N1 0.0236(8) 0.0238(8) 0.0246(8) 0.0087(6) 0.0044(6) 0.0059(6)
C1 0.0249(10) 0.0250(10) 0.0266(9) 0.0089(8) 0.0036(8) 0.0004(8)
C2 0.0210(10) 0.0274(10) 0.0228(9) 0.0078(7) 0.0002(7) 0.0035(8)
C3 0.0174(9) 0.0265(10) 0.0242(9) 0.0079(7) 0.0016(7) 0.0019(7)
C4 0.0247(10) 0.0263(10) 0.0223(9) 0.0052(7) 0.0070(7) 0.0029(8)
C5 0.0267(10) 0.0201(9) 0.0231(9) 0.0060(7) 0.0067(7) 0.0072(7)
C6 0.0278(10) 0.0211(9) 0.0270(9) 0.0069(7) 0.0048(8) 0.0074(8)
C7 0.0286(11) 0.0255(10) 0.0281(10) 0.0104(8) 0.0048(8) 0.0107(8)
C8 0.0275(10) 0.0245(9) 0.0215(9) 0.0089(7) 0.0038(7) 0.0031(8)
C9 0.0305(11) 0.0240(10) 0.0261(9) 0.0094(8) 0.0058(8) 0.0032(8)
C10 0.0354(12) 0.0339(11) 0.0307(10) 0.0167(9) 0.0074(9) 0.0117(9)
C11 0.0309(12) 0.0505(14) 0.0297(11) 0.0175(10) -0.0032(9) 0.0036(10)
C12 0.0421(13) 0.0357(12) 0.0294(11) 0.0074(9) -0.0061(9) -0.0055(10)
C13 0.0384(12) 0.0238(10) 0.0289(10) 0.0088(8) -0.0007(9) 0.0010(9)
C14 0.0363(12) 0.0323(11) 0.0265(10) 0.0077(8) 0.0103(9) 0.0051(9)
C15 0.0427(13) 0.0280(10) 0.0227(9) 0.0039(8) 0.0036(9) 0.0046(9)
C16 0.0364(12) 0.0295(11) 0.0245(10) 0.0092(8) -0.0023(8) -0.0023(9)
C17 0.0253(10) 0.0324(11) 0.0240(9) 0.0083(8) 0.0012(8) -0.0010(8)
C18 0.0560(16) 0.0340(12) 0.0369(12) 0.0045(10) 0.0045(11) -0.0114(11)
loop_
_atom_type_symbol
_atom_type_description
_atom_type_scat_dispersion_real
_atom_type_scat_dispersion_imag
_atom_type_scat_source
C C 0.0033 0.0016 'International Tables Vol C Tables 4.2.6.8 and 6.1.1.4'
H H 0.0000 0.0000 'International Tables Vol C Tables 4.2.6.8 and 6.1.1.4'
N N 0.0061 0.0033 'International Tables Vol C Tables 4.2.6.8 and 6.1.1.4'
O O 0.0106 0.0060 'International Tables Vol C Tables 4.2.6.8 and 6.1.1.4'
S S 0.1246 0.1234 'International Tables Vol C Tables 4.2.6.8 and 6.1.1.4'
loop_
_geom_angle_atom_site_label_1
_geom_angle_atom_site_label_2
_geom_angle_atom_site_label_3
_geom_angle
O1 S1 O3 108.08(9)
O1 S1 N1 112.55(9)
O2 S1 O1 118.45(10)
O2 S1 O3 106.14(8)
O2 S1 N1 109.45(9)
O3 S1 N1 100.40(8)
C1 O3 S1 118.04(12)
C3 O4 C4 113.60(14)
C6 O5 C5 61.38(12)
C3 N1 S1 115.47(12)
C3 N1 C7 116.70(15)
C7 N1 S1 116.08(13)
C2 C1 O3 121.83(17)
C2 C1 C14 122.40(18)
C14 C1 O3 115.68(17)
C1 C2 C3 123.10(17)
C1 C2 C17 117.50(18)
C17 C2 C3 119.40(17)
O4 C3 N1 115.33(14)
O4 C3 C2 108.05(15)
O4 C3 H3 107.7
N1 C3 C2 110.10(15)
N1 C3 H3 107.7
C2 C3 H3 107.7
O4 C4 H4A 109.1
O4 C4 H4B 109.1
O4 C4 C5 112.30(15)
H4A C4 H4B 107.9
C5 C4 H4A 109.1
C5 C4 H4B 109.1
O5 C5 C4 113.30(15)
O5 C5 C6 58.58(11)
O5 C5 C8 115.44(15)
C6 C5 C4 117.95(16)
C6 C5 C8 118.55(17)
C8 C5 C4 118.45(16)
O5 C6 C5 60.04(12)
O5 C6 H6 115.4
O5 C6 C7 118.50(16)
C5 C6 H6 115.4
C5 C6 C7 120.87(17)
C7 C6 H6 115.4
N1 C7 C6 112.27(15)
N1 C7 H7A 109.1
N1 C7 H7B 109.1
C6 C7 H7A 109.1
C6 C7 H7B 109.1
H7A C7 H7B 107.9
C9 C8 C5 120.98(17)
C9 C8 C13 118.69(18)
C13 C8 C5 120.26(17)
C8 C9 H9 119.7
C10 C9 C8 120.68(18)
C10 C9 H9 119.7
C9 C10 H10 120.0
C11 C10 C9 120.1(2)
C11 C10 H10 120.0
C10 C11 H11 120.2
C12 C11 C10 119.69(19)
C12 C11 H11 120.2
C11 C12 H12 119.7
C11 C12 C13 120.6(2)
C13 C12 H12 119.7
C8 C13 H13 119.9
C12 C13 C8 120.2(2)
C12 C13 H13 119.9
C1 C14 H14 120.7
C1 C14 C15 118.57(19)
C15 C14 H14 120.7
C14 C15 H15 119.3
C14 C15 C16 121.47(18)
C16 C15 H15 119.3
C15 C16 C18 121.54(19)
C17 C16 C15 117.75(19)
C17 C16 C18 120.71(19)
C2 C17 C16 122.29(19)
C2 C17 H17 118.9
C16 C17 H17 118.9
C16 C18 H18A 109.5
C16 C18 H18B 109.5
C16 C18 H18C 109.5
H18A C18 H18B 109.5
H18A C18 H18C 109.5
H18B C18 H18C 109.5
loop_
_geom_bond_atom_site_label_1
_geom_bond_atom_site_label_2
_geom_bond_distance
S1 O1 1.4295(15)
S1 O2 1.4204(15)
S1 O3 1.5815(14)
S1 N1 1.6302(16)
O3 C1 1.421(2)
O4 C3 1.427(2)
O4 C4 1.440(2)
O5 C5 1.458(2)
O5 C6 1.436(2)
N1 C3 1.472(2)
N1 C7 1.487(2)
C1 C2 1.383(3)
C1 C14 1.385(3)
C2 C3 1.513(3)
C2 C17 1.394(3)
C3 H3 0.9800
C4 H4A 0.9700
C4 H4B 0.9700
C4 C5 1.528(3)
C5 C6 1.477(3)
C5 C8 1.496(3)
C6 H6 0.9800
C6 C7 1.517(3)
C7 H7A 0.9700
C7 H7B 0.9700
C8 C9 1.398(3)
C8 C13 1.400(3)
C9 H9 0.9300
C9 C10 1.390(3)
C10 H10 0.9300
C10 C11 1.387(3)
C11 H11 0.9300
C11 C12 1.386(3)
C12 H12 0.9300
C12 C13 1.387(3)
C13 H13 0.9300
C14 H14 0.9300
C14 C15 1.386(3)
C15 H15 0.9300
C15 C16 1.397(3)
C16 C17 1.394(3)
C16 C18 1.507(3)
C17 H17 0.9300
C18 H18A 0.9600
C18 H18B 0.9600
C18 H18C 0.9600
