#------------------------------------------------------------------------------
#$Date: 2016-02-18 17:37:37 +0200 (Thu, 18 Feb 2016) $
#$Revision: 176729 $
#$URL: svn://www.crystallography.net/cod/cif/1/51/42/1514269.cif $
#------------------------------------------------------------------------------
#
# This file is available in the Crystallography Open Database (COD),
# http://www.crystallography.net/
#
# All data on this site have been placed in the public domain by the
# contributors.
#
data_1514269
loop_
_publ_author_name
'Liu, Xuliang'
'Gao, Ang'
'Ding, Lei'
'Xu, Juan'
'Zhao, Baoguo'
_publ_section_title
;
 Aminative umpolung synthesis of aryl vicinal diamines from aromatic
 aldehydes.
;
_journal_issue                   8
_journal_name_full               'Organic letters'
_journal_page_first              2118
_journal_page_last               2121
_journal_paper_doi               10.1021/ol500522d
_journal_volume                  16
_journal_year                    2014
_chemical_formula_sum            'C34 H30 N2 O2 S'
_chemical_formula_weight         530.66
_chemical_name_systematic
; 
 ? 
;
_space_group_crystal_system      monoclinic
_space_group_IT_number           14
_space_group_name_Hall           '-P 2yn'
_space_group_name_H-M_alt        'P 1 21/n 1'
_symmetry_space_group_name_Hall  '-P 2yn'
_symmetry_space_group_name_H-M   'P 1 21/n 1'
_atom_sites_solution_hydrogens   mixed
_audit_creation_method           SHELXL-2013
_cell_angle_alpha                90
_cell_angle_beta                 98.780(2)
_cell_angle_gamma                90
_cell_formula_units_Z            4
_cell_length_a                   9.7709(10)
_cell_length_b                   29.277(3)
_cell_length_c                   10.1465(11)
_cell_measurement_reflns_used    2568
_cell_measurement_temperature    293(2)
_cell_measurement_theta_max      39.752
_cell_measurement_theta_min      4.924
_cell_volume                     2868.5(5)
_computing_cell_refinement       'Bruker SMART'
_computing_data_collection       'Bruker SMART'
_computing_data_reduction        'Bruker SHELXTL'
_computing_molecular_graphics    'Bruker SHELXTL'
_computing_publication_material  'Bruker SHELXTL'
_computing_structure_refinement  'SHELXL-2013 (Sheldrick, 2013)'
_computing_structure_solution    'Bruker SHELXTL'
_diffrn_ambient_temperature      293(2)
_diffrn_measured_fraction_theta_full 0.999
_diffrn_measured_fraction_theta_max 0.999
_diffrn_measurement_device_type  'CCD area detector'
_diffrn_measurement_method       'phi and omega scans'
_diffrn_radiation_type           MoK\a
_diffrn_radiation_wavelength     0.71073
_diffrn_reflns_av_R_equivalents  0.0485
_diffrn_reflns_av_unetI/netI     0.0483
_diffrn_reflns_Laue_measured_fraction_full 0.999
_diffrn_reflns_Laue_measured_fraction_max 0.999
_diffrn_reflns_limit_h_max       11
_diffrn_reflns_limit_h_min       -11
_diffrn_reflns_limit_k_max       28
_diffrn_reflns_limit_k_min       -35
_diffrn_reflns_limit_l_max       12
_diffrn_reflns_limit_l_min       -12
_diffrn_reflns_number            16420
_diffrn_reflns_point_group_measured_fraction_full 0.999
_diffrn_reflns_point_group_measured_fraction_max 0.999
_diffrn_reflns_theta_full        25.242
_diffrn_reflns_theta_max         25.498
_diffrn_reflns_theta_min         2.147
_exptl_absorpt_coefficient_mu    0.146
_exptl_absorpt_correction_T_max  1.0000
_exptl_absorpt_correction_T_min  0.4154
_exptl_absorpt_correction_type   empirical
_exptl_absorpt_process_details   sadabs
_exptl_crystal_colour            colorless
_exptl_crystal_density_diffrn    1.229
_exptl_crystal_description       prismatic
_exptl_crystal_F_000             1120
_exptl_crystal_size_max          0.298
_exptl_crystal_size_mid          0.211
_exptl_crystal_size_min          0.079
_refine_diff_density_max         0.322
_refine_diff_density_min         -0.316
_refine_diff_density_rms         0.044
_refine_ls_extinction_method     none
_refine_ls_goodness_of_fit_ref   1.034
_refine_ls_hydrogen_treatment    constr
_refine_ls_matrix_type           full
_refine_ls_number_parameters     433
_refine_ls_number_reflns         5340
_refine_ls_number_restraints     144
_refine_ls_restrained_S_all      1.061
_refine_ls_R_factor_all          0.0999
_refine_ls_R_factor_gt           0.0686
_refine_ls_shift/su_max          0.001
_refine_ls_shift/su_mean         0.000
_refine_ls_structure_factor_coef Fsqd
_refine_ls_weighting_details
'w=1/[\s^2^(Fo^2^)+(0.0846P)^2^+1.7278P] where P=(Fo^2^+2Fc^2^)/3'
_refine_ls_weighting_scheme      calc
_refine_ls_wR_factor_gt          0.1730
_refine_ls_wR_factor_ref         0.1904
_reflns_Friedel_coverage         0.000
_reflns_number_gt                3667
_reflns_number_total             5340
_reflns_threshold_expression     'I > 2\s(I)'
_cod_data_source_file            ol500522d_si_002.cif
_cod_data_source_block           cd212589
_cod_depositor_comments
;Adding full bibliography for
 ./tmp-cod-update-bibliographies-8800/cifs/1514269.cif.

 Adding full bibliography for 1514269--1514270.cif.
;
_cod_database_code               1514269
#BEGIN Tags that were not found in dictionaries:
_shelx_space_group_comment
; 
The symmetry employed for this shelxl refinement is uniquely defined 
by the following loop, which should always be used as a source of 
symmetry information in preference to the above space-group names. 
They are only intended as comments. 
;
_shelxl_version_number           2013-4
_shelx_res_file
; 
TITL cd212589 in P2(1)/n 
CELL 0.71073   9.7709  29.2766  10.1465  90.000  98.780  90.000 
ZERR    4.00   0.0010   0.0031   0.0011   0.000   0.002   0.000 
LATT 1 
SYMM 0.5-X, 0.5+Y, 0.5-Z 
SFAC C  H  N  O  S 
UNIT 136 120 8 8 4 
omit  3  12   0 
OMIT    -4   2   1 
OMIT     0   2   0 
OMIT     3   9   0 
OMIT  -3.00  51.00 
L.S. 20 
ACTA 
BOND $H 
FMAP 2 
PLAN 50 
HTAB C30 O1_$2 
EQIV $2 -x+2, -y+2, -z+2 
HTAB N1 O2_$1 
eqiv $1 -x+2,-y+2,-z+1 
wpdb -1 
simu 0.005 c16 > c21 
simu 0.005 c16' > c21' 
simu 0.005 c23 > c28 
simu 0.005 c23' > c28' 
mpla c4 > c9 
mpla c10 > c15 
mpla c29 > c34 
htab 
htab n1 o2_$1 
conf 
WGHT    0.084600    1.727800 
FVAR       0.29863 
S1    5    1.040226    1.006401    0.721742    11.00000    0.05147    0.04285 = 
         0.04005    0.00496    0.00820   -0.00301 
O1    4    1.118090    1.004179    0.851903    11.00000    0.06277    0.06351 = 
         0.04758    0.00563   -0.00117   -0.00816 
O2    4    1.105097    1.022776    0.613120    11.00000    0.06552    0.05141 = 
         0.05119    0.00605    0.02107   -0.00675 
N1    3    0.986050    0.955513    0.681927    11.00000    0.06137    0.03903 = 
         0.03778    0.00209    0.01269    0.00033 
AFIX   3 
H1A   2    0.984360    0.944463    0.598917    11.00000   -1.20000 
AFIX   0 
C1    1    0.822043    0.836695    0.556366    11.00000    0.07744    0.05288 = 
         0.05666   -0.00147    0.00721   -0.01551 
PART 1 
N2    3    0.910002    0.868698    0.600296    10.50000    0.06360    0.04983 = 
         0.04882   -0.00303    0.01366   -0.00505 
C2    1    0.942088    0.876450    0.744640    10.50000    0.06104    0.04496 = 
         0.05088    0.00650    0.01311   -0.01047 
AFIX  13 
H2A   2    0.878876    0.857863    0.788577    10.50000   -1.20000 
AFIX   0 
C3    1    0.925567    0.926962    0.784240    10.50000    0.10731    0.03875 = 
         0.05074   -0.00832    0.05173   -0.01892 
AFIX  13 
H3A   2    0.969707    0.933368    0.875712    10.50000   -1.20000 
PART 2 
AFIX   0 
N2'   3    0.826357    0.881590    0.596130    10.50000    0.05810    0.04838 = 
         0.04743   -0.00090    0.01342   -0.00045 
C2'   1    0.826127    0.895032    0.734966    10.50000    0.06091    0.04158 = 
         0.04405    0.00587    0.01253   -0.00212 
AFIX  13 
H2'A  2    0.829620    0.867741    0.791309    10.50000   -1.20000 
AFIX   0 
C3'   1    0.956025    0.921366    0.768744    10.50000    0.08695    0.05401 = 
         0.02804   -0.00995    0.03397   -0.01442 
AFIX  13 
H3'A  2    0.944584    0.937757    0.850569    10.50000   -1.20000 
PART 0 
AFIX   0 
C4    1    0.811043    0.828680    0.411134    11.00000    0.04757    0.04883 = 
         0.06128   -0.00532    0.00765    0.00296 
C5    1    0.857111    0.861714    0.329985    11.00000    0.09779    0.05644 = 
         0.06115   -0.00437    0.01310   -0.01089 
AFIX  43 
H5A   2    0.896333    0.888502    0.367891    11.00000   -1.20000 
AFIX   0 
C6    1    0.845587    0.855399    0.194204    11.00000    0.12271    0.08006 = 
         0.06616   -0.00602    0.02940   -0.00949 
AFIX  43 
H6A   2    0.877001    0.877857    0.141307    11.00000   -1.20000 
AFIX   0 
C7    1    0.788199    0.816275    0.137065    11.00000    0.10907    0.09789 = 
         0.06448   -0.02344    0.01918   -0.00799 
AFIX  43 
H7A   2    0.780184    0.812097    0.045347    11.00000   -1.20000 
AFIX   0 
C8    1    0.742396    0.783147    0.215395    11.00000    0.09206    0.08418 = 
         0.08643   -0.03897    0.02472   -0.01827 
AFIX  43 
H8A   2    0.703413    0.756434    0.176740    11.00000   -1.20000 
AFIX   0 
C9    1    0.754076    0.789394    0.351705    11.00000    0.06366    0.06071 = 
         0.07892   -0.01513    0.01737   -0.00820 
AFIX  43 
H9A   2    0.722964    0.766704    0.404035    11.00000   -1.20000 
AFIX   0 
C10   1    0.780174    0.800086    0.644985    11.00000    0.05849    0.04877 = 
         0.06386   -0.00276    0.01167   -0.00860 
C11   1    0.645883    0.793921    0.659810    11.00000    0.07104    0.09276 = 
         0.14066    0.00128    0.03882   -0.00713 
AFIX  43 
H11A  2    0.577867    0.812967    0.615302    11.00000   -1.20000 
AFIX   0 
C12   1    0.608968    0.758716    0.742511    11.00000    0.14027    0.12598 = 
         0.17674   -0.03064    0.09980   -0.05844 
AFIX  43 
H12A  2    0.516445    0.753897    0.750219    11.00000   -1.20000 
AFIX   0 
C13   1    0.706342    0.732538    0.809166    11.00000    0.27108    0.09150 = 
         0.12147   -0.01462    0.09027   -0.06759 
AFIX  43 
H13A  2    0.681676    0.709729    0.864859    11.00000   -1.20000 
AFIX   0 
C14   1    0.838562    0.738408    0.797568    11.00000    0.21282    0.06772 = 
         0.10496    0.02724    0.00199   -0.00163 
AFIX  43 
H14A  2    0.905955    0.719869    0.845235    11.00000   -1.20000 
AFIX   0 
C15   1    0.875906    0.771867    0.715163    11.00000    0.07887    0.07531 = 
         0.10302    0.01173    0.00626    0.00476 
AFIX  43 
H15A  2    0.968829    0.775385    0.706973    11.00000   -1.20000 
PART 1 
AFIX  66 
C16   1    1.085871    0.862261    0.795857    10.50000    0.07028    0.06522 = 
         0.06883    0.01648    0.01587   -0.00179 
C17   1    1.188190    0.867274    0.715632    10.50000    0.07902    0.07439 = 
         0.08598    0.02055    0.01903   -0.00193 
AFIX  43 
H17A  2    1.165909    0.879083    0.629953    10.50000   -1.20000 
AFIX  65 
C18   1    1.323812    0.854638    0.763464    10.50000    0.09475    0.09201 = 
         0.11092    0.01954    0.01797    0.01337 
AFIX  43 
H18A  2    1.392271    0.857992    0.709788    10.50000   -1.20000 
AFIX  65 
C19   1    1.357115    0.836988    0.891522    10.50000    0.09033    0.08463 = 
         0.10729    0.01022    0.01522    0.01759 
AFIX  43 
H19A  2    1.447855    0.828533    0.923524    10.50000   -1.20000 
AFIX  65 
C20   1    1.254797    0.831975    0.971748    10.50000    0.08301    0.07545 = 
         0.08469    0.00605    0.01454    0.01575 
AFIX  43 
H20A  2    1.277080    0.820166    1.057427    10.50000   -1.20000 
AFIX  65 
C21   1    1.119175    0.844611    0.923917    10.50000    0.07062    0.07634 = 
         0.06797    0.00867    0.01309    0.00981 
AFIX  43 
H21A  2    1.050717    0.841257    0.977594    10.50000   -1.20000 
PART 2 
AFIX  65 
C16'  1    1.089155    0.887867    0.813556    10.50000    0.06390    0.06609 = 
         0.06223    0.01880    0.01521    0.00225 
C17'  1    1.201627    0.887317    0.744607    10.50000    0.07352    0.08179 = 
         0.08048    0.01998    0.02236    0.01034 
AFIX  43 
H17B  2    1.202380    0.906266    0.671157    10.50000   -1.20000 
AFIX  65 
C18'  1    1.312972    0.858446    0.785439    10.50000    0.08316    0.08633 = 
         0.09657    0.02085    0.02556    0.02040 
AFIX  43 
H18B  2    1.388223    0.858079    0.739307    10.50000   -1.20000 
AFIX  65 
C19'  1    1.311845    0.830125    0.895219    10.50000    0.08191    0.07121 = 
         0.10217    0.02062    0.01743    0.02259 
AFIX  43 
H19B  2    1.386343    0.810809    0.922537    10.50000   -1.20000 
AFIX  65 
C20'  1    1.199374    0.830675    0.964169    10.50000    0.07959    0.06446 = 
         0.08638    0.01574    0.00915    0.01270 
AFIX  43 
H20B  2    1.198621    0.811726    1.037619    10.50000   -1.20000 
AFIX  65 
C21'  1    1.088028    0.859545    0.923339    10.50000    0.07579    0.06990 = 
         0.07124    0.01849    0.00795    0.00702 
AFIX  43 
H21B  2    1.012777    0.859913    0.969471    10.50000   -1.20000 
PART 0 
AFIX   0 
C29   1    0.893680    1.040195    0.730946    11.00000    0.05967    0.04252 = 
         0.03918    0.00270    0.00967   -0.00071 
C30   1    0.840962    1.042803    0.848818    11.00000    0.07215    0.05900 = 
         0.04681   -0.00064    0.01372    0.00428 
AFIX  43 
H30A  2    0.886822    1.028678    0.925095    11.00000   -1.20000 
AFIX   0 
C31   1    0.719992    1.066417    0.853407    11.00000    0.08224    0.06650 = 
         0.06833   -0.00788    0.03410    0.00276 
AFIX  43 
H31A  2    0.684996    1.068114    0.933515    11.00000   -1.20000 
AFIX   0 
C32   1    0.648852    1.087813    0.740901    11.00000    0.06692    0.06168 = 
         0.08704   -0.00856    0.02010    0.00611 
C33   1    0.705558    1.085580    0.624599    11.00000    0.08376    0.07911 = 
         0.06772    0.00978    0.00403    0.02372 
AFIX  43 
H33A  2    0.661374    1.100357    0.548715    11.00000   -1.20000 
AFIX   0 
C34   1    0.826906    1.061787    0.618556    11.00000    0.07241    0.07081 = 
         0.04874    0.01056    0.01324    0.01600 
AFIX  43 
H34A  2    0.863153    1.060387    0.539062    11.00000   -1.20000 
AFIX   0 
C35   1    0.512060    1.111187    0.744313    11.00000    0.08368    0.10850 = 
         0.14125   -0.00581    0.03285    0.03333 
AFIX  33 
H35A  2    0.478122    1.123498    0.657797    11.00000   -1.50000 
H35B  2    0.524265    1.135466    0.808630    11.00000   -1.50000 
H35C  2    0.446634    1.089489    0.768686    11.00000   -1.50000 
PART 2 
AFIX  66 
C23'  1    0.702197    0.923574    0.753300    10.50000    0.06669    0.06501 = 
         0.05563    0.01046    0.02047    0.00969 
C24'  1    0.674606    0.928891    0.882818    10.50000    0.07592    0.08244 = 
         0.06482    0.00822    0.02595    0.00983 
AFIX  43 
H24A  2    0.732840    0.915687    0.953650    10.50000   -1.20000 
AFIX  65 
C25'  1    0.559977    0.953944    0.906470    10.50000    0.07991    0.09723 = 
         0.07343    0.00202    0.03429    0.00294 
AFIX  43 
H25A  2    0.541517    0.957502    0.993127    10.50000   -1.20000 
AFIX  65 
C26'  1    0.472938    0.973680    0.800603    10.50000    0.06618    0.08762 = 
         0.07019   -0.00707    0.02488    0.00259 
AFIX  43 
H26A  2    0.396244    0.990443    0.816429    10.50000   -1.20000 
AFIX  65 
C27'  1    0.500528    0.968363    0.671084    10.50000    0.06465    0.08344 = 
         0.05877   -0.00471    0.01810    0.00850 
AFIX  43 
H27A  2    0.442293    0.981568    0.600253    10.50000   -1.20000 
AFIX  65 
C28'  1    0.615156    0.943310    0.647430    10.50000    0.06735    0.07534 = 
         0.05708    0.00254    0.01715    0.01412 
AFIX  43 
H28A  2    0.633615    0.939753    0.560773    10.50000   -1.20000 
PART 1 
AFIX  66 
C23   1    0.760898    0.938206    0.761220    10.50000    0.06449    0.06571 = 
         0.06974    0.01226    0.02791   -0.00277 
C24   1    0.702938    0.939235    0.878061    10.50000    0.07887    0.07778 = 
         0.07900    0.01278    0.03556   -0.00377 
AFIX  43 
H24B  2    0.757100    0.932458    0.959247    10.50000   -1.20000 
AFIX  65 
C25   1    0.564027    0.950392    0.873563    10.50000    0.08385    0.10120 = 
         0.08704    0.00800    0.04134   -0.00767 
AFIX  43 
H25B  2    0.525249    0.951080    0.951738    10.50000   -1.20000 
AFIX  65 
C26   1    0.483075    0.960521    0.752222    10.50000    0.06802    0.10315 = 
         0.09551   -0.00254    0.02874   -0.00489 
AFIX  43 
H26B  2    0.390135    0.967985    0.749213    10.50000   -1.20000 
AFIX  65 
C27   1    0.541033    0.959492    0.635379    10.50000    0.06573    0.10000 = 
         0.09083    0.00017    0.01894   -0.00430 
AFIX  43 
H27B  2    0.486870    0.966268    0.554194    10.50000   -1.20000 
AFIX  65 
C28   1    0.679944    0.948335    0.639876    10.50000    0.06362    0.08290 = 
         0.07928    0.00595    0.02009   -0.00572 
AFIX  43 
H28B  2    0.718722    0.947646    0.561700    10.50000   -1.20000 
PART 0 
AFIX   0 
HKLF 4 
  
REM  cd212589 in P2(1)/n 
REM R1 =  0.0686 for    3667 Fo > 4sig(Fo)  and  0.0999 for all    5340 data 
REM    433 parameters refined using    144 restraints 
  
END 
  
WGHT      0.0777      1.8340 
  
REM Instructions for potential hydrogen bonds 
HTAB N1 O2_$1 
HTAB C30 O1_$2 
  
REM Highest difference peak  0.322,  deepest hole -0.316,  1-sigma level  0.044 
Q1    1   0.9222  0.9578  0.5959  11.00000  0.05    0.29 
Q2    1   1.2458  0.8416  0.7038  11.00000  0.05    0.28 
Q3    1   1.2889  0.8269  0.8114  11.00000  0.05    0.28 
Q4    1   1.0603  0.8935  0.8041  11.00000  0.05    0.26 
Q5    1   0.5004  0.9434  0.8205  11.00000  0.05    0.26 
Q6    1   0.6878  0.9230  0.7164  11.00000  0.05    0.24 
Q7    1   0.4909  1.1150  0.8204  11.00000  0.05    0.21 
Q8    1   1.1427  0.8682  0.9163  11.00000  0.05    0.21 
Q9    1   1.2674  0.8296  0.9383  11.00000  0.05    0.19 
Q10   1   1.3048  0.8330  0.9523  11.00000  0.05    0.19 
Q11   1   0.5940  0.9211  0.8473  11.00000  0.05    0.19 
Q12   1   0.5581  1.1445  0.6976  11.00000  0.05    0.19 
Q13   1   0.5187  0.9490  0.6818  11.00000  0.05    0.18 
Q14   1   1.1613  0.8374  0.9141  11.00000  0.05    0.18 
Q15   1   1.3406  0.8427  0.6282  11.00000  0.05    0.16 
Q16   1   0.6917  0.7686  0.8026  11.00000  0.05    0.15 
Q17   1   0.8421  1.0365  0.6662  11.00000  0.05    0.15 
Q18   1   0.4627  0.9782  0.7214  11.00000  0.05    0.15 
Q19   1   1.1938  1.0232  0.8436  11.00000  0.05    0.15 
Q20   1   1.1244  0.8771  0.7224  11.00000  0.05    0.15 
Q21   1   0.8744  0.7499  0.8221  11.00000  0.05    0.14 
Q22   1   0.4198  1.1032  0.6201  11.00000  0.05    0.14 
Q23   1   0.8382  0.8276  0.4862  11.00000  0.05    0.14 
Q24   1   0.8990  0.8394  0.5752  11.00000  0.05    0.14 
Q25   1   0.7568  0.7340  0.7930  11.00000  0.05    0.14 
Q26   1   1.2336  1.0249  0.6773  11.00000  0.05    0.13 
Q27   1   0.8913  1.0627  0.6940  11.00000  0.05    0.13 
Q28   1   0.4361  1.0880  0.6799  11.00000  0.05    0.13 
Q29   1   0.9393  1.0210  0.7132  11.00000  0.05    0.13 
Q30   1   0.7455  0.8199  0.3706  11.00000  0.05    0.13 
Q31   1   0.6723  1.0626  0.7679  11.00000  0.05    0.13 
Q32   1   0.9588  1.0370  0.9444  11.00000  0.05    0.13 
Q33   1   1.4349  0.8275  1.0063  11.00000  0.05    0.13 
Q34   1   0.8192  1.0073  0.9022  11.00000  0.05    0.12 
Q35   1   0.5581  1.0912  0.7400  11.00000  0.05    0.12 
Q36   1   0.6133  0.7935  0.7743  11.00000  0.05    0.12 
Q37   1   0.6808  1.0860  0.6960  11.00000  0.05    0.12 
Q38   1   0.7926  0.8565  0.5754  11.00000  0.05    0.12 
Q39   1   1.1315  0.8923  0.5419  11.00000  0.05    0.12 
Q40   1   0.9617  0.8626  0.3823  11.00000  0.05    0.12 
Q41   1   0.5419  0.7746  0.6897  11.00000  0.05    0.12 
Q42   1   0.6388  0.7818  0.1018  11.00000  0.05    0.12 
Q43   1   1.1189  0.9983  0.6410  11.00000  0.05    0.12 
Q44   1   0.7409  0.8443  0.2933  11.00000  0.05    0.12 
Q45   1   0.8319  1.0300  0.7610  11.00000  0.05    0.12 
Q46   1   0.5527  0.8280  0.5450  11.00000  0.05    0.11 
Q47   1   0.6543  0.9523  0.8467  11.00000  0.05    0.11 
Q48   1   0.7226  0.8002  0.2010  11.00000  0.05    0.11 
Q49   1   1.1327  0.9780  0.9042  11.00000  0.05    0.11 
Q50   1   0.8022  0.7754  0.6423  11.00000  0.05    0.11 
;
_shelx_res_checksum              11568
_shelx_hkl_file
; 
   1   0   0   -0.54    0.13 
  -1   0   0   -0.92    0.05 
   1   0   0   -0.61    0.15 
   2   0   0  724.72   18.76 
   2   0   0  721.64   16.03 
  -3   0   0    0.63    0.26 
   3   0   0    0.87    0.40 
   3   0   0    1.76    0.61 
   4   0   0   38.22    1.59 
   4   0   0   38.18    2.03 
   5   0   0    4.08    1.14 
   5   0   0    2.41    0.74 
  -5   0   0    2.28    0.59 
   6   0   0   46.24    2.66 
   6   0   0   44.01    2.10 
  -7   0   0    0.33    0.42 
   7   0   0    0.07    0.72 
   7   0   0   -0.97    0.91 
   8   0   0    0.88    1.27 
   8   0   0    0.99    0.96 
  -8   0   0   -0.86    0.38 
   9   0   0   -0.50    0.92 
  -9   0   0   -0.06    0.40 
   9   0   0    1.15    1.14 
  10   0   0    1.01    1.27 
  10   0   0    2.95    1.40 
  11   0   0    0.22    1.47 
  12   0   0    2.37    2.04 
  12  -1   0   -0.26    1.82 
  11  -1   0    1.87    1.69 
  10  -1   0   -1.31    1.19 
  10  -1   0    0.62    1.23 
  -9   1   0    2.27    0.69 
   9  -1   0    1.76    1.18 
   9  -1   0    2.04    1.23 
   8  -1   0    0.07    0.86 
  -8   1   0    0.82    0.62 
   8  -1   0    0.91    1.25 
  -7   1   0    0.10    0.37 
   7  -1   0    0.00    0.68 
   7  -1   0    0.38    1.02 
   6  -1   0   28.43    2.12 
   6  -1   0   29.89    1.72 
   5  -1   0  135.36    3.98 
   5  -1   0  132.39    4.84 
   4  -1   0  159.02    4.23 
   4  -1   0  153.04    5.15 
   3  -1   0  133.79    3.55 
   3  -1   0  137.56    4.38 
   2  -1   0  426.60    9.65 
  -1   1   0  707.25   15.99 
   0  -1   0    0.02    0.01 
   0   1   0    0.02    0.01 
   0   1   0    0.04    0.02 
  -1  -1   0 1402.94   32.94 
   1   1   0 1531.14   38.10 
   1   1   0 1559.64   33.15 
   2   1   0  406.83   10.95 
   2   1   0  418.01    9.31 
  -2  -1   0  406.23    9.32 
   3   1   0  136.37    4.41 
   3   1   0  134.88    3.58 
  -3  -1   0  139.14    3.57 
   4   1   0  158.29    4.27 
  -4  -1   0  157.31    4.16 
   4   1   0  158.96    5.24 
   5   1   0  131.94    3.97 
  -5  -1   0  138.52    3.83 
   5   1   0  131.44    4.86 
  -6  -1   0   30.78    1.54 
   6   1   0   28.78    1.70 
   6   1   0   28.52    2.13 
   7   1   0    1.34    0.79 
  -7  -1   0    0.49    0.52 
   7   1   0    0.05    0.99 
   8   1   0    3.30    1.09 
  -8  -1   0    2.41    0.78 
   8   1   0    1.41    1.14 
   9   1   0    1.12    1.08 
   9   1   0    0.95    1.10 
  -9  -1   0    1.31    0.71 
  10   1   0    0.32    1.24 
  10   1   0   -0.18    1.17 
  11   1   0    1.31    1.51 
  12   1   0    1.29    2.18 
  12  -2   0    5.00    2.16 
  11  -2   0    0.33    1.34 
  10  -2   0   -0.91    1.09 
  10  -2   0    0.59    1.28 
   9  -2   0    0.61    1.21 
   9  -2   0    1.17    1.02 
   8  -2   0    5.57    1.59 
  -8   2   0    3.24    0.77 
   8  -2   0    2.91    1.09 
  -7   2   0    3.92    0.83 
   7  -2   0    3.17    0.94 
   7  -2   0    4.53    1.35 
  -6   2   0   14.26    1.05 
   6  -2   0   19.06    1.48 
   6  -2   0   17.71    1.82 
  -5   2   0   17.61    1.10 
   5  -2   0   19.45    1.32 
   5  -2   0   21.94    1.80 
   4  -2   0    0.38    0.43 
  -4   2   0    0.77    0.37 
   4  -2   0    0.35    0.63 
   3  -2   0   16.28    0.90 
  -3   2   0   13.81    0.77 
   2  -2   0 3116.71   63.11 
  -2   2   0 2681.91   63.23 
   1  -2   0  121.08    2.89 
   1  -2   0  117.26    2.84 
   0  -2   0   -0.16    0.02 
   1   2   0  116.13    2.82 
   1   2   0  118.29    3.41 
  -1  -2   0  120.37    2.85 
  -2  -2   0 3125.79   67.50 
   2   2   0 3018.99   77.75 
   2   2   0 3147.68   67.40 
   3   2   0   16.64    0.93 
  -3  -2   0   18.05    0.89 
   3   2   0   17.18    1.24 
   4   2   0    1.02    0.52 
   4   2   0    1.56    0.74 
  -4  -2   0    0.76    0.44 
  -5  -2   0   20.05    1.21 
   5   2   0   17.38    1.33 
   5   2   0   21.73    1.91 
   6   2   0   16.79    1.84 
   6   2   0   12.36    1.31 
  -6  -2   0   15.31    1.12 
   7   2   0    3.72    1.00 
   7   2   0    2.94    1.26 
  -7  -2   0    5.25    0.87 
  -8  -2   0    4.50    0.89 
   8   2   0    3.73    1.12 
   8   2   0    4.37    1.46 
   9   2   0    0.18    1.14 
   9   2   0   -0.20    1.01 
  -9  -2   0    0.25    0.71 
  10   2   0    0.99    1.30 
  10   2   0    0.16    1.21 
  11   2   0   -2.02    1.52 
  11   2   0    2.47    1.76 
  12   2   0    3.34    2.14 
  12  -3   0    0.55    1.93 
  11  -3   0    8.40    1.92 
  10  -3   0    1.78    1.25 
   9  -3   0   -0.37    0.95 
   9  -3   0    0.67    1.12 
   8  -3   0   10.30    1.83 
  -8   3   0   10.49    1.11 
   8  -3   0    7.94    1.43 
  -7   3   0   26.88    1.49 
   7  -3   0   24.73    1.88 
   7  -3   0   24.50    2.09 
   6  -3   0    4.07    0.88 
  -6   3   0    6.42    0.81 
   6  -3   0    7.09    1.39 
  -5   3   0   90.90    2.72 
   5  -3   0   73.53    3.44 
   5  -3   0   87.40    2.88 
   4  -3   0    9.61    0.91 
  -4   3   0   10.66    0.85 
  -3   3   0  297.12    7.10 
   3  -3   0  301.96    7.12 
   2  -3   0   20.31    0.91 
   2  -3   0   19.80    0.92 
   1  -3   0   56.35    1.51 
   1  -3   0   53.54    1.47 
   0  -3   0    2.61    0.22 
   1   3   0   53.93    1.84 
  -1  -3   0   54.12    1.48 
  -2  -3   0   17.95    0.84 
   2   3   0   18.96    1.18 
   2   3   0   17.47    0.84 
  -3  -3   0  308.91    7.24 
   3   3   0  306.04    7.23 
   3   3   0  298.98    8.68 
  -4  -3   0   11.55    0.83 
   4   3   0   10.66    1.31 
   4   3   0   12.01    0.96 
   5   3   0   88.40    3.75 
   5   3   0   87.27    2.95 
  -5  -3   0   87.87    2.80 
   6   3   0    6.26    1.36 
  -6  -3   0    6.53    0.91 
   6   3   0    3.94    0.94 
   7   3   0   25.97    2.18 
   7   3   0   23.61    1.73 
  -7  -3   0   25.64    1.50 
   8   3   0    7.45    1.43 
   8   3   0   10.33    1.82 
  -8  -3   0    8.08    1.14 
   9   3   0   -0.83    0.95 
  -9  -3   0    0.41    0.71 
   9   3   0    0.73    1.17 
  10   3   0    2.39    1.45 
  10   3   0    2.04    1.40 
  11   3   0    6.94    2.12 
  11   3   0    5.81    2.07 
  12  -4   0    3.36    2.01 
  11  -4   0   -0.06    1.37 
  10  -4   0    8.84    1.66 
   9  -4   0    0.58    1.07 
   9  -4   0    1.43    1.30 
   8  -4   0   28.74    2.41 
  -8   4   0   28.69    1.55 
   8  -4   0   26.31    1.96 
   7  -4   0    2.06    1.11 
   7  -4   0    1.89    0.83 
  -7   4   0    2.50    0.69 
   6  -4   0   35.85    1.84 
   6  -4   0   24.20    2.02 
  -6   4   0   39.40    1.66 
   5  -4   0   81.40    2.80 
  -5   4   0   80.76    2.62 
   4  -4   0   30.01    1.44 
  -4   4   0   29.17    1.32 
   3  -4   0  312.52    7.42 
  -3   4   0  311.42    7.40 
   2  -4   0  497.68   11.50 
   2  -4   0  522.56   11.59 
   1  -4   0  656.21   14.57 
   1  -4   0  657.54   14.68 
   0  -4   0  129.42    3.11 
  -1  -4   0  640.70   13.99 
   1   4   0  612.31   16.23 
  -2  -4   0  510.33   11.57 
   2   4   0  509.90   13.61 
   2   4   0  513.77   11.51 
   3   4   0  311.46    7.37 
  -3  -4   0  312.55    7.40 
   3   4   0  307.53    8.87 
   4   4   0   31.12    1.46 
   4   4   0   29.77    1.94 
  -4  -4   0   30.78    1.39 
  -5  -4   0   86.18    2.78 
   5   4   0   82.57    3.63 
   5   4   0   83.72    2.88 
   6   4   0   40.47    2.54 
   6   4   0   36.93    1.94 
  -6  -4   0   37.93    1.77 
   7   4   0    2.22    0.94 
   7   4   0    3.38    1.29 
  -7  -4   0    3.44    0.79 
   8   4   0   29.09    2.45 
  -8  -4   0   31.05    1.75 
   8   4   0   27.04    2.21 
   9   4   0   -0.54    0.99 
  -9  -4   0    0.16    0.73 
   9   4   0    1.13    1.15 
 -10  -4   0    6.50    1.26 
  10   4   0    8.06    1.82 
  10   4   0    9.25    2.05 
  11   4   0   -0.26    1.81 
  11   4   0    2.36    1.60 
  12  -5   0    0.74    1.93 
  11  -5   0    3.63    1.67 
  10  -5   0    6.48    1.61 
   9  -5   0    3.44    1.27 
   9  -5   0    3.29    1.33 
  -8   5   0    5.92    0.89 
   8  -5   0    2.48    1.16 
   8  -5   0    4.38    1.19 
  -7   5   0    4.65    0.81 
   7  -5   0    3.29    0.97 
   7  -5   0    0.33    0.82 
   6  -5   0    0.21    0.66 
   6  -5   0    0.22    0.61 
  -6   5   0   -0.49    0.42 
   5  -5   0   40.42    1.87 
  -5   5   0   41.20    1.72 
  -4   5   0  371.21    8.92 
   4  -5   0  379.15    9.01 
   3  -5   0   21.59    1.06 
   3  -5   0   20.74    1.08 
   2  -5   0  916.37   20.16 
   2  -5   0  890.67   20.01 
   1  -5   0  389.19    8.83 
   1  -5   0  385.14    8.76 
   0  -5   0    0.93    0.28 
   0  -5   0    0.03    0.14 
   1   5   0  354.21    9.61 
  -1  -5   0  363.35    8.21 
   2   5   0  889.32   23.31 
  -2  -5   0  907.19   20.00 
   3   5   0   22.85    1.52 
  -3  -5   0   22.55    1.06 
   3   5   0   19.81    1.03 
  -4  -5   0  402.32    9.52 
   4   5   0  396.55   11.47 
   4   5   0  398.99    9.52 
  -5  -5   0   43.10    1.84 
   5   5   0   42.83    2.51 
   5   5   0   43.43    1.93 
   6   5   0    1.29    1.04 
  -6  -5   0    0.11    0.51 
   6   5   0    0.59    0.66 
  -7  -5   0    5.60    0.96 
   7   5   0    5.74    1.50 
   7   5   0    4.68    1.11 
   8   5   0    6.04    1.42 
   8   5   0    4.86    1.44 
  -8  -5   0    5.13    1.03 
   9   5   0    4.09    1.41 
  -9  -5   0    4.50    1.04 
   9   5   0    3.95    1.45 
  10   5   0   13.27    2.22 
 -10  -5   0   11.90    1.54 
  10   5   0    8.16    2.01 
  11   5   0    2.63    1.63 
  12  -6   0    3.08    1.98 
  11  -6   0    2.75    1.58 
  10  -6   0    1.38    1.26 
   9  -6   0    0.23    1.09 
   9  -6   0    3.02    1.20 
   8  -6   0    0.79    0.99 
  -8   6   0    2.72    0.62 
   8  -6   0    2.19    1.00 
   7  -6   0    3.06    1.09 
  -7   6   0    8.20    0.98 
   7  -6   0    6.05    1.15 
   6  -6   0   -0.09    0.56 
   6  -6   0    1.49    0.89 
  -6   6   0    0.63    0.52 
   5  -6   0  138.63    5.44 
   5  -6   0  173.75    4.71 
  -5   6   0  171.02    4.49 
   4  -6   0    7.98    0.88 
  -4   6   0    9.64    0.89 
   3  -6   0    1.29    0.45 
   2  -6   0  190.54    4.72 
   2  -6   0  193.14    4.77 
   1  -6   0  570.26   12.83 
   1  -6   0  577.54   12.91 
   0  -6   0   50.29    1.54 
   1   6   0  558.00   14.79 
  -1  -6   0  566.29   12.68 
  -2  -6   0  187.86    4.66 
   2   6   0  185.62    5.65 
  -3  -6   0    2.63    0.52 
   3   6   0    1.62    0.75 
   3   6   0    0.95    0.43 
   4   6   0    9.56    0.94 
  -4  -6   0   11.75    0.99 
   4   6   0    9.27    1.41 
  -5  -6   0  171.79    4.77 
   5   6   0  175.27    6.09 
   5   6   0  173.85    4.88 
   6   6   0    0.41    0.71 
  -6  -6   0    0.39    0.56 
   6   6   0    3.15    1.13 
   7   6   0    5.60    1.44 
   7   6   0    5.57    1.22 
  -7  -6   0    5.99    0.99 
   8   6   0    0.07    1.01 
  -8  -6   0    2.71    0.89 
   8   6   0    1.76    1.24 
   9   6   0   -0.50    1.09 
   9   6   0    1.71    1.31 
  -9  -6   0    2.22    0.92 
 -10  -6   0    2.45    0.99 
  10   6   0    3.93    1.63 
  10   6   0    2.70    1.39 
  11   6   0    1.74    1.63 
  12  -7   0   -0.38    1.76 
  11  -7   0    4.91    1.84 
  10  -7   0    3.76    1.49 
   9  -7   0    3.92    1.29 
   8  -7   0    4.25    1.16 
   8  -7   0    6.69    1.63 
   7  -7   0    2.12    0.91 
  -7   7   0    3.00    0.74 
   7  -7   0    3.85    1.26 
  -6   7   0   35.28    1.63 
   6  -7   0   37.45    2.39 
   6  -7   0   34.29    1.89 
   5  -7   0   14.87    1.70 
  -5   7   0   13.08    1.04 
   5  -7   0   14.06    1.23 
   4  -7   0    2.62    0.64 
   4  -7   0    1.36    0.58 
   3  -7   0  341.40    8.14 
   3  -7   0  338.03    8.12 
   2  -7   0   31.17    1.26 
   2  -7   0   34.04    1.35 
   1  -7   0 1604.47   34.82 
   1  -7   0 1561.53   34.61 
   0  -7   0   14.24    0.83 
  -1  -7   0 1610.75   35.27 
  -1  -7   0 1612.35   35.43 
  -2  -7   0   29.95    1.26 
   2   7   0   32.62    1.73 
  -3  -7   0  354.14    8.47 
   3   7   0  352.94   10.19 
   4   7   0    0.82    0.91 
  -4  -7   0    1.79    0.61 
   4   7   0    1.52    0.59 
  -5  -7   0   15.99    1.23 
   5   7   0   16.47    1.85 
   5   7   0   13.78    1.18 
   6   7   0   36.55    2.58 
   6   7   0   39.75    1.97 
  -6  -7   0   39.31    1.88 
   7   7   0    2.88    0.97 
   7   7   0    1.66    1.11 
  -7  -7   0    4.24    0.92 
   8   7   0    6.10    1.66 
  -8  -7   0    7.00    1.17 
   8   7   0    6.26    1.41 
  -9  -7   0    2.28    0.93 
   9   7   0    2.06    1.37 
   9   7   0    2.32    1.30 
 -10  -7   0    3.74    1.06 
  10   7   0    3.21    1.53 
  10   7   0    2.40    1.71 
  11   7   0    4.51    1.91 
  12   7   0    0.97    2.01 
  12  -8   0    0.76    1.84 
  11  -8   0   -0.87    1.47 
  10  -8   0    3.92    1.51 
   9  -8   0   -0.20    1.01 
   8  -8   0    1.13    1.24 
   8  -8   0    0.65    0.82 
  -7   8   0   20.50    1.28 
   7  -8   0   15.10    1.56 
   7  -8   0   24.88    2.35 
   6  -8   0    6.34    1.37 
  -6   8   0    2.74    0.67 
   6  -8   0    1.67    0.71 
   5  -8   0   -0.52    0.74 
   5  -8   0    1.47    0.62 
  -5   8   0    1.92    0.55 
   4  -8   0  199.54    5.25 
   4  -8   0  197.41    5.30 
   3  -8   0   36.66    1.58 
   3  -8   0   41.84    1.66 
   2  -8   0 1032.98   23.24 
   2  -8   0 1063.24   23.43 
   1  -8   0   57.45    1.77 
   1  -8   0   58.41    1.85 
   0  -8   0    2.74    0.36 
   0  -8   0    4.39    0.55 
  -1  -8   0   56.49    1.85 
  -1  -8   0   56.52    1.66 
   2   8   0  969.79   25.85 
  -2  -8   0 1014.68   22.21 
  -3  -8   0   41.38    1.69 
   3   8   0   43.93    2.32 
   4   8   0  204.29    6.77 
  -4  -8   0  202.84    5.41 
  -5  -8   0    1.59    0.63 
   5   8   0    2.03    1.02 
   5   8   0    1.36    0.62 
   6   8   0    3.25    0.88 
  -6  -8   0    2.00    0.77 
   6   8   0    2.23    1.21 
   7   8   0   20.57    1.77 
  -7  -8   0   20.51    1.50 
   7   8   0   21.87    2.43 
   8   8   0    0.11    0.97 
   8   8   0    2.26    1.33 
  -8  -8   0   -1.75    0.63 
   9   8   0    0.02    1.13 
  -9  -8   0    1.41    0.85 
   9   8   0   -0.42    1.29 
  10   8   0    4.61    1.70 
 -10  -8   0    3.48    1.10 
  11   8   0   -1.72    1.34 
  12   8   0    3.81    2.25 
  12  -9   0    2.75    1.99 
  11  -9   0    3.50    1.76 
  10  -9   0    2.77    1.32 
   9  -9   0    3.24    1.21 
   8  -9   0   15.92    1.83 
   8  -9   0   20.61    2.31 
   7  -9   0   14.55    1.54 
   7  -9   0   18.38    2.14 
  -7   9   0   17.28    1.32 
   6  -9   0    6.19    1.04 
   6  -9   0    8.58    1.62 
  -6   9   0    6.67    0.88 
   5  -9   0   15.25    1.29 
   4  -9   0   25.43    1.44 
   4  -9   0   24.21    1.36 
   3  -9   0    4.85    0.71 
   3  -9   0    5.75    0.75 
   2  -9   0   35.83    1.44 
   2  -9   0   33.50    1.43 
   1  -9   0  202.10    5.01 
   1  -9   0  197.78    4.90 
   0  -9   0    8.32    0.59 
   0  -9   0   10.68    0.80 
  -1  -9   0  196.28    4.98 
  -1  -9   0  197.92    4.75 
  -2  -9   0   34.07    1.44 
   2   9   0   34.74    1.93 
   3   9   0    6.53    1.19 
  -3  -9   0    4.73    0.74 
  -4  -9   0   26.13    1.45 
   4   9   0   28.63    2.05 
   5   9   0   18.95    2.07 
  -5  -9   0   15.64    1.29 
   5   9   0   16.36    1.26 
   6   9   0    7.20    1.63 
  -6  -9   0    6.20    0.99 
   6   9   0    5.59    1.04 
  -7  -9   0   17.85    1.55 
   7   9   0   14.54    1.55 
   7   9   0   19.97    2.35 
  -8  -9   0   19.31    1.73 
   8   9   0   17.53    1.86 
   8   9   0   19.41    2.48 
  -9  -9   0    1.97    0.93 
   9   9   0    1.97    1.35 
   9   9   0    1.33    1.41 
  10   9   0    1.86    1.56 
 -10  -9   0   -0.05    0.88 
  11   9   0    3.26    2.00 
  12   9   0    0.37    1.93 
  12 -10   0    2.59    2.00 
  11 -10   0    2.32    1.73 
  10 -10   0    9.07    1.82 
   9 -10   0    7.56    1.56 
   8 -10   0    0.60    0.92 
   8 -10   0    2.44    1.23 
   7 -10   0   12.78    1.82 
   7 -10   0    6.86    1.24 
  -7  10   0    6.81    0.95 
   6 -10   0   28.62    2.48 
   6 -10   0   19.34    1.63 
  -6  10   0   20.85    1.33 
   5 -10   0    0.22    0.53 
   5 -10   0    0.72    0.60 
   4 -10   0   85.83    2.86 
   4 -10   0   86.58    2.88 
   3 -10   0   36.45    1.63 
   3 -10   0   40.39    1.73 
   2 -10   0    5.07    0.66 
   2 -10   0    4.63    0.68 
   1 -10   0   97.63    2.76 
   1 -10   0  101.67    2.89 
   0 -10   0  386.94    9.14 
  -1 -10   0   99.56    2.67 
  -1 -10   0   99.68    2.92 
  -2 -10   0    3.58    0.64 
   2  10   0    4.63    0.99 
  -3 -10   0   33.86    1.57 
   3  10   0   36.62    2.21 
  -4 -10   0   87.94    2.95 
   4  10   0   90.86    3.92 
   5  10   0   -0.05    0.90 
  -5 -10   0    0.50    0.61 
   6  10   0   22.06    2.37 
  -6 -10   0   22.68    1.51 
  -7 -10   0    7.00    1.17 
   7  10   0    7.80    1.72 
   7  10   0    7.26    1.29 
   8  10   0    1.17    1.02 
   8  10   0    0.04    0.96 
  -8 -10   0   -0.32    0.73 
  -9 -10   0    9.66    1.42 
   9  10   0    9.49    2.05 
  10  10   0    7.95    2.13 
 -10 -10   0    8.02    1.43 
  11  10   0   -0.57    1.61 
 -11 -10   0   -0.55    1.09 
  12  10   0    2.47    2.24 
  12 -11   0    0.48    1.75 
  11 -11   0    6.55    2.02 
  10 -11   0    0.11    1.32 
   9 -11   0    7.01    1.48 
   8 -11   0    1.59    0.99 
  -7  11   0   12.67    1.15 
   7 -11   0   16.41    2.04 
   7 -11   0   12.48    1.52 
  -6  11   0    1.47    0.67 
   6 -11   0    2.79    1.26 
   6 -11   0    1.00    0.66 
   5 -11   0   18.44    1.39 
   5 -11   0   18.10    1.44 
   4 -11   0   60.88    2.33 
   4 -11   0   60.83    2.33 
   3 -11   0  146.55    4.19 
   3 -11   0  147.12    4.12 
   2 -11   0   28.58    1.35 
   2 -11   0   29.53    1.38 
   1 -11   0    4.26    0.58 
   1 -11   0    3.47    0.62 
   0 -11   0    9.82    0.69 
   0 -11   0   13.28    0.92 
  -1 -11   0    4.13    0.48 
  -1 -11   0    5.01    0.70 
  -2 -11   0   23.59    1.26 
   3  11   0  144.04    5.21 
  -3 -11   0  143.41    4.14 
   4  11   0   61.92    3.19 
  -4 -11   0   57.61    2.30 
   5  11   0   19.34    2.17 
  -5 -11   0   17.90    1.32 
  -6 -11   0    1.31    0.74 
   6  11   0    1.72    1.03 
   7  11   0   12.80    2.08 
  -7 -11   0   12.31    1.41 
  -8 -11   0    1.24    0.82 
   8  11   0   -0.93    0.98 
   9  11   0    9.53    2.06 
  -9 -11   0    6.27    1.28 
  10  11   0   -0.32    1.37 
 -10 -11   0    0.53    0.89 
  11  11   0    1.48    1.90 
 -11 -11   0    3.48    1.40 
  12  11   0    2.45    2.17 
  12 -12   0    0.84    1.90 
  11 -12   0    2.36    1.79 
  10 -12   0    2.97    1.55 
   9 -12   0    0.99    1.16 
   8 -12   0   10.97    1.59 
   7 -12   0    2.39    0.92 
   7 -12   0    7.86    1.63 
   6 -12   0    2.76    0.84 
  -6  12   0    2.33    0.76 
   5 -12   0    0.09    0.56 
   5 -12   0    0.43    0.60 
   4 -12   0   10.77    1.11 
   4 -12   0   11.38    1.14 
   3 -12   0   11.04    1.02 
   3 -12   0    8.30    1.00 
   2 -12   0   44.71    1.82 
   2 -12   0   47.21    1.80 
   1 -12   0   29.24    1.37 
   1 -12   0   28.12    1.24 
   0 -12   0    9.84    0.90 
   0 -12   0    8.98    0.72 
  -1 -12   0   30.27    1.18 
  -1 -12   0   29.08    1.41 
  -2 -12   0   46.89    1.60 
  -2 -12   0   45.44    1.87 
  -3 -12   0    9.03    1.03 
   3  12   0    8.09    1.45 
  -4 -12   0   10.87    1.14 
   4  12   0   13.20    1.80 
   5  12   0   -0.66    0.90 
  -5 -12   0    0.70    0.64 
  -6 -12   0    3.06    0.86 
   6  12   0    6.03    1.44 
  -7 -12   0    2.23    0.87 
   7  12   0    3.26    1.32 
   8  12   0   10.18    2.07 
  -8 -12   0   11.90    1.49 
   9  12   0    1.53    1.53 
  -9 -12   0    0.77    0.88 
 -10 -12   0    0.29    0.96 
  10  12   0    1.44    1.50 
 -11 -12   0   -0.77    1.02 
  11  12   0    1.72    1.88 
  12  12   0    3.33    2.41 
  12 -13   0   -0.02    1.92 
  11 -13   0    6.03    2.05 
  10 -13   0   -0.41    1.22 
   9 -13   0    4.12    1.37 
   8 -13   0    4.41    1.21 
   8 -13   0    4.42    1.21 
   7 -13   0    4.90    1.14 
   7 -13   0   10.07    1.63 
   6 -13   0    3.70    0.92 
   6 -13   0    6.08    1.12 
   5 -13   0   10.54    1.25 
   5 -13   0   10.69    1.19 
   4 -13   0   11.45    1.18 
   4 -13   0   13.79    1.25 
   3 -13   0  273.07    7.03 
   3 -13   0  265.49    6.87 
   2 -13   0  290.78    7.24 
   2 -13   0  297.07    7.43 
   1 -13   0   94.52    2.79 
   1 -13   0   92.60    2.95 
   0 -13   0    8.52    0.90 
   0 -13   0    6.53    0.67 
  -1 -13   0   91.96    2.95 
  -1 -13   0   92.96    2.65 
  -2 -13   0  294.85    7.53 
  -2 -13   0  299.92    7.12 
  -3 -13   0  268.30    7.02 
   4  13   0   12.69    1.84 
  -4 -13   0   10.91    1.18 
   5  13   0   11.17    1.90 
  -5 -13   0   12.72    1.30 
   6  13   0    3.80    1.39 
  -6 -13   0    1.94    0.80 
   7  13   0    5.10    1.52 
  -7 -13   0    7.55    1.22 
   8  13   0    3.43    1.65 
  -8 -13   0    3.49    1.04 
  -9 -13   0    4.26    1.24 
   9  13   0    4.62    1.77 
  10  13   0    0.68    1.64 
 -10 -13   0    0.82    1.01 
  11  13   0    3.90    2.06 
 -11 -13   0    2.67    1.37 
  12  13   0    1.60    2.36 
  12 -14   0    5.94    2.27 
  11 -14   0    3.14    1.82 
  10 -14   0    8.32    2.01 
   9 -14   0   -1.04    0.96 
   8 -14   0    1.05    0.91 
   7 -14   0    2.68    1.21 
   7 -14   0    0.74    0.87 
   6 -14   0   19.36    1.62 
   6 -14   0   17.29    1.62 
   5 -14   0   -0.01    0.62 
   5 -14   0    0.18    0.60 
   4 -14   0    2.57    0.79 
   4 -14   0    3.30    0.81 
   3 -14   0   87.87    3.08 
   3 -14   0   92.14    3.03 
   2 -14   0   37.86    1.69 
   2 -14   0   35.29    1.74 
   1 -14   0   58.05    2.20 
   1 -14   0   55.77    1.99 
   0 -14   0  139.87    4.01 
   0 -14   0  170.08    4.48 
  -1 -14   0   56.85    1.90 
  -1 -14   0   55.64    2.19 
  -2 -14   0   32.35    1.37 
  -2 -14   0   35.02    1.73 
  -3 -14   0   85.66    3.04 
  -4 -14   0    2.79    0.79 
   4  14   0    3.82    1.33 
   5  14   0    1.38    1.00 
  -5 -14   0    0.25    0.60 
   6  14   0   16.38    2.29 
  -6 -14   0   18.18    1.63 
   7  14   0    2.25    1.30 
  -7 -14   0    1.35    0.82 
   8  14   0    1.50    1.37 
  -8 -14   0    0.61    0.89 
   9  14   0    1.34    1.49 
  -9 -14   0    0.10    0.94 
  10  14   0   10.24    2.41 
 -10 -14   0    8.93    1.63 
  11  14   0   -0.36    1.93 
 -11 -14   0    1.93    1.36 
  12  14   0    0.86    2.42 
  11 -15   0    5.40    2.01 
  10 -15   0    1.89    1.56 
   9 -15   0    0.51    1.09 
   8 -15   0    0.08    0.96 
   7 -15   0   -0.84    0.75 
   6 -15   0    0.23    0.71 
   6 -15   0    0.64    0.79 
   5 -15   0    1.06    0.68 
   5 -15   0    1.05    0.74 
   4 -15   0   10.90    1.22 
   4 -15   0   12.16    1.24 
   3 -15   0   98.50    3.37 
   3 -15   0  100.77    3.27 
   2 -15   0  296.81    7.43 
   2 -15   0  298.14    7.70 
   1 -15   0  159.74    4.61 
   1 -15   0  161.99    4.36 
   0 -15   0    0.08    0.53 
   0 -15   0    1.22    0.47 
  -1 -15   0  165.54    4.70 
  -1 -15   0  160.44    4.27 
  -2 -15   0  285.97    6.87 
  -2 -15   0  278.52    7.36 
  -3 -15   0   93.75    3.27 
  -3 -15   0   97.18    2.86 
  -4 -15   0   12.50    1.33 
  -5 -15   0    0.87    0.64 
   5  15   0    2.75    1.28 
  -6 -15   0    1.95    0.84 
   6  15   0    0.21    1.06 
   7  15   0    1.09    1.23 
  -7 -15   0   -0.20    0.76 
   8  15   0    1.72    1.45 
  -8 -15   0    0.83    0.90 
   9  15   0    3.55    1.74 
  -9 -15   0    1.22    1.03 
  10  15   0    1.08    1.74 
 -10 -15   0    2.01    1.22 
  11  15   0    1.68    2.16 
 -11 -15   0    3.27    1.54 
  11 -16   0    2.28    1.80 
  10 -16   0    2.08    1.52 
   9 -16   0    7.24    1.67 
   8 -16   0    9.23    1.64 
   7 -16   0    0.46    0.86 
   6 -16   0    0.33    0.74 
   6 -16   0    0.75    0.76 
   5 -16   0    9.05    1.25 
   5 -16   0    9.08    1.29 
   4 -16   0    2.26    0.74 
   4 -16   0    1.30    0.76 
   3 -16   0    8.07    1.04 
   3 -16   0   10.36    1.21 
   2 -16   0   10.52    1.01 
   2 -16   0    7.92    1.08 
   1 -16   0   98.34    3.01 
   1 -16   0   96.76    3.26 
   0 -16   0   54.06    2.17 
   0 -16   0   44.00    1.77 
  -1 -16   0  103.97    3.03 
  -1 -16   0  103.21    3.45 
  -2 -16   0    7.26    1.05 
  -2 -16   0    8.26    0.78 
  -3 -16   0    8.07    1.13 
  -3 -16   0    9.53    0.82 
  -4 -16   0    1.64    0.70 
   5  16   0   10.19    1.86 
  -5 -16   0    8.82    1.23 
  -6 -16   0    0.92    0.76 
   6  16   0    0.47    1.06 
  -7 -16   0    1.91    0.89 
   7  16   0    1.63    1.42 
  -8 -16   0   10.40    1.55 
   8  16   0    9.04    2.15 
  -9 -16   0    6.38    1.43 
   9  16   0    4.37    1.89 
 -10 -16   0    0.50    1.13 
  10  16   0    2.12    1.94 
 -11 -16   0    0.00    1.33 
  11  16   0    2.16    2.14 
  11 -17   0    0.87    1.69 
  10 -17   0    2.83    1.65 
   9 -17   0    4.25    1.50 
   8 -17   0   -0.25    0.91 
   7 -17   0   -0.45    0.77 
   6 -17   0    4.90    1.16 
   6 -17   0    3.96    1.05 
   5 -17   0   28.31    1.86 
   5 -17   0   29.48    1.89 
   4 -17   0   52.29    2.43 
   4 -17   0   51.40    2.33 
   3 -17   0    1.64    0.71 
   3 -17   0    0.35    0.66 
   2 -17   0   93.18    3.06 
   2 -17   0   92.46    3.29 
   1 -17   0   69.40    2.68 
   1 -17   0   70.20    2.43 
   0 -17   0    0.37    0.44 
   0 -17   0    1.33    0.66 
  -1 -17   0   70.99    2.35 
  -1 -17   0   72.44    2.80 
  -2 -17   0   96.35    3.29 
  -2 -17   0   87.85    2.73 
  -3 -17   0    0.73    0.65 
  -3 -17   0    1.45    0.50 
  -4 -17   0   51.00    2.38 
  -5 -17   0   28.25    1.85 
   6  17   0    4.50    1.49 
  -6 -17   0    4.40    1.05 
  -7 -17   0    2.24    0.92 
   7  17   0    0.32    1.25 
  -8 -17   0    1.05    0.93 
   8  17   0    2.59    1.62 
   9  17   0    3.27    1.89 
  -9 -17   0    8.02    1.59 
 -10 -17   0    3.04    1.40 
  10  17   0    4.90    2.19 
 -11 -17   0    0.72    1.39 
  11 -18   0    1.71    1.89 
  10 -18   0    3.00    1.67 
   9 -18   0    0.97    1.26 
   8 -18   0    2.32    1.20 
   7 -18   0   -0.89    0.82 
   6 -18   0    2.68    1.02 
   5 -18   0    0.48    0.74 
   5 -18   0   -0.01    0.77 
   4 -18   0   26.15    1.74 
   4 -18   0   26.97    1.95 
   3 -18   0  126.08    4.16 
   3 -18   0  123.82    3.94 
   2 -18   0    1.06    0.64 
   2 -18   0    0.89    0.73 
   1 -18   0   10.50    1.26 
   1 -18   0   13.70    1.09 
   0 -18   0   83.86    2.81 
   0 -18   0  100.86    3.35 
  -1 -18   0   12.60    0.98 
  -1 -18   0    9.76    1.19 
  -2 -18   0   -0.66    0.59 
  -2 -18   0    1.11    0.47 
  -3 -18   0  122.97    3.46 
  -3 -18   0  116.46    4.04 
  -4 -18   0   23.72    1.28 
  -4 -18   0   22.42    1.66 
  -5 -18   0   -0.59    0.63 
  -6 -18   0    2.23    0.92 
  -7 -18   0   -0.66    0.77 
  -8 -18   0    3.08    1.24 
   8  18   0    1.25    1.46 
  -9 -18   0   -1.17    0.98 
 -10 -18   0   -0.04    1.20 
 -11 -18   0    0.62    1.33 
  11 -19   0    0.97    1.80 
  10 -19   0    0.49    1.60 
   9 -19   0    1.05    1.35 
   8 -19   0    3.66    1.35 
   7 -19   0    0.04    0.85 
   6 -19   0    0.60    0.92 
   5 -19   0   21.97    1.85 
   5 -19   0   22.34    1.84 
   4 -19   0   45.91    2.38 
   4 -19   0   42.92    2.23 
   3 -19   0    4.92    1.05 
   3 -19   0    5.35    1.00 
   2 -19   0   64.15    2.47 
   2 -19   0   61.66    2.69 
   1 -19   0   14.95    1.43 
   1 -19   0   16.65    1.25 
   0 -19   0    0.49    0.45 
   0 -19   0    0.30    0.63 
  -1 -19   0   16.31    1.07 
  -1 -19   0   17.35    1.52 
  -2 -19   0   61.73    2.69 
  -2 -19   0   65.09    2.24 
  -3 -19   0    4.80    0.73 
  -3 -19   0    4.48    0.97 
  -4 -19   0   42.74    2.31 
  -4 -19   0   44.25    1.78 
  -5 -19   0   18.81    1.78 
  -6 -19   0    1.40    0.86 
  -7 -19   0   -0.15    0.83 
  -8 -19   0    2.00    1.14 
  -9 -19   0    0.06    1.00 
 -10 -19   0    0.44    1.29 
 -11 -19   0    0.03    1.37 
  11 -20   0    0.04    1.89 
  10 -20   0    0.63    1.59 
   9 -20   0   -0.33    1.23 
   8 -20   0    1.56    1.28 
   7 -20   0    1.14    0.98 
   6 -20   0    1.69    0.95 
   5 -20   0    0.27    0.87 
   5 -20   0    1.45    0.89 
   4 -20   0    0.85    0.80 
   4 -20   0    1.59    0.94 
   3 -20   0    5.66    1.21 
   3 -20   0    6.46    1.09 
   2 -20   0   29.09    1.87 
   2 -20   0   27.43    1.66 
   1 -20   0   83.74    2.84 
   1 -20   0   80.04    3.15 
   0 -20   0    7.45    1.19 
   0 -20   0    7.00    0.87 
  -1 -20   0   80.80    3.15 
  -1 -20   0   79.28    2.63 
  -2 -20   0   29.53    1.43 
  -2 -20   0   24.15    1.71 
  -3 -20   0    5.47    0.75 
  -3 -20   0    3.42    0.93 
  -4 -20   0    0.14    0.72 
  -5 -20   0    0.94    0.82 
  -6 -20   0    2.16    0.94 
  -7 -20   0    3.18    1.14 
  -8 -20   0    2.76    1.21 
  -9 -20   0    0.73    1.21 
 -10 -20   0    1.29    1.48 
 -11 -20   0   -0.51    1.38 
  10 -21   0    1.93    1.85 
   9 -21   0    1.02    1.40 
   8 -21   0    0.86    1.21 
   7 -21   0    3.70    1.24 
   6 -21   0   11.70    1.62 
   5 -21   0    4.40    1.14 
   5 -21   0    3.49    1.11 
   4 -21   0   11.37    1.44 
   4 -21   0   10.78    1.51 
   3 -21   0   15.13    1.68 
   3 -21   0   13.06    1.37 
   2 -21   0    1.60    0.89 
   2 -21   0    1.46    0.73 
   1 -21   0   21.76    1.38 
   1 -21   0   24.91    1.89 
   0 -21   0    0.92    0.82 
   0 -21   0    0.48    0.48 
  -1 -21   0   23.14    1.30 
  -1 -21   0   22.39    1.65 
  -2 -21   0    1.83    0.84 
  -2 -21   0    2.87    0.61 
  -3 -21   0   10.47    1.43 
  -3 -21   0   16.21    1.01 
  -4 -21   0    6.08    1.25 
  -5 -21   0    2.77    1.04 
  -6 -21   0   13.55    1.78 
  -7 -21   0    2.52    1.13 
  -8 -21   0   -0.37    0.94 
  -9 -21   0   -0.91    1.03 
 -10 -21   0    0.91    1.48 
  10 -22   0    1.71    1.61 
   9 -22   0    5.26    1.67 
   8 -22   0   -0.80    1.12 
   7 -22   0    0.49    1.13 
   6 -22   0    1.73    1.05 
   5 -22   0    1.53    0.98 
   5 -22   0    3.18    1.04 
   4 -22   0    1.30    0.86 
   4 -22   0   -1.47    0.73 
   3 -22   0   15.14    1.49 
   3 -22   0   14.65    1.72 
   2 -22   0   43.91    2.12 
   2 -22   0   41.73    2.38 
   1 -22   0    3.15    0.75 
   1 -22   0    1.74    0.92 
   0 -22   0   31.10    1.94 
   0 -22   0   24.11    1.39 
  -1 -22   0    1.06    0.72 
  -1 -22   0    2.13    0.69 
  -2 -22   0   38.60    2.25 
  -2 -22   0   45.19    1.80 
  -3 -22   0   12.72    1.58 
  -4 -22   0    0.93    0.83 
  -5 -22   0    2.48    1.07 
  -6 -22   0    0.75    0.93 
  -7 -22   0    1.93    1.07 
  -8 -22   0    0.68    1.04 
  -9 -22   0    3.28    1.51 
 -10 -22   0    0.07    1.42 
  10 -23   0    3.93    1.77 
   9 -23   0    2.34    1.47 
   8 -23   0    4.25    1.52 
   7 -23   0    1.29    1.20 
   6 -23   0    0.53    1.00 
   5 -23   0    2.56    1.00 
   5 -23   0    0.89    0.90 
   4 -23   0    3.66    1.10 
   4 -23   0    4.02    1.17 
   3 -23   0   12.69    1.73 
   3 -23   0   10.96    1.36 
   2 -23   0    7.81    1.19 
   2 -23   0    7.11    1.38 
   1 -23   0   41.42    1.97 
   1 -23   0   40.95    2.34 
   0 -23   0    2.32    0.92 
   0 -23   0    2.00    0.67 
  -1 -23   0   41.66    1.84 
  -1 -23   0   35.38    2.17 
  -2 -23   0    7.25    1.32 
  -2 -23   0    9.69    0.94 
  -3 -23   0    9.23    1.44 
  -4 -23   0    2.27    1.03 
  -5 -23   0    3.30    1.14 
  -6 -23   0    1.12    1.03 
  -7 -23   0    0.87    1.12 
  -8 -23   0    3.63    1.43 
  -9 -23   0    1.15    1.45 
 -10 -23   0    3.58    1.77 
  10 -24   0    2.68    1.79 
   9 -24   0    6.26    1.79 
   8 -24   0   -1.43    1.32 
   7 -24   0   -0.51    1.03 
   6 -24   0    2.85    1.17 
   5 -24   0    8.73    1.48 
   4 -24   0    4.17    1.09 
   4 -24   0    4.21    1.34 
   3 -24   0   14.50    1.91 
   3 -24   0   15.08    1.53 
   2 -24   0   10.93    1.61 
   2 -24   0   10.59    1.27 
   1 -24   0    3.93    1.16 
   1 -24   0    4.74    0.90 
   0 -24   0   49.67    2.60 
   0 -24   0   36.44    1.80 
  -1 -24   0    3.92    1.07 
  -1 -24   0    5.90    0.87 
  -2 -24   0    6.73    1.28 
  -2 -24   0   10.22    0.97 
  -3 -24   0   12.81    1.74 
  -4 -24   0    3.47    1.15 
  -5 -24   0    7.30    1.45 
  -6 -24   0    1.40    1.11 
  -7 -24   0    2.99    1.29 
  -8 -24   0    2.13    1.28 
  -9 -24   0    4.95    1.71 
 -10 -24   0    2.51    1.58 
   9 -25   0   -0.74    1.42 
   8 -25   0    2.46    1.55 
   7 -25   0    0.94    1.22 
   6 -25   0    8.05    1.59 
   5 -25   0    3.19    1.20 
   4 -25   0    5.25    1.46 
   4 -25   0    5.70    1.27 
   3 -25   0   13.29    1.58 
   3 -25   0    8.78    1.66 
   2 -25   0    5.60    1.10 
   2 -25   0    5.26    1.35 
   1 -25   0   10.25    1.25 
   1 -25   0    9.32    1.47 
   0 -25   0    2.19    1.03 
   0 -25   0    1.84    0.61 
  -1 -25   0   10.27    1.04 
  -1 -25   0    7.97    1.35 
  -2 -25   0    5.13    1.22 
  -3 -25   0    9.85    1.55 
  -4 -25   0    6.26    1.39 
  -5 -25   0    3.79    1.26 
  -6 -25   0   13.12    1.98 
  -7 -25   0    1.03    1.25 
  -8 -25   0    5.49    1.68 
  -9 -25   0    1.89    1.44 
   9 -26   0    2.63    1.76 
   8 -26   0    1.63    1.54 
   7 -26   0    6.31    1.61 
   6 -26   0   -0.31    1.05 
   5 -26   0   26.51    2.30 
   4 -26   0    0.19    0.88 
   4 -26   0   -0.11    1.19 
   3 -26   0   10.26    1.82 
   3 -26   0   11.38    1.57 
   2 -26   0   31.37    1.95 
   2 -26   0   35.68    2.44 
   1 -26   0   -0.27    0.68 
   1 -26   0    0.53    0.95 
   0 -26   0    3.51    0.78 
   0 -26   0    5.21    1.23 
  -1 -26   0    0.24    0.84 
  -1 -26   0    0.13    0.56 
  -2 -26   0   25.77    2.28 
  -3 -26   0    8.60    1.48 
  -4 -26   0    0.89    1.10 
  -5 -26   0   21.23    2.30 
  -6 -26   0    1.81    1.25 
  -7 -26   0    6.76    1.70 
  -8 -26   0    1.87    1.50 
  -9 -26   0    0.65    1.46 
   9 -27   0    2.61    1.67 
   8 -27   0    5.06    1.82 
   7 -27   0    0.76    1.37 
   6 -27   0    8.33    1.65 
   5 -27   0    5.62    1.44 
   4 -27   0   10.61    1.96 
   4 -27   0   12.20    1.60 
   3 -27   0   -0.20    0.84 
   3 -27   0   -0.32    1.01 
   2 -27   0    4.08    1.03 
   2 -27   0    2.47    1.27 
   1 -27   0   13.74    1.81 
   1 -27   0   14.71    1.51 
   0 -27   0    0.10    0.47 
   0 -27   0    0.04    0.86 
  -1 -27   0   12.76    1.80 
  -2 -27   0    4.30    1.25 
  -3 -27   0    0.23    0.92 
  -4 -27   0   11.40    1.81 
  -5 -27   0    6.08    1.57 
  -6 -27   0    9.45    1.85 
  -7 -27   0    2.00    1.35 
  -8 -27   0    4.60    1.80 
  -9 -27   0   -0.06    1.49 
   8 -28   0    0.28    1.52 
   7 -28   0   11.57    2.13 
   6 -28   0   -0.67    1.14 
   5 -28   0   14.09    1.88 
   4 -28   0    0.10    1.34 
   4 -28   0    1.69    0.99 
   3 -28   0    5.47    1.30 
   3 -28   0    4.18    1.44 
   2 -28   0    3.27    1.30 
   2 -28   0    2.86    1.00 
   1 -28   0   -0.01    0.97 
   1 -28   0    0.24    0.81 
   0 -28   0    5.93    1.47 
  -1 -28   0   -0.16    0.92 
  -2 -28   0    2.42    1.11 
  -3 -28   0    4.44    1.33 
  -4 -28   0    0.01    0.96 
  -5 -28   0   13.37    2.09 
  -6 -28   0    0.17    1.24 
  -7 -28   0    9.84    2.09 
  -8 -28   0    1.08    1.52 
   8 -29   0    5.40    2.01 
   7 -29   0    1.13    1.52 
   6 -29   0    8.71    1.80 
   5 -29   0    0.47    1.07 
   4 -29   0    9.75    1.60 
   3 -29   0    2.29    1.03 
   3 -29   0    1.52    1.29 
   2 -29   0    1.43    0.90 
   2 -29   0    2.16    1.17 
   1 -29   0    5.02    1.16 
   1 -29   0    4.75    1.32 
   0 -29   0    0.76    1.08 
  -1 -29   0    4.87    1.40 
  -2 -29   0   -0.73    0.86 
  -3 -29   0    0.23    0.97 
  -4 -29   0    7.48    1.67 
  -5 -29   0    1.02    1.25 
  -6 -29   0    6.11    1.82 
  -7 -29   0    1.03    1.44 
  -8 -29   0    2.70    1.77 
   8 -30   0    1.04    1.51 
   7 -30   0    9.78    2.13 
   6 -30   0    1.56    1.38 
   5 -30   0    5.17    1.43 
   4 -30   0    1.42    1.15 
   3 -30   0    2.19    1.12 
   3 -30   0    1.79    1.32 
   2 -30   0    2.90    1.09 
   2 -30   0    2.36    1.30 
   1 -30   0    1.25    1.13 
   1 -30   0    0.92    0.98 
   0 -30   0   14.52    2.11 
  -1 -30   0    0.84    1.02 
  -2 -30   0    0.91    1.14 
  -3 -30   0    0.68    1.14 
  -4 -30   0    0.41    1.14 
  -5 -30   0    3.05    1.47 
  -6 -30   0   -0.29    1.23 
  -7 -30   0    9.98    2.20 
  -8 -30   0   -0.59    1.62 
   7 -31   0    1.63    1.67 
   6 -31   0    6.58    1.78 
   5 -31   0    0.31    1.22 
   4 -31   0    1.62    1.20 
   3 -31   0    2.51    1.19 
   3 -31   0    3.69    1.69 
   2 -31   0    0.27    1.04 
   2 -31   0    1.11    1.26 
   1 -31   0    1.32    1.31 
   0 -31   0    1.06    1.17 
  -1 -31   0    1.88    1.36 
  -2 -31   0    0.79    1.19 
  -3 -31   0    2.92    1.41 
  -4 -31   0   -0.04    1.23 
  -5 -31   0   -0.73    1.28 
  -6 -31   0    5.74    1.85 
  -7 -31   0    0.38    1.49 
   7 -32   0    9.61    2.14 
   6 -32   0    2.20    1.60 
   5 -32   0    4.47    1.55 
   4 -32   0   -0.54    1.08 
   3 -32   0    5.44    1.39 
   3 -32   0    5.61    1.93 
   2 -32   0    0.69    1.25 
   2 -32   0   -1.16    1.03 
   1 -32   0    1.91    1.31 
   0 -32   0    6.84    1.73 
  -1 -32   0    0.34    1.20 
  -2 -32   0    0.57    1.26 
  -3 -32   0    4.58    1.54 
  -4 -32   0   -0.68    1.18 
  -5 -32   0    2.44    1.50 
  -6 -32   0    1.51    1.62 
  -7 -32   0    5.90    1.89 
   6 -33   0    4.79    1.89 
   5 -33   0   -0.29    1.32 
   4 -33   0   10.42    1.85 
   3 -33   0    0.59    1.13 
   2 -33   0   -0.78    1.44 
   1 -33   0    3.72    1.60 
   0 -33   0    0.42    1.55 
  -1 -33   0    3.13    1.46 
  -2 -33   0   -1.22    1.18 
  -3 -33   0    4.03    1.70 
  -4 -33   0    9.81    2.08 
  -5 -33   0   -0.92    1.32 
  -6 -33   0    3.13    1.74 
   6 -34   0   -0.28    1.60 
   5 -34   0    7.88    1.93 
   4 -34   0   -1.03    1.33 
   3 -34   0    2.64    1.45 
   2 -34   0    5.49    2.00 
   1 -34   0   -0.34    1.46 
   0 -34   0    0.85    1.39 
  -1 -34   0    1.61    1.48 
  -2 -34   0    0.99    1.49 
  -3 -34   0    1.00    1.50 
  -4 -34   0    1.25    1.46 
  -5 -34   0    8.54    2.10 
  -6 -34   0   -0.67    1.36 
   5 -35   0   -0.55    1.48 
   4 -35   0    3.79    1.69 
   2 -35   0    1.69    1.79 
   1 -35   0    0.36    1.73 
   0 -35   0   -0.42    1.34 
  -1 -35   0    0.57    1.48 
  -2 -35   0    2.43    1.60 
  -3 -35   0    2.44    1.62 
  -4 -35   0    5.17    1.91 
  -5 -35   0    0.08    1.48 
   5 -36   0   -0.73    1.62 
   2 -36   0    0.81    1.81 
   1 -36   0    0.71    1.75 
   0 -36   0    1.26    1.68 
  -1 -36   0    2.26    1.70 
  -2 -36   0   -0.16    1.51 
  -3 -36   0   -0.33    1.45 
  -4 -36   0   -1.33    1.41 
  -5 -36   0    1.83    1.70 
   1 -37   0    0.70    1.78 
   0 -37   0    0.35    1.56 
  -1 -37   0   -3.03    1.35 
  -2 -37   0    1.93    1.76 
  -3 -37   0    0.07    1.58 
  -4 -37   0   -1.01    1.52 
   1 -38   0    0.02    1.67 
   0 -38   0    1.75    1.84 
  -1 -38   0   -0.45    1.58 
  -2 -38   0    1.53    1.70 
  -3 -38   0    1.66    1.71 
   0 -39   0    0.37    1.77 
  -2 -38   1    2.73    1.78 
  -1 -38   1    2.33    2.02 
   0 -38   1    5.20    2.09 
   1 -38   1    1.57    1.84 
   2 -38   1    4.87    2.24 
  -4 -37   1    1.73    1.69 
  -3 -37   1    4.14    1.84 
  -2 -37   1    1.13    1.68 
  -1 -37   1    2.72    1.83 
   0 -37   1    0.12    1.71 
   1 -37   1    7.37    2.12 
   2 -37   1    3.06    2.19 
  -5 -36   1    1.43    1.80 
  -4 -36   1    1.42    1.51 
  -3 -36   1    1.87    1.64 
  -2 -36   1    6.08    1.92 
  -1 -36   1    3.97    1.84 
   0 -36   1    8.17    2.31 
   1 -36   1    3.86    2.03 
   2 -36   1    4.37    2.19 
  -5 -35   1    0.68    1.61 
  -4 -35   1    1.52    1.64 
  -3 -35   1    7.10    2.05 
  -2 -35   1    3.27    1.70 
  -1 -35   1   15.02    2.49 
   0 -35   1    0.69    1.72 
   1 -35   1    3.28    1.78 
   2 -35   1   11.53    2.62 
   5 -35   1   -0.05    1.60 
  -6 -34   1    0.87    1.51 
  -5 -34   1   -0.13    1.59 
  -4 -34   1    0.48    1.57 
  -3 -34   1    0.36    1.37 
  -2 -34   1    4.94    1.74 
  -1 -34   1    1.24    1.43 
   0 -34   1   17.75    2.61 
   1 -34   1   -0.11    1.47 
   2 -34   1   -0.83    1.65 
   3 -34   1    1.57    1.90 
   4 -34   1    4.49    1.70 
   5 -34   1    3.65    1.66 
   6 -34   1    1.96    1.66 
  -6 -33   1    2.02    1.65 
  -5 -33   1    1.63    1.55 
  -4 -33   1    1.60    1.47 
  -3 -33   1    4.01    1.69 
  -2 -33   1    5.02    1.66 
  -1 -33   1    9.76    2.02 
   0 -33   1   -0.82    1.28 
   1 -33   1    2.15    1.52 
   2 -33   1    3.47    1.85 
   3 -33   1   -0.57    1.61 
   4 -33   1    0.00    1.24 
   5 -33   1   -0.01    1.38 
   6 -33   1    3.20    1.67 
  -7 -32   1    0.78    1.39 
  -6 -32   1   -1.44    1.29 
  -5 -32   1    0.82    1.50 
  -4 -32   1    1.51    1.40 
  -3 -32   1    2.41    1.47 
  -2 -32   1    6.20    1.77 
  -1 -32   1    0.27    1.18 
   0 -32   1    1.11    1.35 
   1 -32   1    0.85    1.39 
   2 -32   1    8.48    2.05 
   3 -32   1    1.21    1.58 
   3 -32   1    1.07    1.16 
   4 -32   1   -0.64    1.05 
   5 -32   1   -0.72    1.33 
   6 -32   1    3.38    1.73 
   7 -32   1    0.73    1.58 
  -7 -31   1    0.83    1.52 
  -6 -31   1    2.00    1.40 
  -5 -31   1   -1.05    1.09 
  -4 -31   1    1.66    1.40 
  -3 -31   1    1.46    1.20 
  -2 -31   1    1.62    1.31 
  -1 -31   1   -0.05    1.13 
   0 -31   1    0.91    1.21 
   1 -31   1   21.15    2.55 
   2 -31   1    3.82    1.20 
   2 -31   1    2.69    1.74 
   3 -31   1    0.07    0.95 
   3 -31   1    1.01    1.44 
   4 -31   1    1.92    1.16 
   5 -31   1    1.52    1.34 
   6 -31   1    1.37    1.48 
   7 -31   1    3.89    1.82 
  -8 -30   1   -1.05    1.29 
  -7 -30   1    1.36    1.54 
  -6 -30   1    1.28    1.41 
  -5 -30   1    0.96    1.34 
  -4 -30   1    0.23    1.14 
  -3 -30   1   -0.26    0.92 
  -2 -30   1    2.75    1.38 
  -1 -30   1    1.94    1.27 
   0 -30   1   10.14    1.79 
   1 -30   1    5.15    1.44 
   2 -30   1    5.25    1.70 
   2 -30   1    2.56    1.05 
   3 -30   1   18.91    2.50 
   3 -30   1   17.67    1.87 
   4 -30   1    0.09    0.99 
   4 -30   1   -0.61    1.47 
   5 -30   1    2.59    1.30 
   6 -30   1    7.06    1.91 
   7 -30   1    5.22    1.81 
   8 -30   1    1.46    1.63 
  -8 -29   1    1.43    1.60 
  -7 -29   1    3.13    1.53 
  -6 -29   1    1.70    1.42 
  -5 -29   1    0.15    1.20 
  -4 -29   1    1.43    1.20 
  -3 -29   1    0.11    1.04 
  -2 -29   1    2.76    1.25 
  -1 -29   1   18.09    2.26 
   0 -29   1    0.82    1.14 
   1 -29   1    2.37    1.30 
   1 -29   1    2.95    1.00 
   2 -29   1   -0.25    1.15 
   2 -29   1    2.00    0.89 
   3 -29   1    0.71    1.29 
   3 -29   1    2.20    1.04 
   4 -29   1    2.70    1.08 
   4 -29   1    2.14    1.58 
   5 -29   1    0.14    1.08 
   6 -29   1   -0.38    1.23 
   7 -29   1    1.53    1.54 
   8 -29   1   -0.40    1.53 
  -9 -28   1    0.51    1.43 
  -8 -28   1    1.61    1.67 
  -7 -28   1    1.54    1.46 
  -6 -28   1   -0.59    1.13 
  -5 -28   1    3.37    1.37 
  -4 -28   1   -0.49    0.87 
  -3 -28   1    1.95    1.12 
  -2 -28   1    4.97    1.39 
  -1 -28   1    7.64    1.57 
   0 -28   1    9.49    1.66 
   1 -28   1   27.39    2.62 
   1 -28   1   29.54    1.84 
   2 -28   1    1.63    0.83 
   2 -28   1    0.78    1.20 
   3 -28   1    1.12    0.87 
   3 -28   1    0.92    1.12 
   4 -28   1    0.26    1.29 
   4 -28   1    0.09    0.91 
   5 -28   1    1.79    1.17 
   6 -28   1   -1.15    1.15 
   7 -28   1    0.65    1.42 
   8 -28   1   -0.05    1.50 
  -9 -27   1    0.10    1.48 
  -8 -27   1   -0.53    1.29 
  -7 -27   1    6.86    1.84 
  -6 -27   1    7.46    1.68 
  -5 -27   1   -0.46    0.96 
  -4 -27   1    8.68    1.66 
  -3 -27   1    7.33    1.51 
  -2 -27   1    0.37    0.90 
  -1 -27   1    4.40    1.20 
   0 -27   1   16.79    1.23 
   0 -27   1   14.53    1.90 
   1 -27   1    1.13    0.75 
   1 -27   1    0.73    1.09 
   2 -27   1    5.26    1.06 
   2 -27   1    4.82    1.35 
   3 -27   1    7.90    1.61 
   3 -27   1    9.08    1.34 
   4 -27   1    1.29    1.16 
   4 -27   1    0.79    0.90 
   5 -27   1    3.52    1.24 
   6 -27   1    4.89    1.49 
   7 -27   1    0.70    1.30 
   8 -27   1    0.22    1.58 
   9 -27   1    1.14    1.59 
  -9 -26   1    2.87    1.65 
  -8 -26   1    3.79    1.64 
  -7 -26   1    0.03    1.06 
  -6 -26   1    2.53    1.24 
  -5 -26   1    0.57    0.97 
  -4 -26   1    1.92    1.08 
  -3 -26   1    8.59    1.58 
  -2 -26   1    2.84    1.12 
  -1 -26   1   21.13    2.14 
   0 -26   1    8.39    1.02 
   0 -26   1    6.50    1.40 
   1 -26   1    5.92    1.03 
   1 -26   1    7.84    1.57 
   2 -26   1   14.97    1.96 
   2 -26   1   15.48    1.48 
   3 -26   1    2.76    0.98 
   3 -26   1    2.64    1.27 
   4 -26   1    4.55    1.19 
   4 -26   1    2.76    1.30 
   5 -26   1   -1.10    1.22 
   5 -26   1   -0.65    0.92 
   6 -26   1    6.69    1.60 
   7 -26   1    0.74    1.37 
   8 -26   1    3.00    1.73 
   9 -26   1    1.09    1.60 
 -10 -25   1   -1.59    1.46 
  -9 -25   1    1.13    1.49 
  -8 -25   1    1.99    1.48 
  -7 -25   1    5.41    1.53 
  -6 -25   1    3.91    1.27 
  -5 -25   1    0.78    0.99 
  -4 -25   1   13.75    1.84 
  -3 -25   1    3.45    1.11 
  -2 -25   1    5.78    1.35 
  -1 -25   1    3.80    1.17 
   0 -25   1    2.60    0.67 
   0 -25   1    1.09    0.92 
   1 -25   1   48.23    2.82 
   1 -25   1   50.06    2.25 
   2 -25   1    0.15    0.89 
   2 -25   1    1.31    0.74 
   3 -25   1   -0.03    0.98 
   3 -25   1    2.76    0.96 
   4 -25   1    3.74    1.13 
   4 -25   1    3.51    1.37 
   5 -25   1   -0.34    1.20 
   5 -25   1   -0.05    0.93 
   6 -25   1    1.12    1.09 
   7 -25   1    2.61    1.43 
   8 -25   1    3.88    1.71 
   9 -25   1    1.96    1.76 
 -10 -24   1    1.82    1.56 
  -9 -24   1    0.42    1.33 
  -8 -24   1    1.56    1.23 
  -7 -24   1    0.58    1.06 
  -6 -24   1   -0.23    0.92 
  -5 -24   1   14.86    1.90 
  -4 -24   1    0.37    0.84 
  -3 -24   1    1.03    0.88 
  -2 -24   1    1.88    0.98 
  -1 -24   1    0.73    0.84 
  -1 -24   1    2.45    0.60 
   0 -24   1   60.06    2.30 
   0 -24   1   56.00    2.92 
   1 -24   1   -0.03    0.61 
   1 -24   1   -0.26    0.83 
   2 -24   1    1.57    1.02 
   2 -24   1    0.84    0.72 
   3 -24   1   22.88    1.79 
   3 -24   1   19.25    2.11 
   4 -24   1   16.29    1.69 
   4 -24   1   13.85    1.94 
   5 -24   1    2.62    1.07 
   5 -24   1    3.20    1.38 
   6 -24   1    1.19    1.06 
   7 -24   1    0.00    1.10 
   8 -24   1   -1.09    1.22 
   9 -24   1    2.87    1.79 
 -10 -23   1    1.80    1.49 
  -8 -23   1    0.99    1.10 
  -7 -23   1    1.99    1.15 
  -6 -23   1   16.74    2.03 
  -5 -23   1    1.08    0.90 
  -4 -23   1    0.17    0.79 
  -3 -23   1    0.99    0.88 
  -2 -23   1    3.58    1.10 
  -1 -23   1   90.62    2.78 
  -1 -23   1   82.63    3.58 
   0 -23   1    2.25    0.68 
   0 -23   1    1.36    0.95 
   1 -23   1    0.50    0.62 
   1 -23   1    0.97    0.90 
   2 -23   1    0.33    0.84 
   2 -23   1    0.97    0.70 
   3 -23   1   14.38    1.48 
   3 -23   1   18.14    2.02 
   4 -23   1   12.26    1.80 
   4 -23   1    8.95    1.31 
   5 -23   1    9.90    1.74 
   5 -23   1    6.10    1.26 
   6 -23   1    4.99    1.35 
   7 -23   1    1.53    1.17 
   8 -23   1    3.97    1.63 
   9 -23   1    0.50    1.58 
  10 -23   1   -0.36    1.68 
 -10 -22   1    3.99    1.67 
  -9 -22   1    1.23    1.25 
  -8 -22   1    5.38    1.47 
  -7 -22   1   10.56    1.69 
  -6 -22   1    6.84    1.37 
  -5 -22   1   -0.04    0.82 
  -4 -22   1    1.47    0.91 
  -3 -22   1   24.75    2.05 
  -2 -22   1   93.20    3.72 
  -2 -22   1   95.04    2.76 
  -1 -22   1    2.96    0.96 
  -1 -22   1    3.44    0.68 
   0 -22   1   33.11    2.10 
   0 -22   1   30.27    1.52 
   1 -22   1   13.30    1.21 
   1 -22   1   13.94    1.67 
   2 -22   1   21.69    1.48 
   2 -22   1   21.71    2.02 
   3 -22   1   34.42    2.26 
   3 -22   1   32.82    1.89 
   4 -22   1   21.01    1.75 
   4 -22   1   16.12    1.89 
   5 -22   1    9.52    1.47 
   5 -22   1    6.19    1.43 
   6 -22   1    9.34    1.59 
   7 -22   1    6.47    1.52 
   8 -22   1   -1.19    1.14 
   9 -22   1    1.10    1.46 
  10 -22   1    0.63    1.64 
 -10 -21   1    0.73    1.36 
  -9 -21   1    4.65    1.47 
   9  21  -1    4.20    2.11 
  -8 -21   1    5.19    1.40 
   8  21  -1    6.03    2.20 
  -7 -21   1    3.96    1.18 
   7  21  -1    3.99    1.76 
  -6 -21   1    1.52    0.93 
  -5 -21   1   11.00    1.59 
  -4 -21   1   64.90    3.07 
  -3 -21   1   11.86    1.50 
  -2 -21   1   24.44    1.13 
  -2 -21   1   26.00    1.83 
  -1 -21   1   21.69    1.87 
  -1 -21   1   24.17    1.22 
   0 -21   1    3.74    0.73 
   0 -21   1    3.90    1.01 
   1 -21   1   43.22    1.88 
   1 -21   1   40.45    2.33 
   2 -21   1   15.81    1.34 
   2 -21   1   16.27    1.75 
   3 -21   1    1.33    0.93 
   3 -21   1    0.38    0.66 
   4 -21   1    0.80    0.76 
   4 -21   1    1.08    0.99 
   5 -21   1    1.94    0.92 
   5 -21   1   -0.64    0.78 
   6 -21   1    3.26    1.12 
   6 -21   1    3.67    1.15 
   7 -21   1   -0.22    0.99 
   8 -21   1    4.23    1.53 
   9 -21   1    2.57    1.64 
  10 -21   1    0.38    1.53 
 -11 -20   1    0.45    1.47 
  10  20  -1   -0.21    1.88 
 -10 -20   1   -0.75    1.26 
   9  20  -1    1.39    1.96 
  -9 -20   1    0.71    1.13 
  -8 -20   1    0.52    1.02 
   8  20  -1    2.10    1.84 
   7  20  -1    0.17    1.33 
  -7 -20   1    0.92    0.97 
  -6 -20   1    7.34    1.37 
   6  20  -1    8.17    1.83 
  -5 -20   1   33.27    2.16 
  -4 -20   1   74.76    3.25 
  -3 -20   1  102.62    3.82 
  -2 -20   1  120.21    3.25 
  -2 -20   1  119.37    4.19 
  -1 -20   1    6.43    0.72 
  -1 -20   1    7.00    1.24 
   0 -20   1    6.56    0.80 
   0 -20   1    7.46    1.25 
   1 -20   1   10.74    1.42 
   1 -20   1    8.63    0.94 
   2 -20   1   66.98    2.55 
   2 -20   1   65.98    2.97 
   3 -20   1    0.32    0.64 
   3 -20   1    0.35    0.82 
   4 -20   1   43.55    2.23 
   4 -20   1   43.04    2.49 
   5 -20   1    0.56    0.72 
   5 -20   1    1.97    0.98 
   6 -20   1   -0.28    0.85 
   6 -20   1    1.34    1.00 
   7 -20   1    6.74    1.45 
   8 -20   1   -0.82    1.05 
   9 -20   1    2.29    1.44 
  10 -20   1    2.46    1.72 
  11  19  -1   -3.31    1.90 
 -11 -19   1   -0.21    1.40 
  10  19  -1   -0.74    1.84 
 -10 -19   1   -1.64    1.10 
  -9 -19   1   -0.03    1.01 
   9  19  -1    0.17    1.66 
   8  19  -1    1.14    1.44 
  -8 -19   1    3.29    1.18 
  -7 -19   1    5.41    1.31 
   7  19  -1    1.47    1.45 
   6  19  -1   13.87    2.39 
  -6 -19   1   17.60    1.82 
  -5 -19   1   10.11    1.40 
   5  19  -1   10.17    2.02 
  -4 -19   1  153.55    5.03 
  -3 -19   1   33.84    1.24 
  -3 -19   1   31.12    1.95 
  -2 -19   1    1.07    0.41 
  -2 -19   1    1.14    0.75 
  -1 -19   1    5.50    1.09 
  -1 -19   1    6.78    0.71 
   0 -19   1    2.31    0.86 
   0 -19   1    1.58    0.55 
   1 -19   1   17.78    1.23 
   1 -19   1   21.06    1.74 
   2 -19   1    4.15    1.03 
   2 -19   1    4.57    0.84 
   3 -19   1    9.18    1.41 
   3 -19   1    9.53    1.16 
   4 -19   1   22.24    1.94 
   4 -19   1   18.69    1.59 
   5 -19   1    8.83    1.30 
   5 -19   1    9.22    1.52 
   6 -19   1    1.02    0.94 
   6 -19   1    1.92    0.94 
   7 -19   1   -0.36    0.92 
   8 -19   1   10.10    1.79 
   9 -19   1    2.50    1.57 
  10 -19   1    3.19    1.90 
  11 -19   1    0.08    1.82 
 -11 -18   1    2.69    1.54 
  11  18  -1    0.67    2.39 
 -10 -18   1   -0.08    1.21 
  10  18  -1    2.55    2.00 
   9  18  -1    0.46    1.50 
  -9 -18   1    0.23    1.00 
  -8 -18   1    1.67    1.01 
   8  18  -1    2.72    1.58 
  -7 -18   1    0.11    0.85 
   7  18  -1    0.00    1.20 
   6  18  -1   24.63    2.95 
  -6 -18   1   28.52    2.05 
   5  18  -1  100.44    4.96 
  -5 -18   1   97.17    3.72 
  -4 -18   1   16.11    1.57 
   4  18  -1   15.37    2.18 
  -3 -18   1    1.80    0.75 
  -3 -18   1    1.75    0.37 
  -2 -18   1   28.44    1.13 
  -2 -18   1   26.34    1.71 
  -1 -18   1   10.65    1.32 
  -1 -18   1   12.12    0.82 
   0 -18   1   25.28    1.66 
   0 -18   1   26.06    1.28 
   1 -18   1    2.70    0.64 
   1 -18   1    2.37    0.81 
   2 -18   1   23.30    1.40 
   2 -18   1   22.84    1.66 
   3 -18   1   10.72    1.17 
   3 -18   1    9.30    1.38 
   4 -18   1   28.49    1.98 
   4 -18   1   29.84    1.78 
   5 -18   1   -0.93    0.75 
   5 -18   1   -0.32    0.66 
   6 -18   1    6.33    1.34 
   6 -18   1    5.26    1.17 
   7 -18   1    3.02    1.19 
   8 -18   1    1.58    1.15 
   9 -18   1    8.14    1.76 
  10 -18   1    2.16    1.82 
  11 -18   1    1.38    1.94 
  11  17  -1    0.15    2.07 
 -11 -17   1   -0.52    1.35 
 -10 -17   1    1.27    1.19 
  10  17  -1    0.64    1.83 
  -9 -17   1    0.57    1.00 
   9  17  -1   -0.64    1.43 
   8  17  -1   -0.23    1.38 
  -8 -17   1    0.78    0.93 
   7  17  -1   25.47    3.20 
  -7 -17   1   28.65    2.04 
   6  17  -1   82.78    4.55 
  -6 -17   1   82.75    3.42 
   5  17  -1    1.41    1.09 
  -5 -17   1    1.12    0.79 
  -4 -17   1   16.62    0.80 
   4  17  -1   15.19    2.12 
  -4 -17   1   14.84    1.48 
  -3 -17   1    0.43    0.28 
  -3 -17   1   -0.54    0.58 
  -2 -17   1   23.50    0.99 
  -2 -17   1   23.08    1.56 
  -1 -17   1  112.36    3.81 
  -1 -17   1  115.30    3.10 
   0 -17   1   11.88    0.89 
   0 -17   1   11.93    1.32 
   1 -17   1    0.92    0.64 
   1 -17   1    1.36    0.52 
   2 -17   1    1.91    0.83 
   2 -17   1    2.79    0.68 
   3 -17   1   28.30    1.88 
   3 -17   1   29.95    1.65 
   4 -17   1   40.82    2.24 
   4 -17   1   41.23    2.07 
   5 -17   1   27.84    1.83 
   5 -17   1   26.91    1.95 
   6 -17   1    9.01    1.40 
   6 -17   1   10.74    1.58 
   7 -17   1    2.63    1.04 
   8 -17   1    5.24    1.38 
   9 -17   1   -1.16    1.18 
  10 -17   1    1.92    1.69 
  11 -17   1    2.07    1.85 
 -11 -16   1    0.38    1.31 
  11  16  -1   -0.50    1.89 
 -10 -16   1    3.82    1.32 
  10  16  -1    1.75    1.96 
  -9 -16   1    0.40    1.02 
   9  16  -1   -0.59    1.43 
   8  16  -1    5.79    1.82 
  -8 -16   1    8.04    1.42 
   7  16  -1   12.60    2.38 
  -7 -16   1   13.00    1.59 
   6  16  -1    1.98    1.24 
  -6 -16   1    0.99    0.76 
  -5 -16   1    8.01    1.25 
   5  16  -1    6.99    1.57 
   4  16  -1    2.98    1.19 
  -4 -16   1    3.57    0.46 
  -4 -16   1    3.30    0.87 
  -3 -16   1   48.73    2.20 
   3  16  -1   41.84    2.79 
  -3 -16   1   46.01    1.46 
  -2 -16   1   58.19    1.76 
  -2 -16   1   59.77    2.48 
  -1 -16   1    5.91    0.99 
  -1 -16   1    8.98    0.66 
   0 -16   1   65.54    2.61 
   0 -16   1   65.24    2.10 
   1 -16   1   12.84    0.98 
   1 -16   1   14.63    1.37 
   2 -16   1   33.46    1.91 
   2 -16   1   31.36    1.56 
   3 -16   1   47.52    2.34 
   3 -16   1   47.64    2.08 
   4 -16   1   10.43    1.24 
   4 -16   1   12.73    1.46 
   5 -16   1   10.85    1.37 
   5 -16   1   12.19    1.52 
   6 -16   1    0.38    0.83 
   6 -16   1   -0.09    0.72 
   7 -16   1   14.22    1.78 
   8 -16   1    0.34    1.02 
   9 -16   1    4.86    1.61 
  10 -16   1    3.18    1.75 
  11 -16   1    2.22    1.83 
  12  15  -1    4.03    2.52 
  11  15  -1    0.42    2.12 
 -11 -15   1    1.98    1.41 
 -10 -15   1    1.15    1.14 
  10  15  -1    1.19    1.82 
  -9 -15   1    0.47    0.92 
   9  15  -1    2.88    1.69 
   8  15  -1   19.32    2.79 
  -8 -15   1   21.85    1.98 
   7  15  -1    7.71    1.84 
  -7 -15   1    7.09    1.23 
   6  15  -1   -0.32    1.02 
  -6 -15   1    1.69    0.81 
  -5 -15   1    3.53    0.89 
   5  15  -1    3.86    1.29 
   4  15  -1    7.21    1.60 
  -4 -15   1    7.23    1.09 
  -4 -15   1    7.12    0.60 
   3  15  -1   15.72    1.92 
  -3 -15   1   13.52    0.70 
  -3 -15   1   17.98    1.46 
  -2 -15   1  106.70    3.55 
  -2 -15   1  106.73    2.77 
  -1 -15   1   40.12    1.92 
  -1 -15   1   41.79    1.40 
   0 -15   1   12.97    0.88 
   0 -15   1   12.82    1.25 
   1 -15   1   52.19    1.88 
   1 -15   1   51.41    2.25 
   2 -15   1  112.93    3.79 
   2 -15   1  112.15    3.37 
   3 -15   1   64.97    2.46 
   3 -15   1   62.54    2.69 
   4 -15   1    1.24    0.64 
   4 -15   1    0.76    0.77 
   5 -15   1   15.14    1.60 
   5 -15   1   14.29    1.45 
   6 -15   1    3.43    1.03 
   6 -15   1    2.68    1.04 
  -7  15  -1    2.01    0.87 
   7 -15   1    1.00    0.91 
   8 -15   1   14.02    1.90 
   9 -15   1   -1.42    1.11 
  10 -15   1    7.81    2.02 
  11 -15   1   -1.99    1.58 
  12  14  -1    1.19    2.32 
 -11 -14   1    2.20    1.35 
  11  14  -1    2.38    2.27 
  10  14  -1    0.64    1.55 
 -10 -14   1   -0.18    0.95 
   9  14  -1   14.92    2.65 
  -9 -14   1   15.76    1.81 
  -8 -14   1    1.90    0.92 
   8  14  -1    0.09    1.26 
   7  14  -1    1.85    1.30 
  -7 -14   1    1.48    0.85 
   6  14  -1    0.18    0.97 
  -6 -14   1   -0.55    0.59 
  -5 -14   1   20.23    1.60 
   5  14  -1   17.80    2.26 
  -4 -14   1   37.11    1.91 
   4  14  -1   36.90    2.60 
  -3 -14   1   91.51    3.18 
   3  14  -1   95.05    4.10 
  -3 -14   1   89.94    2.41 
   2  14  -1   16.81    1.78 
  -2 -14   1   17.93    0.78 
  -2 -14   1   18.77    1.45 
  -1 -14   1   11.61    0.66 
  -1 -14   1   11.89    1.15 
   0 -14   1  356.72    8.63 
   0 -14   1  390.79    9.36 
   1 -14   1   78.75    2.43 
   1 -14   1   77.07    2.84 
   2 -14   1   47.91    1.88 
   2 -14   1   47.08    2.17 
   3 -14   1   86.19    3.17 
   3 -14   1   82.74    2.86 
   4 -14   1    2.96    0.81 
   4 -14   1    2.59    0.86 
   5 -14   1    2.06    0.78 
   5 -14   1    4.66    1.12 
   6 -14   1    0.02    0.67 
   6 -14   1    0.89    0.88 
   7 -14   1    8.91    1.46 
  -7  14  -1   10.12    1.40 
   8 -14   1    1.81    1.09 
   9 -14   1   16.04    2.21 
  10 -14   1    0.96    1.52 
  11 -14   1   -1.98    1.60 
  12  13  -1    1.14    2.16 
  11  13  -1    0.59    1.83 
  10  13  -1    0.14    1.45 
 -10 -13   1    2.62    1.14 
   9  13  -1    7.05    1.93 
  -9 -13   1    6.19    1.31 
   8  13  -1    1.46    1.31 
  -8 -13   1    0.60    0.82 
  -7 -13   1   42.80    2.28 
   7  13  -1   41.38    3.15 
   6  13  -1   15.11    2.21 
  -6 -13   1   13.55    1.43 
   5  13  -1    3.38    1.23 
  -5 -13   1    2.02    0.74 
  -4 -13   1   12.26    1.23 
   4  13  -1   10.58    1.71 
   3  13  -1  110.20    4.48 
  -3 -13   1  108.75    3.51 
  -3 -13   1  109.83    2.80 
  -2 -13   1  122.73    3.84 
   2  13  -1  125.95    4.67 
  -2 -13   1  127.51    3.12 
  -1 -13   1   27.82    1.01 
  -1 -13   1   27.78    1.49 
   0 -13   1   30.97    1.59 
   0 -13   1   31.89    1.23 
   1 -13   1  112.03    3.54 
   1 -13   1  109.22    3.10 
   2 -13   1  168.03    4.53 
   2 -13   1  170.82    4.94 
   3 -13   1  127.72    4.11 
   3 -13   1  127.41    3.81 
   4 -13   1    0.84    0.66 
   4 -13   1    1.60    0.66 
   5 -13   1    3.68    0.97 
   5 -13   1    3.42    0.88 
   6 -13   1    6.12    1.18 
   6 -13   1   10.65    1.41 
   6 -13   1    5.65    1.06 
  -7  13  -1    3.51    0.99 
   7 -13   1    1.37    0.90 
   8 -13   1   16.62    2.04 
   9 -13   1    3.38    1.42 
  10 -13   1    3.95    1.72 
  11 -13   1    0.64    1.78 
  12  12  -1    2.60    2.32 
  11  12  -1    1.54    2.02 
  10  12  -1    1.32    1.60 
 -10 -12   1    2.40    1.04 
  -9 -12   1    0.89    0.85 
   9  12  -1    0.54    1.36 
   8  12  -1    0.39    1.16 
  -8 -12   1   -0.14    0.68 
  -7 -12   1   37.49    2.08 
   7  12  -1   35.90    2.90 
   6  12  -1   10.50    1.91 
  -6 -12   1   12.93    1.36 
   5  12  -1   50.03    3.10 
  -5 -12   1   45.86    2.12 
  -4 -12   1    1.05    0.56 
   4  12  -1   -0.05    0.79 
   3  12  -1  113.57    4.50 
  -3 -12   1  111.17    2.88 
  -3 -12   1  119.13    3.60 
  -2 -12   1   95.03    2.40 
  -2 -12   1   95.36    3.08 
   2  12  -1   92.73    3.74 
  -1 -12   1    1.34    0.28 
  -1 -12   1    1.58    0.56 
   0 -12   1  155.97    4.34 
   0 -12   1  149.50    3.80 
   1 -12   1   12.27    0.84 
   1 -12   1   12.17    1.12 
   2 -12   1  255.21    6.26 
   2 -12   1  244.15    6.61 
   3 -12   1  228.72    5.96 
   3 -12   1  227.32    6.26 
   4 -12   1   22.73    1.47 
   4 -12   1   23.98    1.60 
   5 -12   1    4.41    0.92 
   5 -12   1    5.61    1.09 
   6 -12   1    2.49    1.02 
   6 -12   1    2.25    0.84 
   6 -12   1    4.75    1.10 
   7 -12   1    8.77    1.36 
  -7  12  -1    8.12    1.21 
   8 -12   1   -0.12    0.89 
   9 -12   1   16.37    2.20 
  10 -12   1    1.28    1.52 
  11 -12   1    0.29    1.61 
  12 -12   1    0.08    1.96 
  12  11  -1    2.43    2.12 
  11  11  -1    0.89    1.73 
  10  11  -1    5.06    1.93 
 -10 -11   1    3.95    1.19 
  -9 -11   1   -0.59    0.74 
   9  11  -1    0.80    1.41 
  -8 -11   1    1.12    0.80 
   8  11  -1   -1.42    1.08 
   7  11  -1    2.92    1.34 
  -7 -11   1    1.57    0.77 
   7  11  -1    2.52    0.89 
  -6 -11   1   22.68    1.50 
   6  11  -1   22.69    2.53 
  -5 -11   1   40.96    1.97 
   5  11  -1   44.22    2.88 
  -4 -11   1    6.80    0.90 
   4  11  -1    6.08    1.38 
  -3 -11   1   17.01    1.22 
   3  11  -1   19.78    1.87 
  -2 -11   1  230.86    5.27 
   2  11  -1  226.94    7.14 
  -2 -11   1  227.32    5.94 
   1  11  -1    5.97    0.99 
  -1 -11   1    7.94    0.46 
  -1 -11   1    8.14    0.86 
   0 -11   1   70.04    2.00 
   0 -11   1   74.64    2.47 
   1 -11   1   52.75    1.75 
   1 -11   1   52.36    2.05 
   2 -11   1  121.33    3.77 
   2 -11   1  123.93    3.46 
   3 -11   1  145.13    4.17 
   3 -11   1  151.12    4.47 
   4 -11   1    4.02    0.92 
   4 -11   1    4.01    0.83 
   5 -11   1   20.31    1.63 
   5 -11   1   18.17    1.51 
   6 -11   1   17.80    1.63 
   6 -11   1   13.21    1.47 
  -6  11  -1   14.51    1.51 
  -7  11  -1    0.24    0.59 
   7 -11   1    0.98    0.84 
   8 -11   1   18.70    2.03 
   9 -11   1    2.41    1.30 
  10 -11   1    7.59    1.92 
  11 -11   1    3.93    1.93 
  12 -11   1    1.67    1.93 
  12  10  -1    0.42    2.09 
  11  10  -1    3.09    1.76 
  10  10  -1    2.74    1.50 
 -10 -10   1    2.47    1.13 
   9  10  -1    5.20    1.80 
  -9 -10   1    5.18    1.15 
   8  10  -1    9.59    1.93 
   8  10  -1   10.31    1.39 
  -8 -10   1    9.56    1.32 
  -7 -10   1    0.57    0.71 
   7  10  -1    0.39    1.06 
   7  10  -1    0.08    0.70 
   6  10  -1    3.88    0.80 
   6  10  -1    2.79    1.24 
  -6 -10   1    5.11    0.91 
  -5 -10   1   79.16    2.83 
   5  10  -1   84.13    3.99 
   4  10  -1   15.89    1.89 
  -4 -10   1   17.32    1.29 
  -3 -10   1  262.23    6.71 
   3  10  -1  267.33    8.27 
   2  10  -1  116.95    4.24 
  -2 -10   1  121.42    3.48 
   1  10  -1   33.94    1.82 
  -1 -10   1   38.18    1.10 
  -1 -10   1   37.66    1.56 
   0 -10   1   34.40    1.51 
   0 -10   1   33.46    1.15 
   1 -10   1  274.05    6.85 
   1 -10   1  267.52    6.43 
   2 -10   1   32.55    1.39 
   2 -10   1   30.78    1.59 
   3 -10   1   41.52    1.96 
   3 -10   1   42.55    1.78 
   4 -10   1   55.00    2.39 
   4 -10   1   57.30    2.27 
   5 -10   1  116.03    3.93 
   5 -10   1  122.86    3.90 
   5 -10   1  116.30    4.25 
   6 -10   1   30.50    1.85 
  -6  10  -1   29.28    1.83 
   6 -10   1   32.01    1.98 
   7 -10   1    1.82    0.96 
  -7  10  -1    1.54    0.77 
   8 -10   1    0.22    0.94 
   9 -10   1    9.10    1.74 
  10 -10   1    0.63    1.41 
  11 -10   1    3.46    1.96 
  12 -10   1    1.55    1.94 
  12   9  -1    1.30    2.06 
  11   9  -1    5.62    2.11 
  10   9  -1    1.20    1.59 
 -10  -9   1    1.31    0.92 
   9   9  -1    0.27    1.36 
  -9  -9   1    1.48    0.86 
   8   9  -1   25.83    1.88 
   8   9  -1   21.49    2.74 
  -8  -9   1   22.25    1.75 
  -7  -9   1    0.04    0.63 
   7   9  -1    1.58    1.12 
   7   9  -1   -0.73    0.71 
   6   9  -1    2.06    1.27 
  -6  -9   1    2.64    0.76 
   6   9  -1    2.36    0.70 
   5   9  -1    2.87    0.62 
  -5  -9   1    3.52    0.75 
   5   9  -1    3.38    1.19 
  -4  -9   1  218.24    5.79 
   4   9  -1  222.33    7.33 
   3   9  -1  149.38    5.29 
  -3  -9   1  152.79    4.19 
   2   9  -1   36.29    1.99 
  -2  -9   1   38.46    1.56 
   1   9  -1  156.07    4.97 
  -1  -9   1  163.96    3.72 
  -1  -9   1  156.86    4.25 
   0  -9   1  260.46    6.15 
   0  -9   1  274.87    6.64 
   1  -9   1  820.32   18.70 
   1  -9   1  821.67   18.26 
   2  -9   1  371.47    8.86 
   2  -9   1  383.29    9.25 
   3  -9   1   19.17    1.21 
   3  -9   1   20.27    1.35 
   4  -9   1   35.08    1.84 
   4  -9   1   35.53    1.73 
   5  -9   1    2.74    0.85 
   5  -9   1    0.63    0.69 
   5  -9   1    1.55    0.67 
  -6   9  -1   19.78    1.56 
   6  -9   1   18.20    1.61 
   6  -9   1   23.83    1.73 
  -7   9  -1    2.47    0.82 
   7  -9   1    1.44    0.89 
   7  -9   1    4.91    1.08 
  -8   9  -1   17.70    1.55 
   8  -9   1   15.33    1.87 
   9  -9   1    0.81    1.09 
  10  -9   1   10.78    2.04 
  11  -9   1   -1.02    1.58 
  12  -9   1   -0.71    1.81 
  12   8  -1    1.99    2.00 
  11   8  -1    2.89    1.76 
  10   8  -1    0.73    1.51 
 -10  -8   1    1.20    0.92 
   9   8  -1    2.36    1.36 
   9   8  -1    0.71    0.98 
  -9  -8   1    1.41    0.75 
   8   8  -1    5.73    1.34 
  -8  -8   1    6.01    1.06 
   8   8  -1    4.53    1.47 
   7   8  -1   23.59    2.60 
   7   8  -1   29.04    1.80 
  -7  -8   1   28.62    1.62 
   6   8  -1    2.82    1.27 
  -6  -8   1    2.02    0.68 
   6   8  -1    2.30    0.77 
  -5  -8   1    4.72    0.80 
   5   8  -1    3.79    1.30 
   5   8  -1    4.21    0.69 
   4   8  -1  451.05   13.04 
  -4  -8   1  465.94   10.75 
   4   8  -1  434.52   10.34 
  -3  -8   1  259.60    6.35 
   3   8  -1  246.94    7.79 
   2   8  -1   40.86    2.06 
  -2  -8   1   38.28    1.53 
  -1  -8   1  759.78   16.57 
   1   8  -1  756.69   19.68 
  -1  -8   1  737.84   16.99 
   0  -8   1   63.55    2.05 
   0  -8   1   58.83    1.66 
   1  -8   1  980.59   21.73 
   1  -8   1  987.30   22.14 
   2  -8   1  137.59    3.96 
   2  -8   1  138.12    3.67 
   3  -8   1   95.76    2.96 
   3  -8   1   96.90    3.16 
   4  -8   1  161.39    4.64 
   4  -8   1  171.91    4.82 
   4  -8   1  161.10    5.12 
   5  -8   1   28.73    1.68 
   5  -8   1   32.30    1.79 
   6  -8   1    8.51    1.19 
   6  -8   1   10.64    1.41 
  -7   8  -1   15.74    1.49 
   7  -8   1   15.33    1.64 
   7  -8   1   13.21    1.59 
   8  -8   1    2.85    1.11 
  -8   8  -1    2.80    0.82 
   9  -8   1    8.39    1.65 
  10  -8   1   -0.32    1.25 
  11  -8   1    1.48    1.68 
  12  -8   1    0.71    1.99 
  12   7  -1    0.09    1.89 
  11   7  -1    1.38    1.67 
 -10  -7   1    8.56    1.37 
  10   7  -1    9.30    2.14 
   9   7  -1    3.06    1.52 
  -9  -7   1    2.20    0.81 
   9   7  -1    0.98    1.25 
   8   7  -1    0.43    1.12 
  -8  -7   1    2.06    0.77 
   8   7  -1    0.07    0.92 
  -7  -7   1    4.33    0.88 
   7   7  -1    3.40    1.32 
   7   7  -1    3.91    0.99 
   6   7  -1   10.23    1.12 
  -6  -7   1    9.18    1.02 
   6   7  -1    7.50    1.68 
   5   7  -1   21.97    2.17 
  -5  -7   1   17.37    1.15 
   5   7  -1   20.82    1.20 
  -4  -7   1  362.02    8.67 
   4   7  -1  354.56   10.68 
   4   7  -1  357.96    8.41 
   3   7  -1   87.72    3.52 
  -3  -7   1   88.94    2.66 
   3   7  -1   87.20    2.33 
  -2  -7   1  338.55    8.00 
   2   7  -1  336.18    9.57 
  -1  -7   1  407.66    9.61 
  -1  -7   1  412.14    9.22 
   1   7  -1  419.88   11.21 
   0  -7   1   97.23    2.46 
   0  -7   1  102.31    2.84 
   1  -7   1 3718.81   80.38 
   1  -7   1 3640.72   79.79 
   2  -7   1   71.37    2.21 
   2  -7   1   71.24    2.42 
   3  -7   1  210.67    5.61 
   3  -7   1  207.73    5.41 
   4  -7   1  120.25    3.74 
   4  -7   1  118.51    3.95 
   4  -7   1  114.45    3.57 
  -5   7  -1    0.22    0.44 
   5  -7   1    0.38    0.54 
   5  -7   1    0.29    0.65 
   6  -7   1    4.14    0.97 
   6  -7   1    6.32    1.18 
   7  -7   1    3.80    1.09 
  -7   7  -1    3.08    0.76 
   7  -7   1    5.25    1.25 
   8  -7   1   20.10    2.03 
  -8   7  -1   22.17    1.52 
   9  -7   1    0.67    1.14 
  10  -7   1    9.32    1.94 
  11  -7   1    0.47    1.56 
  12  -7   1    0.47    1.96 
  12   6  -1    1.64    1.89 
  11   6  -1    3.84    1.93 
  10   6  -1    1.60    1.46 
   9   6  -1    3.06    1.33 
   9   6  -1    1.59    1.20 
  -9  -6   1    3.40    0.91 
  -8  -6   1   10.34    1.21 
   8   6  -1   10.41    1.49 
   8   6  -1    9.63    1.92 
  -7  -6   1   26.81    1.53 
   7   6  -1   27.52    2.69 
   7   6  -1   28.35    1.77 
   6   6  -1   81.35    3.97 
  -6  -6   1   77.31    2.70 
   6   6  -1   81.13    2.83 
   5   6  -1    2.58    1.06 
  -5  -6   1    3.56    0.65 
   5   6  -1    3.60    0.69 
  -4  -6   1  115.11    3.32 
   4   6  -1  115.31    4.49 
   4   6  -1  117.42    3.19 
   3   6  -1  270.90    6.29 
   3   6  -1  264.93    8.12 
  -3  -6   1  275.67    6.60 
  -2  -6   1  475.52   10.96 
   2   6  -1  478.05   12.98 
  -1  -6   1 4107.91   90.14 
   1   6  -1 4177.93  103.85 
   0   6  -1   43.16    1.57 
   0  -6   1   44.34    1.49 
   0  -6   1   39.41    1.18 
   1  -6   1 3323.68   73.74 
   1  -6   1 3478.04   74.37 
   2  -6   1 1002.48   22.43 
   2  -6   1 1016.09   22.76 
   3  -6   1  307.96    7.47 
   3  -6   1  303.51    7.66 
   4  -6   1   32.18    1.74 
   4  -6   1   31.72    1.66 
   4  -6   1   34.99    1.69 
   5  -6   1    7.20    1.02 
   5  -6   1    9.02    1.11 
  -5   6  -1    4.71    0.83 
   6  -6   1   33.91    2.02 
   6  -6   1   30.33    1.87 
   7  -6   1   49.16    2.66 
   7  -6   1   48.23    2.48 
   8  -6   1    9.92    1.55 
   8  -6   1    9.12    1.46 
  -8   6  -1    6.12    1.10 
   9  -6   1   13.87    1.98 
  10  -6   1   -1.31    1.17 
  11  -6   1    0.33    1.65 
  12  -6   1    1.35    1.95 
  12   5  -1    0.26    1.94 
  11   5  -1    0.67    1.54 
  10   5  -1    2.28    1.50 
  10   5  -1   -0.91    1.33 
   9   5  -1    8.17    1.84 
  -9  -5   1    8.71    1.17 
   9   5  -1   10.57    1.70 
   8   5  -1   22.41    2.69 
  -8  -5   1   23.13    1.49 
   8   5  -1   24.24    1.97 
  -7  -5   1    1.99    0.66 
   7   5  -1    1.36    1.18 
   7   5  -1    1.36    0.85 
   6   5  -1    1.61    1.00 
   6   5  -1    1.57    0.65 
  -6  -5   1    1.83    0.58 
  -5  -5   1   62.43    2.15 
   5   5  -1   56.95    3.11 
   5   5  -1   61.08    2.17 
   4   5  -1  409.40   11.84 
  -4  -5   1  403.88    9.56 
   4   5  -1  406.62    9.46 
   3   5  -1   18.74    0.83 
   3   5  -1   18.70    1.52 
  -3  -5   1   18.95    0.96 
  -2  -5   1  106.84    2.84 
   2   5  -1  102.58    3.59 
   1   5  -1 1797.00   45.35 
  -1  -5   1 1787.75   39.30 
   0  -5   1   22.50    0.77 
   0   5  -1   25.88    1.05 
   0  -5   1   26.11    1.05 
   1  -5   1    0.54    0.30 
   1  -5   1   -0.04    0.39 
   2  -5   1    6.98    0.66 
   2  -5   1    7.66    0.82 
   3  -5   1    9.37    0.86 
   3  -5   1   11.37    0.85 
   3  -5   1    9.99    0.96 
   4  -5   1  138.87    4.45 
  -4   5  -1  139.51    4.15 
   4  -5   1  141.41    4.07 
   5  -5   1    9.64    1.14 
  -5   5  -1    7.87    1.01 
   5  -5   1   12.86    1.29 
  -6   5  -1    7.79    1.06 
   6  -5   1   14.68    1.51 
   6  -5   1   12.60    1.40 
   7  -5   1   11.37    1.50 
   7  -5   1   12.79    1.63 
   8  -5   1   17.40    1.93 
   8  -5   1   23.89    1.97 
   9  -5   1    4.45    1.41 
  10  -5   1    0.50    1.27 
  11  -5   1    0.90    1.72 
  12  -5   1    1.65    1.91 
  12   4  -1    2.68    2.10 
  11   4  -1    0.89    1.50 
  10   4  -1   -0.83    1.36 
  10   4  -1    1.63    1.38 
   9   4  -1   25.01    2.83 
   9   4  -1   25.30    2.21 
  -9  -4   1   14.39    1.36 
  -8  -4   1    1.06    0.64 
   8   4  -1    2.14    1.26 
   8   4  -1    1.10    1.01 
  -7  -4   1    5.38    0.84 
   7   4  -1    3.66    0.95 
   7   4  -1    5.13    1.53 
  -6  -4   1    6.59    0.83 
   6   4  -1    4.62    1.39 
   6   4  -1    6.91    0.97 
  -5  -4   1  189.49    4.90 
   5   4  -1  185.04    4.96 
   5   4  -1  188.05    6.57 
  -4  -4   1  665.13   15.11 
   4   4  -1  653.04   18.26 
   4   4  -1  679.19   15.07 
  -3  -4   1  164.98    4.14 
   3   4  -1  166.13    4.00 
   3   4  -1  161.48    5.40 
   2   4  -1   30.17    1.66 
  -2  -4   1   29.90    1.13 
   2   4  -1   31.72    0.91 
   1   4  -1  227.56    6.38 
  -1  -4   1  228.43    5.39 
   0  -4   1   28.41    1.10 
   0   4  -1   29.44    1.12 
   1  -4   1  296.43    7.04 
   1  -4   1  292.37    6.79 
   2  -4   1   33.11    1.30 
   2  -4   1   35.54    1.47 
   2  -4   1   33.45    1.26 
   3  -4   1   55.12    1.97 
   3  -4   1   57.55    2.05 
   3  -4   1   55.98    2.10 
   4  -4   1  173.59    4.73 
  -4   4  -1  166.44    4.72 
   4  -4   1  166.74    5.14 
   5  -4   1  269.65    7.11 
  -5   4  -1  266.15    7.05 
   5  -4   1  268.91    7.90 
  -6   4  -1    0.99    0.62 
   6  -4   1    1.46    0.79 
   6  -4   1    2.83    0.94 
  -7   4  -1   31.42    1.83 
   7  -4   1   38.84    2.24 
   7  -4   1   39.82    2.33 
  -8   4  -1    0.89    0.59 
   8  -4   1    1.12    1.10 
   8  -4   1    1.05    1.00 
  -9   4  -1    0.93    0.75 
   9  -4   1    4.77    1.39 
  10  -4   1    0.70    1.34 
  11  -4   1    3.55    1.85 
  12  -4   1   -0.14    1.84 
  12   3  -1    0.60    1.94 
  11   3  -1   -0.40    1.62 
  11   3  -1    2.21    1.65 
  10   3  -1    4.04    1.44 
  10   3  -1    1.63    1.41 
   9   3  -1    1.25    1.25 
   9   3  -1    0.56    1.06 
  -9  -3   1    1.40    0.49 
   8   3  -1    8.44    1.64 
   8   3  -1    6.97    1.29 
   7   3  -1    9.29    1.23 
   7   3  -1    8.00    1.70 
  -6  -3   1   11.89    0.98 
   6   3  -1   19.28    2.16 
   6   3  -1   15.98    1.28 
  -5  -3   1   13.78    0.93 
   5   3  -1   16.13    1.10 
   5   3  -1   18.03    1.97 
   4   3  -1  141.30    3.64 
  -4  -3   1  130.56    3.57 
   4   3  -1  139.66    4.97 
   3   3  -1  209.80    4.86 
  -3  -3   1  203.25    4.93 
   3   3  -1  197.88    6.39 
   2   3  -1  156.78    3.50 
  -2  -3   1  149.26    3.66 
   2   3  -1  140.88    4.68 
  -1  -3   1   16.16    0.69 
   1   3  -1   16.83    0.99 
   0  -3   1   -0.36    0.10 
   0   3  -1   -0.16    0.22 
   0  -3   1    0.40    0.26 
   1  -3   1   44.83    1.56 
   1  -3   1   46.29    1.42 
   2  -3   1   41.39    1.40 
   2  -3   1   40.15    1.56 
   2  -3   1   39.73    1.48 
   3  -3   1    6.41    0.68 
  -3   3  -1    6.21    0.76 
   3  -3   1    6.47    0.75 
   4  -3   1   22.39    1.37 
  -4   3  -1   22.05    1.31 
   4  -3   1   23.02    1.38 
   5  -3   1   20.86    1.55 
   5  -3   1   18.84    1.47 
  -5   3  -1   21.59    1.39 
   6  -3   1   55.38    2.68 
   6  -3   1   58.15    2.56 
  -6   3  -1   56.80    2.36 
   7  -3   1    0.79    0.83 
  -7   3  -1    2.07    0.76 
   7  -3   1    2.06    1.06 
   8  -3   1    1.10    0.93 
  -8   3  -1    0.07    0.70 
   8  -3   1   -0.01    0.99 
   9  -3   1    0.30    1.01 
  -9   3  -1   -0.42    0.72 
  10  -3   1    0.68    1.40 
  11  -3   1    0.73    1.52 
  12  -3   1   -0.40    1.90 
  11   2  -1    6.61    1.93 
  11   2  -1    1.81    1.65 
  10   2  -1    0.79    1.20 
  10   2  -1    0.59    1.29 
   9   2  -1   11.69    1.66 
  -9  -2   1   10.49    1.09 
   9   2  -1    8.71    1.85 
  -8  -2   1   20.85    1.33 
   8   2  -1   22.59    2.57 
   8   2  -1   25.17    1.95 
  -7  -2   1    1.29    0.46 
   7   2  -1    1.15    0.76 
   7   2  -1    2.01    1.13 
   6   2  -1    0.58    1.05 
  -6  -2   1    0.94    0.37 
   6   2  -1    1.19    0.64 
   5   2  -1    2.08    0.62 
   5   2  -1    3.04    1.18 
   4   2  -1    4.71    0.59 
   4   2  -1    4.95    1.11 
   3   2  -1 1189.38   26.07 
   3   2  -1 1185.16   30.93 
   2   2  -1  590.94   16.09 
   2   2  -1  618.73   13.38 
   1   2  -1   39.19    0.99 
  -1  -2   1   39.74    1.12 
  -1  -2   1   36.31    0.98 
   1   2  -1   37.13    1.55 
   0   2  -1  323.96    8.79 
   0  -2   1  343.76    7.71 
   1  -2   1  380.89    8.88 
   1  -2   1  385.60    8.73 
   2  -2   1   28.23    1.30 
   2  -2   1   27.47    1.08 
   2  -2   1   29.94    1.23 
  -3   2  -1  370.25    8.93 
   3  -2   1  363.70    9.91 
   3  -2   1  378.05    8.88 
   4  -2   1    0.51    0.53 
  -4   2  -1    1.15    0.52 
   4  -2   1    1.21    0.58 
   5  -2   1   12.53    1.29 
   5  -2   1   10.19    1.18 
  -5   2  -1   13.65    1.20 
   6  -2   1   10.10    1.27 
  -6   2  -1   10.24    1.16 
   6  -2   1    6.42    1.26 
  -7   2  -1    6.99    1.09 
   7  -2   1    3.56    1.02 
   7  -2   1    5.09    1.17 
   8  -2   1    1.11    0.99 
  -8   2  -1    4.31    0.97 
   8  -2   1    2.30    1.06 
   9  -2   1   14.35    1.96 
  -9   2  -1   11.26    1.46 
  10  -2   1    2.02    1.43 
  11  -2   1    5.18    1.93 
  12  -2   1   -2.57    1.83 
  11   1  -1    0.83    1.60 
  11   1  -1    1.67    1.60 
  10   1  -1    9.62    1.75 
  10   1  -1    7.60    2.02 
   9   1  -1    0.52    1.03 
   9   1  -1    0.56    1.21 
  -8  -1   1    0.94    0.61 
   8   1  -1    0.83    0.90 
   8   1  -1   -0.02    1.02 
   7   1  -1   12.46    1.91 
  -7  -1   1    9.64    0.95 
   7   1  -1    9.11    1.19 
  -6  -1   1   58.35    2.00 
   6   1  -1   57.47    3.19 
   6   1  -1   53.37    2.22 
   5   1  -1    3.69    1.22 
   5   1  -1    2.98    0.67 
  -5  -1   1    2.47    0.55 
   4   1  -1    2.63    0.94 
   4   1  -1    2.30    0.49 
  -4  -1   1    3.24    0.45 
   3   1  -1  200.37    6.28 
   3   1  -1  199.13    4.76 
  -3  -1   1  197.06    4.70 
  -2  -1   1  780.89   17.67 
   2   1  -1  795.63   21.00 
   2   1  -1  826.82   17.64 
   1   1  -1  855.78   19.08 
   1   1  -1  864.73   22.22 
   0  -1   1   64.43    1.76 
   1  -1   1  410.87    9.29 
  -1   1  -1  404.64   10.69 
   1  -1   1  410.05    9.41 
   2  -1   1  374.50    9.66 
  -2   1  -1  365.23    8.71 
   2  -1   1  364.87    8.60 
   3  -1   1   44.57    1.79 
   3  -1   1   45.03    1.74 
  -3   1  -1   45.48    1.76 
   4  -1   1    5.26    0.82 
   4  -1   1    5.15    0.81 
  -4   1  -1    5.20    0.78 
   5  -1   1    5.03    0.92 
   5  -1   1    1.62    0.67 
  -5   1  -1    5.67    0.86 
   6  -1   1   -0.07    0.60 
   6  -1   1    1.08    0.78 
  -6   1  -1   -0.47    0.51 
  -7   1  -1    4.34    0.91 
   7  -1   1    2.99    0.97 
   7  -1   1    4.10    1.04 
   8  -1   1    4.65    1.28 
  -8   1  -1    2.72    0.90 
   8  -1   1    2.96    1.22 
  -9   1  -1    4.31    1.06 
   9  -1   1    3.15    1.30 
   9  -1   1    1.33    1.13 
  10  -1   1    2.31    1.55 
  11  -1   1    0.95    1.73 
  12  -1   1   -0.94    1.92 
  12   0  -1    1.47    1.92 
  11   0  -1    2.99    1.54 
  11   0  -1    2.28    1.73 
  10   0  -1   -0.49    1.09 
  10   0  -1    1.55    1.32 
   9   0  -1    1.48    1.21 
   9   0  -1    0.87    1.02 
  -8   0   1   -0.01    0.50 
   8   0  -1   -0.92    0.75 
   8   0  -1   -1.57    0.96 
   7   0  -1   12.23    1.93 
   7   0  -1    9.13    1.20 
  -7   0   1   11.17    0.96 
   6   0  -1    2.26    0.74 
   6   0  -1    2.91    1.26 
  -6   0   1    2.27    0.57 
   5   0  -1  310.47    7.68 
   5   0  -1  316.65    9.79 
  -5   0   1  310.37    7.42 
  -4   0   1    0.82    0.28 
   4   0  -1    1.52    0.77 
   4   0  -1    0.46    0.41 
   3   0  -1   67.73    2.91 
   3   0  -1   69.51    1.95 
  -3   0   1   65.20    1.80 
  -2   0   1    0.09    0.18 
   2   0  -1   -0.10    0.22 
   2   0  -1    0.10    0.56 
  -1   0   1   91.85    2.23 
   1   0  -1   92.59    2.26 
   0   0   1  -12.61    0.26 
   1   0   1  849.69   19.36 
  -1   0  -1  901.73   19.55 
  -2   0  -1    2.89    0.52 
   2   0   1    3.24    0.54 
   2   0   1    2.87    0.45 
  -3   0  -1   41.38    1.67 
   3   0   1   42.23    1.67 
   4   0   1    0.07    0.34 
  -4   0  -1    1.23    0.51 
   4   0   1    0.44    0.53 
   5   0   1    4.56    0.89 
   5   0   1    2.21    0.76 
  -5   0  -1    5.50    0.87 
  -6   0  -1    0.31    0.58 
   6   0   1   -0.22    0.80 
   6   0   1   -0.59    0.60 
   7   0   1    5.60    1.36 
   7   0   1    3.59    1.00 
  -7   0  -1    4.97    1.01 
   8   0   1    1.77    1.20 
   8   0   1   -0.46    0.92 
  -8   0  -1   -0.05    0.71 
  -9   0  -1   11.64    1.48 
   9   0   1    9.89    1.88 
   9   0   1   11.65    1.83 
  10   0   1   -1.45    1.11 
  11   0   1   -1.57    1.55 
  12   0   1    2.04    2.18 
  12  -1  -1   -0.43    1.82 
  11  -1  -1    0.86    1.37 
  11  -1  -1    0.28    1.60 
  10  -1  -1    7.54    1.62 
  10  -1  -1    7.44    1.73 
   9  -1  -1    0.24    0.91 
   9  -1  -1    2.75    1.36 
  -8   1   1    0.19    0.46 
   8  -1  -1   -0.72    0.81 
   8  -1  -1    1.26    1.16 
  -7   1   1    8.97    0.89 
   7  -1  -1    9.05    1.20 
   7  -1  -1   10.22    1.81 
   6  -1  -1   59.92    2.32 
  -6   1   1   57.56    1.98 
   6  -1  -1   59.87    3.30 
   5  -1  -1    1.69    0.61 
  -5   1   1    2.44    0.50 
   5  -1  -1    3.11    1.13 
   4  -1  -1    2.46    0.52 
   4  -1  -1    2.66    0.94 
  -4   1   1    2.66    0.38 
   3  -1  -1  202.45    4.88 
   3  -1  -1  199.73    6.38 
  -3   1   1  200.16    4.67 
   2  -1  -1  823.32   18.08 
  -2   1   1  814.41   18.20 
   1  -1  -1  870.83   19.71 
   1  -1  -1  899.92   20.89 
  -1   1   1  916.95   21.12 
   0  -1  -1   61.54    1.65 
  -1  -1  -1  413.10    9.33 
   1   1   1  397.72    9.24 
  -2  -1  -1  375.97    8.76 
   2   1   1  365.40    8.66 
   3   1   1   44.74    1.75 
  -3  -1  -1   44.52    1.72 
  -4  -1  -1    6.38    0.81 
   4   1   1    5.21    0.83 
   4   1   1    7.36    0.99 
   5   1   1    4.93    0.95 
   5   1   1    6.37    1.17 
  -5  -1  -1    7.02    0.94 
   6   1   1    0.03    0.71 
  -6  -1  -1    0.79    0.65 
   6   1   1    1.10    0.85 
   7   1   1    5.02    1.12 
  -7  -1  -1    4.21    0.89 
   7   1   1    6.23    1.38 
   8   1   1    4.54    1.26 
  -8  -1  -1    4.02    0.98 
   8   1   1    5.89    1.57 
  -9  -1  -1    5.21    1.06 
   9   1   1    1.33    1.19 
   9   1   1    2.74    1.37 
 -10  -1  -1    1.75    0.99 
  10   1   1    3.75    1.64 
  11   1   1    0.47    1.72 
  12   1   1    0.04    2.18 
  12  -2  -1   -0.70    1.76 
  11  -2  -1    2.61    1.89 
  11  -2  -1    3.24    1.63 
  10  -2  -1    0.46    1.06 
  10  -2  -1    1.26    1.38 
   9  -2  -1    9.16    1.95 
   9  -2  -1    7.97    1.51 
  -8   2   1   21.38    1.22 
   8  -2  -1   26.06    2.66 
   8  -2  -1   20.75    1.84 
  -7   2   1    0.48    0.48 
   7  -2  -1    1.82    1.25 
   7  -2  -1    1.13    0.72 
   6  -2  -1    1.55    0.65 
   6  -2  -1    2.86    1.17 
  -6   2   1    1.36    0.44 
  -5   2   1    1.15    0.39 
   5  -2  -1    2.64    1.15 
   5  -2  -1    2.06    0.60 
   4  -2  -1    4.95    1.21 
  -4   2   1    5.46    0.47 
   4  -2  -1    4.23    0.61 
   3  -2  -1 1176.58   26.11 
  -3   2   1 1192.92   26.05 
   2  -2  -1  617.40   13.77 
   1  -2  -1   37.18    1.15 
   0  -2  -1  316.96    7.22 
  -1  -2  -1  384.44    8.83 
   2   2   1   27.83    1.22 
   2   2   1   25.33    1.25 
  -2  -2  -1   29.23    1.21 
  -3  -2  -1  377.68    9.00 
   3   2   1  377.08    8.97 
   3   2   1  366.40   10.22 
   4   2   1    0.39    0.52 
  -4  -2  -1    1.91    0.58 
   4   2   1    1.61    0.71 
   5   2   1   14.13    1.52 
  -5  -2  -1   12.85    1.16 
   5   2   1   11.12    1.23 
   6   2   1    9.57    1.30 
  -6  -2  -1   11.30    1.21 
   6   2   1   12.15    1.56 
   7   2   1    5.82    1.38 
  -7  -2  -1    6.78    1.07 
   7   2   1    4.98    1.17 
   8   2   1    4.08    1.28 
   8   2   1    4.28    1.48 
  -8  -2  -1    5.41    1.10 
  -9  -2  -1   14.13    1.55 
   9   2   1   14.46    2.07 
   9   2   1   13.81    2.07 
 -10  -2  -1    4.89    1.21 
  10   2   1    4.02    1.59 
  10   2   1    4.32    1.67 
  11   2   1    3.46    1.93 
  12   2   1   -0.50    2.09 
  12  -3  -1    1.19    1.78 
  11  -3  -1    0.33    1.43 
  10  -3  -1    2.77    1.29 
  10  -3  -1    4.50    1.56 
   9  -3  -1   -0.13    1.16 
   9  -3  -1    1.23    1.03 
   8  -3  -1   10.40    1.95 
  -8   3   1    9.48    0.90 
   8  -3  -1    8.15    1.34 
   7  -3  -1    7.92    1.15 
  -7   3   1    8.27    0.80 
   7  -3  -1    7.16    1.76 
   6  -3  -1   17.01    1.35 
  -6   3   1   17.48    0.97 
   6  -3  -1   20.04    2.16 
   5  -3  -1   20.20    2.13 
  -5   3   1   16.55    0.86 
   5  -3  -1   15.63    1.16 
   4  -3  -1  147.95    5.25 
  -4   3   1  139.61    3.52 
   4  -3  -1  141.14    3.84 
   3  -3  -1  206.75    4.99 
  -3   3   1  198.01    4.67 
   2  -3  -1  153.41    3.81 
  -1   3   1   16.39    0.51 
   1  -3  -1   18.45    0.77 
   1  -3  -1   17.94    0.52 
   0  -3  -1    0.57    0.23 
  -1  -3  -1   43.32    1.40 
   2   3   1   38.16    1.46 
  -2  -3  -1   40.86    1.47 
   2   3   1   37.61    1.62 
   3   3   1    6.43    0.87 
   3   3   1    7.00    0.79 
  -3  -3  -1    5.51    0.73 
   4   3   1   23.29    1.60 
   4   3   1   25.74    1.43 
  -4  -3  -1   24.72    1.37 
   5   3   1   21.55    1.87 
   5   3   1   21.66    1.62 
  -5  -3  -1   21.67    1.39 
  -6  -3  -1   61.10    2.46 
   6   3   1   56.85    2.97 
   6   3   1   59.81    2.65 
   7   3   1    1.49    0.95 
   7   3   1    4.02    1.33 
  -7  -3  -1    2.32    0.77 
   8   3   1    0.87    1.10 
   8   3   1    0.49    1.07 
  -8  -3  -1    0.44    0.74 
  -9  -3  -1    0.63    0.81 
   9   3   1    0.43    1.14 
   9   3   1    1.64    1.20 
 -10  -3  -1    1.26    0.97 
  10   3   1    2.71    1.58 
  10   3   1    2.83    1.45 
  11   3   1   -0.80    1.70 
  12   3   1    1.65    2.18 
  12  -4  -1    0.46    1.80 
  11  -4  -1    0.64    1.33 
  10  -4  -1   -0.74    1.03 
  10  -4  -1    0.93    1.33 
   9  -4  -1   25.18    2.22 
   9  -4  -1   27.93    2.86 
   8  -4  -1    1.04    1.44 
   8  -4  -1    1.37    0.89 
   7  -4  -1    5.12    0.97 
  -7   4   1    5.45    0.68 
   7  -4  -1    3.51    1.41 
   6  -4  -1    8.14    1.58 
   6  -4  -1    6.33    0.97 
  -6   4   1    6.69    0.64 
   5  -4  -1  185.32    4.96 
  -5   4   1  177.35    4.51 
   5  -4  -1  184.17    6.55 
   4  -4  -1  666.62   14.99 
  -4   4   1  645.21   14.65 
  -3   4   1  162.90    3.89 
   3  -4  -1  166.77    4.23 
   2  -4  -1   32.88    1.22 
   1  -4  -1  237.68    5.33 
   1  -4  -1  230.29    5.55 
   0  -4  -1   29.11    0.96 
  -1  -4  -1  290.07    6.79 
   2   4   1   35.71    1.61 
  -2  -4  -1   34.72    1.38 
   3   4   1   55.78    2.37 
   3   4   1   55.54    2.03 
  -3  -4  -1   59.15    2.05 
   4   4   1  176.27    4.90 
  -4  -4  -1  177.43    4.84 
   4   4   1  174.96    5.69 
   5   4   1  274.29    8.59 
   5   4   1  281.46    7.48 
  -5  -4  -1  287.44    7.34 
  -6  -4  -1    1.69    0.72 
   6   4   1    0.62    0.84 
   6   4   1    2.27    0.97 
   7   4   1   38.10    2.34 
   7   4   1   42.17    2.74 
  -7  -4  -1   39.58    2.04 
   8   4   1    2.16    1.17 
  -8  -4  -1    0.41    0.72 
   8   4   1    1.49    1.21 
   9   4   1    8.87    1.76 
   9   4   1    8.51    1.75 
  -9  -4  -1    7.21    1.29 
  10   4   1    0.64    1.43 
 -10  -4  -1   -0.67    0.82 
  10   4   1   -0.68    1.23 
  11   4   1   -0.31    1.72 
  12  -5  -1    0.57    1.75 
  11  -5  -1    1.47    1.50 
  10  -5  -1   -0.46    1.04 
  10  -5  -1    1.49    1.42 
   9  -5  -1   10.49    2.01 
   9  -5  -1    9.81    1.61 
   8  -5  -1   23.67    2.75 
   8  -5  -1   20.55    1.83 
   7  -5  -1    0.55    1.18 
   7  -5  -1    0.09    0.68 
  -7   5   1    1.71    0.49 
  -6   5   1    1.21    0.42 
   6  -5  -1    1.23    1.20 
   6  -5  -1    1.68    0.70 
   5  -5  -1   59.86    3.28 
  -5   5   1   58.43    1.83 
   5  -5  -1   59.85    2.24 
   4  -5  -1  417.24    9.68 
  -4   5   1  396.53    9.27 
  -3   5   1   16.07    0.70 
   3  -5  -1   18.63    1.03 
   2  -5  -1  113.96    3.04 
   2  -5  -1  111.20    2.74 
   1  -5  -1 1889.24   40.94 
   1  -5  -1 1844.67   40.81 
   0  -5  -1   25.95    1.03 
   0  -5  -1   27.27    0.92 
  -1  -5  -1    0.73    0.35 
  -2  -5  -1    6.47    0.68 
  -3  -5  -1   11.19    0.95 
   3   5   1   10.53    0.93 
   3   5   1   11.04    1.17 
  -4  -5  -1  142.37    4.13 
   4   5   1  140.20    4.89 
   4   5   1  143.25    4.16 
   5   5   1    9.66    1.44 
  -5  -5  -1   10.46    1.15 
   5   5   1   10.24    1.19 
  -6  -5  -1   15.10    1.37 
   6   5   1   16.01    1.88 
   6   5   1   15.45    1.55 
   7   5   1   13.76    1.68 
  -7  -5  -1   11.78    1.38 
   7   5   1   14.70    2.03 
   8   5   1   20.70    2.38 
   8   5   1   22.41    2.22 
  -8  -5  -1   23.96    1.87 
  -9  -5  -1    2.42    0.98 
   9   5   1    1.60    1.30 
   9   5   1    2.97    1.32 
  10   5   1    1.65    1.58 
  10   5   1    2.73    1.33 
 -10  -5  -1    0.40    0.84 
  11   5   1    0.77    1.96 
  12  -6  -1    2.17    1.86 
  11  -6  -1    4.36    1.67 
  10  -6  -1   -0.88    1.05 
  10  -6  -1    0.77    1.43 
   9  -6  -1    4.42    1.62 
   9  -6  -1    2.03    1.07 
   8  -6  -1    8.34    1.31 
   8  -6  -1   11.12    2.11 
   7  -6  -1   23.44    1.70 
   7  -6  -1   32.06    2.85 
  -7   6   1   27.66    1.23 
   6  -6  -1   77.12    2.87 
  -6   6   1   80.80    2.39 
   6  -6  -1   82.75    4.05 
   5  -6  -1    2.95    0.68 
  -5   6   1    3.80    0.47 
  -4   6   1  112.10    3.00 
   4  -6  -1  120.26    3.41 
   3  -6  -1  278.06    6.66 
   3  -6  -1  267.12    6.32 
   2  -6  -1  490.87   10.94 
   2  -6  -1  481.86   11.17 
   1  -6  -1 4302.96   95.08 
   1  -6  -1 4465.79   95.54 
   0  -6  -1   43.98    1.37 
   0  -6  -1   43.77    1.48 
  -1  -6  -1 3324.06   72.42 
  -2  -6  -1 1004.66   22.47 
   3   6   1  309.48    9.00 
  -3  -6  -1  312.96    7.64 
   4   6   1   28.27    1.58 
   4   6   1   31.84    2.04 
  -4  -6  -1   33.81    1.61 
  -5  -6  -1    8.35    1.04 
   5   6   1    7.35    1.05 
   5   6   1    7.64    1.38 
   6   6   1   30.48    2.28 
  -6  -6  -1   29.94    1.73 
   6   6   1   31.63    1.92 
   7   6   1   45.83    2.53 
  -7  -6  -1   45.31    2.28 
   7   6   1   50.34    3.04 
  -8  -6  -1    7.59    1.27 
   8   6   1    9.01    1.74 
   8   6   1    8.71    1.64 
   9   6   1   13.71    1.99 
   9   6   1   12.49    2.08 
  -9  -6  -1   14.07    1.59 
  10   6   1    2.13    1.49 
  10   6   1    0.10    1.45 
 -10  -6  -1    1.11    0.97 
  11   6   1    0.93    1.79 
  11   6   1    4.04    2.21 
  12  -7  -1   -2.43    1.63 
  11  -7  -1    1.22    1.46 
  10  -7  -1    6.51    1.63 
   9  -7  -1    1.59    1.07 
   9  -7  -1    3.66    1.58 
   8  -7  -1   -0.96    0.71 
   8  -7  -1    1.16    1.41 
   7  -7  -1    7.09    1.75 
  -7   7   1    3.54    0.59 
   7  -7  -1    2.91    0.90 
   6  -7  -1   10.20    1.85 
  -6   7   1    8.18    0.70 
   6  -7  -1    7.36    1.06 
   5  -7  -1   19.36    1.31 
  -5   7   1   19.35    0.92 
  -4   7   1  350.20    8.39 
   4  -7  -1  374.48    8.82 
   3  -7  -1   86.11    2.38 
   3  -7  -1   90.56    2.71 
   2  -7  -1  361.95    8.10 
   2  -7  -1  345.25    8.35 
   1  -7  -1  424.21    9.84 
   1  -7  -1  425.08    9.60 
   0  -7  -1  108.40    2.78 
   0  -7  -1  103.57    2.90 
  -1  -7  -1 3566.65   77.68 
  -2  -7  -1   74.51    2.36 
   3   7   1  207.69    6.57 
  -3  -7  -1  210.38    5.48 
  -4  -7  -1  122.47    3.68 
   4   7   1  119.60    4.46 
   4   7   1  114.55    3.63 
   5   7   1   -0.58    0.56 
   5   7   1   -0.38    0.72 
  -5  -7  -1    0.16    0.54 
   6   7   1    5.90    1.51 
  -6  -7  -1    5.23    0.98 
   6   7   1    5.00    1.07 
   7   7   1    3.55    1.21 
  -7  -7  -1    4.07    1.02 
   7   7   1    3.61    1.12 
   8   7   1   29.22    2.41 
  -8  -7  -1   23.72    1.76 
   8   7   1   24.73    2.64 
   9   7   1   -0.80    1.23 
  -9  -7  -1    0.28    0.82 
   9   7   1    0.86    1.23 
  10   7   1    9.76    2.21 
  10   7   1    8.06    2.13 
 -10  -7  -1    8.04    1.47 
 -11  -7  -1   -0.07    1.20 
  11   7   1    3.35    1.85 
  12  -8  -1    2.90    1.93 
  11  -8  -1    1.18    1.47 
  10  -8  -1    1.21    1.20 
   9  -8  -1    3.27    1.75 
   9  -8  -1    1.85    1.08 
   8  -8  -1    8.33    1.89 
   8  -8  -1    4.17    1.07 
   7  -8  -1   30.90    1.90 
   7  -8  -1   33.04    2.71 
   6  -8  -1    1.33    0.71 
   6  -8  -1    2.44    1.29 
  -6   8   1    2.51    0.45 
  -5   8   1    3.60    0.48 
   5  -8  -1    4.58    0.81 
   4  -8  -1  477.97   10.98 
   4  -8  -1  473.31   11.27 
   3  -8  -1  250.76    6.41 
   3  -8  -1  261.30    6.12 
   2  -8  -1   41.05    1.56 
   2  -8  -1   39.90    1.32 
   1  -8  -1  771.82   17.21 
   1  -8  -1  774.01   17.40 
   0  -8  -1   63.17    1.86 
   0  -8  -1   60.91    1.97 
  -1  -8  -1  997.77   22.25 
  -2  -8  -1  133.99    3.68 
  -3  -8  -1  102.62    3.16 
  -4  -8  -1  179.47    4.99 
   4   8   1  174.85    6.02 
   5   8   1   33.55    1.79 
   5   8   1   30.09    2.21 
  -5  -8  -1   33.58    1.75 
  -6  -8  -1   10.03    1.25 
   6   8   1    7.71    1.22 
   6   8   1   11.73    1.83 
   7   8   1   17.77    1.80 
  -7  -8  -1   15.74    1.56 
   7   8   1   15.44    2.15 
  -8  -8  -1    3.07    1.03 
   8   8   1    4.09    1.45 
   8   8   1    1.78    1.24 
   9   8   1   10.12    1.88 
   9   8   1    6.44    1.69 
  -9  -8  -1    9.13    1.45 
 -10  -8  -1   -0.88    0.91 
  10   8   1   -1.05    1.40 
  10   8   1    1.16    1.67 
 -11  -8  -1    2.28    1.33 
  11   8   1    5.04    1.95 
  12  -9  -1    0.27    1.68 
  11  -9  -1    2.50    1.72 
  10  -9  -1    1.35    1.29 
   9  -9  -1   -0.64    1.40 
   9  -9  -1   -0.41    0.83 
   8  -9  -1   23.72    2.05 
   8  -9  -1   26.44    2.88 
   7  -9  -1    2.06    1.39 
   7  -9  -1    0.36    0.68 
  -6   9   1    2.36    0.47 
   6  -9  -1    1.24    0.71 
  -5   9   1    3.48    0.50 
   5  -9  -1    3.19    0.77 
   4  -9  -1  218.58    5.44 
   4  -9  -1  219.38    5.77 
   3  -9  -1  161.86    4.12 
   3  -9  -1  159.90    4.40 
   2  -9  -1   40.91    1.59 
   2  -9  -1   38.30    1.34 
   1  -9  -1  168.43    4.20 
   1  -9  -1  167.99    4.40 
   0  -9  -1  273.05    6.70 
   0  -9  -1  280.40    6.61 
  -1  -9  -1  814.31   18.33 
  -2  -9  -1  387.28    9.24 
  -3  -9  -1   21.32    1.25 
   4   9   1   36.71    2.34 
  -4  -9  -1   37.92    1.79 
   5   9   1    1.51    0.94 
  -5  -9  -1    2.08    0.71 
  -6  -9  -1   22.59    1.58 
   6   9   1   24.55    2.43 
  -7  -9  -1    2.05    0.89 
   7   9   1    3.06    1.16 
   7   9   1    1.69    1.24 
   8   9   1   15.09    2.26 
  -8  -9  -1   16.23    1.69 
   8   9   1   17.66    2.04 
   9   9   1    0.48    1.31 
  -9  -9  -1    1.01    0.89 
   9   9   1   -0.21    1.30 
  10   9   1    9.16    1.97 
 -10  -9  -1   11.51    1.71 
  11   9   1    1.38    1.91 
 -11  -9  -1    1.01    1.15 
  12 -10  -1   -0.19    1.76 
  11 -10  -1   -1.87    1.43 
  10 -10  -1    2.95    1.35 
   9 -10  -1    6.40    1.92 
   9 -10  -1    4.33    1.24 
   8 -10  -1    5.87    1.29 
   8 -10  -1   12.83    2.12 
   7 -10  -1    0.26    0.70 
   7 -10  -1    1.71    1.44 
  -6  10   1    3.92    0.56 
   6 -10  -1    4.90    0.97 
   5 -10  -1   83.40    2.97 
   4 -10  -1   17.46    1.24 
   4 -10  -1   14.29    0.96 
   3 -10  -1  270.13    6.88 
   3 -10  -1  275.48    6.64 
   2 -10  -1  123.42    3.28 
   2 -10  -1  122.63    3.51 
   1 -10  -1   40.43    1.61 
   1 -10  -1   42.06    1.50 
   0 -10  -1   37.26    1.45 
   0 -10  -1   36.70    1.50 
  -1 -10  -1  274.66    6.65 
  -1 -10  -1  267.33    6.64 
  -2 -10  -1   33.91    1.51 
  -3 -10  -1   43.44    1.85 
  -4 -10  -1   59.55    2.33 
   4  10   1   58.23    3.01 
  -5 -10  -1  118.80    3.85 
   5  10   1  118.15    4.89 
  -6 -10  -1   31.08    1.84 
   6  10   1   27.41    2.33 
  -7 -10  -1    1.52    0.83 
   7  10   1    0.52    1.02 
  -8 -10  -1    1.22    0.87 
   8  10   1    1.54    1.08 
  -9 -10  -1    8.79    1.51 
   9  10   1    6.68    1.75 
 -10 -10  -1    1.90    1.06 
  10  10   1    1.93    1.57 
 -11 -10  -1    0.55    1.29 
  11  10   1    2.39    1.96 
  12 -11  -1    0.69    1.80 
  11 -11  -1    2.36    1.66 
  10 -11  -1    6.46    1.69 
   9 -11  -1    0.86    0.97 
   8 -11  -1    2.35    1.41 
   8 -11  -1   -0.02    0.92 
   7 -11  -1    0.76    1.42 
   7 -11  -1    2.15    0.93 
  -6  11   1   19.67    1.06 
   6 -11  -1   18.28    1.55 
   5 -11  -1   40.90    1.74 
   5 -11  -1   43.85    2.05 
   4 -11  -1    6.25    0.92 
   4 -11  -1    7.55    0.80 
   3 -11  -1   17.38    1.15 
   3 -11  -1   17.74    1.04 
   2 -11  -1  227.93    5.63 
   2 -11  -1  227.25    5.85 
   1 -11  -1    9.10    0.78 
   1 -11  -1    9.78    0.87 
   0 -11  -1   77.45    2.35 
   0 -11  -1   71.78    2.36 
  -1 -11  -1   48.78    1.78 
  -1 -11  -1   48.13    1.78 
  -2 -11  -1  131.74    3.78 
  -3 -11  -1  147.20    4.28 
  -4 -11  -1    3.87    0.83 
   5  11   1   20.71    2.26 
  -5 -11  -1   17.58    1.49 
   6  11   1   14.57    2.05 
  -6 -11  -1   16.16    1.56 
  -7 -11  -1    1.50    0.85 
   7  11   1    0.63    1.05 
   8  11   1   24.03    2.82 
  -8 -11  -1   21.68    1.99 
   9  11   1    0.27    1.35 
  -9 -11  -1    2.13    1.03 
 -10 -11  -1    7.99    1.54 
  10  11   1    3.82    1.90 
  11  11   1    1.70    1.78 
 -11 -11  -1    3.67    1.37 
  12 -12  -1    0.99    1.78 
  11 -12  -1    1.80    1.61 
  10 -12  -1    0.30    1.20 
   9 -12  -1   -0.52    0.96 
   8 -12  -1    1.55    1.33 
   8 -12  -1    0.38    0.88 
   7 -12  -1   16.59    2.10 
  -6  12   1   12.83    0.99 
   6 -12  -1    9.01    1.22 
   5 -12  -1   41.72    2.12 
   5 -12  -1   44.92    1.82 
   4 -12  -1    0.70    0.58 
   4 -12  -1    0.41    0.51 
   3 -12  -1  115.27    3.53 
   3 -12  -1  115.37    3.32 
   2 -12  -1   96.85    3.05 
   2 -12  -1   99.49    2.88 
   1 -12  -1    1.81    0.50 
   1 -12  -1    0.94    0.49 
   0 -12  -1  158.76    4.22 
   0 -12  -1  154.62    4.21 
  -1 -12  -1   11.01    0.90 
  -1 -12  -1   11.60    0.97 
  -2 -12  -1  252.20    6.48 
  -3 -12  -1  233.83    6.22 
  -4 -12  -1   25.07    1.53 
  -5 -12  -1    8.16    1.19 
   6  12   1    4.22    1.35 
  -6 -12  -1    3.37    0.97 
   7  12   1   10.23    1.99 
  -7 -12  -1    8.72    1.36 
   8  12   1   -0.81    1.04 
  -8 -12  -1    2.54    1.03 
  -9 -12  -1   19.01    2.01 
   9  12   1   17.63    2.72 
 -10 -12  -1    0.35    1.02 
  10  12   1    1.45    1.70 
 -11 -12  -1    1.18    1.23 
  12 -13  -1   -0.09    1.75 
  11 -13  -1   -0.50    1.63 
  10 -13  -1    1.13    1.34 
   9 -13  -1    7.89    1.54 
   8 -13  -1    1.61    1.00 
   8 -13  -1    2.29    1.36 
   7 -13  -1   34.85    2.12 
   6 -13  -1   12.76    1.43 
   5 -13  -1    0.57    0.63 
   5 -13  -1    1.63    0.58 
   4 -13  -1   13.44    1.25 
   4 -13  -1   13.50    1.08 
   3 -13  -1  113.97    3.53 
   3 -13  -1  111.74    3.34 
   2 -13  -1  120.77    3.62 
   2 -13  -1  122.03    3.46 
   1 -13  -1   30.50    1.47 
   1 -13  -1   31.02    1.39 
   0 -13  -1   32.09    1.48 
   0 -13  -1   32.02    1.50 
  -1 -13  -1  103.79    3.17 
  -1 -13  -1  109.94    3.28 
  -2 -13  -1  167.51    4.68 
  -3 -13  -1  116.28    3.69 
  -4 -13  -1    1.82    0.69 
  -5 -13  -1    4.02    0.91 
   6  13   1    5.09    1.42 
  -6 -13  -1    5.60    1.09 
   7  13   1    1.33    1.22 
  -7 -13  -1    2.03    0.97 
  -8 -13  -1   23.80    2.12 
   8  13   1   20.53    2.81 
   9  13   1    2.78    1.45 
  -9 -13  -1    2.21    1.11 
 -10 -13  -1    3.17    1.24 
 -11 -13  -1   -0.74    1.11 
  12 -14  -1    1.27    1.99 
  11 -14  -1    0.11    1.47 
  10 -14  -1    0.16    1.31 
   9 -14  -1   15.17    2.05 
   8 -14  -1    1.68    1.37 
   8 -14  -1    0.36    0.87 
   7 -14  -1    2.45    1.00 
   6 -14  -1    0.84    0.72 
   5 -14  -1   18.62    1.27 
   5 -14  -1   20.14    1.60 
   4 -14  -1   36.98    1.89 
   4 -14  -1   35.61    1.69 
   3 -14  -1   91.23    2.94 
   3 -14  -1   94.14    3.12 
   2 -14  -1   19.56    1.26 
   2 -14  -1   19.55    1.15 
   1 -14  -1   12.61    1.06 
   1 -14  -1   10.91    0.96 
   0 -14  -1  390.95    9.49 
   0 -14  -1  395.66    9.51 
  -1 -14  -1   71.09    2.46 
  -1 -14  -1   77.22    2.61 
  -2 -14  -1   49.20    2.06 
  -3 -14  -1   76.97    2.83 
  -4 -14  -1    4.17    0.91 
  -5 -14  -1    2.23    0.82 
  -6 -14  -1    0.13    0.69 
  -7 -14  -1    7.04    1.34 
  -8 -14  -1    2.08    1.08 
  -9 -14  -1   14.52    1.88 
 -10 -14  -1    1.83    1.23 
 -11 -14  -1   -0.10    1.21 
  11 -15  -1    1.81    1.66 
  10 -15  -1    2.30    1.49 
   9 -15  -1    1.82    1.20 
   8 -15  -1   19.29    2.07 
   7 -15  -1    5.70    1.22 
   6 -15  -1    1.27    0.78 
   5 -15  -1    3.08    0.88 
   5 -15  -1    4.63    0.86 
   4 -15  -1    7.60    1.08 
   4 -15  -1    7.73    0.98 
   3 -15  -1   15.75    1.31 
   3 -15  -1   16.65    1.25 
   2 -15  -1  105.31    3.36 
   2 -15  -1  107.51    3.29 
   1 -15  -1   43.05    1.82 
   1 -15  -1   41.69    1.81 
   0 -15  -1   15.54    1.18 
   0 -15  -1   12.93    1.13 
  -1 -15  -1   50.29    2.05 
  -1 -15  -1   50.34    1.96 
  -2 -15  -1  110.36    3.53 
  -3 -15  -1   69.81    2.68 
  -4 -15  -1    0.71    0.62 
  -5 -15  -1   15.78    1.57 
  -6 -15  -1    2.25    0.92 
  -7 -15  -1    1.23    0.90 
  -8 -15  -1   12.44    1.71 
  -9 -15  -1    0.07    0.95 
 -10 -15  -1    7.42    1.61 
 -11 -15  -1    0.89    1.34 
  11 -16  -1    2.03    1.69 
  10 -16  -1    5.52    1.79 
   9 -16  -1    0.35    1.13 
   8 -16  -1    9.56    1.59 
   7 -16  -1    9.99    1.50 
   6 -16  -1   -0.19    0.72 
   5 -16  -1    8.28    1.24 
   5 -16  -1    9.53    1.10 
   4 -16  -1    3.00    0.76 
   4 -16  -1    3.20    0.86 
   3 -16  -1   45.78    2.01 
   3 -16  -1   48.87    2.13 
   2 -16  -1   57.81    2.27 
   2 -16  -1   55.56    2.21 
   1 -16  -1    9.63    1.03 
   1 -16  -1    8.35    0.97 
   0 -16  -1   71.68    2.59 
   0 -16  -1   71.55    2.54 
  -1 -16  -1   12.20    1.07 
  -1 -16  -1   11.82    1.17 
  -2 -16  -1   18.76    1.19 
  -3 -16  -1   42.37    2.07 
  -4 -16  -1   11.77    1.32 
  -5 -16  -1    9.88    1.37 
  -6 -16  -1    0.34    0.76 
  -7 -16  -1   12.21    1.59 
  -8 -16  -1    2.01    1.12 
  -9 -16  -1    4.72    1.37 
 -10 -16  -1    0.55    1.16 
 -11 -16  -1   -1.38    1.27 
  11 -17  -1    2.55    1.74 
  10 -17  -1    1.74    1.50 
   9 -17  -1   -1.49    1.01 
   8 -17  -1    0.88    1.08 
   7 -17  -1   28.42    2.10 
   6 -17  -1   83.63    3.44 
   5 -17  -1    1.81    0.81 
   5 -17  -1    2.00    0.76 
   4 -17  -1   18.39    1.55 
   4 -17  -1   19.47    1.49 
   3 -17  -1   -1.02    0.51 
   3 -17  -1   -0.30    0.60 
   2 -17  -1   21.51    1.40 
   2 -17  -1   21.69    1.40 
   1 -17  -1  114.34    3.62 
   1 -17  -1  114.11    3.58 
   0 -17  -1   11.51    1.10 
   0 -17  -1    9.81    1.10 
  -1 -17  -1    1.18    0.64 
  -1 -17  -1    0.70    0.54 
  -2 -17  -1    2.05    0.75 
  -2 -17  -1    1.42    0.59 
  -3 -17  -1   30.23    1.79 
  -3 -17  -1   32.56    1.65 
  -4 -17  -1   45.51    2.26 
  -5 -17  -1   26.19    1.83 
  -6 -17  -1    8.52    1.39 
  -7 -17  -1    1.15    0.89 
  -8 -17  -1    6.56    1.44 
  -9 -17  -1    0.24    1.03 
 -10 -17  -1    4.25    1.43 
 -11 -17  -1    1.51    1.45 
  11 -18  -1    1.11    1.78 
  10 -18  -1    0.25    1.41 
   9 -18  -1    0.63    1.27 
   8 -18  -1    5.35    1.35 
   7 -18  -1   -0.71    0.81 
   6 -18  -1   31.43    2.16 
   5 -18  -1   93.13    3.34 
   5 -18  -1   94.81    3.56 
   4 -18  -1   17.58    1.56 
   4 -18  -1   14.41    1.41 
   3 -18  -1    0.42    0.65 
   3 -18  -1    1.32    0.74 
   2 -18  -1   30.34    1.68 
   2 -18  -1   27.68    1.61 
   1 -18  -1    8.33    1.10 
   1 -18  -1   12.00    1.16 
   0 -18  -1   26.98    1.62 
   0 -18  -1   27.37    1.51 
  -1 -18  -1    2.19    0.64 
  -1 -18  -1    2.72    0.75 
  -2 -18  -1   20.60    1.31 
  -2 -18  -1   24.12    1.55 
  -3 -18  -1    8.74    1.22 
  -3 -18  -1   10.12    1.08 
  -4 -18  -1   29.57    1.89 
  -5 -18  -1    1.09    0.85 
  -6 -18  -1    4.09    1.11 
  -7 -18  -1    3.54    1.10 
  -8 -18  -1   -1.13    0.88 
  -9 -18  -1   10.79    1.87 
 -10 -18  -1    0.75    1.29 
 -11 -18  -1   -1.22    1.43 
  11 -19  -1    0.08    1.82 
  10 -19  -1   -1.05    1.37 
   9 -19  -1   -0.79    1.23 
   8 -19  -1    1.82    1.11 
   7 -19  -1    4.23    1.22 
   6 -19  -1   16.23    1.78 
   5 -19  -1    9.32    1.39 
   5 -19  -1    8.95    1.21 
   4 -19  -1  166.92    5.02 
   4 -19  -1  152.28    4.87 
   3 -19  -1   33.14    1.85 
   3 -19  -1   33.38    1.84 
   2 -19  -1   -0.51    0.62 
   2 -19  -1    1.26    0.67 
   1 -19  -1    6.06    1.02 
   1 -19  -1    5.71    0.94 
   0 -19  -1    1.46    0.73 
   0 -19  -1    1.05    0.62 
  -1 -19  -1   18.19    1.26 
  -1 -19  -1   19.01    1.55 
  -2 -19  -1    5.38    1.05 
  -2 -19  -1    4.36    0.81 
  -3 -19  -1    7.95    1.20 
  -3 -19  -1    9.49    1.08 
  -4 -19  -1   21.06    1.83 
  -5 -19  -1   10.05    1.44 
  -6 -19  -1    0.16    0.80 
  -7 -19  -1   -0.07    0.81 
  -8 -19  -1    8.86    1.67 
  -9 -19  -1    1.71    1.27 
 -10 -19  -1    1.22    1.40 
 -11 -19  -1   -0.49    1.48 
  11 -20  -1   -0.47    1.64 
  10 -20  -1    1.28    1.61 
   9 -20  -1    1.02    1.44 
   8 -20  -1    1.19    1.16 
   7 -20  -1   -1.31    0.98 
   6 -20  -1   10.26    1.54 
   5 -20  -1   32.65    2.10 
   4 -20  -1   74.84    3.07 
   4 -20  -1   78.63    3.13 
   3 -20  -1  106.88    3.69 
   3 -20  -1  104.80    3.69 
   2 -20  -1  125.33    4.12 
   2 -20  -1  126.15    4.03 
   1 -20  -1    6.50    1.01 
   1 -20  -1    6.36    1.10 
   0 -20  -1    8.00    1.02 
   0 -20  -1    6.31    1.07 
  -1 -20  -1    9.96    1.26 
  -1 -20  -1    9.16    1.05 
  -2 -20  -1   63.06    2.70 
  -2 -20  -1   59.72    2.36 
  -3 -20  -1    0.42    0.63 
  -3 -20  -1    0.72    0.70 
  -4 -20  -1   45.50    2.05 
  -4 -20  -1   42.30    2.37 
  -5 -20  -1    1.86    0.93 
  -6 -20  -1    0.34    0.87 
  -7 -20  -1    7.67    1.44 
  -8 -20  -1   -0.15    0.96 
  -9 -20  -1    0.26    1.25 
 -10 -20  -1   -0.44    1.29 
  10 -21  -1   -0.13    1.49 
   9 -21  -1    5.41    1.75 
   8 -21  -1    6.38    1.59 
   7 -21  -1    2.68    1.14 
   6 -21  -1    0.77    0.95 
   5 -21  -1   14.42    1.71 
   4 -21  -1   66.03    2.86 
   4 -21  -1   64.29    2.85 
   3 -21  -1   17.64    1.62 
   3 -21  -1   17.03    1.56 
   2 -21  -1   27.58    1.67 
   2 -21  -1   22.53    1.68 
   1 -21  -1   24.19    1.68 
   1 -21  -1   23.73    1.53 
   0 -21  -1    3.98    0.95 
   0 -21  -1    3.16    0.77 
  -1 -21  -1   44.09    2.19 
  -1 -21  -1   34.41    1.78 
  -2 -21  -1   15.52    1.29 
  -2 -21  -1   12.41    1.45 
  -3 -21  -1    1.54    0.84 
  -3 -21  -1    1.50    0.71 
  -4 -21  -1   -0.21    0.77 
  -4 -21  -1    1.41    0.68 
  -5 -21  -1    0.25    0.80 
  -6 -21  -1    1.82    1.02 
  -7 -21  -1    2.34    1.10 
  -8 -21  -1    3.76    1.39 
  -9 -21  -1    2.44    1.40 
 -10 -21  -1    0.46    1.31 
  10 -22  -1    4.00    1.84 
   9 -22  -1   -0.41    1.31 
   8 -22  -1    1.59    1.29 
   7 -22  -1   12.63    1.89 
   6 -22  -1    8.04    1.44 
   5 -22  -1    0.62    0.97 
   4 -22  -1    1.09    0.87 
   4 -22  -1    2.03    0.93 
   3 -22  -1   24.98    1.68 
   3 -22  -1   25.92    1.95 
   2 -22  -1   94.86    3.41 
   2 -22  -1   98.44    3.66 
   1 -22  -1    3.31    0.82 
   1 -22  -1    3.92    1.04 
   0 -22  -1   30.67    1.67 
   0 -22  -1   25.21    1.78 
  -1 -22  -1    8.97    1.09 
  -1 -22  -1   10.45    1.38 
  -2 -22  -1   22.35    1.42 
  -2 -22  -1   18.69    1.73 
  -3 -22  -1   34.60    1.77 
  -3 -22  -1   31.44    2.08 
  -4 -22  -1   17.76    1.85 
  -5 -22  -1    7.23    1.43 
  -6 -22  -1    5.60    1.37 
  -7 -22  -1    4.80    1.44 
  -8 -22  -1    0.87    1.18 
  -9 -22  -1   -0.40    1.34 
 -10 -22  -1    0.47    1.50 
  10 -23  -1   -0.16    1.75 
   9 -23  -1    4.02    1.74 
   8 -23  -1    0.36    1.25 
   7 -23  -1    3.40    1.38 
   6 -23  -1   14.46    1.85 
   5 -23  -1    3.56    1.13 
   4 -23  -1    1.70    0.87 
   4 -23  -1    0.46    0.79 
   3 -23  -1    1.12    0.84 
   3 -23  -1    1.89    0.90 
   2 -23  -1    4.60    1.14 
   2 -23  -1    4.25    0.95 
   1 -23  -1   91.83    3.60 
   1 -23  -1   89.99    3.27 
   0 -23  -1    1.69    0.75 
   0 -23  -1    1.32    0.92 
  -1 -23  -1    0.73    0.56 
  -1 -23  -1    1.56    0.90 
  -2 -23  -1    0.75    0.66 
  -2 -23  -1    0.43    0.75 
  -3 -23  -1   13.21    1.68 
  -3 -23  -1   18.35    1.39 
  -4 -23  -1    7.69    1.42 
  -5 -23  -1    8.68    1.51 
  -6 -23  -1    3.61    1.23 
  -7 -23  -1    4.98    1.42 
  -8 -23  -1    3.30    1.38 
  -9 -23  -1    1.94    1.51 
 -10 -23  -1   -0.74    1.37 
  10 -24  -1    3.51    1.69 
   9 -24  -1   -1.18    1.32 
   8 -24  -1    0.89    1.43 
   7 -24  -1    0.14    1.14 
   6 -24  -1    1.34    1.09 
   5 -24  -1   13.88    1.86 
   4 -24  -1    0.30    0.82 
   4 -24  -1    0.87    0.92 
   3 -24  -1    5.02    1.21 
   3 -24  -1    4.45    1.05 
   2 -24  -1    2.92    1.10 
   2 -24  -1    3.22    0.91 
   1 -24  -1    2.21    0.79 
   1 -24  -1    1.41    0.91 
   0 -24  -1   58.08    2.79 
   0 -24  -1   57.64    2.50 
  -1 -24  -1    1.71    0.59 
  -1 -24  -1   -0.22    0.70 
  -2 -24  -1    2.22    0.99 
  -2 -24  -1    3.19    0.87 
  -3 -24  -1   18.50    1.91 
  -4 -24  -1   13.52    1.79 
  -5 -24  -1    5.52    1.35 
  -6 -24  -1    0.44    1.07 
  -7 -24  -1    0.39    1.11 
  -8 -24  -1   -0.46    1.16 
  -9 -24  -1    1.45    1.63 
   9 -25  -1    1.86    1.66 
   8 -25  -1    0.14    1.29 
   7 -25  -1    5.69    1.64 
   6 -25  -1    4.24    1.35 
   5 -25  -1   -0.09    1.10 
   4 -25  -1   17.90    1.87 
   4 -25  -1   15.28    1.78 
   3 -25  -1    3.88    1.17 
   3 -25  -1    2.64    1.00 
   2 -25  -1    5.98    1.15 
   2 -25  -1    6.75    1.32 
   1 -25  -1    2.21    0.86 
   1 -25  -1    0.17    0.99 
   0 -25  -1    1.40    0.77 
   0 -25  -1    2.65    0.98 
  -1 -25  -1   44.00    2.48 
  -2 -25  -1   -0.18    0.85 
  -2 -25  -1    0.58    0.71 
  -3 -25  -1    0.57    0.87 
  -4 -25  -1    2.05    1.03 
  -5 -25  -1    0.05    0.90 
  -6 -25  -1    0.01    0.95 
  -7 -25  -1    0.70    1.17 
  -8 -25  -1    2.58    1.50 
  -9 -25  -1    2.59    1.63 
   9 -26  -1    0.48    1.56 
   8 -26  -1    1.27    1.42 
   7 -26  -1    0.92    1.34 
   6 -26  -1    6.24    1.56 
   5 -26  -1    2.61    1.22 
   4 -26  -1    2.04    1.11 
   3 -26  -1   10.00    1.49 
   3 -26  -1    8.90    1.59 
   2 -26  -1    2.72    0.94 
   2 -26  -1    1.37    1.02 
   1 -26  -1   23.36    2.12 
   1 -26  -1   23.38    1.65 
   0 -26  -1    5.54    1.22 
   0 -26  -1    9.00    1.22 
  -1 -26  -1    6.45    1.27 
  -1 -26  -1    3.09    0.70 
  -2 -26  -1   17.71    1.45 
  -2 -26  -1   16.56    1.94 
  -3 -26  -1    2.08    1.05 
  -4 -26  -1    3.69    1.26 
  -5 -26  -1    0.72    1.06 
  -6 -26  -1    5.60    1.54 
  -7 -26  -1    0.31    1.32 
  -8 -26  -1   -0.14    1.43 
  -9 -26  -1   -0.10    1.55 
   9 -27  -1    0.69    1.80 
   8 -27  -1    0.46    1.54 
   7 -27  -1    6.89    1.74 
   6 -27  -1    6.48    1.58 
   5 -27  -1    0.06    1.06 
   4 -27  -1    7.12    1.41 
   3 -27  -1   10.02    1.76 
   3 -27  -1    8.82    1.45 
   2 -27  -1    0.69    0.80 
   2 -27  -1    0.74    0.98 
   1 -27  -1    5.50    1.37 
   1 -27  -1    4.94    1.10 
   0 -27  -1   15.57    1.90 
   0 -27  -1   15.90    1.52 
  -1 -27  -1    0.64    0.55 
  -1 -27  -1    0.14    0.83 
  -2 -27  -1    5.78    1.36 
  -3 -27  -1    6.93    1.51 
  -4 -27  -1    0.12    1.04 
  -5 -27  -1    1.34    1.15 
  -6 -27  -1    5.27    1.61 
  -7 -27  -1   -0.26    1.34 
  -8 -27  -1    0.11    1.54 
  -9 -27  -1    0.30    1.48 
   9 -28  -1   -0.52    1.50 
   8 -28  -1    0.16    1.50 
   7 -28  -1    1.04    1.46 
   6 -28  -1    2.97    1.46 
   5 -28  -1    4.25    1.33 
   4 -28  -1   -0.53    0.91 
   3 -28  -1    1.60    1.27 
   3 -28  -1    1.47    0.97 
   2 -28  -1    5.16    1.40 
   2 -28  -1    4.50    1.09 
   1 -28  -1    9.52    1.59 
   1 -28  -1    9.10    1.36 
   0 -28  -1   13.67    1.47 
   0 -28  -1   11.21    1.75 
  -1 -28  -1   24.29    2.28 
  -2 -28  -1    0.27    0.85 
  -3 -28  -1    0.38    1.05 
  -4 -28  -1    2.72    1.17 
  -5 -28  -1    0.35    1.14 
  -6 -28  -1    0.13    1.20 
  -7 -28  -1    0.78    1.39 
  -8 -28  -1    1.59    1.51 
   8 -29  -1    0.76    1.49 
   7 -29  -1    3.78    1.71 
   6 -29  -1    1.28    1.37 
   5 -29  -1    0.08    1.10 
   4 -29  -1    3.34    1.20 
   3 -29  -1    0.87    1.30 
   3 -29  -1   -0.68    0.88 
   2 -29  -1    2.68    1.23 
   2 -29  -1    5.62    1.24 
   1 -29  -1   21.66    1.79 
   1 -29  -1   21.58    2.24 
   0 -29  -1    1.57    0.92 
   0 -29  -1    2.30    1.21 
  -1 -29  -1    2.01    1.14 
  -2 -29  -1    0.69    0.95 
  -3 -29  -1    2.05    1.27 
  -4 -29  -1    0.74    1.18 
  -5 -29  -1    0.72    1.24 
  -6 -29  -1    0.13    1.34 
  -7 -29  -1    2.15    1.51 
  -8 -29  -1   -0.74    1.46 
   8 -30  -1   -1.01    1.52 
   7 -30  -1    4.98    1.78 
   6 -30  -1    3.60    1.53 
   5 -30  -1    2.32    1.44 
   4 -30  -1    0.90    1.29 
   3 -30  -1    1.22    1.09 
   3 -30  -1    0.72    1.32 
   2 -30  -1    1.81    1.10 
   2 -30  -1    1.86    1.22 
   1 -30  -1    1.41    1.11 
   1 -30  -1    1.28    0.87 
   0 -30  -1   11.93    1.48 
   0 -30  -1   11.83    1.81 
  -1 -30  -1    3.01    1.27 
  -2 -30  -1    4.04    1.37 
  -3 -30  -1   10.14    1.83 
  -4 -30  -1   -0.03    1.19 
  -5 -30  -1    0.69    1.24 
  -6 -30  -1    0.36    1.49 
  -7 -30  -1    4.47    1.78 
  -8 -30  -1    3.72    1.73 
   7 -31  -1   -0.17    1.52 
   6 -31  -1    0.27    1.54 
   5 -31  -1   -0.19    1.28 
   4 -31  -1   -0.82    1.25 
   3 -31  -1    2.00    1.18 
   2 -31  -1    0.79    1.02 
   2 -31  -1    1.49    1.25 
   1 -31  -1    0.38    1.15 
   1 -31  -1    0.10    0.85 
   0 -31  -1    0.14    1.20 
  -1 -31  -1   18.11    2.28 
  -2 -31  -1    2.39    1.24 
  -3 -31  -1    1.72    1.31 
  -4 -31  -1    1.46    1.35 
  -5 -31  -1    0.26    1.33 
  -6 -31  -1    1.61    1.64 
  -7 -31  -1    0.91    1.52 
   7 -32  -1    0.33    1.54 
   6 -32  -1   -1.46    1.42 
   5 -32  -1   -0.24    1.32 
   4 -32  -1    0.61    1.35 
   3 -32  -1    0.18    1.11 
   2 -32  -1    6.25    1.88 
   2 -32  -1    6.58    1.41 
   1 -32  -1    1.10    1.34 
   1 -32  -1    1.06    1.17 
   0 -32  -1    2.03    1.31 
  -1 -32  -1   -0.43    1.06 
  -2 -32  -1    8.93    1.78 
  -3 -32  -1    1.96    1.38 
  -4 -32  -1   -1.66    1.17 
  -5 -32  -1    1.29    1.57 
  -6 -32  -1    1.07    1.76 
  -7 -32  -1   -1.42    1.35 
   6 -33  -1    0.76    1.49 
   5 -33  -1    0.58    1.41 
   4 -33  -1    0.44    1.35 
   3 -33  -1    5.12    1.50 
   2 -33  -1    2.53    1.27 
   2 -33  -1    3.32    1.75 
   1 -33  -1   10.60    2.01 
   0 -33  -1    2.90    1.37 
  -1 -33  -1    4.76    1.68 
  -2 -33  -1    2.00    1.55 
  -3 -33  -1    3.53    1.57 
  -4 -33  -1   -0.42    1.20 
  -5 -33  -1    0.14    1.44 
  -6 -33  -1    0.61    1.68 
   6 -34  -1    0.35    1.76 
   5 -34  -1   -0.39    1.48 
   4 -34  -1   -1.45    1.32 
   3 -34  -1    1.71    1.33 
   2 -34  -1    7.23    1.75 
   2 -34  -1    7.21    2.13 
   1 -34  -1    2.30    1.65 
   0 -34  -1   17.82    2.42 
  -1 -34  -1    3.04    1.54 
  -2 -34  -1    0.80    1.38 
  -3 -34  -1    1.56    1.48 
  -4 -34  -1    2.40    1.62 
  -5 -34  -1   -0.41    1.44 
  -6 -34  -1   -1.26    1.46 
   5 -35  -1   -0.26    1.58 
   4 -35  -1    0.46    1.53 
   3 -35  -1    8.29    2.02 
   1 -35  -1   17.90    2.65 
   0 -35  -1    1.85    1.66 
  -1 -35  -1    3.64    1.72 
  -2 -35  -1    6.03    1.90 
  -3 -35  -1    3.84    1.73 
  -4 -35  -1    1.69    1.58 
  -5 -35  -1    1.99    1.63 
   5 -36  -1    0.68    1.67 
   4 -36  -1   -0.81    1.56 
   1 -36  -1    3.72    1.94 
   0 -36  -1    7.15    1.99 
  -1 -36  -1    3.55    1.83 
  -2 -36  -1    3.52    1.77 
  -3 -36  -1    7.16    2.09 
  -4 -36  -1    0.64    1.56 
   4 -37  -1    0.50    1.50 
   1 -37  -1    6.44    2.05 
   0 -37  -1   -0.53    1.57 
  -1 -37  -1    7.78    2.08 
  -2 -37  -1    2.98    1.72 
  -3 -37  -1    2.19    1.71 
   0 -38  -1    3.95    1.90 
  -1 -38  -1   -0.02    1.65 
  -2 -38  -1    2.12    1.72 
  -2 -38   2    1.41    1.80 
  -1 -38   2    2.54    1.93 
   0 -38   2    2.06    1.89 
   1 -38   2    0.81    2.06 
   2 -38   2    0.46    2.01 
  -3 -37   2   -0.14    1.53 
  -2 -37   2    2.44    1.90 
  -1 -37   2   -0.89    1.53 
   0 -37   2    1.41    1.85 
   1 -37   2   -1.27    1.67 
   2 -37   2    1.15    1.84 
  -4 -36   2    0.80    1.53 
  -3 -36   2    3.06    1.76 
  -2 -36   2    0.78    1.51 
  -1 -36   2    1.74    1.94 
   0 -36   2    0.20    1.66 
   1 -36   2    1.64    1.98 
   2 -36   2    1.09    1.90 
   3 -36   2    0.15    1.83 
  -5 -35   2    0.13    1.50 
  -4 -35   2    6.64    2.10 
  -3 -35   2    0.10    1.55 
  -2 -35   2    1.57    1.56 
  -1 -35   2   -0.12    1.53 
   0 -35   2   -1.69    1.40 
   1 -35   2    2.89    2.11 
   2 -35   2    0.83    1.70 
   3 -35   2    3.12    2.05 
  -6 -34   2    1.72    1.71 
  -5 -34   2   12.46    2.47 
  -4 -34   2    1.96    1.58 
  -3 -34   2    4.52    1.84 
  -2 -34   2   -0.16    1.34 
  -1 -34   2    2.78    1.78 
   0 -34   2   -1.79    1.40 
   1 -34   2    0.23    1.76 
   2 -34   2   -1.16    1.47 
   3 -34   2    0.05    1.84 
   5 -34   2   -0.01    1.44 
  -6 -33   2    4.44    1.81 
  -5 -33   2    4.09    1.88 
  -4 -33   2    6.31    1.89 
  -3 -33   2    0.69    1.40 
  -2 -33   2    2.48    1.59 
  -1 -33   2    0.21    1.50 
   0 -33   2    1.06    1.46 
   1 -33   2    1.88    1.73 
   2 -33   2    0.53    1.56 
   3 -33   2    0.56    1.63 
   4 -33   2    3.91    1.51 
   5 -33   2    5.08    1.78 
   6 -33   2    2.71    1.79 
  -7 -32   2    3.83    1.81 
  -6 -32   2    4.76    1.85 
  -5 -32   2    6.50    1.92 
  -4 -32   2    1.13    1.36 
  -3 -32   2    9.48    2.08 
  -2 -32   2    0.79    1.31 
  -1 -32   2    1.69    1.36 
   0 -32   2    2.10    1.48 
   1 -32   2    3.15    1.64 
   2 -32   2    2.39    1.53 
   3 -32   2    1.17    1.66 
   4 -32   2    7.61    1.71 
   4 -32   2    5.12    2.10 
   5 -32   2   -0.96    1.24 
   6 -32   2   -0.76    1.46 
  -7 -31   2    2.11    1.63 
  -6 -31   2    3.61    1.63 
  -5 -31   2   -0.36    1.19 
  -4 -31   2    3.48    1.61 
  -3 -31   2    1.36    1.25 
  -2 -31   2    0.14    1.11 
  -1 -31   2    0.84    1.21 
   0 -31   2    1.16    1.32 
   1 -31   2    1.16    1.31 
   2 -31   2    1.19    1.55 
   3 -31   2    1.74    1.15 
   3 -31   2    1.09    1.53 
   4 -31   2    2.60    1.31 
   4 -31   2    3.14    1.77 
   5 -31   2    1.20    1.39 
   6 -31   2    3.47    1.58 
   7 -31   2   -0.35    1.61 
  -8 -30   2    1.62    1.53 
  -7 -30   2    3.30    1.75 
  -6 -30   2   -1.51    1.15 
  -5 -30   2    5.36    1.77 
  -4 -30   2    0.62    1.23 
  -3 -30   2    2.48    1.38 
  -2 -30   2    0.06    1.04 
  -1 -30   2    3.20    1.31 
   0 -30   2    1.60    1.40 
   1 -30   2    1.19    1.22 
   2 -30   2    0.73    1.30 
   3 -30   2    1.32    1.01 
   3 -30   2   -0.69    1.26 
   4 -30   2    0.85    1.52 
   4 -30   2    0.27    1.01 
   5 -30   2    3.64    1.39 
   6 -30   2    0.69    1.43 
   7 -30   2   11.57    2.34 
  -8 -29   2    3.11    1.65 
  -7 -29   2    0.49    1.40 
  -6 -29   2    1.28    1.41 
  -5 -29   2    3.93    1.49 
  -4 -29   2   10.96    1.89 
  -3 -29   2    2.18    1.22 
  -2 -29   2    4.93    1.47 
  -1 -29   2    0.74    0.98 
   0 -29   2   -0.74    1.07 
   1 -29   2    6.70    1.64 
   2 -29   2   -0.88    0.83 
   2 -29   2    1.04    1.24 
   3 -29   2    4.17    1.16 
   3 -29   2    3.41    1.53 
   4 -29   2    0.41    1.44 
   4 -29   2    2.88    1.10 
   5 -29   2    1.24    1.11 
   6 -29   2   16.49    2.33 
   7 -29   2    0.85    1.60 
   8 -29   2    6.14    2.07 
  -9 -28   2    1.15    1.49 
  -8 -28   2    2.15    1.74 
  -7 -28   2    2.17    1.56 
  -6 -28   2    2.59    1.39 
  -5 -28   2    5.40    1.52 
  -4 -28   2   -0.15    1.02 
  -3 -28   2   28.04    2.65 
  -2 -28   2    3.70    1.26 
  -1 -28   2    2.30    1.19 
   0 -28   2   22.59    2.47 
   1 -28   2    2.88    1.29 
   2 -28   2    0.38    1.19 
   2 -28   2   -1.09    0.69 
   3 -28   2   -0.19    1.15 
   3 -28   2   -0.61    0.77 
   4 -28   2    0.06    0.89 
   4 -28   2    0.84    1.34 
   5 -28   2    7.89    1.92 
   5 -28   2    7.89    1.56 
   6 -28   2    3.32    1.45 
   7 -28   2    8.56    2.07 
   8 -28   2    1.18    1.69 
  -9 -27   2    1.82    1.53 
  -8 -27   2    2.18    1.50 
  -7 -27   2    0.59    1.22 
  -6 -27   2    1.76    1.23 
  -5 -27   2    3.33    1.28 
  -4 -27   2   31.69    2.75 
  -3 -27   2    2.47    1.32 
  -2 -27   2    7.57    1.60 
  -1 -27   2    9.15    1.62 
   0 -27   2   16.59    2.10 
   1 -27   2   27.25    2.68 
   2 -27   2    0.14    0.74 
   2 -27   2    0.30    1.11 
   3 -27   2    3.55    1.05 
   3 -27   2    1.68    1.26 
   4 -27   2    6.40    1.28 
   4 -27   2    6.49    1.65 
   5 -27   2    2.34    1.26 
   5 -27   2    0.93    1.43 
   6 -27   2    8.65    1.76 
   8 -27   2    5.81    2.07 
  -9 -26   2   -1.97    1.21 
  -8 -26   2    2.23    1.45 
  -7 -26   2    5.69    1.57 
  -6 -26   2    2.60    1.26 
  -5 -26   2   26.44    2.56 
  -4 -26   2    5.27    1.43 
  -3 -26   2   19.03    2.23 
  -2 -26   2   32.02    2.63 
  -1 -26   2   15.72    1.94 
   0 -26   2   36.99    2.62 
   1 -26   2    1.14    1.04 
   1 -26   2    0.82    0.39 
   2 -26   2    0.51    1.11 
   2 -26   2    1.25    0.79 
   3 -26   2    0.93    0.74 
   3 -26   2    2.45    1.26 
   4 -26   2    4.42    1.15 
   4 -26   2    3.62    1.40 
   5 -26   2   13.79    2.13 
   5 -26   2   20.21    2.08 
   6 -26   2    2.79    1.33 
   7 -26   2    5.98    1.65 
   8 -26   2    2.59    1.70 
   9 -26   2    3.10    1.82 
 -10 -25   2    0.53    1.46 
  -9 -25   2    0.61    1.36 
  -8 -25   2    0.96    1.25 
  -7 -25   2    3.37    1.39 
  -6 -25   2    7.07    1.53 
  -5 -25   2    3.71    1.22 
  -4 -25   2   38.02    2.55 
  -3 -25   2   10.71    1.71 
  -2 -25   2    5.83    1.31 
  -1 -25   2   46.31    2.77 
   0 -25   2    1.02    0.52 
   0 -25   2    2.28    1.10 
   1 -25   2    0.55    0.38 
   1 -25   2    0.44    1.02 
   2 -25   2    6.27    1.07 
   2 -25   2    4.59    1.37 
   3 -25   2   15.22    2.06 
   3 -25   2   14.40    1.59 
   4 -25   2    0.05    0.79 
   4 -25   2   -0.09    1.06 
   5 -25   2    0.74    0.95 
   5 -25   2    0.28    1.10 
   6 -25   2    4.92    1.44 
   7 -25   2    0.16    1.22 
   8 -25   2    3.61    1.72 
   9 -25   2    3.41    1.80 
 -10 -24   2    1.57    1.41 
  -9 -24   2    0.74    1.27 
  -8 -24   2    0.51    1.10 
  -7 -24   2    4.01    1.35 
  -6 -24   2    9.49    1.68 
  -5 -24   2   24.98    2.35 
  -4 -24   2   17.88    2.01 
  -3 -24   2    0.74    0.99 
  -2 -24   2   19.55    2.04 
  -1 -24   2    3.15    1.11 
   0 -24   2    3.37    1.16 
   0 -24   2    4.62    0.79 
   1 -24   2    3.74    1.17 
   1 -24   2    1.06    0.44 
   2 -24   2   38.59    2.65 
   2 -24   2   41.92    2.09 
   3 -24   2    9.78    1.35 
   3 -24   2    6.95    1.58 
   4 -24   2   11.22    1.49 
   4 -24   2    6.46    1.58 
   5 -24   2    0.59    1.16 
   5 -24   2    0.69    0.97 
   6 -24   2    2.39    1.20 
   7 -24   2    3.06    1.42 
   8 -24   2    3.01    1.73 
   9 -24   2    6.34    2.07 
 -10 -23   2   -0.53    1.28 
  10  23  -2    0.78    2.04 
  -9 -23   2    0.18    1.22 
   9  23  -2    0.09    2.06 
   8  23  -2    0.22    1.88 
  -8 -23   2    2.20    1.23 
   7  23  -2    2.90    1.90 
  -7 -23   2    3.67    1.24 
  -6 -23   2    6.17    1.42 
   6  23  -2    5.75    1.76 
  -5 -23   2    1.34    0.97 
  -4 -23   2    1.64    0.91 
  -3 -23   2   22.83    2.12 
  -2 -23   2   28.40    2.09 
  -1 -23   2   31.25    2.20 
   0 -23   2    2.34    0.65 
   0 -23   2    0.93    0.88 
   1 -23   2   26.29    2.31 
   2 -23   2   25.94    1.65 
   2 -23   2   27.59    2.42 
   3 -23   2    6.19    1.47 
   3 -23   2    8.90    1.28 
   4 -23   2    8.80    1.39 
   4 -23   2    5.89    1.50 
   5 -23   2    0.75    0.90 
   5 -23   2    0.58    1.12 
   6 -23   2    1.17    0.97 
   6 -23   2    1.02    1.33 
   7 -23   2    3.85    1.49 
   8 -23   2    5.89    1.81 
   9 -23   2    0.58    1.73 
  10  22  -2    0.71    2.32 
 -10 -22   2    0.20    1.35 
   9  22  -2   -0.95    1.85 
  -9 -22   2   -0.94    1.16 
   8  22  -2    1.49    1.84 
  -8 -22   2    2.13    1.25 
   7  22  -2    3.69    1.68 
  -7 -22   2    3.93    1.32 
   6  22  -2    4.50    1.68 
  -6 -22   2    3.50    1.16 
   5  22  -2   -0.41    1.07 
  -5 -22   2    0.49    0.81 
  -4 -22   2   12.28    1.62 
  -3 -22   2   17.48    1.88 
  -2 -22   2    9.21    1.46 
  -1 -22   2   11.71    0.87 
  -1 -22   2   10.54    1.57 
   0 -22   2   64.00    3.10 
   0 -22   2   64.43    2.28 
   1 -22   2    1.26    0.98 
   1 -22   2    0.46    0.47 
   2 -22   2    5.48    0.92 
   2 -22   2    5.75    1.37 
   3 -22   2   19.47    2.10 
   3 -22   2   20.09    1.69 
   4 -22   2   36.39    2.51 
   4 -22   2   35.26    2.11 
   5 -22   2    0.32    0.80 
   5 -22   2    0.42    0.80 
   5 -22   2    1.01    0.95 
   6 -22   2   19.74    2.35 
   6 -22   2   21.36    2.16 
   7 -22   2    2.51    1.34 
   8 -22   2    0.90    1.35 
   9 -22   2    5.94    2.00 
  10 -22   2    2.17    1.92 
 -10 -21   2    4.35    1.64 
  10  21  -2   -0.70    2.05 
  -9 -21   2    1.67    1.18 
   9  21  -2    2.11    2.06 
   8  21  -2    1.53    1.69 
  -8 -21   2   -0.21    1.00 
  -7 -21   2    6.27    1.40 
   7  21  -2    6.26    1.95 
   6  21  -2    9.23    1.99 
  -6 -21   2   10.80    1.60 
  -5 -21   2   12.31    1.62 
   5  21  -2    9.20    2.06 
   4  21  -2    4.82    1.55 
  -4 -21   2    6.03    1.32 
  -3 -21   2   -0.40    0.73 
  -2 -21   2   32.87    2.16 
  -1 -21   2  102.46    3.93 
  -1 -21   2   96.13    2.83 
   0 -21   2    1.51    0.89 
   0 -21   2    0.13    0.45 
   1 -21   2    1.98    0.59 
   1 -21   2    2.91    1.02 
   2 -21   2   10.57    1.63 
   2 -21   2   10.85    1.17 
   3 -21   2    0.53    0.69 
   3 -21   2    1.40    0.99 
   4 -21   2    2.93    1.25 
   4 -21   2    2.29    0.91 
   5 -21   2    3.50    1.02 
   5 -21   2    1.01    1.10 
   6 -21   2    7.78    1.51 
   6 -21   2    6.95    1.64 
   7 -21   2   10.19    1.82 
   8 -21   2   -1.14    1.23 
   9 -21   2   -0.87    1.34 
  10 -21   2    3.89    1.95 
  11  20  -2    0.26    2.18 
 -11 -20   2   -0.82    1.49 
 -10 -20   2    1.73    1.41 
  10  20  -2    0.01    1.88 
   9  20  -2    3.47    2.09 
  -9 -20   2    2.97    1.26 
   8  20  -2    1.60    1.61 
  -8 -20   2    2.33    1.11 
   7  20  -2    0.42    1.25 
  -7 -20   2    1.38    0.99 
  -6 -20   2    4.81    1.24 
   6  20  -2    2.99    1.46 
   5  20  -2   20.68    2.68 
  -5 -20   2   21.40    1.96 
  -4 -20   2    1.24    0.87 
   4  20  -2    0.56    1.22 
  -3 -20   2   -0.23    0.77 
  -2 -20   2   13.11    1.60 
  -1 -20   2   82.97    2.46 
  -1 -20   2   83.52    3.41 
   0 -20   2   39.13    1.60 
   0 -20   2   34.17    2.15 
   1 -20   2    3.32    1.07 
   1 -20   2    4.24    0.74 
   2 -20   2   -0.35    0.79 
   2 -20   2    1.00    0.63 
   3 -20   2   10.91    1.64 
   3 -20   2   10.11    1.25 
   4 -20   2    0.45    0.91 
   4 -20   2    0.68    0.78 
   5 -20   2   -0.91    0.89 
   5 -20   2    1.27    0.87 
   6 -20   2    3.22    1.12 
   6 -20   2    2.97    1.36 
   7 -20   2    2.26    1.28 
   8 -20   2    1.61    1.36 
   9 -20   2    2.03    1.62 
  10 -20   2    1.18    1.65 
  11  19  -2   -0.18    2.22 
 -11 -19   2   -0.39    1.38 
 -10 -19   2    2.37    1.36 
  10  19  -2    2.62    2.35 
   9  19  -2    1.72    1.83 
  -9 -19   2   -0.26    1.05 
   8  19  -2    1.11    1.56 
  -8 -19   2    0.06    0.86 
   7  19  -2    4.28    1.66 
  -7 -19   2    2.79    1.02 
  -6 -19   2   16.02    1.84 
   6  19  -2   16.11    2.54 
   5  19  -2   21.71    2.69 
  -5 -19   2   21.54    1.94 
   4  19  -2   87.72    4.47 
  -4 -19   2   89.73    3.57 
   3  19  -2   25.73    2.57 
  -3 -19   2   26.32    1.82 
  -2 -19   2    3.80    0.41 
  -2 -19   2    3.60    0.99 
  -1 -19   2   47.66    2.47 
  -1 -19   2   52.71    1.73 
   0 -19   2   39.00    2.24 
   0 -19   2   41.57    1.63 
   1 -19   2    9.91    0.95 
   1 -19   2    9.39    1.40 
   2 -19   2    3.29    0.76 
   2 -19   2    1.45    0.82 
   3 -19   2    0.73    0.83 
   3 -19   2    1.17    0.71 
   4 -19   2   12.80    1.71 
   4 -19   2   12.96    1.45 
   5 -19   2   24.30    1.98 
   5 -19   2   22.28    2.20 
   6 -19   2    1.05    0.91 
   6 -19   2    2.17    1.20 
   7 -19   2    0.28    0.97 
   8 -19   2    1.40    1.16 
   9 -19   2    1.39    1.46 
  10 -19   2    1.58    1.64 
  11  18  -2    1.14    2.28 
 -11 -18   2   -1.73    1.27 
 -10 -18   2   -0.81    1.08 
  10  18  -2   -2.18    1.81 
   9  18  -2    0.04    1.61 
  -9 -18   2    0.56    0.97 
   8  18  -2   -0.33    1.33 
  -8 -18   2    0.18    0.94 
  -7 -18   2    0.32    0.76 
   7  18  -2    0.79    1.30 
   6  18  -2   26.34    3.05 
  -6 -18   2   27.66    2.03 
   5  18  -2   35.53    2.88 
  -5 -18   2   41.02    2.31 
  -4 -18   2    9.97    1.37 
   4  18  -2    9.79    1.84 
  -3 -18   2   66.80    2.85 
   3  18  -2   60.55    3.46 
  -2 -18   2  137.09    3.42 
  -2 -18   2  142.70    4.67 
  -1 -18   2   17.86    1.68 
  -1 -18   2   19.77    0.95 
   0 -18   2    1.94    0.48 
   0 -18   2   -0.40    0.61 
   1 -18   2    6.83    1.20 
   1 -18   2    8.81    0.88 
   2 -18   2    2.94    0.98 
   2 -18   2    3.12    0.74 
   3 -18   2   18.78    1.88 
   3 -18   2   20.53    1.54 
   4 -18   2   25.84    2.20 
   4 -18   2   23.23    1.64 
   5 -18   2    1.25    0.75 
   5 -18   2    0.32    0.89 
   6 -18   2    1.08    0.88 
   6 -18   2   -0.21    1.00 
   7 -18   2    3.48    1.52 
   7 -18   2    3.28    1.24 
   8 -18   2    2.00    1.27 
   9 -18   2   -1.30    1.23 
  10 -18   2    1.95    1.86 
  11  17  -2    2.07    2.41 
 -11 -17   2    4.06    1.60 
  10  17  -2    0.20    1.74 
 -10 -17   2    1.12    1.13 
   9  17  -2    0.99    1.64 
  -9 -17   2    1.67    1.12 
   8  17  -2    2.57    1.54 
  -8 -17   2    2.79    1.05 
   7  17  -2   17.84    2.73 
  -7 -17   2   14.93    1.73 
   6  17  -2   50.95    3.51 
  -6 -17   2   52.26    2.65 
   5  17  -2    7.40    1.71 
  -5 -17   2   10.50    1.43 
  -4 -17   2    2.09    0.78 
   4  17  -2    1.89    1.17 
   3  17  -2   33.44    2.45 
  -3 -17   2   31.71    1.89 
  -2 -17   2  113.83    4.04 
  -2 -17   2  118.35    2.94 
   2  17  -2  123.53    4.88 
  -1 -17   2   92.96    3.47 
  -1 -17   2   94.35    2.59 
   0 -17   2   14.82    1.53 
   0 -17   2   13.79    0.91 
   1 -17   2   16.33    1.07 
   1 -17   2   15.50    1.58 
   2 -17   2    0.17    0.66 
   2 -17   2   -0.01    0.48 
   3 -17   2    0.50    0.76 
   3 -17   2   -0.28    0.53 
   4 -17   2   18.76    1.58 
   4 -17   2   14.80    1.75 
   5 -17   2   20.07    1.81 
   5 -17   2   20.16    2.04 
   6 -17   2    3.44    1.25 
   6 -17   2    1.97    0.94 
   7 -17   2    6.65    1.43 
   7 -17   2    3.55    1.42 
   8 -17   2    2.77    1.34 
   9 -17   2    2.69    1.50 
  10 -17   2    0.29    1.72 
  11 -17   2    0.29    1.88 
  11  16  -2   -2.04    1.76 
 -10 -16   2    1.58    1.21 
  10  16  -2    1.30    1.86 
   9  16  -2    1.68    1.63 
  -9 -16   2    0.10    0.88 
  -8 -16   2   17.64    1.89 
   8  16  -2   17.77    2.80 
   7  16  -2   33.28    3.49 
  -7 -16   2   33.60    2.14 
   6  16  -2    2.92    1.25 
  -6 -16   2    2.97    0.94 
   5  16  -2    1.77    0.99 
  -5 -16   2    1.52    0.78 
  -4 -16   2   11.68    1.36 
   4  16  -2    8.92    1.71 
   3  16  -2   27.73    2.49 
  -3 -16   2   23.78    1.62 
   2  16  -2  145.75    5.38 
  -2 -16   2  140.56    3.41 
  -2 -16   2  141.97    4.56 
  -1 -16   2  177.00    5.33 
  -1 -16   2  176.72    4.34 
   0 -16   2   25.23    1.68 
   0 -16   2   26.84    1.19 
   1 -16   2    4.32    0.96 
   1 -16   2    2.43    0.56 
   2 -16   2   11.50    1.46 
   2 -16   2   12.48    1.10 
   3 -16   2    1.96    0.68 
   3 -16   2    2.32    0.92 
   4 -16   2   30.42    1.78 
   4 -16   2   31.39    2.09 
   5 -16   2   15.08    1.57 
   5 -16   2   15.99    1.87 
   6 -16   2    0.24    0.85 
   6 -16   2    1.10    0.83 
   7 -16   2   -0.43    0.92 
   7 -16   2    1.93    1.31 
   8 -16   2   -0.14    1.03 
   9 -16   2    1.17    1.50 
  10 -16   2    0.02    1.67 
  11 -16   2    3.36    2.05 
  12  15  -2   -2.11    1.94 
  11  15  -2    1.25    2.06 
 -10 -15   2    0.42    1.02 
  10  15  -2    1.77    1.72 
   9  15  -2   10.71    2.45 
  -9 -15   2   10.06    1.60 
   8  15  -2    7.52    2.04 
  -8 -15   2   11.09    1.56 
  -7 -15   2   18.28    1.76 
   7  15  -2   14.44    2.38 
   6  15  -2    0.74    1.09 
  -6 -15   2    1.19    0.74 
  -5 -15   2    4.72    1.03 
   5  15  -2    2.94    1.26 
   4  15  -2    9.36    1.70 
  -4 -15   2   10.86    1.28 
   3  15  -2   73.41    3.58 
  -3 -15   2   68.83    2.79 
  -2 -15   2   93.99    3.39 
   2  15  -2   98.76    4.05 
  -1 -15   2   93.65    3.37 
  -1 -15   2   96.34    2.54 
   0 -15   2  158.60    4.88 
   0 -15   2  159.21    4.09 
   1 -15   2  101.46    3.07 
   1 -15   2  111.11    3.83 
   2 -15   2   75.48    3.13 
   2 -15   2   79.56    2.69 
   3 -15   2   -0.08    0.68 
   3 -15   2   -0.08    0.51 
   4 -15   2    1.00    0.64 
   4 -15   2    2.03    0.90 
   5 -15   2   47.71    2.66 
   5 -15   2   46.27    2.38 
   6 -15   2   -0.27    0.72 
   6 -15   2    1.32    0.95 
   7 -15   2    3.31    1.11 
   8 -15   2    0.72    1.14 
   9 -15   2    0.22    1.31 
  10 -15   2    2.32    1.70 
  11 -15   2    5.14    2.14 
  12  14  -2   -2.31    2.01 
  11  14  -2    3.70    2.12 
 -10 -14   2    8.70    1.55 
  10  14  -2    9.93    2.65 
   9  14  -2    1.83    1.61 
  -9 -14   2    0.92    0.88 
   8  14  -2   19.04    2.85 
  -8 -14   2   21.68    1.90 
  -7 -14   2    1.55    0.84 
   7  14  -2   -0.55    1.16 
  -6 -14   2   21.39    1.57 
   6  14  -2   17.74    2.42 
   5  14  -2   25.77    2.65 
  -5 -14   2   21.70    1.55 
   4  14  -2    2.26    1.15 
  -4 -14   2    4.25    0.92 
   3  14  -2  140.83    5.40 
  -3 -14   2  142.32    4.41 
   2  14  -2    1.51    0.84 
  -2 -14   2    1.99    0.73 
  -1 -14   2   10.83    1.21 
   1  14  -2   12.68    1.47 
  -1 -14   2   11.45    0.65 
   0 -14   2  173.01    5.14 
   0 -14   2  173.54    4.37 
   1 -14   2   20.68    1.14 
   1 -14   2   20.81    1.64 
   2 -14   2  106.01    3.28 
   2 -14   2  107.08    3.79 
   3 -14   2    0.15    0.56 
   3 -14   2    1.18    0.83 
   4 -14   2   33.85    2.10 
   4 -14   2   31.50    1.80 
   5 -14   2    9.12    1.47 
   5 -14   2   10.70    1.34 
   6 -14   2    2.13    0.90 
   6 -14   2    2.00    1.10 
   7 -14   2    4.75    1.19 
  -7  14  -2    2.53    1.09 
   8 -14   2   -0.97    0.96 
   9 -14   2   -0.11    1.30 
  10 -14   2    6.39    2.02 
  11 -14   2    3.01    2.01 
  12  13  -2    0.58    2.02 
  11  13  -2    5.56    2.35 
 -10 -13   2    4.53    1.32 
  10  13  -2    6.08    2.11 
  -9 -13   2    5.60    1.27 
   9  13  -2    5.73    1.97 
   8  13  -2    6.12    1.89 
  -8 -13   2    4.23    1.06 
   7  13  -2    0.55    1.26 
  -7 -13   2    3.02    0.95 
  -6 -13   2    8.90    1.21 
   6  13  -2    8.17    1.75 
   5  13  -2   37.48    2.72 
  -5 -13   2   39.91    1.99 
  -4 -13   2    3.71    0.84 
   4  13  -2    5.59    1.41 
  -3 -13   2  233.49    6.40 
   3  13  -2  238.21    7.82 
  -2 -13   2    6.02    0.96 
   2  13  -2    4.51    1.09 
  -1 -13   2   61.24    2.45 
  -1 -13   2   63.38    1.76 
   1  13  -2   64.35    2.81 
   0 -13   2  158.26    4.00 
   0 -13   2  155.15    4.70 
   1 -13   2    9.26    1.19 
   1 -13   2   10.16    0.85 
   2 -13   2    1.24    0.51 
   2 -13   2    0.50    0.66 
   3 -13   2   49.40    2.41 
   3 -13   2   49.38    2.09 
   4 -13   2   13.43    1.32 
   4 -13   2   15.09    1.60 
   5 -13   2   46.60    2.57 
   5 -13   2   46.10    2.30 
   6 -13   2    1.08    0.82 
   6 -13   2    1.04    0.98 
   7 -13   2   11.65    1.67 
  -7  13  -2   12.77    1.67 
  -8  13  -2    0.81    0.89 
   8 -13   2    4.03    1.26 
   9 -13   2   -0.68    1.24 
  10 -13   2    1.14    1.68 
  11 -13   2    2.62    1.93 
  12  12  -2    8.70    2.70 
  11  12  -2    6.44    2.17 
  10  12  -2    4.48    2.13 
 -10 -12   2    4.88    1.33 
   9  12  -2   -0.41    1.35 
  -9 -12   2    2.05    0.94 
   8  12  -2    2.59    1.54 
  -8 -12   2    1.82    0.86 
  -7 -12   2   25.26    1.73 
   7  12  -2   25.06    2.86 
   6  12  -2   60.74    3.68 
  -6 -12   2   69.58    2.74 
   5  12  -2    2.52    1.26 
  -5 -12   2    2.87    0.79 
  -4 -12   2   43.57    2.03 
   4  12  -2   44.36    2.79 
  -3 -12   2    7.69    1.01 
   3  12  -2    7.80    1.40 
   2  12  -2   93.31    3.71 
  -2 -12   2   85.84    3.02 
  -1 -12   2    0.92    0.58 
   1  12  -2    1.41    0.74 
  -1 -12   2    2.63    0.32 
   0 -12   2   46.50    2.10 
   0 -12   2   50.22    1.61 
   1 -12   2   31.26    1.73 
   1 -12   2   30.38    1.32 
   2 -12   2   49.78    2.30 
   2 -12   2   50.94    1.94 
   3 -12   2   58.47    2.65 
   3 -12   2   60.87    2.36 
   4 -12   2    4.99    1.09 
   4 -12   2    4.14    0.87 
   5 -12   2   24.89    1.99 
   5 -12   2   19.85    1.66 
   6 -12   2   29.86    2.16 
   6 -12   2   30.12    2.01 
   7 -12   2    2.98    1.09 
  -7  12  -2    7.05    1.31 
   8 -12   2    6.70    1.48 
  -8  12  -2    1.72    0.95 
   9 -12   2   -1.17    1.11 
  10 -12   2    4.48    1.86 
  11 -12   2    1.64    1.87 
  12  11  -2    1.65    2.21 
  11  11  -2    3.16    2.10 
  10  11  -2    0.51    1.58 
 -10 -11   2    1.37    0.97 
   9  11  -2    3.11    1.65 
  -9 -11   2    5.27    1.08 
   8  11  -2   20.11    2.81 
  -8 -11   2   23.10    1.69 
   7  11  -2   31.38    3.14 
  -7 -11   2   29.43    1.82 
  -6 -11   2    5.50    0.99 
   6  11  -2    5.60    0.73 
   6  11  -2    5.28    1.55 
   5  11  -2    4.25    1.38 
  -5 -11   2    3.60    0.81 
  -4 -11   2   19.33    1.31 
   4  11  -2   16.64    2.01 
   3  11  -2   24.28    1.91 
  -3 -11   2   23.93    1.40 
  -2 -11   2   31.88    1.59 
   2  11  -2   29.97    1.93 
  -1 -11   2   41.44    1.83 
  -1 -11   2   40.85    1.21 
   1  11  -2   40.47    2.05 
   0  11  -2  156.38    4.89 
   0 -11   2  157.08    4.60 
   0 -11   2  159.70    3.94 
   1 -11   2    4.51    0.57 
   1 -11   2    5.01    0.89 
   2 -11   2   67.02    2.32 
   2 -11   2   70.34    2.75 
   3 -11   2  276.08    7.08 
   3 -11   2  273.01    7.52 
   4 -11   2    1.05    0.73 
   4 -11   2    1.33    0.66 
   5 -11   2   17.84    1.72 
   5 -11   2   13.74    1.44 
   6 -11   2   62.75    2.88 
  -7  11  -2    1.12    0.75 
   7 -11   2    0.59    0.87 
  -8  11  -2    0.86    0.94 
   8 -11   2    0.43    0.95 
   9 -11   2    3.67    1.40 
  10 -11   2    1.54    1.59 
  11 -11   2    0.45    1.78 
  12  10  -2    2.22    2.14 
  11  10  -2    2.92    2.08 
  10  10  -2    7.07    1.96 
 -10 -10   2    7.22    1.32 
  -9 -10   2   10.97    1.40 
   9  10  -2   11.02    2.30 
   8  10  -2   21.33    2.81 
  -8 -10   2   18.12    1.63 
   7  10  -2    0.63    0.67 
   7  10  -2   -0.02    1.01 
  -7 -10   2    1.24    0.72 
   6  10  -2   21.46    2.46 
  -6 -10   2   22.51    1.48 
   6  10  -2   22.62    1.26 
   5  10  -2   11.40    0.79 
   5  10  -2   14.34    2.03 
  -5 -10   2   13.64    1.20 
   4  10  -2    2.64    1.11 
  -4 -10   2    2.01    0.63 
  -3 -10   2    4.09    0.75 
   3  10  -2    3.33    1.03 
  -2 -10   2   15.84    1.11 
   2  10  -2   18.35    1.62 
   1  10  -2    4.10    0.89 
  -1 -10   2    5.02    0.77 
  -1 -10   2    4.60    0.35 
   0 -10   2   31.41    1.15 
   0 -10   2   32.91    1.61 
   0  10  -2   30.93    1.55 
   1 -10   2   16.89    1.32 
   1 -10   2   13.84    0.88 
   2 -10   2   21.29    1.20 
   2 -10   2   19.49    1.40 
   3 -10   2    1.20    0.73 
   3 -10   2    0.89    0.57 
   4 -10   2  101.48    3.45 
   4 -10   2  104.70    3.77 
   5 -10   2   -0.03    0.64 
   5 -10   2    0.42    0.73 
   5 -10   2    2.01    0.51 
   6 -10   2   13.67    1.59 
  -6  10  -2   12.66    1.58 
   7 -10   2    3.81    1.05 
  -7  10  -2    4.50    1.08 
   8 -10   2    2.32    1.17 
  -8  10  -2    3.21    1.11 
   9 -10   2    1.20    1.36 
  10 -10   2    3.28    1.66 
  11 -10   2   -2.04    1.52 
  12 -10   2    1.43    2.13 
  12   9  -2   -2.68    1.94 
  11   9  -2    2.53    2.02 
  10   9  -2    0.99    1.55 
   9   9  -2   22.72    3.05 
  -9  -9   2   23.12    1.72 
  -8  -9   2   21.90    1.62 
   8   9  -2   22.48    2.89 
  -7  -9   2   27.65    1.66 
   7   9  -2   28.57    3.00 
   7   9  -2   30.32    1.68 
   6   9  -2    1.00    0.61 
  -6  -9   2    2.37    0.74 
   6   9  -2    2.81    1.23 
  -5  -9   2    3.96    0.76 
   5   9  -2    2.54    0.50 
   5   9  -2    3.00    1.31 
  -4  -9   2   11.33    1.04 
   4   9  -2    9.18    1.57 
  -3  -9   2   14.24    1.09 
   3   9  -2   14.57    1.68 
  -2  -9   2    1.99    0.57 
   2   9  -2    3.35    0.89 
  -1  -9   2  214.28    5.69 
  -1  -9   2  219.34    5.03 
   1   9  -2  220.17    6.51 
   0   9  -2   18.40    1.16 
   0  -9   2   18.61    0.84 
   0  -9   2   17.79    1.20 
   1  -9   2    5.26    0.84 
   1  -9   2    4.09    0.57 
   2  -9   2    5.08    0.72 
   2  -9   2    4.23    0.83 
   3  -9   2   12.30    1.13 
   3  -9   2   16.52    1.45 
   4  -9   2   19.07    1.49 
   4  -9   2   18.68    1.65 
   5  -9   2   39.59    2.21 
   5  -9   2   35.89    2.02 
   5  -9   2   40.33    1.65 
  -6   9  -2   48.68    2.51 
   6  -9   2   47.41    2.47 
  -7   9  -2   -0.23    0.76 
   7  -9   2    0.77    0.81 
   8  -9   2    2.23    1.05 
  -8   9  -2    2.75    1.04 
   9  -9   2    2.21    1.25 
  10  -9   2    0.92    1.46 
  11  -9   2    2.18    1.83 
  12  -9   2    0.74    2.00 
  12   8  -2    1.72    2.20 
  11   8  -2    1.84    1.72 
  10   8  -2   10.69    2.28 
  -9  -8   2   13.49    1.45 
   9   8  -2   12.96    2.35 
   8   8  -2   15.64    1.59 
  -8  -8   2   14.77    1.41 
   8   8  -2   14.30    2.32 
   7   8  -2    1.04    0.76 
   7   8  -2    0.79    1.19 
  -7  -8   2    2.23    0.75 
   6   8  -2   24.52    1.37 
   6   8  -2   26.09    2.69 
  -6  -8   2   27.07    1.50 
  -5  -8   2    9.71    1.01 
   5   8  -2   10.15    1.77 
   5   8  -2   10.44    0.80 
   4   8  -2    4.67    1.23 
  -4  -8   2    5.81    0.79 
   4   8  -2    5.55    0.51 
  -3  -8   2   16.93    1.09 
   3   8  -2   20.50    1.84 
   2   8  -2   94.40    3.56 
  -2  -8   2   93.06    2.87 
   1   8  -2   30.60    1.61 
  -1  -8   2   30.86    1.42 
  -1  -8   2   30.21    0.94 
   0   8  -2  895.05   22.67 
   0  -8   2  862.07   19.48 
   0  -8   2  884.79   20.08 
   1  -8   2   69.22    2.15 
   1  -8   2   68.48    2.50 
   2  -8   2    2.79    0.59 
   2  -8   2    3.20    0.79 
   3  -8   2    5.08    0.97 
   3  -8   2    5.94    0.87 
   4  -8   2   13.00    1.38 
   4  -8   2   14.01    1.27 
   5  -8   2    4.94    0.66 
   5  -8   2    3.78    0.94 
   6  -8   2   73.69    3.14 
  -6   8  -2   80.25    3.24 
   6  -8   2   75.41    2.86 
   7  -8   2    8.53    1.45 
  -7   8  -2   11.68    1.50 
  -8   8  -2    6.05    1.32 
   8  -8   2    4.58    1.39 
   9  -8   2   -1.38    0.97 
  10  -8   2    1.17    1.54 
  11  -8   2   -1.32    1.69 
  12  -8   2    1.08    2.01 
  12   7  -2   -0.26    1.91 
  11   7  -2    7.66    2.37 
  10   7  -2    2.29    1.71 
  -9  -7   2   12.69    1.40 
   9   7  -2   13.80    2.40 
  -8  -7   2    5.41    1.00 
   8   7  -2    6.26    1.20 
   8   7  -2    6.54    1.77 
   7   7  -2   11.45    2.06 
   7   7  -2   11.23    1.21 
  -7  -7   2    9.48    1.11 
  -6  -7   2    5.21    0.85 
   6   7  -2    5.15    0.83 
   6   7  -2    5.62    1.51 
   5   7  -2    3.11    1.23 
   5   7  -2    4.03    0.61 
  -5  -7   2    4.47    0.73 
   4   7  -2    3.41    0.45 
   4   7  -2    3.45    1.13 
  -4  -7   2    3.96    0.68 
  -3  -7   2    1.97    0.51 
   3   7  -2    0.98    0.81 
   2   7  -2    2.59    0.86 
  -2  -7   2    3.58    0.59 
  -1  -7   2   77.59    1.98 
  -1  -7   2   79.72    2.47 
   1   7  -2   77.55    2.84 
   0   7  -2   58.24    2.07 
   0  -7   2   56.82    1.70 
   0  -7   2   56.19    2.11 
   1  -7   2   81.09    2.74 
   1  -7   2   78.53    2.36 
   2  -7   2   63.59    2.43 
   2  -7   2   57.76    2.08 
   3  -7   2    1.57    0.60 
   3  -7   2    2.70    0.78 
   4  -7   2   81.46    3.09 
   4  -7   2   77.62    2.88 
  -5   7  -2   -0.72    0.57 
   5  -7   2    1.74    0.49 
   5  -7   2    1.14    0.69 
  -6   7  -2   38.30    2.22 
   6  -7   2   43.75    2.00 
   6  -7   2   36.96    2.19 
  -7   7  -2   12.39    1.52 
   7  -7   2    9.57    1.51 
  -8   7  -2    1.29    0.95 
   8  -7   2    3.16    1.12 
   9  -7   2    1.67    1.29 
  -9   7  -2    2.43    1.12 
  10  -7   2    0.44    1.37 
  11  -7   2    3.34    1.99 
  12  -7   2    1.36    2.01 
  12   6  -2    4.08    2.16 
  11   6  -2    1.40    1.67 
  10   6  -2    3.31    1.66 
   9   6  -2    1.00    1.00 
  -9  -6   2   -0.11    0.51 
   9   6  -2    0.11    1.38 
  -8  -6   2   16.06    1.38 
   8   6  -2   17.51    1.64 
   8   6  -2   18.48    2.53 
  -7  -6   2    4.25    0.81 
   7   6  -2    2.43    0.84 
   7   6  -2    3.37    1.30 
  -6  -6   2   16.49    1.13 
   6   6  -2   16.36    2.25 
   6   6  -2   16.23    1.16 
  -5  -6   2   17.00    1.09 
   5   6  -2   23.11    2.33 
   5   6  -2   17.61    1.01 
   4   6  -2   22.12    0.95 
   4   6  -2   22.78    1.92 
  -4  -6   2   22.96    1.19 
   3   6  -2  207.79    4.73 
  -3  -6   2  203.55    5.22 
   3   6  -2  204.55    6.70 
   2   6  -2  223.61    6.82 
  -2  -6   2  220.69    5.57 
   1   6  -2  130.99    4.15 
  -1  -6   2  124.70    3.51 
   0  -6   2  543.54   12.72 
   0   6  -2  548.53   14.22 
   1  -6   2   53.82    2.07 
   1  -6   2   51.11    1.75 
   2  -6   2  325.80    8.30 
   2  -6   2  328.67    7.95 
   3  -6   2    6.12    0.86 
   3  -6   2    4.76    0.89 
   4  -6   2   17.19    0.92 
   4  -6   2   18.02    1.55 
   4  -6   2   17.20    1.42 
  -5   6  -2   22.12    1.73 
   5  -6   2   23.51    1.25 
   5  -6   2   21.31    1.67 
   6  -6   2    9.61    1.38 
  -6   6  -2    6.43    1.19 
   6  -6   2   10.67    1.15 
   7  -6   2    0.24    0.81 
  -7   6  -2    1.86    0.83 
   8  -6   2    1.15    1.13 
  -8   6  -2    1.26    0.87 
   9  -6   2    1.15    1.20 
  -9   6  -2   -0.01    0.94 
  10  -6   2    6.13    1.80 
  11  -6   2    1.79    1.84 
  12  -6   2    1.29    2.04 
  12   5  -2   -1.10    1.77 
  11   5  -2    2.59    1.78 
  10   5  -2    0.15    1.40 
  -9  -5   2    1.54    0.63 
   9   5  -2    0.78    0.96 
   9   5  -2    1.96    1.44 
  -8  -5   2    0.37    0.39 
   8   5  -2    1.36    1.30 
   8   5  -2    0.08    0.88 
   7   5  -2    1.21    1.03 
   7   5  -2    0.22    0.73 
  -7  -5   2    0.00    0.35 
   6   5  -2    1.76    1.16 
  -6  -5   2    2.23    0.56 
   6   5  -2    2.19    0.66 
   5   5  -2    4.67    1.30 
   5   5  -2    3.04    0.58 
  -5  -5   2    4.22    0.68 
   4   5  -2    6.32    0.55 
  -4  -5   2    5.46    0.67 
   4   5  -2    7.31    1.44 
   3   5  -2   29.41    1.99 
  -3  -5   2   29.03    1.24 
   3   5  -2   27.95    0.91 
  -2  -5   2   96.34    2.75 
   2   5  -2   95.37    3.59 
  -1  -5   2  471.64   10.94 
   1   5  -2  469.95   12.70 
   0  -5   2    3.90    0.62 
   0   5  -2    3.80    0.56 
   1  -5   2    7.20    0.85 
   1  -5   2    6.08    0.63 
   2  -5   2    9.04    0.86 
   2  -5   2    7.57    0.98 
   3  -5   2  151.38    4.32 
   3  -5   2  152.59    4.54 
  -4   5  -2    5.53    1.00 
   4  -5   2    5.84    0.60 
   4  -5   2    4.91    0.89 
   5  -5   2   15.22    1.06 
   5  -5   2   16.31    1.48 
  -5   5  -2   15.07    1.45 
   6  -5   2   40.65    2.26 
  -6   5  -2   43.21    2.26 
   6  -5   2   44.78    2.10 
  -7   5  -2    9.78    1.41 
   7  -5   2   10.37    1.51 
   7  -5   2   15.32    1.50 
  -8   5  -2   11.81    1.51 
   8  -5   2   10.19    1.68 
  -9   5  -2    2.08    1.02 
   9  -5   2    3.72    1.40 
  10  -5   2    0.62    1.37 
  11  -5   2    2.76    1.96 
  12  -5   2   -0.69    2.11 
  12   4  -2    5.61    2.31 
  11   4  -2    0.10    1.64 
  10   4  -2    0.95    1.41 
  10   4  -2    3.07    1.48 
   9   4  -2   -1.18    1.03 
   9   4  -2   -0.03    1.14 
  -8  -4   2    1.62    0.65 
   8   4  -2    1.84    1.21 
   8   4  -2    1.22    0.94 
  -7  -4   2    6.40    0.85 
   7   4  -2    6.48    1.02 
   7   4  -2    6.43    1.60 
   6   4  -2   14.15    2.04 
   6   4  -2   12.18    1.07 
   5   4  -2    7.62    0.74 
   5   4  -2    7.52    1.56 
   4   4  -2   11.72    0.68 
   4   4  -2   12.29    1.70 
  -4  -4   2    6.91    0.65 
   3   4  -2   50.99    1.41 
   3   4  -2   47.81    2.59 
  -3  -4   2   48.83    1.64 
  -2  -4   2    2.88    0.47 
   2   4  -2    2.61    0.83 
   2   4  -2    2.58    0.27 
   1   4  -2   59.01    2.36 
  -1  -4   2   57.99    1.88 
   0  -4   2  474.44   11.14 
   0   4  -2  477.84   12.53 
   1  -4   2   71.18    2.21 
   1  -4   2   74.69    2.50 
   2  -4   2  206.52    5.52 
   2  -4   2  199.31    5.23 
   3  -4   2   11.30    1.06 
   3  -4   2   12.06    1.19 
   4  -4   2  103.73    3.44 
  -4   4  -2  104.31    3.55 
   4  -4   2  100.84    3.18 
  -5   4  -2    6.59    1.08 
   5  -4   2    5.86    1.07 
   5  -4   2    8.97    0.93 
   6  -4   2    0.13    0.72 
   6  -4   2    0.79    0.69 
  -6   4  -2   -0.29    0.62 
  -7   4  -2   39.91    2.21 
   7  -4   2   35.71    2.28 
   7  -4   2   34.82    2.14 
   8  -4   2    7.43    1.52 
  -8   4  -2    6.61    1.29 
  -9   4  -2    3.78    1.08 
   9  -4   2    4.85    1.42 
  10  -4   2    3.66    1.58 
  11  -4   2    0.98    1.75 
  12  -4   2    3.88    2.20 
  12   3  -2    2.15    2.19 
  11   3  -2    1.56    1.67 
  10   3  -2    0.95    1.30 
  10   3  -2    1.62    1.40 
   9   3  -2    0.69    1.29 
   9   3  -2   -0.55    0.93 
  -8  -3   2    7.08    0.92 
   8   3  -2    6.64    1.71 
   8   3  -2    4.49    1.11 
   7   3  -2    1.68    0.76 
   7   3  -2    4.24    1.38 
  -7  -3   2    3.38    0.69 
   6   3  -2    1.13    1.09 
   6   3  -2    1.40    0.55 
  -6  -3   2    0.99    0.47 
   5   3  -2    3.19    0.59 
   5   3  -2    3.69    1.27 
  -5  -3   2    3.58    0.58 
   4   3  -2    8.19    0.63 
   4   3  -2    8.67    1.49 
  -4  -3   2    5.34    0.55 
   3   3  -2    1.46    0.30 
   3   3  -2    0.85    0.75 
  -2  -3   2   87.25    2.43 
   2   3  -2   88.06    3.43 
   2   3  -2   89.88    2.23 
   1   3  -2   78.77    2.94 
  -1  -3   2   79.23    2.32 
   0  -3   2   62.72    2.04 
   0   3  -2   66.85    2.19 
   0  -3   2   52.94    1.74 
   1  -3   2 1874.03   41.03 
   1  -3   2 1832.40   40.64 
   2  -3   2   25.55    1.30 
   2  -3   2   25.20    1.40 
   3  -3   2   65.86    2.05 
   3  -3   2   65.04    2.37 
  -3   3  -2   64.97    2.49 
   4  -3   2   63.55    2.50 
  -4   3  -2   61.80    2.51 
   4  -3   2   60.19    2.20 
   5  -3   2   35.29    1.73 
  -5   3  -2   32.01    1.85 
   5  -3   2   32.15    1.89 
   6  -3   2   22.09    1.86 
   6  -3   2   20.03    1.53 
  -6   3  -2   22.90    1.66 
   7  -3   2   -0.11    0.89 
   7  -3   2    0.23    0.90 
  -7   3  -2   -0.59    0.65 
  -8   3  -2   23.85    2.00 
   8  -3   2   19.68    2.21 
   9  -3   2    5.66    1.56 
  -9   3  -2    4.35    1.13 
  10  -3   2    1.98    1.60 
  11  -3   2    0.48    1.78 
  12  -3   2   -0.03    2.07 
  12   2  -2    1.85    1.90 
  11   2  -2   -2.09    1.37 
  10   2  -2    2.93    1.32 
  10   2  -2    4.03    1.62 
   9   2  -2    6.34    1.77 
   9   2  -2    7.69    1.45 
   8   2  -2    5.95    1.21 
   8   2  -2    2.95    1.37 
  -8  -2   2    5.53    0.80 
   7   2  -2    1.29    0.72 
   7   2  -2    3.13    1.43 
  -7  -2   2    2.54    0.62 
   6   2  -2    2.46    0.65 
   6   2  -2    3.83    1.43 
  -6  -2   2    2.51    0.54 
  -5  -2   2   20.62    1.04 
   5   2  -2   24.21    2.40 
   5   2  -2   20.89    1.11 
   4   2  -2   45.44    1.53 
  -4  -2   2   45.47    1.51 
   4   2  -2   46.06    2.71 
   3   2  -2   29.56    2.03 
  -3  -2   2   30.24    1.09 
   3   2  -2   30.96    1.07 
   2   2  -2  611.44   13.47 
   2   2  -2  597.75   16.45 
  -1  -2   2    1.42    0.39 
   0  -2   2  325.73    7.80 
   1  -2   2    4.73    0.61 
   1  -2   2    6.59    0.79 
   2  -2   2  491.42   11.41 
   2  -2   2  481.97   11.58 
  -3   2  -2   23.03    1.39 
   3  -2   2   20.33    1.28 
   3  -2   2   20.14    0.97 
   4  -2   2  132.22    4.11 
   4  -2   2  135.57    4.14 
  -4   2  -2  135.38    4.21 
  -5   2  -2  116.65    3.95 
   5  -2   2  117.07    3.95 
   5  -2   2  116.46    3.93 
   6  -2   2   34.99    2.12 
   6  -2   2   36.30    2.04 
  -6   2  -2   35.53    2.01 
   7  -2   2    3.61    1.13 
  -7   2  -2    2.71    0.87 
   7  -2   2    3.57    1.13 
   8  -2   2    4.33    1.30 
   8  -2   2    5.39    1.30 
  -8   2  -2    4.75    1.16 
  -9   2  -2    1.82    0.96 
   9  -2   2    1.75    1.26 
  10  -2   2   -0.65    1.34 
 -10   2  -2    0.36    1.07 
  11  -2   2    0.27    1.74 
  12  -2   2    0.63    2.16 
  12   1  -2    2.57    2.02 
  11   1  -2    3.20    1.82 
  11   1  -2    2.63    1.66 
  10   1  -2    1.50    1.50 
  10   1  -2    1.87    1.19 
   9   1  -2    4.82    1.25 
   9   1  -2    7.32    1.80 
   8   1  -2    0.88    0.91 
   8   1  -2    4.10    1.50 
  -8  -1   2    4.25    0.69 
  -7  -1   2   15.04    1.00 
   7   1  -2   18.94    1.44 
   7   1  -2   17.52    2.48 
   6   1  -2    5.06    1.47 
   6   1  -2    2.62    0.68 
  -6  -1   2    3.46    0.55 
   5   1  -2  111.77    4.83 
   5   1  -2  111.55    3.20 
  -5  -1   2  110.26    3.02 
  -4  -1   2    3.63    0.43 
   4   1  -2    4.40    1.20 
   4   1  -2    2.99    0.50 
   3   1  -2   57.67    2.94 
  -3  -1   2   63.07    1.75 
   3   1  -2   63.35    1.81 
  -2  -1   2   20.13    0.81 
   2   1  -2   21.03    0.86 
   2   1  -2   16.53    1.44 
  -1  -1   2  718.44   16.13 
   0  -1   2   39.26    1.48 
   1  -1   2   35.07    1.50 
   1  -1   2   36.72    1.41 
  -2   1  -2   54.16    2.05 
   2  -1   2   49.05    1.91 
   3  -1   2   25.09    1.42 
  -3   1  -2   25.17    1.43 
   4  -1   2   11.53    1.22 
  -4   1  -2   11.61    1.22 
   4  -1   2   11.74    0.95 
   5  -1   2    7.15    1.17 
   5  -1   2    8.70    1.07 
  -5   1  -2    8.64    1.19 
   6  -1   2    1.50    0.84 
  -6   1  -2    0.49    0.67 
   6  -1   2    2.32    0.91 
  -7   1  -2    2.82    0.98 
   7  -1   2    2.38    1.01 
   7  -1   2    3.75    1.15 
   8  -1   2    8.16    1.58 
  -8   1  -2    6.93    1.34 
   8  -1   2    4.85    1.33 
  -9   1  -2    1.03    0.97 
   9  -1   2    3.02    1.44 
  10  -1   2   -0.41    1.35 
 -10   1  -2    0.18    1.02 
  11  -1   2    5.28    2.18 
  12  -1   2    0.20    2.02 
  12   0  -2    2.21    2.11 
  11   0  -2    0.02    1.38 
  11   0  -2    0.23    1.44 
  10   0  -2    7.45    1.57 
  10   0  -2    6.67    1.82 
   9   0  -2    0.21    0.93 
   9   0  -2   -0.54    1.14 
   8   0  -2    8.19    1.31 
   8   0  -2   11.41    2.13 
  -8   0   2   10.67    0.89 
  -7   0   2   -0.11    0.37 
   7   0  -2    0.37    1.25 
   7   0  -2   -0.47    0.62 
   6   0  -2   32.33    2.64 
  -6   0   2   31.58    1.26 
   6   0  -2   29.28    1.52 
   5   0  -2    5.35    1.39 
  -5   0   2    2.90    0.48 
   5   0  -2    3.67    0.67 
  -4   0   2    2.75    0.35 
   4   0  -2    2.05    1.07 
   4   0  -2    2.49    0.51 
   3   0  -2    0.43    0.30 
  -3   0   2    0.85    0.23 
   3   0  -2    0.56    0.77 
   2   0  -2  331.49    7.64 
  -2   0   2  329.83    7.56 
  -1   0   2    0.01    0.11 
   0   0   2 9999.77  217.10 
   1   0   2   -0.82    0.40 
   1   0   2   -0.47    0.37 
   2   0   2  177.23    4.74 
  -2   0  -2  181.95    4.88 
   3   0   2   -0.24    0.44 
  -3   0  -2   -0.31    0.40 
   4   0   2   18.09    1.35 
  -4   0  -2   23.71    1.47 
   4   0   2   19.90    1.25 
   5   0   2   -0.37    0.63 
  -5   0  -2    0.22    0.56 
   5   0   2    0.00    0.63 
  -6   0  -2    8.46    1.25 
   6   0   2    7.09    1.22 
   6   0   2    6.94    1.23 
   7   0   2   -0.65    0.82 
  -7   0  -2    0.18    0.73 
   7   0   2    0.16    0.97 
   8   0   2   32.49    2.35 
   8   0   2   30.23    2.60 
  -8   0  -2   28.65    2.00 
  -9   0  -2   -0.83    0.77 
   9   0   2    0.14    1.18 
  10   0   2    1.29    1.53 
 -10   0  -2    0.75    1.06 
  11   0   2    0.13    1.81 
  12   0   2    2.87    2.31 
  12  -1  -2    0.71    2.04 
  11  -1  -2    0.71    1.56 
  11  -1  -2   -0.67    1.35 
  10  -1  -2    2.11    1.20 
  10  -1  -2   -0.20    1.47 
   9  -1  -2    7.71    1.45 
   9  -1  -2    5.31    1.70 
   8  -1  -2    5.09    1.62 
   8  -1  -2    2.99    0.97 
   7  -1  -2   17.15    2.45 
   7  -1  -2   15.04    1.38 
  -7   1   2   15.44    0.90 
   6  -1  -2    2.72    1.33 
   6  -1  -2    2.34    0.70 
  -6   1   2    3.51    0.48 
   5  -1  -2  112.53    4.97 
   5  -1  -2  119.24    3.39 
  -5   1   2  116.31    3.01 
   4  -1  -2    1.77    1.11 
  -4   1   2    3.07    0.34 
   4  -1  -2    2.46    0.54 
  -3   1   2   63.74    1.66 
   3  -1  -2   63.40    1.94 
  -2   1   2   20.91    0.77 
   2  -1  -2   20.62    0.95 
  -1   1   2  797.97   17.78 
   0   1   2   32.34    1.32 
  -1  -1  -2   35.26    1.48 
  -2  -1  -2   51.90    2.00 
   2   1   2   53.30    1.96 
   3   1   2   22.98    1.36 
  -3  -1  -2   22.10    1.33 
  -4  -1  -2   11.93    1.21 
   4   1   2   12.24    1.11 
   4   1   2   11.56    1.23 
   5   1   2    6.12    1.03 
   5   1   2    5.32    1.05 
  -5  -1  -2    7.40    1.07 
   6   1   2    0.25    0.63 
   6   1   2    0.81    0.79 
  -6  -1  -2    0.66    0.71 
   7   1   2    1.24    0.95 
   7   1   2    0.17    0.70 
  -7  -1  -2    2.07    0.86 
   8   1   2    1.43    0.93 
   8   1   2    6.04    1.52 
  -8  -1  -2    7.97    1.45 
   9   1   2   -0.28    1.16 
  -9  -1  -2    2.81    1.05 
  10   1   2    0.94    1.52 
 -10  -1  -2    1.13    1.07 
  11   1   2    7.07    2.27 
  12   1   2   -0.34    2.13 
  12  -2  -2    1.76    1.81 
  11  -2  -2   -2.01    1.40 
  11  -2  -2    2.36    1.47 
  10  -2  -2    8.08    2.06 
  10  -2  -2    4.50    1.37 
   9  -2  -2    6.30    1.80 
   9  -2  -2    7.36    1.37 
   8  -2  -2    5.26    1.73 
   8  -2  -2    3.75    1.06 
   7  -2  -2    0.90    1.20 
  -7   2   2    2.64    0.46 
   7  -2  -2    1.45    0.76 
  -6   2   2    2.92    0.40 
   6  -2  -2    3.13    1.23 
   6  -2  -2    2.37    0.70 
   5  -2  -2   22.28    1.27 
   5  -2  -2   25.63    2.54 
  -5   2   2   21.22    0.85 
   4  -2  -2   43.63    2.62 
  -4   2   2   43.87    1.23 
   4  -2  -2   43.33    1.63 
   3  -2  -2   31.40    1.26 
   2  -2  -2  596.02   13.49 
   1  -2  -2    1.08    0.40 
  -1   2   2    0.91    0.30 
   0  -2  -2  311.93    7.36 
  -1  -2  -2    6.25    0.68 
  -2  -2  -2  497.89   11.65 
   2   2   2  483.55   11.52 
   3   2   2   19.38    1.25 
  -3  -2  -2   19.05    1.25 
   4   2   2  141.38    4.30 
  -4  -2  -2  136.62    4.24 
  -5  -2  -2  119.84    3.99 
   5   2   2  121.55    4.10 
   6   2   2   25.06    1.87 
  -6  -2  -2   37.62    1.98 
   6   2   2   37.22    2.19 
   7   2   2    5.46    1.30 
   7   2   2    3.83    1.27 
  -7  -2  -2    4.36    1.01 
   8   2   2    4.28    1.39 
   8   2   2    0.98    1.11 
  -8  -2  -2    1.89    0.98 
   9   2   2    2.69    1.45 
  -9  -2  -2    0.79    0.92 
   9   2   2    1.33    1.28 
 -10  -2  -2   -0.96    0.91 
  10   2   2   -0.58    1.48 
  11   2   2    1.92    1.88 
  12   2   2    0.85    2.25 
  12  -3  -2    0.30    1.81 
  11  -3  -2    2.77    1.48 
  11  -3  -2   -0.67    1.49 
  10  -3  -2    1.64    1.21 
  10  -3  -2   -0.17    1.44 
   9  -3  -2   -0.13    1.19 
   9  -3  -2    0.75    0.94 
   8  -3  -2    4.91    1.07 
   8  -3  -2    5.32    1.70 
  -7   3   2    4.04    0.50 
   7  -3  -2    2.99    1.46 
   7  -3  -2    2.42    0.78 
   6  -3  -2    1.16    0.63 
  -6   3   2    1.72    0.35 
   6  -3  -2    2.66    1.29 
   5  -3  -2    2.55    1.32 
   5  -3  -2    3.17    0.67 
  -5   3   2    3.04    0.33 
   4  -3  -2    7.10    0.73 
   3  -3  -2    2.44    0.51 
   2  -3  -2   88.08    2.55 
   1  -3  -2   78.39    2.33 
   1  -3  -2   80.77    2.11 
   0  -3  -2   64.39    1.96 
  -1  -3  -2 1939.05   42.74 
  -2  -3  -2   25.49    1.33 
  -3  -3  -2   70.10    2.56 
   3   3   2   75.66    2.61 
  -4  -3  -2   65.70    2.54 
   4   3   2   60.19    2.50 
   4   3   2   62.25    2.63 
   5   3   2   33.04    1.99 
  -5  -3  -2   35.13    1.88 
   5   3   2   32.25    1.93 
   6   3   2   20.65    1.76 
  -6  -3  -2   21.53    1.59 
   6   3   2   21.93    1.89 
  -7  -3  -2    0.88    0.86 
   7   3   2    1.00    1.01 
   7   3   2    0.87    1.05 
   8   3   2   25.53    2.44 
   8   3   2   26.58    2.50 
  -8  -3  -2   21.11    1.93 
   9   3   2    6.78    1.61 
  -9  -3  -2    3.91    1.17 
   9   3   2    3.93    1.52 
  10   3   2    2.03    1.58 
 -10  -3  -2    0.29    1.02 
  11   3   2    1.75    2.04 
  12   3   2    1.42    2.15 
  12  -4  -2    2.87    1.96 
  11  -4  -2    0.78    1.33 
  11  -4  -2   -0.17    1.61 
  10  -4  -2    0.39    1.08 
  10  -4  -2    0.01    1.33 
   9  -4  -2    0.16    0.90 
   9  -4  -2    0.39    1.42 
   8  -4  -2    2.42    1.41 
   8  -4  -2    1.20    0.92 
  -7   4   2    5.99    0.55 
   7  -4  -2    5.63    1.00 
   7  -4  -2   10.08    1.98 
   6  -4  -2   16.04    2.27 
   6  -4  -2   14.15    1.22 
  -6   4   2   11.75    0.62 
   5  -4  -2    8.48    1.59 
   5  -4  -2    6.33    0.84 
   4  -4  -2   12.39    0.96 
   3  -4  -2   50.85    1.79 
   2  -4  -2    3.42    0.55 
   1  -4  -2   62.59    1.73 
   1  -4  -2   64.43    2.04 
   0  -4  -2  480.44   10.99 
  -1  -4  -2   75.54    2.36 
  -2  -4  -2  208.48    5.48 
  -3  -4  -2   10.71    1.07 
   3   4   2   10.26    1.05 
  -4  -4  -2  100.90    3.40 
   4   4   2  101.44    3.44 
  -5  -4  -2    8.05    1.15 
   5   4   2    5.81    1.21 
   5   4   2    7.51    1.20 
  -6  -4  -2    0.87    0.76 
   6   4   2   -0.11    0.79 
   6   4   2    1.26    0.92 
   7   4   2   42.33    2.56 
  -7  -4  -2   38.24    2.20 
   7   4   2   41.96    2.68 
   8   4   2    4.96    1.46 
   8   4   2    7.22    1.56 
  -8  -4  -2    5.05    1.19 
   9   4   2    4.83    1.54 
   9   4   2    4.38    1.53 
  -9  -4  -2    7.86    1.38 
 -10  -4  -2    5.29    1.30 
  10   4   2    2.03    1.66 
  11   4   2   -0.19    1.86 
 -11  -4  -2    0.31    1.18 
  12   4   2   -0.74    2.13 
  12  -5  -2    0.85    1.84 
  11  -5  -2    1.65    1.41 
  11  -5  -2    1.76    1.82 
  10  -5  -2    1.87    1.43 
  10  -5  -2    1.15    1.11 
   9  -5  -2    0.53    1.40 
   9  -5  -2    0.45    0.95 
   8  -5  -2    3.12    1.51 
   8  -5  -2    0.50    0.85 
   7  -5  -2   -0.05    0.66 
   7  -5  -2    2.43    1.36 
   6  -5  -2    1.52    0.70 
   6  -5  -2    2.47    1.44 
  -6   5   2    2.22    0.33 
   5  -5  -2    2.56    0.68 
   4  -5  -2    6.56    0.80 
   3  -5  -2   28.67    1.32 
   2  -5  -2   97.18    2.85 
   1  -5  -2  475.43   10.55 
   1  -5  -2  462.71   10.89 
   0  -5  -2    3.76    0.50 
  -1  -5  -2    5.86    0.68 
  -2  -5  -2    8.64    0.87 
  -3  -5  -2  154.37    4.45 
   4   5   2    4.20    0.89 
  -4  -5  -2    4.07    0.89 
   5   5   2   14.20    1.48 
   5   5   2   18.48    1.77 
  -5  -5  -2   16.23    1.50 
  -6  -5  -2   46.25    2.26 
   6   5   2   43.57    2.64 
   6   5   2   45.43    2.42 
   7   5   2   10.01    1.61 
  -7  -5  -2   12.15    1.50 
   7   5   2   10.70    1.81 
   8   5   2   10.80    1.78 
   8   5   2   11.37    1.80 
  -8  -5  -2   10.99    1.55 
   9   5   2    4.12    1.50 
   9   5   2    4.67    1.58 
  -9  -5  -2    4.82    1.28 
 -10  -5  -2   -0.02    1.00 
  10   5   2    4.19    1.81 
  11   5   2    4.65    2.27 
 -11  -5  -2    5.54    1.55 
  12  -6  -2    7.83    2.14 
  11  -6  -2    0.41    1.42 
  11  -6  -2    2.10    1.88 
  10  -6  -2    4.27    1.38 
  10  -6  -2    2.00    1.58 
   9  -6  -2   -1.51    0.84 
   9  -6  -2   -0.25    1.36 
   8  -6  -2   19.29    2.73 
   8  -6  -2   17.39    1.70 
   7  -6  -2    3.47    1.60 
   7  -6  -2    3.31    0.92 
   6  -6  -2   19.03    2.52 
   6  -6  -2   15.75    1.35 
   5  -6  -2   18.37    1.26 
   4  -6  -2   21.58    1.23 
   3  -6  -2  206.87    5.35 
   2  -6  -2  236.15    5.95 
   1  -6  -2  130.71    3.23 
   1  -6  -2  133.00    3.63 
   0  -6  -2  560.66   12.71 
  -1  -6  -2   55.52    1.93 
  -2  -6  -2  349.04    8.55 
  -3  -6  -2    5.27    0.87 
  -4  -6  -2   19.51    1.49 
   5   6   2   26.99    1.75 
  -5  -6  -2   25.16    1.62 
   6   6   2   10.81    1.49 
  -6  -6  -2   12.25    1.45 
   6   6   2   12.01    1.81 
   7   6   2    0.65    1.05 
   7   6   2    0.67    1.18 
  -7  -6  -2    0.18    0.84 
   8   6   2    0.85    1.20 
   8   6   2    2.03    1.28 
  -8  -6  -2    1.56    0.88 
  -9  -6  -2    1.97    1.03 
   9   6   2    1.46    1.44 
   9   6   2    2.95    1.34 
 -10  -6  -2    6.18    1.38 
  10   6   2   12.66    2.34 
  10   6   2    7.90    1.97 
  11   6   2    2.78    2.22 
 -11  -6  -2    0.09    1.14 
  12  -7  -2   -0.28    1.70 
  11  -7  -2    7.27    1.82 
  10  -7  -2    3.06    1.28 
  10  -7  -2    1.63    1.57 
   9  -7  -2   15.32    2.60 
   9  -7  -2   12.62    1.73 
   8  -7  -2    6.60    1.81 
   8  -7  -2    3.84    1.11 
   7  -7  -2    8.21    1.22 
   7  -7  -2   12.00    2.32 
   6  -7  -2    3.53    0.86 
   5  -7  -2    3.38    0.76 
   4  -7  -2    4.39    0.75 
   3  -7  -2    2.49    0.60 
   2  -7  -2    2.66    0.31 
   2  -7  -2    3.08    0.61 
   1  -7  -2   79.09    2.13 
   1  -7  -2   80.38    2.53 
   0  -7  -2   58.58    1.82 
  -1  -7  -2   80.61    2.50 
  -2  -7  -2   64.54    2.27 
  -3  -7  -2    2.69    0.72 
  -4  -7  -2   89.67    3.15 
  -5  -7  -2    1.72    0.75 
   6   7   2   42.37    2.38 
   6   7   2   44.81    2.76 
  -6  -7  -2   37.81    2.15 
  -7  -7  -2   10.70    1.42 
   7   7   2   11.52    1.89 
   7   7   2   12.11    1.75 
  -8  -7  -2    1.76    0.98 
   8   7   2    2.21    1.36 
   8   7   2    2.18    1.28 
   9   7   2    2.23    1.57 
  -9  -7  -2    1.14    1.02 
   9   7   2    4.29    1.49 
  10   7   2    3.21    1.76 
 -10  -7  -2    0.00    0.94 
  11   7   2    2.37    2.28 
 -11  -7  -2    0.91    1.23 
  12  -8  -2    3.43    1.90 
  11  -8  -2    1.14    1.42 
  10  -8  -2   11.82    2.48 
  10  -8  -2   11.05    1.79 
   9  -8  -2   12.44    1.75 
   9  -8  -2   16.89    2.63 
   8  -8  -2   16.13    2.60 
   8  -8  -2   14.22    1.63 
   7  -8  -2    2.67    1.63 
   7  -8  -2    0.91    0.78 
   6  -8  -2   24.73    1.59 
   5  -8  -2    7.97    1.02 
   4  -8  -2    7.62    0.93 
   3  -8  -2   15.97    1.09 
   2  -8  -2  100.63    2.52 
   2  -8  -2   98.83    3.06 
   1  -8  -2   31.58    1.46 
   1  -8  -2   33.18    1.15 
   0  -8  -2  882.10   19.78 
   0  -8  -2  889.76   20.05 
  -1  -8  -2   68.95    2.22 
  -2  -8  -2    2.66    0.63 
  -3  -8  -2    5.33    0.86 
  -4  -8  -2   15.61    1.37 
  -5  -8  -2    4.56    0.97 
  -6  -8  -2   82.44    3.25 
  -7  -8  -2   10.47    1.46 
   7   8   2    9.92    1.66 
  -8  -8  -2    4.15    1.19 
   8   8   2    3.29    1.40 
   8   8   2    4.72    1.42 
  -9  -8  -2   -0.01    0.90 
   9   8   2   -1.00    1.26 
  10   8   2    0.33    1.74 
 -10  -8  -2    1.64    1.10 
 -11  -8  -2    2.37    1.30 
  12  -9  -2    0.80    1.80 
  11  -9  -2    3.97    1.70 
  10  -9  -2   -0.44    1.56 
  10  -9  -2    2.42    1.28 
   9  -9  -2   22.89    2.18 
   9  -9  -2   26.24    3.24 
   8  -9  -2   27.99    3.31 
   8  -9  -2   20.48    1.91 
   7  -9  -2   32.96    3.39 
   7  -9  -2   26.35    1.79 
   6  -9  -2    1.55    0.77 
   5  -9  -2    3.83    0.85 
   4  -9  -2    9.68    1.02 
   3  -9  -2   13.89    1.11 
   3  -9  -2   11.24    0.68 
   2  -9  -2    2.43    0.65 
   2  -9  -2    2.09    0.36 
   1  -9  -2  212.76    5.65 
   1  -9  -2  223.46    5.26 
   0  -9  -2   19.38    1.19 
   0  -9  -2   19.83    1.01 
  -1  -9  -2    3.69    0.62 
  -2  -9  -2    4.90    0.76 
  -3  -9  -2   15.64    1.26 
  -4  -9  -2   19.09    1.38 
  -5  -9  -2   39.87    2.07 
  -6  -9  -2   53.27    2.57 
  -7  -9  -2    0.65    0.80 
  -8  -9  -2    2.89    1.08 
  -9  -9  -2    0.48    0.93 
 -10  -9  -2    0.13    1.07 
 -11  -9  -2    0.87    1.29 
  12 -10  -2    0.98    1.72 
  11 -10  -2    2.31    1.60 
  10 -10  -2   10.05    2.39 
  10 -10  -2    5.67    1.63 
   9 -10  -2   17.51    2.67 
   9 -10  -2   12.13    1.78 
   8 -10  -2   24.98    3.23 
   8 -10  -2   18.25    1.83 
   7 -10  -2    1.57    0.83 
   6 -10  -2   21.46    1.67 
   5 -10  -2   11.25    1.21 
   4 -10  -2    2.84    0.71 
   3 -10  -2    3.39    0.75 
   3 -10  -2    4.44    0.46 
   2 -10  -2   17.95    1.18 
   2 -10  -2   18.01    0.85 
   1 -10  -2    5.03    0.75 
   1 -10  -2    4.26    0.54 
   0 -10  -2   33.90    1.38 
   0 -10  -2   34.58    1.58 
  -1 -10  -2   14.94    0.98 
  -2 -10  -2   21.09    1.26 
  -3 -10  -2    1.62    0.68 
  -4 -10  -2  109.50    3.68 
  -5 -10  -2    0.31    0.66 
  -6 -10  -2   15.07    1.60 
  -7 -10  -2    3.22    1.04 
  -8 -10  -2    0.39    0.89 
  -9 -10  -2    1.86    1.06 
 -10 -10  -2    3.13    1.22 
 -11 -10  -2    0.54    1.30 
  12 -11  -2    2.66    1.90 
  11 -11  -2    5.57    1.87 
  10 -11  -2   -0.23    1.15 
   9 -11  -2    6.67    1.41 
   9 -11  -2    6.65    2.07 
   8 -11  -2   23.87    2.03 
   8 -11  -2   28.23    3.46 
   7 -11  -2   28.58    1.87 
   6 -11  -2    4.10    0.92 
   5 -11  -2    2.09    0.74 
   4 -11  -2   17.77    1.27 
   3 -11  -2   24.75    1.43 
   3 -11  -2   23.37    1.02 
   2 -11  -2   32.95    1.60 
   2 -11  -2   33.08    1.27 
   1 -11  -2   42.23    1.52 
   1 -11  -2   41.88    1.79 
   0 -11  -2  161.60    4.25 
   0 -11  -2  160.91    4.52 
  -1 -11  -2    3.73    0.68 
  -2 -11  -2   66.12    2.39 
  -3 -11  -2  291.84    7.59 
  -4 -11  -2    1.18    0.67 
  -5 -11  -2   13.99    1.49 
  -6 -11  -2   72.89    3.12 
  -7 -11  -2    0.81    0.86 
  -8 -11  -2    0.09    0.88 
  -9 -11  -2    4.16    1.30 
 -10 -11  -2    2.37    1.27 
 -11 -11  -2    3.26    1.51 
  12 -12  -2    5.85    2.11 
  11 -12  -2    2.49    1.69 
  10 -12  -2    2.78    1.42 
   9 -12  -2    1.13    1.09 
   9 -12  -2    1.45    1.62 
   8 -12  -2    2.45    1.79 
   8 -12  -2    2.58    1.06 
   7 -12  -2   25.40    1.85 
   6 -12  -2   68.65    2.86 
   5 -12  -2    3.07    0.85 
   4 -12  -2   42.31    1.49 
   4 -12  -2   40.24    1.93 
   3 -12  -2    9.02    0.73 
   3 -12  -2   10.32    1.09 
   2 -12  -2   94.83    2.68 
   2 -12  -2   91.23    3.08 
   1 -12  -2    0.69    0.56 
   1 -12  -2    1.78    0.50 
   0 -12  -2   48.95    2.04 
   0 -12  -2   49.88    1.82 
  -1 -12  -2   28.20    1.41 
  -2 -12  -2   48.12    2.01 
  -3 -12  -2   65.86    2.55 
  -4 -12  -2    4.84    0.93 
  -5 -12  -2   23.24    1.64 
  -6 -12  -2   29.43    1.95 
  -7 -12  -2    4.22    1.14 
  -8 -12  -2    6.70    1.35 
  -9 -12  -2    1.80    1.04 
 -10 -12  -2    5.75    1.52 
 -11 -12  -2    0.49    1.40 
  12 -13  -2   -0.05    1.74 
  11 -13  -2    4.96    1.83 
  10 -13  -2    3.72    1.53 
   9 -13  -2    3.12    1.31 
   9 -13  -2    4.04    2.03 
   8 -13  -2    5.00    2.00 
   8 -13  -2    3.06    1.10 
   7 -13  -2    4.23    1.10 
   6 -13  -2    7.77    1.23 
   5 -13  -2   38.98    2.05 
   4 -13  -2    5.03    0.62 
   4 -13  -2    3.09    0.79 
   3 -13  -2  248.16    6.56 
   3 -13  -2  239.36    5.97 
   2 -13  -2    5.87    0.93 
   2 -13  -2    6.25    0.68 
   1 -13  -2   64.77    2.18 
   1 -13  -2   68.29    2.50 
   0 -13  -2  165.06    4.70 
   0 -13  -2  164.66    4.45 
  -1 -13  -2    9.12    0.96 
  -1 -13  -2    9.29    1.04 
  -2 -13  -2    0.49    0.56 
  -3 -13  -2   49.73    2.20 
  -4 -13  -2   14.56    1.41 
  -5 -13  -2   47.76    2.35 
  -6 -13  -2    1.16    0.86 
  -7 -13  -2   13.37    1.69 
  -8 -13  -2    2.36    1.08 
  -9 -13  -2   -0.49    1.00 
 -10 -13  -2    2.03    1.32 
 -11 -13  -2    2.84    1.52 
  12 -14  -2   -1.53    1.66 
  11 -14  -2    0.59    1.53 
  10 -14  -2   10.96    2.03 
   9 -14  -2    0.89    1.09 
   9 -14  -2    0.39    1.70 
   8 -14  -2   20.31    2.03 
   7 -14  -2    2.47    0.96 
   6 -14  -2   22.11    1.82 
   5 -14  -2   22.89    1.60 
   5 -14  -2   23.23    1.16 
   4 -14  -2    3.94    0.88 
   4 -14  -2    3.84    0.65 
   3 -14  -2  151.02    4.03 
   3 -14  -2  148.04    4.51 
   2 -14  -2    2.96    0.60 
   2 -14  -2    2.11    0.68 
   1 -14  -2   13.34    1.02 
   1 -14  -2   14.48    1.27 
   0 -14  -2  174.61    4.80 
   0 -14  -2  181.30    5.04 
  -1 -14  -2   19.87    1.35 
  -1 -14  -2   20.17    1.25 
  -2 -14  -2  107.60    3.47 
  -3 -14  -2    0.81    0.69 
  -4 -14  -2   28.88    1.74 
  -5 -14  -2   12.55    1.49 
  -6 -14  -2    2.36    0.93 
  -7 -14  -2    4.20    1.12 
  -8 -14  -2    1.52    1.11 
  -9 -14  -2   -0.84    1.02 
 -10 -14  -2    3.26    1.46 
 -11 -14  -2    0.95    1.47 
  12 -15  -2    0.36    1.86 
  11 -15  -2    1.76    1.57 
  10 -15  -2    2.24    1.46 
   9 -15  -2   11.91    1.72 
   8 -15  -2   10.53    1.64 
   7 -15  -2   12.02    1.61 
   6 -15  -2   -0.27    0.64 
   5 -15  -2    2.82    0.81 
   5 -15  -2    4.67    0.69 
   4 -15  -2   14.15    1.06 
   4 -15  -2   10.46    1.25 
   3 -15  -2   81.30    3.03 
   3 -15  -2   82.15    2.61 
   2 -15  -2  100.39    3.42 
   2 -15  -2  104.63    3.12 
   1 -15  -2  102.14    3.45 
   1 -15  -2  105.44    3.18 
   0 -15  -2  158.80    4.69 
   0 -15  -2  163.22    4.54 
  -1 -15  -2  103.93    3.43 
  -1 -15  -2  104.24    3.31 
  -2 -15  -2   77.87    2.83 
  -3 -15  -2   -0.15    0.61 
  -4 -15  -2    0.27    0.65 
  -5 -15  -2   48.03    2.48 
  -6 -15  -2    1.00    0.89 
  -7 -15  -2    3.16    1.11 
  -8 -15  -2    1.09    1.06 
  -9 -15  -2   -0.01    1.11 
 -10 -15  -2    1.26    1.30 
 -11 -15  -2    0.81    1.50 
  11 -16  -2    0.91    1.72 
  10 -16  -2    1.55    1.53 
   9 -16  -2    1.34    1.16 
   8 -16  -2   15.53    1.91 
   7 -16  -2   34.07    2.27 
   6 -16  -2    2.49    0.95 
   5 -16  -2    1.84    0.83 
   4 -16  -2   13.63    1.10 
   4 -16  -2   14.52    1.40 
   3 -16  -2   24.57    1.61 
   3 -16  -2   26.29    1.38 
   2 -16  -2  146.04    4.52 
   2 -16  -2  152.43    4.24 
   1 -16  -2  188.65    5.40 
   1 -16  -2  188.95    5.12 
   0 -16  -2   27.10    1.49 
   0 -16  -2   29.96    1.66 
  -1 -16  -2    3.69    0.79 
  -1 -16  -2    3.80    0.86 
  -2 -16  -2   11.67    1.23 
  -2 -16  -2   10.06    1.17 
  -3 -16  -2    1.27    0.73 
  -4 -16  -2   30.60    1.87 
  -5 -16  -2   15.20    1.68 
  -6 -16  -2    0.67    0.81 
  -7 -16  -2   -0.06    0.89 
  -8 -16  -2   -0.49    0.94 
  -9 -16  -2    0.61    1.20 
 -10 -16  -2    2.03    1.44 
 -11 -16  -2    2.07    1.53 
  11 -17  -2    3.70    1.83 
  10 -17  -2   -0.56    1.42 
   9 -17  -2    2.00    1.27 
   8 -17  -2    2.04    1.14 
   7 -17  -2   13.25    1.76 
   6 -17  -2   61.44    2.93 
   5 -17  -2   10.22    1.40 
   4 -17  -2    1.94    0.68 
   4 -17  -2    2.04    0.80 
   3 -17  -2   33.75    1.88 
   3 -17  -2   36.05    1.67 
   2 -17  -2  122.22    4.00 
   2 -17  -2  124.24    3.73 
   1 -17  -2   97.76    3.39 
   1 -17  -2   94.86    3.14 
   0 -17  -2   14.27    1.23 
   0 -17  -2   17.88    1.40 
  -1 -17  -2   19.51    1.47 
  -1 -17  -2   15.71    1.36 
  -2 -17  -2    1.37    0.68 
  -2 -17  -2    0.36    0.59 
  -3 -17  -2    0.92    0.68 
  -4 -17  -2   14.16    1.53 
  -5 -17  -2   19.16    1.85 
  -6 -17  -2    0.76    0.91 
  -7 -17  -2    2.10    1.10 
  -8 -17  -2    1.06    1.13 
  -9 -17  -2    1.99    1.23 
 -10 -17  -2    0.89    1.41 
 -11 -17  -2    0.54    1.49 
  11 -18  -2    0.77    1.77 
  10 -18  -2    0.25    1.52 
   9 -18  -2   -1.45    1.19 
   8 -18  -2    0.97    1.07 
   7 -18  -2   -0.30    0.90 
   6 -18  -2   32.94    2.22 
   5 -18  -2   38.83    2.26 
   4 -18  -2    9.95    1.10 
   4 -18  -2    8.18    1.20 
   3 -18  -2   70.46    2.53 
   3 -18  -2   63.58    2.71 
   2 -18  -2  147.89    4.64 
   2 -18  -2  150.22    4.39 
   1 -18  -2   21.58    1.41 
   1 -18  -2   20.44    1.60 
   0 -18  -2    1.24    0.65 
   0 -18  -2    1.13    0.66 
  -1 -18  -2    8.07    1.13 
  -1 -18  -2   10.77    1.22 
  -2 -18  -2    3.86    0.90 
  -2 -18  -2    3.26    0.90 
  -3 -18  -2   19.33    1.65 
  -4 -18  -2   25.23    1.78 
  -5 -18  -2    0.69    0.92 
  -6 -18  -2    0.42    0.84 
  -7 -18  -2    3.02    1.11 
  -8 -18  -2    0.53    1.12 
  -9 -18  -2    1.47    1.26 
 -10 -18  -2    0.10    1.28 
  11 -19  -2    0.80    1.77 
  10 -19  -2    0.38    1.45 
   9 -19  -2   -0.48    1.13 
   8 -19  -2   -0.21    1.01 
   7 -19  -2    3.31    1.25 
   6 -19  -2   17.67    1.86 
   5 -19  -2   22.13    1.94 
   4 -19  -2   86.06    3.39 
   4 -19  -2   90.51    3.14 
   3 -19  -2   26.21    1.58 
   3 -19  -2   29.05    1.79 
   2 -19  -2    2.95    0.80 
   2 -19  -2    4.45    0.95 
   1 -19  -2   57.89    2.41 
   1 -19  -2   56.10    2.48 
   0 -19  -2   38.87    1.95 
   0 -19  -2   40.13    2.01 
  -1 -19  -2   10.78    1.26 
  -1 -19  -2    8.88    1.16 
  -2 -19  -2    0.54    0.68 
  -2 -19  -2    2.57    0.77 
  -3 -19  -2    1.95    0.78 
  -3 -19  -2    1.26    0.76 
  -4 -19  -2   14.99    1.63 
  -5 -19  -2   23.27    2.04 
  -6 -19  -2    0.87    0.91 
  -7 -19  -2   -0.20    0.91 
  -8 -19  -2    2.24    1.18 
  -9 -19  -2    0.48    1.22 
 -10 -19  -2    0.21    1.38 
  11 -20  -2   -0.86    1.69 
  10 -20  -2    0.52    1.56 
   9 -20  -2    0.95    1.37 
   8 -20  -2    3.19    1.30 
   7 -20  -2    0.60    1.05 
   6 -20  -2    4.93    1.27 
   5 -20  -2   25.48    2.06 
   4 -20  -2    0.90    0.81 
   4 -20  -2    3.88    1.03 
   3 -20  -2    0.90    0.75 
   3 -20  -2    0.11    0.65 
   2 -20  -2   11.67    1.38 
   2 -20  -2   14.66    1.38 
   1 -20  -2   90.00    3.33 
   1 -20  -2   88.40    3.20 
   0 -20  -2   39.04    1.97 
   0 -20  -2   37.67    2.01 
  -1 -20  -2    4.39    0.91 
  -1 -20  -2    4.00    0.97 
  -2 -20  -2    1.75    0.75 
  -2 -20  -2    0.73    0.71 
  -3 -20  -2    6.41    1.05 
  -3 -20  -2   11.41    1.45 
  -4 -20  -2    0.86    0.85 
  -5 -20  -2    2.15    0.97 
  -6 -20  -2    3.23    1.12 
  -7 -20  -2    2.83    1.18 
  -8 -20  -2    1.65    1.24 
  -9 -20  -2    4.02    1.60 
 -10 -20  -2    0.82    1.51 
  10 -21  -2   -0.33    1.52 
   9 -21  -2    1.11    1.45 
   8 -21  -2    0.11    1.18 
   7 -21  -2    8.47    1.60 
   6 -21  -2   13.03    1.77 
   5 -21  -2   10.28    1.53 
   4 -21  -2    4.97    1.14 
   4 -21  -2    5.48    1.10 
   3 -21  -2    1.07    0.76 
   3 -21  -2    1.69    0.83 
   2 -21  -2   36.28    2.03 
   2 -21  -2   36.10    1.99 
   1 -21  -2  107.03    3.67 
   1 -21  -2  104.81    3.72 
   0 -21  -2    0.04    0.69 
   0 -21  -2    0.86    0.75 
  -1 -21  -2    1.58    0.72 
  -1 -21  -2    3.40    0.93 
  -2 -21  -2    9.01    1.21 
  -2 -21  -2    7.67    1.21 
  -3 -21  -2    0.85    0.60 
  -3 -21  -2    0.70    0.84 
  -4 -21  -2    1.62    0.89 
  -4 -21  -2    0.95    0.85 
  -5 -21  -2    1.20    0.91 
  -6 -21  -2    7.80    1.47 
  -7 -21  -2    8.17    1.59 
  -8 -21  -2   -1.08    1.04 
  -9 -21  -2    0.47    1.28 
 -10 -21  -2    0.62    1.50 
  10 -22  -2    0.91    1.73 
   9 -22  -2    1.13    1.50 
   8 -22  -2    0.58    1.29 
   7 -22  -2    6.90    1.58 
   6 -22  -2    3.30    1.15 
   5 -22  -2   -0.31    0.84 
   4 -22  -2   17.06    1.60 
   4 -22  -2   10.78    1.51 
   3 -22  -2   18.99    1.63 
   3 -22  -2   16.27    1.62 
   2 -22  -2   10.76    1.39 
   2 -22  -2    9.69    1.35 
   1 -22  -2   11.66    1.36 
   1 -22  -2   11.13    1.39 
   0 -22  -2   66.75    2.77 
   0 -22  -2   61.08    2.72 
  -1 -22  -2    1.09    0.74 
  -1 -22  -2    0.08    0.66 
  -2 -22  -2    3.57    0.98 
  -2 -22  -2    4.66    0.94 
  -3 -22  -2   18.76    1.87 
  -4 -22  -2   37.46    2.07 
  -4 -22  -2   35.66    2.31 
  -5 -22  -2    0.01    0.94 
  -6 -22  -2   22.20    2.26 
  -7 -22  -2    2.62    1.15 
  -8 -22  -2    1.32    1.26 
  -9 -22  -2    3.44    1.61 
 -10 -22  -2    0.91    1.53 
  10 -23  -2   -0.23    1.78 
   9 -23  -2    0.54    1.52 
   8 -23  -2    2.35    1.49 
   7 -23  -2    3.83    1.43 
   6 -23  -2    4.58    1.28 
   5 -23  -2    0.22    0.94 
   4 -23  -2    0.23    0.85 
   3 -23  -2   28.23    1.90 
   3 -23  -2   30.50    1.91 
   2 -23  -2   34.33    2.02 
   2 -23  -2   28.35    1.90 
   1 -23  -2   34.97    2.01 
   1 -23  -2   34.35    2.04 
   0 -23  -2    0.47    0.83 
   0 -23  -2    1.63    0.78 
  -1 -23  -2   28.99    1.80 
  -1 -23  -2   29.52    1.93 
  -2 -23  -2   25.51    1.89 
  -2 -23  -2   26.94    1.74 
  -3 -23  -2    6.39    1.34 
  -4 -23  -2    8.11    1.17 
  -4 -23  -2    5.47    1.29 
  -5 -23  -2   -1.47    0.78 
  -6 -23  -2    0.69    1.04 
  -7 -23  -2    2.44    1.36 
  -8 -23  -2    4.19    1.55 
  -9 -23  -2   -0.40    1.37 
  10 -24  -2   -0.42    1.69 
   9 -24  -2    0.59    1.48 
   8 -24  -2    0.24    1.37 
   7 -24  -2    2.53    1.41 
   6 -24  -2    9.85    1.70 
   5 -24  -2   24.19    2.20 
   4 -24  -2   19.40    1.88 
   3 -24  -2   -0.30    0.72 
   3 -24  -2   -0.28    0.78 
   2 -24  -2   22.49    1.92 
   2 -24  -2   21.79    1.82 
   1 -24  -2    2.53    0.89 
   1 -24  -2    1.65    0.92 
   0 -24  -2    5.69    1.20 
   0 -24  -2    6.57    1.15 
  -1 -24  -2    5.81    1.09 
  -1 -24  -2    2.65    1.01 
  -2 -24  -2   42.84    2.46 
  -2 -24  -2   41.71    2.19 
  -3 -24  -2    8.02    1.47 
  -3 -24  -2    3.08    0.76 
  -4 -24  -2    7.10    1.48 
  -5 -24  -2   -0.51    1.03 
  -6 -24  -2    7.59    1.55 
  -7 -24  -2    5.30    1.60 
  -8 -24  -2    1.22    1.48 
  -9 -24  -2    6.59    1.99 
  10 -25  -2   -0.26    1.59 
   9 -25  -2    1.55    1.60 
   8 -25  -2    1.06    1.56 
   7 -25  -2    7.67    1.79 
   6 -25  -2    4.80    1.40 
   5 -25  -2    4.54    1.28 
   4 -25  -2   44.65    2.52 
   3 -25  -2   12.05    1.52 
   3 -25  -2   15.02    1.66 
   2 -25  -2    6.45    1.28 
   2 -25  -2    5.63    1.24 
   1 -25  -2   46.53    2.40 
   1 -25  -2   43.07    2.42 
   0 -25  -2    0.14    0.88 
   0 -25  -2    0.46    0.79 
  -1 -25  -2    1.33    0.86 
  -1 -25  -2    1.66    0.93 
  -2 -25  -2    4.60    1.20 
  -2 -25  -2    6.33    1.12 
  -3 -25  -2    9.85    1.23 
  -3 -25  -2   14.10    1.79 
  -4 -25  -2   -0.03    0.90 
  -5 -25  -2    1.61    1.10 
  -6 -25  -2    7.21    1.73 
  -7 -25  -2    0.82    1.24 
  -8 -25  -2    7.02    1.89 
  -9 -25  -2   -1.16    1.46 
   9 -26  -2    1.04    1.51 
   8 -26  -2    2.29    1.57 
   7 -26  -2    5.54    1.77 
   6 -26  -2    2.15    1.36 
   5 -26  -2   26.48    2.38 
   4 -26  -2    6.26    1.38 
   3 -26  -2   19.84    1.88 
   3 -26  -2   17.99    1.89 
   2 -26  -2   34.20    2.23 
   2 -26  -2   35.86    2.14 
   1 -26  -2   19.68    1.79 
   1 -26  -2   16.39    1.84 
   0 -26  -2   36.20    2.12 
   0 -26  -2   37.92    2.33 
  -1 -26  -2    2.43    0.99 
  -1 -26  -2    1.86    1.02 
  -2 -26  -2    0.57    0.83 
  -2 -26  -2    0.61    0.92 
  -3 -26  -2    0.19    0.99 
  -4 -26  -2    3.03    1.19 
  -5 -26  -2   14.55    2.08 
  -6 -26  -2    1.55    1.29 
  -7 -26  -2    1.54    1.41 
  -8 -26  -2    2.31    1.61 
  -9 -26  -2    3.76    1.75 
   9 -27  -2    0.65    1.52 
   8 -27  -2    0.65    1.54 
   7 -27  -2    2.23    1.50 
   6 -27  -2    4.45    1.59 
   5 -27  -2    4.54    1.43 
   4 -27  -2   39.34    2.46 
   3 -27  -2    1.40    0.94 
   3 -27  -2    1.06    1.26 
   2 -27  -2    8.97    1.55 
   2 -27  -2   11.68    1.54 
   1 -27  -2   15.12    1.62 
   1 -27  -2   12.16    1.67 
   0 -27  -2   15.32    1.79 
   0 -27  -2   19.12    1.77 
  -1 -27  -2   30.61    2.26 
  -1 -27  -2   32.03    2.01 
  -2 -27  -2    1.08    0.90 
  -2 -27  -2   -0.17    0.99 
  -3 -27  -2    4.72    1.31 
  -4 -27  -2    7.95    1.63 
  -5 -27  -2    2.48    1.27 
  -6 -27  -2    6.99    1.78 
  -7 -27  -2    0.35    1.27 
  -8 -27  -2    2.15    1.60 
   9 -28  -2   -0.08    1.44 
   8 -28  -2    1.92    1.76 
   7 -28  -2    3.13    1.56 
   6 -28  -2    2.65    1.55 
   5 -28  -2    5.54    1.52 
   4 -28  -2    1.04    1.01 
   3 -28  -2   29.19    2.10 
   2 -28  -2    4.00    1.31 
   2 -28  -2    4.34    1.11 
   1 -28  -2    3.37    1.19 
   1 -28  -2    4.74    1.09 
   0 -28  -2   21.23    1.84 
   0 -28  -2   16.97    1.94 
  -1 -28  -2    6.06    1.21 
  -1 -28  -2    3.17    1.19 
  -2 -28  -2    0.80    1.09 
  -3 -28  -2    0.68    1.01 
  -4 -28  -2    0.02    1.05 
  -5 -28  -2    4.61    1.63 
  -6 -28  -2    5.10    1.70 
  -7 -28  -2   10.65    2.24 
  -8 -28  -2   -0.76    1.39 
   8 -29  -2    3.24    1.85 
   7 -29  -2    2.64    1.73 
   6 -29  -2    3.19    1.59 
   5 -29  -2    4.27    1.45 
   4 -29  -2   18.72    2.16 
   3 -29  -2    0.50    0.92 
   2 -29  -2    4.64    1.40 
   2 -29  -2    2.98    1.05 
   1 -29  -2    0.51    1.03 
   1 -29  -2   -0.24    0.74 
   0 -29  -2    0.11    0.89 
   0 -29  -2    1.98    1.07 
  -1 -29  -2    8.17    1.57 
  -1 -29  -2    8.49    1.41 
  -2 -29  -2    0.69    1.02 
  -3 -29  -2    5.57    1.47 
  -4 -29  -2    1.63    1.28 
  -5 -29  -2    0.60    1.35 
  -6 -29  -2   16.61    2.50 
  -7 -29  -2    1.15    1.40 
  -8 -29  -2    5.68    1.80 
   8 -30  -2    1.33    1.59 
   7 -30  -2    3.67    1.78 
   6 -30  -2    2.14    1.54 
   5 -30  -2    7.24    1.72 
   4 -30  -2    2.65    1.30 
   3 -30  -2    5.37    1.32 
   2 -30  -2    2.38    1.11 
   2 -30  -2    2.68    1.36 
   1 -30  -2    1.35    1.19 
   1 -30  -2    2.90    1.04 
   0 -30  -2    0.92    1.12 
   0 -30  -2   -0.39    0.81 
  -1 -30  -2    2.09    1.16 
  -2 -30  -2   -0.88    1.07 
  -3 -30  -2    1.25    1.22 
  -4 -30  -2    2.20    1.32 
  -5 -30  -2   -0.26    1.32 
  -6 -30  -2    0.82    1.45 
  -7 -30  -2    9.78    2.25 
   7 -31  -2    2.05    1.75 
   6 -31  -2   10.54    2.10 
   5 -31  -2    1.55    1.39 
   4 -31  -2    4.72    1.51 
   3 -31  -2    0.98    1.18 
   2 -31  -2    0.39    1.37 
   2 -31  -2    1.48    1.01 
   1 -31  -2    0.75    1.26 
   1 -31  -2   -0.10    0.87 
   0 -31  -2   -1.15    0.90 
   0 -31  -2   -0.19    1.00 
  -1 -31  -2    0.47    1.13 
  -2 -31  -2    1.22    1.22 
  -3 -31  -2    1.46    1.32 
  -4 -31  -2    3.47    1.60 
  -5 -31  -2   -0.36    1.33 
  -6 -31  -2    2.62    1.71 
  -7 -31  -2    0.84    1.69 
   7 -32  -2    3.18    1.88 
   6 -32  -2    3.82    1.87 
   5 -32  -2    8.19    1.90 
   4 -32  -2    1.27    1.34 
   3 -32  -2   11.25    1.80 
   2 -32  -2    0.98    1.49 
   2 -32  -2    0.02    1.02 
   1 -32  -2   -0.11    0.98 
   1 -32  -2    0.80    1.29 
   0 -32  -2    1.46    1.31 
  -1 -32  -2    2.68    1.39 
  -2 -32  -2    1.45    1.30 
  -3 -32  -2    1.87    1.48 
  -4 -32  -2    3.79    1.71 
  -5 -32  -2    1.95    1.58 
  -6 -32  -2   -1.12    1.41 
   6 -33  -2    9.49    2.17 
   5 -33  -2    2.78    1.80 
   4 -33  -2    4.74    1.66 
   3 -33  -2    0.09    1.30 
   2 -33  -2    4.59    1.41 
   1 -33  -2    3.25    1.27 
   1 -33  -2    2.02    1.55 
   0 -33  -2    2.91    1.55 
  -1 -33  -2    1.68    1.34 
  -2 -33  -2   -0.63    1.12 
  -3 -33  -2   -0.65    1.37 
  -4 -33  -2    2.88    1.75 
  -5 -33  -2    0.97    1.58 
  -6 -33  -2    3.75    1.87 
   6 -34  -2    0.33    1.63 
   5 -34  -2   15.18    2.56 
   4 -34  -2    3.37    1.61 
   3 -34  -2    7.35    1.69 
   2 -34  -2    0.56    1.06 
   1 -34  -2    0.98    1.50 
   0 -34  -2    1.50    1.51 
  -1 -34  -2    0.97    1.38 
  -2 -34  -2   -0.92    1.27 
  -3 -34  -2    1.48    1.39 
  -4 -34  -2    2.76    1.74 
  -5 -34  -2    0.91    1.62 
   5 -35  -2    1.11    1.72 
   4 -35  -2    7.18    1.94 
   3 -35  -2    1.16    1.38 
   2 -35  -2    1.55    1.44 
   1 -35  -2    0.89    1.64 
   0 -35  -2    2.27    1.70 
  -1 -35  -2    2.59    1.68 
  -2 -35  -2    0.03    1.34 
  -3 -35  -2    1.08    1.50 
  -4 -35  -2   -0.82    1.47 
  -5 -35  -2   -0.71    1.50 
   4 -36  -2    0.51    1.62 
   3 -36  -2    4.69    1.84 
   0 -36  -2    0.83    1.60 
  -1 -36  -2    2.29    1.59 
  -2 -36  -2    0.22    1.54 
  -3 -36  -2   -1.27    1.32 
  -4 -36  -2    0.56    1.54 
   0 -37  -2   -0.23    1.54 
  -1 -37  -2    1.45    1.69 
  -2 -37  -2   -0.01    1.69 
  -3 -37  -2   -1.15    1.47 
   0 -38  -2   -0.28    1.56 
  -1 -38  -2    0.22    1.67 
  -2 -38  -2    1.97    1.73 
  -1 -38   3   -1.85    1.52 
   0 -38   3    3.54    2.23 
  -3 -37   3    0.62    1.71 
  -2 -37   3    0.46    1.75 
  -1 -37   3    3.48    1.97 
   0 -37   3    0.89    2.07 
   1 -37   3    0.31    1.90 
   2 -37   3    1.76    2.09 
  -4 -36   3    0.59    1.63 
  -3 -36   3    0.11    1.47 
  -2 -36   3    2.78    1.84 
  -1 -36   3    0.59    1.72 
   0 -36   3    5.55    2.32 
   1 -36   3    0.18    1.78 
   2 -36   3    3.69    2.22 
   3 -36   3   -0.56    1.81 
  -5 -35   3    0.34    1.49 
  -4 -35   3   -0.70    1.39 
  -3 -35   3    2.28    1.80 
  -2 -35   3    0.73    1.62 
  -1 -35   3    6.70    2.20 
   0 -35   3   -1.92    1.80 
   1 -35   3    3.28    2.06 
   2 -35   3    1.73    1.95 
   3 -35   3    0.26    1.86 
  -6 -34   3   -0.75    1.45 
  -5 -34   3   -0.01    1.50 
  -4 -34   3   -1.59    1.37 
  -3 -34   3    0.53    1.44 
  -2 -34   3    8.93    2.24 
  -1 -34   3    1.51    1.62 
   0 -34   3    7.58    2.45 
   1 -34   3    1.99    1.99 
   2 -34   3    1.27    1.86 
   3 -34   3    0.46    1.74 
   4 -34   3    1.85    1.82 
  -6 -33   3    1.09    1.55 
  -5 -33   3    0.67    1.52 
  -4 -33   3   -1.63    1.28 
  -3 -33   3    1.25    1.44 
  -2 -33   3    0.32    1.51 
  -1 -33   3   15.24    2.50 
   0 -33   3    1.51    1.84 
   1 -33   3    6.57    2.12 
   2 -33   3   -0.19    1.56 
   3 -33   3    0.23    1.70 
   4 -33   3    3.28    2.03 
  -7 -32   3    0.23    1.52 
  -6 -32   3    2.07    1.63 
  -5 -32   3    1.85    1.48 
  -4 -32   3   -0.75    1.24 
  -3 -32   3   -0.09    1.22 
  -2 -32   3    3.60    1.59 
  -1 -32   3    2.51    1.58 
   0 -32   3    9.67    2.24 
   1 -32   3    2.81    1.69 
   2 -32   3    3.68    1.88 
   3 -32   3    0.96    1.67 
   4 -32   3    1.69    1.80 
   5 -32   3    1.35    1.59 
   6 -32   3    4.24    1.82 
  -7 -31   3    2.92    1.69 
  -6 -31   3    1.14    1.47 
  -5 -31   3    1.71    1.45 
  -4 -31   3   -0.54    1.10 
  -3 -31   3    0.41    1.25 
  -2 -31   3    2.94    1.45 
  -1 -31   3   -0.03    1.26 
   0 -31   3    0.08    1.18 
   1 -31   3   19.34    2.78 
   2 -31   3   -0.42    1.52 
   3 -31   3    2.78    1.71 
   4 -31   3    1.65    1.63 
   4 -31   3    0.62    1.21 
   5 -31   3    0.52    1.36 
   6 -31   3    1.84    1.67 
  -8 -30   3    1.24    1.54 
  -7 -30   3   -0.03    1.43 
  -6 -30   3    8.47    1.92 
  -5 -30   3    3.39    1.57 
  -4 -30   3   -0.01    1.21 
  -3 -30   3   -0.63    1.12 
  -2 -30   3    6.58    1.79 
  -1 -30   3    1.21    1.20 
   0 -30   3    1.06    1.18 
   1 -30   3    1.29    1.41 
   2 -30   3   14.74    2.45 
   3 -30   3    7.48    2.06 
   4 -30   3    1.76    1.30 
   4 -30   3    1.75    1.63 
   5 -30   3    2.50    1.31 
   5 -30   3   -1.18    1.43 
   6 -30   3    2.79    1.68 
   7 -30   3    1.65    1.71 
  -8 -29   3    1.49    1.60 
  -7 -29   3    3.22    1.66 
  -6 -29   3   -0.49    1.32 
  -5 -29   3    0.76    1.19 
  -4 -29   3    7.31    1.71 
  -3 -29   3    1.44    1.28 
  -2 -29   3    1.67    1.24 
  -1 -29   3    9.85    1.86 
   0 -29   3    1.56    1.20 
   1 -29   3   11.67    2.13 
   2 -29   3    0.35    1.30 
   3 -29   3    2.70    1.48 
   3 -29   3    0.59    0.94 
   4 -29   3    2.36    1.12 
   4 -29   3    2.34    1.55 
   5 -29   3    1.51    1.36 
   5 -29   3    0.51    1.58 
   6 -29   3   -1.56    1.35 
   7 -29   3    2.54    1.91 
  -8 -28   3    4.21    1.77 
  -7 -28   3    1.38    1.47 
  -6 -28   3    6.16    1.81 
  -5 -28   3    2.44    1.44 
  -4 -28   3    1.14    1.18 
  -3 -28   3    2.59    1.30 
  -2 -28   3    1.22    1.04 
  -1 -28   3    1.44    1.08 
   0 -28   3   13.34    2.17 
   1 -28   3    2.57    1.43 
   2 -28   3    8.37    1.33 
   2 -28   3    7.17    1.86 
   3 -28   3    0.69    1.25 
   3 -28   3    3.25    1.10 
   4 -28   3    0.19    0.88 
   4 -28   3    2.11    1.45 
   5 -28   3    0.79    1.15 
   5 -28   3   -0.51    1.44 
   6 -28   3    1.91    1.53 
   7 -28   3   -1.69    1.52 
   8 -28   3    0.93    1.76 
  -9 -27   3    1.73    1.54 
  -8 -27   3   -0.57    1.29 
  -7 -27   3   12.23    2.13 
  -6 -27   3    4.85    1.65 
  -5 -27   3    2.54    1.20 
  -4 -27   3    5.26    1.46 
  -3 -27   3    0.80    1.08 
  -2 -27   3    0.60    1.00 
  -1 -27   3   11.95    1.87 
   0 -27   3   12.54    2.06 
   1 -27   3    1.35    1.23 
   2 -27   3   16.45    1.64 
   2 -27   3   18.54    2.49 
   3 -27   3    1.54    1.24 
   3 -27   3    0.22    0.81 
   4 -27   3    0.04    1.16 
   4 -27   3    0.37    0.90 
   5 -27   3   10.08    2.07 
   5 -27   3    7.48    1.69 
   6 -27   3    1.11    1.32 
   7 -27   3   -0.34    1.47 
   8 -27   3    1.35    1.72 
   9  26  -3   -0.36    2.09 
  -9 -26   3    0.59    1.41 
  -8 -26   3    4.43    1.58 
   8  26  -3    0.23    2.06 
  -7 -26   3    2.39    1.39 
  -6 -26   3    9.07    1.90 
  -5 -26   3    1.97    1.23 
  -4 -26   3   -0.05    1.04 
  -3 -26   3    1.11    1.07 
  -2 -26   3   -0.38    0.91 
  -1 -26   3    1.12    0.98 
   0 -26   3   47.17    3.02 
   1 -26   3    1.28    1.16 
   2 -26   3    3.49    0.99 
   2 -26   3    1.54    1.26 
   3 -26   3    9.58    1.78 
   3 -26   3   10.85    1.42 
   4 -26   3   -0.50    1.09 
   4 -26   3    1.61    0.96 
   5 -26   3    0.09    1.15 
   5 -26   3   -1.89    1.07 
   6 -26   3    9.25    1.87 
   6 -26   3    8.41    2.05 
   7 -26   3    3.28    1.52 
   8 -26   3    1.73    1.77 
  -9 -25   3    2.40    1.45 
   9  25  -3    0.85    2.45 
  -8 -25   3    1.00    1.26 
   8  25  -3    2.39    2.15 
  -7 -25   3    4.99    1.49 
   7  25  -3    6.82    2.47 
   6  25  -3    1.58    1.68 
  -6 -25   3    2.52    1.23 
  -5 -25   3    2.35    1.24 
  -4 -25   3    4.67    1.36 
  -3 -25   3    6.01    1.46 
  -2 -25   3    8.02    1.50 
  -1 -25   3    7.67    1.57 
   0 -25   3    8.55    1.65 
   1 -25   3   16.36    2.25 
   1 -25   3   17.28    1.36 
   2 -25   3    4.65    1.50 
   2 -25   3    5.86    1.13 
   3 -25   3   15.03    1.61 
   3 -25   3   11.33    1.92 
   4 -25   3   20.37    2.49 
   4 -25   3   27.77    2.24 
   5 -25   3    0.23    0.94 
   5 -25   3    0.42    1.18 
   6 -25   3    5.18    1.80 
   6 -25   3    3.63    1.39 
   7 -25   3    4.17    1.70 
   8 -25   3    2.04    1.69 
   9 -25   3   -0.93    1.58 
 -10 -24   3    2.11    1.52 
  10  24  -3    0.55    2.39 
  -9 -24   3    0.92    1.30 
   9  24  -3    0.00    2.04 
  -8 -24   3    6.45    1.63 
   8  24  -3    5.84    2.43 
  -7 -24   3    0.14    1.02 
   7  24  -3    1.20    1.63 
  -6 -24   3    6.39    1.48 
   6  24  -3    8.04    2.09 
  -5 -24   3    7.63    1.54 
   5  24  -3    6.06    1.83 
  -4 -24   3    1.64    1.05 
  -3 -24   3   34.47    2.45 
  -2 -24   3   15.53    1.98 
  -1 -24   3   -0.30    0.83 
   0 -24   3   12.14    1.80 
   1 -24   3    1.64    0.63 
   1 -24   3    0.53    1.08 
   2 -24   3   23.28    1.73 
   2 -24   3   23.25    2.46 
   3 -24   3    7.12    1.27 
   3 -24   3    7.33    1.57 
   4 -24   3   17.05    1.79 
   4 -24   3   11.99    1.97 
   5 -24   3    0.37    1.15 
   5 -24   3    3.94    1.27 
   6 -24   3    0.85    1.40 
   6 -24   3    1.33    1.13 
   7 -24   3   -0.09    1.34 
   8 -24   3   -0.69    1.48 
   9 -24   3    0.66    1.56 
 -10 -23   3    1.34    1.41 
  10  23  -3   -0.78    2.01 
   9  23  -3    1.97    2.10 
  -9 -23   3    5.57    1.69 
   8  23  -3    0.78    1.63 
  -8 -23   3    0.53    1.14 
  -7 -23   3    4.49    1.36 
   7  23  -3    2.36    1.68 
  -6 -23   3    0.43    0.92 
   6  23  -3    0.59    1.30 
   5  23  -3    2.29    1.24 
  -5 -23   3    0.82    0.96 
  -4 -23   3   34.22    2.39 
   4  23  -3   31.45    3.23 
  -3 -23   3    5.45    1.32 
  -2 -23   3   15.38    1.93 
  -1 -23   3   13.61    1.84 
   0 -23   3    2.60    1.09 
   0 -23   3    5.71    0.77 
   1 -23   3    5.67    0.87 
   1 -23   3    4.09    1.19 
   2 -23   3    2.86    0.91 
   2 -23   3    2.13    1.20 
   3 -23   3   55.06    2.61 
   3 -23   3   54.41    3.17 
   4 -23   3    5.49    1.24 
   4 -23   3    2.19    1.21 
   5 -23   3    0.82    0.95 
   5 -23   3   -1.23    0.84 
   6 -23   3   -0.19    1.21 
   6 -23   3    2.26    1.12 
   7 -23   3    0.55    1.29 
   8 -23   3    0.38    1.55 
   9 -23   3    2.14    1.79 
 -10 -22   3    1.46    1.32 
  10  22  -3    0.31    2.05 
  -9 -22   3    1.06    1.17 
   9  22  -3    1.22    1.98 
  -8 -22   3    6.48    1.46 
   8  22  -3    7.62    2.30 
  -7 -22   3    3.52    1.28 
   7  22  -3    2.03    1.52 
   6  22  -3    1.75    1.37 
  -6 -22   3    2.88    1.10 
  -5 -22   3   12.56    1.79 
   5  22  -3   10.20    2.06 
  -4 -22   3    2.26    1.03 
   4  22  -3    3.80    1.46 
  -3 -22   3   67.99    3.28 
  -2 -22   3   25.02    2.21 
  -1 -22   3    2.19    1.01 
   0 -22   3   12.35    1.70 
   0 -22   3   13.06    1.04 
   1 -22   3    5.79    1.39 
   1 -22   3    4.09    0.77 
   2 -22   3   26.59    1.65 
   2 -22   3   25.80    2.45 
   3 -22   3   -0.96    0.86 
   3 -22   3    0.01    0.69 
   4 -22   3   27.26    1.93 
   4 -22   3   25.61    2.49 
   5 -22   3    8.84    1.70 
   5 -22   3    8.03    1.48 
   6 -22   3    4.20    1.49 
   6 -22   3    4.13    1.34 
   7 -22   3    0.10    1.27 
   8 -22   3   -0.21    1.45 
   9 -22   3    5.49    2.08 
  10  21  -3   -0.84    1.86 
 -10 -21   3    0.51    1.32 
   9  21  -3    4.41    2.38 
  -9 -21   3    3.74    1.37 
  -8 -21   3    0.10    0.94 
   8  21  -3   -0.78    1.60 
   7  21  -3    0.79    1.50 
  -7 -21   3   -0.28    0.91 
   6  21  -3    7.77    1.95 
  -6 -21   3    8.54    1.53 
   5  21  -3    3.76    1.48 
  -5 -21   3    3.96    1.20 
  -4 -21   3   48.59    2.75 
   4  21  -3   48.62    3.32 
   3  21  -3   22.77    2.62 
  -3 -21   3   25.12    2.18 
  -2 -21   3   20.97    2.00 
  -1 -21   3    0.65    0.79 
   0 -21   3   12.89    1.02 
   0 -21   3    8.49    1.49 
   1 -21   3   21.26    2.15 
   2 -21   3    2.33    0.77 
   2 -21   3    0.43    0.88 
   3 -21   3    2.94    1.21 
   3 -21   3    1.73    0.81 
   4 -21   3    0.23    0.79 
   4 -21   3   -0.67    0.83 
   5 -21   3   13.51    1.95 
   5 -21   3   15.73    1.86 
   6 -21   3    3.07    1.36 
   6 -21   3    1.49    1.12 
   7 -21   3    1.82    1.63 
   7 -21   3    0.92    1.23 
   8 -21   3    2.10    1.55 
   9 -21   3    0.00    1.67 
  10 -21   3    1.61    1.71 
  11  20  -3   -0.08    2.39 
  10  20  -3    1.09    2.14 
 -10 -20   3   -0.24    1.18 
  -9 -20   3    0.99    1.07 
   9  20  -3    3.65    2.24 
  -8 -20   3    1.20    1.05 
   8  20  -3    1.67    1.46 
  -7 -20   3    2.73    1.00 
   7  20  -3    4.69    1.79 
   6  20  -3    0.93    1.27 
  -6 -20   3    0.19    0.79 
   5  20  -3   53.68    3.62 
  -5 -20   3   49.72    2.76 
  -4 -20   3    3.56    1.12 
   4  20  -3    5.13    1.47 
  -3 -20   3   94.48    3.86 
   3  20  -3   99.14    4.61 
  -2 -20   3   34.20    2.18 
  -1 -20   3   26.05    2.16 
  -1 -20   3   24.12    1.13 
   0 -20   3    8.90    0.90 
   0 -20   3    7.20    1.34 
   1 -20   3   14.57    1.80 
   2 -20   3    1.36    1.04 
   2 -20   3    1.25    0.65 
   3 -20   3   14.11    1.88 
   3 -20   3   17.24    1.58 
   4 -20   3   39.93    2.28 
   4 -20   3   42.38    2.72 
   5 -20   3    1.03    1.12 
   5 -20   3    2.21    0.96 
   6 -20   3   16.46    2.24 
   6 -20   3   16.46    2.01 
   7 -20   3    9.83    1.83 
   7 -20   3   11.58    2.17 
   8 -20   3   -0.18    1.27 
   9 -20   3    2.70    1.74 
  10 -20   3    0.29    1.77 
  11  19  -3    2.10    2.39 
 -10 -19   3    2.37    1.34 
  10  19  -3   -2.11    1.81 
   9  19  -3    8.59    2.64 
  -9 -19   3    3.89    1.33 
  -8 -19   3    2.90    1.16 
   8  19  -3    3.02    1.74 
  -7 -19   3    0.94    0.94 
   7  19  -3   -0.08    1.18 
   6  19  -3   20.85    2.86 
  -6 -19   3   16.83    1.89 
  -5 -19   3    2.28    0.98 
   5  19  -3    2.08    1.24 
   4  19  -3   76.03    4.11 
  -4 -19   3   77.75    3.39 
  -3 -19   3   16.48    1.75 
   3  19  -3   18.56    2.23 
   2  19  -3   19.36    2.21 
  -2 -19   3   18.92    1.83 
  -1 -19   3    1.42    0.86 
  -1 -19   3    3.11    0.50 
   0 -19   3    0.08    0.74 
   0 -19   3    1.59    0.54 
   1 -19   3   13.63    1.72 
   2 -19   3   -0.03    0.82 
   2 -19   3    1.18    0.62 
   3 -19   3   55.24    2.50 
   3 -19   3   58.27    3.04 
   4 -19   3    6.95    1.21 
   4 -19   3    4.24    1.27 
   5 -19   3    7.16    1.49 
   5 -19   3    6.20    1.29 
   6 -19   3    6.88    1.66 
   6 -19   3    9.84    1.63 
   7 -19   3    3.44    1.45 
   7 -19   3    1.14    1.15 
   8 -19   3    6.63    1.80 
   9 -19   3    5.97    1.90 
  10 -19   3    1.64    1.87 
  11  18  -3    2.08    2.31 
  10  18  -3    0.47    1.99 
 -10 -18   3    1.43    1.18 
   9  18  -3    1.74    1.81 
  -9 -18   3   -0.19    0.83 
   8  18  -3    4.14    1.86 
  -8 -18   3    4.77    1.17 
  -7 -18   3    1.12    0.91 
   7  18  -3    0.39    1.30 
  -6 -18   3   21.63    1.97 
   6  18  -3   19.10    2.74 
   5  18  -3   42.28    3.10 
  -5 -18   3   40.18    2.36 
   4  18  -3    6.26    1.57 
  -4 -18   3    6.33    1.24 
  -3 -18   3   76.32    3.20 
   3  18  -3   71.59    3.80 
   2  18  -3    7.39    1.45 
  -2 -18   3    8.20    1.27 
  -1 -18   3    7.14    0.64 
  -1 -18   3    4.73    1.10 
   0 -18   3   17.95    1.84 
   0 -18   3   20.76    1.16 
   1 -18   3    1.58    0.87 
   1 -18   3    0.41    0.35 
   2 -18   3   11.17    1.15 
   2 -18   3    9.92    1.51 
   3 -18   3    2.09    0.99 
   3 -18   3    4.44    0.96 
   4 -18   3   42.38    2.29 
   4 -18   3   42.55    2.67 
   5 -18   3    2.77    1.01 
   5 -18   3    2.56    1.17 
   6 -18   3   -0.57    1.07 
   6 -18   3    0.98    0.89 
   7 -18   3    7.76    1.64 
   7 -18   3    7.96    1.84 
   8 -18   3    3.02    1.51 
   9 -18   3    2.39    1.74 
  10 -18   3    4.18    1.89 
  11  17  -3    2.70    2.25 
 -10 -17   3    0.14    1.04 
  10  17  -3    0.07    1.83 
   9  17  -3    1.84    1.76 
  -9 -17   3    2.09    1.04 
  -8 -17   3    0.09    0.79 
   8  17  -3   -0.23    1.30 
  -7 -17   3    0.89    0.83 
   7  17  -3    1.25    1.40 
  -6 -17   3   26.10    1.93 
   6  17  -3   23.66    2.93 
  -5 -17   3    2.59    0.91 
   5  17  -3    0.38    1.03 
  -4 -17   3   46.99    2.44 
   4  17  -3   44.11    3.00 
   3  17  -3   10.67    1.79 
  -3 -17   3   11.29    1.44 
   2  17  -3   59.61    3.10 
  -2 -17   3   51.84    2.58 
  -1 -17   3   15.78    1.66 
  -1 -17   3   15.80    0.86 
   1  17  -3   17.30    1.82 
   0 -17   3    5.35    1.13 
   0 -17   3    5.45    0.70 
   1 -17   3   10.69    1.48 
   1 -17   3    6.47    0.78 
   2 -17   3    0.35    0.55 
   2 -17   3    0.75    0.77 
   3 -17   3    1.91    0.79 
   3 -17   3    1.05    0.92 
   4 -17   3   13.65    1.52 
   4 -17   3   12.06    1.81 
   5 -17   3   41.37    2.71 
   5 -17   3   44.01    2.45 
   6 -17   3   -0.15    0.97 
   6 -17   3    0.61    0.93 
   7 -17   3    0.35    1.02 
   7 -17   3   -1.16    1.05 
   8 -17   3   14.16    2.13 
   9 -17   3    2.57    1.54 
  10 -17   3    3.10    1.85 
  11  16  -3    2.55    2.33 
 -10 -16   3    3.60    1.29 
  10  16  -3    5.19    2.11 
  -9 -16   3    3.08    1.09 
   9  16  -3    4.73    2.28 
   8  16  -3    0.35    1.44 
  -8 -16   3    0.06    0.81 
  -7 -16   3    2.09    0.85 
   7  16  -3    2.69    1.41 
   6  16  -3    3.27    1.38 
  -6 -16   3    2.17    0.88 
   5  16  -3   23.69    2.70 
  -5 -16   3   25.28    1.76 
   4  16  -3    7.96    1.63 
  -4 -16   3    7.08    1.18 
  -3 -16   3   43.88    2.27 
   3  16  -3   41.08    2.72 
   2  16  -3   10.72    1.61 
  -2 -16   3   13.03    1.48 
  -1 -16   3   33.00    2.02 
   1  16  -3   31.36    2.09 
  -1 -16   3   34.61    1.27 
   0 -16   3    5.32    0.67 
   0 -16   3    3.41    0.98 
   1 -16   3   18.53    1.76 
   1 -16   3   14.33    1.03 
   2 -16   3    5.98    0.94 
   2 -16   3    5.06    1.13 
   3 -16   3   25.55    1.62 
   3 -16   3   26.36    1.95 
   4 -16   3    2.90    0.91 
   4 -16   3    3.50    1.18 
   5 -16   3   26.80    1.95 
   5 -16   3   24.67    2.36 
   6 -16   3   11.16    1.63 
   6 -16   3    6.75    1.60 
   7 -16   3    7.85    1.74 
   7 -16   3    6.74    1.55 
   8 -16   3    3.81    1.50 
   9 -16   3    5.23    1.85 
  10 -16   3    2.79    1.98 
  11  15  -3    1.23    2.08 
 -10 -15   3    2.16    1.21 
  10  15  -3    1.92    2.06 
   9  15  -3    5.23    2.09 
  -9 -15   3    5.34    1.30 
   8  15  -3   -0.01    1.39 
  -8 -15   3    0.69    0.80 
  -7 -15   3    6.31    1.21 
   7  15  -3    5.45    1.72 
  -6 -15   3   29.80    1.93 
   6  15  -3   28.37    3.06 
   5  15  -3   39.07    2.94 
  -5 -15   3   39.45    2.15 
   4  15  -3   24.73    2.55 
  -4 -15   3   24.91    1.69 
  -3 -15   3    4.49    1.00 
   3  15  -3    3.59    1.24 
   2  15  -3   24.96    1.93 
  -2 -15   3   27.55    1.75 
   1  15  -3   25.27    1.84 
  -1 -15   3   24.28    1.03 
  -1 -15   3   23.20    1.68 
   0 -15   3   15.92    0.96 
   0 -15   3   16.08    1.59 
   1 -15   3   15.75    1.10 
   1 -15   3   19.35    1.77 
   2 -15   3   14.49    1.24 
   2 -15   3   14.33    1.63 
   3 -15   3    2.90    0.80 
   3 -15   3    5.49    1.22 
   4 -15   3   11.85    1.40 
   4 -15   3   10.53    1.58 
   5 -15   3   55.53    3.10 
   5 -15   3   61.43    2.87 
   6 -15   3    3.21    1.31 
   6 -15   3    5.17    1.24 
   7 -15   3    8.05    1.60 
   8 -15   3    8.04    1.73 
  -8  15  -3    6.78    1.61 
   9 -15   3    0.95    1.46 
  10 -15   3    4.91    1.96 
  11 -15   3   -1.01    1.89 
  12  14  -3    0.76    2.20 
  11  14  -3   -1.20    1.82 
 -10 -14   3    7.74    1.57 
  10  14  -3   10.75    2.80 
  -9 -14   3    1.40    0.93 
   9  14  -3   -0.32    1.48 
   8  14  -3    0.51    1.46 
  -8 -14   3    1.55    0.89 
  -7 -14   3    1.79    0.86 
   7  14  -3    1.68    1.48 
  -6 -14   3   21.90    1.80 
   6  14  -3   19.78    2.66 
  -5 -14   3   30.67    1.87 
   5  14  -3   34.08    2.67 
   4  14  -3   19.23    2.31 
  -4 -14   3   22.30    1.72 
  -3 -14   3    0.54    0.63 
   3  14  -3    0.95    0.94 
  -2 -14   3   12.10    1.34 
   2  14  -3   12.90    1.63 
   1  14  -3  112.69    4.14 
  -1 -14   3  109.36    3.84 
  -1 -14   3  106.10    2.89 
   0 -14   3    3.83    0.92 
   0 -14   3    4.73    0.64 
   0  14  -3    4.62    0.95 
   1 -14   3   85.18    2.76 
   1 -14   3   85.42    3.39 
   2 -14   3    0.42    0.63 
   2 -14   3    0.54    0.56 
   3 -14   3    2.64    0.99 
   3 -14   3    3.80    0.90 
   4 -14   3   14.09    1.75 
   4 -14   3   12.42    1.41 
   5 -14   3    3.98    1.08 
   5 -14   3    3.88    1.28 
   6 -14   3    4.88    1.43 
   6 -14   3    7.07    1.34 
   7 -14   3   24.10    2.36 
  -7  14  -3   20.83    2.27 
   8 -14   3    1.60    1.23 
  -8  14  -3    1.34    1.13 
   9 -14   3    3.15    1.69 
  10 -14   3    3.52    1.89 
  11 -14   3    3.50    2.20 
  12  13  -3    0.75    2.10 
  11  13  -3    2.15    2.18 
  10  13  -3    1.49    1.74 
  -9 -13   3   -0.42    0.81 
   9  13  -3    0.25    1.49 
   8  13  -3   -0.31    1.31 
  -8 -13   3    0.56    0.75 
   7  13  -3    6.83    1.85 
  -7 -13   3    7.23    1.24 
   6  13  -3    6.75    1.72 
  -6 -13   3    4.93    1.01 
  -5 -13   3    1.66    0.70 
   5  13  -3    1.00    1.00 
   4  13  -3   50.48    3.09 
  -4 -13   3   49.03    2.28 
  -3 -13   3    2.47    0.78 
   3  13  -3    0.62    0.89 
   2  13  -3   16.64    1.71 
  -2 -13   3   15.30    1.40 
   1  13  -3   97.65    3.76 
  -1 -13   3   96.84    2.64 
  -1 -13   3   98.01    3.51 
   0  13  -3   13.12    1.26 
   0 -13   3   11.87    1.38 
   0 -13   3   11.54    0.83 
   1 -13   3   51.91    2.49 
   1 -13   3   53.87    2.02 
   2 -13   3   21.13    1.80 
   2 -13   3   21.06    1.36 
   3 -13   3   65.53    2.62 
   3 -13   3   66.78    3.03 
   4 -13   3   23.98    1.82 
   4 -13   3   26.31    2.18 
   5 -13   3   13.32    1.81 
   5 -13   3   16.41    1.72 
   6 -13   3   11.36    1.83 
   6 -13   3    7.78    1.38 
  -7  13  -3    2.57    1.27 
   7 -13   3   -1.49    0.81 
  -8  13  -3   20.42    2.20 
   8 -13   3   22.35    2.45 
   9 -13   3    2.71    1.56 
  10 -13   3    1.52    1.62 
  11 -13   3    2.02    2.01 
  12  12  -3   -1.81    2.28 
  11  12  -3    0.22    1.91 
  10  12  -3    2.29    1.78 
   9  12  -3    1.99    1.66 
  -9 -12   3    2.79    1.05 
   8  12  -3   -0.48    1.37 
  -8 -12   3    0.25    0.81 
  -7 -12   3    7.54    1.23 
   7  12  -3    3.04    1.46 
  -6 -12   3    2.79    0.84 
   6  12  -3    0.10    1.02 
  -5 -12   3   47.47    2.18 
   5  12  -3   42.93    3.00 
   4  12  -3   40.17    2.72 
  -4 -12   3   36.73    1.93 
   3  12  -3   23.97    1.96 
  -3 -12   3   23.13    1.51 
  -2 -12   3    2.43    0.74 
   2  12  -3    1.47    0.90 
  -1 -12   3  196.17    5.67 
  -1 -12   3  191.50    4.74 
   1  12  -3  199.15    6.24 
   0 -12   3    0.73    0.37 
   0  12  -3    0.57    0.62 
   0 -12   3    0.15    0.60 
   1 -12   3   71.02    2.41 
   1 -12   3   71.82    2.95 
   2 -12   3   32.74    1.97 
   2 -12   3   32.29    1.66 
   3 -12   3    2.21    0.78 
   3 -12   3    0.69    0.73 
   4 -12   3   13.42    1.66 
   4 -12   3   14.83    1.49 
   5 -12   3   30.23    2.00 
   5 -12   3   30.58    2.19 
   6 -12   3   11.86    1.62 
   6 -12   3   11.43    1.82 
  -7  12  -3    1.68    1.05 
   7 -12   3    0.44    0.93 
   8 -12   3    2.17    1.25 
  -8  12  -3    0.86    1.03 
   9 -12   3   12.45    2.18 
  10 -12   3    2.93    1.83 
  11 -12   3    2.10    1.99 
  12  11  -3    0.71    2.42 
  11  11  -3   -0.95    1.69 
  10  11  -3    2.91    1.85 
   9  11  -3   10.42    2.40 
  -9 -11   3   11.35    1.46 
   8  11  -3   -0.68    1.23 
  -8 -11   3    0.82    0.78 
   7  11  -3    7.06    1.86 
  -7 -11   3    8.70    1.29 
  -6 -11   3    5.36    0.95 
   6  11  -3    3.11    1.44 
  -5 -11   3    4.03    0.84 
   5  11  -3    2.70    1.34 
   4  11  -3  146.50    5.83 
  -4 -11   3  153.76    4.57 
   3  11  -3    1.14    0.93 
  -3 -11   3    0.93    0.59 
   2  11  -3    5.35    1.13 
  -2 -11   3    5.57    0.93 
   1  11  -3  218.05    6.70 
  -1 -11   3  219.18    6.06 
  -1 -11   3  216.12    5.23 
   0 -11   3   91.99    3.33 
   0 -11   3   91.83    2.73 
   0  11  -3   98.37    3.32 
   1 -11   3  130.55    4.23 
   1 -11   3  124.25    3.63 
   2 -11   3   38.09    2.09 
   2 -11   3   36.44    1.75 
   3 -11   3   17.89    1.75 
   3 -11   3   16.99    1.41 
   4 -11   3   15.21    1.74 
   4 -11   3   11.69    1.36 
   5 -11   3   10.44    1.58 
   5 -11   3   10.71    1.41 
   6 -11   3   10.30    1.53 
  -7  11  -3    5.99    1.33 
   7 -11   3    1.91    1.01 
  -8  11  -3   25.24    2.32 
   8 -11   3   29.61    2.72 
   9 -11   3    1.93    1.45 
  10 -11   3    5.63    2.00 
  11 -11   3    2.37    2.06 
  12  10  -3   -1.64    1.94 
  11  10  -3    2.21    2.10 
  10  10  -3   -0.11    1.58 
  -9 -10   3   -0.11    0.76 
   9  10  -3   -0.45    1.40 
  -8 -10   3    2.02    0.89 
   8  10  -3    2.34    1.63 
   7  10  -3    7.44    1.87 
  -7 -10   3    8.55    1.21 
  -6 -10   3    1.59    0.68 
   6  10  -3    0.90    0.46 
   6  10  -3    1.26    1.19 
   5  10  -3   74.17    3.96 
  -5 -10   3   71.46    2.71 
   4  10  -3   55.69    3.22 
  -4 -10   3   55.46    2.28 
   3  10  -3   31.54    2.21 
  -3 -10   3   32.28    1.66 
   2  10  -3  129.65    4.65 
  -2 -10   3  123.76    3.86 
  -1 -10   3   21.03    1.38 
   1  10  -3   23.01    1.54 
  -1 -10   3   20.20    0.89 
   0 -10   3    4.91    0.61 
   0 -10   3    3.88    0.85 
   0  10  -3    4.23    0.80 
   1 -10   3    1.63    0.69 
   1 -10   3    2.14    0.58 
   2 -10   3   37.45    2.08 
   2 -10   3   38.47    1.78 
   3 -10   3    0.79    0.74 
   3 -10   3    1.21    0.70 
   4 -10   3   57.77    2.88 
   4 -10   3   61.31    2.61 
   5 -10   3   21.93    2.07 
   5 -10   3   19.81    1.79 
  -6  10  -3   -0.20    0.78 
   6 -10   3    1.89    0.93 
   7 -10   3    1.23    1.02 
  -7  10  -3    5.18    1.17 
  -8  10  -3    2.80    1.13 
   8 -10   3    3.26    1.23 
  -9  10  -3    8.17    1.75 
   9 -10   3   10.86    2.09 
  10 -10   3    0.56    1.55 
  11 -10   3    2.57    2.04 
  12   9  -3    0.83    2.14 
  11   9  -3    1.77    1.92 
  10   9  -3    1.58    1.76 
   9   9  -3    4.31    1.88 
  -9  -9   3    2.73    0.99 
  -8  -9   3    3.62    0.95 
   8   9  -3    1.94    1.53 
  -7  -9   3    2.48    0.77 
   7   9  -3    0.70    1.21 
   6   9  -3   92.35    2.75 
   6   9  -3   95.54    4.75 
  -6  -9   3   94.30    3.24 
   5   9  -3    1.11    1.13 
  -5  -9   3    0.57    0.51 
   5   9  -3    0.26    0.35 
   4   9  -3   85.09    4.06 
  -4  -9   3   85.47    2.93 
   3   9  -3  111.11    4.49 
  -3  -9   3  111.33    3.49 
   2   9  -3    0.21    0.70 
  -2  -9   3   -0.05    0.47 
   1   9  -3   86.25    3.27 
  -1  -9   3   89.20    2.39 
  -1  -9   3   83.70    2.97 
   0   9  -3  136.08    4.19 
   0  -9   3  131.30    4.15 
   0  -9   3  133.69    3.60 
  -1   9  -3  115.48    3.36 
   1  -9   3  110.38    3.77 
   1  -9   3  110.02    3.29 
   2  -9   3  143.99    4.64 
   2  -9   3  144.64    4.20 
   3  -9   3   29.74    1.93 
   3  -9   3   28.86    1.68 
   4  -9   3    9.44    1.26 
   4  -9   3   10.01    1.44 
   5  -9   3    1.88    0.95 
   5  -9   3    2.12    0.80 
  -6   9  -3   40.54    2.51 
   6  -9   3   38.67    2.37 
   7  -9   3   16.45    1.99 
  -7   9  -3   12.87    1.75 
   8  -9   3    9.71    1.72 
  -8   9  -3    7.14    1.51 
  -9   9  -3    1.04    1.11 
   9  -9   3    1.73    1.37 
  10  -9   3    5.79    2.05 
  11  -9   3   -0.46    1.84 
  12   8  -3    1.77    2.19 
  11   8  -3    1.62    1.83 
  10   8  -3   -0.77    1.37 
   9   8  -3    7.77    2.11 
   8   8  -3   16.22    2.62 
  -8  -8   3   19.03    1.53 
   7   8  -3   25.48    2.98 
  -7  -8   3   30.20    1.68 
   7   8  -3   29.93    1.58 
  -6  -8   3    4.51    0.85 
   6   8  -3    1.40    1.18 
   6   8  -3    2.52    0.62 
   5   8  -3   48.85    1.57 
  -5  -8   3   45.53    1.97 
   5   8  -3   48.89    3.18 
  -4  -8   3   70.07    2.54 
   4   8  -3   74.26    3.71 
  -3  -8   3    2.15    0.60 
   3   8  -3    2.21    1.00 
  -2  -8   3   31.16    1.52 
   2   8  -3   27.00    1.91 
   1   8  -3   12.24    1.26 
  -1  -8   3   10.37    1.04 
   0   8  -3   59.43    2.17 
   0  -8   3   46.45    1.75 
   0  -8   3   59.81    2.35 
  -1   8  -3    9.03    0.69 
   1  -8   3   10.01    0.90 
   1  -8   3    9.57    1.14 
   2  -8   3    3.84    0.73 
   2  -8   3    2.88    0.84 
   3  -8   3    3.79    0.83 
   3  -8   3    2.34    0.91 
   4  -8   3    9.40    1.25 
   4  -8   3    8.40    1.34 
   5  -8   3   31.03    1.94 
  -6   8  -3   13.24    1.72 
   6  -8   3    9.43    1.49 
  -7   8  -3   11.64    1.62 
   7  -8   3    8.78    1.53 
  -8   8  -3    1.36    0.94 
   8  -8   3    0.16    1.03 
   9  -8   3   10.11    1.97 
  -9   8  -3    8.36    1.65 
  10  -8   3    0.90    1.63 
  11  -8   3    2.64    1.98 
  12   7  -3    0.47    1.99 
  11   7  -3    1.83    1.86 
  10   7  -3    0.56    1.62 
   9   7  -3    4.23    1.82 
   8   7  -3    1.50    1.34 
  -8  -7   3    0.17    0.36 
  -7  -7   3    0.16    0.61 
   7   7  -3    1.69    0.76 
   7   7  -3    1.46    1.34 
  -6  -7   3   53.55    2.20 
   6   7  -3   51.79    3.42 
   6   7  -3   55.41    1.98 
   5   7  -3    4.55    1.38 
  -5  -7   3    3.67    0.69 
   5   7  -3    2.19    0.45 
  -4  -7   3  184.50    4.98 
   4   7  -3  183.13    4.29 
   4   7  -3  177.24    6.63 
  -3  -7   3   64.63    2.30 
   3   7  -3   63.62    3.22 
  -2  -7   3  213.37    5.62 
   2   7  -3  210.29    6.81 
   1   7  -3   15.87    1.39 
  -1  -7   3   16.24    1.20 
   0   7  -3  104.86    3.43 
   0  -7   3  106.12    3.42 
   1  -7   3   66.87    2.61 
  -1   7  -3   63.84    2.07 
   1  -7   3   66.23    2.25 
   2  -7   3    5.05    0.97 
   2  -7   3    6.03    0.85 
   3  -7   3   44.45    2.05 
   3  -7   3   43.66    2.29 
   4  -7   3    0.74    0.72 
   4  -7   3    0.36    0.65 
  -5   7  -3   -0.16    0.76 
   5  -7   3    1.29    0.74 
   6  -7   3   54.61    2.79 
  -6   7  -3   55.38    2.81 
   7  -7   3   14.72    1.85 
  -7   7  -3   12.06    1.71 
  -8   7  -3   18.52    2.01 
   8  -7   3   17.72    2.23 
   9  -7   3    3.41    1.40 
  -9   7  -3    0.81    1.08 
  10  -7   3    2.80    1.83 
  11  -7   3   -0.44    1.94 
  12   6  -3   -0.60    2.15 
  11   6  -3    3.57    2.01 
  10   6  -3    2.36    1.59 
   9   6  -3    5.12    1.81 
   8   6  -3   18.40    1.57 
   8   6  -3   18.28    2.68 
  -8  -6   3   17.30    1.40 
   7   6  -3   12.14    2.23 
   7   6  -3   13.89    1.22 
   6   6  -3   23.90    1.27 
   6   6  -3   22.81    2.73 
   5   6  -3   31.37    2.86 
   5   6  -3   24.27    1.11 
  -5  -6   3   25.60    1.34 
   4   6  -3   15.17    0.75 
  -4  -6   3   16.63    1.09 
   4   6  -3   13.26    1.94 
   3   6  -3  350.74   11.10 
  -3  -6   3  367.95    8.95 
   3   6  -3  386.27    8.34 
   2   6  -3    1.82    0.86 
  -2  -6   3    2.32    0.57 
  -1  -6   3    7.59    0.86 
   1   6  -3    7.94    1.09 
   0   6  -3   12.74    1.04 
   0  -6   3   13.55    1.16 
   1  -6   3   42.61    1.73 
  -1   6  -3   42.44    1.53 
   1  -6   3   45.56    2.05 
   2  -6   3   17.06    1.23 
   2  -6   3   18.60    1.53 
   3  -6   3    3.03    0.78 
   3  -6   3    2.92    0.91 
   4  -6   3    1.42    0.77 
   4  -6   3    0.24    0.64 
  -5   6  -3   20.74    1.86 
   5  -6   3   17.08    1.67 
  -6   6  -3   -0.13    0.78 
   6  -6   3    1.51    0.95 
  -7   6  -3   37.67    2.37 
   7  -6   3   29.50    2.47 
   8  -6   3    2.61    1.23 
  -8   6  -3    3.33    1.16 
   9  -6   3   17.97    2.44 
  -9   6  -3   16.83    1.96 
  10  -6   3    2.04    1.78 
  11  -6   3   -1.22    1.83 
  12   5  -3    3.91    2.33 
  11   5  -3   -0.22    1.82 
  10   5  -3   -0.67    1.34 
   9   5  -3    2.54    1.49 
   8   5  -3   18.14    1.56 
  -8  -5   3   15.67    1.27 
   8   5  -3   11.06    2.26 
  -7  -5   3    5.77    0.87 
   7   5  -3    2.07    1.36 
   7   5  -3    4.16    0.89 
   6   5  -3   30.73    3.05 
   6   5  -3   31.92    1.44 
  -6  -5   3   26.44    1.40 
   5   5  -3    7.23    1.64 
   5   5  -3    5.15    0.60 
   4   5  -3  201.19    4.81 
   4   5  -3  202.89    7.26 
  -4  -5   3  200.69    5.24 
   3   5  -3  124.78    3.03 
   3   5  -3  121.45    4.84 
  -3  -5   3  118.48    3.47 
   2   5  -3    2.35    0.35 
  -2  -5   3    2.32    0.54 
   2   5  -3    1.94    0.85 
   1   5  -3  128.55    4.38 
  -1  -5   3  126.41    3.72 
   0   5  -3  241.82    6.77 
   0  -5   3  239.38    6.22 
   0  -5   3  220.98    5.75 
   1  -5   3   20.57    1.18 
   1  -5   3   21.76    1.41 
  -1   5  -3   18.76    1.02 
   2  -5   3   86.46    3.18 
   2  -5   3   85.46    2.91 
   3  -5   3   63.83    2.76 
   3  -5   3   65.46    2.57 
  -4   5  -3    1.03    0.76 
   4  -5   3    1.51    0.72 
   5  -5   3   14.80    1.61 
  -5   5  -3   16.59    1.67 
   6  -5   3   72.62    3.30 
  -6   5  -3   77.72    3.37 
  -7   5  -3    1.25    0.93 
   7  -5   3    1.66    1.11 
   8  -5   3   12.34    1.95 
  -8   5  -3   10.72    1.63 
  -9   5  -3    4.37    1.36 
   9  -5   3    3.99    1.62 
  10  -5   3    1.38    1.64 
  11  -5   3    2.08    1.98 
  12  -5   3    2.82    2.27 
  12   4  -3    1.01    2.09 
  11   4  -3    1.74    1.84 
  10   4  -3    0.10    1.44 
   9   4  -3   17.71    1.76 
   9   4  -3   19.65    2.95 
   8   4  -3   15.15    1.50 
   8   4  -3   13.28    2.30 
  -8  -4   3   16.02    1.24 
   7   4  -3   26.49    1.53 
   7   4  -3   24.37    3.00 
  -7  -4   3   24.93    1.37 
  -6  -4   3    1.47    0.50 
   6   4  -3    0.32    0.51 
   6   4  -3    1.08    1.26 
   5   4  -3  208.27    5.04 
   5   4  -3  193.74    7.49 
  -5  -4   3  201.07    5.23 
   4   4  -3    3.77    1.22 
   4   4  -3    3.49    0.48 
   3   4  -3  160.52    5.85 
   3   4  -3  164.46    3.92 
  -3  -4   3  154.36    4.20 
   2   4  -3    3.03    0.98 
  -2  -4   3    3.81    0.58 
   2   4  -3    2.91    0.39 
   1   4  -3   21.97    1.62 
  -1  -4   3   24.38    1.27 
   0  -4   3  123.70    3.72 
   0   4  -3  121.88    3.96 
   1  -4   3  209.01    5.74 
   1  -4   3  205.44    5.38 
   2  -4   3  124.97    4.05 
   2  -4   3  127.69    3.85 
   3  -4   3   66.24    2.62 
   3  -4   3   66.40    2.78 
   4  -4   3   27.27    1.75 
  -4   4  -3   27.35    1.85 
  -5   4  -3   63.59    2.88 
   5  -4   3   62.55    2.82 
  -6   4  -3    0.04    0.74 
   6  -4   3    0.57    0.86 
   7  -4   3   87.85    3.84 
  -7   4  -3   84.16    3.71 
   8  -4   3    5.09    1.47 
  -8   4  -3    2.90    1.14 
  -9   4  -3    9.22    1.63 
   9  -4   3   10.38    2.02 
  10  -4   3    0.75    1.62 
 -10   4  -3    1.28    1.25 
  11  -4   3   -0.33    1.89 
  12  -4   3   -1.57    1.94 
  12   3  -3   -0.19    2.14 
  11   3  -3    1.49    1.75 
  10   3  -3   -0.95    1.32 
   9   3  -3    1.42    1.04 
   9   3  -3    5.74    1.77 
   8   3  -3    3.57    1.56 
  -8  -3   3    5.72    0.78 
   8   3  -3    4.33    1.09 
  -7  -3   3    3.51    0.69 
   7   3  -3    0.09    1.27 
   7   3  -3    2.29    0.80 
  -6  -3   3   91.82    2.87 
   6   3  -3   99.61    4.91 
   6   3  -3   92.55    2.88 
   5   3  -3    3.13    1.32 
   5   3  -3    1.42    0.49 
  -5  -3   3    1.54    0.45 
   4   3  -3   36.50    1.34 
   4   3  -3   39.94    2.69 
  -4  -3   3   36.26    1.45 
   3   3  -3    5.12    0.51 
   3   3  -3    5.72    1.38 
   2   3  -3   70.32    2.03 
  -2  -3   3   68.69    2.25 
   2   3  -3   75.46    3.31 
  -1  -3   3  274.03    6.86 
   0  -3   3   10.90    1.02 
   1  -3   3   62.39    2.19 
   1  -3   3   61.38    2.41 
   2  -3   3  413.85   10.06 
   2  -3   3  410.91   10.32 
   3  -3   3    4.75    0.93 
   4  -3   3    7.56    1.20 
  -4   3  -3    8.85    1.25 
  -5   3  -3    0.20    0.64 
   5  -3   3    1.11    0.83 
  -6   3  -3   23.81    2.01 
   6  -3   3   20.95    2.02 
  -7   3  -3    0.81    0.92 
   7  -3   3    3.49    1.21 
   8  -3   3   29.51    2.69 
  -8   3  -3   28.23    2.31 
  -9   3  -3    3.42    1.18 
   9  -3   3    0.57    1.37 
  10  -3   3    0.77    1.62 
 -10   3  -3   -1.47    1.02 
  11  -3   3   -1.99    1.78 
  12  -3   3   -0.55    2.00 
  12   2  -3    1.40    2.17 
  11   2  -3    2.57    1.73 
  10   2  -3    1.96    1.37 
  10   2  -3    2.68    1.74 
   9   2  -3    2.17    1.49 
   9   2  -3   -0.13    0.95 
   8   2  -3   16.61    2.71 
   8   2  -3   11.41    1.39 
   7   2  -3   84.73    2.95 
  -7  -2   3   84.15    2.69 
   7   2  -3   84.91    4.74 
  -6  -2   3    7.86    0.77 
   6   2  -3    9.12    1.93 
   6   2  -3    6.40    0.85 
  -5  -2   3   60.24    1.98 
   5   2  -3   60.56    3.60 
   5   2  -3   61.52    2.04 
   4   2  -3  130.76    3.35 
  -4  -2   3  125.18    3.36 
   4   2  -3  116.56    5.15 
  -3  -2   3  195.90    4.95 
   3   2  -3  195.10    6.88 
   3   2  -3  201.66    4.88 
   2   2  -3  116.43    3.09 
  -1  -2   3  373.87    8.98 
   0  -2   3    0.99    0.49 
   1  -2   3   18.50    1.14 
   1  -2   3   22.51    1.36 
   2  -2   3   32.28    1.64 
   2  -2   3   29.13    1.70 
  -3   2  -3   33.79    1.91 
   3  -2   3   35.31    1.85 
  -4   2  -3    1.49    0.73 
   4  -2   3    1.65    0.75 
  -5   2  -3    7.07    1.16 
   5  -2   3    6.87    1.22 
   6  -2   3    0.86    0.81 
  -6   2  -3    0.83    0.88 
  -7   2  -3   55.27    2.93 
   7  -2   3   63.92    3.24 
  -8   2  -3    3.72    1.13 
   8  -2   3    5.20    1.48 
   9  -2   3   13.15    2.30 
  -9   2  -3   13.24    1.83 
  10  -2   3    0.80    1.62 
 -10   2  -3   -0.94    1.09 
  11  -2   3    0.90    1.88 
  12  -2   3    2.68    2.31 
  13   1  -3   -1.34    2.37 
  12   1  -3    3.85    2.19 
  11   1  -3    0.43    1.64 
  10   1  -3   -0.04    1.15 
  10   1  -3   -1.67    1.32 
   9   1  -3   -0.84    1.18 
   9   1  -3   -0.14    0.93 
   8   1  -3   55.80    2.48 
   8   1  -3   47.32    3.69 
   7   1  -3    3.21    1.47 
  -7  -1   3    4.79    0.66 
   7   1  -3    5.17    0.95 
   6   1  -3   48.74    1.96 
  -6  -1   3   54.31    1.79 
   6   1  -3   46.66    3.33 
  -5  -1   3    8.63    0.68 
   5   1  -3    7.66    0.80 
   5   1  -3    9.55    1.96 
   4   1  -3   26.39    1.18 
  -4  -1   3   25.98    1.08 
   4   1  -3   29.79    2.66 
  -3  -1   3   59.00    1.84 
   3   1  -3   55.77    3.01 
   3   1  -3   59.78    1.89 
  -2  -1   3    2.35    0.42 
   2   1  -3    4.89    0.55 
  -1  -1   3   27.37    1.28 
   0  -1   3  114.23    3.41 
   1  -1   3   62.38    2.35 
  -2   1  -3  259.98    6.86 
   2  -1   3  251.62    6.65 
  -3   1  -3   51.25    2.31 
   3  -1   3   47.37    2.17 
   4  -1   3   58.66    2.61 
  -4   1  -3   61.84    2.69 
   5  -1   3    3.14    0.98 
  -5   1  -3    2.02    0.85 
   6  -1   3    8.68    1.49 
  -6   1  -3    5.36    1.20 
  -7   1  -3    6.25    1.32 
   7  -1   3    7.42    1.57 
  -8   1  -3   26.70    2.32 
   8  -1   3   33.28    2.88 
  -9   1  -3    0.68    0.99 
   9  -1   3    0.10    1.29 
 -10   1  -3   -2.04    0.95 
  10  -1   3    1.95    1.70 
  11  -1   3    0.69    1.93 
  12  -1   3   -0.28    2.14 
  13   0  -3   -1.99    2.49 
  12   0  -3   -0.30    1.95 
  11   0  -3    0.73    1.66 
  10   0  -3    1.18    1.08 
  10   0  -3    1.41    1.42 
   9   0  -3    2.08    1.56 
   9   0  -3    3.59    1.12 
   8   0  -3    1.03    0.89 
   8   0  -3    4.37    1.68 
   7   0  -3   60.28    2.44 
  -7   0   3   62.47    2.03 
   7   0  -3   61.27    3.94 
  -6   0   3    1.81    0.36 
   6   0  -3    1.39    0.60 
   6   0  -3    0.64    1.15 
   5   0  -3  320.64    7.87 
  -5   0   3  329.46    7.64 
   5   0  -3  327.79   10.88 
  -4   0   3    0.43    0.23 
   4   0  -3   -0.09    1.03 
   4   0  -3    0.93    0.45 
  -3   0   3    6.17    0.54 
   3   0  -3    5.89    0.64 
   2   0  -3    0.70    0.36 
  -2   0   3   -0.03    0.25 
  -1   0   3   20.57    1.06 
   0   0   3    0.11    0.40 
   1   0   3   45.59    1.95 
  -2   0  -3   -1.11    0.47 
   2   0   3    1.46    0.61 
   3   0   3  155.04    4.68 
  -3   0  -3  159.78    4.83 
   4   0   3   -0.31    0.57 
  -4   0  -3    0.33    0.67 
  -5   0  -3   -0.26    0.66 
   5   0   3    0.51    0.75 
   6   0   3    0.27    0.81 
  -6   0  -3    1.33    0.83 
  -7   0  -3  109.36    4.30 
   7   0   3  115.62    4.59 
   8   0   3    1.35    1.25 
  -8   0  -3    3.08    1.12 
   9   0   3    0.59    1.38 
  -9   0  -3    2.01    1.08 
  10   0   3    1.71    1.61 
 -10   0  -3    0.12    0.97 
  11   0   3    0.28    1.90 
  12   0   3   -2.63    2.07 
  12  -1  -3    2.97    2.11 
  11  -1  -3    0.18    1.41 
  11  -1  -3    0.28    1.76 
  10  -1  -3    2.20    1.08 
  10  -1  -3    0.03    1.37 
   9  -1  -3    0.12    0.84 
   9  -1  -3   -1.22    1.25 
   8  -1  -3   47.17    2.36 
   8  -1  -3   52.09    3.75 
   7  -1  -3    4.24    1.63 
  -7   1   3    4.88    0.56 
   7  -1  -3    2.99    0.86 
   6  -1  -3   49.66    2.03 
   6  -1  -3   51.12    3.54 
  -6   1   3   51.95    1.63 
   5  -1  -3    6.54    1.80 
   5  -1  -3    4.74    0.74 
  -5   1   3    8.50    0.56 
  -4   1   3   27.64    1.01 
   4  -1  -3   27.47    1.28 
   3  -1  -3   59.16    2.03 
  -3   1   3   63.28    1.83 
  -2   1   3    4.42    0.50 
   2  -1  -3    4.17    0.58 
  -1   1   3   14.35    0.81 
   0   1   3  113.12    3.30 
  -1  -1  -3   60.73    2.30 
  -2  -1  -3  269.88    7.12 
   3   1   3   47.27    2.15 
  -3  -1  -3   45.21    2.15 
   4   1   3   59.28    2.62 
  -4  -1  -3   59.80    2.64 
   5   1   3    4.75    1.07 
  -5  -1  -3    3.56    0.97 
   6   1   3    8.07    1.42 
  -6  -1  -3    6.10    1.19 
   7   1   3    7.91    1.59 
  -7  -1  -3    3.68    1.17 
   8   1   3   28.89    2.69 
  -8  -1  -3   21.88    2.13 
  -9  -1  -3   -0.06    0.96 
   9   1   3    2.36    1.44 
 -10  -1  -3    0.36    1.03 
  10   1   3    0.59    1.57 
  11   1   3   -0.48    1.86 
  12   1   3   -1.25    2.29 
  12  -2  -3    1.96    2.05 
  11  -2  -3   -2.20    1.35 
  11  -2  -3    1.62    1.77 
  10  -2  -3    2.83    1.27 
  10  -2  -3    1.27    1.51 
   9  -2  -3   -1.05    1.24 
   9  -2  -3   -0.32    0.89 
   8  -2  -3   10.11    1.37 
   8  -2  -3   17.91    2.77 
   7  -2  -3   87.91    3.07 
   7  -2  -3   78.66    4.60 
   6  -2  -3    6.27    0.93 
   6  -2  -3    8.05    1.95 
  -6   2   3    7.07    0.52 
   5  -2  -3   58.36    2.15 
  -5   2   3   62.57    1.72 
   5  -2  -3   61.94    3.71 
  -4   2   3  129.97    3.18 
   4  -2  -3  128.71    3.65 
   3  -2  -3  194.35    5.11 
  -3   2   3  203.14    4.78 
   2  -2  -3  117.28    3.29 
  -2   2   3  115.23    3.05 
   0  -2  -3    1.05    0.47 
  -1  -2  -3   23.06    1.31 
  -2  -2  -3   31.73    1.69 
  -3  -2  -3   33.53    1.83 
   3   2   3   33.05    1.80 
   4   2   3    0.04    0.65 
  -4  -2  -3    1.13    0.71 
  -5  -2  -3    8.47    1.29 
   5   2   3    6.25    1.17 
  -6  -2  -3    0.32    0.72 
   6   2   3    0.10    0.81 
  -7  -2  -3   67.91    3.19 
   7   2   3   68.36    3.43 
  -8  -2  -3    3.58    1.22 
   8   2   3    2.90    1.33 
  -9  -2  -3   10.20    1.65 
   9   2   3   11.61    2.17 
  10   2   3   -0.44    1.58 
 -10  -2  -3    0.08    1.05 
  11   2   3    2.30    2.17 
 -11  -2  -3    1.47    1.33 
  12   2   3   -1.05    2.22 
  12  -3  -3    3.11    2.21 
  12  -3  -3    0.31    1.65 
  11  -3  -3    2.18    1.87 
  11  -3  -3   -0.62    1.31 
  10  -3  -3    1.82    1.16 
  10  -3  -3    0.82    1.66 
   9  -3  -3    0.65    0.98 
   9  -3  -3    2.98    1.68 
   8  -3  -3    4.45    1.14 
   8  -3  -3    5.23    1.89 
   7  -3  -3    3.09    1.41 
   7  -3  -3    3.03    0.87 
   6  -3  -3   95.16    4.94 
   6  -3  -3   94.92    3.15 
   5  -3  -3    1.25    0.55 
   4  -3  -3   36.24    1.60 
   3  -3  -3    7.80    0.81 
   2  -3  -3   69.64    2.30 
   1  -3  -3  268.35    6.50 
   0  -3  -3   10.78    0.89 
  -1  -3  -3   65.78    2.37 
  -2  -3  -3  438.99   10.80 
  -3  -3  -3    5.22    0.95 
  -4  -3  -3    8.22    1.20 
   4   3   3   10.64    1.34 
   5   3   3    0.96    0.78 
  -5  -3  -3    0.10    0.66 
  -6  -3  -3   20.77    1.92 
   6   3   3   23.33    2.10 
   7   3   3    3.80    1.29 
  -7  -3  -3    2.39    1.00 
  -8  -3  -3   32.29    2.28 
   8   3   3   30.87    2.76 
   9   3   3    2.60    1.54 
  -9  -3  -3    4.85    1.36 
  10   3   3    1.53    1.91 
 -10  -3  -3   -0.85    1.00 
 -11  -3  -3   -0.17    1.22 
  11   3   3   -1.85    1.94 
  12   3   3    1.65    2.41 
  12  -4  -3   -0.02    1.71 
  12  -4  -3   -1.63    1.96 
  11  -4  -3    0.39    1.73 
  11  -4  -3    0.53    1.29 
  10  -4  -3   -1.19    1.58 
  10  -4  -3    2.05    1.14 
   9  -4  -3   19.43    2.93 
   9  -4  -3   19.53    1.92 
   8  -4  -3   12.85    1.48 
   8  -4  -3   12.15    2.40 
   7  -4  -3   30.74    3.39 
   7  -4  -3   21.92    1.57 
   6  -4  -3    0.60    1.39 
   6  -4  -3    1.04    0.63 
   5  -4  -3  210.57    5.64 
   4  -4  -3    5.20    0.76 
   3  -4  -3  162.07    4.44 
   2  -4  -3    2.79    0.59 
   2  -4  -3    3.01    0.38 
   1  -4  -3   21.74    1.01 
   0  -4  -3  124.83    3.53 
  -1  -4  -3  223.78    5.91 
  -2  -4  -3  133.05    4.07 
  -3  -4  -3   73.79    2.84 
  -4  -4  -3   28.31    1.76 
   4   4   3   26.91    1.75 
  -5  -4  -3   64.43    2.89 
   5   4   3   66.19    2.97 
   6   4   3    0.14    0.92 
  -6  -4  -3   -0.18    0.64 
   7   4   3   88.93    4.03 
  -7  -4  -3   98.19    3.93 
  -8  -4  -3    3.18    1.18 
   8   4   3    2.53    1.51 
   9   4   3   12.72    2.27 
  -9  -4  -3   13.41    1.89 
  10   4   3    2.43    1.77 
 -10  -4  -3    0.26    1.04 
 -11  -4  -3   -1.00    1.20 
  11   4   3    0.67    2.12 
  12   4   3    1.98    2.42 
  12  -5  -3    2.86    2.38 
  12  -5  -3    1.90    1.82 
  11  -5  -3    0.82    1.38 
  11  -5  -3    2.40    1.85 
  10  -5  -3   -0.29    1.65 
  10  -5  -3    1.64    1.20 
   9  -5  -3    2.48    1.64 
   9  -5  -3    0.53    0.95 
   8  -5  -3   11.45    1.45 
   8  -5  -3   11.78    2.42 
   7  -5  -3    5.14    1.92 
   7  -5  -3    4.01    0.98 
   6  -5  -3   28.67    1.64 
   6  -5  -3   32.59    2.76 
   5  -5  -3    5.05    0.84 
   4  -5  -3  205.66    5.50 
   3  -5  -3  122.01    3.61 
   2  -5  -3    1.91    0.32 
   2  -5  -3    3.21    0.63 
   1  -5  -3  127.44    3.68 
   1  -5  -3  126.06    3.35 
   0  -5  -3  246.95    6.18 
  -1  -5  -3   21.19    1.25 
  -2  -5  -3   89.73    3.06 
  -3  -5  -3   65.12    2.64 
  -4  -5  -3    1.91    0.77 
   5   5   3   13.39    1.61 
  -5  -5  -3   15.20    1.56 
  -6  -5  -3   82.11    3.40 
   6   5   3   77.34    3.50 
   7   5   3    0.51    1.06 
  -7  -5  -3    1.42    1.05 
  -8  -5  -3   12.16    1.73 
   8   5   3   16.77    2.25 
   9   5   3    8.59    2.02 
  -9  -5  -3    3.60    1.26 
  10   5   3    3.09    1.84 
 -10  -5  -3    3.50    1.33 
 -11  -5  -3   -0.71    1.30 
  11   5   3   -0.68    1.94 
  12   5   3   -1.82    2.21 
  12  -6  -3    0.95    1.68 
  11  -6  -3    1.13    1.83 
  11  -6  -3    1.47    1.44 
  10  -6  -3    3.72    1.32 
  10  -6  -3    1.86    1.76 
   9  -6  -3    6.00    1.38 
   9  -6  -3    5.83    2.07 
   8  -6  -3   15.54    1.63 
   8  -6  -3   15.45    2.73 
   7  -6  -3   18.18    2.88 
   7  -6  -3   13.22    1.44 
   6  -6  -3   24.53    1.58 
   5  -6  -3   25.94    1.47 
   4  -6  -3   18.38    1.25 
   3  -6  -3  375.43    9.20 
   2  -6  -3    2.03    0.34 
   2  -6  -3    2.23    0.59 
   1  -6  -3    7.03    0.84 
   1  -6  -3    6.89    0.62 
   0  -6  -3   13.03    0.91 
  -1  -6  -3   45.61    1.87 
  -2  -6  -3   18.64    1.29 
  -3  -6  -3    4.42    0.93 
  -4  -6  -3    0.33    0.60 
  -5  -6  -3   20.74    1.80 
   6   6   3   -0.52    0.93 
  -6  -6  -3    0.67    0.79 
   7   6   3   40.00    2.67 
  -7  -6  -3   36.53    2.32 
   8   6   3    4.30    1.50 
  -8  -6  -3    3.63    1.19 
  -9  -6  -3   19.48    2.10 
   9   6   3   19.72    2.65 
  10   6   3   -0.41    1.75 
 -10  -6  -3   -1.27    0.95 
  11   6   3   -2.41    1.99 
 -11  -6  -3   -1.68    1.17 
  12  -7  -3    1.86    1.80 
  11  -7  -3    1.35    1.45 
  11  -7  -3    2.04    2.01 
  10  -7  -3    0.13    1.76 
  10  -7  -3   -0.28    1.09 
   9  -7  -3    5.99    1.33 
   9  -7  -3    4.95    1.96 
   8  -7  -3    2.28    1.73 
   8  -7  -3    3.25    1.03 
   7  -7  -3    0.93    1.45 
   7  -7  -3    2.60    0.87 
   6  -7  -3   50.95    2.29 
   5  -7  -3    3.68    0.82 
   4  -7  -3  181.63    5.08 
   3  -7  -3   66.59    2.47 
   2  -7  -3  219.23    5.72 
   2  -7  -3  211.15    5.03 
   1  -7  -3   15.23    0.84 
   1  -7  -3   15.81    1.13 
   0  -7  -3  108.24    3.14 
  -1  -7  -3   66.38    2.35 
  -2  -7  -3    5.40    0.87 
  -3  -7  -3   41.34    2.03 
  -4  -7  -3   -0.28    0.55 
  -5  -7  -3    0.49    0.76 
  -6  -7  -3   60.49    2.87 
  -7  -7  -3   14.54    1.80 
  -8  -7  -3   17.38    1.98 
   8   7   3   18.70    2.37 
  -9  -7  -3    4.97    1.35 
   9   7   3    1.91    1.62 
 -10  -7  -3    6.75    1.56 
 -11  -7  -3   -0.18    1.25 
  12  -8  -3    1.72    1.76 
  11  -8  -3   -0.84    1.86 
  11  -8  -3    2.17    1.54 
  10  -8  -3   -0.72    1.07 
  10  -8  -3    1.28    1.89 
   9  -8  -3    2.94    1.12 
   9  -8  -3    7.13    2.10 
   8  -8  -3   17.40    3.05 
   8  -8  -3   16.77    1.74 
   7  -8  -3   29.56    1.92 
   7  -8  -3   32.29    2.72 
   6  -8  -3    3.70    0.90 
   5  -8  -3   46.13    2.06 
   4  -8  -3   71.17    2.63 
   3  -8  -3    2.48    0.69 
   2  -8  -3   28.02    1.48 
   2  -8  -3   27.16    0.99 
   1  -8  -3   10.24    0.72 
   1  -8  -3   12.22    1.09 
   0  -8  -3   60.96    2.07 
  -1  -8  -3    8.61    0.94 
  -2  -8  -3    2.04    0.68 
  -3  -8  -3    2.98    0.82 
  -4  -8  -3   12.92    1.43 
  -5  -8  -3   28.89    1.86 
  -6  -8  -3   10.35    1.47 
  -7  -8  -3   11.22    1.67 
  -8  -8  -3    0.22    0.91 
  -9  -8  -3    9.87    1.73 
 -10  -8  -3    1.57    1.31 
 -11  -8  -3    0.37    1.29 
  12  -9  -3    1.95    1.76 
  11  -9  -3    0.03    1.38 
  11  -9  -3    0.42    2.14 
  10  -9  -3    2.24    1.66 
  10  -9  -3    1.15    1.27 
   9  -9  -3    2.74    1.21 
   9  -9  -3    1.54    1.78 
   8  -9  -3    1.92    1.01 
   8  -9  -3    1.30    1.86 
   7  -9  -3    0.73    0.83 
   6  -9  -3   94.71    3.41 
   5  -9  -3    1.42    0.66 
   4  -9  -3   82.53    2.95 
   3  -9  -3  120.97    3.78 
   2  -9  -3    1.15    0.58 
   2  -9  -3    0.32    0.29 
   1  -9  -3   91.63    2.63 
   1  -9  -3   95.16    3.11 
   0  -9  -3  136.14    3.77 
  -1  -9  -3  119.69    3.57 
  -2  -9  -3  151.30    4.45 
  -3  -9  -3   28.88    1.67 
  -4  -9  -3    7.57    1.16 
  -5  -9  -3    2.48    0.87 
  -6  -9  -3   43.26    2.47 
  -7  -9  -3   16.19    1.85 
  -8  -9  -3   10.02    1.62 
  -9  -9  -3    1.02    1.11 
 -10  -9  -3    8.27    1.78 
 -11  -9  -3    0.28    1.32 
  12 -10  -3    1.92    1.84 
  11 -10  -3   -0.06    1.38 
  11 -10  -3    1.90    2.31 
  10 -10  -3   -0.83    1.68 
  10 -10  -3    0.67    1.14 
   9 -10  -3    1.12    1.10 
   9 -10  -3    0.58    1.64 
   8 -10  -3    2.39    2.13 
   8 -10  -3    2.92    1.09 
   7 -10  -3    6.45    1.19 
   6 -10  -3    0.70    0.72 
   5 -10  -3   70.12    2.75 
   4 -10  -3   62.35    2.52 
   3 -10  -3   34.50    1.77 
   3 -10  -3   32.35    1.08 
   2 -10  -3  136.68    3.47 
   2 -10  -3  137.13    4.14 
   1 -10  -3   22.32    1.40 
   1 -10  -3   21.41    1.04 
   0 -10  -3    3.83    0.83 
   0 -10  -3    5.94    0.74 
  -1 -10  -3    2.33    0.65 
  -2 -10  -3   42.30    1.95 
  -3 -10  -3    1.04    0.70 
  -4 -10  -3   64.34    2.77 
  -5 -10  -3   22.66    1.89 
  -6 -10  -3    0.72    0.84 
  -7 -10  -3    3.21    1.13 
  -8 -10  -3    5.19    1.41 
  -9 -10  -3   10.71    1.75 
 -10 -10  -3    0.99    1.24 
 -11 -10  -3    5.18    1.68 
  12 -11  -3    0.44    1.74 
  11 -11  -3   -1.23    1.37 
  10 -11  -3   -0.38    1.63 
  10 -11  -3   -0.79    1.10 
   9 -11  -3   14.72    2.74 
   9 -11  -3   10.56    1.67 
   8 -11  -3   -0.58    1.24 
   8 -11  -3    1.36    0.98 
   7 -11  -3    7.35    1.24 
   6 -11  -3    5.83    1.08 
   5 -11  -3    4.63    0.94 
   4 -11  -3  152.20    4.64 
   3 -11  -3    1.32    0.35 
   3 -11  -3    0.67    0.58 
   2 -11  -3    6.04    0.60 
   2 -11  -3    5.64    0.91 
   1 -11  -3  229.17    6.26 
   1 -11  -3  231.98    5.71 
   0 -11  -3   98.52    3.33 
   0 -11  -3   98.66    2.99 
  -1 -11  -3  136.77    4.00 
  -2 -11  -3   38.19    1.83 
  -3 -11  -3   16.89    1.43 
  -4 -11  -3   17.31    1.60 
  -5 -11  -3   10.26    1.40 
  -6 -11  -3   10.88    1.56 
  -7 -11  -3    5.39    1.39 
  -8 -11  -3   27.53    2.45 
  -9 -11  -3    2.64    1.22 
 -10 -11  -3   10.57    1.87 
 -11 -11  -3   -0.35    1.42 
  12 -12  -3   -0.09    1.59 
  11 -12  -3    1.60    1.58 
  10 -12  -3    1.74    1.99 
  10 -12  -3    1.12    1.28 
   9 -12  -3    1.76    1.17 
   9 -12  -3    1.50    1.89 
   8 -12  -3   -0.25    0.87 
   7 -12  -3    4.18    1.03 
   6 -12  -3    0.60    0.70 
   5 -12  -3   44.46    2.18 
   4 -12  -3   39.71    2.01 
   3 -12  -3   25.97    1.05 
   3 -12  -3   27.19    1.66 
   2 -12  -3    1.36    0.66 
   2 -12  -3    2.26    0.50 
   1 -12  -3  190.61    5.51 
   1 -12  -3  200.22    5.02 
   0 -12  -3   -0.03    0.56 
   0 -12  -3    0.39    0.48 
  -1 -12  -3   75.07    2.63 
  -2 -12  -3   32.67    1.74 
  -3 -12  -3    2.27    0.84 
  -4 -12  -3   14.19    1.52 
  -5 -12  -3   36.91    2.18 
  -6 -12  -3   11.31    1.63 
  -7 -12  -3    2.06    1.09 
  -8 -12  -3    1.63    1.10 
  -9 -12  -3   17.58    2.18 
 -10 -12  -3    2.44    1.42 
 -11 -12  -3   -0.63    1.44 
  12 -13  -3   -0.05    1.77 
  11 -13  -3    2.27    1.66 
  10 -13  -3    2.65    1.46 
  10 -13  -3    2.32    2.21 
   9 -13  -3    1.64    1.13 
   9 -13  -3    2.20    2.01 
   8 -13  -3    0.38    0.93 
   7 -13  -3    5.21    1.15 
   6 -13  -3    5.14    1.09 
   5 -13  -3    0.88    0.66 
   4 -13  -3   52.94    2.40 
   3 -13  -3    0.20    0.60 
   3 -13  -3    2.03    0.45 
   2 -13  -3   15.72    0.93 
   2 -13  -3   15.03    1.36 
   1 -13  -3  100.86    2.95 
   1 -13  -3   97.70    3.40 
   0 -13  -3   13.88    1.32 
   0 -13  -3   13.81    1.08 
  -1 -13  -3   63.83    2.37 
  -2 -13  -3   22.45    1.47 
  -3 -13  -3   71.53    2.86 
  -4 -13  -3   22.99    1.83 
  -5 -13  -3   17.06    1.78 
  -6 -13  -3   10.73    1.60 
  -7 -13  -3    0.49    0.88 
  -8 -13  -3   22.77    2.29 
  -9 -13  -3    3.65    1.39 
 -10 -13  -3    1.79    1.43 
 -11 -13  -3    2.89    1.61 
  12 -14  -3    3.38    1.91 
  11 -14  -3   -0.23    1.51 
  10 -14  -3    7.74    2.75 
  10 -14  -3    8.46    1.86 
   9 -14  -3    1.09    1.16 
   9 -14  -3    2.71    2.26 
   8 -14  -3    0.81    1.01 
   7 -14  -3    1.30    0.93 
   6 -14  -3   21.57    1.84 
   5 -14  -3   33.88    1.94 
   4 -14  -3   19.79    1.01 
   4 -14  -3   19.04    1.60 
   3 -14  -3    0.91    0.64 
   3 -14  -3    0.64    0.41 
   2 -14  -3   11.13    1.26 
   2 -14  -3   12.85    0.93 
   1 -14  -3  118.76    3.43 
   1 -14  -3  119.32    3.91 
   0 -14  -3    3.01    0.69 
   0 -14  -3    3.52    0.85 
  -1 -14  -3   86.62    2.95 
  -2 -14  -3    0.23    0.56 
  -3 -14  -3    4.83    0.98 
  -4 -14  -3   14.44    1.55 
  -5 -14  -3    6.18    1.24 
  -6 -14  -3    4.32    1.23 
  -7 -14  -3   21.05    2.13 
  -8 -14  -3    0.55    1.06 
  -9 -14  -3    2.82    1.41 
 -10 -14  -3    3.25    1.59 
 -11 -14  -3    0.51    1.55 
  11 -15  -3    1.14    1.65 
  10 -15  -3    1.49    1.42 
   9 -15  -3    3.43    2.16 
   9 -15  -3    6.66    1.55 
   8 -15  -3   -0.68    0.93 
   7 -15  -3    5.54    1.26 
   6 -15  -3   36.89    2.20 
   5 -15  -3   38.07    2.10 
   4 -15  -3   25.80    1.18 
   4 -15  -3   26.98    1.75 
   3 -15  -3    5.00    0.68 
   3 -15  -3    5.35    0.97 
   2 -15  -3   26.56    1.31 
   2 -15  -3   28.76    1.78 
   1 -15  -3   25.11    1.63 
   1 -15  -3   25.13    1.34 
   0 -15  -3   17.88    1.51 
   0 -15  -3   15.42    1.14 
  -1 -15  -3   18.18    1.56 
  -1 -15  -3   18.01    1.30 
  -2 -15  -3   14.58    1.37 
  -3 -15  -3    2.23    0.81 
  -4 -15  -3    8.40    1.28 
  -5 -15  -3   63.10    2.96 
  -6 -15  -3    3.50    1.10 
  -7 -15  -3    7.25    1.42 
  -8 -15  -3    6.21    1.52 
  -9 -15  -3    0.87    1.29 
 -10 -15  -3    6.48    1.89 
 -11 -15  -3    1.40    1.67 
  11 -16  -3    0.58    1.54 
  10 -16  -3    2.40    1.52 
   9 -16  -3    4.18    1.44 
   9 -16  -3    5.98    1.94 
   8 -16  -3    1.96    1.11 
   7 -16  -3    1.28    0.99 
   6 -16  -3    1.82    0.96 
   5 -16  -3   24.00    1.73 
   4 -16  -3    6.08    0.71 
   4 -16  -3    4.82    1.02 
   3 -16  -3   47.84    2.31 
   3 -16  -3   45.53    1.79 
   2 -16  -3   12.88    1.40 
   2 -16  -3   11.96    1.02 
   1 -16  -3   36.99    1.97 
   1 -16  -3   37.57    1.70 
   0 -16  -3    4.41    0.81 
   0 -16  -3    6.10    1.05 
  -1 -16  -3   18.14    1.57 
  -1 -16  -3   17.97    1.30 
  -2 -16  -3    4.06    0.95 
  -3 -16  -3   28.39    1.79 
  -4 -16  -3    1.93    0.86 
  -5 -16  -3   22.04    1.99 
  -6 -16  -3   10.53    1.66 
  -7 -16  -3    6.99    1.44 
  -8 -16  -3    5.57    1.52 
  -9 -16  -3    6.85    1.72 
 -10 -16  -3    0.68    1.39 
  11 -17  -3    3.51    1.91 
  10 -17  -3   -0.60    1.35 
   9 -17  -3    4.85    1.55 
   8 -17  -3    0.95    1.09 
   7 -17  -3    2.12    1.10 
   6 -17  -3   31.09    2.19 
   5 -17  -3    2.31    0.88 
   4 -17  -3   50.02    1.87 
   4 -17  -3   45.92    2.39 
   3 -17  -3   10.11    1.31 
   3 -17  -3   12.97    1.06 
   2 -17  -3   57.69    2.21 
   2 -17  -3   62.31    2.70 
   1 -17  -3   13.88    1.41 
   1 -17  -3   16.87    1.26 
   0 -17  -3    5.23    0.91 
   0 -17  -3    6.25    1.08 
  -1 -17  -3   11.49    1.23 
  -1 -17  -3   10.98    1.32 
  -2 -17  -3    0.25    0.65 
  -3 -17  -3    1.83    0.85 
  -4 -17  -3   14.18    1.65 
  -5 -17  -3   40.06    2.41 
  -6 -17  -3    1.65    1.02 
  -7 -17  -3    1.82    1.12 
  -8 -17  -3   10.85    1.79 
  -9 -17  -3   -0.60    1.19 
 -10 -17  -3    0.30    1.48 
  11 -18  -3    0.33    1.76 
  10 -18  -3    0.54    1.46 
   9 -18  -3    0.16    1.24 
   8 -18  -3    2.84    1.24 
   7 -18  -3    1.49    1.04 
   6 -18  -3   23.10    2.05 
   5 -18  -3   39.69    2.28 
   4 -18  -3    5.46    0.80 
   4 -18  -3    5.24    1.11 
   3 -18  -3   76.09    2.68 
   3 -18  -3   80.48    3.19 
   2 -18  -3    9.73    1.34 
   2 -18  -3   10.41    1.12 
   1 -18  -3    6.72    0.95 
   1 -18  -3    7.27    1.16 
   0 -18  -3   20.92    1.40 
   0 -18  -3   22.37    1.60 
  -1 -18  -3    0.24    0.68 
  -1 -18  -3   -0.64    0.56 
  -2 -18  -3   13.32    1.48 
  -2 -18  -3   11.70    1.35 
  -3 -18  -3    1.49    0.82 
  -4 -18  -3   43.30    2.41 
  -5 -18  -3    0.88    0.86 
  -6 -18  -3    1.05    1.01 
  -7 -18  -3    4.42    1.38 
  -8 -18  -3    1.71    1.22 
  -9 -18  -3    3.44    1.56 
 -10 -18  -3    1.01    1.54 
  11 -19  -3    3.18    1.99 
  10 -19  -3    0.50    1.45 
   9 -19  -3    8.08    1.83 
   8 -19  -3    1.20    1.21 
   7 -19  -3    0.89    0.94 
   6 -19  -3   19.94    2.03 
   5 -19  -3    0.72    0.86 
   4 -19  -3   73.18    3.13 
   3 -19  -3   19.06    1.35 
   3 -19  -3   22.42    1.85 
   2 -19  -3   17.68    1.31 
   2 -19  -3   18.58    1.67 
   1 -19  -3    1.78    0.73 
   1 -19  -3    3.04    0.89 
   0 -19  -3    1.72    0.76 
   0 -19  -3    0.33    0.63 
  -1 -19  -3   16.51    1.49 
  -1 -19  -3   16.42    1.58 
  -2 -19  -3    0.96    0.73 
  -2 -19  -3    0.39    0.67 
  -3 -19  -3   60.09    2.76 
  -4 -19  -3    6.92    1.31 
  -5 -19  -3    6.78    1.38 
  -6 -19  -3    7.14    1.49 
  -7 -19  -3   -0.70    0.96 
  -8 -19  -3    8.28    1.78 
  -9 -19  -3    0.55    1.32 
 -10 -19  -3    0.97    1.67 
  11 -20  -3    1.15    1.86 
  10 -20  -3    0.71    1.57 
   9 -20  -3    3.31    1.52 
   8 -20  -3   -0.05    1.12 
   7 -20  -3    3.79    1.29 
   6 -20  -3    0.70    0.96 
   5 -20  -3   52.99    2.74 
   4 -20  -3    5.50    1.16 
   3 -20  -3  108.54    3.54 
   3 -20  -3  106.41    3.98 
   2 -20  -3   38.96    1.90 
   2 -20  -3   37.98    2.18 
   1 -20  -3   24.93    1.56 
   1 -20  -3   26.03    1.79 
   0 -20  -3   11.85    1.40 
   0 -20  -3   10.27    1.24 
  -1 -20  -3   20.59    1.75 
  -1 -20  -3   18.83    1.62 
  -2 -20  -3    1.73    0.82 
  -2 -20  -3    1.12    0.75 
  -3 -20  -3   16.80    1.67 
  -3 -20  -3   12.83    1.52 
  -4 -20  -3   47.38    2.61 
  -5 -20  -3    2.31    1.02 
  -6 -20  -3   17.69    2.12 
  -7 -20  -3    9.86    1.85 
  -8 -20  -3   -0.27    1.19 
  -9 -20  -3   -0.13    1.40 
 -10 -20  -3    0.10    1.42 
  10 -21  -3    0.81    1.61 
   9 -21  -3    5.99    1.80 
   8 -21  -3   -0.55    1.16 
   7 -21  -3   -0.10    1.05 
   6 -21  -3    7.69    1.51 
   5 -21  -3    2.34    0.98 
   4 -21  -3   55.64    2.75 
   3 -21  -3   21.67    1.51 
   3 -21  -3   23.78    1.97 
   2 -21  -3   24.65    1.59 
   2 -21  -3   24.25    1.78 
   1 -21  -3    1.33    0.71 
   1 -21  -3    1.28    0.77 
   0 -21  -3   12.32    1.37 
   0 -21  -3    8.45    1.29 
  -1 -21  -3   22.27    1.65 
  -1 -21  -3   23.64    1.71 
  -2 -21  -3    2.07    0.89 
  -2 -21  -3    0.34    0.73 
  -3 -21  -3    2.01    0.93 
  -3 -21  -3    1.93    0.89 
  -4 -21  -3    0.34    0.84 
  -5 -21  -3   20.16    2.11 
  -6 -21  -3    2.39    1.21 
  -7 -21  -3    0.09    1.11 
  -8 -21  -3   -0.76    1.19 
  -9 -21  -3    0.27    1.37 
 -10 -21  -3   -0.22    1.34 
  10 -22  -3    2.01    1.71 
   9 -22  -3    0.12    1.44 
   8 -22  -3    7.38    1.85 
   7 -22  -3    3.51    1.34 
   6 -22  -3    3.00    1.21 
   5 -22  -3   15.01    1.83 
   4 -22  -3    3.54    1.10 
   3 -22  -3   79.28    3.37 
   3 -22  -3   78.40    2.99 
   2 -22  -3   25.29    1.82 
   2 -22  -3   25.02    1.66 
   1 -22  -3    3.32    0.95 
   1 -22  -3    2.74    0.90 
   0 -22  -3   11.98    1.48 
   0 -22  -3   10.99    1.41 
  -1 -22  -3    8.87    1.29 
  -1 -22  -3    7.61    1.30 
  -2 -22  -3   27.17    1.92 
  -2 -22  -3   27.44    1.91 
  -3 -22  -3    1.38    0.97 
  -3 -22  -3    3.09    1.10 
  -4 -22  -3   27.92    2.29 
  -5 -22  -3   10.20    1.69 
  -6 -22  -3    2.40    1.21 
  -7 -22  -3   -0.27    1.10 
  -8 -22  -3   -0.10    1.23 
  -9 -22  -3    1.36    1.48 
  10 -23  -3   -0.20    1.63 
   9 -23  -3    4.61    1.80 
   8 -23  -3    1.54    1.50 
   7 -23  -3    6.59    1.58 
   6 -23  -3   -0.23    0.98 
   5 -23  -3    1.91    1.01 
   4 -23  -3   31.89    2.17 
   3 -23  -3    7.12    1.15 
   3 -23  -3    8.83    1.42 
   2 -23  -3   18.18    1.78 
   2 -23  -3   17.51    1.61 
   1 -23  -3   15.43    1.70 
   1 -23  -3   13.47    1.51 
   0 -23  -3    3.16    0.98 
   0 -23  -3    3.85    1.09 
  -1 -23  -3    4.19    1.09 
  -1 -23  -3    7.08    1.29 
  -2 -23  -3    3.64    1.05 
  -2 -23  -3    1.85    0.93 
  -3 -23  -3   59.10    2.89 
  -3 -23  -3   56.23    2.90 
  -4 -23  -3    3.35    1.18 
  -4 -23  -3    3.93    1.29 
  -5 -23  -3   -0.10    0.89 
  -6 -23  -3   -1.17    0.88 
  -7 -23  -3    0.21    1.22 
  -8 -23  -3    2.63    1.49 
  -9 -23  -3    0.58    1.61 
  10 -24  -3    3.66    1.84 
   9 -24  -3    0.95    1.67 
   8 -24  -3    4.98    1.82 
   7 -24  -3    0.18    1.17 
   6 -24  -3   10.55    1.82 
   5 -24  -3    5.67    1.35 
   4 -24  -3    1.98    1.00 
   3 -24  -3   37.76    2.33 
   3 -24  -3   39.57    2.14 
   2 -24  -3   18.84    1.83 
   2 -24  -3   19.17    1.71 
   1 -24  -3    1.72    0.86 
   1 -24  -3    0.98    0.85 
   0 -24  -3   12.07    1.59 
   0 -24  -3   10.45    1.43 
  -1 -24  -3    0.92    0.89 
  -1 -24  -3    1.90    0.96 
  -2 -24  -3   24.73    2.05 
  -2 -24  -3   23.02    2.07 
  -3 -24  -3    6.76    1.37 
  -3 -24  -3    7.25    1.40 
  -4 -24  -3   15.76    1.88 
  -4 -24  -3   15.63    1.96 
  -5 -24  -3    1.78    1.16 
  -6 -24  -3    0.68    1.10 
  -7 -24  -3    1.39    1.37 
  -8 -24  -3   -0.18    1.32 
  -9 -24  -3    0.86    1.59 
   9 -25  -3    1.26    1.66 
   8 -25  -3   -2.28    1.32 
   7 -25  -3    4.21    1.58 
   6 -25  -3    3.76    1.40 
   5 -25  -3    2.28    1.07 
   4 -25  -3    3.69    1.21 
   3 -25  -3    5.06    1.20 
   2 -25  -3    8.58    1.41 
   2 -25  -3    8.15    1.38 
   1 -25  -3    7.57    1.31 
   1 -25  -3    8.49    1.40 
   0 -25  -3    9.37    1.41 
   0 -25  -3    6.13    1.26 
  -1 -25  -3   15.51    1.73 
  -1 -25  -3   17.28    1.79 
  -2 -25  -3    5.61    1.30 
  -2 -25  -3    5.93    1.29 
  -3 -25  -3   10.24    1.66 
  -3 -25  -3   12.43    1.72 
  -4 -25  -3   22.22    2.25 
  -4 -25  -3   23.89    2.19 
  -5 -25  -3   -1.30    0.94 
  -6 -25  -3    1.91    1.30 
  -7 -25  -3    5.85    1.77 
  -8 -25  -3    0.26    1.36 
  -9 -25  -3   -0.24    1.35 
   9 -26  -3   -1.22    1.57 
   8 -26  -3    6.31    1.90 
   7 -26  -3    1.65    1.48 
   6 -26  -3    8.47    1.74 
   5 -26  -3    1.90    1.12 
   4 -26  -3    0.12    0.93 
   3 -26  -3    0.19    0.87 
   2 -26  -3    1.73    0.95 
   2 -26  -3    0.86    1.06 
   1 -26  -3   -0.59    0.80 
   1 -26  -3   -0.14    0.81 
   0 -26  -3   51.48    2.72 
   0 -26  -3   56.65    2.82 
  -1 -26  -3    0.14    0.86 
  -1 -26  -3    0.64    0.88 
  -2 -26  -3    2.04    1.10 
  -2 -26  -3    3.57    1.11 
  -3 -26  -3   11.35    1.77 
  -3 -26  -3   11.44    1.65 
  -4 -26  -3    1.37    1.21 
  -5 -26  -3    1.28    1.23 
  -6 -26  -3   10.92    2.10 
  -7 -26  -3    0.53    1.32 
  -8 -26  -3    1.15    1.50 
   9 -27  -3   -0.14    1.66 
   8 -27  -3    2.84    1.63 
   7 -27  -3   13.24    2.39 
   6 -27  -3    7.17    1.71 
   5 -27  -3    1.81    1.31 
   4 -27  -3    5.66    1.27 
   3 -27  -3    0.73    0.88 
   2 -27  -3    4.71    1.35 
   2 -27  -3    5.45    1.31 
   1 -27  -3   14.95    1.75 
   1 -27  -3   14.01    1.72 
   0 -27  -3   13.42    1.74 
   0 -27  -3   15.53    1.78 
  -1 -27  -3    4.96    1.18 
  -1 -27  -3    4.53    1.25 
  -2 -27  -3   18.13    1.84 
  -2 -27  -3   17.93    2.04 
  -3 -27  -3   -0.27    1.03 
  -3 -27  -3   -0.35    0.87 
  -4 -27  -3    1.48    1.17 
  -5 -27  -3    8.58    1.80 
  -6 -27  -3    1.83    1.45 
  -7 -27  -3    0.13    1.40 
  -8 -27  -3   -0.21    1.42 
   8 -28  -3    7.78    2.08 
   7 -28  -3    1.25    1.65 
   6 -28  -3    5.65    1.70 
   5 -28  -3    2.54    1.27 
   4 -28  -3    0.56    1.02 
   3 -28  -3    4.85    1.23 
   2 -28  -3    1.84    1.04 
   2 -28  -3    2.93    1.31 
   1 -28  -3    0.31    0.90 
   1 -28  -3   -1.29    0.91 
   0 -28  -3   10.83    1.60 
   0 -28  -3   11.11    1.66 
  -1 -28  -3   -0.37    0.81 
  -1 -28  -3   -0.33    0.90 
  -2 -28  -3    7.61    1.43 
  -2 -28  -3    7.07    1.54 
  -3 -28  -3    3.29    1.20 
  -4 -28  -3    2.82    1.38 
  -5 -28  -3    1.79    1.34 
  -6 -28  -3    2.52    1.53 
  -7 -28  -3   -0.27    1.49 
  -8 -28  -3    2.37    1.70 
   8 -29  -3    0.35    1.62 
   7 -29  -3    4.44    2.05 
   6 -29  -3   -0.79    1.33 
   5 -29  -3    1.12    1.36 
   4 -29  -3   10.58    1.74 
   3 -29  -3    0.48    1.00 
   2 -29  -3    1.10    1.24 
   2 -29  -3   -1.61    0.80 
   1 -29  -3    5.36    1.33 
   1 -29  -3    7.03    1.44 
   0 -29  -3   -1.48    0.85 
   0 -29  -3    1.53    0.99 
  -1 -29  -3    7.21    1.52 
  -1 -29  -3   10.11    1.59 
  -2 -29  -3    0.66    0.99 
  -2 -29  -3    0.87    1.07 
  -3 -29  -3    1.27    1.23 
  -4 -29  -3    3.32    1.45 
  -5 -29  -3    0.33    1.30 
  -6 -29  -3    0.08    1.45 
  -7 -29  -3    1.32    1.70 
   8 -30  -3    1.57    1.65 
   7 -30  -3   -0.40    1.70 
   6 -30  -3    9.01    2.00 
   5 -30  -3    3.88    1.60 
   4 -30  -3   -0.27    1.04 
   3 -30  -3   -1.28    0.93 
   2 -30  -3    9.32    1.63 
   1 -30  -3    2.13    1.23 
   1 -30  -3    1.17    1.03 
   0 -30  -3    5.14    1.27 
   0 -30  -3    5.36    1.36 
  -1 -30  -3    2.18    1.13 
  -1 -30  -3    1.99    1.21 
  -2 -30  -3   12.28    1.95 
  -3 -30  -3    6.02    1.56 
  -4 -30  -3    2.85    1.47 
  -5 -30  -3    0.79    1.48 
  -6 -30  -3    1.84    1.65 
  -7 -30  -3   -0.09    1.59 
   7 -31  -3    5.64    1.93 
   6 -31  -3    1.50    1.58 
   5 -31  -3    3.63    1.61 
   4 -31  -3   -0.54    0.98 
   3 -31  -3    2.10    1.16 
   2 -31  -3    0.85    1.02 
   1 -31  -3    3.21    1.16 
   1 -31  -3    0.79    1.33 
   0 -31  -3    1.03    1.15 
   0 -31  -3   -0.68    1.05 
  -1 -31  -3   13.74    2.04 
  -1 -31  -3   16.47    2.01 
  -2 -31  -3    0.53    1.24 
  -3 -31  -3    2.29    1.40 
  -4 -31  -3    1.90    1.52 
  -5 -31  -3    1.25    1.55 
  -6 -31  -3    2.89    1.77 
   7 -32  -3   -2.54    1.52 
   6 -32  -3    4.31    1.78 
   5 -32  -3    1.52    1.57 
   4 -32  -3    2.31    1.47 
   3 -32  -3    0.05    1.11 
   2 -32  -3    2.42    1.17 
   1 -32  -3    1.66    1.49 
   1 -32  -3    1.89    1.12 
   0 -32  -3    9.79    1.72 
   0 -32  -3   12.33    2.00 
  -1 -32  -3    0.00    1.15 
  -2 -32  -3    3.01    1.41 
  -3 -32  -3   -0.33    1.25 
  -4 -32  -3    2.27    1.46 
  -5 -32  -3    1.06    1.63 
  -6 -32  -3   -1.52    1.56 
   6 -33  -3   -1.44    1.55 
   5 -33  -3    0.20    1.58 
   4 -33  -3   -0.08    1.45 
   3 -33  -3    0.39    1.22 
   2 -33  -3    0.86    1.14 
   1 -33  -3   12.81    1.86 
   1 -33  -3   15.31    2.37 
   0 -33  -3    0.96    1.44 
   0 -33  -3    0.11    1.18 
  -1 -33  -3    7.06    1.82 
  -2 -33  -3    0.33    1.30 
  -3 -33  -3    0.73    1.42 
  -4 -33  -3   -0.13    1.42 
  -5 -33  -3   -0.18    1.51 
   6 -34  -3    0.12    1.85 
   5 -34  -3   -0.02    1.58 
   4 -34  -3   -1.21    1.45 
   3 -34  -3    0.02    1.20 
   2 -34  -3    7.06    1.66 
   1 -34  -3   -0.75    1.12 
   0 -34  -3    7.37    1.95 
  -1 -34  -3   -1.45    1.21 
  -2 -34  -3    1.33    1.54 
  -3 -34  -3    2.32    1.64 
  -4 -34  -3    1.32    1.63 
  -5 -34  -3   -0.45    1.53 
   5 -35  -3    2.25    1.77 
   4 -35  -3   -0.45    1.53 
   3 -35  -3    2.13    1.43 
   2 -35  -3    2.31    1.43 
   0 -35  -3   -0.63    1.48 
  -1 -35  -3    3.73    1.64 
  -2 -35  -3    1.12    1.55 
  -3 -35  -3    0.37    1.48 
  -4 -35  -3   -0.17    1.46 
   4 -36  -3   -1.41    1.54 
   3 -36  -3    1.17    1.58 
   2 -36  -3    3.61    1.53 
   0 -36  -3    2.78    1.72 
  -1 -36  -3    0.66    1.48 
  -2 -36  -3    1.80    1.70 
  -3 -36  -3   -2.26    1.29 
   3 -37  -3    2.50    1.79 
   0 -37  -3    3.76    1.76 
  -1 -37  -3    1.36    1.61 
  -2 -37  -3    0.82    1.61 
  -2 -37   4    5.28    2.16 
  -1 -37   4    1.50    1.91 
   0 -37   4   -0.18    1.76 
   1 -37   4   -2.24    1.87 
  -3 -36   4    4.18    2.03 
  -2 -36   4   -0.03    1.69 
  -1 -36   4    0.61    1.90 
   0 -36   4   -2.07    1.58 
   1 -36   4    0.18    1.96 
   2 -36   4   -0.77    1.84 
  -4 -35   4    3.50    1.93 
  -3 -35   4    0.43    1.69 
  -2 -35   4    4.27    1.93 
  -1 -35   4   -1.21    1.74 
   0 -35   4    2.61    1.86 
   1 -35   4    0.02    1.82 
   2 -35   4   -0.46    1.75 
   3 -35   4   -0.28    1.82 
  -5 -34   4    2.74    1.63 
  -4 -34   4    0.90    1.68 
  -3 -34   4    1.01    1.67 
  -2 -34   4   -1.91    1.34 
  -1 -34   4    7.73    2.51 
   0 -34   4    0.90    1.78 
   1 -34   4   -1.65    1.71 
   2 -34   4   -0.82    1.67 
   3 -34   4   -2.01    1.65 
   4 -34   4   -0.21    1.83 
  -6 -33   4    4.96    1.94 
  -5 -33   4   -0.20    1.38 
  -4 -33   4    0.67    1.55 
  -3 -33   4    2.17    1.70 
  -2 -33   4    5.48    1.90 
  -1 -33   4   -0.61    1.73 
   0 -33   4    0.91    1.61 
   1 -33   4    0.03    1.76 
   2 -33   4   -1.25    1.59 
   3 -33   4   -0.56    1.62 
   4 -33   4   -1.30    1.69 
  -6 -32   4    1.62    1.52 
  -5 -32   4   -0.29    1.35 
  -4 -32   4   -0.88    1.36 
  -3 -32   4    1.85    1.64 
  -2 -32   4   -0.50    1.34 
  -1 -32   4   12.36    2.66 
   0 -32   4   -0.50    1.59 
   1 -32   4   -0.34    1.62 
   2 -32   4   -0.16    1.56 
   3 -32   4   -0.63    1.61 
   4 -32   4   -1.03    1.65 
   5 -32   4    3.13    1.92 
  -7 -31   4    0.65    1.49 
  -6 -31   4    2.23    1.59 
  -5 -31   4   -1.58    1.13 
  -4 -31   4    1.12    1.37 
  -3 -31   4   -0.35    1.31 
  -2 -31   4    3.96    1.69 
  -1 -31   4   -1.02    1.25 
   0 -31   4    5.37    1.92 
   1 -31   4    1.54    1.63 
   2 -31   4    1.10    1.57 
   3 -31   4    0.98    1.62 
   4 -31   4    1.97    1.70 
   5 -31   4    1.18    1.74 
   5 -31   4    0.50    1.47 
   6 -31   4    3.91    1.96 
  -7 -30   4    2.32    1.69 
  -6 -30   4   -1.55    1.30 
  -5 -30   4   -0.21    1.31 
  -4 -30   4   -0.39    1.13 
  -3 -30   4    9.92    2.01 
  -2 -30   4    0.74    1.30 
  -1 -30   4    2.88    1.45 
   0 -30   4    0.29    1.41 
   1 -30   4    2.55    1.62 
   2 -30   4    1.45    1.47 
   3 -30   4   -0.35    1.42 
   4 -30   4    0.77    1.65 
   5 -30   4    5.75    1.78 
   5 -30   4    3.47    1.99 
   6 -30   4    0.06    1.64 
  -8 -29   4    0.05    1.41 
  -7 -29   4    0.23    1.52 
  -6 -29   4   -0.52    1.30 
  -5 -29   4    2.69    1.47 
  -4 -29   4    4.02    1.53 
  -3 -29   4    1.06    1.25 
  -2 -29   4    5.66    1.66 
  -1 -29   4    2.22    1.27 
   0 -29   4    2.03    1.48 
   1 -29   4    2.82    1.52 
   2 -29   4    1.45    1.40 
   3 -29   4   -0.73    1.46 
   4 -29   4    2.94    1.35 
   4 -29   4    3.08    1.70 
   5 -29   4    2.63    1.49 
   5 -29   4    2.89    1.88 
   6 -29   4    6.88    2.02 
   7 -29   4    0.27    1.79 
  -8 -28   4   -0.90    1.30 
  -7 -28   4   -1.18    1.22 
  -6 -28   4    1.93    1.44 
  -5 -28   4    6.66    1.72 
  -4 -28   4    1.24    1.17 
  -3 -28   4    3.87    1.54 
  -2 -28   4    1.75    1.26 
  -1 -28   4    6.41    1.74 
   0 -28   4    3.26    1.55 
   1 -28   4    0.57    1.30 
   2 -28   4    0.09    1.18 
   3 -28   4    1.05    1.42 
   3 -28   4    1.64    1.15 
   4 -28   4    1.04    1.51 
   4 -28   4    3.88    1.34 
   5 -28   4    3.15    1.75 
   5 -28   4    4.74    1.53 
   6 -28   4    1.50    1.54 
   7 -28   4    5.41    2.11 
  -9 -27   4   -1.07    1.41 
   9  27  -4   -0.79    2.60 
   8  27  -4    1.00    2.31 
  -8 -27   4    0.40    1.31 
  -7 -27   4    3.18    1.57 
   7  27  -4    2.94    2.46 
  -6 -27   4    3.22    1.48 
   6  27  -4    3.15    2.06 
  -5 -27   4    6.75    1.69 
  -4 -27   4   11.77    1.95 
  -3 -27   4    1.50    1.17 
  -2 -27   4    3.25    1.31 
  -1 -27   4    6.81    1.64 
   0 -27   4    3.02    1.34 
   1 -27   4    2.40    1.28 
   2 -27   4    2.66    1.35 
   3 -27   4    0.82    0.98 
   3 -27   4    0.22    1.38 
   4 -27   4    2.27    1.48 
   4 -27   4    2.38    1.20 
   5 -27   4    2.67    1.41 
   5 -27   4   -0.92    1.32 
   6 -27   4    2.95    1.93 
   6 -27   4    3.97    1.61 
   7 -27   4   -0.26    1.50 
  -9 -26   4    1.74    1.62 
   9  26  -4    2.02    2.45 
  -8 -26   4    1.25    1.35 
   8  26  -4    3.14    2.39 
  -7 -26   4    2.12    1.39 
   7  26  -4    3.76    2.25 
   6  26  -4    6.61    2.31 
  -6 -26   4    5.72    1.59 
  -5 -26   4    6.30    1.62 
   5  26  -4    6.60    2.08 
  -4 -26   4    3.86    1.28 
  -3 -26   4    8.08    1.66 
  -2 -26   4    2.99    1.26 
  -1 -26   4   -0.56    0.97 
   0 -26   4   22.76    2.66 
   1 -26   4    8.08    1.78 
   2 -26   4    1.15    0.86 
   2 -26   4    1.05    1.19 
   3 -26   4    1.65    1.27 
   3 -26   4    2.47    0.94 
   4 -26   4   -0.76    1.16 
   4 -26   4    1.95    1.11 
   5 -26   4    0.97    1.23 
   5 -26   4    3.34    1.59 
   6 -26   4    2.80    1.81 
   6 -26   4    0.34    1.22 
   7 -26   4    4.58    1.91 
   8 -26   4    0.48    1.76 
   9  25  -4   -1.98    1.97 
  -9 -25   4    2.14    1.53 
   8  25  -4    4.50    2.42 
  -8 -25   4    0.55    1.31 
   7  25  -4    3.78    2.14 
  -7 -25   4    4.27    1.45 
  -6 -25   4    2.01    1.23 
   6  25  -4    0.04    1.49 
   5  25  -4    6.90    2.09 
  -5 -25   4    5.41    1.48 
  -4 -25   4    6.72    1.58 
   4  25  -4    2.11    1.42 
  -3 -25   4    0.78    1.10 
  -2 -25   4    3.34    1.31 
  -1 -25   4    3.01    1.15 
   0 -25   4    1.09    1.06 
   1 -25   4   18.14    2.40 
   2 -25   4    4.54    1.09 
   2 -25   4    2.24    1.27 
   3 -25   4    7.52    1.41 
   3 -25   4    5.05    1.54 
   4 -25   4    4.93    1.57 
   4 -25   4    6.46    1.41 
   5 -25   4   -0.16    1.27 
   5 -25   4    0.30    1.03 
   6 -25   4    2.46    1.62 
   6 -25   4    3.15    1.53 
   7 -25   4    2.10    1.78 
   8 -25   4    0.85    1.67 
  10  24  -4    2.29    2.61 
 -10 -24   4   -1.44    1.30 
  -9 -24   4    1.47    1.38 
   9  24  -4   -0.44    2.02 
  -8 -24   4    2.83    1.44 
   8  24  -4    5.97    2.54 
   7  24  -4    2.16    1.91 
  -7 -24   4    1.51    1.13 
   6  24  -4    5.67    1.99 
  -6 -24   4    5.01    1.41 
  -5 -24   4    3.05    1.22 
   5  24  -4    2.27    1.50 
  -4 -24   4   -0.25    0.83 
   4  24  -4   -0.21    1.10 
  -3 -24   4    3.26    1.21 
  -2 -24   4    1.70    1.11 
  -1 -24   4    1.03    0.98 
   0 -24   4    2.44    1.13 
   1 -24   4    0.77    1.07 
   1 -24   4    1.80    0.66 
   2 -24   4   23.27    1.84 
   2 -24   4   19.79    2.41 
   3 -24   4    3.42    1.31 
   3 -24   4    3.19    1.04 
   4 -24   4    0.33    1.04 
   4 -24   4   -0.41    0.89 
   5 -24   4   10.99    1.85 
   5 -24   4    9.42    1.90 
   6 -24   4    1.14    1.25 
   6 -24   4    0.97    1.48 
   8 -24   4    1.51    1.73 
  10  23  -4    1.74    2.35 
 -10 -23   4   -0.40    1.42 
   9  23  -4    3.17    2.26 
  -9 -23   4    0.73    1.25 
   8  23  -4   -0.43    1.75 
  -8 -23   4   -0.34    0.95 
  -7 -23   4    6.10    1.51 
   7  23  -4    8.08    2.44 
   6  23  -4    7.97    2.10 
  -6 -23   4    6.43    1.45 
   5  23  -4    1.31    1.26 
  -5 -23   4    1.40    1.04 
   4  23  -4    1.66    1.25 
  -4 -23   4    1.27    1.00 
   3  23  -4    2.32    1.39 
  -3 -23   4    1.87    1.04 
  -2 -23   4   13.54    1.88 
  -1 -23   4    0.80    0.92 
   0 -23   4    1.09    0.98 
   1 -23   4   19.22    1.36 
   1 -23   4   19.18    2.32 
   2 -23   4    6.72    1.21 
   2 -23   4    4.53    1.38 
   3 -23   4   10.52    1.96 
   3 -23   4   13.87    1.64 
   4 -23   4    6.40    1.60 
   4 -23   4   10.29    1.58 
   5 -23   4    2.00    1.31 
   5 -23   4   -0.68    0.94 
   6 -23   4    2.23    1.38 
   6 -23   4    2.55    1.35 
   7 -23   4    2.01    1.85 
   7 -23   4    1.78    1.48 
   8 -23   4    2.79    1.70 
   9 -23   4    1.43    1.73 
 -10 -22   4    0.00    1.40 
  10  22  -4   -0.40    2.15 
   9  22  -4    1.40    2.01 
  -9 -22   4    0.05    1.16 
  -8 -22   4   -0.47    0.96 
   8  22  -4   -1.15    1.68 
  -7 -22   4    0.60    0.99 
   7  22  -4   -1.13    1.28 
   6  22  -4    2.84    1.57 
  -6 -22   4    1.62    1.06 
   5  22  -4    7.00    1.77 
  -5 -22   4    8.17    1.58 
   4  22  -4    4.19    1.52 
  -4 -22   4    3.02    1.10 
   3  22  -4   16.78    2.32 
  -3 -22   4   16.65    2.02 
  -2 -22   4    0.90    0.94 
  -1 -22   4    2.30    1.01 
   0 -22   4   11.49    1.79 
   1 -22   4    0.72    0.64 
   1 -22   4   -1.57    0.75 
   2 -22   4    1.35    0.84 
   2 -22   4    2.42    1.21 
   3 -22   4    1.88    1.14 
   3 -22   4    3.04    1.06 
   4 -22   4    0.10    0.93 
   4 -22   4    1.39    1.03 
   5 -22   4   -0.10    0.96 
   5 -22   4    0.44    1.16 
   6 -22   4    1.68    1.38 
   6 -22   4    3.61    1.36 
   7 -22   4    5.91    2.02 
   7 -22   4    2.52    1.56 
   8 -22   4   -1.73    1.34 
   9 -22   4    2.68    1.73 
 -10 -21   4    1.22    1.42 
  10  21  -4    0.16    2.07 
   9  21  -4    4.90    2.37 
  -9 -21   4    0.81    1.11 
   8  21  -4    3.39    2.02 
  -8 -21   4   -0.40    1.08 
   7  21  -4    2.09    1.41 
  -7 -21   4    3.44    1.19 
   6  21  -4   13.33    2.41 
  -6 -21   4   13.34    1.84 
   5  21  -4    8.14    1.87 
  -5 -21   4    8.64    1.58 
   4  21  -4    6.43    1.66 
  -4 -21   4   11.43    1.67 
  -3 -21   4    0.21    0.82 
   3  21  -4    0.83    1.21 
   2  21  -4   27.75    2.71 
  -2 -21   4   30.24    2.23 
  -1 -21   4   21.78    2.21 
   0 -21   4    3.79    0.63 
   0 -21   4    0.66    0.92 
   1 -21   4    4.42    0.90 
   1 -21   4    2.45    1.09 
   2 -21   4    1.17    0.73 
   2 -21   4   -0.21    0.95 
   3 -21   4   17.51    1.74 
   3 -21   4   18.69    2.25 
   4 -21   4    5.36    1.49 
   4 -21   4    8.08    1.48 
   5 -21   4    0.85    1.19 
   5 -21   4    3.15    1.12 
   6 -21   4    6.05    1.60 
   6 -21   4    5.27    1.71 
   7 -21   4   -0.17    1.50 
   7 -21   4    0.45    1.31 
   8 -21   4   -2.06    1.38 
   9 -21   4   -0.18    1.71 
 -10 -20   4    0.36    1.33 
  10  20  -4    1.40    2.20 
   9  20  -4   -0.04    1.81 
  -9 -20   4    0.83    1.23 
  -8 -20   4    1.93    1.15 
   8  20  -4   -0.67    1.44 
   7  20  -4    1.93    1.33 
  -7 -20   4    3.85    1.19 
  -6 -20   4    1.00    0.93 
   6  20  -4    0.26    1.28 
   5  20  -4   21.38    2.71 
  -5 -20   4   23.25    2.18 
  -4 -20   4   -0.30    0.77 
   4  20  -4    2.45    1.24 
  -3 -20   4    8.96    1.49 
   3  20  -4    8.57    1.68 
   2  20  -4    1.13    1.10 
  -2 -20   4    1.31    0.85 
  -1 -20   4   26.31    2.30 
   0 -20   4    0.49    0.46 
   0 -20   4   -0.24    0.79 
   1 -20   4    2.13    0.71 
   1 -20   4    2.64    1.04 
   2 -20   4    9.63    1.30 
   2 -20   4    5.39    1.36 
   3 -20   4    9.47    1.74 
   3 -20   4   11.44    1.48 
   4 -20   4   -0.95    0.91 
   4 -20   4    2.59    1.09 
   5 -20   4    1.28    1.07 
   5 -20   4    1.71    1.05 
   6 -20   4    6.93    1.67 
   6 -20   4    2.58    1.30 
   7 -20   4    0.72    1.43 
   7 -20   4    1.58    1.36 
   8 -20   4    0.99    1.52 
   9 -20   4    3.20    1.93 
  11  19  -4   -0.44    2.37 
 -10 -19   4    0.44    1.24 
  10  19  -4   -1.05    1.95 
   9  19  -4   -0.30    1.75 
  -9 -19   4    3.74    1.33 
  -8 -19   4    0.65    0.93 
   8  19  -4    0.09    1.40 
  -7 -19   4    6.67    1.47 
   7  19  -4    6.05    1.92 
  -6 -19   4   14.74    1.83 
   6  19  -4   10.57    2.10 
   5  19  -4   11.57    2.18 
  -5 -19   4   12.68    1.73 
   4  19  -4   57.06    3.52 
  -4 -19   4   53.19    2.85 
  -3 -19   4    0.52    0.85 
   3  19  -4    1.26    1.02 
  -2 -19   4   23.69    2.14 
   2  19  -4   24.22    2.38 
   1  19  -4    5.21    1.35 
  -1 -19   4    6.37    1.30 
  -1 -19   4    5.28    0.64 
   0 -19   4    5.95    1.32 
   0 -19   4    7.73    0.91 
   1 -19   4   28.79    2.42 
   2 -19   4   12.04    1.76 
   2 -19   4   16.55    1.46 
   3 -19   4   -0.13    0.83 
   3 -19   4    1.28    0.83 
   4 -19   4    2.59    1.16 
   4 -19   4    0.63    0.80 
   5 -19   4    0.11    1.04 
   5 -19   4    0.59    0.96 
   6 -19   4    0.92    1.18 
   6 -19   4    1.00    1.11 
   7 -19   4    1.93    1.59 
   7 -19   4    2.62    1.40 
   8 -19   4    0.24    1.36 
   9 -19   4   -1.27    1.57 
  10 -19   4    2.20    1.91 
  11  18  -4   -1.09    1.97 
 -10 -18   4    1.90    1.39 
  10  18  -4    0.22    1.94 
   9  18  -4    1.23    2.07 
  -9 -18   4    0.62    0.95 
  -8 -18   4    1.29    0.94 
   8  18  -4    1.36    1.75 
   7  18  -4    3.62    1.68 
  -7 -18   4    2.66    1.04 
   6  18  -4   26.79    3.22 
  -6 -18   4   26.51    2.26 
   5  18  -4   57.71    3.75 
  -5 -18   4   54.59    2.85 
  -4 -18   4   10.97    1.57 
   4  18  -4   11.17    1.95 
  -3 -18   4   26.10    2.11 
   3  18  -4   26.37    2.58 
   2  18  -4   10.62    1.72 
  -2 -18   4    7.19    1.29 
  -1 -18   4   24.03    1.17 
  -1 -18   4   25.15    2.16 
   1  18  -4   23.75    1.93 
   0 -18   4    4.34    0.74 
   0 -18   4    1.21    0.89 
   1 -18   4    2.95    1.02 
   1 -18   4    0.51    0.35 
   2 -18   4    2.79    1.04 
   2 -18   4    4.36    0.93 
   3 -18   4    4.14    1.08 
   3 -18   4    3.22    1.12 
   4 -18   4   19.91    2.28 
   4 -18   4   22.23    2.00 
   5 -18   4    7.28    1.44 
   5 -18   4    6.97    1.58 
   6 -18   4   -1.23    1.01 
   6 -18   4    1.10    1.08 
   7 -18   4   -0.36    1.28 
   7 -18   4    1.31    1.24 
  -8  18  -4    0.55    1.68 
   8 -18   4    1.25    1.49 
   9 -18   4    5.76    2.00 
  10 -18   4    1.49    2.05 
  11  17  -4    3.56    2.39 
  10  17  -4   -0.01    2.03 
 -10 -17   4    1.05    1.23 
   9  17  -4    2.55    2.06 
  -9 -17   4    5.00    1.35 
  -8 -17   4    3.95    1.13 
   8  17  -4    0.05    1.48 
   7  17  -4   23.69    3.15 
  -7 -17   4   29.52    2.14 
  -6 -17   4   21.31    2.02 
   6  17  -4   19.16    2.72 
  -5 -17   4    4.84    1.15 
   5  17  -4    2.18    1.33 
  -4 -17   4   30.60    2.06 
   4  17  -4   29.82    2.52 
  -3 -17   4    0.82    0.75 
   3  17  -4    0.22    1.05 
  -2 -17   4    3.55    1.01 
   2  17  -4    5.86    1.37 
   1  17  -4   16.25    1.77 
  -1 -17   4   14.46    0.91 
  -1 -17   4   14.64    1.68 
   0 -17   4   64.93    3.09 
   0 -17   4   62.88    2.29 
   1 -17   4   15.82    1.85 
   2 -17   4   45.20    2.15 
   2 -17   4   40.08    2.52 
   3 -17   4    3.28    1.01 
   3 -17   4    1.77    1.00 
   4 -17   4    3.87    1.09 
   4 -17   4    4.04    1.21 
   5 -17   4   10.23    1.60 
   5 -17   4    6.34    1.51 
   6 -17   4    0.00    0.96 
   6 -17   4   -0.61    1.03 
   7 -17   4   -0.27    1.06 
   7 -17   4    1.02    1.32 
   8 -17   4    1.73    1.38 
  -8  17  -4    3.64    1.75 
   9 -17   4    0.33    1.53 
  10 -17   4    1.41    1.81 
  11  16  -4    1.36    2.58 
  10  16  -4    2.03    2.10 
  -9 -16   4    0.50    0.99 
   9  16  -4    1.67    1.97 
   8  16  -4    2.14    1.54 
  -8 -16   4    5.09    1.20 
  -7 -16   4   38.08    2.37 
   7  16  -4   38.77    3.88 
  -6 -16   4   11.20    1.56 
   6  16  -4   10.74    2.11 
   5  16  -4   65.69    3.96 
  -5 -16   4   67.05    3.04 
  -4 -16   4   -1.23    0.55 
   4  16  -4    0.80    1.00 
  -3 -16   4   17.45    1.69 
   3  16  -4   15.10    2.00 
  -2 -16   4   17.49    1.76 
   2  16  -4   24.06    2.20 
  -1 -16   4   10.97    0.79 
  -1 -16   4    8.75    1.35 
   1  16  -4   10.58    1.47 
   0 -16   4    7.00    0.84 
   0 -16   4    5.48    1.23 
   0  16  -4    7.01    1.26 
   1 -16   4   15.61    1.22 
   1 -16   4   16.11    1.80 
   2 -16   4   62.15    3.12 
   2 -16   4   65.44    2.63 
   3 -16   4    7.35    1.21 
   3 -16   4    6.13    1.36 
   4 -16   4   27.54    1.93 
   4 -16   4   27.21    2.48 
   5 -16   4    5.24    1.42 
   5 -16   4    6.15    1.35 
   6 -16   4    3.39    1.30 
   6 -16   4    0.32    0.97 
   7 -16   4    6.78    1.65 
   8 -16   4    0.62    1.33 
  -8  16  -4   -0.33    1.29 
   9 -16   4   -0.35    1.45 
  10 -16   4    2.38    1.84 
  11  15  -4    1.26    2.29 
  10  15  -4    0.71    2.05 
   9  15  -4    5.76    2.24 
  -9 -15   4    4.81    1.25 
   8  15  -4    1.54    1.56 
  -8 -15   4    0.77    0.83 
   7  15  -4   12.00    2.36 
  -7 -15   4   12.03    1.59 
  -6 -15   4   12.64    1.55 
   6  15  -4   14.14    2.33 
  -5 -15   4   13.42    1.56 
   5  15  -4   13.31    2.19 
   4  15  -4   35.52    2.64 
  -4 -15   4   32.90    2.05 
   3  15  -4    1.04    1.02 
  -3 -15   4    0.08    0.59 
   2  15  -4   22.25    2.07 
  -2 -15   4   23.68    1.93 
  -1 -15   4    0.99    0.75 
   1  15  -4    1.95    0.91 
  -1 -15   4    1.92    0.43 
   0 -15   4   10.54    1.55 
   0  15  -4   15.24    1.45 
   0 -15   4   14.04    1.04 
   1 -15   4   42.94    2.47 
   1 -15   4   46.27    1.99 
   2 -15   4    8.71    1.50 
   2 -15   4    9.69    1.19 
   3 -15   4   72.82    2.96 
   3 -15   4   67.60    3.37 
   4 -15   4   11.68    1.55 
   4 -15   4    8.48    1.57 
   5 -15   4   24.33    2.19 
   5 -15   4   28.99    2.65 
   6 -15   4    1.50    1.09 
   6 -15   4    0.88    0.95 
   7 -15   4    0.15    1.12 
  -7  15  -4   -0.54    1.10 
   8 -15   4    7.14    1.89 
  -8  15  -4    7.02    1.77 
   9 -15   4   -0.91    1.51 
  10 -15   4   -0.47    1.56 
  12  14  -4   -0.28    2.53 
  11  14  -4   -3.54    1.71 
  10  14  -4    1.23    2.04 
   9  14  -4    1.46    1.72 
  -9 -14   4   -1.04    0.76 
   8  14  -4   18.79    3.02 
  -8 -14   4   20.25    1.91 
  -7 -14   4    5.70    1.20 
   7  14  -4    4.77    1.71 
   6  14  -4   14.45    2.34 
  -6 -14   4   15.57    1.62 
   5  14  -4   88.55    4.58 
  -5 -14   4   91.52    3.53 
   4  14  -4    0.91    1.13 
  -4 -14   4    0.34    0.65 
  -3 -14   4   38.86    2.10 
   3  14  -4   33.73    2.47 
   2  14  -4    0.55    0.84 
  -2 -14   4    1.59    0.74 
   1  14  -4   22.70    1.75 
  -1 -14   4   21.73    1.86 
  -1 -14   4   20.71    1.04 
   0 -14   4    1.73    0.83 
   0 -14   4    1.88    0.57 
   0  14  -4    2.64    0.83 
   1 -14   4   14.82    1.21 
   1 -14   4   11.22    1.53 
   2 -14   4   61.62    3.02 
   2 -14   4   63.81    2.59 
   3 -14   4   10.12    1.65 
   3 -14   4   13.11    1.46 
   4 -14   4   45.62    2.76 
   4 -14   4   45.56    2.41 
   5 -14   4    1.82    0.99 
   5 -14   4   -1.03    0.89 
   6 -14   4   10.30    1.90 
   6 -14   4   11.24    1.75 
  -7  14  -4    1.39    1.28 
   7 -14   4    4.18    1.32 
  -8  14  -4    0.59    1.18 
   8 -14   4    1.66    1.39 
   9 -14   4    1.30    1.64 
  10 -14   4    1.04    2.01 
  12  13  -4    5.32    2.85 
  11  13  -4    7.97    2.82 
  10  13  -4    0.68    1.94 
  -9 -13   4    3.48    1.12 
   9  13  -4    4.05    2.00 
  -8 -13   4    4.35    1.09 
   8  13  -4    2.41    1.60 
  -7 -13   4   19.05    1.78 
   7  13  -4   23.82    3.08 
   6  13  -4   17.88    2.64 
  -6 -13   4   23.35    1.86 
   5  13  -4    3.66    1.44 
  -5 -13   4    3.24    0.86 
  -4 -13   4   31.33    1.91 
   4  13  -4   33.98    2.67 
   3  13  -4    0.20    0.91 
  -3 -13   4    1.05    0.69 
   2  13  -4   20.90    1.95 
  -2 -13   4   23.10    1.79 
  -1 -13   4   19.95    1.75 
   1  13  -4   18.61    1.69 
  -1 -13   4   18.47    0.97 
   0  13  -4   16.55    1.37 
   0 -13   4   19.11    1.15 
   0 -13   4   16.42    1.69 
   1 -13   4   20.68    1.37 
   1 -13   4   19.61    1.81 
   2 -13   4   67.70    2.68 
   2 -13   4   68.32    3.17 
   3 -13   4   63.95    2.69 
   3 -13   4   54.48    2.95 
   4 -13   4    4.12    1.02 
   4 -13   4    4.98    1.28 
   5 -13   4   91.65    4.11 
   5 -13   4   87.56    3.69 
   6 -13   4   -0.92    1.01 
   6 -13   4    0.26    0.83 
  -7  13  -4    0.49    1.09 
   7 -13   4    2.62    1.24 
   8 -13   4    3.76    1.41 
  -8  13  -4    3.90    1.38 
   9 -13   4    0.21    1.40 
  10 -13   4    1.70    1.94 
  12  12  -4    3.48    2.65 
  11  12  -4    2.07    2.26 
  10  12  -4   18.34    3.46 
  -9 -12   4    0.13    0.84 
   9  12  -4    2.69    1.97 
  -8 -12   4    7.69    1.26 
   8  12  -4    6.73    2.12 
  -7 -12   4   42.49    2.30 
   7  12  -4   41.13    3.39 
   6  12  -4   12.44    2.21 
  -6 -12   4   13.62    1.48 
   5  12  -4   -0.15    0.90 
  -5 -12   4    1.65    0.73 
   4  12  -4   26.83    2.61 
  -4 -12   4   23.98    1.64 
   3  12  -4   10.17    1.67 
  -3 -12   4   11.51    1.31 
  -2 -12   4   25.28    1.66 
   2  12  -4   22.58    1.88 
  -1 -12   4   29.93    1.88 
  -1 -12   4   31.99    1.31 
   1  12  -4   29.76    1.89 
   0 -12   4   91.87    2.92 
   0  12  -4  100.44    3.46 
   0 -12   4   84.82    3.50 
  -1  12  -4   92.23    3.00 
   1 -12   4   80.77    3.43 
   1 -12   4   86.26    2.96 
   2 -12   4   10.17    1.18 
   2 -12   4    7.83    1.35 
   3 -12   4    1.92    0.75 
   3 -12   4    0.35    0.79 
   4 -12   4   59.37    3.19 
   4 -12   4   68.49    2.95 
   5 -12   4    2.95    1.06 
   5 -12   4    2.32    1.17 
   6 -12   4   17.89    2.03 
   6 -12   4   12.77    2.05 
   7 -12   4    3.75    1.26 
  -7  12  -4    2.35    1.23 
   8 -12   4    0.77    1.34 
  -8  12  -4    2.03    1.22 
   9 -12   4    0.81    1.59 
  -9  12  -4    0.66    1.36 
  10 -12   4    7.67    2.37 
  11 -12   4   -0.41    2.02 
  12  11  -4    2.12    2.38 
  11  11  -4   -1.34    1.93 
  10  11  -4    1.03    1.82 
  -9 -11   4   20.55    1.87 
   9  11  -4   24.90    3.52 
   8  11  -4   12.63    2.61 
  -8 -11   4   12.05    1.46 
  -7 -11   4   15.66    1.58 
   7  11  -4   12.54    2.38 
   6  11  -4    4.44    1.66 
  -6 -11   4    5.21    1.02 
  -5 -11   4   11.45    1.28 
   5  11  -4   10.91    1.98 
  -4 -11   4   17.36    1.49 
   4  11  -4   14.02    2.09 
  -3 -11   4    1.96    0.71 
   3  11  -4    4.14    1.25 
  -2 -11   4   19.16    1.59 
   2  11  -4   18.06    1.86 
  -1 -11   4    0.56    0.62 
   1  11  -4    1.48    0.79 
   0  11  -4    6.44    0.94 
   0 -11   4    9.42    1.30 
   0 -11   4    6.43    0.79 
   1 -11   4   18.66    1.31 
   1 -11   4   22.62    1.85 
  -1  11  -4   20.60    1.20 
   2 -11   4   42.27    2.01 
   2 -11   4   36.79    2.25 
   3 -11   4   72.12    3.32 
   3 -11   4   70.78    2.90 
   4 -11   4    1.75    1.09 
   4 -11   4    3.26    1.01 
   5 -11   4   75.16    3.32 
   5 -11   4   69.09    3.54 
   6 -11   4   16.00    1.98 
  -6  11  -4   12.46    1.97 
   7 -11   4    6.43    1.42 
  -7  11  -4    4.85    1.55 
   8 -11   4    8.04    1.86 
  -8  11  -4    8.58    1.73 
   9 -11   4    1.77    1.51 
  -9  11  -4   -1.09    1.14 
  10 -11   4    0.04    1.84 
  11 -11   4   -0.42    2.06 
  12  10  -4    0.72    2.51 
  11  10  -4   -0.24    1.90 
  10  10  -4   11.36    2.69 
   9  10  -4    1.64    1.46 
  -8 -10   4   56.80    2.68 
   8  10  -4   67.16    4.47 
  -7 -10   4    0.92    0.65 
   7  10  -4    1.30    1.26 
   6  10  -4    0.66    1.16 
  -6 -10   4    2.03    0.76 
   5  10  -4    0.91    1.07 
  -5 -10   4    1.15    0.64 
   4  10  -4    3.51    1.28 
  -4 -10   4    4.58    0.92 
   3  10  -4    8.47    1.56 
  -3 -10   4    7.86    1.12 
   2  10  -4  190.81    6.56 
  -2 -10   4  196.29    5.66 
  -1 -10   4   61.20    2.65 
   1  10  -4   63.03    2.82 
   0  10  -4   26.52    1.54 
   0 -10   4   22.52    1.24 
   0 -10   4   23.35    1.67 
   1 -10   4   46.74    2.39 
   1 -10   4   47.93    2.05 
  -1  10  -4   47.78    1.88 
   2 -10   4   20.47    1.89 
   2 -10   4   23.74    1.53 
   3 -10   4    6.40    1.33 
   3 -10   4    7.67    1.21 
   4 -10   4   39.79    2.26 
   4 -10   4   48.00    2.71 
   5 -10   4    1.33    1.08 
   5 -10   4    1.64    0.93 
  -6  10  -4   56.69    3.17 
   6 -10   4   51.29    2.93 
  -7  10  -4    8.07    1.55 
   7 -10   4    5.01    1.36 
  -8  10  -4    0.79    1.04 
   8 -10   4   -1.55    1.03 
  -9  10  -4    1.31    1.39 
   9 -10   4    1.58    1.71 
  10 -10   4    1.76    1.99 
  11 -10   4    1.56    2.14 
  12   9  -4   -0.14    2.33 
  11   9  -4    4.66    2.58 
  10   9  -4    1.17    1.71 
   9   9  -4   24.89    3.40 
  -8  -9   4    1.73    0.77 
   8   9  -4    1.22    1.45 
   7   9  -4   19.74    2.82 
  -7  -9   4   23.13    1.57 
  -6  -9   4  105.05    3.63 
   6   9  -4  107.65    5.35 
  -5  -9   4    0.26    0.53 
   5   9  -4    0.07    1.15 
   4   9  -4   20.25    2.34 
  -4  -9   4   22.64    1.44 
   3   9  -4   10.76    1.69 
  -3  -9   4   12.36    1.25 
  -2  -9   4  164.38    4.93 
   2   9  -4  162.32    5.79 
   1   9  -4   82.43    3.32 
  -1  -9   4   79.31    3.07 
   0  -9   4   12.05    1.36 
   0   9  -4   11.50    1.17 
  -1   9  -4  105.12    3.23 
   1  -9   4  104.12    3.82 
   1  -9   4  102.00    3.35 
   2  -9   4    2.25    0.74 
   2  -9   4    0.79    0.76 
   3  -9   4   50.70    2.40 
   3  -9   4   51.22    2.71 
   4  -9   4   10.16    1.41 
   4  -9   4   10.69    1.60 
   5  -9   4   68.22    3.46 
   5  -9   4   68.97    3.18 
  -6   9  -4   51.52    3.08 
   6  -9   4   56.39    3.00 
  -7   9  -4   12.76    1.88 
   7  -9   4   13.66    1.99 
  -8   9  -4    0.17    1.02 
   8  -9   4    2.92    1.44 
   9  -9   4    5.73    1.92 
  -9   9  -4    3.55    1.47 
  10  -9   4    1.06    1.88 
  11  -9   4    3.80    2.16 
  12   8  -4    4.68    2.61 
  11   8  -4    2.51    2.24 
  10   8  -4    6.76    2.14 
   9   8  -4    6.60    2.02 
   7   8  -4    6.57    1.89 
  -7  -8   4    7.68    1.12 
   6   8  -4    6.02    0.70 
  -6  -8   4    6.20    1.00 
   6   8  -4    5.20    1.61 
   5   8  -4   33.93    3.19 
   5   8  -4   34.15    1.21 
  -5  -8   4   31.55    1.72 
   4   8  -4   65.14    3.65 
   4   8  -4   63.23    1.73 
  -4  -8   4   61.66    2.44 
   3   8  -4   26.10    2.18 
   3   8  -4   23.36    0.90 
  -3  -8   4   23.82    1.47 
   2   8  -4   10.38    1.56 
  -2  -8   4   12.31    1.22 
   1   8  -4   87.52    3.54 
  -1  -8   4   88.57    3.21 
   0   8  -4  492.29   13.16 
   0  -8   4  474.13   12.06 
  -1   8  -4   16.01    1.03 
   1  -8   4   16.82    1.24 
   1  -8   4   16.68    1.59 
   2  -8   4    7.32    1.07 
   2  -8   4    5.05    1.13 
   3  -8   4   16.84    1.84 
   3  -8   4   18.31    1.61 
   4  -8   4   60.11    3.08 
   4  -8   4   65.91    2.90 
   5  -8   4    1.67    0.90 
   6  -8   4   62.21    3.22 
  -6   8  -4   69.47    3.45 
   7  -8   4    1.89    1.19 
  -7   8  -4    4.51    1.27 
   8  -8   4    2.28    1.35 
  -8   8  -4    3.89    1.27 
  -9   8  -4    4.81    1.51 
   9  -8   4    5.97    1.91 
  10  -8   4   -0.51    1.71 
  11  -8   4   -0.20    2.04 
  12   7  -4   -3.46    1.85 
  11   7  -4    4.46    2.25 
  10   7  -4    1.71    1.69 
   9   7  -4   28.82    3.67 
   8   7  -4    9.87    2.34 
  -8  -7   4    9.82    1.19 
   7   7  -4   13.72    2.43 
   7   7  -4   14.52    1.13 
  -6  -7   4    1.22    0.53 
   6   7  -4    1.56    1.16 
   6   7  -4    0.62    0.50 
   5   7  -4   25.20    2.83 
  -5  -7   4   18.40    1.29 
   5   7  -4   21.30    0.98 
   4   7  -4    2.27    1.28 
  -4  -7   4    1.83    0.60 
   4   7  -4    1.29    0.35 
   3   7  -4   58.31    3.27 
   3   7  -4   56.49    1.70 
  -3  -7   4   60.19    2.32 
  -2  -7   4    0.43    0.54 
   2   7  -4    0.44    0.82 
   1   7  -4  128.24    4.67 
  -1  -7   4  133.02    4.15 
   0   7  -4  246.05    7.14 
   0  -7   4  229.60    6.14 
   0  -7   4  245.11    6.71 
   1  -7   4   26.69    1.49 
   1  -7   4   23.63    1.71 
  -1   7  -4   26.97    1.36 
   2  -7   4   16.72    1.42 
   2  -7   4   16.28    1.67 
   3  -7   4   92.06    3.47 
   3  -7   4   99.47    3.86 
   4  -7   4    0.59    0.87 
   4  -7   4    1.90    0.86 
  -5   7  -4   50.69    2.83 
   5  -7   4   53.35    2.75 
   6  -7   4   17.21    2.02 
  -6   7  -4   18.15    2.05 
   7  -7   4    5.25    1.45 
  -7   7  -4    7.14    1.41 
   8  -7   4    5.47    1.63 
  -8   7  -4    6.53    1.54 
  -9   7  -4   -0.14    1.04 
   9  -7   4    2.81    1.74 
 -10   7  -4   -2.14    1.21 
  10  -7   4   -1.07    1.75 
  11  -7   4    2.51    2.16 
  12   6  -4    2.99    2.61 
  11   6  -4    2.41    2.06 
  10   6  -4   11.30    2.70 
   9   6  -4    1.30    1.52 
   8   6  -4   47.84    3.77 
  -8  -6   4   48.33    2.15 
   7   6  -4    3.72    0.79 
   7   6  -4    3.51    1.64 
  -7  -6   4    3.53    0.83 
  -6  -6   4    9.42    0.99 
   6   6  -4   13.24    2.27 
   6   6  -4   11.75    0.91 
   5   6  -4    8.64    0.69 
  -5  -6   4    8.66    0.94 
   5   6  -4    9.49    2.00 
   4   6  -4   62.03    3.66 
  -4  -6   4   66.97    2.44 
   4   6  -4   67.40    1.94 
   3   6  -4   34.36    1.24 
   3   6  -4   31.04    2.40 
  -3  -6   4   32.88    1.66 
   2   6  -4    7.32    1.40 
  -2  -6   4    7.14    0.95 
  -1  -6   4   26.18    1.57 
   1   6  -4   25.16    1.85 
   0   6  -4   46.27    2.22 
   0  -6   4   45.90    2.18 
  -1   6  -4    1.20    0.59 
   1  -6   4    2.74    0.70 
   1  -6   4    2.83    0.90 
   2  -6   4    7.89    1.07 
   2  -6   4    9.23    1.35 
   3  -6   4   12.28    1.57 
   3  -6   4   11.24    1.37 
   4  -6   4  147.73    4.88 
   4  -6   4  144.08    5.15 
   5  -6   4    3.41    1.13 
  -5   6  -4    3.20    1.15 
  -6   6  -4   23.38    2.22 
   6  -6   4   22.95    2.22 
   7  -6   4   11.21    1.84 
  -7   6  -4    9.56    1.68 
   8  -6   4    1.95    1.32 
  -8   6  -4   -0.31    1.01 
  -9   6  -4    0.91    1.12 
   9  -6   4    0.66    1.51 
  10  -6   4    0.12    1.73 
 -10   6  -4   -0.53    1.26 
  11  -6   4    1.50    2.14 
  12   5  -4    1.21    2.18 
  11   5  -4    1.64    1.92 
  10   5  -4    5.94    2.03 
   9   5  -4   27.42    3.59 
   8   5  -4   14.28    1.38 
   8   5  -4   14.68    2.67 
  -7  -5   4    2.46    0.69 
   7   5  -4    1.70    0.69 
   7   5  -4   -1.03    1.19 
   6   5  -4    6.54    0.77 
  -6  -5   4    5.73    0.86 
   6   5  -4    6.52    1.80 
   5   5  -4   18.83    0.99 
  -5  -5   4   15.18    1.09 
   5   5  -4   21.81    2.70 
   4   5  -4   34.01    1.30 
   4   5  -4   36.82    2.73 
  -4  -5   4   34.73    1.61 
  -3  -5   4   88.05    2.95 
   3   5  -4   90.51    2.54 
   3   5  -4   92.77    4.27 
  -2  -5   4   16.81    1.22 
   2   5  -4   18.48    1.94 
  -1  -5   4  184.77    5.20 
   1   5  -4  174.23    5.99 
   0   5  -4   20.95    1.53 
   0  -5   4   17.49    1.46 
   1  -5   4   28.24    1.54 
   1  -5   4   26.07    1.74 
   2  -5   4  121.70    4.31 
   2  -5   4  126.67    4.02 
   3  -5   4   92.14    3.45 
   3  -5   4   92.86    3.69 
  -4   5  -4   17.95    1.85 
   4  -5   4   20.75    1.85 
  -5   5  -4   19.83    2.02 
   5  -5   4   21.13    2.00 
  -6   5  -4   22.95    2.17 
   6  -5   4   18.76    2.08 
  -7   5  -4   30.07    2.55 
   7  -5   4   34.47    2.86 
   8  -5   4    9.55    1.86 
  -8   5  -4    9.81    1.62 
  -9   5  -4    2.57    1.24 
   9  -5   4    3.26    1.70 
 -10   5  -4   -0.88    1.29 
  10  -5   4   -0.54    1.70 
  11  -5   4    1.12    2.19 
  12   4  -4    0.94    2.10 
  11   4  -4    0.85    1.92 
  10   4  -4    6.98    2.38 
   9   4  -4   -0.73    1.34 
   8   4  -4   24.38    3.29 
   8   4  -4   21.09    1.60 
   7   4  -4    4.95    1.87 
   7   4  -4    5.74    0.93 
  -7  -4   4    6.88    0.88 
  -6  -4   4   44.50    1.90 
   6   4  -4   42.61    3.33 
   6   4  -4   49.94    1.84 
   5   4  -4   10.87    2.08 
  -5  -4   4   10.79    0.95 
   5   4  -4    7.51    0.74 
   4   4  -4   13.86    0.87 
   4   4  -4   14.57    2.17 
   3   4  -4  400.89   12.29 
  -3  -4   4  389.79    9.62 
   3   4  -4  398.78    9.23 
  -2  -4   4   92.88    3.06 
   2   4  -4   93.57    4.10 
  -1  -4   4  177.19    5.06 
   1   4  -4  178.28    5.93 
   0  -4   4   19.51    1.53 
   1  -4   4   89.50    3.35 
   1  -4   4   89.01    3.04 
   2  -4   4    2.89    0.90 
   2  -4   4    2.70    0.75 
   3  -4   4  168.98    5.45 
   3  -4   4  166.64    5.14 
   4  -4   4   61.50    2.82 
  -4   4  -4   62.14    2.97 
   5  -4   4   19.36    1.96 
  -5   4  -4   20.08    1.95 
  -6   4  -4   26.43    2.32 
   6  -4   4   28.90    2.44 
   7  -4   4   21.71    2.40 
  -7   4  -4   18.82    2.12 
   8  -4   4    0.95    1.24 
  -8   4  -4    0.48    1.02 
   9  -4   4   -0.10    1.47 
  -9   4  -4   -0.14    1.05 
 -10   4  -4    0.36    1.26 
  10  -4   4    3.15    2.03 
  11  -4   4    0.35    2.03 
  12   3  -4    1.05    2.18 
  11   3  -4    1.62    1.93 
  10   3  -4    2.16    1.84 
   9   3  -4    5.03    1.06 
   9   3  -4    5.28    1.95 
   8   3  -4   16.46    1.50 
   8   3  -4   14.20    2.63 
   7   3  -4   94.57    3.08 
   7   3  -4   90.73    5.18 
  -7  -3   4   90.93    2.98 
   6   3  -4    0.81    1.10 
  -6  -3   4    0.19    0.42 
   6   3  -4    0.73    0.57 
   5   3  -4    9.76    0.83 
   5   3  -4   10.15    2.02 
  -5  -3   4   10.76    0.89 
   4   3  -4   12.38    0.86 
   4   3  -4   12.73    2.08 
  -4  -3   4   12.97    0.95 
   3   3  -4  118.03    5.05 
   3   3  -4  114.82    3.21 
  -2  -3   4   94.92    3.07 
  -1  -3   4   45.48    2.01 
   0  -3   4   -0.36    0.52 
   1  -3   4   16.51    1.50 
   2  -3   4   11.03    1.40 
   2  -3   4   11.92    1.24 
   3  -3   4   10.83    1.36 
  -3   3  -4   11.82    1.46 
  -4   3  -4    9.37    1.42 
   4  -3   4    7.24    1.26 
  -5   3  -4   78.86    3.50 
   5  -3   4   80.56    3.48 
  -6   3  -4   20.17    2.06 
   6  -3   4   21.29    2.17 
   7  -3   4    0.00    1.12 
  -7   3  -4   -0.86    0.83 
  -8   3  -4   10.70    1.77 
   8  -3   4    8.87    1.77 
  -9   3  -4    1.03    1.16 
   9  -3   4    1.09    1.50 
  10  -3   4    3.18    1.96 
 -10   3  -4   -0.57    1.09 
  11  -3   4    0.62    1.98 
  12   2  -4   -1.12    1.94 
  11   2  -4    0.41    1.95 
  10   2  -4    8.34    2.17 
   9   2  -4   -0.28    1.35 
   9   2  -4    0.06    1.00 
   8   2  -4   28.64    3.53 
   8   2  -4   24.71    1.72 
   7   2  -4    3.42    1.58 
   7   2  -4    3.50    0.89 
  -7  -2   4    4.10    0.67 
   6   2  -4   49.87    1.97 
   6   2  -4   47.16    3.47 
  -6  -2   4   53.59    1.92 
   5   2  -4    9.90    0.87 
   5   2  -4   13.00    2.19 
  -5  -2   4   12.40    0.92 
   4   2  -4   94.14    2.76 
   4   2  -4   92.77    4.60 
  -4  -2   4   89.71    2.81 
   3   2  -4   12.24    1.85 
   3   2  -4   12.21    0.89 
  -3  -2   4   11.75    0.97 
  -2  -2   4   14.21    1.03 
  -1  -2   4   57.77    2.30 
   0  -2   4   35.11    1.80 
   1  -2   4   92.64    3.33 
   2  -2   4   26.20    1.62 
   2  -2   4   22.59    1.68 
  -3   2  -4   12.99    1.51 
   3  -2   4   11.69    1.35 
  -4   2  -4  162.90    5.40 
   4  -2   4  170.08    5.37 
  -5   2  -4   16.76    1.84 
   5  -2   4   16.33    1.79 
  -6   2  -4   24.78    2.20 
   6  -2   4   21.91    2.22 
  -7   2  -4    0.54    0.96 
   7  -2   4    3.05    1.31 
   8  -2   4    1.96    1.35 
  -8   2  -4    2.58    1.13 
  -9   2  -4   -0.64    0.96 
   9  -2   4    0.33    1.41 
  10  -2   4    2.61    1.97 
 -10   2  -4    1.39    1.25 
  11  -2   4   -2.81    1.76 
  12   1  -4   -1.09    1.98 
  11   1  -4    4.73    2.21 
  10   1  -4    2.65    1.74 
   9   1  -4   14.58    2.89 
   9   1  -4   18.04    1.77 
   8   1  -4   17.47    2.86 
   8   1  -4   16.39    1.53 
  -7  -1   4  110.16    3.22 
   7   1  -4  107.41    3.50 
   7   1  -4  116.67    5.88 
   6   1  -4   12.93    1.09 
  -6  -1   4   15.65    0.92 
   6   1  -4   13.41    2.31 
   5   1  -4    3.19    1.44 
   5   1  -4    2.57    0.61 
  -5  -1   4    1.99    0.43 
   4   1  -4   15.86    2.27 
   4   1  -4   14.92    0.98 
  -4  -1   4   14.31    0.91 
   3   1  -4  172.48    4.52 
  -3  -1   4  167.33    4.56 
  -2  -1   4    2.18    0.48 
  -1  -1   4    6.65    0.90 
   0  -1   4   40.05    1.91 
   1  -1   4   15.72    1.41 
  -2   1  -4    8.66    1.24 
   3  -1   4   37.22    2.09 
  -3   1  -4   39.79    2.20 
  -4   1  -4   26.29    2.07 
   4  -1   4   25.26    1.85 
   5  -1   4   40.91    2.44 
  -5   1  -4   41.79    2.45 
   6  -1   4    4.52    1.23 
  -6   1  -4    4.54    1.25 
   7  -1   4   -0.31    1.06 
  -7   1  -4    0.71    0.93 
  -8   1  -4   11.41    1.83 
   8  -1   4   14.27    2.24 
  -9   1  -4    2.05    1.20 
   9  -1   4   -0.67    1.38 
 -10   1  -4    0.01    1.17 
  10  -1   4   -3.12    1.55 
  11  -1   4    1.86    1.97 
 -11   1  -4    2.77    1.60 
  12   0  -4   -0.55    2.13 
  11   0  -4    0.75    2.00 
  10   0  -4    4.76    1.49 
  10   0  -4    3.91    2.09 
   9   0  -4   -0.41    1.34 
   9   0  -4    0.59    0.95 
   8   0  -4   37.79    2.04 
   8   0  -4   35.08    3.83 
   7   0  -4    1.85    1.37 
   7   0  -4    1.49    0.80 
  -6   0   4   21.45    1.04 
   6   0  -4   20.76    1.37 
   6   0  -4   24.48    3.08 
   5   0  -4    0.52    1.07 
   5   0  -4   -0.06    0.49 
  -5   0   4    0.49    0.27 
   4   0  -4   69.20    2.35 
  -4   0   4   69.22    2.21 
  -3   0   4    0.01    0.36 
   3   0  -4    0.44    0.43 
   2   0  -4  144.81    4.04 
  -1   0   4    0.10    0.47 
   0   0   4  148.78    4.42 
   1   0   4    0.30    0.60 
  -2   0  -4  587.99   14.40 
  -3   0  -4    0.60    0.67 
   3   0   4    1.58    0.79 
  -4   0  -4   57.25    2.82 
   4   0   4   62.16    2.83 
  -5   0  -4    0.75    0.79 
   5   0   4    0.44    0.84 
  -6   0  -4   21.30    2.10 
   6   0   4   21.63    2.21 
   7   0   4   -1.81    0.99 
  -7   0  -4    0.27    0.83 
   8   0   4    7.10    1.70 
  -8   0  -4   11.04    1.79 
   9   0   4   -0.58    1.27 
  -9   0  -4   -0.09    0.89 
 -10   0  -4    1.80    1.39 
  10   0   4    1.61    1.79 
 -11   0  -4   -0.25    1.31 
  11   0   4   -0.57    1.81 
  12  -1  -4   -1.77    2.08 
  11  -1  -4    3.80    2.23 
  10  -1  -4    1.05    1.85 
  10  -1  -4    3.26    1.31 
   9  -1  -4   17.21    3.06 
   9  -1  -4   16.57    1.72 
   8  -1  -4   18.50    2.92 
   8  -1  -4   14.65    1.55 
   7  -1  -4  119.98    6.02 
   7  -1  -4  111.63    3.70 
   6  -1  -4   15.43    1.25 
  -6   1   4   15.75    0.82 
   6  -1  -4   17.64    2.80 
   5  -1  -4    1.67    0.61 
   5  -1  -4    0.96    1.29 
  -5   1   4    2.46    0.39 
  -4   1   4   16.44    0.86 
   4  -1  -4   14.54    1.08 
  -3   1   4  179.33    4.62 
   3  -1  -4  173.62    4.74 
   2  -1  -4    3.94    0.68 
  -2   1   4    5.30    0.71 
  -1   1   4    4.61    0.71 
   0   1   4   38.93    1.83 
  -1  -1  -4   16.18    1.38 
  -2  -1  -4    9.04    1.26 
  -3  -1  -4   40.07    2.17 
   4   1   4   26.88    1.93 
  -4  -1  -4   25.98    1.86 
   5   1   4   41.48    2.44 
  -5  -1  -4   38.54    2.37 
   6   1   4    2.72    1.14 
  -6  -1  -4    3.06    1.06 
  -7  -1  -4    0.11    0.88 
   7   1   4   -0.01    1.14 
   8   1   4    9.55    1.96 
  -8  -1  -4   11.86    1.83 
  -9  -1  -4    0.93    1.07 
   9   1   4   -0.20    1.43 
 -10  -1  -4   -0.42    1.16 
  10   1   4   -2.81    1.60 
 -11  -1  -4    3.57    1.71 
  11   1   4    3.63    2.31 
  12  -2  -4    1.03    2.06 
  11  -2  -4    2.49    1.98 
  11  -2  -4    0.95    1.46 
  10  -2  -4    9.82    1.68 
  10  -2  -4    4.97    2.11 
   9  -2  -4    0.94    1.64 
   9  -2  -4    1.17    0.95 
   8  -2  -4   28.87    3.53 
   8  -2  -4   25.48    1.81 
   7  -2  -4    2.84    0.93 
   7  -2  -4    5.35    1.82 
   6  -2  -4   42.98    3.56 
   6  -2  -4   51.76    2.20 
   5  -2  -4    9.54    0.99 
  -4   2   4   94.88    2.58 
   4  -2  -4   88.25    2.95 
  -3   2   4   10.11    0.73 
   3  -2  -4   11.20    1.00 
  -2   2   4   13.57    0.90 
   2  -2  -4   14.51    1.11 
  -1   2   4   50.61    1.95 
   0  -2  -4   31.49    1.62 
  -1  -2  -4   95.79    3.32 
  -2  -2  -4   26.68    1.71 
  -3  -2  -4   12.65    1.45 
  -4  -2  -4  164.97    5.48 
   4   2   4  175.59    5.52 
   5   2   4   20.42    2.00 
  -5  -2  -4   15.66    1.76 
   6   2   4   25.04    2.37 
  -6  -2  -4   25.64    2.19 
   7   2   4    4.24    1.50 
  -7  -2  -4    2.21    1.10 
   8   2   4   -0.53    1.20 
  -8  -2  -4    3.09    1.15 
  -9  -2  -4   -1.79    0.92 
   9   2   4   -1.61    1.26 
  10   2   4    2.38    1.94 
 -10  -2  -4    1.30    1.22 
 -11  -2  -4    0.88    1.63 
  11   2   4    1.33    2.14 
  12  -3  -4   -0.19    2.14 
  11  -3  -4    2.40    1.47 
  11  -3  -4    0.99    2.00 
  10  -3  -4    1.86    1.24 
  10  -3  -4    1.71    1.98 
   9  -3  -4    4.26    1.99 
   9  -3  -4    5.96    1.29 
   8  -3  -4   16.05    1.61 
   8  -3  -4   13.16    2.62 
   7  -3  -4   92.11    3.29 
   7  -3  -4   90.81    5.23 
   6  -3  -4   -1.46    1.22 
   6  -3  -4    0.67    0.62 
   5  -3  -4    9.00    1.02 
   4  -3  -4   13.89    1.16 
   3  -3  -4  115.89    3.49 
  -3   3   4  112.03    3.05 
   2  -3  -4   89.90    2.92 
  -2   3   4   87.15    2.66 
   1  -3  -4   41.58    1.76 
   0  -3  -4   -0.19    0.41 
  -1  -3  -4   14.04    1.29 
  -2  -3  -4    9.33    1.22 
  -3  -3  -4   11.76    1.41 
  -4  -3  -4    7.72    1.31 
  -5  -3  -4   83.38    3.49 
   5   3   4   77.08    3.45 
   6   3   4   23.50    2.31 
  -6  -3  -4   19.15    2.00 
  -7  -3  -4    1.38    1.05 
   7   3   4    1.21    1.25 
  -8  -3  -4    8.85    1.65 
   8   3   4   12.46    2.12 
   9   3   4    2.06    1.54 
  -9  -3  -4    0.26    1.15 
 -10  -3  -4   -0.05    1.22 
  10   3   4    0.63    1.93 
  11   3   4    2.37    2.36 
 -11  -3  -4    0.69    1.46 
  12  -4  -4   -0.38    2.13 
  11  -4  -4   -0.59    1.96 
  11  -4  -4    0.85    1.43 
  10  -4  -4    6.81    2.30 
  10  -4  -4    4.39    1.33 
   9  -4  -4    1.06    0.98 
   9  -4  -4   -1.31    1.45 
   8  -4  -4   17.57    3.03 
   8  -4  -4   20.14    1.77 
   7  -4  -4    4.11    1.96 
   7  -4  -4    6.57    1.13 
   6  -4  -4   44.01    2.04 
   5  -4  -4    7.11    0.98 
   4  -4  -4   16.50    1.28 
   3  -4  -4  401.89    9.61 
   3  -4  -4  381.76    9.04 
   2  -4  -4   90.35    2.68 
   2  -4  -4   89.66    3.00 
   1  -4  -4  179.98    4.83 
   0  -4  -4   19.51    1.25 
  -1  -4  -4   90.86    3.17 
  -2  -4  -4    2.40    0.78 
  -3  -4  -4  165.51    5.25 
  -4  -4  -4   61.19    2.86 
  -5  -4  -4   16.35    1.75 
   6   4   4   27.88    2.49 
  -6  -4  -4   19.71    2.04 
   7   4   4   21.47    2.46 
  -7  -4  -4   18.63    2.04 
  -8  -4  -4    3.67    1.36 
   8   4   4    2.16    1.46 
   9   4   4    1.71    1.56 
  -9  -4  -4    0.55    1.06 
 -10  -4  -4    1.76    1.35 
  10   4   4   -0.83    1.86 
  11   4   4    1.10    2.28 
 -11  -4  -4   -0.43    1.33 
  12  -5  -4    3.12    1.82 
  12  -5  -4   -1.15    2.25 
  11  -5  -4   -0.06    1.88 
  11  -5  -4    0.44    1.39 
  10  -5  -4    3.79    1.98 
  10  -5  -4    3.26    1.29 
   9  -5  -4   28.37    3.77 
   9  -5  -4   23.82    2.06 
   8  -5  -4   15.53    2.82 
   8  -5  -4   14.25    1.59 
   7  -5  -4    1.09    0.80 
   7  -5  -4    1.87    1.71 
   6  -5  -4    5.84    1.02 
   5  -5  -4   20.54    1.40 
   4  -5  -4   37.39    1.83 
   3  -5  -4   85.96    2.39 
   3  -5  -4   92.27    3.02 
   2  -5  -4   16.09    0.92 
   2  -5  -4   18.20    1.25 
   1  -5  -4  187.08    4.97 
   0  -5  -4   15.21    1.12 
  -1  -5  -4   27.85    1.60 
  -2  -5  -4  122.07    4.06 
  -3  -5  -4   95.46    3.58 
  -4  -5  -4   21.88    1.89 
  -5  -5  -4   19.34    1.90 
  -6  -5  -4   16.29    1.85 
  -7  -5  -4   33.32    2.39 
  -8  -5  -4   10.71    1.82 
   8   5   4    8.71    2.00 
   9   5   4    4.11    1.93 
  -9  -5  -4    7.10    1.63 
 -10  -5  -4   -0.84    1.14 
 -11  -5  -4    1.90    1.59 
  12  -6  -4    0.72    1.67 
  12  -6  -4    1.61    2.42 
  11  -6  -4    1.50    1.54 
  11  -6  -4   -1.81    1.78 
  10  -6  -4    9.41    2.47 
  10  -6  -4   12.41    1.80 
   9  -6  -4    0.81    0.99 
   9  -6  -4    3.21    1.91 
   8  -6  -4   43.85    2.37 
   8  -6  -4   46.03    4.52 
   7  -6  -4    2.77    0.92 
   7  -6  -4    5.78    1.75 
   6  -6  -4   11.62    1.28 
   5  -6  -4    9.04    1.12 
   4  -6  -4   68.22    2.63 
   3  -6  -4   37.45    1.76 
   3  -6  -4   31.22    1.12 
   2  -6  -4    8.13    1.00 
   2  -6  -4    7.84    0.68 
   1  -6  -4   25.49    1.29 
   0  -6  -4   46.63    1.95 
  -1  -6  -4    1.73    0.65 
  -2  -6  -4    7.63    1.10 
  -3  -6  -4   12.17    1.42 
  -4  -6  -4  146.40    4.95 
  -5  -6  -4    5.35    1.17 
  -6  -6  -4   28.11    2.33 
  -7  -6  -4   12.22    1.83 
  -8  -6  -4    0.67    1.07 
  -9  -6  -4    1.12    1.14 
 -10  -6  -4    0.97    1.25 
 -11  -6  -4    1.74    1.57 
  12  -7  -4    2.25    2.68 
  12  -7  -4    1.12    1.79 
  11  -7  -4    0.80    1.43 
  11  -7  -4    4.62    2.58 
  10  -7  -4    2.40    1.33 
  10  -7  -4    2.44    2.12 
   9  -7  -4   26.23    2.20 
   9  -7  -4   29.64    3.90 
   8  -7  -4    8.08    1.38 
   8  -7  -4    6.78    2.41 
   7  -7  -4   11.58    1.41 
   6  -7  -4   -0.35    0.61 
   5  -7  -4   19.82    1.44 
   4  -7  -4    3.72    0.84 
   3  -7  -4   62.05    2.45 
   3  -7  -4   58.00    1.66 
   2  -7  -4    0.58    0.39 
   2  -7  -4    0.78    0.56 
   1  -7  -4  130.27    4.08 
   1  -7  -4  131.23    3.69 
   0  -7  -4  258.19    6.69 
  -1  -7  -4   27.78    1.59 
  -2  -7  -4   16.39    1.47 
  -3  -7  -4  105.42    3.84 
  -4  -7  -4    0.43    0.75 
  -5  -7  -4   55.37    2.81 
  -6  -7  -4   19.51    2.02 
  -7  -7  -4    4.16    1.28 
  -8  -7  -4    7.69    1.67 
  -9  -7  -4    0.49    1.20 
 -10  -7  -4    0.01    1.27 
 -11  -7  -4   -1.25    1.42 
  12  -8  -4    0.30    2.57 
  12  -8  -4    3.72    1.88 
  11  -8  -4    3.08    2.28 
  11  -8  -4    3.47    1.68 
  10  -8  -4    9.13    1.75 
  10  -8  -4    8.41    2.67 
   9  -8  -4   11.59    2.92 
   9  -8  -4    7.48    1.50 
   8  -8  -4   44.23    2.42 
   8  -8  -4   41.93    4.47 
   7  -8  -4    7.41    1.20 
   6  -8  -4    4.94    1.03 
   5  -8  -4   31.06    1.80 
   4  -8  -4   60.41    2.52 
   3  -8  -4   21.77    1.48 
   3  -8  -4   23.27    0.88 
   2  -8  -4   10.10    0.75 
   2  -8  -4   10.80    1.18 
   1  -8  -4   88.90    3.19 
   1  -8  -4   92.69    2.79 
   0  -8  -4  516.69   12.29 
  -1  -8  -4   20.61    1.39 
  -2  -8  -4    6.70    1.04 
  -3  -8  -4   16.97    1.58 
  -4  -8  -4   60.60    2.82 
  -5  -8  -4    1.28    0.87 
  -6  -8  -4   73.10    3.43 
  -7  -8  -4    3.27    1.19 
  -8  -8  -4    1.01    1.12 
  -9  -8  -4    5.24    1.51 
 -10  -8  -4    0.57    1.26 
 -11  -8  -4    0.16    1.55 
  12  -9  -4   -2.55    2.56 
  12  -9  -4    1.36    1.67 
  11  -9  -4    4.14    2.41 
  10  -9  -4    2.61    1.97 
  10  -9  -4    1.64    1.29 
   9  -9  -4   28.30    3.99 
   9  -9  -4   26.37    2.27 
   8  -9  -4    1.84    1.01 
   8  -9  -4   -0.77    1.65 
   7  -9  -4   21.43    1.84 
   6  -9  -4  107.22    3.76 
   5  -9  -4    0.96    0.70 
   4  -9  -4   25.63    1.65 
   3  -9  -4    9.34    0.59 
   3  -9  -4   10.89    1.21 
   2  -9  -4  170.20    5.00 
   2  -9  -4  165.23    4.23 
   1  -9  -4   85.63    2.70 
   1  -9  -4   91.14    3.19 
   0  -9  -4   14.72    1.20 
  -1  -9  -4  111.03    3.61 
  -2  -9  -4    1.95    0.74 
  -3  -9  -4   50.91    2.46 
  -4  -9  -4   10.09    1.45 
  -5  -9  -4   78.66    3.43 
  -6  -9  -4   59.40    3.06 
  -7  -9  -4   11.96    1.82 
  -8  -9  -4    1.48    1.21 
  -9  -9  -4    4.39    1.56 
 -10  -9  -4    2.94    1.54 
 -11  -9  -4   -2.58    1.35 
  12 -10  -4    3.21    1.87 
  11 -10  -4    3.88    2.29 
  11 -10  -4    1.76    1.58 
  10 -10  -4   18.01    3.42 
  10 -10  -4   11.13    1.91 
   9 -10  -4    3.65    1.23 
   9 -10  -4   -0.54    1.76 
   8 -10  -4   69.59    4.47 
   8 -10  -4   61.16    2.99 
   7 -10  -4    1.73    0.92 
   6 -10  -4    2.67    0.92 
   5 -10  -4    2.59    0.86 
   4 -10  -4    4.76    0.96 
   3 -10  -4    7.86    1.10 
   3 -10  -4    7.69    0.56 
   2 -10  -4  206.42    5.10 
   2 -10  -4  204.73    5.87 
   1 -10  -4   68.93    2.71 
   1 -10  -4   63.78    2.21 
   0 -10  -4   26.15    1.41 
  -1 -10  -4   50.63    2.18 
  -2 -10  -4   22.79    1.56 
  -3 -10  -4    7.60    1.21 
  -4 -10  -4   48.60    2.48 
  -5 -10  -4    3.30    1.12 
  -6 -10  -4   63.38    3.21 
  -7 -10  -4    9.22    1.63 
  -8 -10  -4    1.52    1.03 
  -9 -10  -4    2.78    1.38 
 -10 -10  -4   -0.27    1.33 
 -11 -10  -4   -1.72    1.33 
  12 -11  -4    0.89    1.71 
  11 -11  -4   -1.12    2.10 
  11 -11  -4    2.06    1.55 
  10 -11  -4    2.01    2.07 
  10 -11  -4    0.62    1.21 
   9 -11  -4   22.74    3.80 
   9 -11  -4   21.99    2.21 
   8 -11  -4   10.86    1.55 
   7 -11  -4   15.59    1.71 
   6 -11  -4    2.66    0.91 
   5 -11  -4    9.39    1.27 
   4 -11  -4   13.97    1.41 
   3 -11  -4    4.13    0.95 
   3 -11  -4    3.61    0.45 
   2 -11  -4   16.63    1.47 
   2 -11  -4   14.38    0.89 
   1 -11  -4    1.21    0.48 
   1 -11  -4    1.43    0.66 
   0 -11  -4    6.94    0.90 
  -1 -11  -4   21.61    1.43 
  -2 -11  -4   41.07    2.05 
  -3 -11  -4   79.92    3.17 
  -4 -11  -4    2.84    0.94 
  -5 -11  -4   81.03    3.54 
  -6 -11  -4   17.21    2.02 
  -7 -11  -4    4.53    1.39 
  -8 -11  -4    7.77    1.66 
  -9 -11  -4   -0.43    1.13 
 -10 -11  -4   -1.64    1.28 
 -11 -11  -4    0.85    1.63 
  12 -12  -4    0.17    1.81 
  11 -12  -4    1.84    1.69 
  11 -12  -4    2.23    2.43 
  10 -12  -4   22.85    3.87 
  10 -12  -4   19.66    2.32 
   9 -12  -4    1.53    2.13 
   9 -12  -4    2.64    1.24 
   8 -12  -4    5.76    1.32 
   7 -12  -4   41.69    2.44 
   6 -12  -4   13.24    1.50 
   5 -12  -4    1.54    0.73 
   4 -12  -4   26.99    1.75 
   3 -12  -4    9.66    1.25 
   3 -12  -4    9.65    0.68 
   2 -12  -4   21.91    1.60 
   2 -12  -4   26.81    1.20 
   1 -12  -4   35.34    1.91 
   1 -12  -4   34.84    1.53 
   0 -12  -4   95.83    3.07 
   0 -12  -4   92.89    3.46 
  -1 -12  -4   86.50    3.04 
  -2 -12  -4    8.95    1.19 
  -3 -12  -4    0.83    0.70 
  -4 -12  -4   70.93    3.10 
  -5 -12  -4    3.28    1.09 
  -6 -12  -4   16.66    1.93 
  -7 -12  -4    4.44    1.37 
  -8 -12  -4   -0.66    1.00 
  -9 -12  -4   -0.57    1.25 
 -10 -12  -4    1.51    1.49 
 -11 -12  -4    1.47    1.71 
  12 -13  -4    2.19    1.83 
  11 -13  -4    3.82    2.53 
  11 -13  -4    2.67    1.64 
  10 -13  -4    0.54    1.32 
  10 -13  -4   -1.48    2.10 
   9 -13  -4    5.06    1.42 
   9 -13  -4    1.81    2.27 
   8 -13  -4    5.26    1.30 
   7 -13  -4   17.39    1.81 
   6 -13  -4   19.43    1.77 
   5 -13  -4    3.39    0.94 
   4 -13  -4   30.89    1.87 
   3 -13  -4    0.65    0.39 
   3 -13  -4   -0.17    0.66 
   2 -13  -4   19.79    1.64 
   2 -13  -4   20.13    1.08 
   1 -13  -4   18.70    1.11 
   1 -13  -4   19.23    1.61 
   0 -13  -4   21.58    1.71 
   0 -13  -4   18.86    1.24 
  -1 -13  -4   23.51    1.49 
  -2 -13  -4   73.36    2.89 
  -3 -13  -4   57.77    2.63 
  -4 -13  -4    4.88    1.12 
  -5 -13  -4  106.42    4.16 
  -6 -13  -4    0.44    0.92 
  -7 -13  -4    2.59    1.18 
  -8 -13  -4    2.63    1.32 
  -9 -13  -4    0.06    1.22 
 -10 -13  -4    0.90    1.35 
  11 -14  -4    2.52    1.71 
  10 -14  -4    6.48    2.78 
  10 -14  -4    2.61    1.57 
   9 -14  -4    0.12    1.09 
   8 -14  -4   18.55    1.97 
   7 -14  -4    4.46    1.20 
   6 -14  -4   13.07    1.57 
   5 -14  -4   99.03    3.77 
   4 -14  -4    2.64    0.86 
   3 -14  -4   41.34    1.54 
   3 -14  -4   41.90    2.22 
   2 -14  -4    1.36    0.49 
   2 -14  -4    0.68    0.66 
   1 -14  -4   23.39    1.29 
   1 -14  -4   23.58    1.66 
   0 -14  -4    3.01    0.72 
   0 -14  -4    2.41    0.85 
  -1 -14  -4   15.87    1.38 
  -2 -14  -4   65.26    2.74 
  -3 -14  -4   10.16    1.39 
  -4 -14  -4   47.33    2.52 
  -5 -14  -4    2.76    1.10 
  -6 -14  -4    6.16    1.36 
  -7 -14  -4    3.88    1.35 
  -8 -14  -4    0.12    1.02 
  -9 -14  -4    2.01    1.42 
 -10 -14  -4    0.16    1.48 
  11 -15  -4    0.33    1.53 
  10 -15  -4   -0.28    1.36 
  10 -15  -4    0.30    2.33 
   9 -15  -4    4.00    1.47 
   8 -15  -4    1.48    1.12 
   7 -15  -4    9.48    1.49 
   6 -15  -4   13.74    1.63 
   5 -15  -4   14.00    1.57 
   4 -15  -4   30.70    1.92 
   3 -15  -4    0.63    0.47 
   3 -15  -4    1.30    0.76 
   2 -15  -4   19.71    1.15 
   2 -15  -4   20.07    1.72 
   1 -15  -4    2.57    0.66 
   1 -15  -4    2.05    0.80 
   0 -15  -4   14.07    1.22 
   0 -15  -4   14.28    1.50 
  -1 -15  -4   43.99    2.07 
  -2 -15  -4   10.02    1.32 
  -3 -15  -4   75.27    3.13 
  -4 -15  -4    8.23    1.39 
  -5 -15  -4   28.27    2.33 
  -6 -15  -4   -0.28    0.96 
  -7 -15  -4    1.22    1.14 
  -8 -15  -4    6.78    1.61 
  -9 -15  -4    0.84    1.36 
 -10 -15  -4   -0.13    1.43 
  11 -16  -4   -0.26    1.49 
  10 -16  -4    3.74    2.89 
  10 -16  -4    1.25    1.55 
   9 -16  -4    0.82    1.26 
   8 -16  -4    6.15    1.47 
   7 -16  -4   37.35    2.50 
   6 -16  -4   12.14    1.60 
   5 -16  -4   73.80    3.22 
   4 -16  -4    1.72    0.81 
   3 -16  -4   14.06    1.56 
   3 -16  -4   16.33    1.04 
   2 -16  -4   20.33    1.78 
   2 -16  -4   24.01    1.31 
   1 -16  -4   10.04    1.33 
   1 -16  -4    9.17    0.99 
   0 -16  -4    6.92    1.23 
   0 -16  -4    6.02    0.96 
  -1 -16  -4   21.16    1.47 
  -1 -16  -4   21.25    1.83 
  -2 -16  -4   58.62    2.58 
  -3 -16  -4    6.12    1.20 
  -4 -16  -4   26.98    1.96 
  -5 -16  -4    4.92    1.29 
  -6 -16  -4   -1.58    0.75 
  -7 -16  -4    5.33    1.45 
  -8 -16  -4    1.79    1.32 
  -9 -16  -4   -0.57    1.30 
 -10 -16  -4    0.25    1.52 
  11 -17  -4    1.66    1.68 
  10 -17  -4    0.48    1.52 
  10 -17  -4    5.71    3.01 
   9 -17  -4    5.70    1.63 
   8 -17  -4    2.67    1.22 
   7 -17  -4   25.30    2.25 
   6 -17  -4   22.83    2.03 
   5 -17  -4    2.63    0.96 
   4 -17  -4   33.18    2.09 
   3 -17  -4   -0.26    0.68 
   3 -17  -4    0.97    0.57 
   2 -17  -4    4.35    1.03 
   2 -17  -4    4.33    0.78 
   1 -17  -4   12.71    1.51 
   1 -17  -4   16.47    1.27 
   0 -17  -4   65.57    2.96 
   0 -17  -4   68.23    2.60 
  -1 -17  -4   18.37    1.53 
  -1 -17  -4   19.59    1.82 
  -2 -17  -4   43.76    2.23 
  -3 -17  -4    1.85    0.84 
  -4 -17  -4    4.48    1.17 
  -5 -17  -4   12.26    1.75 
  -6 -17  -4    0.86    1.04 
  -7 -17  -4    2.15    1.21 
  -8 -17  -4    4.29    1.53 
  -9 -17  -4    0.71    1.30 
 -10 -17  -4    1.20    1.67 
  11 -18  -4   -0.03    1.61 
  10 -18  -4    0.82    1.56 
   9 -18  -4   -0.10    1.32 
   8 -18  -4   -0.16    0.99 
   7 -18  -4    1.69    1.07 
   6 -18  -4   23.44    2.13 
   5 -18  -4   62.11    3.01 
   4 -18  -4   11.56    1.55 
   3 -18  -4   31.55    1.53 
   3 -18  -4   29.86    2.01 
   2 -18  -4   10.74    1.06 
   2 -18  -4    8.22    1.27 
   1 -18  -4   24.06    1.79 
   1 -18  -4   26.52    1.53 
   0 -18  -4    2.77    0.93 
   0 -18  -4    3.44    0.91 
  -1 -18  -4    3.64    0.99 
  -1 -18  -4    3.97    0.97 
  -2 -18  -4    2.77    0.97 
  -3 -18  -4    2.06    0.97 
  -4 -18  -4   27.00    2.21 
  -5 -18  -4    5.83    1.35 
  -6 -18  -4    0.35    0.96 
  -7 -18  -4    2.08    1.20 
  -8 -18  -4    0.39    1.23 
  -9 -18  -4    0.88    1.42 
 -10 -18  -4   -0.55    1.50 
  11 -19  -4   -0.79    1.60 
  10 -19  -4    1.16    1.61 
   9 -19  -4    1.67    1.50 
   8 -19  -4   -0.28    1.17 
   7 -19  -4    5.62    1.46 
   6 -19  -4   13.81    1.82 
   5 -19  -4   10.78    1.53 
   4 -19  -4   60.30    2.94 
   3 -19  -4    0.94    0.79 
   3 -19  -4    1.91    0.67 
   2 -19  -4   24.03    1.46 
   2 -19  -4   22.41    1.96 
   1 -19  -4    6.09    1.15 
   1 -19  -4    4.90    0.95 
   0 -19  -4    8.36    1.33 
   0 -19  -4    7.12    1.09 
  -1 -19  -4   33.38    1.94 
  -1 -19  -4   31.90    2.10 
  -2 -19  -4   15.71    1.62 
  -2 -19  -4   14.94    1.68 
  -3 -19  -4    0.19    0.79 
  -4 -19  -4   -0.13    0.87 
  -5 -19  -4    1.22    1.03 
  -6 -19  -4   -0.12    0.92 
  -7 -19  -4    0.07    1.19 
  -8 -19  -4    0.73    1.39 
  -9 -19  -4    1.66    1.59 
 -10 -19  -4    2.25    1.67 
  10 -20  -4   -0.32    1.61 
   9 -20  -4    0.91    1.46 
   8 -20  -4    0.35    1.16 
   7 -20  -4    1.93    1.16 
   6 -20  -4   -0.65    0.88 
   5 -20  -4   27.88    2.26 
   4 -20  -4    0.32    0.85 
   3 -20  -4    7.91    1.35 
   3 -20  -4   11.46    1.15 
   2 -20  -4    0.87    0.83 
   2 -20  -4    0.17    0.64 
   1 -20  -4   29.99    2.00 
   1 -20  -4   28.00    1.69 
   0 -20  -4    0.49    0.72 
   0 -20  -4    0.36    0.78 
  -1 -20  -4    1.74    0.84 
  -1 -20  -4    4.52    1.12 
  -2 -20  -4    7.27    1.35 
  -2 -20  -4   10.35    1.46 
  -3 -20  -4   11.67    1.58 
  -4 -20  -4    1.49    0.98 
  -5 -20  -4    2.00    1.15 
  -6 -20  -4    4.67    1.38 
  -7 -20  -4    0.88    1.29 
  -8 -20  -4    2.09    1.46 
  -9 -20  -4    2.75    1.67 
  10 -21  -4    0.52    1.69 
   9 -21  -4    0.12    1.48 
   8 -21  -4    2.13    1.38 
   7 -21  -4    3.11    1.39 
   6 -21  -4   11.12    1.70 
   5 -21  -4    6.94    1.36 
   4 -21  -4   10.60    1.59 
   3 -21  -4    0.88    0.70 
   3 -21  -4    1.63    0.87 
   2 -21  -4   27.44    2.03 
   2 -21  -4   27.79    1.67 
   1 -21  -4   26.88    2.14 
   1 -21  -4   24.94    1.65 
   0 -21  -4    1.82    0.95 
   0 -21  -4    1.42    0.85 
  -1 -21  -4    3.03    1.04 
  -1 -21  -4    5.84    1.15 
  -2 -21  -4   -0.14    0.80 
  -2 -21  -4    0.78    0.87 
  -3 -21  -4   17.79    1.98 
  -3 -21  -4   17.52    1.91 
  -4 -21  -4    7.59    1.43 
  -5 -21  -4    3.18    1.22 
  -6 -21  -4    4.34    1.34 
  -7 -21  -4   -0.68    1.14 
  -8 -21  -4    0.27    1.29 
  -9 -21  -4    0.66    1.53 
  10 -22  -4   -0.29    1.63 
   9 -22  -4    0.43    1.54 
   8 -22  -4   -0.43    1.31 
   7 -22  -4    0.44    1.11 
   6 -22  -4    3.58    1.30 
   5 -22  -4    8.77    1.59 
   4 -22  -4    6.48    1.30 
   3 -22  -4   19.44    1.93 
   2 -22  -4    0.88    0.78 
   2 -22  -4    1.85    0.99 
   1 -22  -4    1.19    0.89 
   1 -22  -4    0.88    0.81 
   0 -22  -4   12.64    1.50 
   0 -22  -4   14.37    1.69 
  -1 -22  -4    0.40    0.85 
  -1 -22  -4   -0.63    0.72 
  -2 -22  -4    2.10    1.06 
  -2 -22  -4    3.52    1.07 
  -3 -22  -4    3.08    1.12 
  -3 -22  -4    1.91    0.95 
  -4 -22  -4    1.88    0.98 
  -5 -22  -4    0.61    0.97 
  -6 -22  -4    1.82    1.30 
  -7 -22  -4    2.40    1.45 
  -8 -22  -4    1.27    1.44 
  -9 -22  -4    2.06    1.69 
  10 -23  -4    1.13    1.80 
   9 -23  -4    4.58    2.01 
   8 -23  -4    1.07    1.39 
   7 -23  -4    6.29    1.67 
   6 -23  -4    8.63    1.63 
   5 -23  -4    1.99    1.11 
   4 -23  -4    0.65    0.87 
   3 -23  -4    0.87    0.89 
   2 -23  -4   14.01    1.51 
   2 -23  -4   16.01    1.83 
   1 -23  -4    1.61    0.88 
   1 -23  -4    3.84    1.11 
   0 -23  -4    1.08    0.89 
   0 -23  -4    0.54    0.77 
  -1 -23  -4   21.67    2.02 
  -1 -23  -4   21.65    1.89 
  -2 -23  -4    5.69    1.25 
  -2 -23  -4    5.03    1.26 
  -3 -23  -4   11.03    1.63 
  -3 -23  -4   13.33    1.79 
  -4 -23  -4    9.49    1.57 
  -4 -23  -4    7.94    1.49 
  -5 -23  -4    0.60    1.04 
  -6 -23  -4    2.65    1.36 
  -7 -23  -4   -0.19    1.24 
  -8 -23  -4    0.02    1.39 
  -9 -23  -4    1.14    1.53 
  10 -24  -4   -0.33    1.83 
   9 -24  -4    2.90    1.88 
   8 -24  -4    1.16    1.45 
   7 -24  -4    2.35    1.45 
   6 -24  -4    5.09    1.52 
   5 -24  -4    2.52    1.15 
   4 -24  -4   -0.05    0.87 
   3 -24  -4    3.37    1.15 
   2 -24  -4   -0.14    0.79 
   2 -24  -4    0.13    0.82 
   1 -24  -4   -0.91    0.83 
   1 -24  -4    0.36    0.86 
   0 -24  -4    2.82    1.02 
   0 -24  -4    2.73    1.00 
  -1 -24  -4    0.57    0.91 
  -1 -24  -4    1.62    0.95 
  -2 -24  -4   25.50    2.22 
  -2 -24  -4   22.77    2.09 
  -3 -24  -4    3.07    1.16 
  -3 -24  -4    2.08    1.10 
  -4 -24  -4    0.67    0.99 
  -4 -24  -4    0.43    0.96 
  -5 -24  -4    5.99    1.46 
  -6 -24  -4    0.64    1.18 
  -7 -24  -4    1.08    1.42 
  -8 -24  -4   -0.39    1.41 
   9 -25  -4    3.51    1.91 
   8 -25  -4    1.55    1.56 
   7 -25  -4    2.24    1.57 
   6 -25  -4    1.34    1.15 
   5 -25  -4    5.63    1.41 
   4 -25  -4    7.06    1.48 
   3 -25  -4    3.33    1.17 
   2 -25  -4    3.13    1.05 
   2 -25  -4    4.69    1.21 
   1 -25  -4    3.55    1.04 
   1 -25  -4    2.84    1.15 
   0 -25  -4    1.01    0.94 
   0 -25  -4    0.41    0.86 
  -1 -25  -4   14.79    1.82 
  -1 -25  -4   13.95    1.69 
  -2 -25  -4    4.94    1.23 
  -2 -25  -4    1.48    1.04 
  -3 -25  -4    4.59    1.34 
  -3 -25  -4    4.55    1.29 
  -4 -25  -4    4.03    1.34 
  -4 -25  -4    7.19    1.55 
  -5 -25  -4    0.79    1.17 
  -6 -25  -4    2.95    1.38 
  -7 -25  -4    2.51    1.50 
  -8 -25  -4    3.16    1.72 
   9 -26  -4    2.40    1.82 
   8 -26  -4    0.85    1.75 
   7 -26  -4    3.22    1.54 
   6 -26  -4   10.25    1.78 
   5 -26  -4    4.47    1.39 
   4 -26  -4    2.81    1.13 
   3 -26  -4    6.12    1.44 
   2 -26  -4    4.62    1.24 
   2 -26  -4    4.75    1.31 
   1 -26  -4   -0.28    0.87 
   1 -26  -4    1.21    1.01 
   0 -26  -4   24.35    2.23 
   0 -26  -4   22.16    2.04 
  -1 -26  -4    4.83    1.32 
  -1 -26  -4    5.15    1.28 
  -2 -26  -4    1.03    0.90 
  -2 -26  -4    0.16    0.95 
  -3 -26  -4    2.52    1.16 
  -3 -26  -4    1.79    1.13 
  -4 -26  -4    1.20    1.21 
  -4 -26  -4   -0.09    1.12 
  -5 -26  -4    3.36    1.48 
  -6 -26  -4    0.09    1.36 
  -7 -26  -4    2.19    1.59 
  -8 -26  -4    0.56    1.54 
   9 -27  -4    0.19    1.54 
   8 -27  -4    1.07    1.72 
   7 -27  -4    2.73    1.69 
   6 -27  -4    7.48    1.83 
   5 -27  -4    5.61    1.49 
   4 -27  -4   18.35    2.11 
   3 -27  -4    0.76    1.08 
   2 -27  -4    3.55    1.21 
   1 -27  -4    8.83    1.54 
   1 -27  -4    8.12    1.51 
   0 -27  -4    1.69    1.03 
   0 -27  -4    1.89    1.08 
  -1 -27  -4    0.81    0.93 
  -1 -27  -4    1.43    1.00 
  -2 -27  -4    1.29    1.05 
  -2 -27  -4    3.11    1.11 
  -3 -27  -4    2.54    1.22 
  -3 -27  -4    0.33    1.10 
  -4 -27  -4    3.27    1.38 
  -5 -27  -4    0.70    1.31 
  -6 -27  -4    2.37    1.61 
  -7 -27  -4    1.96    1.68 
   8 -28  -4   -0.84    1.59 
   7 -28  -4   -1.86    1.43 
   6 -28  -4    1.24    1.50 
   5 -28  -4    9.67    1.76 
   4 -28  -4    2.57    1.18 
   3 -28  -4    7.05    1.46 
   2 -28  -4    2.78    1.18 
   1 -28  -4    6.75    1.46 
   1 -28  -4    6.91    1.45 
   0 -28  -4    4.59    1.27 
   0 -28  -4    3.33    1.20 
  -1 -28  -4    0.87    0.98 
  -1 -28  -4   -0.45    0.96 
  -2 -28  -4    1.13    1.11 
  -2 -28  -4    0.80    1.08 
  -3 -28  -4    1.37    1.18 
  -3 -28  -4    0.92    1.24 
  -4 -28  -4    2.13    1.40 
  -5 -28  -4    2.95    1.57 
  -6 -28  -4    1.45    1.55 
  -7 -28  -4    3.52    1.88 
   8 -29  -4    0.33    1.85 
   7 -29  -4    1.93    1.71 
   6 -29  -4    0.12    1.47 
   5 -29  -4    4.16    1.53 
   4 -29  -4    6.78    1.62 
   3 -29  -4   -0.71    0.94 
   2 -29  -4   10.11    1.73 
   1 -29  -4    0.08    1.09 
   1 -29  -4    1.89    1.05 
   0 -29  -4    1.05    1.09 
   0 -29  -4    1.03    1.10 
  -1 -29  -4    0.12    1.06 
  -1 -29  -4    1.59    1.16 
  -2 -29  -4   -0.08    1.06 
  -2 -29  -4    2.18    1.17 
  -3 -29  -4   -0.38    1.11 
  -4 -29  -4    2.57    1.44 
  -5 -29  -4    0.68    1.33 
  -6 -29  -4    5.72    1.97 
  -7 -29  -4    3.00    1.72 
   7 -30  -4    1.52    1.68 
   6 -30  -4    0.01    1.53 
   5 -30  -4   -0.14    1.28 
   4 -30  -4    2.05    1.27 
   3 -30  -4    8.74    1.64 
   2 -30  -4   -0.24    1.00 
   1 -30  -4    5.24    1.45 
   1 -30  -4    2.31    1.29 
   0 -30  -4    0.34    1.19 
   0 -30  -4    0.44    1.03 
  -1 -30  -4    2.64    1.25 
  -1 -30  -4    4.99    1.45 
  -2 -30  -4    1.66    1.29 
  -2 -30  -4    0.98    1.22 
  -3 -30  -4   -1.24    1.16 
  -4 -30  -4    0.75    1.40 
  -5 -30  -4    4.65    1.80 
  -6 -30  -4    0.20    1.48 
   7 -31  -4   -0.29    1.62 
   6 -31  -4    2.48    1.72 
   5 -31  -4    0.57    1.35 
   4 -31  -4   -0.21    1.16 
   3 -31  -4    0.57    1.14 
   2 -31  -4    4.18    1.45 
   1 -31  -4    0.58    1.34 
   1 -31  -4   -1.51    0.97 
   0 -31  -4    3.08    1.42 
   0 -31  -4    4.00    1.32 
  -1 -31  -4    3.55    1.46 
  -1 -31  -4    3.98    1.50 
  -2 -31  -4    2.90    1.39 
  -3 -31  -4    2.28    1.41 
  -4 -31  -4    3.16    1.63 
  -5 -31  -4    1.31    1.51 
  -6 -31  -4    3.27    1.84 
   6 -32  -4    0.47    1.71 
   5 -32  -4    1.62    1.33 
   4 -32  -4    0.51    1.28 
   3 -32  -4    1.42    1.25 
   2 -32  -4   -0.65    1.09 
   1 -32  -4   12.75    1.94 
   0 -32  -4    0.08    1.24 
   0 -32  -4    0.04    1.16 
  -1 -32  -4   -0.58    1.26 
  -1 -32  -4    0.19    1.33 
  -2 -32  -4    1.81    1.47 
  -3 -32  -4    0.53    1.42 
  -4 -32  -4    0.02    1.43 
  -5 -32  -4    0.14    1.56 
   6 -33  -4    2.34    1.78 
   5 -33  -4   -0.09    1.53 
   4 -33  -4    1.95    1.49 
   3 -33  -4    1.62    1.30 
   2 -33  -4    2.78    1.47 
   1 -33  -4   -0.46    1.15 
   0 -33  -4    3.19    1.58 
   0 -33  -4    0.48    1.23 
  -1 -33  -4    1.06    1.52 
  -2 -33  -4   -0.21    1.45 
  -3 -33  -4    1.00    1.47 
  -4 -33  -4   -0.24    1.50 
  -5 -33  -4    0.88    1.67 
   5 -34  -4    5.84    1.99 
   4 -34  -4    1.52    1.50 
   3 -34  -4    3.66    1.64 
   2 -34  -4    0.10    1.35 
   1 -34  -4    4.25    1.58 
   0 -34  -4    0.59    1.53 
   0 -34  -4    0.50    1.32 
  -1 -34  -4   -1.05    1.46 
  -2 -34  -4   -0.83    1.47 
  -3 -34  -4    0.26    1.50 
  -4 -34  -4   -0.01    1.43 
   4 -35  -4    5.34    1.85 
   3 -35  -4    0.68    1.45 
   2 -35  -4    4.02    1.54 
   1 -35  -4    0.44    1.37 
  -1 -35  -4    1.16    1.54 
  -2 -35  -4   -0.43    1.51 
  -3 -35  -4    0.83    1.60 
   3 -36  -4    6.65    1.85 
   2 -36  -4   -1.08    1.34 
   1 -36  -4    1.72    1.50 
  -1 -36  -4    2.14    1.72 
  -2 -36  -4   -1.10    1.45 
   2 -37  -4    4.64    1.78 
  -1 -37  -4   -1.50    1.44 
  -2 -36   5   -0.43    1.90 
  -1 -36   5    3.32    2.14 
   0 -36   5    2.28    2.11 
  -3 -35   5   -0.68    1.67 
  -2 -35   5    1.12    1.97 
  -1 -35   5    1.58    1.91 
   0 -35   5   -0.40    1.85 
   1 -35   5    2.91    2.09 
   2 -35   5   -0.31    1.83 
  -4 -34   5   -0.33    1.48 
  -3 -34   5    0.86    1.67 
  -2 -34   5   -0.08    1.77 
  -1 -34   5   -1.56    1.58 
   0 -34   5   -2.23    1.73 
   1 -34   5    1.59    1.83 
   2 -34   5    3.68    2.08 
   3 -34   5   -0.52    1.82 
  -5 -33   5    2.52    1.73 
  -4 -33   5   -0.10    1.54 
  -3 -33   5    0.94    1.76 
  -2 -33   5    2.13    1.89 
  -1 -33   5    0.77    1.67 
   0 -33   5   -1.35    1.67 
   1 -33   5    2.47    1.96 
   2 -33   5   -1.36    1.57 
   3 -33   5    4.91    2.13 
   4 -33   5    0.89    1.79 
  -6 -32   5    3.88    1.87 
  -5 -32   5    4.21    1.79 
  -4 -32   5    0.58    1.29 
  -3 -32   5    1.95    1.65 
  -2 -32   5    1.05    1.71 
  -1 -32   5    0.66    1.67 
   0 -32   5    0.53    1.68 
   1 -32   5    3.18    1.93 
   2 -32   5    3.52    1.99 
   3 -32   5   -0.58    1.56 
   4 -32   5    6.86    2.23 
  -6 -31   5   -0.63    1.51 
  -5 -31   5    2.61    1.69 
  -4 -31   5   -2.63    1.08 
  -3 -31   5   -0.42    1.40 
  -2 -31   5    0.96    1.65 
  -1 -31   5    0.11    1.48 
   0 -31   5    3.02    1.86 
   1 -31   5    3.91    1.93 
   2 -31   5    1.83    1.71 
   3 -31   5    4.37    2.05 
   4 -31   5   -1.01    1.53 
   5 -31   5    1.27    1.82 
  -7 -30   5    0.56    1.51 
  -6 -30   5    0.31    1.53 
  -5 -30   5    1.72    1.51 
  -4 -30   5   -0.77    1.41 
  -3 -30   5    0.01    1.29 
  -2 -30   5    0.67    1.53 
  -1 -30   5    1.38    1.51 
   0 -30   5    1.96    1.61 
   1 -30   5    1.14    1.57 
   2 -30   5    7.03    2.13 
   3 -30   5    2.28    1.76 
   4 -30   5    4.65    2.08 
   5 -30   5    0.47    1.73 
   6 -30   5    0.29    1.92 
   7  29  -5    1.42    2.22 
  -7 -29   5    1.10    1.48 
  -6 -29   5    1.50    1.55 
  -5 -29   5    0.20    1.22 
  -4 -29   5    0.03    1.28 
  -3 -29   5    1.36    1.35 
  -2 -29   5   -0.79    1.17 
  -1 -29   5    3.23    1.72 
   0 -29   5    2.58    1.60 
   1 -29   5    9.43    2.11 
   2 -29   5    0.61    1.51 
   3 -29   5    4.99    1.85 
   4 -29   5    1.22    1.82 
   5 -29   5    0.09    1.57 
   5 -29   5    4.09    2.04 
   6 -29   5    0.61    1.79 
   6 -29   5    1.78    1.86 
   8  28  -5    1.78    2.52 
  -8 -28   5    1.08    1.43 
   7  28  -5    1.15    2.30 
  -7 -28   5    2.53    1.52 
   6  28  -5    4.00    2.36 
  -6 -28   5    2.87    1.53 
  -5 -28   5   -0.60    1.23 
  -4 -28   5   -1.09    1.01 
  -3 -28   5   -0.30    1.10 
  -2 -28   5   -0.50    1.23 
  -1 -28   5    1.38    1.50 
   0 -28   5    4.37    1.67 
   1 -28   5    3.37    1.57 
   2 -28   5    3.57    1.70 
   3 -28   5   -0.01    1.34 
   4 -28   5    9.20    2.30 
   4 -28   5    8.15    1.80 
   5 -28   5    0.60    1.48 
   5 -28   5    0.59    1.71 
   6 -28   5   -0.63    1.70 
   6 -28   5    2.70    2.03 
   8  27  -5    0.01    2.18 
  -8 -27   5    0.91    1.35 
   7  27  -5   -0.54    1.80 
  -7 -27   5    1.42    1.47 
   6  27  -5    1.43    1.95 
  -6 -27   5   -0.50    1.08 
   5  27  -5    4.94    2.39 
  -5 -27   5    1.31    1.32 
  -4 -27   5    0.20    1.15 
  -3 -27   5    0.45    0.97 
  -2 -27   5   -0.70    1.16 
  -1 -27   5    3.90    1.61 
   0 -27   5    4.74    1.56 
   1 -27   5    5.40    1.74 
   2 -27   5    2.33    1.41 
   3 -27   5    7.99    1.98 
   4 -27   5   -0.36    1.13 
   4 -27   5   -0.83    1.21 
   5 -27   5    7.92    2.15 
   5 -27   5   12.12    2.11 
   6 -27   5   -0.71    1.74 
   6 -27   5    1.04    1.62 
   7 -27   5    1.44    1.92 
  -9 -26   5    1.32    1.62 
   9  26  -5    3.25    2.71 
  -8 -26   5    1.54    1.35 
   8  26  -5    5.13    2.63 
   7  26  -5    1.03    2.11 
  -7 -26   5    1.26    1.14 
   6  26  -5    4.51    2.10 
  -6 -26   5    1.65    1.21 
  -5 -26   5   -1.23    0.89 
   5  26  -5    1.45    1.57 
  -4 -26   5    3.68    1.47 
   4  26  -5    2.02    1.67 
  -3 -26   5    1.25    1.14 
  -2 -26   5   -0.36    0.92 
  -1 -26   5    5.78    1.61 
   0 -26   5   10.71    2.12 
   1 -26   5    7.06    1.76 
   2 -26   5    5.68    1.71 
   3 -26   5    0.83    1.03 
   3 -26   5    0.48    1.26 
   4 -26   5   10.33    1.75 
   4 -26   5    4.16    1.73 
   5 -26   5   -0.23    1.53 
   5 -26   5    1.67    1.35 
   6 -26   5    3.40    1.73 
   6 -26   5    3.37    2.03 
   7 -26   5    0.99    1.79 
   9  25  -5    0.78    2.28 
  -9 -25   5    1.07    1.32 
   8  25  -5    2.33    2.39 
  -8 -25   5    1.41    1.40 
  -7 -25   5    0.26    1.17 
   7  25  -5    1.53    2.00 
  -6 -25   5    0.47    1.04 
   6  25  -5    1.43    1.69 
  -5 -25   5    2.14    1.28 
   5  25  -5    4.00    1.77 
  -4 -25   5    3.02    1.24 
   4  25  -5    3.65    1.65 
  -3 -25   5    1.67    1.16 
   3  25  -5    1.41    1.32 
  -2 -25   5   10.26    1.97 
  -1 -25   5    6.27    1.55 
   0 -25   5   21.29    2.67 
   1 -25   5    5.33    1.59 
   2 -25   5    2.51    1.39 
   3 -25   5   12.31    2.18 
   3 -25   5   18.31    1.96 
   4 -25   5   -1.01    1.20 
   4 -25   5    1.51    1.08 
   5 -25   5   10.63    1.98 
   5 -25   5    9.10    2.19 
   6 -25   5    2.13    1.56 
   6 -25   5    1.14    1.73 
   7 -25   5    0.42    1.74 
   7 -25   5    1.42    1.79 
  -9 -24   5    1.53    1.40 
   9  24  -5    0.54    2.25 
  -8 -24   5    8.57    1.95 
   8  24  -5    5.20    2.49 
  -7 -24   5    1.55    1.16 
   7  24  -5    2.65    2.06 
  -6 -24   5    0.85    1.01 
   6  24  -5    0.73    1.62 
  -5 -24   5   -0.08    1.05 
   5  24  -5   -0.27    1.24 
  -4 -24   5    0.15    1.01 
   4  24  -5    0.93    1.32 
  -3 -24   5    3.72    1.27 
   3  24  -5    3.61    1.54 
  -2 -24   5    0.39    1.00 
  -1 -24   5    8.50    1.75 
   0 -24   5    7.14    1.68 
   1 -24   5    6.64    1.64 
   2 -24   5   14.10    1.66 
   2 -24   5   11.80    2.03 
   3 -24   5    2.96    1.32 
   3 -24   5    2.81    1.06 
   4 -24   5    8.76    2.01 
   4 -24   5    4.63    1.28 
   5 -24   5    1.34    1.24 
   5 -24   5    0.68    1.40 
   6 -24   5    4.62    1.90 
   6 -24   5    5.59    1.78 
   7 -24   5    3.01    1.85 
   7 -24   5    1.54    1.99 
   8 -24   5    1.76    2.03 
  10  23  -5   -0.14    2.35 
   9  23  -5    7.30    2.86 
  -9 -23   5    3.00    1.55 
  -8 -23   5    0.86    1.25 
   8  23  -5    4.61    2.34 
   7  23  -5    4.03    2.05 
  -7 -23   5    2.72    1.27 
   6  23  -5    4.43    1.84 
  -6 -23   5    2.86    1.23 
   5  23  -5    0.64    1.23 
  -5 -23   5    0.51    0.93 
  -4 -23   5    1.02    1.01 
   4  23  -5    2.13    1.35 
   3  23  -5    1.46    1.16 
  -3 -23   5    1.13    1.06 
   2  23  -5   29.47    2.80 
  -2 -23   5   24.23    2.56 
  -1 -23   5    1.32    1.09 
   0 -23   5    9.43    1.76 
   1 -23   5   15.10    2.12 
   2 -23   5   12.48    1.55 
   2 -23   5   10.69    1.94 
   3 -23   5   29.80    3.02 
   3 -23   5   29.00    2.05 
   4 -23   5   -0.16    0.93 
   4 -23   5    0.48    1.10 
   5 -23   5    1.73    1.51 
   5 -23   5    3.26    1.41 
   6 -23   5    0.90    1.39 
   6 -23   5    2.76    1.72 
   7 -23   5    2.75    1.97 
   7 -23   5    2.92    1.80 
   8 -23   5    2.01    2.00 
  10  22  -5    2.38    2.48 
 -10 -22   5    0.99    1.39 
  -9 -22   5   -0.24    1.21 
   9  22  -5    0.65    2.06 
  -8 -22   5    6.56    1.58 
   8  22  -5    4.74    2.35 
  -7 -22   5    3.64    1.31 
   7  22  -5    3.77    1.97 
   6  22  -5    7.18    2.11 
  -6 -22   5    4.78    1.36 
   5  22  -5   18.66    2.65 
  -5 -22   5   18.30    2.17 
   4  22  -5    1.45    1.38 
  -4 -22   5    3.40    1.21 
   3  22  -5   -1.50    0.99 
  -3 -22   5    0.57    0.87 
  -2 -22   5    2.05    1.07 
   2  22  -5    5.02    1.59 
  -1 -22   5   28.66    2.66 
   0 -22   5    9.71    1.73 
   1 -22   5   34.27    1.85 
   1 -22   5   28.15    2.75 
   2 -22   5   19.61    2.38 
   2 -22   5   25.67    1.97 
   3 -22   5    1.48    0.95 
   3 -22   5    1.15    1.26 
   4 -22   5   12.02    1.75 
   4 -22   5   16.20    2.46 
   5 -22   5    2.32    1.24 
   5 -22   5    1.86    1.31 
   6 -22   5    1.25    1.37 
   6 -22   5    2.19    1.60 
   7 -22   5    2.48    1.95 
   8 -22   5    1.48    1.86 
 -10 -21   5   -0.59    1.16 
  10  21  -5    1.22    2.35 
  -9 -21   5    0.91    1.24 
   9  21  -5   -2.26    1.84 
  -8 -21   5    0.38    1.02 
   8  21  -5   -2.78    1.60 
   7  21  -5    6.90    2.11 
  -7 -21   5    6.08    1.47 
   6  21  -5   -0.13    1.29 
  -6 -21   5    3.29    1.13 
   5  21  -5    1.12    1.30 
  -5 -21   5    0.90    0.92 
   4  21  -5    9.19    1.84 
  -4 -21   5    9.46    1.69 
   3  21  -5    1.40    1.19 
  -3 -21   5    0.19    0.78 
   2  21  -5   15.31    2.13 
  -2 -21   5   16.39    2.06 
  -1 -21   5    1.32    1.02 
   0 -21   5   66.06    3.54 
   1 -21   5   10.49    1.23 
   1 -21   5   10.09    1.75 
   2 -21   5    3.85    1.07 
   2 -21   5    3.24    1.18 
   3 -21   5    8.63    1.77 
   3 -21   5   13.62    1.66 
   4 -21   5    1.72    1.17 
   4 -21   5    0.04    0.88 
   5 -21   5    5.56    1.68 
   5 -21   5    8.07    1.64 
   6 -21   5    4.66    1.49 
   6 -21   5    1.91    1.52 
   7 -21   5    1.64    1.77 
   7 -21   5    2.64    1.56 
   8 -21   5    2.14    1.80 
   9 -21   5    1.02    1.82 
  10  20  -5   -2.16    2.11 
   9  20  -5    2.53    2.26 
  -9 -20   5    0.29    1.12 
   8  20  -5    5.47    2.27 
  -8 -20   5    2.63    1.22 
   7  20  -5    4.02    1.88 
  -7 -20   5    4.27    1.31 
  -6 -20   5    3.33    1.15 
   6  20  -5    2.49    1.49 
  -5 -20   5    4.96    1.24 
   5  20  -5    6.71    1.81 
   4  20  -5    1.75    1.34 
  -4 -20   5    2.52    1.17 
   3  20  -5   24.88    2.64 
  -3 -20   5   25.27    2.35 
  -2 -20   5    2.82    1.15 
   2  20  -5    3.23    1.43 
   1  20  -5   50.55    2.95 
  -1 -20   5   41.91    2.75 
   0 -20   5    0.61    0.86 
   0 -20   5    0.60    0.50 
   1 -20   5   15.52    1.43 
   1 -20   5   14.32    2.00 
   2 -20   5   22.01    2.43 
   2 -20   5   24.40    1.79 
   3 -20   5   -0.31    0.89 
   3 -20   5    0.81    0.85 
   4 -20   5    7.50    1.51 
   4 -20   5    7.68    1.76 
   5 -20   5    2.90    1.25 
   5 -20   5    1.95    1.25 
   6 -20   5   10.25    1.92 
   6 -20   5    5.40    1.83 
   7 -20   5    4.37    1.98 
   7 -20   5    3.70    1.58 
   8 -20   5   -1.02    1.59 
  -8  20  -5   -0.37    2.00 
   9 -20   5    2.42    1.83 
  10  19  -5    1.85    2.40 
  -9 -19   5   10.30    1.80 
   9  19  -5   12.89    3.10 
  -8 -19   5    1.18    1.07 
   8  19  -5    0.54    1.84 
   7  19  -5   -1.52    1.33 
  -7 -19   5   -1.04    0.77 
   6  19  -5    2.17    1.61 
  -6 -19   5    4.63    1.22 
   5  19  -5    0.11    1.21 
  -5 -19   5   -0.39    0.80 
  -4 -19   5   17.25    2.00 
   4  19  -5   13.52    2.18 
  -3 -19   5    1.58    0.88 
   3  19  -5    1.00    1.23 
  -2 -19   5   36.12    2.48 
   2  19  -5   30.43    2.45 
  -1 -19   5   -0.26    0.71 
   1  19  -5   -0.02    1.00 
   0 -19   5   21.32    2.26 
   0 -19   5   22.26    1.36 
   1 -19   5    1.26    0.54 
   1 -19   5    1.58    1.06 
   2 -19   5   38.49    2.66 
   2 -19   5   37.16    2.14 
   3 -19   5   28.07    2.00 
   3 -19   5   29.76    2.78 
   4 -19   5    6.87    1.44 
   4 -19   5    2.37    1.27 
   5 -19   5    2.94    1.17 
   5 -19   5    3.26    1.55 
   6 -19   5    5.38    1.77 
   6 -19   5    7.22    1.65 
   7 -19   5    1.66    1.35 
   7 -19   5    0.06    1.53 
  -8  19  -5    2.70    2.12 
   8 -19   5   -0.89    1.54 
   9 -19   5    2.94    2.09 
  11  18  -5   -0.32    2.64 
  10  18  -5    3.45    2.36 
  -9 -18   5    1.65    1.19 
   9  18  -5    0.82    2.16 
   8  18  -5    3.36    2.08 
  -8 -18   5    3.35    1.20 
   7  18  -5    4.32    1.82 
  -7 -18   5    3.62    1.16 
   6  18  -5    1.68    1.38 
  -6 -18   5    0.81    0.88 
  -5 -18   5    0.08    0.85 
   5  18  -5   -0.18    1.12 
  -4 -18   5    0.28    0.82 
   4  18  -5   -0.13    1.03 
  -3 -18   5   40.75    2.52 
   3  18  -5   39.41    2.82 
   2  18  -5    0.74    1.07 
  -2 -18   5    0.37    0.80 
   1  18  -5   28.98    2.16 
  -1 -18   5   27.60    2.39 
   0 -18   5    8.97    1.59 
   0 -18   5   11.55    1.12 
   1 -18   5    7.17    1.52 
   2 -18   5    4.20    1.23 
   2 -18   5    3.11    0.95 
   3 -18   5   14.94    1.69 
   3 -18   5   10.79    1.84 
   4 -18   5    7.92    1.51 
   4 -18   5    7.43    1.68 
   5 -18   5   10.92    1.98 
   5 -18   5   14.82    1.99 
   6 -18   5    0.29    1.16 
   6 -18   5   -0.05    1.30 
   7 -18   5    2.12    1.44 
   7 -18   5    2.69    1.53 
  -8  18  -5    2.71    1.90 
   8 -18   5    0.24    1.51 
   9 -18   5    1.36    1.95 
  11  17  -5   -1.49    2.22 
  10  17  -5   -1.58    2.02 
  -9 -17   5    5.67    1.46 
   9  17  -5    2.39    1.93 
  -8 -17   5    2.40    1.07 
   8  17  -5    1.95    1.66 
   7  17  -5    4.63    1.87 
  -7 -17   5    2.45    1.09 
  -6 -17   5    1.06    0.87 
   6  17  -5    3.74    1.63 
  -5 -17   5   14.22    1.76 
   5  17  -5   14.31    2.30 
  -4 -17   5   24.96    2.20 
   4  17  -5   22.49    2.63 
   3  17  -5    0.80    0.98 
  -3 -17   5    0.30    0.78 
  -2 -17   5    8.80    1.51 
   2  17  -5    8.60    1.66 
   1  17  -5   -0.35    0.82 
  -1 -17   5    1.62    0.46 
  -1 -17   5   -0.02    0.73 
   0 -17   5   44.40    2.00 
   0 -17   5   39.57    2.58 
   0  17  -5   50.65    2.56 
   1 -17   5    2.29    0.66 
   1 -17   5    3.30    1.08 
   2 -17   5    4.59    1.24 
   2 -17   5    7.93    1.21 
   3 -17   5    6.67    1.30 
   3 -17   5    5.70    1.42 
   4 -17   5    0.83    1.00 
   4 -17   5    0.84    0.91 
   5 -17   5   13.03    1.86 
   5 -17   5   14.25    2.21 
   6 -17   5    8.79    1.89 
   6 -17   5    9.09    1.86 
   7 -17   5    2.88    1.55 
   7 -17   5    3.18    1.73 
   8 -17   5    1.75    1.68 
  -8  17  -5    4.25    1.85 
   9 -17   5    0.51    1.82 
  11  16  -5    0.25    2.22 
  10  16  -5    0.35    2.13 
  -9 -16   5    4.34    1.35 
   9  16  -5    1.22    2.03 
  -8 -16   5    3.44    1.19 
   8  16  -5    5.57    1.99 
   7  16  -5    6.42    1.91 
  -7 -16   5    8.50    1.46 
   6  16  -5    0.43    1.09 
  -6 -16   5    0.90    0.84 
   5  16  -5    1.93    1.20 
  -5 -16   5    1.39    0.82 
   4  16  -5    3.37    1.35 
  -4 -16   5    1.96    0.91 
  -3 -16   5   20.66    1.99 
   3  16  -5   17.87    2.24 
  -2 -16   5    2.19    0.95 
   2  16  -5    2.10    1.07 
   1  16  -5   15.28    1.74 
  -1 -16   5   15.38    1.02 
  -1 -16   5   13.55    1.68 
   0 -16   5    1.17    0.81 
   0  16  -5    2.50    1.02 
   0 -16   5    3.14    0.75 
   1 -16   5   -0.09    0.75 
   1 -16   5    0.37    0.57 
   2 -16   5   15.05    1.53 
   2 -16   5   10.94    1.73 
   3 -16   5    6.21    1.54 
   3 -16   5    5.24    1.19 
   4 -16   5    8.86    1.48 
   4 -16   5    7.76    1.61 
   5 -16   5    0.03    0.93 
   5 -16   5    0.58    1.15 
   6 -16   5    5.27    1.45 
   6 -16   5    6.30    1.78 
   7 -16   5    2.56    1.40 
  -7  16  -5    0.57    1.40 
  -8  16  -5   -0.83    1.38 
   8 -16   5    0.36    1.45 
   9 -16   5   -0.02    1.62 
  10 -16   5    2.86    2.05 
  11  15  -5   -1.55    2.12 
  10  15  -5    3.14    2.28 
  -9 -15   5    4.45    1.35 
   9  15  -5    3.90    2.15 
  -8 -15   5    0.63    0.87 
   8  15  -5    0.83    1.54 
   7  15  -5   23.12    3.08 
  -7 -15   5   28.71    2.12 
   6  15  -5   12.56    2.32 
  -6 -15   5   10.83    1.53 
   5  15  -5   29.55    3.07 
  -5 -15   5   26.30    1.95 
   4  15  -5   40.78    2.94 
  -4 -15   5   39.73    2.39 
  -3 -15   5    1.26    0.79 
   3  15  -5    0.55    1.10 
   2  15  -5    0.81    0.99 
  -2 -15   5    3.46    1.01 
   1  15  -5    0.58    0.85 
  -1 -15   5    0.24    0.70 
   0  15  -5   -0.05    0.75 
   0 -15   5    0.43    0.51 
   0 -15   5    0.01    0.62 
   1 -15   5    1.63    0.92 
   1 -15   5    1.39    0.64 
   2 -15   5   12.16    1.43 
   2 -15   5    9.85    1.57 
   3 -15   5   -0.12    0.68 
   3 -15   5    0.89    0.90 
   4 -15   5   -0.26    0.90 
   4 -15   5    0.02    0.86 
   5 -15   5   13.33    2.10 
   5 -15   5   17.02    2.09 
   6 -15   5    9.87    1.97 
   6 -15   5   11.65    1.88 
   7 -15   5   -0.48    1.11 
  -7  15  -5    0.44    1.27 
   8 -15   5    1.37    1.63 
  -8  15  -5    4.12    1.69 
  -9  15  -5    0.45    1.54 
   9 -15   5    2.31    1.89 
  10 -15   5    2.05    2.14 
  11  14  -5   -0.47    2.32 
  10  14  -5    4.53    2.43 
  -9 -14   5    1.42    1.03 
   9  14  -5    2.23    2.00 
  -8 -14   5    3.85    1.11 
   8  14  -5    5.59    2.16 
   7  14  -5    0.15    1.28 
  -7 -14   5   -0.07    0.75 
  -6 -14   5    0.28    0.69 
   6  14  -5   -0.18    1.11 
   5  14  -5    9.35    1.94 
  -5 -14   5   10.91    1.51 
  -4 -14   5    1.51    0.84 
   4  14  -5    2.58    1.15 
   3  14  -5   11.26    1.87 
  -3 -14   5    8.34    1.35 
  -2 -14   5    1.74    0.80 
   2  14  -5    0.76    0.90 
  -1 -14   5   17.18    1.85 
   1  14  -5   20.90    1.86 
   0 -14   5    7.42    1.33 
   0 -14   5    8.91    1.01 
   0  14  -5    8.87    1.24 
   1 -14   5    4.60    0.92 
  -1  14  -5    3.92    0.83 
   1 -14   5    2.78    1.02 
   2 -14   5    5.96    1.12 
   2 -14   5    4.11    1.12 
   3 -14   5    1.99    1.01 
   3 -14   5    1.31    0.88 
   4 -14   5    6.16    1.53 
   4 -14   5    3.92    1.15 
   5 -14   5   -0.20    0.99 
   5 -14   5    1.68    1.08 
   6 -14   5    0.30    0.99 
   6 -14   5    1.43    1.28 
  -7  14  -5    7.31    1.85 
   7 -14   5    5.40    1.65 
   8 -14   5   -1.11    1.33 
  -8  14  -5    1.43    1.32 
  -9  14  -5    0.65    1.58 
   9 -14   5    0.62    1.67 
  10 -14   5    0.70    1.79 
  11  13  -5   -1.75    2.23 
  10  13  -5    4.19    2.41 
   9  13  -5    7.99    2.43 
  -8 -13   5    0.49    0.90 
   8  13  -5   -0.03    1.24 
  -7 -13   5    0.73    0.75 
   7  13  -5    0.66    1.27 
   6  13  -5    0.60    1.16 
  -6 -13   5    0.66    0.70 
  -5 -13   5   41.19    2.32 
   5  13  -5   43.14    3.18 
  -4 -13   5   16.92    1.72 
   4  13  -5   21.97    2.51 
  -3 -13   5    4.87    1.08 
   3  13  -5    3.14    1.29 
   2  13  -5   11.02    1.60 
  -2 -13   5    6.46    1.22 
  -1 -13   5   23.77    2.00 
   1  13  -5   20.15    1.73 
   0  13  -5   19.07    1.51 
   0 -13   5   17.79    1.84 
   0 -13   5   20.17    1.31 
  -1  13  -5    0.80    0.61 
   1 -13   5    0.60    0.72 
   1 -13   5    0.58    0.59 
   2 -13   5    5.45    1.10 
   2 -13   5    2.20    0.99 
   3 -13   5    1.16    0.83 
   3 -13   5    0.98    0.92 
   4 -13   5   34.90    2.28 
   4 -13   5   35.24    2.90 
   5 -13   5   19.23    2.13 
   5 -13   5   15.62    2.20 
   6 -13   5    1.53    1.24 
   6 -13   5    3.08    1.25 
  -7  13  -5    0.40    1.28 
   7 -13   5    0.13    1.18 
   8 -13   5    3.30    1.76 
  -8  13  -5    6.06    1.77 
   9 -13   5    0.02    1.67 
  -9  13  -5    0.77    1.48 
  10 -13   5    3.88    2.30 
  12  12  -5    0.89    2.68 
  11  12  -5   -0.87    2.23 
  10  12  -5   -0.06    1.93 
   9  12  -5   -0.34    1.48 
  -8 -12   5    0.28    0.75 
   8  12  -5   -1.55    1.07 
  -7 -12   5    6.26    1.23 
   7  12  -5    5.70    1.85 
   6  12  -5    9.32    2.12 
  -6 -12   5   11.09    1.40 
  -5 -12   5   31.81    1.99 
   5  12  -5   33.34    3.25 
  -4 -12   5    2.22    0.83 
   4  12  -5    3.31    1.36 
   3  12  -5   10.16    1.78 
  -3 -12   5   11.76    1.43 
   2  12  -5    2.07    1.02 
  -2 -12   5    2.74    0.84 
  -1 -12   5    1.20    0.74 
   1  12  -5    3.68    1.00 
   0  12  -5   52.89    2.43 
   0 -12   5   53.48    2.71 
   0 -12   5   53.67    2.19 
   1 -12   5   28.92    2.28 
   1 -12   5   27.81    1.68 
  -1  12  -5   27.81    1.52 
   2 -12   5    0.54    0.79 
   2 -12   5    0.60    0.68 
   3 -12   5   13.43    1.59 
   3 -12   5    9.37    1.62 
   4 -12   5   12.19    1.67 
   4 -12   5   10.85    1.83 
   5 -12   5   38.87    2.84 
   5 -12   5   42.07    2.66 
   6 -12   5    9.73    1.74 
  -7  12  -5    4.32    1.43 
   7 -12   5    3.07    1.40 
   8 -12   5    2.29    1.61 
  -8  12  -5   -0.54    1.12 
   9 -12   5    3.13    1.89 
  -9  12  -5    1.61    1.41 
  10 -12   5    3.62    2.36 
  12  11  -5   -0.88    2.50 
  11  11  -5   -0.07    2.11 
  10  11  -5    0.57    1.99 
   9  11  -5    4.58    2.05 
  -8 -11   5    0.07    0.73 
   8  11  -5    1.23    1.56 
  -7 -11   5   15.01    1.62 
   7  11  -5   14.65    2.52 
   6  11  -5    6.86    1.79 
  -6 -11   5    9.05    1.28 
   5  11  -5    4.22    1.44 
  -5 -11   5    3.31    1.00 
   4  11  -5   18.86    2.46 
  -4 -11   5   20.64    1.71 
   3  11  -5    3.65    1.31 
  -3 -11   5    2.97    0.89 
  -2 -11   5   19.72    1.73 
   2  11  -5   18.57    1.99 
  -1 -11   5    0.80    0.78 
   1  11  -5    1.42    0.89 
   0  11  -5    0.15    0.68 
   0 -11   5    0.47    0.63 
   0 -11   5   -0.14    0.43 
   1 -11   5    0.60    0.76 
   1 -11   5    0.46    0.60 
  -1  11  -5   -0.26    0.53 
   2 -11   5   -0.11    0.75 
   2 -11   5    0.90    0.69 
   3 -11   5    7.61    1.44 
   3 -11   5    8.45    1.35 
   4 -11   5    2.65    1.06 
   4 -11   5    3.46    1.25 
   5 -11   5    3.33    1.22 
   5 -11   5    1.81    1.24 
  -6  11  -5    7.16    1.72 
   6 -11   5    9.52    1.74 
   7 -11   5    1.18    1.23 
  -7  11  -5    2.06    1.19 
   8 -11   5    5.99    1.83 
  -8  11  -5    6.56    1.69 
  -9  11  -5    0.39    1.34 
   9 -11   5   -0.01    1.65 
  10 -11   5    0.97    2.04 
  12  10  -5    0.86    2.52 
  11  10  -5    1.75    2.49 
  10  10  -5    0.77    1.94 
   9  10  -5    6.05    2.20 
  -8 -10   5    4.54    1.13 
   8  10  -5    6.20    1.99 
   7  10  -5    7.72    1.98 
  -7 -10   5    7.02    1.19 
  -6 -10   5   13.59    1.43 
   6  10  -5   13.85    2.39 
   5  10  -5   29.66    3.06 
  -5 -10   5   30.99    1.91 
   4  10  -5   39.88    3.04 
  -4 -10   5   40.88    2.16 
   3  10  -5    0.67    1.05 
   3  10  -5    2.65    0.44 
  -3 -10   5    2.93    0.86 
  -2 -10   5    3.59    0.97 
   2  10  -5    2.71    1.12 
   1  10  -5    1.35    0.79 
  -1 -10   5    2.01    0.78 
   0 -10   5   10.52    1.41 
   0  10  -5   10.19    1.22 
  -1  10  -5   65.36    2.43 
   1 -10   5   64.13    2.60 
   1 -10   5   63.25    3.03 
   2 -10   5    2.23    0.98 
   2 -10   5    1.75    0.76 
   3 -10   5    0.17    0.71 
   3 -10   5    1.94    1.05 
   4 -10   5   41.30    2.45 
   4 -10   5   34.74    2.51 
   5 -10   5    1.78    1.17 
   5 -10   5    1.36    1.02 
  -6  10  -5    5.24    1.54 
   6 -10   5    6.33    1.52 
  -7  10  -5   12.09    1.96 
   7 -10   5    8.50    1.82 
  -8  10  -5   -0.37    1.04 
   8 -10   5   -1.53    1.14 
   9 -10   5    3.45    1.98 
  -9  10  -5    4.28    1.63 
  10 -10   5    0.80    2.03 
  12   9  -5    2.75    2.46 
  11   9  -5    0.80    2.17 
  10   9  -5    3.63    2.24 
   9   9  -5    8.92    2.43 
   8   9  -5    6.60    2.17 
   7   9  -5    1.38    1.39 
  -7  -9   5    0.69    0.59 
  -6  -9   5   93.31    3.43 
   6   9  -5   89.47    4.98 
  -5  -9   5   47.43    2.31 
   5   9  -5   43.15    3.28 
  -4  -9   5   15.44    1.47 
   4   9  -5   13.48    0.76 
   4   9  -5   10.94    2.08 
  -3  -9   5   11.53    1.34 
   3   9  -5    8.66    0.69 
   3   9  -5    9.52    1.74 
   2   9  -5    1.85    1.06 
  -2  -9   5    3.49    0.85 
   1   9  -5   60.83    2.99 
  -1  -9   5   63.19    2.78 
   0  -9   5   18.04    1.72 
   0   9  -5   21.17    1.55 
   1  -9   5   16.28    1.43 
  -1   9  -5   13.03    1.12 
   1  -9   5   17.76    1.84 
   2  -9   5    1.43    0.90 
   2  -9   5    1.45    0.76 
   3  -9   5   13.48    1.54 
   3  -9   5   14.61    1.93 
   4  -9   5    1.43    0.97 
   4  -9   5    1.84    0.92 
   5  -9   5    8.26    1.56 
   5  -9   5    8.68    1.75 
  -6   9  -5   11.92    1.94 
   6  -9   5   11.24    1.88 
   7  -9   5    8.42    1.76 
  -7   9  -5    9.93    1.84 
   8  -9   5    3.79    1.69 
  -8   9  -5    6.43    1.66 
  -9   9  -5    0.98    1.45 
   9  -9   5   -0.36    1.60 
 -10   9  -5    1.41    1.65 
  10  -9   5    2.86    2.14 
  12   8  -5    0.69    2.42 
  11   8  -5    3.02    2.29 
  10   8  -5   -0.49    1.72 
   9   8  -5    9.15    2.46 
  -8  -8   5    7.51    1.10 
   8   8  -5    6.80    2.23 
  -7  -8   5    0.90    0.40 
   7   8  -5   -1.82    1.15 
   6   8  -5   48.93    3.63 
  -6  -8   5   46.13    2.25 
   5   8  -5  160.11    6.72 
   5   8  -5  154.11    3.85 
  -5  -8   5  143.56    4.71 
   4   8  -5   34.99    1.30 
   4   8  -5   33.96    3.14 
  -4  -8   5   33.53    1.90 
   3   8  -5    9.23    0.76 
   3   8  -5    9.77    1.81 
  -3  -8   5   11.42    1.28 
   2   8  -5  147.13    5.56 
  -2  -8   5  136.23    4.56 
  -1  -8   5    4.67    1.01 
   1   8  -5    4.05    1.09 
   0  -8   5    3.01    0.91 
   0   8  -5    4.51    1.01 
  -1   8  -5  125.96    4.10 
   1  -8   5  120.93    4.51 
   1  -8   5  131.68    4.15 
   2  -8   5    4.00    0.94 
   2  -8   5    3.44    1.10 
   3  -8   5    3.22    1.10 
   3  -8   5    3.71    1.03 
   4  -8   5   20.72    1.98 
   4  -8   5   20.31    2.22 
  -5   8  -5    1.49    1.05 
   5  -8   5    2.15    1.08 
  -6   8  -5    2.61    1.21 
   6  -8   5    2.82    1.23 
   7  -8   5    8.06    1.78 
  -7   8  -5    4.37    1.47 
  -8   8  -5    0.92    1.09 
   8  -8   5    0.93    1.38 
   9  -8   5    8.26    2.21 
  -9   8  -5    4.28    1.68 
  10  -8   5    0.46    1.99 
 -10   8  -5   -0.90    1.39 
  12   7  -5    0.82    2.38 
  11   7  -5    2.58    2.19 
  10   7  -5    2.99    2.01 
   9   7  -5    3.90    1.89 
   8   7  -5    1.69    1.53 
   7   7  -5   16.86    2.84 
  -7  -7   5   17.52    1.48 
   6   7  -5   28.18    1.31 
   6   7  -5   26.12    3.14 
  -5  -7   5    5.07    0.93 
   5   7  -5    3.78    0.58 
   5   7  -5    4.46    1.53 
   4   7  -5  161.19    6.70 
   4   7  -5  164.86    4.22 
  -4  -7   5  167.97    5.01 
  -3  -7   5  100.20    3.50 
   3   7  -5   94.33    4.53 
   3   7  -5   98.16    2.85 
   2   7  -5    4.35    1.31 
  -2  -7   5    3.38    0.86 
  -1  -7   5   13.92    1.44 
   1   7  -5   12.66    1.62 
   0   7  -5    0.83    0.76 
   0  -7   5    1.23    0.71 
   1  -7   5    2.00    0.77 
  -1   7  -5    0.65    0.62 
   1  -7   5    2.46    0.88 
   2  -7   5   18.94    1.64 
   2  -7   5   20.45    2.04 
   3  -7   5    8.96    1.53 
   3  -7   5    9.10    1.39 
   4  -7   5   -0.24    0.82 
   4  -7   5    2.22    0.88 
   5  -7   5   10.31    1.67 
  -5   7  -5    9.77    1.71 
  -6   7  -5   20.62    2.28 
   6  -7   5   20.02    2.28 
   7  -7   5    6.54    1.68 
  -7   7  -5    4.03    1.29 
  -8   7  -5    1.90    1.27 
   8  -7   5    2.53    1.58 
  -9   7  -5    0.99    1.26 
   9  -7   5    3.82    1.88 
  10  -7   5    2.86    2.09 
 -10   7  -5    4.64    1.79 
  11  -7   5    1.14    2.25 
  12   6  -5    3.02    2.46 
  11   6  -5    6.81    2.60 
  10   6  -5    0.93    1.93 
   9   6  -5    0.05    1.44 
   8   6  -5   16.36    3.00 
   7   6  -5    7.97    2.15 
  -7  -6   5    5.80    0.95 
   6   6  -5    0.39    1.19 
   6   6  -5    0.30    0.56 
  -6  -6   5    1.81    0.68 
   5   6  -5   40.66    1.53 
   5   6  -5   36.50    3.04 
  -4  -6   5   12.31    1.25 
   4   6  -5   11.15    2.06 
   4   6  -5   12.47    0.89 
   3   6  -5  154.82    4.17 
   3   6  -5  157.88    6.26 
  -3  -6   5  157.82    4.80 
   2   6  -5   21.07    2.22 
  -2  -6   5   16.66    1.48 
  -1  -6   5   20.11    1.68 
   1   6  -5   25.07    2.15 
   0  -6   5   67.71    2.97 
   0   6  -5   66.29    3.04 
  -1   6  -5   59.89    2.59 
   1  -6   5   60.34    2.87 
   2  -6   5   21.80    1.74 
   2  -6   5   19.34    1.98 
   3  -6   5   14.26    1.58 
   3  -6   5    9.66    1.62 
   4  -6   5   18.19    2.14 
   4  -6   5   16.36    1.79 
  -5   6  -5   14.96    1.97 
   5  -6   5   19.12    2.09 
   6  -6   5    6.16    1.49 
  -6   6  -5   13.14    1.84 
   7  -6   5    9.24    1.82 
  -7   6  -5    8.86    1.67 
  -8   6  -5    1.06    1.26 
   8  -6   5    0.42    1.33 
  -9   6  -5    5.62    1.65 
   9  -6   5    6.09    2.05 
 -10   6  -5    1.69    1.57 
  10  -6   5    1.71    2.15 
  11  -6   5   -0.21    2.10 
  12   5  -5   -1.70    2.36 
  11   5  -5    0.10    1.96 
  10   5  -5    5.65    2.23 
   9   5  -5    2.01    1.82 
   8   5  -5    1.75    1.71 
   7   5  -5   37.10    4.00 
  -7  -5   5   41.55    1.97 
   7   5  -5   41.15    1.84 
   6   5  -5   81.26    2.56 
  -6  -5   5   78.24    2.90 
   6   5  -5   70.38    4.50 
   5   5  -5   12.41    0.91 
   5   5  -5   12.00    2.32 
  -5  -5   5   13.73    1.20 
  -4  -5   5   29.00    1.60 
   4   5  -5   27.66    2.92 
   4   5  -5   27.30    1.30 
   3   5  -5    0.41    1.14 
   3   5  -5    2.70    0.58 
  -3  -5   5    2.62    0.74 
  -2  -5   5   34.08    1.85 
   2   5  -5   34.29    2.56 
   1   5  -5    5.09    1.31 
  -1  -5   5    3.84    0.94 
   0  -5   5  107.08    3.91 
   1  -5   5   40.09    2.30 
   2  -5   5   79.09    3.51 
   2  -5   5   89.53    3.36 
   3  -5   5    9.31    1.53 
   3  -5   5   11.72    1.47 
   4  -5   5    1.50    0.88 
  -4   5  -5    1.63    0.98 
   5  -5   5   -0.32    0.76 
  -5   5  -5    0.24    0.74 
   6  -5   5   34.53    2.79 
  -6   5  -5   32.94    2.45 
   7  -5   5    9.65    1.80 
  -7   5  -5   10.10    1.82 
  -8   5  -5    2.55    1.29 
   8  -5   5    5.90    1.75 
  -9   5  -5   -0.21    1.12 
   9  -5   5    0.78    1.69 
 -10   5  -5   -0.39    1.37 
  10  -5   5    2.06    2.06 
  11  -5   5   -0.48    2.16 
  12   4  -5   -0.19    2.09 
  11   4  -5    3.38    2.42 
  10   4  -5    0.98    1.55 
   9   4  -5    2.06    1.61 
   8   4  -5    4.51    2.04 
  -7  -4   5   78.24    2.79 
   7   4  -5   73.78    4.85 
   7   4  -5   74.53    2.69 
   6   4  -5    0.05    0.55 
   6   4  -5    2.13    1.39 
  -6  -4   5    2.15    0.65 
   5   4  -5   53.94    1.96 
   5   4  -5   50.28    3.69 
  -5  -4   5   53.94    2.21 
   4   4  -5    7.58    1.86 
   4   4  -5    7.08    0.78 
   3   4  -5   45.88    3.15 
   3   4  -5   47.33    1.85 
  -3  -4   5   47.48    2.13 
   2   4  -5   96.12    4.34 
  -2  -4   5   99.00    3.42 
  -1  -4   5  158.99    4.96 
   0  -4   5   19.37    1.70 
   1  -4   5  117.90    4.29 
   2  -4   5   13.15    1.67 
   2  -4   5   13.25    1.49 
   3  -4   5    9.40    1.56 
   3  -4   5   10.23    1.43 
  -4   4  -5   11.29    1.70 
   4  -4   5   10.70    1.54 
   5  -4   5    4.66    1.26 
  -5   4  -5    3.18    1.13 
  -6   4  -5    2.81    1.18 
   6  -4   5    2.05    1.18 
  -7   4  -5   37.52    2.71 
   7  -4   5   42.32    2.97 
  -8   4  -5    6.03    1.61 
   8  -4   5    8.44    1.97 
  -9   4  -5    7.82    1.77 
   9  -4   5    9.59    2.39 
 -10   4  -5   -0.05    1.35 
  10  -4   5    1.72    1.95 
  11  -4   5    0.53    2.20 
  12   3  -5    5.40    2.74 
  11   3  -5    1.45    1.98 
  10   3  -5    5.87    2.28 
   9   3  -5    1.91    1.82 
   8   3  -5   11.58    2.70 
   8   3  -5   12.18    1.32 
   7   3  -5   30.93    3.66 
   7   3  -5   29.45    1.80 
   6   3  -5   29.23    1.49 
   6   3  -5   38.79    3.76 
  -6  -3   5   34.68    1.67 
  -5  -3   5    2.20    0.61 
   5   3  -5    2.91    1.67 
   5   3  -5    2.66    0.63 
   4   3  -5   44.67    1.79 
   4   3  -5   47.63    3.39 
  -4  -3   5   42.73    1.95 
   3   3  -5  166.09    4.43 
   3   3  -5  154.11    6.30 
  -3  -3   5  155.69    4.66 
  -2  -3   5   20.39    1.57 
  -1  -3   5  162.27    5.01 
   0  -3   5  128.08    4.37 
   1  -3   5    6.00    1.19 
   2  -3   5   33.80    2.18 
  -3   3  -5   -0.44    0.73 
   3  -3   5    0.78    0.73 
   4  -3   5   27.58    2.03 
  -4   3  -5   30.80    2.14 
  -5   3  -5    2.76    1.05 
   5  -3   5    3.32    1.10 
  -6   3  -5   11.11    1.75 
   6  -3   5    7.43    1.54 
  -7   3  -5    2.95    1.24 
   7  -3   5    2.76    1.25 
  -8   3  -5   32.71    2.87 
   8  -3   5   28.46    3.12 
  -9   3  -5    1.57    1.36 
   9  -3   5    3.22    1.85 
  10  -3   5   -0.03    1.91 
 -10   3  -5    0.50    1.38 
  11  -3   5    0.31    2.23 
 -11   3  -5    0.66    1.62 
  12   2  -5    2.18    2.57 
  11   2  -5    1.05    1.89 
  10   2  -5    1.16    1.72 
   9   2  -5    1.57    1.73 
   8   2  -5    0.92    0.89 
   8   2  -5    3.10    1.84 
   7   2  -5   61.84    4.43 
   7   2  -5   67.63    2.59 
   6   2  -5    9.92    1.03 
  -6  -2   5   10.78    1.00 
   6   2  -5    7.25    2.03 
   5   2  -5  101.38    5.31 
  -5  -2   5   93.85    3.11 
   5   2  -5  100.19    3.09 
   4   2  -5   12.68    2.29 
   4   2  -5   12.61    1.05 
  -4  -2   5   13.81    1.14 
   3   2  -5   64.95    2.33 
  -2  -2   5  371.45    9.47 
  -1  -2   5   44.86    2.17 
   0  -2   5  190.58    5.76 
   1  -2   5   32.68    2.06 
   2  -2   5   16.79    1.81 
   3  -2   5   47.97    2.51 
  -3   2  -5   45.59    2.59 
   4  -2   5    2.78    0.98 
  -4   2  -5    2.54    0.97 
   5  -2   5   -0.85    0.77 
  -5   2  -5   -0.56    0.67 
   6  -2   5    1.08    1.08 
  -6   2  -5    2.15    1.03 
  -7   2  -5   26.58    2.58 
   7  -2   5   27.36    2.80 
  -8   2  -5    5.15    1.55 
   8  -2   5    7.50    1.93 
   9  -2   5    6.52    2.08 
  -9   2  -5    8.05    1.91 
  10  -2   5   -3.23    1.76 
 -10   2  -5   -0.13    1.31 
 -11   2  -5   -0.01    1.70 
  11  -2   5   -0.69    2.11 
  12   1  -5    0.99    2.42 
  11   1  -5    0.32    1.94 
  10   1  -5    6.63    2.43 
   9   1  -5    3.10    1.17 
   9   1  -5    1.94    1.83 
   8   1  -5   27.93    3.74 
   8   1  -5   28.54    1.84 
   7   1  -5   10.06    2.25 
   7   1  -5    9.46    1.19 
   6   1  -5   51.36    2.12 
  -6  -1   5   55.71    2.04 
   6   1  -5   53.68    3.94 
  -5  -1   5    6.99    0.82 
   5   1  -5    6.32    1.94 
   5   1  -5    4.35    0.77 
   4   1  -5   51.80    2.05 
  -4  -1   5   50.49    2.02 
   3   1  -5   21.84    1.33 
  -3  -1   5   22.74    1.38 
  -2  -1   5    2.82    0.79 
  -1  -1   5    1.15    0.66 
   0  -1   5    2.09    0.82 
   1  -1   5  232.92    6.80 
  -2   1  -5  286.98    8.10 
  -3   1  -5   55.95    2.87 
   4  -1   5   12.28    1.66 
  -4   1  -5   11.57    1.61 
   5  -1   5   -0.41    0.79 
  -5   1  -5    0.24    0.79 
   6  -1   5    9.84    1.75 
  -6   1  -5    9.26    1.68 
  -7   1  -5    2.85    1.28 
   7  -1   5    2.85    1.46 
   8  -1   5    4.97    1.80 
  -8   1  -5    4.35    1.39 
   9  -1   5   -1.45    1.60 
  -9   1  -5    1.31    1.33 
  10  -1   5    2.13    2.15 
 -10   1  -5    2.40    1.58 
  11  -1   5    0.83    2.11 
 -11   1  -5   -1.02    1.65 
  12   0  -5   -0.21    2.31 
  11   0  -5    5.28    2.42 
  10   0  -5   -0.91    1.89 
   9   0  -5    0.86    1.63 
   9   0  -5   -0.79    0.96 
   8   0  -5    1.20    0.92 
   8   0  -5   -0.60    1.52 
   7   0  -5   99.52    3.39 
   7   0  -5   96.26    5.61 
   6   0  -5    0.08    1.21 
   6   0  -5    0.79    0.69 
  -6   0   5    0.37    0.38 
  -5   0   5  137.80    3.86 
   5   0  -5  122.31    6.11 
   5   0  -5  139.60    4.05 
  -4   0   5    0.64    0.42 
   4   0  -5    0.69    0.52 
  -3   0   5   26.28    1.43 
   3   0  -5   22.37    1.38 
  -2   0   5    0.47    0.51 
  -1   0   5   -0.69    0.52 
   0   0   5   -0.81    0.59 
   1   0   5    2.14    0.98 
  -2   0  -5    0.85    0.85 
  -3   0  -5  231.03    7.00 
  -4   0  -5    0.17    0.70 
   4   0   5   -1.17    0.68 
   5   0   5    8.70    1.59 
  -5   0  -5   10.79    1.68 
   6   0   5    1.10    1.11 
  -6   0  -5   -0.10    0.86 
   7   0   5   22.66    2.62 
  -7   0  -5   21.99    2.41 
   8   0   5    0.50    1.37 
  -8   0  -5   -1.47    0.90 
  -9   0  -5    0.34    1.24 
   9   0   5    3.94    1.94 
 -10   0  -5    0.59    1.40 
  10   0   5    1.05    2.06 
 -11   0  -5    2.66    1.87 
  11   0   5    2.42    2.31 
  12  -1  -5    1.49    2.31 
  11  -1  -5    1.12    2.12 
  10  -1  -5    6.40    1.58 
  10  -1  -5    3.71    2.15 
   9  -1  -5    3.34    2.08 
   9  -1  -5    0.57    1.05 
   8  -1  -5   29.62    3.76 
   8  -1  -5   25.90    1.91 
   7  -1  -5   11.94    2.65 
   7  -1  -5   10.58    1.30 
   6  -1  -5   55.31    2.28 
   6  -1  -5   50.61    3.90 
  -5   1   5    6.33    0.69 
   5  -1  -5    6.13    0.95 
   4  -1  -5   51.25    2.14 
  -4   1   5   51.99    1.95 
   3  -1  -5   22.32    1.38 
  -3   1   5   23.80    1.33 
  -2   1   5    0.28    0.32 
  -1   1   5    1.78    0.68 
   0   1   5    2.73    0.86 
  -1  -1  -5  229.54    6.65 
  -2  -1  -5  294.21    8.22 
  -3  -1  -5   53.51    2.78 
  -4  -1  -5   12.43    1.64 
  -5  -1  -5    1.18    0.89 
   5   1   5    1.86    1.06 
   6   1   5    7.64    1.65 
  -6  -1  -5    6.31    1.43 
   7   1   5    4.85    1.55 
  -7  -1  -5    3.38    1.31 
  -8  -1  -5    6.74    1.64 
   8   1   5    7.53    2.00 
   9   1   5    3.92    2.00 
  -9  -1  -5    2.82    1.41 
 -10  -1  -5    1.53    1.55 
  10   1   5    1.49    2.16 
 -11  -1  -5   -1.17    1.58 
  11   1   5   -2.29    2.06 
  12  -2  -5    1.28    2.39 
  11  -2  -5    3.14    2.33 
  10  -2  -5   -0.22    1.61 
  10  -2  -5    2.18    1.36 
   9  -2  -5   -0.79    0.90 
   9  -2  -5   -1.47    1.43 
   8  -2  -5    3.36    1.80 
   8  -2  -5   -0.02    0.89 
   7  -2  -5   62.39    4.59 
   7  -2  -5   67.68    2.81 
   6  -2  -5    8.21    1.11 
   6  -2  -5    7.20    2.00 
  -5   2   5  100.09    2.88 
   5  -2  -5  100.15    3.33 
   4  -2  -5   13.33    1.22 
  -4   2   5   15.72    0.94 
   3  -2  -5   66.39    2.52 
  -3   2   5   64.87    2.30 
   2  -2  -5  370.33    9.31 
  -1   2   5   45.99    2.11 
   0  -2  -5  192.43    5.62 
  -1  -2  -5   31.70    1.94 
  -2  -2  -5   16.67    1.70 
  -3  -2  -5   48.85    2.58 
  -4  -2  -5    2.03    0.89 
  -5  -2  -5   -0.44    0.77 
   6   2   5    1.67    1.19 
  -6  -2  -5    1.17    0.92 
  -7  -2  -5   29.35    2.67 
   7   2   5   29.72    2.98 
   8   2   5    3.46    1.76 
  -8  -2  -5    4.89    1.44 
   9   2   5    4.79    2.02 
  -9  -2  -5    7.28    1.79 
  10   2   5    0.41    2.16 
 -10  -2  -5   -2.45    1.22 
 -11  -2  -5    1.63    1.72 
  12  -3  -5    0.55    2.40 
  11  -3  -5   -1.76    1.99 
  10  -3  -5    1.56    1.21 
  10  -3  -5    5.44    2.40 
   9  -3  -5    3.59    1.16 
   9  -3  -5    3.42    1.87 
   8  -3  -5    9.76    1.40 
   8  -3  -5    9.05    2.62 
   7  -3  -5   30.68    2.04 
   7  -3  -5   32.04    3.85 
   6  -3  -5   32.04    1.81 
   5  -3  -5    2.45    0.71 
   4  -3  -5   42.32    2.00 
  -4   3   5   42.24    1.55 
  -3   3   5  160.79    4.41 
   3  -3  -5  164.48    4.78 
   2  -3  -5   17.53    1.41 
   1  -3  -5  166.24    4.87 
   0  -3  -5  129.47    4.19 
  -1  -3  -5    7.66    1.16 
  -2  -3  -5   29.59    1.92 
  -3  -3  -5   -0.45    0.64 
  -4  -3  -5   25.52    2.16 
  -5  -3  -5    2.71    0.98 
  -6  -3  -5   11.91    1.80 
  -7  -3  -5    0.69    1.02 
  -8  -3  -5   25.89    2.63 
  -9  -3  -5    0.77    1.21 
 -10  -3  -5   -3.30    1.19 
 -11  -3  -5   -0.88    1.55 
  12  -4  -5   -0.38    2.44 
  11  -4  -5    5.74    1.85 
  11  -4  -5    5.51    2.69 
  10  -4  -5    1.01    1.76 
  10  -4  -5    0.43    1.21 
   9  -4  -5    0.18    0.97 
   9  -4  -5    4.05    2.19 
   8  -4  -5    1.85    0.99 
   8  -4  -5    1.79    1.77 
   7  -4  -5   66.95    4.76 
   7  -4  -5   72.38    2.89 
   6  -4  -5    1.36    0.74 
   5  -4  -5   52.29    2.29 
   4  -4  -5    7.67    1.05 
   3  -4  -5   44.75    1.78 
   3  -4  -5   47.04    2.12 
   2  -4  -5  102.95    3.47 
   2  -4  -5   99.28    3.19 
   1  -4  -5  160.59    4.68 
   0  -4  -5   18.54    1.48 
  -1  -4  -5  113.69    3.93 
  -2  -4  -5   12.60    1.47 
  -3  -4  -5   10.07    1.46 
  -4  -4  -5    8.60    1.44 
  -5  -4  -5    4.80    1.27 
  -6  -4  -5    3.95    1.32 
  -7  -4  -5   43.85    2.90 
  -8  -4  -5    8.58    1.69 
  -9  -4  -5    6.01    1.64 
 -10  -4  -5    1.32    1.51 
 -11  -4  -5    0.70    1.65 
  12  -5  -5    2.69    2.89 
  11  -5  -5    1.12    2.24 
  11  -5  -5    2.43    1.52 
  10  -5  -5    2.69    2.11 
  10  -5  -5    2.68    1.35 
   9  -5  -5    3.59    1.97 
   9  -5  -5    3.64    1.20 
   8  -5  -5    3.10    1.03 
   8  -5  -5    0.27    1.61 
   7  -5  -5   39.12    2.13 
   7  -5  -5   40.63    4.08 
   6  -5  -5   78.09    3.01 
   5  -5  -5   12.27    1.28 
   4  -5  -5   23.99    1.02 
   4  -5  -5   26.07    1.62 
   3  -5  -5    2.05    0.52 
   3  -5  -5    3.06    0.79 
   2  -5  -5   31.07    1.77 
   2  -5  -5   32.69    1.55 
   1  -5  -5    3.38    0.78 
   0  -5  -5  103.46    3.53 
  -1  -5  -5   33.49    1.93 
  -2  -5  -5   92.54    3.60 
  -3  -5  -5    9.64    1.41 
  -4  -5  -5    1.62    0.84 
  -5  -5  -5   -0.19    0.79 
  -6  -5  -5   34.85    2.52 
  -7  -5  -5   10.65    1.81 
  -8  -5  -5    6.03    1.63 
  -9  -5  -5    0.33    1.27 
 -10  -5  -5    1.50    1.51 
 -11  -5  -5   -0.64    1.52 
  12  -6  -5    0.30    2.55 
  11  -6  -5    8.98    1.94 
  11  -6  -5    4.52    2.64 
  10  -6  -5   -0.85    1.64 
  10  -6  -5   -0.41    1.12 
   9  -6  -5    1.51    1.94 
   9  -6  -5    1.23    1.10 
   8  -6  -5   14.83    3.18 
   8  -6  -5   15.72    1.69 
   7  -6  -5    8.03    1.27 
   6  -6  -5    0.99    0.78 
   5  -6  -5   42.74    2.13 
   4  -6  -5   13.90    1.38 
   3  -6  -5  156.85    4.19 
   3  -6  -5  163.69    4.88 
   2  -6  -5   17.74    1.14 
   1  -6  -5   23.99    1.43 
   0  -6  -5   62.08    2.55 
  -1  -6  -5   70.41    2.88 
  -2  -6  -5   20.58    1.77 
  -3  -6  -5   10.39    1.42 
  -4  -6  -5   16.21    1.82 
  -5  -6  -5   15.79    1.92 
  -6  -6  -5   12.26    1.87 
  -7  -6  -5   11.75    1.92 
  -8  -6  -5    1.22    1.24 
  -9  -6  -5    7.34    1.83 
 -10  -6  -5    1.44    1.50 
 -11  -6  -5    1.55    1.74 
  12  -7  -5   -0.40    2.43 
  12  -7  -5    3.18    1.77 
  11  -7  -5   -0.18    1.51 
  11  -7  -5    3.38    2.46 
  10  -7  -5    4.26    2.22 
  10  -7  -5    1.56    1.20 
   9  -7  -5    3.81    1.22 
   9  -7  -5    3.93    2.36 
   8  -7  -5   -0.33    1.77 
   8  -7  -5   -0.20    0.85 
   7  -7  -5   15.01    1.56 
   6  -7  -5   27.08    1.79 
   5  -7  -5    5.18    1.02 
   4  -7  -5  165.02    5.07 
   3  -7  -5   97.14    2.83 
   3  -7  -5  107.64    3.64 
   2  -7  -5    3.93    0.68 
   2  -7  -5    3.60    0.85 
   1  -7  -5   11.94    1.10 
   0  -7  -5    1.14    0.61 
  -1  -7  -5    0.99    0.64 
  -2  -7  -5   17.33    1.66 
  -3  -7  -5    9.36    1.39 
  -4  -7  -5    1.10    0.81 
  -5  -7  -5    8.62    1.54 
  -6  -7  -5   21.28    2.25 
  -7  -7  -5    6.52    1.57 
  -8  -7  -5    1.63    1.23 
  -9  -7  -5    2.62    1.43 
 -10  -7  -5    2.57    1.65 
 -11  -7  -5    0.00    1.56 
  12  -8  -5   -1.54    2.39 
  12  -8  -5   -0.39    1.56 
  11  -8  -5    5.38    2.67 
  11  -8  -5    5.44    1.77 
  10  -8  -5    0.85    1.22 
  10  -8  -5   -0.19    1.82 
   9  -8  -5   12.49    1.74 
   9  -8  -5    5.19    2.42 
   8  -8  -5    9.67    2.23 
   8  -8  -5    9.58    1.45 
   7  -8  -5    0.89    0.79 
   6  -8  -5   46.98    2.37 
   5  -8  -5  153.39    4.86 
   4  -8  -5   33.91    1.99 
   3  -8  -5    8.67    0.74 
   3  -8  -5    9.77    1.25 
   2  -8  -5  150.15    4.15 
   2  -8  -5  150.23    4.75 
   1  -8  -5    4.10    0.76 
   0  -8  -5    4.10    0.83 
  -1  -8  -5  135.09    4.39 
  -2  -8  -5    3.67    0.98 
  -3  -8  -5    3.78    0.99 
  -4  -8  -5   18.18    1.87 
  -5  -8  -5    4.92    1.24 
  -6  -8  -5    4.04    1.28 
  -7  -8  -5    5.21    1.48 
  -8  -8  -5    2.39    1.31 
  -9  -8  -5    3.53    1.51 
 -10  -8  -5    0.88    1.53 
  12  -9  -5    1.65    2.76 
  12  -9  -5    3.20    1.87 
  11  -9  -5   -0.41    2.33 
  11  -9  -5    1.93    1.54 
  10  -9  -5    1.22    1.26 
  10  -9  -5   -0.05    2.12 
   9  -9  -5    6.78    1.50 
   9  -9  -5   10.26    2.97 
   8  -9  -5    7.54    1.39 
   7  -9  -5   -1.31    0.71 
   6  -9  -5   89.74    3.49 
   5  -9  -5   41.36    2.20 
   4  -9  -5   15.78    1.56 
   3  -9  -5    9.53    1.27 
   3  -9  -5   10.05    0.75 
   2  -9  -5    2.74    0.62 
   2  -9  -5    2.07    0.82 
   1  -9  -5   61.18    2.70 
   1  -9  -5   61.74    2.31 
   0  -9  -5   19.59    1.38 
  -1  -9  -5   19.26    1.59 
  -2  -9  -5    2.45    0.84 
  -3  -9  -5   12.28    1.52 
  -4  -9  -5    1.99    0.91 
  -5  -9  -5   10.16    1.65 
  -6  -9  -5   10.43    1.75 
  -7  -9  -5   10.46    1.81 
  -8  -9  -5    9.11    1.86 
  -9  -9  -5   -0.53    1.33 
 -10  -9  -5    1.65    1.53 
  12 -10  -5    4.58    3.06 
  12 -10  -5    1.61    1.73 
  11 -10  -5   -1.72    1.38 
  11 -10  -5   -1.75    2.10 
  10 -10  -5    0.37    2.15 
  10 -10  -5    1.94    1.37 
   9 -10  -5    4.23    1.34 
   9 -10  -5    3.21    2.43 
   8 -10  -5    4.63    1.25 
   7 -10  -5    4.79    1.11 
   6 -10  -5   11.68    1.48 
   5 -10  -5   30.65    1.90 
   4 -10  -5   36.68    2.12 
   3 -10  -5    2.88    0.87 
   3 -10  -5    2.28    0.46 
   2 -10  -5    3.11    0.62 
   2 -10  -5    4.59    0.99 
   1 -10  -5    1.72    0.76 
   1 -10  -5   -0.06    0.49 
   0 -10  -5    9.38    1.12 
  -1 -10  -5   67.81    2.79 
  -2 -10  -5    2.51    0.87 
  -3 -10  -5    1.55    0.79 
  -4 -10  -5   45.70    2.62 
  -5 -10  -5    2.57    1.08 
  -6 -10  -5    3.22    1.19 
  -7 -10  -5    9.00    1.70 
  -8 -10  -5    0.88    1.23 
  -9 -10  -5    4.47    1.59 
 -10 -10  -5    0.30    1.56 
  12 -11  -5    0.09    1.71 
  12 -11  -5   -2.61    2.71 
  11 -11  -5    1.93    1.70 
  11 -11  -5    4.20    2.76 
  10 -11  -5   -1.53    2.05 
  10 -11  -5    2.23    1.42 
   9 -11  -5    7.23    1.57 
   9 -11  -5    5.56    2.60 
   8 -11  -5   -0.81    0.84 
   7 -11  -5   17.04    1.78 
   6 -11  -5    7.00    1.26 
   5 -11  -5    2.96    0.88 
   4 -11  -5   17.82    1.67 
   3 -11  -5    1.50    0.75 
   3 -11  -5    1.89    0.46 
   2 -11  -5   18.07    1.67 
   2 -11  -5   18.04    1.07 
   1 -11  -5    1.74    0.75 
   1 -11  -5    1.46    0.59 
   0 -11  -5    1.36    0.66 
  -1 -11  -5    0.37    0.66 
  -2 -11  -5   -0.61    0.64 
  -3 -11  -5   11.71    1.58 
  -4 -11  -5    0.48    0.76 
  -5 -11  -5    2.26    1.06 
  -6 -11  -5    8.94    1.65 
  -7 -11  -5    0.62    1.10 
  -8 -11  -5    6.86    1.64 
  -9 -11  -5   -0.12    1.34 
 -10 -11  -5    4.32    1.85 
  12 -12  -5    0.87    2.96 
  12 -12  -5    1.94    1.84 
  11 -12  -5    2.75    2.61 
  11 -12  -5    4.88    1.80 
  10 -12  -5   -0.37    2.26 
  10 -12  -5    2.05    1.34 
   9 -12  -5    1.63    1.22 
   9 -12  -5    3.01    1.74 
   8 -12  -5    0.18    0.93 
   7 -12  -5    5.34    1.25 
   6 -12  -5    9.24    1.36 
   5 -12  -5   35.66    2.13 
   4 -12  -5    2.95    0.90 
   3 -12  -5   13.55    0.86 
   3 -12  -5   11.02    1.42 
   2 -12  -5    1.86    0.83 
   2 -12  -5    1.86    0.58 
   1 -12  -5    3.84    0.96 
   1 -12  -5    3.04    0.71 
   0 -12  -5   55.78    2.33 
  -1 -12  -5   29.23    1.76 
  -2 -12  -5   -0.68    0.62 
  -3 -12  -5   10.67    1.50 
  -4 -12  -5   10.57    1.60 
  -5 -12  -5   38.46    2.54 
  -6 -12  -5    7.29    1.61 
  -7 -12  -5    2.82    1.30 
  -8 -12  -5   -0.16    1.10 
  -9 -12  -5    0.05    1.35 
 -10 -12  -5   -0.30    1.46 
  11 -13  -5    2.98    1.80 
  11 -13  -5    1.53    2.73 
  10 -13  -5    4.31    2.79 
  10 -13  -5    2.25    1.48 
   9 -13  -5    9.06    1.75 
   8 -13  -5    0.89    1.01 
   7 -13  -5    0.42    0.87 
   6 -13  -5    0.61    0.80 
   5 -13  -5   48.14    2.53 
   4 -13  -5   21.56    1.88 
   3 -13  -5    2.93    0.85 
   3 -13  -5    4.53    0.61 
   2 -13  -5    8.84    1.29 
   2 -13  -5   10.21    0.90 
   1 -13  -5   19.71    1.25 
   1 -13  -5   22.01    1.84 
   0 -13  -5   17.75    1.74 
   0 -13  -5   19.21    1.46 
  -1 -13  -5    0.68    0.67 
  -2 -13  -5    3.44    0.93 
  -3 -13  -5    0.54    0.79 
  -4 -13  -5   37.05    2.36 
  -5 -13  -5   15.69    1.98 
  -6 -13  -5    4.24    1.33 
  -7 -13  -5    0.93    1.09 
  -8 -13  -5    2.14    1.45 
  -9 -13  -5   -0.86    1.20 
 -10 -13  -5    0.43    1.69 
  11 -14  -5    0.29    2.76 
  11 -14  -5    0.13    1.59 
  10 -14  -5    5.87    3.02 
  10 -14  -5    7.28    1.92 
   9 -14  -5    4.06    1.49 
   8 -14  -5    4.22    1.24 
   7 -14  -5    0.16    0.86 
   6 -14  -5    0.26    0.79 
   5 -14  -5   12.28    1.58 
   4 -14  -5    2.58    0.95 
   3 -14  -5    9.75    0.82 
   3 -14  -5    6.85    1.19 
   2 -14  -5    1.99    0.84 
   2 -14  -5    2.74    0.64 
   1 -14  -5   19.91    1.81 
   1 -14  -5   19.64    1.27 
   0 -14  -5    7.98    1.07 
   0 -14  -5    8.02    1.32 
  -1 -14  -5    5.31    0.98 
  -2 -14  -5    4.30    1.03 
  -3 -14  -5    1.61    0.93 
  -4 -14  -5    6.02    1.29 
  -5 -14  -5    0.75    0.97 
  -6 -14  -5    1.23    1.11 
  -7 -14  -5    5.54    1.58 
  -8 -14  -5    0.78    1.31 
  -9 -14  -5   -0.24    1.44 
 -10 -14  -5   -1.72    1.45 
  11 -15  -5   -2.10    2.63 
  11 -15  -5    1.19    1.72 
  10 -15  -5   -1.33    2.47 
  10 -15  -5    1.24    1.44 
   9 -15  -5    7.59    1.72 
   8 -15  -5   -0.82    1.00 
   7 -15  -5   28.18    2.32 
   6 -15  -5   10.76    1.55 
   5 -15  -5   24.43    2.07 
   4 -15  -5   42.01    2.40 
   3 -15  -5    2.08    0.86 
   3 -15  -5    2.34    0.60 
   2 -15  -5    0.85    0.73 
   2 -15  -5    2.91    0.70 
   1 -15  -5    0.17    0.64 
   1 -15  -5    1.25    0.61 
   0 -15  -5    1.28    0.70 
   0 -15  -5    1.08    0.74 
  -1 -15  -5    0.46    0.70 
  -2 -15  -5   12.87    1.50 
  -3 -15  -5    0.65    0.84 
  -4 -15  -5   -0.68    0.82 
  -5 -15  -5   16.00    2.01 
  -6 -15  -5   13.45    2.02 
  -7 -15  -5    0.55    1.17 
  -8 -15  -5    0.30    1.32 
  -9 -15  -5    1.51    1.47 
 -10 -15  -5    0.59    1.47 
  11 -16  -5   -1.32    3.07 
  11 -16  -5    1.08    1.63 
  10 -16  -5    2.44    1.59 
  10 -16  -5    0.39    2.83 
   9 -16  -5    1.84    1.35 
   8 -16  -5    2.25    1.27 
   7 -16  -5    6.63    1.42 
   6 -16  -5    2.71    1.02 
   5 -16  -5    2.12    0.96 
   4 -16  -5    1.85    0.96 
   3 -16  -5   21.30    1.20 
   3 -16  -5   19.85    1.89 
   2 -16  -5    1.92    0.88 
   2 -16  -5    2.79    0.72 
   1 -16  -5   14.97    1.66 
   1 -16  -5   14.75    1.25 
   0 -16  -5    2.00    0.85 
   0 -16  -5    1.98    0.78 
  -1 -16  -5    0.92    0.75 
  -2 -16  -5   15.95    1.66 
  -3 -16  -5    4.04    1.19 
  -4 -16  -5    5.97    1.40 
  -5 -16  -5    0.93    0.95 
  -6 -16  -5    5.22    1.42 
  -7 -16  -5    1.98    1.43 
  -8 -16  -5   -0.04    1.22 
  -9 -16  -5   -0.55    1.38 
 -10 -16  -5    5.09    1.89 
  11 -17  -5    0.30    1.60 
  10 -17  -5    1.92    1.58 
  10 -17  -5    0.30    2.26 
   9 -17  -5    5.45    1.63 
   8 -17  -5    3.33    1.32 
   7 -17  -5    4.89    1.34 
   6 -17  -5    1.84    1.03 
   5 -17  -5   14.33    1.76 
   4 -17  -5   21.36    2.04 
   3 -17  -5   -0.18    0.49 
   3 -17  -5    0.80    0.85 
   2 -17  -5   10.20    1.50 
   2 -17  -5   11.19    1.08 
   1 -17  -5    0.94    0.84 
   1 -17  -5    1.53    0.69 
   0 -17  -5   43.84    2.52 
   0 -17  -5   46.78    2.18 
  -1 -17  -5    4.45    1.07 
  -1 -17  -5    5.19    1.22 
  -2 -17  -5    6.28    1.24 
  -3 -17  -5    4.90    1.22 
  -4 -17  -5    0.86    1.00 
  -5 -17  -5   13.60    1.88 
  -6 -17  -5   11.64    1.89 
  -7 -17  -5    1.36    1.22 
  -8 -17  -5    1.98    1.48 
  -9 -17  -5   -0.04    1.50 
  11 -18  -5    0.11    1.67 
  10 -18  -5    4.08    1.83 
  10 -18  -5    4.70    2.10 
   9 -18  -5    0.90    1.39 
   8 -18  -5    4.64    1.49 
   7 -18  -5    3.38    1.28 
   6 -18  -5    0.43    0.88 
   5 -18  -5    3.04    1.06 
   4 -18  -5    0.53    0.92 
   3 -18  -5   46.71    2.64 
   3 -18  -5   44.35    1.89 
   2 -18  -5    0.77    0.68 
   2 -18  -5    0.38    0.72 
   1 -18  -5   29.96    1.69 
   1 -18  -5   31.87    2.14 
   0 -18  -5    9.83    1.28 
   0 -18  -5    9.45    1.50 
  -1 -18  -5    5.81    1.27 
  -1 -18  -5    6.67    1.23 
  -2 -18  -5    3.91    1.10 
  -3 -18  -5   14.60    1.74 
  -4 -18  -5    9.00    1.57 
  -5 -18  -5   14.30    1.93 
  -6 -18  -5    2.94    1.38 
  -7 -18  -5    3.52    1.48 
  -8 -18  -5    1.27    1.43 
  -9 -18  -5   -1.01    1.44 
  10 -19  -5    0.03    1.54 
   9 -19  -5   12.16    2.09 
   8 -19  -5   -0.09    1.17 
   7 -19  -5    0.92    1.01 
   6 -19  -5    3.43    1.18 
   5 -19  -5   -0.81    0.87 
   4 -19  -5   16.40    1.89 
   3 -19  -5    0.31    0.89 
   2 -19  -5   36.30    2.36 
   2 -19  -5   37.92    1.87 
   1 -19  -5    1.03    0.73 
   1 -19  -5    0.36    0.83 
   0 -19  -5   21.00    1.69 
   0 -19  -5   18.46    1.95 
  -1 -19  -5    0.89    0.75 
  -1 -19  -5    2.38    0.97 
  -2 -19  -5   45.19    2.47 
  -3 -19  -5   29.99    2.12 
  -4 -19  -5    5.87    1.30 
  -5 -19  -5    1.09    1.04 
  -6 -19  -5    5.44    1.52 
  -7 -19  -5    0.39    1.17 
  -8 -19  -5    0.29    1.35 
  -9 -19  -5   -1.22    1.42 
  10 -20  -5   -0.72    1.57 
   9 -20  -5    0.72    1.43 
   8 -20  -5    2.12    1.42 
   7 -20  -5    4.02    1.33 
   6 -20  -5    0.10    0.93 
   5 -20  -5    7.66    1.47 
   4 -20  -5    2.54    1.05 
   3 -20  -5   24.05    2.20 
   2 -20  -5    2.91    0.86 
   2 -20  -5    2.26    0.96 
   1 -20  -5   42.99    2.58 
   1 -20  -5   44.74    2.15 
   0 -20  -5    1.03    0.82 
   0 -20  -5    1.40    0.80 
  -1 -20  -5   15.24    1.59 
  -1 -20  -5   17.15    1.94 
  -2 -20  -5   26.22    2.31 
  -2 -20  -5   24.95    2.08 
  -3 -20  -5    1.26    0.94 
  -4 -20  -5    4.99    1.33 
  -5 -20  -5    0.64    1.07 
  -6 -20  -5    5.54    1.59 
  -7 -20  -5    1.51    1.35 
  -8 -20  -5    0.67    1.44 
  -9 -20  -5    0.84    1.64 
  10 -21  -5   -1.78    1.54 
   9 -21  -5    1.12    1.56 
   8 -21  -5    1.17    1.43 
   7 -21  -5    7.50    1.60 
   6 -21  -5    2.16    1.17 
   5 -21  -5    2.20    1.22 
   4 -21  -5    9.23    1.59 
   3 -21  -5    0.06    0.94 
   2 -21  -5   19.47    1.56 
   2 -21  -5   16.98    1.96 
   1 -21  -5    0.64    0.88 
   1 -21  -5    1.81    0.87 
   0 -21  -5   78.94    3.13 
   0 -21  -5   73.72    3.49 
  -1 -21  -5   13.39    1.80 
  -1 -21  -5    9.90    1.44 
  -2 -21  -5    2.74    1.14 
  -2 -21  -5    1.13    0.85 
  -3 -21  -5   10.14    1.57 
  -4 -21  -5    1.42    1.12 
  -5 -21  -5    3.88    1.33 
  -6 -21  -5    1.95    1.32 
  -7 -21  -5    4.09    1.60 
  -8 -21  -5    1.02    1.50 
  -9 -21  -5   -0.13    1.47 
  10 -22  -5   -1.08    1.62 
   9 -22  -5   -0.25    1.55 
   8 -22  -5    5.73    1.79 
   7 -22  -5    4.35    1.49 
   6 -22  -5    4.45    1.43 
   5 -22  -5   17.96    2.15 
   4 -22  -5    2.25    1.09 
   3 -22  -5    0.36    0.91 
   2 -22  -5    3.55    0.99 
   2 -22  -5    1.69    1.04 
   1 -22  -5   30.39    2.41 
   1 -22  -5   24.36    1.77 
   0 -22  -5    7.24    1.25 
   0 -22  -5    7.68    1.43 
  -1 -22  -5   32.55    2.07 
  -1 -22  -5   34.07    2.35 
  -2 -22  -5   25.75    2.35 
  -2 -22  -5   24.39    2.13 
  -3 -22  -5    1.71    1.05 
  -3 -22  -5    0.94    1.13 
  -4 -22  -5   12.28    1.84 
  -5 -22  -5    2.61    1.27 
  -6 -22  -5    2.47    1.42 
  -7 -22  -5    0.46    1.40 
  -8 -22  -5    1.46    1.63 
   9 -23  -5    4.67    1.95 
   8 -23  -5    3.35    1.76 
   7 -23  -5    2.38    1.35 
   6 -23  -5    3.10    1.40 
   5 -23  -5    0.46    1.10 
   4 -23  -5   -0.37    0.89 
   3 -23  -5   -1.54    0.82 
   2 -23  -5   28.99    1.79 
   2 -23  -5   29.50    2.54 
   1 -23  -5    1.41    1.01 
   1 -23  -5    0.56    0.91 
   0 -23  -5   11.08    1.69 
   0 -23  -5   13.26    1.55 
  -1 -23  -5   18.82    1.84 
  -1 -23  -5   19.34    2.10 
  -2 -23  -5    9.49    1.71 
  -2 -23  -5   10.07    1.52 
  -3 -23  -5   33.61    2.39 
  -3 -23  -5   34.19    2.52 
  -4 -23  -5    1.17    1.11 
  -5 -23  -5    4.30    1.53 
  -6 -23  -5   -0.32    1.19 
  -7 -23  -5    3.70    1.68 
  -8 -23  -5   -0.08    1.53 
   9 -24  -5   -1.57    1.71 
   8 -24  -5    9.39    2.19 
   7 -24  -5    2.32    1.39 
   6 -24  -5    0.15    1.16 
   5 -24  -5   -1.55    0.92 
   4 -24  -5    1.05    1.05 
   3 -24  -5    2.12    1.10 
   2 -24  -5   -0.07    0.92 
   1 -24  -5    7.11    1.49 
   1 -24  -5    8.72    1.41 
   0 -24  -5    7.23    1.49 
   0 -24  -5    8.48    1.38 
  -1 -24  -5    9.70    1.66 
  -1 -24  -5    9.37    1.49 
  -2 -24  -5   16.26    2.03 
  -2 -24  -5   13.38    1.80 
  -3 -24  -5    5.28    1.40 
  -3 -24  -5    4.30    1.24 
  -4 -24  -5   10.93    1.92 
  -4 -24  -5    8.29    1.73 
  -5 -24  -5    0.33    1.20 
  -6 -24  -5    3.44    1.61 
  -7 -24  -5    2.65    1.67 
  -8 -24  -5   -0.73    1.42 
   9 -25  -5    2.71    1.93 
   8 -25  -5    0.95    1.60 
   7 -25  -5    3.00    1.70 
   6 -25  -5    0.94    1.29 
   5 -25  -5    0.48    1.13 
   4 -25  -5    2.98    1.29 
   3 -25  -5    1.45    1.10 
   2 -25  -5   13.06    1.93 
   1 -25  -5    3.78    1.22 
   1 -25  -5    5.25    1.27 
   0 -25  -5   18.37    1.87 
   0 -25  -5   19.50    2.13 
  -1 -25  -5    6.21    1.46 
  -1 -25  -5    4.58    1.23 
  -2 -25  -5    0.98    1.02 
  -2 -25  -5    0.97    1.14 
  -3 -25  -5   17.93    2.21 
  -3 -25  -5   14.79    1.95 
  -4 -25  -5    3.21    1.35 
  -4 -25  -5    0.50    1.13 
  -5 -25  -5    9.19    1.93 
  -6 -25  -5    2.13    1.48 
  -7 -25  -5   -0.49    1.42 
   9 -26  -5    4.42    2.07 
   8 -26  -5    1.74    1.70 
   7 -26  -5   -0.99    1.36 
   6 -26  -5    0.07    1.21 
   5 -26  -5    0.73    1.12 
   4 -26  -5    2.53    1.22 
   3 -26  -5    2.73    1.22 
   2 -26  -5    0.54    0.89 
   1 -26  -5    7.73    1.56 
   1 -26  -5    6.17    1.38 
   0 -26  -5   13.13    1.73 
   0 -26  -5   14.19    1.92 
  -1 -26  -5    8.68    1.64 
  -1 -26  -5    6.67    1.39 
  -2 -26  -5    4.97    1.37 
  -2 -26  -5    5.11    1.35 
  -3 -26  -5    1.19    1.19 
  -3 -26  -5    1.95    1.28 
  -4 -26  -5    6.76    1.65 
  -4 -26  -5    7.21    1.73 
  -5 -26  -5    1.56    1.42 
  -6 -26  -5    2.54    1.66 
  -7 -26  -5   -0.05    1.49 
   8 -27  -5   -0.71    1.58 
   7 -27  -5   -0.27    1.46 
   6 -27  -5   -1.27    1.16 
   5 -27  -5    4.75    1.51 
   4 -27  -5    0.41    1.08 
   3 -27  -5    0.80    1.01 
   2 -27  -5    0.96    1.04 
   1 -27  -5    4.76    1.36 
   1 -27  -5    2.87    1.26 
   0 -27  -5    5.68    1.34 
   0 -27  -5    6.48    1.53 
  -1 -27  -5    6.17    1.41 
  -1 -27  -5    5.78    1.46 
  -2 -27  -5    2.05    1.21 
  -2 -27  -5    5.20    1.50 
  -3 -27  -5    7.81    1.67 
  -3 -27  -5    9.59    1.80 
  -4 -27  -5   -0.89    1.34 
  -4 -27  -5   -0.63    1.16 
  -5 -27  -5   10.52    2.06 
  -6 -27  -5   -0.29    1.48 
  -7 -27  -5    2.78    1.70 
   8 -28  -5   -0.42    1.75 
   7 -28  -5    1.66    1.65 
   6 -28  -5    4.32    1.66 
   5 -28  -5    0.07    1.18 
   4 -28  -5    0.72    1.25 
   3 -28  -5   -0.63    1.05 
   2 -28  -5   -1.38    0.89 
   1 -28  -5    1.00    1.11 
   1 -28  -5    0.61    1.24 
   0 -28  -5    6.66    1.49 
   0 -28  -5   10.31    1.77 
  -1 -28  -5    5.17    1.51 
  -1 -28  -5    6.48    1.49 
  -2 -28  -5    7.81    1.66 
  -2 -28  -5    4.47    1.44 
  -3 -28  -5    1.55    1.27 
  -3 -28  -5    0.41    1.21 
  -4 -28  -5   11.59    2.15 
  -5 -28  -5   -0.29    1.35 
  -6 -28  -5    1.87    1.60 
   7 -29  -5    1.37    1.76 
   6 -29  -5    2.12    1.63 
   5 -29  -5   -0.24    1.34 
   4 -29  -5   -0.83    1.06 
   3 -29  -5    0.31    1.13 
   2 -29  -5    0.14    0.99 
   1 -29  -5    2.73    1.34 
   0 -29  -5    0.32    1.08 
   0 -29  -5    2.36    1.31 
  -1 -29  -5   10.32    1.80 
  -1 -29  -5    9.73    1.74 
  -2 -29  -5    0.01    1.17 
  -2 -29  -5    2.12    1.32 
  -3 -29  -5    5.16    1.62 
  -3 -29  -5    4.13    1.59 
  -4 -29  -5   -0.02    1.32 
  -5 -29  -5    0.96    1.53 
  -6 -29  -5   -0.59    1.38 
   7 -30  -5    0.97    1.72 
   6 -30  -5    2.20    1.60 
   5 -30  -5    1.00    1.38 
   4 -30  -5   -1.70    1.07 
   3 -30  -5   -0.24    1.15 
   2 -30  -5    0.88    1.23 
   1 -30  -5    2.79    1.33 
   0 -30  -5    0.26    1.24 
   0 -30  -5    1.90    1.36 
  -1 -30  -5    0.04    1.23 
  -1 -30  -5    0.54    1.18 
  -2 -30  -5   12.97    2.04 
  -2 -30  -5   12.12    2.05 
  -3 -30  -5    0.27    1.36 
  -4 -30  -5    7.14    1.96 
  -5 -30  -5    3.05    1.66 
  -6 -30  -5    1.33    1.69 
   6 -31  -5    2.15    1.50 
   5 -31  -5   -0.78    1.33 
   4 -31  -5    2.16    1.44 
   3 -31  -5   -0.29    1.23 
   2 -31  -5   -1.87    1.05 
   1 -31  -5    0.46    1.26 
   0 -31  -5    4.28    1.64 
   0 -31  -5    1.72    1.38 
  -1 -31  -5    4.44    1.53 
  -1 -31  -5    7.30    1.77 
  -2 -31  -5   -0.60    1.28 
  -2 -31  -5    1.37    1.45 
  -3 -31  -5    6.12    1.80 
  -4 -31  -5    2.78    1.65 
  -5 -31  -5    1.26    1.57 
   6 -32  -5    6.21    2.08 
   5 -32  -5    1.03    1.44 
   4 -32  -5   -0.94    1.19 
   3 -32  -5   -0.36    1.39 
   2 -32  -5   -0.32    1.22 
   1 -32  -5    0.11    1.28 
   0 -32  -5    0.73    1.42 
   0 -32  -5    2.38    1.54 
  -1 -32  -5    0.55    1.39 
  -1 -32  -5    0.81    1.44 
  -2 -32  -5    5.65    1.89 
  -3 -32  -5    1.42    1.54 
  -4 -32  -5    7.74    2.13 
   5 -33  -5    3.67    1.72 
   4 -33  -5    0.84    1.51 
   3 -33  -5   -1.81    1.25 
   2 -33  -5   -1.42    1.33 
   1 -33  -5   -0.46    1.29 
   0 -33  -5    0.43    1.37 
  -1 -33  -5    2.76    1.61 
  -1 -33  -5    4.67    1.79 
  -2 -33  -5    1.25    1.51 
  -3 -33  -5    4.00    1.88 
  -4 -33  -5    3.06    1.77 
   4 -34  -5    1.80    1.56 
   3 -34  -5   -0.64    1.35 
   2 -34  -5    0.13    1.46 
   1 -34  -5   -1.18    1.36 
   0 -34  -5   -0.97    1.57 
  -1 -34  -5   -0.07    1.48 
  -2 -34  -5    4.66    1.82 
  -3 -34  -5    0.56    1.53 
   3 -35  -5    0.66    1.58 
   2 -35  -5   -2.23    1.31 
   1 -35  -5    1.51    1.60 
   0 -35  -5    2.61    1.58 
  -1 -35  -5    2.32    1.66 
  -2 -35  -5    1.94    1.72 
   2 -36  -5   -0.21    1.49 
   1 -36  -5   -0.84    1.54 
  -1 -35   6    0.94    2.00 
  -3 -34   6    2.75    2.05 
  -2 -34   6   -1.20    1.67 
  -1 -34   6    3.16    2.19 
   0 -34   6    1.66    1.95 
   1 -34   6   -0.35    1.84 
  -4 -33   6    1.42    1.79 
  -3 -33   6    1.43    1.73 
  -2 -33   6    1.20    1.93 
  -1 -33   6   -0.80    1.60 
   0 -33   6    1.85    2.02 
   1 -33   6   -0.68    1.85 
   2 -33   6    1.68    1.90 
   3 -33   6   -0.24    1.94 
  -5 -32   6   -2.59    1.39 
  -4 -32   6   -0.03    1.54 
  -3 -32   6    1.15    1.59 
  -2 -32   6    0.37    1.67 
  -1 -32   6    7.73    2.34 
   0 -32   6    1.48    1.91 
   1 -32   6    1.86    2.04 
   2 -32   6    4.83    2.02 
   3 -32   6   -1.85    1.74 
  -6 -31   6   -0.46    1.42 
  -5 -31   6   -0.94    1.53 
  -4 -31   6    1.06    1.48 
  -3 -31   6    0.20    1.59 
  -2 -31   6    0.35    1.68 
  -1 -31   6   -1.10    1.61 
   0 -31   6   15.81    2.76 
   1 -31   6    0.67    1.73 
   2 -31   6    0.58    1.71 
   3 -31   6   -0.74    1.88 
   4 -31   6    1.62    2.03 
  -6 -30   6   -0.26    1.43 
  -5 -30   6   -0.13    1.47 
  -4 -30   6    2.17    1.62 
  -3 -30   6    1.88    1.59 
  -2 -30   6    0.36    1.50 
  -1 -30   6    8.79    2.37 
   0 -30   6   -0.06    1.49 
   1 -30   6    5.43    2.16 
   2 -30   6    1.76    1.83 
   3 -30   6   -1.39    1.54 
   4 -30   6   -0.41    1.65 
   5 -30   6   -0.49    1.84 
   7  29  -6    1.74    2.43 
  -7 -29   6   -0.54    1.58 
   6  29  -6    0.85    2.32 
  -6 -29   6    0.20    1.44 
  -5 -29   6   -1.85    1.17 
  -4 -29   6    1.81    1.50 
  -3 -29   6    2.00    1.58 
  -2 -29   6    3.58    1.66 
  -1 -29   6    0.32    1.52 
   0 -29   6    8.60    2.26 
   1 -29   6    0.15    1.48 
   2 -29   6    7.61    2.15 
   3 -29   6   -0.91    1.48 
   4 -29   6   -1.00    1.55 
   5 -29   6    1.70    2.04 
   7  28  -6   -1.82    2.15 
  -7 -28   6    2.47    1.76 
   6  28  -6    0.06    2.03 
  -6 -28   6    2.36    1.60 
   5  28  -6    4.11    2.36 
  -5 -28   6    0.45    1.48 
  -4 -28   6   -0.04    1.28 
  -3 -28   6   -0.49    1.34 
  -2 -28   6    1.47    1.39 
  -1 -28   6   11.73    2.36 
   0 -28   6    0.80    1.50 
   1 -28   6    8.48    2.14 
   2 -28   6    0.53    1.68 
   3 -28   6   -1.13    1.43 
   4 -28   6    2.06    1.86 
   5 -28   6    1.23    1.73 
   5 -28   6   -1.61    1.55 
   6 -28   6    0.77    2.05 
   6 -28   6    0.74    1.93 
   8  27  -6    3.83    2.56 
  -8 -27   6    1.70    1.56 
  -7 -27   6    4.10    1.60 
   7  27  -6    2.08    2.12 
  -6 -27   6    0.47    1.40 
   6  27  -6    1.21    1.92 
  -5 -27   6    1.79    1.33 
   5  27  -6    1.36    1.88 
  -4 -27   6    0.30    1.24 
   4  27  -6    0.18    1.73 
  -3 -27   6   -0.03    1.27 
  -2 -27   6    4.41    1.64 
  -1 -27   6    0.14    1.36 
   0 -27   6   12.03    2.34 
   1 -27   6   -0.29    1.26 
   2 -27   6   -0.86    1.25 
   3 -27   6    0.68    1.58 
   4 -27   6   -0.23    1.59 
   5 -27   6    1.89    1.82 
   5 -27   6    0.81    1.62 
   6 -27   6    1.92    2.02 
   6 -27   6   -0.14    1.86 
  -8 -26   6    0.41    1.40 
   8  26  -6    3.39    2.48 
   7  26  -6    4.83    2.48 
  -7 -26   6    2.24    1.50 
  -6 -26   6    2.58    1.47 
   6  26  -6    3.98    2.18 
  -5 -26   6   -1.00    1.06 
   5  26  -6    2.43    1.69 
  -4 -26   6    5.01    1.72 
   4  26  -6    3.42    1.65 
   3  26  -6    2.94    1.71 
  -3 -26   6    5.00    1.61 
  -2 -26   6    1.09    1.31 
  -1 -26   6    4.88    1.55 
   0 -26   6    1.90    1.31 
   1 -26   6    9.08    2.09 
   2 -26   6    0.38    1.35 
   3 -26   6   -0.22    1.35 
   4 -26   6    3.43    1.80 
   4 -26   6    2.90    1.45 
   5 -26   6   -0.24    1.43 
   5 -26   6    0.30    1.69 
   6 -26   6    2.85    1.93 
   6 -26   6   -0.57    1.63 
  -8 -25   6    1.71    1.48 
   8  25  -6   -0.41    2.07 
  -7 -25   6    0.79    1.27 
   7  25  -6   -0.49    1.98 
   6  25  -6    2.42    1.99 
  -6 -25   6    3.40    1.56 
  -5 -25   6    7.42    1.80 
   5  25  -6   10.51    2.38 
  -4 -25   6    0.30    1.13 
   4  25  -6    2.51    1.65 
   3  25  -6    1.57    1.56 
  -3 -25   6    0.97    1.11 
  -2 -25   6   17.55    2.48 
  -1 -25   6    2.53    1.41 
   0 -25   6    3.59    1.49 
   1 -25   6    1.41    1.30 
   2 -25   6    2.17    1.42 
   3 -25   6    0.76    1.41 
   4 -25   6    0.17    1.16 
   4 -25   6    0.41    1.41 
   5 -25   6    1.56    1.64 
   5 -25   6    1.24    1.44 
   6 -25   6   -0.74    1.71 
   6 -25   6    0.61    1.69 
   7 -25   6   -1.08    1.85 
   7 -25   6    2.00    1.95 
  -9 -24   6   -0.64    1.37 
   9  24  -6    1.29    2.27 
  -8 -24   6    2.62    1.64 
   8  24  -6    3.69    2.37 
   7  24  -6    1.05    1.83 
  -7 -24   6    1.39    1.26 
   6  24  -6    1.83    1.78 
  -6 -24   6    1.30    1.28 
   5  24  -6    4.86    1.78 
  -5 -24   6    5.13    1.59 
  -4 -24   6   10.88    1.89 
   4  24  -6   18.41    2.64 
  -3 -24   6    4.16    1.50 
   3  24  -6    4.01    1.57 
  -2 -24   6   -0.46    0.86 
   2  24  -6    0.57    1.52 
  -1 -24   6    4.30    1.59 
   0 -24   6   -0.41    0.99 
   1 -24   6    9.87    2.03 
   2 -24   6    2.16    1.50 
   3 -24   6    1.01    1.28 
   3 -24   6    2.12    1.20 
   4 -24   6    5.42    1.45 
   4 -24   6    3.29    1.65 
   5 -24   6    0.99    1.59 
   5 -24   6    1.43    1.39 
   6 -24   6    0.42    1.67 
   6 -24   6   -0.83    1.79 
   7 -24   6    1.97    2.03 
   7 -24   6   -2.36    1.77 
   9  23  -6    1.83    2.32 
  -9 -23   6   -0.92    1.25 
   8  23  -6   -0.44    2.02 
  -8 -23   6   -0.14    1.21 
  -7 -23   6   11.11    2.07 
   7  23  -6    7.75    2.56 
  -6 -23   6    3.07    1.49 
   6  23  -6    1.24    1.50 
  -5 -23   6    0.97    1.08 
   5  23  -6    3.71    1.53 
   4  23  -6    4.10    1.53 
  -4 -23   6    4.32    1.43 
   3  23  -6    3.41    1.50 
  -3 -23   6    2.16    1.12 
   2  23  -6   -0.17    1.24 
  -2 -23   6   -0.08    1.00 
  -1 -23   6    2.87    1.30 
   0 -23   6    5.21    1.49 
   1 -23   6    0.21    1.06 
   2 -23   6    2.57    1.29 
   2 -23   6    4.77    1.30 
   3 -23   6    9.24    1.65 
   3 -23   6    6.06    1.77 
   4 -23   6   -0.92    1.29 
   4 -23   6    0.52    1.15 
   5 -23   6    0.40    1.42 
   5 -23   6   -0.13    1.35 
   6 -23   6   -0.56    1.56 
   6 -23   6    1.60    1.75 
   7 -23   6   -0.48    1.79 
   7 -23   6    4.46    2.00 
  -9 -22   6    1.08    1.41 
   9  22  -6   -1.45    2.04 
   8  22  -6    0.00    1.95 
  -8 -22   6    0.10    1.19 
  -7 -22   6    0.77    1.07 
   7  22  -6   -1.30    1.54 
  -6 -22   6    8.26    1.77 
   6  22  -6    6.04    1.91 
   5  22  -6    3.44    1.56 
  -5 -22   6    2.35    1.27 
  -4 -22   6    2.86    1.24 
   4  22  -6    0.98    1.27 
  -3 -22   6   16.45    2.23 
   3  22  -6   17.63    2.42 
   2  22  -6    2.63    1.55 
  -2 -22   6    0.98    0.96 
  -1 -22   6    0.39    0.98 
   0 -22   6    1.69    1.21 
   1 -22   6    5.17    1.42 
   2 -22   6    2.06    1.22 
   2 -22   6    1.33    0.96 
   3 -22   6    6.16    1.36 
   3 -22   6    7.46    1.76 
   4 -22   6    8.71    2.09 
   4 -22   6    8.58    1.69 
   5 -22   6    2.34    1.39 
   5 -22   6    2.55    1.69 
   6 -22   6    1.33    1.58 
   6 -22   6    0.03    1.68 
   7 -22   6    1.78    2.13 
   7 -22   6    2.13    1.80 
   8 -22   6    2.33    1.95 
  10  21  -6   -0.17    2.37 
  -9 -21   6    1.57    1.40 
   9  21  -6    4.01    2.53 
  -8 -21   6    1.04    1.24 
   8  21  -6    3.30    2.22 
  -7 -21   6    2.18    1.26 
   7  21  -6    2.34    2.02 
  -6 -21   6   -0.49    0.93 
   6  21  -6    2.96    1.73 
  -5 -21   6   22.30    2.43 
   5  21  -6   23.98    3.06 
   4  21  -6   13.92    2.30 
  -4 -21   6   14.19    2.09 
   3  21  -6   11.44    1.96 
  -3 -21   6    8.65    1.69 
   2  21  -6    4.42    1.60 
  -2 -21   6    3.60    1.29 
   1  21  -6   25.28    2.50 
  -1 -21   6   20.87    2.46 
   0 -21   6    2.16    1.20 
   1 -21   6   -0.54    0.92 
   2 -21   6    3.16    1.09 
   2 -21   6    2.25    1.21 
   3 -21   6    3.83    1.28 
   3 -21   6    3.83    1.42 
   4 -21   6    0.16    1.04 
   4 -21   6    2.39    1.33 
   5 -21   6    3.21    1.45 
   5 -21   6    4.99    1.83 
   6 -21   6    0.37    1.32 
   6 -21   6    1.70    1.72 
   7 -21   6    2.79    1.85 
   7 -21   6    1.48    1.81 
  -8  21  -6    0.81    2.71 
   8 -21   6    1.08    1.88 
  10  20  -6    2.61    2.52 
  -9 -20   6   -0.55    1.15 
   9  20  -6   -0.11    2.25 
   8  20  -6   -2.61    1.61 
  -8 -20   6   -1.89    0.91 
  -7 -20   6    1.94    1.17 
   7  20  -6    0.12    1.74 
   6  20  -6    2.78    1.57 
  -6 -20   6    4.90    1.42 
   5  20  -6    2.00    1.37 
  -5 -20   6    3.44    1.17 
  -4 -20   6    0.31    0.91 
   4  20  -6    1.89    1.29 
   3  20  -6   24.50    2.67 
  -3 -20   6   25.92    2.55 
  -2 -20   6    1.02    1.03 
   2  20  -6    2.37    1.31 
  -1 -20   6   16.28    2.15 
   1  20  -6   19.13    2.21 
   0 -20   6   18.26    2.29 
   1 -20   6    0.28    0.59 
   1 -20   6   -0.11    0.80 
   2 -20   6    9.52    1.83 
   2 -20   6   13.11    1.66 
   3 -20   6    1.42    1.20 
   3 -20   6    4.29    1.24 
   4 -20   6    5.56    1.44 
   4 -20   6    4.30    1.52 
   5 -20   6   -0.01    1.29 
   5 -20   6   -0.54    1.14 
   6 -20   6    3.11    1.71 
   6 -20   6    1.77    1.48 
   7 -20   6    1.83    1.75 
   7 -20   6   -1.04    1.60 
  -8  20  -6   -0.67    2.38 
   8 -20   6    1.11    1.93 
  10  19  -6   -3.02    2.06 
   9  19  -6    1.58    2.26 
  -9 -19   6    5.99    1.62 
   8  19  -6    1.57    2.14 
  -8 -19   6   -0.82    0.91 
   7  19  -6    4.27    1.95 
  -7 -19   6    0.93    1.00 
  -6 -19   6    0.54    0.92 
   6  19  -6    2.53    1.41 
   5  19  -6    2.25    1.27 
  -5 -19   6    0.63    0.90 
   4  19  -6   34.30    2.86 
  -4 -19   6   38.37    2.65 
   3  19  -6   46.03    3.18 
  -3 -19   6   52.81    3.09 
  -2 -19   6   49.89    3.01 
   2  19  -6   45.97    3.04 
  -1 -19   6    1.76    1.10 
   1  19  -6    0.45    1.23 
   0 -19   6    0.70    0.87 
   1 -19   6    0.73    0.53 
   1 -19   6    0.54    0.91 
   2 -19   6   -0.83    0.84 
   2 -19   6    1.09    0.85 
   3 -19   6    6.51    1.34 
   3 -19   6    5.95    1.66 
   4 -19   6    3.82    1.29 
   4 -19   6    4.32    1.55 
   5 -19   6    1.79    1.52 
   5 -19   6    3.93    1.45 
   6 -19   6    4.78    1.68 
   6 -19   6    2.91    1.85 
   7 -19   6    0.53    1.73 
   7 -19   6    0.49    1.82 
  -8  19  -6    1.41    2.32 
   8 -19   6    0.62    1.95 
  10  18  -6   -2.90    2.13 
  -9 -18   6   -0.16    1.15 
   9  18  -6    2.84    2.39 
   8  18  -6    1.05    1.84 
  -8 -18   6    3.21    1.27 
  -7 -18   6    1.24    1.07 
   7  18  -6   -1.20    1.24 
  -6 -18   6    1.45    0.94 
   6  18  -6    3.49    1.66 
  -5 -18   6   21.18    2.23 
   5  18  -6   23.35    2.90 
   4  18  -6    1.02    1.19 
  -4 -18   6    3.37    1.21 
  -3 -18   6   19.76    2.20 
   3  18  -6   18.44    2.31 
  -2 -18   6   10.64    1.82 
   2  18  -6   10.95    1.91 
   1  18  -6   66.91    3.39 
  -1 -18   6   67.38    3.53 
   0 -18   6    5.26    1.34 
   0 -18   6    9.94    1.17 
   1 -18   6    2.96    1.16 
   1 -18   6    0.48    0.43 
   2 -18   6    0.89    0.86 
   2 -18   6    1.14    1.00 
   3 -18   6    1.68    0.97 
   3 -18   6    2.04    1.18 
   4 -18   6   22.65    2.76 
   4 -18   6   29.86    2.55 
   5 -18   6    1.16    1.32 
   5 -18   6    1.12    1.18 
   6 -18   6    8.11    1.99 
   6 -18   6    6.69    2.01 
   7 -18   6    1.02    1.65 
   8 -18   6    0.17    1.75 
  -8  18  -6    1.47    1.98 
   9 -18   6    0.84    1.95 
  10  17  -6    1.30    2.45 
   9  17  -6    9.48    2.84 
  -8 -17   6   -0.35    0.94 
   8  17  -6    1.17    1.69 
   7  17  -6    5.19    1.96 
  -7 -17   6    6.04    1.42 
   6  17  -6    0.44    1.28 
  -6 -17   6    0.53    0.89 
   5  17  -6    8.66    1.88 
  -5 -17   6    7.05    1.45 
  -4 -17   6  102.65    4.34 
   4  17  -6  102.41    5.04 
   3  17  -6   43.58    3.01 
  -3 -17   6   46.24    2.80 
  -2 -17   6    2.27    1.09 
   2  17  -6    0.62    1.18 
   1  17  -6    1.18    1.09 
  -1 -17   6    1.85    0.96 
   0 -17   6   35.95    2.55 
   0  17  -6   42.09    2.42 
   0 -17   6   37.99    1.97 
   1 -17   6    9.81    1.27 
   1 -17   6    8.70    1.63 
   2 -17   6   11.74    1.57 
   2 -17   6   15.78    2.18 
   3 -17   6    3.29    1.11 
   3 -17   6    3.18    1.25 
   4 -17   6    7.48    1.57 
   4 -17   6    5.14    1.63 
   5 -17   6   14.45    2.39 
   5 -17   6   15.70    2.18 
   6 -17   6    2.99    1.54 
   6 -17   6    3.77    1.50 
   7 -17   6    0.75    1.54 
  -7  17  -6   -1.38    1.64 
  -8  17  -6   -0.16    1.94 
   8 -17   6    0.67    1.76 
   9 -17   6   -2.16    1.76 
  11  16  -6   -0.82    2.39 
  10  16  -6    6.37    2.80 
   9  16  -6    1.45    2.12 
   8  16  -6    2.68    1.86 
  -8 -16   6    2.16    1.13 
   7  16  -6    2.33    1.42 
  -7 -16   6    1.36    0.89 
   6  16  -6   10.58    2.19 
  -6 -16   6   10.41    1.69 
   5  16  -6   37.13    3.08 
  -5 -16   6   34.78    2.39 
   4  16  -6   18.70    2.53 
  -4 -16   6   18.95    2.11 
  -3 -16   6   37.37    2.48 
   3  16  -6   37.76    2.78 
   2  16  -6   34.41    2.57 
  -2 -16   6   35.84    2.45 
   1  16  -6    1.70    1.09 
  -1 -16   6    2.86    1.05 
   0 -16   6    0.01    0.57 
   0  16  -6   -0.75    0.85 
   0 -16   6    1.13    0.86 
   1 -16   6   54.57    3.19 
   1 -16   6   63.12    2.74 
   2 -16   6   95.29    3.70 
   2 -16   6   82.07    4.13 
   3 -16   6    0.79    0.91 
   3 -16   6   -0.13    0.97 
   4 -16   6   12.66    2.16 
   4 -16   6   13.37    1.94 
   5 -16   6    2.66    1.26 
   5 -16   6    0.46    1.24 
   6 -16   6    5.31    1.80 
   6 -16   6    6.55    1.76 
  -7  16  -6    1.57    1.70 
   7 -16   6    0.78    1.50 
  -8  16  -6    0.08    1.54 
   8 -16   6   -1.06    1.58 
  -9  16  -6    1.20    2.06 
   9 -16   6    0.73    1.98 
  11  15  -6   -0.64    2.33 
  10  15  -6    2.31    2.32 
   9  15  -6    4.87    2.38 
   8  15  -6    4.07    2.02 
  -8 -15   6    0.88    1.00 
   7  15  -6    7.42    2.04 
  -7 -15   6    9.04    1.50 
   6  15  -6    3.88    1.59 
  -6 -15   6    2.52    1.06 
   5  15  -6    1.88    1.35 
  -5 -15   6    1.28    0.92 
  -4 -15   6   26.24    2.29 
   4  15  -6   19.74    2.52 
   3  15  -6    2.20    1.28 
  -3 -15   6    1.48    0.89 
  -2 -15   6   51.95    2.89 
   2  15  -6   51.80    3.10 
   1  15  -6   32.23    2.26 
  -1 -15   6   30.76    2.26 
   0 -15   6    5.62    1.28 
   0  15  -6    8.41    1.34 
   0 -15   6    4.88    0.98 
   1 -15   6   56.55    3.26 
   1 -15   6   74.03    2.97 
   2 -15   6   36.44    2.64 
   2 -15   6   37.67    2.30 
   3 -15   6   69.85    3.30 
   3 -15   6   67.20    3.71 
   4 -15   6    0.41    0.96 
   4 -15   6    0.97    0.92 
   5 -15   6    1.77    1.41 
   5 -15   6    1.76    1.22 
   6 -15   6   -1.08    1.23 
   6 -15   6   -1.14    1.15 
  -7  15  -6    1.82    1.69 
   7 -15   6    0.38    1.41 
   8 -15   6    1.60    1.84 
  -8  15  -6    2.68    1.76 
   9 -15   6    0.36    2.04 
  -9  15  -6   -0.63    1.78 
  11  14  -6   -0.49    2.41 
  10  14  -6    1.55    2.41 
   9  14  -6    3.35    2.23 
  -8 -14   6    8.63    1.53 
   8  14  -6    9.93    2.66 
   7  14  -6    1.22    1.38 
  -7 -14   6    1.32    0.94 
  -6 -14   6   14.46    1.79 
   6  14  -6   12.23    2.39 
   5  14  -6   37.06    3.03 
  -5 -14   6   29.88    2.17 
   4  14  -6    2.37    1.15 
  -4 -14   6    1.50    0.87 
   3  14  -6    9.37    1.86 
  -3 -14   6   10.72    1.60 
  -2 -14   6    9.36    1.55 
   2  14  -6    7.51    1.59 
   1  14  -6   16.41    1.81 
  -1 -14   6   18.29    2.00 
   0  14  -6    0.72    0.87 
   0 -14   6    2.36    0.94 
   1 -14   6    7.36    1.22 
   1 -14   6    4.77    1.24 
   2 -14   6   87.47    3.61 
   2 -14   6   95.70    4.28 
   3 -14   6   21.48    2.44 
   3 -14   6   21.24    2.04 
   4 -14   6   28.36    2.48 
   4 -14   6   22.59    2.65 
   5 -14   6    3.09    1.29 
   5 -14   6   -1.56    1.09 
   6 -14   6    6.72    1.92 
   6 -14   6    6.53    1.73 
  -7  14  -6    1.87    1.58 
   7 -14   6    0.46    1.41 
   8 -14   6    0.15    1.72 
  -8  14  -6    1.54    1.56 
  -9  14  -6    0.94    1.74 
   9 -14   6    0.80    1.88 
  11  13  -6    0.44    2.43 
  10  13  -6    2.29    2.39 
   9  13  -6    4.37    2.30 
  -8 -13   6   -0.91    0.80 
   8  13  -6   -0.21    1.66 
   7  13  -6   10.43    2.36 
  -7 -13   6   12.87    1.72 
   6  13  -6   21.90    3.07 
  -6 -13   6   19.15    1.91 
  -5 -13   6    5.25    1.18 
   5  13  -6    8.15    1.94 
   4  13  -6    8.24    1.80 
  -4 -13   6   12.18    1.66 
  -3 -13   6    4.12    1.10 
   3  13  -6    6.27    1.65 
   2  13  -6   21.84    2.26 
  -2 -13   6   21.09    2.02 
   1  13  -6   10.09    1.55 
  -1 -13   6   10.75    1.59 
   0 -13   6    7.38    1.47 
   0  13  -6    5.52    1.15 
   1 -13   6    2.49    0.92 
   1 -13   6    0.77    0.84 
   2 -13   6    4.13    1.23 
   2 -13   6    5.10    1.15 
   3 -13   6  109.30    4.90 
   3 -13   6  125.07    4.56 
   4 -13   6   23.40    2.32 
   4 -13   6   21.40    2.54 
   5 -13   6   19.53    2.54 
   5 -13   6   20.49    2.38 
   6 -13   6    0.35    1.20 
   7 -13   6   -0.75    1.29 
  -7  13  -6    0.84    1.29 
   8 -13   6    0.36    1.69 
  -8  13  -6   -1.12    1.34 
  -9  13  -6    0.87    1.61 
   9 -13   6   -0.66    1.82 
  11  12  -6   -1.72    2.22 
  10  12  -6    4.39    2.41 
   9  12  -6   -1.59    1.63 
   8  12  -6    9.34    2.33 
  -8 -12   6    8.35    1.48 
   7  12  -6    4.06    1.69 
  -7 -12   6    4.10    1.04 
  -6 -12   6   16.51    1.77 
   6  12  -6   14.05    2.51 
   5  12  -6    1.79    1.27 
  -5 -12   6    3.24    0.98 
   4  12  -6   31.22    3.02 
  -4 -12   6   26.49    1.97 
  -3 -12   6    7.41    1.30 
   3  12  -6    7.86    1.77 
  -2 -12   6   22.80    2.05 
   2  12  -6   28.51    2.50 
   1  12  -6    3.09    1.14 
  -1 -12   6    2.74    0.98 
   0 -12   6   57.57    2.97 
   0  12  -6   57.71    2.73 
   1 -12   6    3.24    1.07 
   1 -12   6    5.50    1.08 
  -1  12  -6    4.01    0.87 
   2 -12   6   12.70    1.83 
   2 -12   6   18.38    1.77 
   3 -12   6   28.99    2.13 
   3 -12   6   27.59    2.70 
   4 -12   6   77.86    4.08 
   4 -12   6   81.54    3.75 
   5 -12   6   21.97    2.44 
   5 -12   6   18.72    2.58 
   6 -12   6    7.28    1.63 
  -6  12  -6    8.03    1.92 
   7 -12   6    1.30    1.33 
  -7  12  -6    3.84    1.63 
   8 -12   6   -0.86    1.66 
  -8  12  -6    2.79    1.58 
   9 -12   6    0.72    1.89 
  -9  12  -6   -0.64    1.56 
  11  11  -6    3.47    2.78 
  10  11  -6    2.76    2.41 
   9  11  -6   12.01    2.78 
  -8 -11   6    0.06    0.84 
   8  11  -6    1.30    1.60 
   7  11  -6    3.38    1.60 
  -7 -11   6    0.38    0.78 
   6  11  -6   14.77    2.55 
  -6 -11   6   15.13    1.70 
   5  11  -6    2.65    1.45 
  -5 -11   6    3.12    1.02 
   4  11  -6    7.14    1.73 
  -4 -11   6    3.93    1.07 
   3  11  -6    2.89    1.33 
  -3 -11   6    5.56    1.18 
   2  11  -6   24.16    2.36 
  -2 -11   6   25.68    2.08 
  -1 -11   6   31.53    2.15 
   1  11  -6   38.92    2.41 
   0 -11   6    7.92    1.41 
   0  11  -6    8.75    1.29 
  -1  11  -6   81.98    3.02 
   1 -11   6   85.22    3.28 
   1 -11   6   76.35    3.66 
   2 -11   6    2.01    0.95 
   2 -11   6    1.12    0.81 
   3 -11   6   48.84    2.73 
   3 -11   6   52.80    3.18 
   4 -11   6   10.96    1.79 
   4 -11   6   10.65    1.97 
   5 -11   6   54.16    3.15 
   5 -11   6   54.15    3.47 
  -6  11  -6    4.63    1.71 
   6 -11   6    7.95    1.76 
  -7  11  -6    2.60    1.43 
   7 -11   6    2.21    1.51 
   8 -11   6    5.96    2.07 
  -8  11  -6    9.36    2.15 
  -9  11  -6    1.77    1.76 
   9 -11   6   -0.59    1.73 
 -10  11  -6   -0.99    1.66 
  10 -11   6   -0.10    2.04 
  11  10  -6   -0.31    2.25 
  10  10  -6    8.55    2.79 
   9  10  -6    4.02    2.13 
   8  10  -6   23.70    3.49 
  -7 -10   6   -1.25    0.64 
   7  10  -6   -1.04    1.17 
  -6 -10   6   10.60    1.46 
   6  10  -6   13.94    2.52 
  -5 -10   6    0.53    0.73 
   5  10  -6    1.26    1.17 
   4  10  -6    1.98    1.14 
  -4 -10   6    2.04    0.80 
   3  10  -6   27.55    2.79 
  -3 -10   6   28.64    1.94 
  -2 -10   6    1.83    0.80 
   2  10  -6    2.96    1.25 
   1  10  -6    8.38    1.54 
  -1 -10   6    6.99    1.25 
   0 -10   6    2.68    0.94 
   0  10  -6    3.75    1.05 
   1 -10   6    2.08    0.98 
  -1  10  -6    1.33    0.68 
   2 -10   6   91.23    4.14 
   2 -10   6  100.59    3.83 
   3 -10   6    2.15    1.19 
   3 -10   6    2.85    1.06 
   4 -10   6   38.54    3.19 
   4 -10   6   36.29    2.48 
   5 -10   6    4.03    1.54 
   5 -10   6    4.79    1.47 
  -6  10  -6   23.92    2.80 
   6 -10   6   26.79    2.77 
   7 -10   6    1.40    1.30 
  -7  10  -6    2.32    1.27 
  -8  10  -6    1.17    1.39 
   8 -10   6    2.98    1.78 
  -9  10  -6    3.56    1.74 
   9 -10   6    0.21    1.74 
  10 -10   6   -0.47    1.99 
 -10  10  -6   -1.55    1.74 
  12   9  -6    0.35    2.67 
  11   9  -6    4.87    2.80 
  10   9  -6    3.75    2.26 
   9   9  -6   18.84    3.48 
   8   9  -6    4.91    1.79 
   7   9  -6   13.67    2.57 
  -7  -9   6    5.72    1.00 
  -6  -9   6   34.90    2.09 
   6   9  -6   41.63    3.98 
  -5  -9   6    0.75    0.82 
   5   9  -6    2.39    1.39 
   4   9  -6    1.31    1.17 
  -4  -9   6    0.21    0.63 
   4   9  -6    0.73    0.41 
  -3  -9   6    0.80    0.69 
   3   9  -6    0.69    0.47 
   3   9  -6   -0.28    1.08 
  -2  -9   6    9.78    1.37 
   2   9  -6   10.01    1.78 
   1   9  -6    3.10    1.20 
  -1  -9   6    2.03    0.83 
   0  -9   6    6.44    1.28 
   0   9  -6    7.65    1.32 
  -1   9  -6   11.04    1.22 
   1  -9   6   12.33    1.68 
   2  -9   6    5.46    1.32 
   2  -9   6    6.52    1.26 
   3  -9   6   45.45    2.59 
   3  -9   6   44.08    2.86 
   4  -9   6    1.18    0.95 
   4  -9   6   -0.75    0.99 
  -5   9  -6   21.02    2.54 
   5  -9   6   18.20    2.20 
   6  -9   6    3.15    1.45 
  -6   9  -6    6.49    1.73 
   7  -9   6   15.08    2.35 
  -7   9  -6   12.81    2.26 
  -8   9  -6   -0.71    1.21 
   8  -9   6   -1.03    1.56 
  -9   9  -6   -1.76    1.38 
   9  -9   6    0.99    1.88 
  10  -9   6    1.68    2.29 
 -10   9  -6   -0.53    1.67 
  12   8  -6    0.54    2.50 
  11   8  -6    3.55    2.62 
  10   8  -6    1.36    2.15 
   9   8  -6    3.03    2.11 
   8   8  -6   21.84    3.39 
   7   8  -6    7.86    2.20 
  -7  -8   6   10.50    1.33 
   6   8  -6    2.92    1.56 
  -6  -8   6    2.66    0.86 
   5   8  -6    7.66    1.94 
  -5  -8   6    8.83    1.28 
   4   8  -6    0.09    1.18 
   4   8  -6    1.38    0.50 
  -4  -8   6    1.57    0.78 
   3   8  -6    2.89    1.27 
   3   8  -6    2.39    0.60 
  -3  -8   6    4.02    0.98 
   2   8  -6    0.68    0.96 
  -2  -8   6    0.26    0.62 
   1   8  -6    1.10    0.92 
  -1  -8   6    1.14    0.79 
   0   8  -6   28.94    2.06 
   0  -8   6   33.66    2.21 
  -1   8  -6    0.24    0.69 
   1  -8   6    0.58    0.77 
   2  -8   6   34.73    2.14 
   2  -8   6   31.68    2.35 
   3  -8   6   11.47    1.79 
   3  -8   6    9.95    1.53 
   4  -8   6   54.08    3.30 
   4  -8   6   51.16    2.92 
   5  -8   6   10.55    1.75 
  -5   8  -6    6.60    1.64 
   6  -8   6    3.03    1.37 
  -6   8  -6    1.24    1.18 
  -7   8  -6    1.25    1.11 
   7  -8   6    0.39    1.24 
  -8   8  -6    4.19    1.52 
   8  -8   6    3.05    1.77 
  -9   8  -6   -1.55    1.28 
   9  -8   6   -1.07    1.79 
 -10   8  -6   -1.73    1.62 
  10  -8   6    0.00    2.06 
  12   7  -6   -0.82    2.43 
  11   7  -6    0.12    2.15 
  10   7  -6    2.33    2.04 
   9   7  -6   10.66    2.67 
   8   7  -6    0.62    1.63 
   7   7  -6   16.62    2.91 
  -7  -7   6   15.97    1.49 
  -6  -7   6    0.08    0.44 
   6   7  -6    0.74    1.20 
   5   7  -6    7.34    0.77 
   5   7  -6    7.40    1.80 
  -5  -7   6    7.72    1.19 
   4   7  -6    0.60    1.18 
   4   7  -6    0.92    0.48 
  -4  -7   6    0.47    0.65 
  -3  -7   6    3.09    0.90 
   3   7  -6    3.49    1.42 
   3   7  -6    3.34    0.71 
  -2  -7   6    2.96    0.91 
   2   7  -6    2.26    1.26 
  -1  -7   6    6.27    1.19 
   1   7  -6    4.33    1.28 
   0  -7   6    0.99    0.80 
   0   7  -6    0.16    0.84 
  -1   7  -6   20.72    1.71 
   1  -7   6   17.81    1.99 
  -2   7  -6    2.59    0.76 
   2  -7   6    2.84    1.10 
   2  -7   6    4.95    1.14 
   3  -7   6   37.87    2.65 
   3  -7   6   35.97    2.31 
   4  -7   6   22.25    2.53 
   4  -7   6   24.19    2.32 
   5  -7   6   34.12    2.53 
  -5   7  -6   35.77    2.99 
   6  -7   6    4.00    1.50 
  -6   7  -6    2.85    1.20 
  -7   7  -6    0.89    1.12 
   7  -7   6   -0.59    1.17 
   8  -7   6    1.64    1.67 
  -8   7  -6   -0.08    1.11 
   9  -7   6    2.01    2.02 
  -9   7  -6    5.07    1.82 
  10  -7   6    0.00    2.01 
 -10   7  -6   -1.44    1.47 
  12   6  -6    2.70    2.50 
  11   6  -6   -0.61    2.25 
  10   6  -6    4.97    2.52 
   9   6  -6    2.90    2.12 
   8   6  -6   19.63    3.28 
   7   6  -6    3.73    1.71 
  -7  -6   6    1.36    0.74 
  -6  -6   6   22.55    1.73 
   6   6  -6   19.11    2.87 
   5   6  -6    4.86    0.72 
   5   6  -6    3.76    1.50 
  -5  -6   6    2.98    0.74 
  -4  -6   6   11.01    1.31 
   4   6  -6   10.26    0.93 
   4   6  -6    7.90    1.92 
   3   6  -6   10.10    2.07 
   3   6  -6    9.02    0.96 
  -3  -6   6    9.14    1.28 
   2   6  -6   15.31    2.11 
  -2  -6   6   13.40    1.45 
  -1  -6   6    1.74    0.80 
   1   6  -6    1.82    1.07 
   0   6  -6    1.94    0.93 
   0  -6   6    1.06    0.83 
   1  -6   6    4.25    1.17 
   2  -6   6    6.92    1.40 
   3  -6   6    1.95    0.90 
   3  -6   6    2.49    1.11 
   4  -6   6   42.02    2.60 
  -4   6  -6   39.67    2.71 
   5  -6   6   12.67    1.93 
  -5   6  -6    8.14    1.62 
   6  -6   6    8.13    1.69 
  -6   6  -6    8.23    1.71 
  -7   6  -6    1.40    1.08 
   7  -6   6    2.45    1.38 
   8  -6   6    0.95    1.50 
  -8   6  -6    1.37    1.28 
   9  -6   6   -1.37    1.72 
  -9   6  -6    0.96    1.44 
 -10   6  -6    2.23    1.80 
  10  -6   6   -0.79    1.96 
  12   5  -6    2.92    2.52 
  11   5  -6   -0.43    1.96 
  10   5  -6    2.84    2.08 
   9   5  -6   10.35    2.73 
   8   5  -6    2.22    1.94 
   7   5  -6    2.93    1.67 
   6   5  -6    1.70    0.67 
  -6  -5   6    1.15    0.68 
   6   5  -6    2.38    1.45 
   5   5  -6   11.08    2.28 
   5   5  -6    9.24    0.93 
  -5  -5   6    8.69    1.17 
   4   5  -6    0.61    1.26 
  -4  -5   6    1.57    0.65 
   4   5  -6    1.02    0.52 
  -3  -5   6    2.48    0.78 
   3   5  -6    1.98    0.67 
   3   5  -6    0.32    1.22 
  -2  -5   6    0.10    0.58 
   2   5  -6   -0.38    1.05 
   1   5  -6   24.40    2.03 
  -1  -5   6   27.24    1.89 
   0  -5   6    0.11    0.81 
   1  -5   6    1.87    0.97 
   2  -5   6    0.18    0.84 
   3  -5   6   48.27    2.66 
   3  -5   6   45.10    2.83 
  -4   5  -6    2.28    1.12 
   4  -5   6    4.10    1.23 
   5  -5   6    9.27    1.77 
  -5   5  -6   10.12    1.81 
   6  -5   6    8.30    1.73 
  -6   5  -6    8.17    1.70 
  -7   5  -6   10.41    1.94 
   7  -5   6   13.72    2.25 
   8  -5   6    0.98    1.59 
  -8   5  -6    0.99    1.36 
  -9   5  -6   -0.45    1.35 
   9  -5   6   -0.10    1.75 
  10  -5   6    0.20    2.08 
 -10   5  -6    1.06    1.69 
  12   4  -6   -0.27    2.35 
  11   4  -6    2.51    2.47 
  10   4  -6    6.72    2.60 
   9   4  -6    1.78    1.94 
   8   4  -6    5.87    2.23 
   7   4  -6    1.99    1.50 
   7   4  -6    1.83    0.76 
   6   4  -6   74.58    4.82 
  -6  -4   6   85.40    3.13 
   6   4  -6   85.87    2.84 
  -5  -4   6   -0.06    0.56 
   5   4  -6    0.86    1.18 
   5   4  -6    0.17    0.51 
   4   4  -6   21.36    2.90 
   4   4  -6   25.45    1.42 
   3   4  -6   12.21    1.12 
  -3  -4   6   13.48    1.38 
   3   4  -6   12.89    2.22 
  -2  -4   6    4.37    0.97 
  -1  -4   6   39.19    2.24 
   0  -4   6   50.51    2.65 
   1  -4   6   13.00    1.72 
   2  -4   6   42.19    2.62 
  -4   4  -6   14.96    2.01 
   4  -4   6   18.41    2.10 
  -5   4  -6    5.44    1.39 
   5  -4   6    5.83    1.50 
  -6   4  -6    8.11    1.73 
   6  -4   6    5.64    1.51 
  -7   4  -6   -0.07    1.01 
   7  -4   6    0.67    1.32 
   8  -4   6    3.73    1.82 
  -8   4  -6    1.06    1.28 
  -9   4  -6   -0.76    1.26 
   9  -4   6    4.72    2.27 
 -10   4  -6   -1.11    1.46 
  10  -4   6    3.21    2.31 
  12   3  -6    1.29    2.58 
  11   3  -6    2.78    2.25 
  10   3  -6    1.13    2.06 
   9   3  -6    5.24    2.32 
   8   3  -6   12.13    2.68 
   7   3  -6   35.40    1.91 
   7   3  -6   33.81    4.04 
   6   3  -6   22.62    1.45 
   6   3  -6   19.62    2.95 
  -6  -3   6   21.28    1.47 
   5   3  -6   14.28    1.20 
   5   3  -6   16.80    2.70 
  -5  -3   6   14.55    1.31 
   4   3  -6    4.11    1.70 
   4   3  -6    3.13    0.75 
  -4  -3   6    2.98    0.67 
   3   3  -6    3.61    0.76 
   3   3  -6    3.46    1.23 
  -3  -3   6    2.20    0.71 
  -2  -3   6   50.04    2.48 
  -1  -3   6    8.14    1.27 
   0  -3   6    2.68    0.99 
   1  -3   6   28.85    2.09 
   2  -3   6    1.04    0.91 
  -3   3  -6   33.79    2.32 
  -4   3  -6    3.59    1.23 
   4  -3   6    3.49    1.19 
  -5   3  -6   12.09    1.92 
   5  -3   6   12.16    1.89 
   6  -3   6    6.51    1.70 
  -6   3  -6    8.83    1.77 
   7  -3   6    6.07    1.73 
  -7   3  -6    5.54    1.51 
  -8   3  -6   -1.09    1.10 
   8  -3   6    0.83    1.55 
  -9   3  -6   -0.92    1.21 
   9  -3   6    2.68    2.08 
  10  -3   6    2.06    2.23 
 -10   3  -6   -1.27    1.50 
  12   2  -6   -1.25    2.54 
  11   2  -6   -0.91    1.90 
  10   2  -6    4.53    2.35 
   9   2  -6    3.65    2.05 
   8   2  -6   38.24    4.44 
   8   2  -6   46.06    2.26 
   7   2  -6    6.39    2.00 
   7   2  -6    8.58    1.22 
   6   2  -6   66.80    4.62 
   6   2  -6   72.14    2.64 
  -6  -2   6   65.49    2.56 
  -5  -2   6    2.38    0.71 
   5   2  -6    1.82    1.35 
   5   2  -6    1.61    0.67 
  -4  -2   6    1.54    0.62 
   4   2  -6    2.42    0.69 
   4   2  -6    0.88    1.21 
  -3  -2   6    0.12    0.47 
   3   2  -6    0.30    0.56 
  -2  -2   6   26.08    1.75 
  -1  -2   6    1.91    0.86 
   0  -2   6   15.88    1.72 
   1  -2   6    2.58    0.96 
  -3   2  -6    4.41    1.23 
  -4   2  -6   31.79    2.31 
   5  -2   6   12.23    1.95 
  -5   2  -6   11.75    1.77 
   6  -2   6    1.94    1.29 
  -6   2  -6    1.01    1.05 
  -7   2  -6    8.25    1.76 
   7  -2   6   10.51    2.09 
   8  -2   6    3.20    1.81 
  -8   2  -6    3.28    1.47 
   9  -2   6    5.98    2.25 
  -9   2  -6    4.43    1.74 
 -10   2  -6    1.15    1.60 
  10  -2   6   -1.21    2.11 
  12   1  -6   -0.23    2.36 
  11   1  -6    2.36    2.50 
  10   1  -6    1.30    1.98 
   9   1  -6    7.95    2.50 
   8   1  -6    7.95    1.24 
   8   1  -6    5.22    2.14 
   7   1  -6   78.81    5.17 
   7   1  -6   74.84    2.86 
   6   1  -6    3.62    0.88 
   6   1  -6    1.96    1.61 
   5   1  -6   35.58    1.81 
   5   1  -6   34.42    3.63 
  -5  -1   6   36.82    1.81 
   4   1  -6    1.19    0.65 
  -4  -1   6    1.01    0.63 
   3   1  -6    0.67    0.59 
  -3  -1   6   -0.10    0.39 
  -2  -1   6   19.26    1.64 
  -1  -1   6   24.79    1.92 
   0  -1   6    0.49    0.75 
   1  -1   6    6.47    1.23 
  -2   1  -6    2.60    0.99 
  -3   1  -6   10.16    1.61 
  -4   1  -6   -1.19    0.74 
  -5   1  -6   13.08    1.90 
   6  -1   6    1.30    1.39 
  -6   1  -6    2.93    1.22 
   7  -1   6   -0.09    1.34 
  -7   1  -6    3.00    1.39 
  -8   1  -6    1.39    1.21 
   8  -1   6    0.46    1.64 
   9  -1   6   -2.55    1.76 
  -9   1  -6   -0.35    1.42 
 -10   1  -6   -0.22    1.50 
  10  -1   6    0.99    2.29 
  12   0  -6    0.66    2.47 
  11   0  -6   -0.72    2.12 
  10   0  -6    0.14    1.73 
   9   0  -6    0.21    1.67 
   8   0  -6   52.77    4.53 
   8   0  -6   59.19    2.68 
   7   0  -6    2.72    1.74 
   7   0  -6    1.49    0.90 
   6   0  -6  126.95    4.01 
   6   0  -6  119.45    6.38 
   5   0  -6    3.51    1.07 
  -5   0   6    0.65    0.46 
   5   0  -6    0.45    0.58 
   4   0  -6   30.62    1.71 
  -4   0   6   31.90    1.69 
  -3   0   6    0.10    0.56 
   3   0  -6   -0.22    0.50 
  -2   0   6   20.75    1.54 
  -1   0   6   -0.39    0.64 
   0   0   6   55.79    2.71 
  -1   0  -6    1.15    0.77 
  -2   0  -6   13.63    1.71 
  -3   0  -6   -0.95    0.52 
  -4   0  -6    1.11    0.80 
  -5   0  -6    1.10    0.87 
  -6   0  -6   24.62    2.63 
  -7   0  -6    0.51    1.12 
  -8   0  -6    0.67    1.14 
   8   0   6    0.88    1.83 
  -9   0  -6   -0.17    1.32 
 -10   0  -6    2.42    1.71 
  12  -1  -6    2.45    2.58 
  11  -1  -6   -0.75    2.29 
  10  -1  -6    3.03    2.13 
   9  -1  -6    9.37    2.72 
   9  -1  -6    9.33    1.59 
   8  -1  -6    7.89    2.50 
   8  -1  -6    6.08    1.26 
   7  -1  -6   67.74    4.95 
   7  -1  -6   76.26    2.97 
   6  -1  -6    3.09    0.84 
   6  -1  -6    2.52    1.64 
  -5   1   6   38.38    1.69 
   5  -1  -6   36.62    1.93 
  -4   1   6    1.55    0.61 
   4  -1  -6    0.53    0.60 
   3  -1  -6    0.08    0.53 
  -3   1   6    0.14    0.52 
  -2   1   6   17.42    1.51 
  -1   1   6   22.87    1.82 
  -1  -1  -6    6.74    1.25 
  -2  -1  -6    0.50    0.66 
  -3  -1  -6   11.29    1.57 
  -4  -1  -6    0.41    0.79 
  -5  -1  -6   17.66    2.16 
  -6  -1  -6    3.86    1.26 
  -7  -1  -6    1.31    1.15 
  -8  -1  -6   -1.71    0.98 
  -9  -1  -6    0.25    1.32 
 -10  -1  -6    1.22    1.74 
  12  -2  -6    1.70    2.58 
  11  -2  -6   -1.55    2.09 
  10  -2  -6    6.11    2.61 
   9  -2  -6    3.74    2.10 
   9  -2  -6    3.58    1.28 
   8  -2  -6   44.91    4.88 
   8  -2  -6   44.74    2.44 
   7  -2  -6    7.45    2.40 
   7  -2  -6    5.08    1.13 
   6  -2  -6   69.97    2.85 
   6  -2  -6   71.19    4.56 
  -5   2   6    3.77    0.68 
   5  -2  -6    3.04    0.81 
  -4   2   6    1.86    0.61 
   4  -2  -6    1.39    0.66 
  -3   2   6    0.63    0.59 
   3  -2  -6    0.02    0.56 
  -2   2   6   18.82    1.36 
   0  -2  -6   15.51    1.61 
  -1  -2  -6    2.62    0.91 
  -2  -2  -6   14.00    1.68 
  -3  -2  -6    5.52    1.16 
  -4  -2  -6   32.88    2.35 
  -5  -2  -6    9.83    1.75 
  -6  -2  -6    1.83    1.17 
  -7  -2  -6   11.63    2.08 
  -8  -2  -6    1.83    1.34 
  -9  -2  -6    4.08    1.52 
 -10  -2  -6   -0.14    1.67 
  12  -3  -6   -0.19    2.77 
  11  -3  -6    1.90    2.45 
  10  -3  -6    2.35    1.45 
  10  -3  -6    1.70    2.04 
   9  -3  -6    3.76    1.20 
   9  -3  -6    2.77    1.88 
   8  -3  -6    8.53    1.36 
   8  -3  -6    8.77    2.58 
   7  -3  -6   30.95    4.10 
   7  -3  -6   35.28    2.06 
   6  -3  -6   23.18    1.69 
   5  -3  -6   11.92    1.34 
  -4   3   6    4.58    0.68 
   4  -3  -6    3.30    0.86 
   3  -3  -6    1.53    0.71 
  -3   3   6    2.48    0.66 
   2  -3  -6   50.76    2.27 
   1  -3  -6    9.12    1.24 
   0  -3  -6    3.58    0.93 
  -1  -3  -6   29.78    1.96 
  -2  -3  -6    1.40    0.82 
  -3  -3  -6   35.62    2.29 
  -4  -3  -6    2.49    0.98 
  -5  -3  -6   10.47    1.75 
  -6  -3  -6    7.61    1.68 
  -7  -3  -6    5.98    1.69 
  -8  -3  -6   -0.35    1.08 
  -9  -3  -6   -0.62    1.44 
 -10  -3  -6   -1.32    1.49 
  12  -4  -6    0.57    2.67 
  10  -4  -6    4.75    2.33 
  10  -4  -6    4.83    1.58 
   9  -4  -6    3.23    1.25 
   9  -4  -6    2.24    1.91 
   8  -4  -6    4.15    1.13 
   8  -4  -6    4.95    2.18 
   7  -4  -6    2.39    1.58 
   7  -4  -6    1.93    0.93 
   6  -4  -6   74.04    3.02 
   5  -4  -6    0.32    0.64 
   4  -4  -6   21.05    1.53 
   4  -4  -6   22.36    1.28 
   3  -4  -6   14.64    1.44 
   3  -4  -6   15.69    1.27 
   2  -4  -6    6.21    0.97 
   2  -4  -6    6.07    1.06 
   1  -4  -6   37.16    1.98 
   0  -4  -6   48.35    2.38 
  -1  -4  -6   13.33    1.56 
  -2  -4  -6   47.12    2.58 
  -3  -4  -6    1.97    0.85 
  -4  -4  -6   20.38    2.14 
  -5  -4  -6   11.19    1.81 
  -6  -4  -6    4.89    1.37 
  -7  -4  -6    0.78    1.08 
  -8  -4  -6    0.23    1.15 
  -9  -4  -6   -0.14    1.33 
 -10  -4  -6   -1.17    1.55 
  12  -5  -6    3.32    2.99 
  11  -5  -6    2.40    2.55 
  10  -5  -6    0.82    1.29 
  10  -5  -6    0.09    1.97 
   9  -5  -6   13.48    3.12 
   9  -5  -6    6.87    1.44 
   8  -5  -6    3.23    2.12 
   8  -5  -6    3.59    1.14 
   7  -5  -6    5.02    1.12 
   6  -5  -6    1.42    0.80 
   5  -5  -6   11.61    1.41 
   4  -5  -6    1.40    0.48 
   4  -5  -6    1.30    0.75 
   3  -5  -6    2.14    0.61 
   3  -5  -6    1.59    0.78 
   2  -5  -6    0.24    0.54 
   2  -5  -6    0.19    0.62 
   1  -5  -6   25.86    1.64 
   0  -5  -6    0.43    0.64 
  -1  -5  -6    2.35    0.87 
  -2  -5  -6   -0.25    0.67 
  -3  -5  -6   47.74    2.71 
  -4  -5  -6    5.26    1.26 
  -5  -5  -6    9.24    1.69 
  -6  -5  -6    6.18    1.52 
  -7  -5  -6    9.30    1.88 
  -8  -5  -6    2.42    1.43 
  -9  -5  -6    0.11    1.36 
 -10  -5  -6    0.30    1.59 
  12  -6  -6    3.19    3.11 
  11  -6  -6    0.21    1.45 
  11  -6  -6    2.34    2.52 
  10  -6  -6    1.71    2.08 
  10  -6  -6    4.87    1.51 
   9  -6  -6    0.10    1.84 
   9  -6  -6    4.93    1.30 
   8  -6  -6   23.30    2.04 
   8  -6  -6   25.61    3.98 
   7  -6  -6    2.07    0.96 
   6  -6  -6   18.61    1.70 
   5  -6  -6    5.29    1.09 
   4  -6  -6    9.13    0.79 
   4  -6  -6    8.47    1.25 
   3  -6  -6    8.03    1.21 
   3  -6  -6    9.63    0.95 
   2  -6  -6   15.22    1.27 
   2  -6  -6   15.62    1.55 
   1  -6  -6    0.71    0.60 
   0  -6  -6    2.24    0.82 
  -1  -6  -6    4.13    1.04 
  -2  -6  -6    6.20    1.28 
  -3  -6  -6    3.98    1.02 
  -4  -6  -6   40.23    2.54 
  -5  -6  -6    9.84    1.70 
  -6  -6  -6    8.73    1.79 
  -7  -6  -6    0.25    1.01 
  -8  -6  -6    0.54    1.26 
  -9  -6  -6   -0.12    1.41 
 -10  -6  -6    1.15    1.59 
  12  -7  -6   -3.15    2.37 
  11  -7  -6    1.28    2.56 
  11  -7  -6    0.39    1.57 
  10  -7  -6    0.22    1.21 
  10  -7  -6    3.48    2.55 
   9  -7  -6   12.67    1.79 
   9  -7  -6   14.88    3.50 
   8  -7  -6    1.55    1.06 
   8  -7  -6    3.62    1.84 
   7  -7  -6   16.00    1.69 
   6  -7  -6    2.64    0.96 
   5  -7  -6    5.01    1.07 
   4  -7  -6    0.89    0.40 
   4  -7  -6   -0.43    0.63 
   3  -7  -6    3.02    0.64 
   3  -7  -6    4.07    0.98 
   2  -7  -6    4.04    0.80 
   2  -7  -6    3.19    0.94 
   1  -7  -6    6.06    0.94 
   0  -7  -6    0.59    0.63 
  -1  -7  -6   20.52    1.82 
  -2  -7  -6    2.14    0.92 
  -3  -7  -6   33.96    2.26 
  -4  -7  -6   18.55    2.06 
  -5  -7  -6   35.65    2.58 
  -6  -7  -6    5.05    1.43 
  -7  -7  -6   -0.87    1.06 
  -8  -7  -6   -0.03    1.22 
  -9  -7  -6    2.58    1.62 
 -10  -7  -6   -1.14    1.49 
  12  -8  -6    0.73    2.91 
  11  -8  -6    0.57    2.67 
  11  -8  -6    4.61    1.77 
  10  -8  -6    3.16    1.48 
  10  -8  -6    4.25    2.82 
   9  -8  -6    0.84    1.15 
   9  -8  -6    2.69    2.21 
   8  -8  -6   20.33    1.92 
   7  -8  -6    7.25    1.27 
   6  -8  -6    2.74    0.97 
   5  -8  -6    7.19    1.22 
   4  -8  -6    0.04    0.63 
   4  -8  -6    1.36    0.38 
   3  -8  -6    3.90    0.68 
   3  -8  -6    4.54    1.08 
   2  -8  -6    1.25    0.58 
   2  -8  -6    1.78    0.75 
   1  -8  -6    1.14    0.63 
   0  -8  -6   28.96    1.79 
  -1  -8  -6    0.61    0.71 
  -2  -8  -6   28.97    2.00 
  -3  -8  -6    8.28    1.42 
  -4  -8  -6   55.25    3.08 
  -5  -8  -6    8.83    1.72 
  -6  -8  -6    5.42    1.48 
  -7  -8  -6    0.90    1.22 
  -8  -8  -6    6.16    1.69 
  -9  -8  -6   -1.20    1.24 
 -10  -8  -6    0.31    1.69 
  12  -9  -6    0.42    1.68 
  12  -9  -6   -0.06    2.96 
  11  -9  -6    4.17    2.71 
  11  -9  -6    4.16    1.77 
  10  -9  -6   -0.42    2.18 
  10  -9  -6   -0.48    1.31 
   9  -9  -6   14.37    3.39 
   9  -9  -6   18.46    2.09 
   8  -9  -6    4.50    1.22 
   7  -9  -6   13.97    1.68 
   6  -9  -6   36.39    2.23 
   5  -9  -6    0.83    0.80 
   4  -9  -6   -0.84    0.55 
   3  -9  -6    0.39    0.48 
   3  -9  -6   -0.10    0.63 
   2  -9  -6   11.00    1.09 
   2  -9  -6    9.89    1.41 
   1  -9  -6    2.94    0.80 
   0  -9  -6    7.08    1.14 
  -1  -9  -6   13.22    1.55 
  -2  -9  -6    5.66    1.26 
  -3  -9  -6   51.97    2.81 
  -4  -9  -6   -0.23    0.73 
  -5  -9  -6   23.77    2.40 
  -6  -9  -6    4.39    1.38 
  -7  -9  -6   11.02    2.00 
  -8  -9  -6    0.33    1.32 
  -9  -9  -6   -0.07    1.42 
 -10  -9  -6   -0.64    1.48 
  11 -10  -6   -0.50    1.54 
  11 -10  -6    3.49    2.77 
  10 -10  -6   11.54    3.50 
  10 -10  -6    9.72    1.97 
   9 -10  -6   -0.82    1.98 
   9 -10  -6    1.03    1.19 
   8 -10  -6   19.11    1.97 
   7 -10  -6    0.99    0.90 
   6 -10  -6   12.53    1.56 
   5 -10  -6    1.45    0.82 
   4 -10  -6    0.89    0.79 
   3 -10  -6   25.07    1.84 
   3 -10  -6   28.63    1.34 
   2 -10  -6    2.14    0.68 
   2 -10  -6    1.44    0.77 
   1 -10  -6    8.30    1.09 
   1 -10  -6    6.20    1.22 
   0 -10  -6    1.71    0.72 
  -1 -10  -6    1.69    0.85 
  -2 -10  -6   99.30    3.92 
  -3 -10  -6    4.18    1.07 
  -4 -10  -6   39.62    2.56 
  -5 -10  -6    2.97    1.19 
  -6 -10  -6   27.86    2.75 
  -7 -10  -6   -1.17    0.89 
  -8 -10  -6    0.72    1.27 
  -9 -10  -6    0.91    1.50 
 -10 -10  -6    1.90    1.73 
  11 -11  -6    1.16    2.72 
  11 -11  -6    1.88    1.62 
  10 -11  -6    2.98    1.46 
  10 -11  -6   -1.60    2.17 
   9 -11  -6   20.94    3.30 
   9 -11  -6   12.49    1.89 
   8 -11  -6    2.60    1.14 
   7 -11  -6    1.70    0.98 
   6 -11  -6   16.16    1.76 
   5 -11  -6    2.25    0.97 
   4 -11  -6    5.00    1.15 
   3 -11  -6    3.26    0.61 
   3 -11  -6    3.39    0.97 
   2 -11  -6   23.16    1.38 
   2 -11  -6   21.41    1.89 
   1 -11  -6   38.91    1.94 
   1 -11  -6   39.99    2.31 
   0 -11  -6    8.13    1.21 
  -1 -11  -6   90.47    3.52 
  -2 -11  -6    0.86    0.85 
  -3 -11  -6   50.57    2.79 
  -4 -11  -6    8.60    1.56 
  -5 -11  -6   49.76    3.08 
  -6 -11  -6    7.30    1.65 
  -7 -11  -6    3.13    1.54 
  -8 -11  -6    8.32    2.00 
  -9 -11  -6    0.48    1.52 
 -10 -11  -6   -0.10    1.51 
  11 -12  -6    0.84    1.65 
  11 -12  -6   -1.00    2.80 
  10 -12  -6    7.03    1.83 
  10 -12  -6    7.55    3.15 
   9 -12  -6    1.27    1.16 
   8 -12  -6   11.38    1.70 
   7 -12  -6    3.16    1.05 
   6 -12  -6   13.32    1.68 
   5 -12  -6    4.79    1.21 
   4 -12  -6   32.43    2.15 
   3 -12  -6    8.84    1.36 
   3 -12  -6   10.16    0.90 
   2 -12  -6   24.63    1.40 
   2 -12  -6   22.80    1.97 
   1 -12  -6    2.49    0.79 
   1 -12  -6    2.13    0.87 
   0 -12  -6   67.60    2.84 
  -1 -12  -6    5.32    1.19 
  -2 -12  -6   15.73    1.77 
  -3 -12  -6   32.38    2.32 
  -4 -12  -6   91.89    4.05 
  -5 -12  -6   17.41    2.14 
  -6 -12  -6   13.71    2.06 
  -7 -12  -6    2.16    1.33 
  -8 -12  -6    2.54    1.54 
  -9 -12  -6    0.57    1.49 
  11 -13  -6   -0.06    2.93 
  11 -13  -6    1.70    1.63 
  10 -13  -6    4.84    3.15 
  10 -13  -6    2.91    1.60 
   9 -13  -6    3.77    1.45 
   8 -13  -6    1.96    1.14 
   7 -13  -6   10.89    1.63 
   6 -13  -6   20.13    2.02 
   5 -13  -6    5.76    1.30 
   4 -13  -6   10.45    1.55 
   3 -13  -6    4.92    1.11 
   3 -13  -6    4.57    0.70 
   2 -13  -6   21.32    1.31 
   2 -13  -6   21.99    1.96 
   1 -13  -6   10.86    1.51 
   1 -13  -6   13.49    1.29 
   0 -13  -6    8.42    1.21 
  -1 -13  -6    1.04    0.79 
  -2 -13  -6    4.52    1.13 
  -3 -13  -6  126.88    4.73 
  -4 -13  -6   27.68    2.46 
  -5 -13  -6   20.30    2.32 
  -6 -13  -6    0.06    1.03 
  -7 -13  -6    1.68    1.32 
  -8 -13  -6    1.12    1.45 
  -9 -13  -6   -0.11    1.53 
  11 -14  -6   -4.21    2.79 
  11 -14  -6    3.02    1.80 
  10 -14  -6    1.26    2.53 
  10 -14  -6    4.33    1.69 
   9 -14  -6    0.25    1.15 
   8 -14  -6    6.67    1.53 
   7 -14  -6    1.97    0.95 
   6 -14  -6   14.34    1.78 
   5 -14  -6   31.35    2.19 
   4 -14  -6    3.74    1.09 
   3 -14  -6   11.38    0.97 
   3 -14  -6   11.10    1.56 
   2 -14  -6    7.03    0.96 
   2 -14  -6    6.14    1.27 
   1 -14  -6   13.41    1.70 
   1 -14  -6   17.62    1.39 
   0 -14  -6    1.90    0.84 
   0 -14  -6    0.45    0.78 
  -1 -14  -6    4.57    1.10 
  -2 -14  -6  113.62    4.28 
  -3 -14  -6   23.50    2.20 
  -4 -14  -6   26.18    2.45 
  -5 -14  -6    0.90    1.07 
  -6 -14  -6    5.16    1.52 
  -7 -14  -6    0.98    1.27 
  -8 -14  -6    0.22    1.44 
  -9 -14  -6   -0.04    1.58 
  11 -15  -6    1.74    3.21 
  11 -15  -6    0.90    1.62 
  10 -15  -6    1.29    1.58 
  10 -15  -6   -0.49    2.49 
   9 -15  -6    4.14    1.55 
   8 -15  -6    1.31    1.12 
   7 -15  -6    9.22    1.57 
   6 -15  -6    4.05    1.15 
   5 -15  -6    2.94    1.07 
   4 -15  -6   24.09    2.18 
   3 -15  -6    1.45    0.83 
   2 -15  -6   55.04    2.19 
   2 -15  -6   55.26    2.91 
   1 -15  -6   36.88    2.33 
   1 -15  -6   36.67    1.90 
   0 -15  -6    4.74    1.18 
   0 -15  -6    4.62    1.03 
  -1 -15  -6   70.95    3.03 
  -2 -15  -6   41.05    2.42 
  -3 -15  -6   76.84    3.52 
  -4 -15  -6   -0.14    0.95 
  -5 -15  -6    1.96    1.10 
  -6 -15  -6    0.70    1.21 
  -7 -15  -6    1.32    1.37 
  -8 -15  -6    0.59    1.40 
  -9 -15  -6    0.00    1.55 
  11 -16  -6    0.84    1.66 
  11 -16  -6    0.98    3.35 
  10 -16  -6    5.14    1.89 
  10 -16  -6    8.34    2.54 
   9 -16  -6   -0.25    1.34 
   8 -16  -6    2.49    1.26 
   7 -16  -6    1.81    1.01 
   6 -16  -6    9.36    1.60 
   5 -16  -6   36.06    2.42 
   4 -16  -6   17.09    2.01 
   3 -16  -6   37.09    2.39 
   2 -16  -6   40.24    2.48 
   2 -16  -6   38.57    1.84 
   1 -16  -6    3.47    0.88 
   1 -16  -6    3.78    1.09 
   0 -16  -6    0.06    0.78 
   0 -16  -6    0.76    0.74 
  -1 -16  -6   66.33    2.94 
  -2 -16  -6   96.13    3.82 
  -3 -16  -6    1.23    0.98 
  -4 -16  -6   11.36    1.69 
  -5 -16  -6    1.50    1.05 
  -6 -16  -6    4.09    1.51 
  -7 -16  -6    2.76    1.50 
  -8 -16  -6    1.21    1.52 
  -9 -16  -6   -0.03    1.61 
  11 -17  -6    2.97    3.60 
  10 -17  -6    0.93    1.67 
   9 -17  -6    8.26    1.86 
   8 -17  -6    0.11    1.08 
   7 -17  -6    5.05    1.38 
   6 -17  -6    0.33    0.91 
   5 -17  -6    8.79    1.50 
   4 -17  -6  111.32    4.48 
   3 -17  -6   49.20    2.84 
   2 -17  -6    1.75    1.00 
   2 -17  -6    2.02    0.79 
   1 -17  -6    0.42    0.72 
   1 -17  -6    2.82    1.08 
   0 -17  -6   43.37    2.59 
   0 -17  -6   32.66    1.98 
  -1 -17  -6   13.79    1.65 
  -2 -17  -6   15.19    1.79 
  -3 -17  -6    3.84    1.25 
  -4 -17  -6    6.35    1.50 
  -5 -17  -6   16.65    2.21 
  -6 -17  -6    2.36    1.39 
  -7 -17  -6   -1.10    1.16 
  -8 -17  -6   -1.72    1.32 
  -9 -17  -6   -0.59    1.59 
  10 -18  -6    2.70    1.77 
   9 -18  -6    1.40    1.44 
   8 -18  -6    4.38    1.52 
   7 -18  -6    0.41    1.09 
   6 -18  -6    1.00    1.05 
   5 -18  -6   24.45    2.28 
   4 -18  -6    3.78    1.19 
   3 -18  -6   18.17    2.05 
   2 -18  -6   11.52    1.74 
   2 -18  -6   11.22    1.22 
   1 -18  -6   69.50    3.42 
   1 -18  -6   73.86    2.86 
   0 -18  -6    5.88    1.34 
   0 -18  -6    7.52    1.25 
  -1 -18  -6   -0.06    0.85 
  -1 -18  -6    0.24    0.88 
  -2 -18  -6   -0.74    0.78 
  -3 -18  -6    1.49    1.05 
  -4 -18  -6   24.54    2.43 
  -5 -18  -6    2.28    1.16 
  -6 -18  -6    6.34    1.69 
  -7 -18  -6    0.08    1.29 
  -8 -18  -6    0.38    1.47 
  -9 -18  -6    2.79    1.75 
  10 -19  -6    1.72    1.71 
   9 -19  -6    4.76    1.84 
   8 -19  -6    1.55    1.31 
   7 -19  -6    2.14    1.18 
   6 -19  -6    1.49    1.15 
   5 -19  -6    1.39    0.98 
   4 -19  -6   42.99    2.77 
   3 -19  -6   53.14    3.05 
   2 -19  -6   52.42    2.95 
   2 -19  -6   54.98    2.33 
   1 -19  -6    0.21    0.86 
   1 -19  -6    1.11    0.88 
   0 -19  -6    0.92    0.95 
   0 -19  -6   -0.29    0.81 
  -1 -19  -6    1.26    0.98 
  -1 -19  -6    0.11    0.76 
  -2 -19  -6    1.11    1.00 
  -3 -19  -6    4.31    1.29 
  -4 -19  -6    2.43    1.19 
  -5 -19  -6    2.19    1.25 
  -6 -19  -6    2.93    1.44 
  -7 -19  -6    0.08    1.30 
  -8 -19  -6   -0.98    1.27 
  10 -20  -6    3.93    1.83 
   9 -20  -6    1.65    1.63 
   8 -20  -6    0.56    1.22 
   7 -20  -6    5.84    1.52 
   6 -20  -6    3.43    1.23 
   5 -20  -6    2.68    1.19 
   4 -20  -6    1.03    1.07 
   3 -20  -6   23.85    2.38 
   2 -20  -6    1.78    1.09 
   2 -20  -6    1.82    0.87 
   1 -20  -6   14.77    1.94 
   1 -20  -6   17.97    1.62 
   0 -20  -6   18.26    2.08 
   0 -20  -6   21.58    1.87 
  -1 -20  -6    1.98    1.06 
  -1 -20  -6    0.43    0.85 
  -2 -20  -6   10.23    1.63 
  -2 -20  -6    9.68    1.64 
  -3 -20  -6    2.64    1.14 
  -4 -20  -6    4.86    1.42 
  -5 -20  -6    1.42    1.28 
  -6 -20  -6    1.10    1.30 
  -7 -20  -6   -0.32    1.33 
  -8 -20  -6   -0.38    1.43 
  10 -21  -6    0.95    1.80 
   9 -21  -6    0.79    1.72 
   8 -21  -6    1.77    1.54 
   7 -21  -6    1.42    1.34 
   6 -21  -6    1.53    1.16 
   5 -21  -6   18.50    2.18 
   4 -21  -6   16.28    2.10 
   3 -21  -6   11.02    1.82 
   2 -21  -6    7.46    1.52 
   1 -21  -6   25.94    2.42 
   1 -21  -6   26.07    1.79 
   0 -21  -6    2.99    1.10 
   0 -21  -6    3.55    1.30 
  -1 -21  -6    0.00    0.93 
  -1 -21  -6   -1.30    0.73 
  -2 -21  -6    2.75    1.05 
  -2 -21  -6    5.04    1.46 
  -3 -21  -6    4.34    1.30 
  -4 -21  -6   -0.37    1.01 
  -5 -21  -6    5.44    1.55 
  -6 -21  -6    0.35    1.34 
  -7 -21  -6    0.79    1.48 
  -8 -21  -6    1.52    1.63 
   9 -22  -6    0.42    1.69 
   8 -22  -6    3.35    1.63 
   7 -22  -6    2.25    1.46 
   6 -22  -6    9.14    1.76 
   5 -22  -6    2.01    1.20 
   4 -22  -6    5.41    1.44 
   3 -22  -6   19.62    2.25 
   2 -22  -6    1.47    1.10 
   1 -22  -6    0.12    0.94 
   1 -22  -6    1.07    0.92 
   0 -22  -6    2.48    1.19 
   0 -22  -6    1.31    0.93 
  -1 -22  -6    7.33    1.49 
  -1 -22  -6    7.25    1.40 
  -2 -22  -6    1.15    1.13 
  -2 -22  -6   -0.01    1.00 
  -3 -22  -6    5.19    1.33 
  -4 -22  -6   12.33    2.00 
  -5 -22  -6    1.77    1.31 
  -6 -22  -6    0.33    1.44 
  -7 -22  -6    1.33    1.65 
  -8 -22  -6    1.44    1.59 
   9 -23  -6   -0.93    1.55 
   8 -23  -6    0.61    1.52 
   7 -23  -6    7.75    1.78 
   6 -23  -6    1.07    1.39 
   5 -23  -6    1.49    1.28 
   4 -23  -6    3.71    1.29 
   3 -23  -6    1.40    1.12 
   2 -23  -6    1.46    1.05 
   1 -23  -6    1.90    1.02 
   1 -23  -6    1.67    1.13 
   0 -23  -6   12.64    1.88 
   0 -23  -6    8.05    1.39 
  -1 -23  -6    0.69    0.95 
  -1 -23  -6   -0.62    0.88 
  -2 -23  -6    3.53    1.38 
  -2 -23  -6    3.15    1.24 
  -3 -23  -6   10.09    1.79 
  -3 -23  -6   10.44    1.89 
  -4 -23  -6    1.56    1.26 
  -5 -23  -6    0.70    1.36 
  -6 -23  -6    0.70    1.41 
  -7 -23  -6   -0.66    1.58 
   9 -24  -6   -1.25    1.71 
   8 -24  -6    5.27    1.91 
   7 -24  -6   -0.07    1.26 
   6 -24  -6    0.94    1.21 
   5 -24  -6    5.07    1.51 
   4 -24  -6   16.51    2.17 
   3 -24  -6    3.42    1.35 
   2 -24  -6    0.19    1.03 
   1 -24  -6    3.82    1.21 
   1 -24  -6    4.64    1.35 
   0 -24  -6    0.78    0.97 
   0 -24  -6    1.05    1.08 
  -1 -24  -6    9.60    1.78 
  -1 -24  -6    6.78    1.37 
  -2 -24  -6    3.70    1.26 
  -2 -24  -6    2.53    1.27 
  -3 -24  -6    1.51    1.24 
  -3 -24  -6    1.83    1.33 
  -4 -24  -6    4.62    1.54 
  -5 -24  -6    1.06    1.44 
  -6 -24  -6   -0.06    1.44 
  -7 -24  -6    0.52    1.63 
   8 -25  -6    0.95    1.63 
   7 -25  -6    0.02    1.39 
   6 -25  -6    7.15    1.75 
   5 -25  -6    9.11    1.85 
   4 -25  -6    2.67    1.34 
   3 -25  -6    1.40    1.11 
   2 -25  -6   15.32    2.15 
   1 -25  -6    2.80    1.29 
   1 -25  -6    2.37    1.19 
   0 -25  -6    4.85    1.33 
   0 -25  -6    7.06    1.43 
  -1 -25  -6    2.45    1.19 
  -1 -25  -6    2.88    1.19 
  -2 -25  -6    1.88    1.26 
  -2 -25  -6    1.99    1.23 
  -3 -25  -6    4.19    1.44 
  -3 -25  -6    3.84    1.39 
  -4 -25  -6    0.33    1.25 
  -4 -25  -6    0.50    1.35 
  -5 -25  -6    0.14    1.34 
  -6 -25  -6    0.14    1.47 
  -7 -25  -6    0.84    1.71 
   8 -26  -6   -0.09    1.79 
   7 -26  -6    0.56    1.38 
   6 -26  -6    2.89    1.53 
   5 -26  -6    1.83    1.36 
   4 -26  -6    4.36    1.52 
   3 -26  -6    4.29    1.49 
   2 -26  -6    1.02    1.19 
   1 -26  -6    5.88    1.53 
   0 -26  -6   -0.74    0.99 
   0 -26  -6    1.73    1.21 
  -1 -26  -6   12.57    1.79 
  -1 -26  -6   11.64    1.86 
  -2 -26  -6    2.10    1.14 
  -2 -26  -6    1.33    1.31 
  -3 -26  -6   -0.32    1.11 
  -3 -26  -6    1.57    1.42 
  -4 -26  -6    2.43    1.46 
  -4 -26  -6    3.64    1.52 
  -5 -26  -6    1.59    1.55 
  -5 -26  -6   -0.85    1.50 
  -6 -26  -6    0.20    1.55 
   8 -27  -6    0.67    1.82 
   7 -27  -6    1.87    1.55 
   6 -27  -6    0.16    1.29 
   5 -27  -6    1.87    1.56 
   4 -27  -6    1.12    1.23 
   3 -27  -6    1.05    1.20 
   2 -27  -6    4.52    1.45 
   1 -27  -6    0.08    1.13 
   0 -27  -6   13.14    1.89 
   0 -27  -6    8.94    1.80 
  -1 -27  -6   -0.04    1.09 
  -1 -27  -6    2.42    1.35 
  -2 -27  -6    0.40    1.13 
  -2 -27  -6    1.19    1.30 
  -3 -27  -6    6.65    1.76 
  -3 -27  -6    1.93    1.31 
  -4 -27  -6    0.19    1.31 
  -4 -27  -6   -0.79    1.42 
  -5 -27  -6    2.36    1.61 
  -6 -27  -6    0.00    1.57 
   7 -28  -6    0.90    1.48 
   6 -28  -6    1.44    1.44 
   5 -28  -6    1.04    1.40 
   4 -28  -6    0.72    1.41 
   3 -28  -6    0.89    1.18 
   2 -28  -6   -0.39    1.19 
   1 -28  -6   14.16    2.20 
   0 -28  -6    1.60    1.28 
   0 -28  -6    0.70    1.22 
  -1 -28  -6    7.43    1.84 
  -1 -28  -6   13.89    2.04 
  -2 -28  -6    0.97    1.26 
  -2 -28  -6    0.04    1.24 
  -3 -28  -6    0.13    1.37 
  -3 -28  -6   -0.29    1.19 
  -4 -28  -6    1.26    1.77 
  -4 -28  -6    4.18    1.62 
  -5 -28  -6   -0.05    1.44 
  -6 -28  -6   -1.15    1.40 
   7 -29  -6    0.51    1.45 
   6 -29  -6   -0.84    1.47 
   5 -29  -6   -0.76    1.32 
   4 -29  -6   -0.23    1.42 
   3 -29  -6    1.27    1.39 
   2 -29  -6    5.99    1.66 
   1 -29  -6    0.06    1.30 
   0 -29  -6   11.00    2.03 
   0 -29  -6   10.20    1.87 
  -1 -29  -6   -0.45    1.22 
  -1 -29  -6    1.03    1.28 
  -2 -29  -6    7.65    1.85 
  -3 -29  -6    4.17    1.77 
  -3 -29  -6    1.92    1.50 
  -4 -29  -6    2.51    1.59 
  -5 -29  -6    0.56    1.55 
   6 -30  -6    1.86    1.60 
   5 -30  -6    0.46    1.40 
   4 -30  -6    0.91    1.45 
   3 -30  -6   -0.10    1.23 
   2 -30  -6    0.99    1.35 
   1 -30  -6   11.97    2.18 
   0 -30  -6    0.33    1.34 
  -1 -30  -6    9.35    1.98 
  -1 -30  -6    8.76    1.91 
  -2 -30  -6    1.70    1.48 
  -2 -30  -6    1.74    1.51 
  -3 -30  -6   -1.31    1.38 
  -3 -30  -6   -0.43    1.61 
  -4 -30  -6    0.40    1.47 
  -5 -30  -6    0.07    1.47 
   6 -31  -6    1.09    1.57 
   5 -31  -6   -0.37    1.42 
   4 -31  -6   -0.01    1.37 
   3 -31  -6   -0.94    1.29 
   2 -31  -6   -0.75    1.41 
   1 -31  -6    4.49    1.78 
   0 -31  -6   16.15    2.46 
  -1 -31  -6    1.92    1.58 
  -1 -31  -6    2.67    1.59 
  -2 -31  -6    2.27    1.51 
  -2 -31  -6    3.07    1.54 
  -3 -31  -6    0.78    1.47 
  -3 -31  -6    1.38    1.55 
  -4 -31  -6   -0.74    1.37 
   5 -32  -6    0.11    1.52 
   4 -32  -6   -2.07    1.34 
   3 -32  -6    1.59    1.61 
   2 -32  -6    1.86    1.52 
   1 -32  -6   12.44    2.22 
   0 -32  -6    0.31    1.51 
  -1 -32  -6    0.72    1.57 
  -1 -32  -6    1.24    1.53 
  -2 -32  -6    0.78    1.63 
  -2 -32  -6    1.95    1.56 
  -3 -32  -6   -0.94    1.48 
   4 -33  -6    1.17    1.63 
   3 -33  -6   -0.32    1.47 
   2 -33  -6    0.18    1.47 
   1 -33  -6    2.69    1.61 
   0 -33  -6    0.37    1.52 
  -1 -33  -6    2.24    1.62 
  -1 -33  -6    1.72    1.71 
  -2 -33  -6    3.73    1.77 
  -3 -33  -6    0.76    1.61 
   3 -34  -6    1.52    1.51 
   2 -34  -6    1.38    1.74 
   1 -34  -6    2.77    1.71 
   0 -34  -6    0.62    1.70 
  -1 -34  -6    2.00    1.82 
   1 -35  -6    0.89    1.70 
  -2 -33   7    3.09    2.07 
  -1 -33   7    0.11    1.86 
   0 -33   7   -2.32    1.75 
  -4 -32   7    0.98    1.72 
  -3 -32   7    0.00    1.71 
  -2 -32   7    0.83    1.98 
  -1 -32   7    1.62    1.95 
   0 -32   7   -1.17    1.65 
   1 -32   7    1.91    1.97 
   2 -32   7   -0.47    1.68 
  -5 -31   7   -1.48    1.48 
  -4 -31   7    2.03    1.88 
  -3 -31   7    1.03    1.84 
  -2 -31   7    3.28    1.91 
  -1 -31   7    1.01    1.79 
   0 -31   7    1.85    1.98 
   1 -31   7    3.89    2.07 
   2 -31   7    1.25    2.00 
   3 -31   7    0.65    1.84 
  -5 -30   7    1.89    1.72 
  -4 -30   7   -1.16    1.43 
  -3 -30   7    0.41    1.63 
  -2 -30   7    3.69    1.93 
  -1 -30   7    1.73    1.76 
   0 -30   7   -0.38    1.65 
   1 -30   7    2.21    1.96 
   2 -30   7    1.62    1.88 
   3 -30   7   -0.51    1.69 
   6  29  -7    1.65    2.26 
  -6 -29   7    2.69    1.71 
   5  29  -7   -1.37    2.12 
  -5 -29   7    2.10    1.76 
  -4 -29   7   -0.98    1.44 
  -3 -29   7    0.17    1.46 
  -2 -29   7    1.97    1.77 
  -1 -29   7    2.64    1.95 
   0 -29   7    0.63    1.72 
   1 -29   7    1.73    1.66 
   2 -29   7    2.99    2.03 
   3 -29   7    2.64    1.93 
   4 -29   7   -1.12    1.83 
  -7 -28   7    0.56    1.51 
   7  28  -7    0.78    2.29 
   6  28  -7    1.41    2.15 
  -6 -28   7    2.24    1.68 
   5  28  -7    0.98    2.23 
  -5 -28   7    2.78    1.81 
  -4 -28   7    0.43    1.50 
  -3 -28   7   -0.54    1.43 
  -2 -28   7    4.37    1.89 
  -1 -28   7    0.97    1.49 
   0 -28   7    2.10    1.74 
   1 -28   7    5.03    2.01 
   2 -28   7    0.19    1.80 
   3 -28   7    3.29    1.94 
   4 -28   7    4.26    2.23 
   5 -28   7    3.22    2.06 
   7  27  -7    2.69    2.57 
  -7 -27   7   -1.02    1.45 
   6  27  -7    0.45    2.02 
  -6 -27   7    1.61    1.59 
   5  27  -7    3.66    2.27 
  -5 -27   7    4.12    1.76 
   4  27  -7   -1.93    1.68 
  -4 -27   7    1.38    1.49 
  -3 -27   7    1.53    1.52 
  -2 -27   7    2.53    1.65 
  -1 -27   7   -0.21    1.35 
   0 -27   7    2.76    1.83 
   1 -27   7    5.10    1.97 
   2 -27   7   -0.16    1.55 
   3 -27   7    8.47    2.34 
   4 -27   7   -1.14    1.69 
   5 -27   7    3.71    2.11 
   7  26  -7   -0.56    2.11 
  -7 -26   7    1.39    1.52 
   6  26  -7   -0.09    1.99 
  -6 -26   7    0.73    1.38 
   5  26  -7    1.69    1.89 
  -5 -26   7    2.30    1.42 
   4  26  -7    2.89    1.83 
  -4 -26   7    0.81    1.27 
  -3 -26   7    0.39    1.42 
  -2 -26   7    3.49    1.69 
  -1 -26   7    3.30    1.62 
   0 -26   7    3.71    1.68 
   1 -26   7    1.40    1.61 
   2 -26   7   -0.05    1.51 
   3 -26   7    2.97    1.85 
   4 -26   7    3.28    2.03 
   5 -26   7    1.74    1.84 
   5 -26   7    0.08    1.83 
  -8 -25   7    1.08    1.52 
   8  25  -7    2.80    2.35 
   7  25  -7    1.09    2.22 
  -7 -25   7    1.46    1.47 
   6  25  -7    4.43    2.21 
  -6 -25   7    0.69    1.40 
   5  25  -7    0.67    1.64 
  -5 -25   7    0.34    1.27 
   4  25  -7    8.36    2.32 
  -4 -25   7    6.11    1.88 
  -3 -25   7    1.46    1.53 
  -2 -25   7    4.80    1.73 
  -1 -25   7    1.62    1.38 
   0 -25   7   17.72    2.79 
   1 -25   7    3.65    1.77 
   2 -25   7   -1.30    1.26 
   3 -25   7    7.28    2.15 
   4 -25   7    4.05    1.89 
   5 -25   7   12.04    2.52 
   5 -25   7    5.75    2.30 
   6 -25   7   -0.49    2.01 
   6 -25   7    0.40    2.02 
   8  24  -7    0.81    2.35 
  -8 -24   7    1.62    1.57 
  -7 -24   7    4.34    1.66 
   7  24  -7   -1.36    1.92 
  -6 -24   7    0.52    1.27 
   6  24  -7    1.92    1.90 
   5  24  -7    0.71    1.60 
  -5 -24   7    1.05    1.37 
   4  24  -7    1.87    1.48 
  -4 -24   7    2.80    1.42 
   3  24  -7    4.77    1.98 
  -3 -24   7    4.58    1.52 
  -2 -24   7    8.13    1.95 
  -1 -24   7   11.23    2.12 
   0 -24   7    5.82    1.83 
   1 -24   7   13.00    2.35 
   2 -24   7    4.19    1.77 
   3 -24   7    1.16    1.69 
   4 -24   7    9.26    2.32 
   4 -24   7    9.57    2.11 
   5 -24   7    1.08    1.89 
   5 -24   7    3.05    1.76 
   6 -24   7    2.44    1.93 
   6 -24   7    3.22    2.14 
  -9 -23   7    2.61    1.62 
   9  23  -7   -1.55    2.06 
  -8 -23   7    0.01    1.38 
   8  23  -7    2.28    2.24 
   7  23  -7    0.16    1.80 
  -7 -23   7    0.24    1.24 
  -6 -23   7    4.22    1.59 
   6  23  -7    3.17    1.88 
  -5 -23   7    9.37    1.99 
   5  23  -7    4.07    1.75 
   4  23  -7    7.27    1.86 
  -4 -23   7    4.38    1.48 
   3  23  -7    2.53    1.54 
  -3 -23   7    0.39    1.31 
  -2 -23   7    5.12    1.61 
  -1 -23   7    1.34    1.26 
   0 -23   7   13.33    2.25 
   1 -23   7    5.77    1.62 
   2 -23   7    4.40    1.63 
   3 -23   7   14.68    2.12 
   3 -23   7   12.70    2.43 
   4 -23   7    0.15    1.26 
   4 -23   7    0.00    1.52 
   5 -23   7    8.11    2.43 
   5 -23   7    8.87    2.05 
   6 -23   7    0.62    1.91 
   6 -23   7    3.19    2.12 
   7 -23   7   -1.32    1.86 
   9  22  -7    1.07    2.38 
  -8 -22   7    1.04    1.40 
   8  22  -7    4.70    2.42 
   7  22  -7   -0.97    1.67 
  -7 -22   7    0.05    1.23 
  -6 -22   7    4.01    1.48 
   6  22  -7    3.65    1.74 
  -5 -22   7    7.08    1.67 
   5  22  -7    7.75    2.05 
  -4 -22   7    3.84    1.43 
   4  22  -7    3.63    1.44 
  -3 -22   7    4.68    1.54 
   3  22  -7    4.36    1.55 
  -2 -22   7    0.20    1.12 
  -1 -22   7   13.09    2.13 
   0 -22   7    1.45    1.09 
   1 -22   7   14.27    2.18 
   2 -22   7   17.02    2.58 
   3 -22   7    1.35    1.37 
   3 -22   7    2.95    1.26 
   4 -22   7    7.17    2.06 
   4 -22   7    6.96    1.63 
   5 -22   7    1.51    1.69 
   5 -22   7    2.21    1.62 
   6 -22   7    1.56    1.86 
   6 -22   7   -0.52    1.89 
   7 -22   7    2.27    2.08 
   7 -22   7    1.13    2.15 
   9  21  -7    2.26    2.45 
  -8 -21   7    0.47    1.24 
   8  21  -7    1.29    2.32 
  -7 -21   7    6.71    1.78 
   7  21  -7    4.08    2.27 
   6  21  -7    0.91    1.71 
  -6 -21   7    1.50    1.21 
  -5 -21   7    1.10    1.18 
   5  21  -7   -0.54    1.29 
  -4 -21   7    4.76    1.51 
   4  21  -7    6.76    1.84 
  -3 -21   7   18.64    2.44 
   3  21  -7   20.93    2.60 
   2  21  -7    2.22    1.59 
  -2 -21   7    3.83    1.53 
  -1 -21   7    1.98    1.30 
   0 -21   7   14.85    2.32 
   1 -21   7    3.55    1.42 
   2 -21   7   14.02    1.84 
   2 -21   7    8.91    1.98 
   3 -21   7    6.68    1.87 
   3 -21   7    7.87    1.64 
   4 -21   7    1.33    1.27 
   4 -21   7    1.32    1.47 
   5 -21   7    2.67    1.63 
   5 -21   7    0.92    1.63 
   6 -21   7    1.32    1.86 
   6 -21   7    2.91    1.92 
   7 -21   7    3.62    2.12 
   7 -21   7    0.16    1.91 
   9  20  -7   -1.79    2.04 
  -8 -20   7    7.14    1.81 
   8  20  -7    4.00    2.19 
  -7 -20   7    4.89    1.48 
   7  20  -7    5.78    2.34 
  -6 -20   7    1.64    1.33 
   6  20  -7    2.22    1.56 
   5  20  -7    1.26    1.33 
  -5 -20   7   -0.99    0.86 
   4  20  -7    0.46    1.15 
  -4 -20   7    1.76    1.11 
   3  20  -7    8.44    1.77 
  -3 -20   7   11.33    2.05 
   2  20  -7    9.14    1.94 
  -2 -20   7   10.94    1.97 
  -1 -20   7    4.98    1.50 
   0 -20   7    2.78    1.24 
   1 -20   7   11.23    1.98 
   2 -20   7   18.94    2.00 
   2 -20   7   13.72    2.26 
   3 -20   7   -1.04    1.01 
   3 -20   7    2.35    1.18 
   4 -20   7    1.01    1.35 
   4 -20   7    1.28    1.12 
   5 -20   7    0.35    1.68 
   5 -20   7    1.69    1.44 
   6 -20   7    8.82    2.17 
   6 -20   7    0.69    1.92 
   7 -20   7    0.08    1.79 
   7 -20   7    1.86    2.03 
  10  19  -7   -0.49    2.47 
   9  19  -7    6.38    2.73 
  -8 -19   7    1.13    1.17 
   8  19  -7    1.29    2.15 
  -7 -19   7    4.99    1.55 
   7  19  -7    5.54    2.14 
   6  19  -7    5.25    1.87 
  -6 -19   7    5.61    1.54 
  -5 -19   7    3.82    1.36 
   5  19  -7    3.98    1.54 
  -4 -19   7    2.63    1.20 
   4  19  -7    3.73    1.46 
  -3 -19   7   37.46    3.11 
   3  19  -7   35.84    2.88 
   2  19  -7   17.11    2.29 
  -2 -19   7   18.61    2.37 
  -1 -19   7    3.98    1.36 
   0 -19   7    5.87    1.52 
   1 -19   7   11.51    2.05 
   1 -19   7    0.95    0.81 
   2 -19   7   24.12    2.81 
   2 -19   7   27.42    2.29 
   3 -19   7   -0.71    1.13 
   3 -19   7    1.31    1.10 
   4 -19   7    2.38    1.30 
   4 -19   7    0.41    1.37 
   5 -19   7   -1.78    1.34 
   5 -19   7    1.93    1.39 
   6 -19   7    0.03    1.49 
   6 -19   7    0.07    1.61 
   7 -19   7    3.08    1.92 
  -8  19  -7    4.13    2.77 
   8 -19   7    0.63    1.95 
  10  18  -7    3.64    2.80 
   9  18  -7   -0.14    2.20 
   8  18  -7    4.24    2.43 
  -8 -18   7    1.71    1.19 
  -7 -18   7    1.32    1.10 
   7  18  -7    1.84    1.84 
   6  18  -7    4.11    1.81 
  -6 -18   7    7.68    1.64 
  -5 -18   7    0.01    0.93 
   5  18  -7    1.80    1.36 
  -4 -18   7    0.37    0.93 
   4  18  -7    1.68    1.23 
  -3 -18   7    1.68    1.09 
   3  18  -7    1.90    1.31 
  -2 -18   7   12.30    1.93 
   2  18  -7   10.39    1.90 
  -1 -18   7   48.47    3.15 
   0 -18   7    2.05    1.16 
   1 -18   7    8.87    1.41 
   1 -18   7   19.65    2.41 
   2 -18   7    8.86    1.82 
   2 -18   7   11.24    1.64 
   3 -18   7   -1.42    1.05 
   3 -18   7    2.10    1.14 
   4 -18   7    0.30    1.06 
   4 -18   7    1.66    1.40 
   5 -18   7   -0.92    1.39 
   5 -18   7   -1.31    1.12 
   6 -18   7    0.99    1.79 
   6 -18   7    0.76    1.64 
   7 -18   7    0.07    1.79 
  -7  18  -7    0.35    2.12 
  -8  18  -7   -0.32    2.21 
   8 -18   7   -0.43    1.93 
  10  17  -7    2.48    2.58 
   9  17  -7    2.72    2.25 
  -8 -17   7    1.79    1.29 
   8  17  -7    0.26    1.81 
  -7 -17   7    1.74    1.00 
   7  17  -7   -1.26    1.41 
  -6 -17   7    2.58    1.16 
   6  17  -7    0.65    1.29 
   5  17  -7    3.65    1.53 
  -5 -17   7    0.87    1.03 
  -4 -17   7    7.28    1.56 
   4  17  -7    7.18    1.76 
  -3 -17   7    9.19    1.72 
   3  17  -7    8.86    1.87 
  -2 -17   7    1.03    0.94 
   2  17  -7    0.72    1.27 
   1  17  -7    6.88    1.53 
  -1 -17   7    6.70    1.49 
   0 -17   7   93.84    4.41 
   1 -17   7    1.77    1.14 
   1 -17   7    0.20    0.79 
   2 -17   7    3.63    1.26 
   2 -17   7    3.68    1.10 
   3 -17   7    3.89    1.37 
   3 -17   7    6.54    1.42 
   4 -17   7    1.22    1.34 
   4 -17   7   -0.36    0.92 
   5 -17   7    2.10    1.42 
   5 -17   7    1.80    1.59 
   6 -17   7    0.18    1.48 
   6 -17   7    1.51    1.93 
  -7  17  -7   -2.03    1.96 
   7 -17   7    0.76    1.69 
  -8  17  -7   -1.13    2.16 
   8 -17   7   -0.81    1.77 
  10  16  -7    4.26    2.80 
   9  16  -7   -0.03    2.09 
   8  16  -7    2.62    2.09 
  -8 -16   7    1.96    1.34 
  -7 -16   7    2.10    1.11 
   7  16  -7    2.14    1.57 
  -6 -16   7   -0.68    0.89 
   6  16  -7   -1.53    1.15 
   5  16  -7    1.28    1.14 
  -5 -16   7   -0.96    0.79 
  -4 -16   7   36.34    2.55 
   4  16  -7   32.60    3.15 
  -3 -16   7    6.88    1.57 
   3  16  -7    3.02    1.33 
   2  16  -7    1.36    1.24 
  -2 -16   7    2.32    1.12 
  -1 -16   7    2.52    1.06 
   1  16  -7    1.56    1.14 
   0 -16   7    2.95    1.24 
   1 -16   7   30.80    2.07 
   1 -16   7   26.55    2.74 
   2 -16   7   -0.60    0.92 
   2 -16   7    2.04    1.05 
   3 -16   7    8.29    1.81 
   3 -16   7    7.89    1.56 
   4 -16   7    4.99    1.66 
   4 -16   7    8.43    1.71 
   5 -16   7    3.80    1.60 
   5 -16   7    1.73    1.38 
   6 -16   7    0.72    1.47 
   6 -16   7   -0.94    1.37 
   7 -16   7    0.65    1.61 
  -7  16  -7    7.93    2.67 
  -8  16  -7   -0.36    1.84 
   8 -16   7    1.88    2.09 
  10  15  -7    1.67    2.58 
   9  15  -7    2.51    2.38 
  -8 -15   7   -0.66    1.03 
   8  15  -7   -0.18    1.75 
  -7 -15   7    6.38    1.44 
   7  15  -7    4.33    1.93 
  -6 -15   7    1.14    1.05 
   6  15  -7   -1.14    1.27 
  -5 -15   7   -0.14    0.77 
   5  15  -7    1.22    1.30 
   4  15  -7   16.04    2.32 
  -4 -15   7   13.80    1.91 
   3  15  -7   11.92    2.02 
  -3 -15   7   12.82    1.93 
   2  15  -7    6.89    1.66 
  -2 -15   7    7.53    1.58 
  -1 -15   7    1.35    0.93 
   1  15  -7    1.21    1.11 
   0 -15   7    1.57    1.04 
   1 -15   7    1.71    1.12 
   2 -15   7   56.63    2.95 
   2 -15   7   47.97    3.21 
   3 -15   7   15.21    2.00 
   3 -15   7   13.28    2.12 
   4 -15   7    2.64    1.37 
   4 -15   7    1.63    1.29 
   5 -15   7   -0.56    1.02 
   5 -15   7   -0.21    1.36 
   6 -15   7    1.45    1.63 
   6 -15   7    1.36    1.56 
  -7  15  -7    0.84    1.84 
   7 -15   7   -0.70    1.52 
  -8  15  -7   -0.35    1.76 
   8 -15   7    1.06    1.98 
  11  14  -7   -0.39    2.64 
  10  14  -7    0.77    2.42 
   9  14  -7   -0.43    2.11 
   8  14  -7    4.19    2.31 
  -7 -14   7    1.01    0.91 
   7  14  -7    0.66    1.52 
   6  14  -7    3.33    1.57 
  -6 -14   7    5.29    1.35 
  -5 -14   7    2.24    1.04 
   5  14  -7    0.37    1.17 
   4  14  -7    0.35    1.22 
  -4 -14   7    0.35    0.82 
   3  14  -7   36.22    2.83 
  -3 -14   7   32.41    2.40 
   2  14  -7   10.51    1.88 
  -2 -14   7    9.61    1.59 
  -1 -14   7    5.16    1.32 
   1  14  -7    8.23    1.55 
   0 -14   7   30.38    2.69 
   1 -14   7   20.33    2.39 
   2 -14   7   -0.10    0.91 
   2 -14   7    2.99    1.27 
   3 -14   7    7.02    1.64 
   3 -14   7    8.37    1.59 
   4 -14   7    0.40    0.95 
   4 -14   7   -0.77    1.00 
   5 -14   7    4.47    1.52 
   5 -14   7    3.15    1.44 
   6 -14   7   -0.41    1.25 
   7 -14   7   -0.37    1.46 
  -7  14  -7   -0.07    1.60 
  -8  14  -7    4.62    2.13 
   8 -14   7    0.43    1.91 
  -9  14  -7    0.97    1.89 
  11  13  -7   -0.66    2.54 
  10  13  -7    2.58    2.62 
   9  13  -7   -2.25    1.71 
   8  13  -7    0.38    1.80 
   7  13  -7    2.46    1.56 
  -7 -13   7    2.72    1.10 
  -6 -13   7    0.61    0.84 
   6  13  -7    0.30    1.26 
   5  13  -7   26.49    3.20 
  -5 -13   7   28.19    2.40 
   4  13  -7    5.41    1.66 
  -4 -13   7    5.09    1.30 
  -3 -13   7    1.72    0.89 
   3  13  -7    0.79    1.16 
  -2 -13   7   27.80    2.42 
   2  13  -7   23.38    2.49 
  -1 -13   7   10.30    1.72 
   1  13  -7   13.39    1.84 
   0 -13   7   16.38    2.05 
   1 -13   7   66.51    3.60 
   2 -13   7    2.44    1.24 
   2 -13   7    3.77    1.22 
   3 -13   7   13.85    1.94 
   3 -13   7   12.60    2.15 
   4 -13   7    2.52    1.35 
   4 -13   7    4.24    1.37 
   5 -13   7   -0.09    1.18 
   5 -13   7    0.34    1.26 
  -6  13  -7    2.06    1.45 
   6 -13   7   -0.42    1.27 
   7 -13   7    2.49    1.69 
  -7  13  -7   -0.98    1.49 
   8 -13   7    1.46    1.92 
  -8  13  -7    0.87    1.83 
  -9  13  -7   -0.97    1.76 
   9 -13   7   -0.35    1.74 
  11  12  -7    5.55    2.95 
  10  12  -7    1.64    2.42 
   9  12  -7    1.31    2.12 
   8  12  -7    3.34    1.87 
  -7 -12   7    2.22    0.98 
   7  12  -7    1.34    1.51 
   6  12  -7   14.52    2.62 
  -6 -12   7   12.83    1.73 
  -5 -12   7   12.47    1.73 
   5  12  -7    8.49    1.94 
   4  12  -7    2.00    1.30 
  -4 -12   7    2.70    1.09 
   3  12  -7   22.38    2.68 
  -3 -12   7   25.82    2.29 
  -2 -12   7    1.50    0.94 
   2  12  -7    1.17    1.24 
   1  12  -7   21.70    2.17 
  -1 -12   7   19.15    2.11 
   0 -12   7   40.84    2.68 
   0  12  -7   40.07    2.48 
   1 -12   7    2.50    1.17 
   2 -12   7    4.10    1.46 
   2 -12   7    7.09    1.52 
   3 -12   7   -0.38    1.01 
   3 -12   7   -0.61    0.82 
   4 -12   7    1.08    1.20 
   4 -12   7    0.94    0.99 
   5 -12   7    1.66    1.18 
   5 -12   7    1.70    1.38 
   6 -12   7    2.07    1.33 
  -6  12  -7    1.18    1.53 
  -7  12  -7    1.69    1.53 
   7 -12   7    2.38    1.68 
   8 -12   7    3.29    2.02 
  -8  12  -7    2.98    1.87 
   9 -12   7   -0.76    1.86 
  -9  12  -7   -1.65    1.58 
  11  11  -7   -0.97    2.16 
  10  11  -7    3.34    2.49 
   9  11  -7    1.31    2.13 
   8  11  -7   -0.59    1.54 
  -7 -11   7    4.53    1.25 
   7  11  -7    3.77    1.79 
   6  11  -7    0.07    1.21 
  -6 -11   7   -0.10    0.75 
   5  11  -7   53.22    3.86 
  -5 -11   7   56.48    2.97 
  -4 -11   7    0.22    0.76 
   4  11  -7   -0.40    1.13 
  -3 -11   7   -0.02    0.78 
   3  11  -7   -0.23    1.26 
   2  11  -7   43.22    3.03 
  -2 -11   7   44.88    2.62 
  -1 -11   7    3.30    1.13 
   1  11  -7    3.69    1.33 
   0  11  -7   54.16    2.90 
   0 -11   7   52.16    3.02 
   1 -11   7    2.20    1.06 
   2 -11   7    2.58    1.24 
   3 -11   7   35.33    2.48 
   3 -11   7   35.60    3.16 
   4 -11   7    1.75    1.28 
   4 -11   7    3.10    1.29 
   5 -11   7    3.33    1.38 
   5 -11   7    4.18    1.69 
  -6  11  -7   -1.18    1.14 
   6 -11   7    0.79    1.28 
  -7  11  -7    0.61    1.48 
   7 -11   7   -1.62    1.33 
  -8  11  -7    2.17    1.62 
   8 -11   7   -0.82    1.41 
   9 -11   7    1.65    1.92 
  -9  11  -7   -0.97    1.78 
  11  10  -7    3.62    2.57 
  10  10  -7    0.93    2.14 
   9  10  -7    2.13    2.05 
   8  10  -7   -0.88    1.50 
   7  10  -7    2.57    1.61 
  -7 -10   7    1.58    1.03 
   6  10  -7    6.03    1.97 
  -6 -10   7    6.81    1.42 
   5  10  -7    3.03    1.54 
  -5 -10   7    1.77    0.86 
  -4 -10   7   21.65    2.04 
   4  10  -7   24.49    2.97 
  -3 -10   7   23.93    2.14 
   3  10  -7   25.98    2.90 
  -2 -10   7   22.00    2.11 
   2  10  -7   26.66    2.73 
  -1 -10   7   29.46    2.40 
   1  10  -7   28.70    2.39 
   0 -10   7    0.58    0.86 
   0  10  -7   -0.30    0.97 
   1 -10   7   23.50    2.44 
   2 -10   7   22.55    2.50 
   3 -10   7    3.69    1.28 
   3 -10   7    2.46    1.30 
   4 -10   7   23.04    2.81 
   4 -10   7   20.76    2.43 
  -5  10  -7    1.48    1.41 
   5 -10   7    3.56    1.44 
   6 -10   7    1.42    1.27 
  -6  10  -7   -0.45    1.22 
  -7  10  -7    0.94    1.30 
   7 -10   7    0.53    1.43 
  -8  10  -7    3.50    1.73 
   8 -10   7    4.14    1.99 
  -9  10  -7   -0.94    1.69 
   9 -10   7   -1.74    1.76 
  11   9  -7    1.88    2.47 
  10   9  -7   -0.51    2.07 
   9   9  -7    0.14    1.91 
   8   9  -7    0.59    1.69 
  -7  -9   7   -0.26    0.61 
   7   9  -7    1.09    1.52 
   6   9  -7    2.80    1.49 
  -6  -9   7    2.02    1.08 
   5   9  -7   57.80    4.03 
  -5  -9   7   54.10    2.83 
   4   9  -7    1.01    1.28 
  -4  -9   7    1.84    0.94 
  -3  -9   7    0.35    0.69 
   3   9  -7   -0.19    1.20 
  -2  -9   7   59.49    2.99 
   2   9  -7   58.13    3.56 
   1   9  -7    6.04    1.55 
  -1  -9   7    7.99    1.43 
   0   9  -7   26.28    2.16 
   0  -9   7   29.00    2.47 
   1  -9   7    8.25    1.60 
   2  -9   7   63.97    3.56 
   3  -9   7   10.91    1.82 
   3  -9   7    7.63    1.74 
   4  -9   7    5.64    1.58 
   4  -9   7    7.83    1.65 
   5  -9   7    6.06    1.63 
  -5   9  -7    4.48    1.60 
   6  -9   7   -0.07    1.21 
  -6   9  -7    0.00    1.19 
  -7   9  -7   -1.99    1.09 
   7  -9   7    0.86    1.43 
   8  -9   7    0.69    1.74 
  -8   9  -7    0.47    1.49 
  -9   9  -7   -0.84    1.65 
   9  -9   7    0.61    1.94 
  11   8  -7    2.57    2.58 
  10   8  -7    2.04    2.32 
   9   8  -7    2.36    2.06 
   8   8  -7   -1.52    1.49 
   7   8  -7    3.11    1.84 
   6   8  -7   15.50    2.66 
  -6  -8   7   19.57    1.83 
  -5  -8   7   27.04    1.93 
   5   8  -7   25.58    3.25 
  -4  -8   7    2.24    0.85 
   4   8  -7    0.96    0.58 
   4   8  -7   -0.23    1.03 
  -3  -8   7    2.22    0.97 
   3   8  -7    2.17    1.47 
   2   8  -7    4.04    1.49 
  -2  -8   7    3.38    1.06 
   1   8  -7   59.50    3.37 
  -1  -8   7   48.39    2.82 
   0   8  -7   26.12    2.33 
   0  -8   7   27.02    2.38 
   1  -8   7   17.43    2.21 
  -1   8  -7   17.70    1.73 
   2  -8   7    2.13    1.07 
   3  -8   7   18.54    2.40 
   4  -8   7    9.01    1.73 
   4  -8   7   13.58    2.28 
  -5   8  -7   -0.06    1.20 
   5  -8   7    0.82    1.13 
  -6   8  -7    9.90    2.02 
   6  -8   7    7.04    1.92 
  -7   8  -7    1.69    1.36 
   7  -8   7    2.76    1.74 
  -8   8  -7    1.89    1.73 
   8  -8   7   -0.69    1.58 
  -9   8  -7    0.52    1.72 
   9  -8   7    0.10    1.69 
  11   7  -7    0.14    2.51 
  10   7  -7    3.88    2.55 
   9   7  -7   -0.74    1.70 
   8   7  -7    0.93    1.59 
   7   7  -7   15.33    2.86 
   6   7  -7    1.81    1.38 
  -6  -7   7    0.33    0.53 
  -5  -7   7    5.11    1.14 
   5   7  -7    4.90    1.69 
   4   7  -7   62.84    2.38 
  -4  -7   7   61.35    2.92 
   4   7  -7   60.54    3.96 
   3   7  -7    4.77    1.70 
  -3  -7   7    2.62    0.86 
   2   7  -7    2.53    1.40 
  -2  -7   7    3.91    1.06 
  -1  -7   7   58.75    3.06 
   1   7  -7   58.42    3.57 
   0   7  -7   72.46    3.71 
   0  -7   7   71.67    3.50 
   1  -7   7   33.36    2.46 
  -1   7  -7   32.37    2.32 
   2  -7   7   15.94    2.13 
   3  -7   7    7.02    1.73 
  -4   7  -7    4.70    1.54 
   4  -7   7    7.80    1.63 
   5  -7   7    9.22    1.85 
  -5   7  -7   11.00    2.00 
  -6   7  -7    2.61    1.21 
   6  -7   7    2.54    1.49 
  -7   7  -7    2.15    1.42 
   7  -7   7    0.13    1.48 
  -8   7  -7    1.98    1.57 
   8  -7   7    0.69    1.83 
   9  -7   7    0.73    2.07 
  -9   7  -7   -2.23    1.43 
  11   6  -7    0.80    2.51 
  10   6  -7   -1.44    1.85 
   9   6  -7    3.36    2.17 
   8   6  -7    0.78    1.72 
   7   6  -7   -0.74    1.24 
  -6  -6   7    2.89    0.81 
   6   6  -7    0.15    1.24 
  -5  -6   7   11.14    1.43 
   5   6  -7   12.43    2.39 
   5   6  -7   14.05    1.21 
   4   6  -7    1.45    0.68 
  -4  -6   7    1.69    0.85 
   4   6  -7    1.76    1.08 
  -3  -6   7   26.69    2.10 
   3   6  -7   22.22    2.90 
   2   6  -7   12.59    2.27 
  -2  -6   7    8.68    1.37 
  -1  -6   7  205.40    6.57 
   1   6  -7  197.31    7.40 
   0   6  -7   49.05    3.03 
   0  -6   7   52.70    2.95 
   1  -6   7   10.47    1.78 
   2  -6   7    5.34    1.43 
   3  -6   7   -0.16    0.92 
  -4   6  -7    4.80    1.57 
   5  -6   7    6.36    1.68 
  -5   6  -7    2.93    1.31 
   6  -6   7    6.24    1.70 
  -6   6  -7    8.26    1.87 
  -7   6  -7    5.16    1.61 
   7  -6   7   10.71    2.24 
  -8   6  -7    2.61    1.71 
   8  -6   7    1.47    1.77 
   9  -6   7    0.31    2.06 
  -9   6  -7    1.11    1.63 
  11   5  -7    0.03    2.44 
  10   5  -7    1.71    2.30 
   9   5  -7   -0.88    1.78 
   8   5  -7    3.32    2.06 
   7   5  -7    1.42    1.56 
   6   5  -7    3.82    1.84 
  -6  -5   7    6.36    1.05 
   5   5  -7    4.01    0.83 
  -5  -5   7    1.98    0.73 
   5   5  -7    6.74    1.89 
   4   5  -7    8.91    2.12 
   4   5  -7    6.47    1.00 
  -4  -5   7    4.58    1.02 
  -3  -5   7    1.01    0.73 
   3   5  -7    0.31    1.26 
   3   5  -7    0.30    0.69 
   2   5  -7  128.30    5.68 
  -2  -5   7  126.33    4.64 
  -1  -5   7  164.97    5.68 
   0  -5   7   65.11    3.34 
   1  -5   7    1.78    1.02 
   2  -5   7   14.52    2.07 
   3  -5   7   -1.43    0.87 
  -4   5  -7   14.94    2.18 
  -5   5  -7    0.44    0.99 
   6  -5   7   -0.17    1.05 
  -6   5  -7    0.95    1.09 
  -7   5  -7    0.65    1.23 
   7  -5   7    4.06    1.84 
   8  -5   7    2.19    1.96 
  -8   5  -7    1.63    1.63 
   9  -5   7    0.72    2.17 
  -9   5  -7    0.28    1.54 
  12   4  -7    3.12    3.06 
  11   4  -7    4.15    2.85 
  10   4  -7   -0.54    2.08 
   9   4  -7    2.05    2.15 
   8   4  -7    6.24    2.26 
   7   4  -7   14.29    2.81 
   6   4  -7   -0.11    0.61 
  -6  -4   7   -0.19    0.56 
   6   4  -7    0.54    1.35 
   5   4  -7    2.45    0.82 
   5   4  -7    2.36    1.64 
  -5  -4   7    3.22    0.92 
   4   4  -7    2.25    1.46 
   4   4  -7    4.13    0.87 
  -4  -4   7    3.76    0.98 
   3   4  -7   68.42    4.25 
  -3  -4   7   72.01    3.18 
   3   4  -7   74.63    2.90 
  -2  -4   7   62.45    3.03 
  -1  -4   7  302.12    8.79 
   0  -4   7    8.59    1.59 
   1  -4   7   28.50    2.54 
   2  -4   7    1.14    1.05 
  -3   4  -7   -0.47    0.75 
  -4   4  -7    1.38    1.01 
  -5   4  -7   11.91    1.99 
  -6   4  -7    1.88    1.12 
  -7   4  -7   -0.55    0.99 
   7  -4   7   -0.04    1.34 
   8  -4   7    2.42    2.04 
  -8   4  -7    1.34    1.52 
  -9   4  -7   -0.41    1.56 
   9  -4   7   -3.09    1.89 
  12   3  -7    1.36    3.13 
  11   3  -7    2.24    2.66 
  10   3  -7    6.13    2.76 
   9   3  -7    1.93    1.85 
   8   3  -7    8.73    2.47 
   7   3  -7    1.54    1.72 
   6   3  -7    2.64    1.78 
   6   3  -7    3.24    0.88 
   5   3  -7    0.55    0.73 
  -5  -3   7    2.02    0.80 
   5   3  -7   -0.15    1.27 
   4   3  -7   15.74    1.38 
   4   3  -7   19.45    2.85 
   3   3  -7   29.58    1.85 
  -3  -3   7   27.39    1.92 
  -2  -3   7  113.94    4.30 
  -1  -3   7    2.85    1.14 
   0  -3   7   96.29    4.10 
   1  -3   7    3.25    1.19 
   2  -3   7   -1.26    0.85 
  -3   3  -7   -0.40    0.70 
  -4   3  -7    7.77    1.66 
  -5   3  -7    1.81    1.20 
  -6   3  -7    4.83    1.52 
  -7   3  -7    1.01    1.21 
  -8   3  -7    0.04    1.40 
  -9   3  -7   -0.94    1.39 
  12   2  -7    1.35    2.69 
  11   2  -7   -0.54    2.39 
  10   2  -7    2.51    2.33 
   9   2  -7    0.79    1.82 
   8   2  -7    4.41    2.27 
   7   2  -7    2.12    0.87 
   7   2  -7    2.20    1.60 
   6   2  -7   -0.28    0.70 
   6   2  -7    0.47    1.49 
  -5  -2   7    4.32    0.88 
   5   2  -7    3.38    0.92 
   5   2  -7    0.50    1.44 
   4   2  -7   10.18    1.79 
  -4  -2   7    4.90    1.01 
   4   2  -7    5.24    1.03 
   3   2  -7   65.98    2.80 
  -3  -2   7   66.21    2.97 
  -2  -2   7    0.08    0.75 
  -1  -2   7   29.10    2.12 
   0  -2   7    0.13    0.98 
   1  -2   7  142.98    5.37 
  -2   2  -7   11.47    1.73 
  -3   2  -7    0.47    0.78 
  -4   2  -7    2.15    1.03 
  -5   2  -7    6.31    1.59 
  -6   2  -7    1.30    1.15 
  -7   2  -7    0.10    1.20 
  -8   2  -7   -0.80    1.23 
  -9   2  -7    0.03    1.58 
  12   1  -7    1.29    2.77 
  11   1  -7   -2.12    2.35 
  10   1  -7   -0.25    2.10 
   9   1  -7    8.82    2.48 
   8   1  -7    1.86    1.85 
   7   1  -7   11.83    1.42 
   7   1  -7   13.69    2.82 
   6   1  -7   24.63    1.68 
   6   1  -7   23.69    3.53 
  -5  -1   7    6.53    1.04 
   5   1  -7    9.57    2.19 
   5   1  -7    6.36    1.12 
   4   1  -7    8.02    1.17 
  -4  -1   7    7.98    1.21 
  -3  -1   7   11.24    1.43 
   3   1  -7    9.25    1.24 
  -2  -1   7   17.91    1.83 
  -1  -1   7    1.48    1.01 
   0  -1   7   61.55    3.17 
  -2   1  -7   12.18    1.80 
  -3   1  -7    4.26    1.25 
  -4   1  -7   -0.67    0.72 
  -5   1  -7    0.09    1.03 
  -6   1  -7    0.78    1.11 
  -7   1  -7   -0.13    1.08 
  -8   1  -7    0.77    1.44 
  -9   1  -7   -1.08    1.47 
 -10   1  -7    1.23    1.81 
  12   0  -7    2.52    2.73 
  11   0  -7   -0.41    2.49 
  10   0  -7    0.81    2.18 
   9   0  -7    1.55    2.02 
   8   0  -7    2.25    1.81 
   8   0  -7    1.88    1.17 
   7   0  -7    9.21    1.33 
   7   0  -7    5.16    2.27 
   6   0  -7    1.04    1.46 
   6   0  -7    0.22    0.84 
  -5   0   7   24.64    1.55 
   5   0  -7   25.74    1.76 
   4   0  -7    0.05    0.65 
  -4   0   7    1.36    0.72 
   3   0  -7    2.58    0.85 
  -3   0   7    0.68    0.56 
  -2   0   7    0.44    0.75 
  -1   0   7   27.72    2.26 
   0   0   7   -0.64    0.89 
  -1   0  -7  163.93    5.69 
  -2   0  -7   -0.11    0.73 
  -3   0  -7    0.97    0.86 
  -4   0  -7   -0.92    0.70 
  -5   0  -7    1.49    1.07 
  -6   0  -7   -0.52    1.08 
  -7   0  -7   -0.49    1.00 
  -8   0  -7   -1.07    1.09 
  -9   0  -7    2.28    1.77 
 -10   0  -7    1.20    1.71 
  12  -1  -7   -0.89    2.95 
  11  -1  -7   -1.90    2.31 
  10  -1  -7   -1.11    1.88 
   9  -1  -7    6.26    2.40 
   8  -1  -7    2.53    1.18 
   8  -1  -7    0.70    1.72 
   7  -1  -7   11.50    1.47 
   7  -1  -7    8.50    2.44 
   6  -1  -7   22.75    1.68 
   6  -1  -7   25.51    3.58 
   5  -1  -7    4.71    1.05 
  -4   1   7    8.61    1.21 
   4  -1  -7    7.40    1.21 
  -3   1   7    9.99    1.25 
   3  -1  -7   11.92    1.39 
  -2   1   7   17.64    1.74 
  -1   1   7    1.33    0.95 
   0  -1  -7   61.81    3.03 
  -1  -1  -7    4.52    1.22 
  -2  -1  -7   12.81    1.74 
  -3  -1  -7    7.00    1.40 
  -4  -1  -7    0.32    0.82 
  -5  -1  -7    0.04    1.02 
  -6  -1  -7    0.85    1.13 
  -7  -1  -7   -0.63    1.04 
  -8  -1  -7    1.64    1.52 
  -9  -1  -7    1.06    1.59 
 -10  -1  -7    0.77    1.69 
  12  -2  -7   -0.79    2.90 
  11  -2  -7   -0.10    2.48 
  10  -2  -7    0.30    2.00 
   9  -2  -7    0.68    1.65 
   8  -2  -7    4.70    1.21 
   8  -2  -7    5.48    2.47 
   7  -2  -7   -1.41    1.58 
   7  -2  -7    0.67    0.94 
   6  -2  -7    1.33    0.85 
   5  -2  -7    3.16    0.95 
   4  -2  -7    4.74    1.07 
  -4   2   7    4.92    0.95 
   3  -2  -7   64.02    2.89 
  -3   2   7   69.75    2.89 
  -2   2   7   -0.83    0.72 
   1  -2  -7   30.75    2.05 
   0  -2  -7    0.88    0.85 
  -1  -2  -7  102.69    4.14 
  -2  -2  -7   12.15    1.69 
  -3  -2  -7    2.18    0.91 
  -4  -2  -7    3.67    1.12 
  -5  -2  -7    6.38    1.59 
  -6  -2  -7   -0.82    0.99 
  -7  -2  -7    0.68    1.22 
  -8  -2  -7    1.41    1.37 
  -9  -2  -7    0.57    1.53 
  12  -3  -7    3.13    3.15 
  11  -3  -7    1.83    2.53 
  10  -3  -7    5.04    2.54 
   9  -3  -7    0.77    1.91 
   9  -3  -7   -1.32    1.11 
   8  -3  -7    8.75    1.39 
   8  -3  -7    7.67    2.41 
   7  -3  -7    2.71    2.06 
   7  -3  -7    4.65    1.19 
   6  -3  -7    3.17    0.97 
   5  -3  -7    0.42    0.78 
   4  -3  -7   14.37    1.56 
   3  -3  -7   29.75    1.98 
   3  -3  -7   28.26    1.83 
   2  -3  -7  108.71    3.95 
   1  -3  -7    1.32    0.87 
   0  -3  -7   99.63    3.93 
  -1  -3  -7    1.67    0.95 
  -2  -3  -7    1.75    0.84 
  -3  -3  -7    1.43    0.89 
  -4  -3  -7    6.07    1.37 
  -5  -3  -7    1.49    1.06 
  -6  -3  -7    2.40    1.24 
  -7  -3  -7   -0.52    1.08 
  -8  -3  -7    0.38    1.33 
  -9  -3  -7    1.72    1.62 
  12  -4  -7    2.89    2.98 
  11  -4  -7    7.98    3.10 
  10  -4  -7   -0.34    2.13 
   9  -4  -7    1.52    1.91 
   9  -4  -7    0.09    1.11 
   8  -4  -7    7.63    1.40 
   8  -4  -7    3.28    2.12 
   7  -4  -7   12.89    2.52 
   7  -4  -7   13.14    1.57 
   6  -4  -7    0.19    0.80 
   5  -4  -7    2.76    0.99 
   4  -4  -7    2.92    0.79 
   4  -4  -7    3.09    0.98 
   3  -4  -7   69.27    3.09 
   3  -4  -7   73.10    2.90 
   2  -4  -7   66.46    2.92 
   1  -4  -7  287.11    8.06 
   0  -4  -7    8.98    1.45 
  -1  -4  -7   26.94    2.25 
  -2  -4  -7    1.26    0.79 
  -3  -4  -7    1.01    0.81 
  -4  -4  -7    0.34    0.87 
  -5  -4  -7    9.68    1.80 
  -6  -4  -7    1.96    1.18 
  -7  -4  -7    0.16    1.19 
  -8  -4  -7    7.20    1.95 
  -9  -4  -7    0.50    1.50 
  11  -5  -7    0.87    2.44 
  10  -5  -7   -0.53    1.78 
  10  -5  -7    2.67    1.54 
   9  -5  -7   -0.47    1.89 
   9  -5  -7    0.84    1.14 
   8  -5  -7    3.23    1.15 
   8  -5  -7    2.33    2.08 
   7  -5  -7    0.68    0.93 
   6  -5  -7    3.07    1.00 
   5  -5  -7    1.66    0.89 
   4  -5  -7    6.90    0.93 
   4  -5  -7    8.41    1.33 
   3  -5  -7    0.67    0.67 
   3  -5  -7    0.58    0.77 
   2  -5  -7  131.90    4.75 
   2  -5  -7  138.00    4.48 
   1  -5  -7  178.78    5.65 
   0  -5  -7   70.60    3.18 
  -1  -5  -7    0.07    0.79 
  -2  -5  -7   14.90    1.86 
  -3  -5  -7    0.41    0.81 
  -4  -5  -7   11.86    1.85 
  -5  -5  -7   -1.29    0.88 
  -6  -5  -7   -0.26    0.95 
  -7  -5  -7    1.66    1.42 
  -8  -5  -7    1.46    1.44 
  -9  -5  -7    1.42    1.73 
  11  -6  -7    2.52    2.85 
  10  -6  -7    1.70    2.32 
  10  -6  -7    1.31    1.42 
   9  -6  -7    5.01    2.55 
   9  -6  -7    7.31    1.58 
   8  -6  -7    2.39    1.93 
   8  -6  -7    0.19    0.86 
   7  -6  -7    0.20    0.83 
   6  -6  -7    2.84    1.00 
   5  -6  -7   14.49    1.67 
   4  -6  -7    1.00    0.54 
   4  -6  -7    1.58    0.85 
   3  -6  -7   24.84    2.01 
   3  -6  -7   23.93    1.54 
   2  -6  -7    8.74    1.38 
   2  -6  -7    8.45    1.23 
   1  -6  -7  200.18    6.09 
   0  -6  -7   54.44    2.76 
  -1  -6  -7   11.90    1.64 
  -2  -6  -7    3.55    1.11 
  -3  -6  -7    0.55    0.84 
  -4  -6  -7    2.85    1.16 
  -5  -6  -7    3.31    1.30 
  -6  -6  -7    7.93    1.85 
  -7  -6  -7    7.58    1.84 
  -8  -6  -7    2.52    1.57 
  -9  -6  -7    2.53    1.91 
  11  -7  -7   -1.70    2.44 
  10  -7  -7    3.55    1.58 
  10  -7  -7    3.97    2.79 
   9  -7  -7   -1.81    1.88 
   9  -7  -7    2.00    1.25 
   8  -7  -7    3.23    1.34 
   8  -7  -7   -0.19    0.94 
   7  -7  -7   13.14    1.70 
   6  -7  -7   -0.21    0.72 
   5  -7  -7    4.10    1.10 
   4  -7  -7   67.85    3.07 
   3  -7  -7    3.35    0.99 
   3  -7  -7    3.93    0.82 
   2  -7  -7    2.39    0.85 
   2  -7  -7    3.24    1.05 
   1  -7  -7   61.74    2.87 
   0  -7  -7   76.42    3.33 
  -1  -7  -7   33.60    2.24 
  -2  -7  -7   16.58    1.94 
  -3  -7  -7    5.43    1.34 
  -4  -7  -7    2.54    1.17 
  -5  -7  -7    9.75    1.92 
  -6  -7  -7    1.11    1.16 
  -7  -7  -7    3.88    1.45 
  -8  -7  -7    1.74    1.62 
  -9  -7  -7   -2.31    1.44 
  11  -8  -7    2.55    2.61 
  11  -8  -7    3.22    1.69 
  10  -8  -7    1.98    2.75 
  10  -8  -7    4.83    1.62 
   9  -8  -7    3.33    2.70 
   9  -8  -7    1.89    1.24 
   8  -8  -7   -0.47    0.88 
   7  -8  -7    2.35    1.07 
   6  -8  -7   21.26    1.92 
   5  -8  -7   28.59    2.06 
   4  -8  -7    1.38    0.83 
   3  -8  -7    2.99    0.76 
   3  -8  -7    2.59    0.94 
   2  -8  -7    2.38    0.83 
   2  -8  -7    2.05    0.90 
   1  -8  -7   57.10    2.67 
   0  -8  -7   25.23    2.02 
  -1  -8  -7   17.42    1.86 
  -2  -8  -7    1.27    0.89 
  -3  -8  -7   20.69    2.21 
  -4  -8  -7   11.21    1.80 
  -5  -8  -7   -0.39    0.88 
  -6  -8  -7    6.65    1.73 
  -7  -8  -7    1.95    1.39 
  -8  -8  -7   -0.15    1.35 
  -9  -8  -7   -0.80    1.51 
  11  -9  -7    2.67    2.92 
  11  -9  -7    0.14    1.59 
  10  -9  -7   -0.22    2.30 
  10  -9  -7    0.33    1.42 
   9  -9  -7   -0.71    2.08 
   9  -9  -7    0.06    1.18 
   8  -9  -7    0.97    1.00 
   7  -9  -7    2.18    1.06 
   6  -9  -7    4.02    1.10 
   5  -9  -7   62.42    3.06 
   4  -9  -7    1.22    0.88 
   3  -9  -7    0.68    0.80 
   3  -9  -7    0.64    0.61 
   2  -9  -7   67.49    2.69 
   2  -9  -7   61.35    3.05 
   1  -9  -7    9.14    1.31 
   0  -9  -7   27.73    1.93 
  -1  -9  -7   11.50    1.60 
  -2  -9  -7   65.15    3.26 
  -3  -9  -7   11.09    1.75 
  -4  -9  -7    7.85    1.57 
  -5  -9  -7    2.81    1.32 
  -6  -9  -7   -1.01    1.08 
  -7  -9  -7   -0.04    1.41 
  -8  -9  -7   -2.27    1.20 
  -9  -9  -7    1.56    1.67 
  11 -10  -7    3.26    1.77 
  11 -10  -7    3.13    3.03 
  10 -10  -7   -2.92    2.14 
  10 -10  -7    0.91    1.45 
   9 -10  -7    1.07    1.91 
   9 -10  -7    0.42    1.21 
   8 -10  -7   -0.65    0.99 
   7 -10  -7    2.36    1.05 
   6 -10  -7    9.09    1.45 
   5 -10  -7    0.98    0.91 
   4 -10  -7   21.47    2.01 
   3 -10  -7   24.74    2.12 
   3 -10  -7   22.33    1.38 
   2 -10  -7   22.35    2.05 
   2 -10  -7   26.57    1.67 
   1 -10  -7   35.58    2.04 
   0 -10  -7    1.50    0.83 
  -1 -10  -7   24.92    2.15 
  -2 -10  -7   24.33    2.25 
  -3 -10  -7    1.02    0.91 
  -4 -10  -7   17.59    2.16 
  -5 -10  -7    1.80    1.27 
  -6 -10  -7   -0.71    1.01 
  -7 -10  -7   -0.76    1.28 
  -8 -10  -7    0.76    1.51 
  -9 -10  -7    0.34    1.66 
  11 -11  -7    2.11    1.70 
  11 -11  -7    4.67    3.19 
  10 -11  -7    0.26    2.50 
  10 -11  -7    2.86    1.53 
   9 -11  -7    1.25    1.27 
   8 -11  -7   -0.27    0.97 
   7 -11  -7    4.41    1.27 
   6 -11  -7    0.15    0.83 
   5 -11  -7   61.58    3.12 
   4 -11  -7   -0.10    0.74 
   3 -11  -7    1.27    0.63 
   3 -11  -7   -0.02    0.79 
   2 -11  -7   49.80    2.24 
   2 -11  -7   47.36    2.72 
   1 -11  -7    5.12    1.07 
   1 -11  -7    3.68    1.12 
   0 -11  -7   56.02    2.73 
  -1 -11  -7    4.09    1.11 
  -2 -11  -7    2.57    1.09 
  -3 -11  -7   34.37    2.42 
  -4 -11  -7    3.94    1.32 
  -5 -11  -7    2.27    1.26 
  -6 -11  -7    0.76    1.17 
  -7 -11  -7   -0.75    1.26 
  -8 -11  -7    0.71    1.44 
  -9 -11  -7    3.91    2.03 
  11 -12  -7    3.48    1.76 
  11 -12  -7    2.53    3.34 
  10 -12  -7   -0.16    1.47 
  10 -12  -7    1.56    2.89 
   9 -12  -7    4.47    1.52 
   8 -12  -7    2.08    1.13 
   7 -12  -7    1.97    1.09 
   6 -12  -7   13.37    1.68 
   5 -12  -7   10.68    1.58 
   4 -12  -7    2.57    1.03 
   3 -12  -7   27.08    1.45 
   3 -12  -7   25.70    2.25 
   2 -12  -7    2.63    0.90 
   2 -12  -7    1.13    0.91 
   1 -12  -7   19.30    1.69 
   1 -12  -7   19.43    2.05 
   0 -12  -7   43.52    2.42 
  -1 -12  -7    0.78    0.84 
  -2 -12  -7    8.44    1.59 
  -3 -12  -7    0.03    0.86 
  -4 -12  -7    1.60    1.08 
  -5 -12  -7    1.23    1.17 
  -6 -12  -7    0.51    1.12 
  -7 -12  -7    1.34    1.43 
  -8 -12  -7    3.16    1.75 
  -9 -12  -7   -1.02    1.56 
  11 -13  -7    3.76    1.86 
  11 -13  -7    2.64    3.36 
  10 -13  -7    2.57    1.68 
  10 -13  -7    2.12    3.05 
   9 -13  -7    2.72    1.46 
   8 -13  -7   -0.11    1.14 
   7 -13  -7    1.65    1.02 
   6 -13  -7   -0.32    0.80 
   5 -13  -7   31.45    2.29 
   4 -13  -7    3.63    1.14 
   3 -13  -7    1.23    0.91 
   2 -13  -7   24.58    2.23 
   2 -13  -7   28.35    1.68 
   1 -13  -7   15.50    1.50 
   1 -13  -7   12.11    1.75 
   0 -13  -7   16.71    1.75 
  -1 -13  -7   74.40    3.38 
  -2 -13  -7    3.14    1.16 
  -3 -13  -7   11.59    1.87 
  -4 -13  -7    2.14    1.11 
  -5 -13  -7    0.84    1.13 
  -6 -13  -7   -0.13    1.17 
  -7 -13  -7    1.20    1.46 
  -8 -13  -7   -0.69    1.38 
  -9 -13  -7    0.61    1.68 
  11 -14  -7    0.64    1.69 
  11 -14  -7   -2.92    3.04 
  10 -14  -7    3.81    1.75 
  10 -14  -7    2.15    3.30 
   9 -14  -7    0.08    1.28 
   8 -14  -7    1.87    1.17 
   7 -14  -7   -0.16    1.05 
   6 -14  -7    4.29    1.25 
   5 -14  -7    3.15    1.05 
   4 -14  -7    0.13    0.84 
   3 -14  -7   38.17    2.52 
   2 -14  -7   10.69    1.18 
   2 -14  -7   10.72    1.62 
   1 -14  -7    5.05    1.10 
   1 -14  -7    5.47    1.35 
   0 -14  -7   28.31    1.93 
  -1 -14  -7   22.14    2.02 
  -2 -14  -7    2.68    1.12 
  -3 -14  -7    8.85    1.62 
  -4 -14  -7    1.54    1.16 
  -5 -14  -7    5.22    1.53 
  -6 -14  -7   -1.33    1.06 
  -7 -14  -7    1.08    1.52 
  -8 -14  -7    1.70    1.68 
  -9 -14  -7   -0.79    1.47 
  10 -15  -7    0.92    2.20 
  10 -15  -7    1.25    1.68 
   9 -15  -7    2.32    1.45 
   8 -15  -7    0.51    1.22 
   7 -15  -7    6.58    1.52 
   6 -15  -7    1.45    1.01 
   5 -15  -7   -1.28    0.75 
   4 -15  -7   17.59    2.01 
   3 -15  -7    9.51    1.62 
   2 -15  -7    4.13    1.21 
   2 -15  -7    6.40    1.06 
   1 -15  -7    1.24    1.00 
   1 -15  -7    1.69    0.83 
   0 -15  -7    1.05    0.90 
   0 -15  -7   -0.11    0.78 
  -1 -15  -7    0.82    0.96 
  -2 -15  -7   57.80    3.04 
  -3 -15  -7   12.21    1.89 
  -4 -15  -7    0.08    1.10 
  -5 -15  -7    0.13    1.05 
  -6 -15  -7   -0.37    1.17 
  -7 -15  -7   -0.81    1.32 
  -8 -15  -7   -0.22    1.47 
  10 -16  -7    3.84    1.86 
   9 -16  -7    1.40    1.51 
   8 -16  -7    2.10    1.37 
   7 -16  -7    1.58    1.16 
   6 -16  -7    0.33    0.97 
   5 -16  -7    0.70    0.89 
   4 -16  -7   28.54    2.52 
   3 -16  -7    3.92    1.16 
   2 -16  -7    1.33    0.92 
   2 -16  -7    2.07    0.85 
   1 -16  -7    1.19    0.94 
   1 -16  -7    0.69    0.79 
   0 -16  -7    6.15    1.43 
   0 -16  -7    4.25    1.08 
  -1 -16  -7   34.13    2.22 
  -2 -16  -7    1.28    1.04 
  -3 -16  -7    7.18    1.54 
  -4 -16  -7    6.85    1.55 
  -5 -16  -7    1.35    1.18 
  -6 -16  -7    0.77    1.29 
  -7 -16  -7   -0.21    1.44 
  -8 -16  -7   -2.04    1.46 
  10 -17  -7    0.27    1.63 
   9 -17  -7    1.04    1.53 
   8 -17  -7    0.35    1.24 
   7 -17  -7    2.12    1.21 
   6 -17  -7   -0.27    0.95 
   5 -17  -7    1.01    1.00 
   4 -17  -7    4.83    1.29 
   3 -17  -7    6.87    1.44 
   2 -17  -7    0.73    0.90 
   2 -17  -7    0.94    0.75 
   1 -17  -7    7.30    1.23 
   1 -17  -7    9.46    1.68 
   0 -17  -7  111.30    4.12 
   0 -17  -7  116.81    4.78 
  -1 -17  -7    1.94    1.02 
  -2 -17  -7    3.79    1.22 
  -3 -17  -7    3.58    1.22 
  -4 -17  -7    0.61    1.17 
  -5 -17  -7    1.33    1.42 
  -6 -17  -7    0.58    1.33 
  -7 -17  -7    1.11    1.55 
  -8 -17  -7   -0.36    1.50 
  10 -18  -7    5.74    2.09 
   9 -18  -7    1.02    1.56 
   8 -18  -7   -0.34    1.28 
   7 -18  -7    4.21    1.43 
   6 -18  -7    4.72    1.39 
   5 -18  -7    0.31    0.98 
   4 -18  -7    0.75    1.10 
   3 -18  -7    1.21    1.07 
   2 -18  -7   11.01    1.80 
   1 -18  -7   50.29    2.43 
   1 -18  -7   52.57    3.13 
   0 -18  -7    1.27    0.97 
   0 -18  -7    2.17    1.12 
  -1 -18  -7   21.06    1.98 
  -1 -18  -7   17.92    2.24 
  -2 -18  -7    9.84    1.60 
  -3 -18  -7    0.77    1.01 
  -4 -18  -7    1.08    1.10 
  -5 -18  -7    0.67    1.28 
  -6 -18  -7    0.25    1.42 
  -7 -18  -7    1.13    1.55 
  -8 -18  -7    0.33    1.55 
  10 -19  -7   -0.94    1.57 
   9 -19  -7    2.31    1.67 
   8 -19  -7    0.34    1.26 
   7 -19  -7    4.09    1.52 
   6 -19  -7    6.54    1.62 
   5 -19  -7    3.16    1.26 
   4 -19  -7    2.69    1.23 
   3 -19  -7   44.35    2.89 
   2 -19  -7   18.60    2.23 
   1 -19  -7    5.56    1.21 
   1 -19  -7    5.58    1.41 
   0 -19  -7    8.65    1.37 
   0 -19  -7    7.75    1.63 
  -1 -19  -7   13.17    2.04 
  -1 -19  -7   12.54    1.64 
  -2 -19  -7   21.54    2.17 
  -3 -19  -7    1.38    1.02 
  -4 -19  -7    3.56    1.43 
  -5 -19  -7    0.67    1.31 
  -6 -19  -7    0.50    1.50 
  -7 -19  -7    2.60    1.70 
  -8 -19  -7    1.60    1.69 
   9 -20  -7    1.54    1.73 
   8 -20  -7    4.39    1.61 
   7 -20  -7    3.99    1.62 
   6 -20  -7    2.56    1.32 
   5 -20  -7   -1.54    0.84 
   4 -20  -7    1.65    1.19 
   3 -20  -7    7.30    1.66 
   2 -20  -7   12.61    1.90 
   1 -20  -7    9.61    1.70 
   1 -20  -7    8.91    1.42 
   0 -20  -7    3.19    1.13 
   0 -20  -7    2.81    1.24 
  -1 -20  -7   18.96    1.95 
  -1 -20  -7   20.48    2.40 
  -2 -20  -7   18.81    2.07 
  -3 -20  -7    0.83    1.09 
  -4 -20  -7    1.23    1.22 
  -5 -20  -7   -0.77    1.35 
  -6 -20  -7    0.30    1.36 
  -7 -20  -7    0.48    1.65 
   9 -21  -7    3.64    1.90 
   8 -21  -7    2.31    1.52 
   7 -21  -7    2.27    1.52 
   6 -21  -7    1.76    1.38 
   5 -21  -7    0.38    1.07 
   4 -21  -7    3.60    1.44 
   3 -21  -7   14.06    1.98 
   2 -21  -7    2.55    1.31 
   1 -21  -7    3.10    1.13 
   1 -21  -7    3.69    1.28 
   0 -21  -7   17.32    1.79 
   0 -21  -7   14.27    2.10 
  -1 -21  -7    5.39    1.33 
  -1 -21  -7    7.11    1.60 
  -2 -21  -7   11.11    1.69 
  -2 -21  -7   11.86    2.08 
  -3 -21  -7    3.31    1.31 
  -4 -21  -7   -0.30    1.15 
  -5 -21  -7    1.45    1.42 
  -6 -21  -7    2.68    1.66 
  -7 -21  -7    2.09    1.66 
   9 -22  -7    0.05    1.79 
   8 -22  -7    3.17    1.65 
   7 -22  -7    0.81    1.43 
   6 -22  -7    1.15    1.34 
   5 -22  -7    6.86    1.64 
   4 -22  -7    1.70    1.24 
   3 -22  -7    8.86    1.77 
   2 -22  -7   -0.38    0.99 
   1 -22  -7   14.84    1.71 
   1 -22  -7   14.03    2.03 
   0 -22  -7    0.86    1.00 
   0 -22  -7    1.59    1.14 
  -1 -22  -7   16.71    1.89 
  -1 -22  -7   15.14    2.19 
  -2 -22  -7   21.33    2.21 
  -2 -22  -7   24.36    2.72 
  -3 -22  -7    2.10    1.31 
  -4 -22  -7    7.34    1.69 
  -5 -22  -7    0.89    1.42 
  -6 -22  -7    0.94    1.49 
  -7 -22  -7    2.38    1.78 
   9 -23  -7   -0.04    1.78 
   8 -23  -7    3.79    1.74 
   7 -23  -7    1.38    1.44 
   6 -23  -7    3.48    1.63 
   5 -23  -7    6.86    1.76 
   4 -23  -7    8.60    1.72 
   3 -23  -7    0.26    1.10 
   2 -23  -7    3.46    1.33 
   1 -23  -7    0.50    1.03 
   0 -23  -7   14.39    1.80 
   0 -23  -7   16.76    2.31 
  -1 -23  -7    3.75    1.42 
  -1 -23  -7    7.38    1.50 
  -2 -23  -7    9.77    1.80 
  -2 -23  -7    6.92    1.61 
  -3 -23  -7   17.04    2.17 
  -3 -23  -7   15.57    2.37 
  -4 -23  -7   -0.82    1.23 
  -5 -23  -7    7.89    1.96 
  -6 -23  -7   -0.40    1.39 
  -7 -23  -7   -0.11    1.71 
   8 -24  -7    2.57    1.72 
   7 -24  -7    5.28    1.72 
   6 -24  -7    0.80    1.34 
   5 -24  -7    1.32    1.29 
   4 -24  -7    3.34    1.44 
   3 -24  -7    2.14    1.29 
   2 -24  -7    7.97    1.70 
   1 -24  -7    9.76    1.84 
   0 -24  -7    4.69    1.33 
   0 -24  -7    2.64    1.31 
  -1 -24  -7   15.31    2.24 
  -1 -24  -7   11.66    1.78 
  -2 -24  -7    3.78    1.40 
  -2 -24  -7    1.96    1.29 
  -3 -24  -7    0.19    1.36 
  -3 -24  -7    0.61    1.26 
  -4 -24  -7   10.71    2.12 
  -5 -24  -7    0.61    1.50 
  -6 -24  -7    2.99    1.80 
   8 -25  -7    2.34    1.77 
   7 -25  -7    1.33    1.57 
   6 -25  -7   -0.78    1.30 
   5 -25  -7   -1.03    1.16 
   4 -25  -7    6.73    1.73 
   3 -25  -7    2.98    1.47 
   2 -25  -7    5.28    1.64 
   1 -25  -7    1.56    1.26 
   0 -25  -7   14.62    2.20 
   0 -25  -7   14.30    1.90 
  -1 -25  -7    4.52    1.36 
  -1 -25  -7    0.80    1.37 
  -2 -25  -7    1.11    1.26 
  -2 -25  -7   -0.70    1.23 
  -3 -25  -7    8.92    1.89 
  -3 -25  -7   10.25    2.10 
  -4 -25  -7   -0.08    1.31 
  -4 -25  -7   -1.60    1.47 
  -5 -25  -7    8.12    2.04 
  -6 -25  -7    0.40    1.67 
   7 -26  -7    0.27    1.46 
   6 -26  -7   -2.01    1.25 
   5 -26  -7    1.06    1.41 
   4 -26  -7    4.65    1.58 
   3 -26  -7    2.13    1.40 
   2 -26  -7    3.33    1.41 
   1 -26  -7    7.44    1.73 
   0 -26  -7    5.04    1.47 
   0 -26  -7    2.06    1.42 
  -1 -26  -7    3.15    1.34 
  -1 -26  -7    2.25    1.35 
  -2 -26  -7    2.88    1.42 
  -2 -26  -7    1.01    1.38 
  -3 -26  -7    0.26    1.31 
  -3 -26  -7    1.53    1.52 
  -4 -26  -7    3.40    1.66 
  -4 -26  -7    5.71    1.95 
  -5 -26  -7    1.38    1.89 
  -5 -26  -7   -0.63    1.54 
   7 -27  -7   -1.27    1.32 
   6 -27  -7    1.05    1.59 
   5 -27  -7    1.17    1.50 
   4 -27  -7    1.10    1.40 
   3 -27  -7    3.87    1.73 
   2 -27  -7    1.45    1.37 
   1 -27  -7   -0.26    1.23 
   0 -27  -7    4.24    1.62 
   0 -27  -7    1.01    1.36 
  -1 -27  -7    4.86    1.62 
  -1 -27  -7    3.41    1.41 
  -2 -27  -7    2.44    1.39 
  -2 -27  -7    0.94    1.45 
  -3 -27  -7    3.81    1.85 
  -3 -27  -7    6.10    1.77 
  -4 -27  -7    0.43    1.66 
  -4 -27  -7    1.26    1.47 
  -5 -27  -7    4.32    2.20 
  -5 -27  -7    4.84    1.93 
   7 -28  -7    2.33    1.56 
   6 -28  -7    3.57    1.69 
   5 -28  -7    2.45    1.64 
   4 -28  -7   -1.43    1.25 
   3 -28  -7    0.09    1.43 
   2 -28  -7   -0.50    1.34 
   1 -28  -7   -2.38    1.12 
   0 -28  -7   -0.18    1.29 
  -1 -28  -7    1.98    1.43 
  -1 -28  -7    5.02    1.63 
  -2 -28  -7    3.84    1.82 
  -2 -28  -7    3.44    1.53 
  -3 -28  -7    2.31    1.49 
  -3 -28  -7    0.53    1.62 
  -4 -28  -7    4.17    1.67 
  -4 -28  -7    2.74    2.00 
  -5 -28  -7    1.41    1.60 
   6 -29  -7    0.61    1.51 
   5 -29  -7    2.58    1.68 
   4 -29  -7   -1.72    1.26 
   3 -29  -7    0.88    1.46 
   2 -29  -7    0.26    1.47 
   0 -29  -7    1.65    1.45 
  -1 -29  -7    0.72    1.54 
  -1 -29  -7    2.98    1.64 
  -2 -29  -7    0.44    1.60 
  -2 -29  -7    2.01    1.57 
  -3 -29  -7    5.20    2.03 
  -3 -29  -7    3.97    1.72 
  -4 -29  -7    3.59    2.10 
  -4 -29  -7    0.30    1.56 
   5 -30  -7    0.01    1.57 
   4 -30  -7   -0.12    1.41 
   3 -30  -7    1.26    1.53 
   2 -30  -7    0.32    1.51 
   1 -30  -7   -0.80    1.44 
   0 -30  -7    0.15    1.49 
  -1 -30  -7    0.07    1.53 
  -1 -30  -7   -0.23    1.51 
  -2 -30  -7    3.07    1.67 
  -2 -30  -7    3.69    1.91 
  -3 -30  -7    0.77    1.55 
  -3 -30  -7    0.25    1.65 
   5 -31  -7    1.44    1.57 
   4 -31  -7   -0.72    1.46 
   3 -31  -7    2.78    1.67 
   2 -31  -7    0.15    1.48 
   1 -31  -7   -1.27    1.47 
   0 -31  -7    4.24    1.92 
  -1 -31  -7    4.85    1.90 
  -2 -31  -7    0.86    1.59 
  -2 -31  -7   -0.68    1.57 
  -3 -31  -7    2.93    1.73 
  -3 -31  -7    1.47    1.85 
   4 -32  -7   -1.22    1.50 
   3 -32  -7    0.99    1.66 
   2 -32  -7    1.49    1.56 
   1 -32  -7    0.07    1.57 
   0 -32  -7   -0.64    1.57 
  -1 -32  -7    3.23    1.82 
  -2 -32  -7    0.28    1.59 
  -2 -32  -7    3.07    1.89 
   2 -33  -7   -0.18    1.54 
   1 -33  -7    0.52    1.68 
   0 -33  -7   -0.53    1.68 
  -3 -31   8    0.42    1.76 
  -2 -31   8    0.45    1.77 
  -1 -31   8    2.63    2.04 
   0 -31   8    5.79    2.41 
  -4 -30   8    1.43    1.69 
  -3 -30   8    1.25    1.95 
  -2 -30   8    1.62    1.81 
  -1 -30   8   10.50    2.70 
   0 -30   8    3.46    2.05 
   1 -30   8    4.69    2.34 
   2 -30   8   -1.22    1.80 
  -5 -29   8   -0.26    1.66 
  -4 -29   8    2.87    1.99 
  -3 -29   8    2.08    1.89 
  -2 -29   8    4.59    2.01 
  -1 -29   8    0.04    1.70 
   0 -29   8    2.60    2.10 
   1 -29   8   -0.73    1.76 
   2 -29   8    2.66    1.93 
  -5 -28   8    0.26    1.69 
  -4 -28   8    1.79    1.80 
  -3 -28   8    3.06    1.87 
  -2 -28   8   -0.13    1.59 
  -1 -28   8    6.06    2.04 
   0 -28   8    2.89    1.84 
   1 -28   8    6.72    2.29 
   2 -28   8   -3.60    1.54 
   3 -28   8    2.79    2.02 
  -6 -27   8    1.03    1.59 
   6  27  -8   -0.33    2.13 
  -5 -27   8    0.77    1.66 
  -4 -27   8    0.31    1.65 
  -3 -27   8    3.88    1.90 
  -2 -27   8    2.27    1.67 
  -1 -27   8    0.46    1.65 
   0 -27   8    4.87    2.02 
   1 -27   8    1.31    1.88 
   2 -27   8    2.32    1.99 
   3 -27   8   -0.70    1.80 
   4 -27   8    0.31    1.95 
  -7 -26   8    1.39    1.75 
   7  26  -8    1.96    2.31 
  -6 -26   8    0.84    1.58 
   6  26  -8    4.05    2.36 
   5  26  -8    2.94    2.39 
  -5 -26   8    1.90    1.82 
  -4 -26   8    7.31    2.09 
  -3 -26   8    3.76    1.73 
  -2 -26   8    0.92    1.51 
  -1 -26   8    1.59    1.54 
   0 -26   8   -0.53    1.47 
   1 -26   8    6.38    2.15 
   2 -26   8   -1.12    1.53 
   3 -26   8   -1.07    1.73 
   4 -26   8    3.34    2.12 
   7  25  -8    3.54    2.39 
  -7 -25   8    4.07    1.78 
   6  25  -8    2.20    2.16 
  -6 -25   8    2.15    1.80 
  -5 -25   8    9.36    2.19 
   5  25  -8    8.01    2.51 
  -4 -25   8    1.02    1.63 
  -3 -25   8    3.57    1.72 
  -2 -25   8    3.43    1.81 
  -1 -25   8    2.42    1.63 
   0 -25   8    3.04    1.68 
   1 -25   8   -0.82    1.37 
   2 -25   8    1.48    1.72 
   3 -25   8   -0.30    1.55 
   4 -25   8    2.21    2.04 
   5 -25   8   -1.78    1.63 
  -7 -24   8   -0.11    1.64 
   7  24  -8    0.56    2.04 
   6  24  -8    6.67    2.43 
  -6 -24   8    5.45    1.88 
   5  24  -8    3.39    2.00 
  -4 -24   8    3.65    1.74 
  -3 -24   8    2.64    1.55 
  -2 -24   8    2.09    1.51 
  -1 -24   8    2.94    1.67 
   0 -24   8    2.45    1.56 
   1 -24   8    0.12    1.34 
   2 -24   8   -0.41    1.40 
   3 -24   8    0.85    1.68 
   4 -24   8   -0.10    1.70 
   5 -24   8   -0.90    1.87 
   5 -24   8   -1.19    1.70 
  -8 -23   8    1.47    1.83 
   8  23  -8    2.60    2.25 
   7  23  -8   10.53    2.76 
  -7 -23   8   13.12    2.50 
  -6 -23   8    0.64    1.33 
   6  23  -8    2.77    2.19 
  -5 -23   8    9.52    2.12 
   5  23  -8    4.50    2.12 
  -4 -23   8    0.30    1.33 
   4  23  -8   -0.65    1.60 
  -3 -23   8    0.76    1.41 
  -2 -23   8    5.00    1.83 
  -1 -23   8    0.15    1.20 
   0 -23   8    4.28    1.75 
   1 -23   8   -1.28    1.23 
   2 -23   8    1.90    1.65 
   3 -23   8    0.64    1.59 
   4 -23   8    0.93    1.89 
   5 -23   8   -0.54    1.89 
   5 -23   8   -2.60    1.63 
  -8 -22   8    5.86    2.16 
   8  22  -8    1.98    2.26 
  -7 -22   8    1.34    1.47 
   7  22  -8   -0.87    1.96 
  -6 -22   8    2.99    1.57 
   6  22  -8    3.43    2.06 
   5  22  -8   -2.34    1.34 
  -5 -22   8    1.08    1.44 
  -4 -22   8    2.71    1.58 
   4  22  -8    4.12    1.84 
  -3 -22   8    4.18    1.63 
  -2 -22   8    0.90    1.22 
  -1 -22   8    7.79    1.92 
   0 -22   8    3.02    1.43 
   1 -22   8    0.81    1.30 
   2 -22   8    0.26    1.46 
   3 -22   8    2.07    1.65 
   4 -22   8    2.17    1.85 
   4 -22   8    2.23    1.65 
   5 -22   8   -0.09    1.61 
   5 -22   8   -2.42    1.51 
   6 -22   8   -0.98    1.92 
   6 -22   8    1.44    2.02 
  -8 -21   8    0.35    1.57 
   8  21  -8    0.33    2.04 
  -7 -21   8    3.26    1.71 
   7  21  -8    6.98    2.45 
   6  21  -8    2.42    1.88 
  -6 -21   8    0.52    1.26 
  -5 -21   8    7.48    1.85 
   5  21  -8    8.96    2.27 
  -4 -21   8    2.79    1.54 
   4  21  -8    0.66    1.43 
  -3 -21   8    0.65    1.19 
  -2 -21   8    1.98    1.28 
  -1 -21   8    2.17    1.33 
   0 -21   8    7.69    1.85 
   1 -21   8    0.61    1.33 
   2 -21   8    0.87    1.37 
   3 -21   8    0.76    1.48 
   3 -21   8    1.19    1.34 
   4 -21   8   -0.34    1.54 
   4 -21   8   -0.11    1.27 
   5 -21   8    2.79    1.75 
   5 -21   8    4.52    2.24 
   6 -21   8   -0.05    1.82 
   6 -21   8   -1.66    1.86 
   9  20  -8    1.30    2.36 
  -8 -20   8   -0.52    1.41 
   8  20  -8   -0.32    2.02 
  -7 -20   8    1.17    1.36 
   7  20  -8   -0.06    1.83 
  -6 -20   8    0.76    1.38 
   6  20  -8    1.80    1.88 
  -5 -20   8    2.79    1.42 
   5  20  -8   -0.39    1.46 
  -4 -20   8    5.73    1.71 
   4  20  -8    3.79    1.69 
   3  20  -8   10.57    2.19 
  -3 -20   8   10.60    1.94 
  -2 -20   8    2.20    1.25 
  -1 -20   8    4.59    1.57 
   0 -20   8    1.87    1.31 
   1 -20   8    2.93    1.48 
   2 -20   8    0.47    1.30 
   3 -20   8    1.62    1.33 
   3 -20   8    0.36    1.56 
   4 -20   8    3.41    1.59 
   4 -20   8    0.29    1.69 
   5 -20   8    0.13    1.66 
   5 -20   8    1.15    1.57 
   6 -20   8    0.35    2.07 
   6 -20   8    0.43    1.85 
   9  19  -8    1.83    2.52 
   8  19  -8    2.32    2.25 
  -8 -19   8    0.26    1.39 
  -7 -19   8    0.71    1.29 
   7  19  -8    0.27    1.82 
  -6 -19   8   -1.07    1.06 
   6  19  -8    1.38    1.99 
  -5 -19   8    2.16    1.33 
   5  19  -8    0.74    1.30 
   4  19  -8   12.30    2.22 
  -4 -19   8   11.95    2.07 
  -3 -19   8   26.18    2.87 
   3  19  -8   20.56    2.63 
  -2 -19   8    8.23    1.85 
  -1 -19   8    2.09    1.25 
   0 -19   8   -0.52    1.09 
   1 -19   8   -0.76    1.00 
   2 -19   8   -0.08    1.26 
   2 -19   8    0.37    1.05 
   3 -19   8   -0.20    1.31 
   3 -19   8    1.68    1.21 
   4 -19   8    1.60    1.46 
   4 -19   8    0.05    1.55 
   5 -19   8    1.28    1.60 
   5 -19   8    0.18    1.78 
   6 -19   8    0.96    1.97 
   6 -19   8    0.27    1.77 
   7 -19   8    0.61    1.93 
  -7  19  -8   -0.56    3.16 
   9  18  -8    0.53    2.22 
   8  18  -8    1.61    2.32 
  -7 -18   8   -1.07    1.09 
   7  18  -8   -0.52    1.68 
  -6 -18   8   -0.53    1.02 
   6  18  -8    0.26    1.59 
  -5 -18   8   -0.21    1.06 
   5  18  -8    0.08    1.35 
   4  18  -8    8.80    2.02 
  -4 -18   8    6.10    1.58 
   3  18  -8   18.42    2.57 
  -3 -18   8   16.76    2.35 
  -2 -18   8    2.18    1.28 
  -1 -18   8   20.12    2.59 
   0 -18   8    0.70    1.00 
   1 -18   8    0.22    1.12 
   2 -18   8    1.71    1.40 
   3 -18   8    3.58    1.68 
   3 -18   8    2.85    1.34 
   4 -18   8    2.30    1.29 
   4 -18   8    0.60    1.51 
   5 -18   8    3.19    1.60 
   5 -18   8    1.00    1.78 
   6 -18   8    0.68    2.07 
   6 -18   8    3.31    1.93 
  -7  18  -8   -1.88    2.55 
   7 -18   8    0.39    1.70 
   9  17  -8    6.48    2.89 
   8  17  -8    3.99    2.37 
  -7 -17   8    0.54    1.12 
   7  17  -8    1.54    1.91 
   6  17  -8    2.12    1.62 
  -6 -17   8    2.44    1.29 
  -5 -17   8    3.38    1.47 
   5  17  -8    1.30    1.44 
  -4 -17   8   27.17    2.75 
   4  17  -8   22.80    2.84 
   3  17  -8   13.67    2.24 
  -3 -17   8   11.22    1.95 
   2  17  -8    6.55    1.78 
  -2 -17   8    5.01    1.53 
  -1 -17   8    4.51    1.42 
   0 -17   8    6.37    1.63 
   1 -17   8    5.17    1.56 
   2 -17   8    0.02    1.00 
   3 -17   8   -0.33    0.99 
   3 -17   8    0.70    1.40 
   4 -17   8    1.13    1.58 
   4 -17   8    1.51    1.29 
   5 -17   8    1.45    1.74 
   5 -17   8    6.67    1.92 
   6 -17   8    3.52    1.91 
   6 -17   8    2.30    2.02 
   7 -17   8    3.15    2.13 
  -7  17  -8    1.58    2.87 
  10  16  -8    3.63    2.74 
   9  16  -8    1.21    2.31 
   8  16  -8    2.05    2.24 
   7  16  -8   -1.75    1.52 
  -7 -16   8    2.43    1.25 
  -6 -16   8    5.74    1.54 
   6  16  -8    3.00    1.76 
   5  16  -8    0.86    1.29 
  -5 -16   8    0.91    1.06 
   4  16  -8    1.22    1.24 
  -4 -16   8    1.70    1.13 
  -3 -16   8   20.73    2.41 
   3  16  -8   16.63    2.39 
   2  16  -8    8.05    1.85 
  -2 -16   8   13.63    2.00 
  -1 -16   8    8.53    1.74 
   0 -16   8    7.35    1.76 
   1 -16   8    6.17    1.68 
   2 -16   8    3.35    1.48 
   3 -16   8    1.51    1.11 
   3 -16   8    1.43    1.29 
   4 -16   8    7.79    2.06 
   4 -16   8    8.35    1.83 
   5 -16   8    1.63    1.71 
   5 -16   8    0.87    1.51 
   6 -16   8    4.43    2.07 
  -7  16  -8   -1.86    2.06 
   7 -16   8    0.05    1.82 
  10  15  -8    1.85    2.72 
   9  15  -8    4.07    2.65 
   8  15  -8    1.25    1.96 
  -7 -15   8    4.63    1.43 
   7  15  -8    1.84    1.76 
  -6 -15   8    0.01    1.03 
   6  15  -8   -0.61    1.35 
   5  15  -8   -0.34    1.19 
  -5 -15   8    0.51    1.00 
  -4 -15   8    0.41    0.97 
   4  15  -8   -0.06    1.16 
  -3 -15   8    9.54    1.81 
   3  15  -8    8.56    1.93 
   2  15  -8   34.72    2.85 
  -2 -15   8   36.16    3.00 
  -1 -15   8    0.72    1.04 
   0 -15   8    1.85    1.13 
   1 -15   8    5.16    1.51 
   2 -15   8    4.26    1.47 
   3 -15   8   17.43    2.28 
   3 -15   8   11.51    2.27 
   4 -15   8    0.98    1.52 
   4 -15   8    0.27    1.32 
   5 -15   8    3.56    1.71 
   5 -15   8    3.39    1.62 
   6 -15   8    5.10    1.75 
  -6  15  -8    3.51    2.19 
  -7  15  -8    1.04    2.15 
   7 -15   8    1.28    1.91 
  10  14  -8   -0.88    2.33 
   9  14  -8   -3.10    1.94 
   8  14  -8    4.23    2.25 
  -7 -14   8    3.36    1.48 
   7  14  -8   -0.63    1.54 
  -6 -14   8    6.63    1.56 
   6  14  -8    9.03    2.29 
  -5 -14   8    0.04    1.00 
   5  14  -8    0.50    1.32 
   4  14  -8    1.34    1.30 
  -4 -14   8   -0.02    0.84 
  -3 -14   8    6.96    1.55 
   3  14  -8    5.64    1.65 
   2  14  -8    8.84    2.01 
  -2 -14   8   13.31    2.01 
  -1 -14   8   11.51    1.85 
   0 -14   8    0.96    1.03 
   1 -14   8   12.84    2.06 
   2 -14   8    9.98    2.01 
   3 -14   8    2.63    1.40 
   4 -14   8   14.41    2.32 
   4 -14   8   16.45    2.72 
   5 -14   8    1.60    1.74 
   5 -14   8    1.79    1.38 
  -6  14  -8    2.93    2.25 
   6 -14   8    8.02    2.23 
  -7  14  -8   -1.03    1.94 
   7 -14   8   -1.80    1.59 
   8 -14   8    2.50    2.01 
  -8  14  -8    1.19    2.31 
  10  13  -8   -1.41    2.27 
   9  13  -8    4.12    2.43 
   8  13  -8    1.60    1.88 
  -7 -13   8    5.17    1.44 
   7  13  -8    3.93    1.89 
   6  13  -8    1.12    1.44 
  -6 -13   8    0.11    0.91 
   5  13  -8    9.65    2.10 
  -5 -13   8    9.88    1.66 
  -4 -13   8   -0.23    0.80 
   4  13  -8    0.02    1.14 
   3  13  -8    0.15    1.19 
  -3 -13   8   -0.65    0.88 
  -2 -13   8   23.57    2.46 
   2  13  -8   27.86    2.82 
   1  13  -8    1.73    1.28 
  -1 -13   8    4.06    1.33 
   0 -13   8   11.77    1.93 
   1 -13   8    1.74    1.18 
   2 -13   8   -0.65    1.01 
   3 -13   8   47.28    3.42 
   4 -13   8    1.21    1.25 
   4 -13   8    3.64    1.67 
   5 -13   8   -1.32    1.13 
   5 -13   8    0.63    1.54 
   6 -13   8    1.01    1.52 
  -6  13  -8    1.82    1.91 
  -7  13  -8    9.22    2.53 
   7 -13   8    6.40    2.13 
  -8  13  -8    1.93    2.18 
   8 -13   8    3.26    2.19 
  10  12  -8    3.00    2.64 
   9  12  -8    2.82    2.28 
   8  12  -8   -0.39    1.69 
   7  12  -8    3.13    1.79 
   6  12  -8    2.27    1.60 
  -6 -12   8    3.31    1.15 
  -5 -12   8    0.76    0.90 
   5  12  -8    2.42    1.34 
   4  12  -8    3.97    1.46 
  -4 -12   8    2.31    1.09 
   3  12  -8   -0.49    1.11 
  -3 -12   8    0.05    0.76 
   2  12  -8   58.68    3.69 
  -2 -12   8   54.70    3.21 
   1  12  -8   22.69    2.47 
  -1 -12   8   23.31    2.50 
   0 -12   8    1.67    1.09 
   1 -12   8    2.89    1.32 
   2 -12   8   60.09    3.71 
   3 -12   8    3.63    1.49 
   4 -12   8   10.05    1.93 
   4 -12   8   12.34    2.39 
   5 -12   8    1.41    1.34 
  -6  12  -8    4.30    2.02 
   6 -12   8    5.12    1.97 
  -7  12  -8    3.03    1.94 
   7 -12   8    2.10    1.97 
   8 -12   8    4.24    2.36 
  -8  12  -8    7.49    2.56 
  10  11  -8   -1.52    2.18 
   9  11  -8    1.26    2.25 
   8  11  -8    2.36    2.03 
   7  11  -8   -0.89    1.40 
   6  11  -8   -1.34    1.24 
  -6 -11   8    0.41    0.89 
   5  11  -8    4.68    1.72 
  -5 -11   8    2.52    1.10 
   4  11  -8    1.91    1.36 
  -4 -11   8    0.37    0.80 
   3  11  -8   14.70    2.40 
  -3 -11   8   11.77    1.76 
  -2 -11   8   68.28    3.57 
   2  11  -8   74.40    4.24 
  -1 -11   8   21.21    2.37 
   1  11  -8   23.08    2.54 
   0 -11   8   -0.27    0.87 
   1 -11   8   68.03    3.82 
   2 -11   8   -0.55    1.09 
   3 -11   8   31.11    3.29 
   4 -11   8    5.46    1.78 
   5 -11   8    3.70    1.57 
  -5  11  -8    3.21    1.65 
  -6  11  -8    1.28    1.74 
   6 -11   8    1.90    1.60 
   7 -11   8    3.20    1.98 
  -7  11  -8    3.47    1.90 
   8 -11   8    0.02    1.85 
  -8  11  -8    2.06    1.88 
  11  10  -8    0.06    2.53 
  10  10  -8    0.57    2.39 
   9  10  -8    0.52    2.26 
   8  10  -8    0.86    1.98 
   7  10  -8   -0.04    1.63 
  -6 -10   8    1.06    0.97 
   6  10  -8    0.81    1.43 
   5  10  -8    3.41    1.60 
  -5 -10   8    0.27    0.84 
   4  10  -8   19.28    2.83 
  -4 -10   8   13.80    1.84 
  -3 -10   8   15.54    1.94 
   3  10  -8   18.88    2.62 
  -2 -10   8   40.79    2.68 
   2  10  -8   39.95    3.22 
   1  10  -8    7.54    1.79 
  -1 -10   8    5.46    1.40 
   0 -10   8   15.95    2.09 
   1 -10   8    4.70    1.35 
   2 -10   8   42.71    3.15 
   3 -10   8    0.92    1.20 
   4 -10   8   11.26    2.31 
   5 -10   8    3.54    1.56 
  -5  10  -8   -1.27    1.20 
   6 -10   8    6.80    1.96 
  -6  10  -8    8.46    2.24 
  -7  10  -8    1.43    1.71 
   7 -10   8   -0.32    1.71 
  -8  10  -8    1.46    1.78 
   8 -10   8    1.92    2.03 
  11   9  -8    0.88    2.53 
  10   9  -8    0.54    2.42 
   9   9  -8   -0.64    1.86 
   8   9  -8   -1.44    1.55 
   7   9  -8    5.42    2.10 
  -6  -9   8    0.40    0.86 
   6   9  -8    1.22    1.44 
   5   9  -8    2.41    1.52 
  -5  -9   8   -0.47    0.77 
   4   9  -8    5.78    1.72 
  -4  -9   8    6.00    1.26 
   3   9  -8   36.37    3.03 
  -3  -9   8   32.56    2.38 
   2   9  -8    6.83    1.89 
  -2  -9   8    8.50    1.60 
   1   9  -8   14.03    2.14 
  -1  -9   8   11.05    1.75 
   0  -9   8    3.66    1.36 
   0   9  -8    3.19    1.36 
   1  -9   8    6.77    1.56 
   2  -9   8   11.05    1.97 
   3  -9   8   12.44    2.28 
   4  -9   8    5.65    1.94 
  -5   9  -8    7.93    2.27 
  -6   9  -8    2.19    1.49 
   6  -9   8   -0.24    1.30 
   7  -9   8    1.62    1.66 
  -7   9  -8    3.56    1.74 
  -8   9  -8    0.36    1.70 
   8  -9   8    0.15    1.84 
  11   8  -8   -1.22    2.52 
  10   8  -8    1.99    2.38 
   9   8  -8   -0.60    2.10 
   8   8  -8    8.73    2.69 
   7   8  -8    0.72    1.54 
   6   8  -8    2.39    1.57 
  -6  -8   8    0.42    0.89 
  -5  -8   8    0.06    0.84 
   5   8  -8   -0.58    1.13 
   4   8  -8   16.88    2.62 
  -4  -8   8   15.91    1.91 
   3   8  -8   -1.08    0.99 
  -3  -8   8    2.05    0.95 
   2   8  -8    7.16    1.96 
  -2  -8   8    8.40    1.55 
   1   8  -8    3.04    1.57 
  -1  -8   8    5.73    1.33 
   0   8  -8   15.96    2.20 
   0  -8   8   12.84    1.94 
   1  -8   8   17.24    2.32 
   2  -8   8   38.40    3.30 
   3  -8   8    6.13    1.82 
  -4   8  -8   16.29    2.61 
  -5   8  -8    3.40    1.51 
  -6   8  -8    2.03    1.44 
  -7   8  -8    1.58    1.64 
   7  -8   8    0.88    1.70 
   8  -8   8    3.93    2.10 
  -8   8  -8    1.35    1.79 
  11   7  -8   -0.13    2.39 
  10   7  -8    2.93    2.65 
   9   7  -8    0.72    2.24 
   8   7  -8    5.47    2.32 
   7   7  -8    5.75    2.07 
  -6  -7   8   -1.09    0.71 
   6   7  -8    0.84    1.28 
  -5  -7   8   11.80    1.66 
   5   7  -8    8.22    2.26 
   4   7  -8    3.68    0.91 
  -4  -7   8    4.64    1.25 
   4   7  -8    1.85    1.45 
   3   7  -8    1.12    1.41 
  -3  -7   8    1.45    0.87 
  -2  -7   8    2.99    1.11 
   2   7  -8    4.60    1.79 
   1   7  -8    2.19    1.56 
  -1  -7   8    3.11    1.16 
   0   7  -8   89.15    4.44 
   0  -7   8   81.67    4.07 
   1  -7   8   11.04    1.94 
   2  -7   8    4.74    1.52 
   3  -7   8    7.12    1.87 
  -4   7  -8    1.86    1.32 
  -5   7  -8   10.11    2.28 
  -6   7  -8    2.01    1.41 
  -7   7  -8    2.82    1.70 
  -8   7  -8    1.79    1.88 
  11   6  -8    4.20    2.77 
  10   6  -8    0.00    2.30 
   9   6  -8    2.91    2.21 
   8   6  -8    3.86    2.17 
   7   6  -8   -0.18    1.34 
   6   6  -8   38.06    4.22 
   5   6  -8   -0.06    1.35 
  -5  -6   8    1.92    0.87 
   4   6  -8    2.10    1.40 
  -4  -6   8    0.81    0.88 
   4   6  -8    0.77    0.77 
  -3  -6   8   23.04    2.16 
   3   6  -8   21.01    2.94 
   2   6  -8    4.65    1.77 
  -2  -6   8    5.88    1.39 
   1   6  -8   38.66    3.37 
  -1  -6   8   38.04    2.61 
   0   6  -8   17.09    2.31 
   0  -6   8   18.05    2.28 
   1  -6   8    4.73    1.42 
   2  -6   8   62.79    3.75 
  -4   6  -8    2.11    1.47 
  -5   6  -8    1.26    1.15 
  -6   6  -8    1.99    1.31 
  -7   6  -8   -2.26    1.15 
  -8   6  -8    4.00    2.00 
  -9   6  -8    0.29    1.85 
  11   5  -8    1.49    2.43 
  10   5  -8    1.02    2.36 
   9   5  -8    2.85    2.35 
   8   5  -8   -1.39    1.44 
   7   5  -8   15.71    2.98 
   6   5  -8   -1.30    1.12 
   5   5  -8    7.04    1.13 
   5   5  -8    6.19    1.97 
  -4  -5   8    8.10    1.40 
   4   5  -8    5.95    2.00 
   4   5  -8    5.61    1.12 
  -3  -5   8   28.16    2.35 
   3   5  -8   36.42    3.56 
  -2  -5   8    0.88    0.94 
   2   5  -8    0.11    1.31 
  -1  -5   8    3.87    1.35 
   0  -5   8   64.34    3.52 
   1  -5   8   51.77    3.27 
   2  -5   8    5.50    1.68 
  -3   5  -8    8.18    1.82 
  -4   5  -8    0.13    1.01 
  -5   5  -8    1.43    1.23 
  -6   5  -8    0.35    1.20 
  -7   5  -8    4.14    1.77 
  -8   5  -8   -1.09    1.47 
  -9   5  -8    2.30    2.07 
  11   4  -8    1.40    2.44 
  10   4  -8   -1.81    2.23 
   9   4  -8    0.08    2.03 
   8   4  -8    1.71    1.73 
   7   4  -8    8.05    2.41 
   6   4  -8   19.95    3.27 
  -5  -4   8   10.85    1.45 
   5   4  -8    8.30    1.21 
   5   4  -8    8.97    2.33 
   4   4  -8  102.64    5.65 
  -4  -4   8   95.07    3.96 
   4   4  -8  104.27    3.71 
   3   4  -8   10.08    2.21 
  -3  -4   8    9.99    1.64 
   3   4  -8    8.80    1.43 
  -2  -4   8   22.05    2.22 
  -1  -4   8    4.44    1.37 
   0  -4   8    3.79    1.34 
   1  -4   8    9.13    1.78 
   2  -4   8   26.01    2.87 
  -3   4  -8    0.19    1.01 
  -4   4  -8    2.55    1.26 
  -5   4  -8    0.32    1.07 
  -6   4  -8    2.55    1.45 
  -7   4  -8    0.75    1.44 
  -8   4  -8    2.58    1.82 
  -9   4  -8    1.19    1.83 
  11   3  -8   -0.83    2.39 
  10   3  -8    1.40    2.32 
   9   3  -8    5.20    2.57 
   8   3  -8    0.39    1.82 
   7   3  -8   -1.07    1.28 
   6   3  -8   17.12    3.10 
   5   3  -8   47.19    2.41 
  -5  -3   8   52.62    2.64 
   5   3  -8   51.98    4.20 
   4   3  -8   20.25    1.74 
   4   3  -8   26.17    3.33 
  -4  -3   8   14.80    1.73 
   3   3  -8  157.56    5.19 
  -3  -3   8  157.09    5.48 
  -2  -3   8    2.45    1.12 
  -1  -3   8    1.14    1.00 
   0  -3   8   37.92    2.68 
   1  -3   8   40.78    2.92 
  -2   3  -8    1.69    0.97 
  -3   3  -8   15.57    2.18 
  -4   3  -8    3.65    1.25 
  -5   3  -8    1.44    1.12 
  -6   3  -8    1.12    1.21 
  -7   3  -8    0.22    1.35 
  -8   3  -8   -0.45    1.60 
  -9   3  -8    1.58    1.82 
  11   2  -8   -0.78    2.45 
  10   2  -8    5.20    2.72 
   9   2  -8    3.02    2.26 
   8   2  -8    9.01    2.66 
   7   2  -8    6.51    2.14 
   6   2  -8   -0.24    1.50 
   6   2  -8    6.38    1.19 
   5   2  -8    7.40    1.29 
  -5  -2   8    8.62    1.24 
   5   2  -8    9.51    2.54 
   4   2  -8  120.71    6.01 
   4   2  -8  122.55    4.27 
  -3  -2   8   24.73    2.23 
   3   2  -8   23.86    2.01 
  -2  -2   8   34.00    2.37 
  -1  -2   8    0.22    0.93 
   0  -2   8   55.65    3.22 
  -2   2  -8   -0.51    0.83 
  -3   2  -8    0.31    0.83 
  -4   2  -8    5.42    1.47 
  -5   2  -8    3.63    1.35 
  -6   2  -8    2.01    1.35 
  -7   2  -8   -0.68    1.24 
  -8   2  -8    0.55    1.54 
  -9   2  -8    2.08    1.98 
  11   1  -8    1.85    2.87 
  10   1  -8    3.23    2.35 
   9   1  -8    1.83    2.25 
   8   1  -8    6.00    2.34 
   7   1  -8   10.85    2.85 
   6   1  -8    9.35    1.40 
   6   1  -8    5.27    2.30 
   5   1  -8   87.20    3.46 
   5   1  -8   92.28    5.40 
  -4  -1   8    3.14    1.06 
   4   1  -8    2.65    1.00 
   3   1  -8   28.57    2.07 
  -3  -1   8   29.44    2.13 
  -2  -1   8    0.72    1.00 
  -1  -1   8    0.78    1.03 
   0  -1   8    6.96    1.59 
  -1   1  -8    0.90    0.90 
  -2   1  -8   -0.78    0.78 
  -3   1  -8   11.85    1.88 
  -4   1  -8    3.58    1.35 
  -5   1  -8    7.49    1.82 
  -6   1  -8    0.53    1.13 
  -7   1  -8    2.55    1.58 
  -8   1  -8   -2.92    1.30 
  -9   1  -8   -0.20    1.82 
  11   0  -8   -1.64    2.53 
  10   0  -8    5.08    2.60 
   9   0  -8    0.36    2.09 
   8   0  -8    2.70    2.11 
   7   0  -8   -0.63    0.94 
   7   0  -8   -0.19    1.48 
   6   0  -8   89.23    5.73 
   6   0  -8   90.45    3.56 
   5   0  -8    1.60    0.94 
  -4   0   8   17.73    1.73 
   4   0  -8   16.08    1.69 
  -3   0   8    0.60    0.90 
   3   0  -8   -1.07    0.78 
  -2   0   8   23.93    2.24 
  -1   0   8    1.01    0.98 
   0   0  -8   49.09    2.86 
  -1   0  -8   -1.00    0.80 
  -2   0  -8    1.53    0.97 
  -3   0  -8    0.33    0.89 
  -4   0  -8    1.72    1.16 
  -5   0  -8   -0.14    1.07 
  -6   0  -8   12.86    2.31 
  -7   0  -8    0.11    1.33 
  -8   0  -8    1.00    1.64 
  -9   0  -8    0.02    1.68 
  11  -1  -8    3.34    2.93 
  10  -1  -8    0.71    2.22 
   9  -1  -8    2.07    2.13 
   8  -1  -8    5.83    2.36 
   7  -1  -8   12.50    1.53 
   7  -1  -8   10.49    2.96 
   6  -1  -8   11.54    2.33 
   6  -1  -8    9.85    1.43 
   5  -1  -8   90.77    3.61 
   4  -1  -8    1.69    0.90 
  -4   1   8    1.53    0.83 
  -3   1   8   11.05    1.45 
   3  -1  -8   22.63    1.96 
  -2   1   8    0.13    0.93 
   1  -1  -8    1.85    1.02 
   0  -1  -8    8.98    1.62 
  -1  -1  -8    0.88    0.92 
  -2  -1  -8    0.27    0.73 
  -3  -1  -8   13.52    1.96 
  -4  -1  -8    3.19    1.18 
  -5  -1  -8    8.39    1.86 
  -6  -1  -8   -1.29    1.01 
  -7  -1  -8    4.48    1.86 
  -8  -1  -8   -1.03    1.40 
  -9  -1  -8    0.66    1.63 
  11  -2  -8   -1.17    2.61 
  10  -2  -8    6.30    2.96 
   9  -2  -8    2.87    2.26 
   8  -2  -8   12.45    1.73 
   8  -2  -8   17.78    3.71 
   7  -2  -8    5.60    2.37 
   7  -2  -8    8.42    1.38 
   6  -2  -8    4.72    1.15 
   5  -2  -8    8.08    1.38 
   4  -2  -8  125.42    4.56 
  -4   2   8  133.42    4.47 
   3  -2  -8   22.91    2.02 
   2  -2  -8   29.65    2.12 
   1  -2  -8    0.30    0.83 
   0  -2  -8   51.47    2.95 
  -1  -2  -8   -1.12    0.68 
  -2  -2  -8    0.15    0.69 
  -3  -2  -8    0.88    0.87 
  -4  -2  -8    6.26    1.52 
  -5  -2  -8    1.81    1.27 
  -6  -2  -8    1.26    1.35 
  -7  -2  -8    1.11    1.40 
  -8  -2  -8    1.26    1.59 
  -9  -2  -8    0.09    1.65 
  11  -3  -8   -0.07    2.52 
  10  -3  -8    1.16    2.21 
   9  -3  -8    4.95    2.84 
   8  -3  -8    2.82    2.11 
   8  -3  -8    0.09    1.10 
   7  -3  -8    0.07    0.94 
   7  -3  -8    1.82    1.65 
   6  -3  -8   13.08    1.65 
   5  -3  -8   53.95    2.76 
   4  -3  -8   21.94    1.84 
   4  -3  -8   20.92    1.95 
   3  -3  -8  152.62    5.25 
   3  -3  -8  152.08    5.12 
   2  -3  -8    4.05    1.12 
   1  -3  -8    1.47    1.05 
   0  -3  -8   35.52    2.37 
  -1  -3  -8   32.60    2.32 
  -2  -3  -8    2.10    0.91 
  -3  -3  -8   18.18    2.26 
  -4  -3  -8    1.55    0.96 
  -5  -3  -8    0.57    1.01 
  -6  -3  -8    0.25    1.19 
  -7  -3  -8    0.82    1.48 
  -8  -3  -8    0.41    1.72 
  -9  -3  -8    0.36    1.73 
  11  -4  -8   -0.43    2.47 
  10  -4  -8    2.71    2.62 
   9  -4  -8    1.38    2.23 
   8  -4  -8    2.60    1.22 
   8  -4  -8   -2.00    1.68 
   7  -4  -8   11.42    2.26 
   7  -4  -8    9.05    1.45 
   6  -4  -8   18.61    1.85 
   5  -4  -8    9.49    1.49 
   4  -4  -8  109.21    4.20 
   4  -4  -8  109.61    3.88 
   3  -4  -8   10.97    1.59 
   3  -4  -8    8.96    1.45 
   2  -4  -8   15.60    1.74 
   1  -4  -8    6.53    1.29 
   0  -4  -8    5.61    1.33 
  -1  -4  -8    8.43    1.56 
  -2  -4  -8   24.80    2.42 
  -3  -4  -8    0.70    0.81 
  -4  -4  -8    1.80    1.12 
  -5  -4  -8    4.85    1.45 
  -6  -4  -8   -0.15    1.25 
  -7  -4  -8   -0.32    1.34 
  -8  -4  -8    1.73    1.70 
  -9  -4  -8    0.27    1.69 
  11  -5  -8    5.34    3.30 
  10  -5  -8   -3.65    2.20 
   9  -5  -8   -0.48    2.07 
   9  -5  -8    1.57    1.38 
   8  -5  -8    1.42    1.10 
   8  -5  -8   -3.59    1.53 
   7  -5  -8   16.83    1.81 
   6  -5  -8    0.09    0.86 
   5  -5  -8    5.77    1.24 
   4  -5  -8    5.94    1.29 
   3  -5  -8   32.61    2.09 
   3  -5  -8   33.40    2.30 
   2  -5  -8   -0.70    0.82 
   2  -5  -8    0.57    0.79 
   1  -5  -8    5.85    1.24 
   0  -5  -8   69.57    3.34 
  -1  -5  -8   48.43    2.85 
  -2  -5  -8    9.70    1.74 
  -3  -5  -8    6.21    1.48 
  -4  -5  -8    1.07    0.93 
  -5  -5  -8    1.33    1.13 
  -6  -5  -8   -0.25    1.08 
  -7  -5  -8    4.44    1.76 
  -8  -5  -8   -0.46    1.49 
  -9  -5  -8    1.93    1.73 
  11  -6  -8    2.55    2.79 
  10  -6  -8    0.85    2.66 
   9  -6  -8    0.86    1.29 
   9  -6  -8    1.74    2.07 
   8  -6  -8    5.05    2.22 
   8  -6  -8    5.93    1.38 
   7  -6  -8    0.21    0.87 
   6  -6  -8   31.26    2.20 
   5  -6  -8    0.61    0.85 
   4  -6  -8    2.68    1.00 
   3  -6  -8   22.42    1.83 
   3  -6  -8   21.54    2.07 
   2  -6  -8    3.32    0.97 
   2  -6  -8    3.44    1.10 
   1  -6  -8   31.15    2.14 
   0  -6  -8   15.70    1.93 
  -1  -6  -8    4.06    1.22 
  -2  -6  -8   59.16    3.30 
  -3  -6  -8    0.27    0.90 
  -4  -6  -8    1.96    1.19 
  -5  -6  -8    0.58    1.09 
  -6  -6  -8    1.37    1.34 
  -7  -6  -8    1.02    1.52 
  -8  -6  -8    5.79    2.10 
  -9  -6  -8   -0.08    1.60 
  11  -7  -8    2.15    2.75 
  10  -7  -8    4.05    3.04 
  10  -7  -8    1.43    1.47 
   9  -7  -8    2.35    1.25 
   9  -7  -8    2.07    2.56 
   8  -7  -8    3.72    1.71 
   8  -7  -8    6.13    1.41 
   7  -7  -8    8.72    1.49 
   6  -7  -8    1.19    0.89 
   5  -7  -8    8.70    1.45 
   4  -7  -8    4.68    1.19 
   3  -7  -8    0.75    0.82 
   3  -7  -8    0.60    0.83 
   2  -7  -8    2.46    0.95 
   2  -7  -8    4.21    1.23 
   1  -7  -8    2.50    1.03 
   0  -7  -8   91.75    3.95 
  -1  -7  -8   11.86    1.77 
  -2  -7  -8    3.51    1.25 
  -3  -7  -8    8.84    1.65 
  -4  -7  -8    3.09    1.31 
  -5  -7  -8    9.35    1.93 
  -6  -7  -8    3.61    1.65 
  -7  -7  -8    2.98    1.54 
  -8  -7  -8    2.34    1.77 
  11  -8  -8    0.88    2.99 
  10  -8  -8    0.58    1.54 
  10  -8  -8    1.05    2.58 
   9  -8  -8   -2.15    1.96 
   9  -8  -8    2.56    1.38 
   8  -8  -8    5.87    1.48 
   7  -8  -8    1.66    1.03 
   6  -8  -8    0.07    0.83 
   5  -8  -8   -1.24    0.71 
   4  -8  -8   16.86    1.93 
   3  -8  -8    0.48    0.84 
   3  -8  -8   -0.82    0.63 
   2  -8  -8    7.27    1.27 
   2  -8  -8   10.12    1.68 
   1  -8  -8    4.40    1.18 
   0  -8  -8   14.23    1.84 
  -1  -8  -8   13.92    1.86 
  -2  -8  -8   38.79    2.66 
  -3  -8  -8    6.81    1.58 
  -4  -8  -8   17.12    2.33 
  -5  -8  -8    3.91    1.44 
  -6  -8  -8   -0.13    1.32 
  -7  -8  -8    0.15    1.43 
  -8  -8  -8   -1.03    1.58 
  11  -9  -8    2.38    3.12 
  10  -9  -8    1.36    1.63 
  10  -9  -8    0.02    2.62 
   9  -9  -8    4.70    1.53 
   9  -9  -8    0.72    2.60 
   8  -9  -8   -0.64    1.02 
   7  -9  -8    3.27    1.17 
   6  -9  -8   -1.20    0.78 
   5  -9  -8   -0.47    0.76 
   4  -9  -8    6.56    1.38 
   3  -9  -8   40.74    2.54 
   3  -9  -8   32.58    1.88 
   2  -9  -8    8.00    1.49 
   2  -9  -8    7.98    1.30 
   1  -9  -8   13.56    1.62 
   0  -9  -8    3.42    1.18 
  -1  -9  -8    5.39    1.34 
  -2  -9  -8   11.11    1.85 
  -3  -9  -8   15.28    2.11 
  -4  -9  -8    4.65    1.47 
  -5  -9  -8    9.20    1.99 
  -6  -9  -8   -1.66    1.23 
  -7  -9  -8    3.51    1.75 
  -8  -9  -8    1.40    1.84 
  11 -10  -8   -1.13    2.84 
  11 -10  -8   -0.70    1.59 
  10 -10  -8    1.23    1.52 
  10 -10  -8   -3.22    2.46 
   9 -10  -8    0.40    1.39 
   9 -10  -8    0.60    1.27 
   8 -10  -8    1.35    1.22 
   7 -10  -8    1.62    1.06 
   6 -10  -8   -0.52    0.86 
   5 -10  -8    1.89    1.06 
   4 -10  -8   12.96    1.80 
   3 -10  -8   14.29    1.88 
   2 -10  -8   46.32    2.38 
   2 -10  -8   40.50    2.72 
   1 -10  -8    6.50    1.27 
   0 -10  -8   19.03    1.98 
  -1 -10  -8    4.46    1.31 
  -2 -10  -8   47.44    2.99 
  -3 -10  -8    0.22    0.96 
  -4 -10  -8   15.30    2.26 
  -5 -10  -8    1.21    1.26 
  -6 -10  -8    4.74    1.77 
  -7 -10  -8    0.13    1.56 
  -8 -10  -8    1.21    1.62 
  10 -11  -8    0.82    1.56 
  10 -11  -8   -1.30    2.84 
   9 -11  -8    4.68    1.55 
   8 -11  -8    2.24    1.39 
   7 -11  -8    3.03    1.19 
   6 -11  -8   -0.10    0.84 
   5 -11  -8    3.80    1.17 
   4 -11  -8    0.85    0.95 
   3 -11  -8   13.01    1.82 
   2 -11  -8   72.94    3.05 
   2 -11  -8   78.08    3.74 
   1 -11  -8   23.01    1.98 
   1 -11  -8   22.94    2.36 
   0 -11  -8    0.40    0.96 
  -1 -11  -8   67.78    3.37 
  -2 -11  -8    3.03    1.28 
  -3 -11  -8   26.73    2.59 
  -4 -11  -8    2.02    1.25 
  -5 -11  -8    2.03    1.38 
  -6 -11  -8    1.81    1.52 
  -7 -11  -8    2.39    1.61 
  -8 -11  -8    2.05    1.73 
  10 -12  -8   -1.94    2.67 
  10 -12  -8    0.67    1.58 
   9 -12  -8    2.00    1.55 
   8 -12  -8    2.23    1.33 
   7 -12  -8    1.38    1.11 
   6 -12  -8    2.33    1.17 
   5 -12  -8    0.57    0.89 
   4 -12  -8    6.29    1.37 
   3 -12  -8    0.56    1.00 
   2 -12  -8   59.95    2.68 
   2 -12  -8   49.59    3.07 
   1 -12  -8   19.45    2.25 
   1 -12  -8   21.66    1.91 
   0 -12  -8    2.21    1.06 
  -1 -12  -8    4.11    1.21 
  -2 -12  -8   66.60    3.46 
  -3 -12  -8    6.92    1.62 
  -4 -12  -8   12.17    2.02 
  -5 -12  -8    1.99    1.46 
  -6 -12  -8    3.18    1.64 
  -7 -12  -8    2.41    1.66 
  -8 -12  -8    4.07    1.86 
  10 -13  -8    0.02    1.60 
  10 -13  -8   -2.25    2.77 
   9 -13  -8    2.41    1.51 
   8 -13  -8    1.01    1.32 
   7 -13  -8    5.66    1.48 
   6 -13  -8   -2.58    0.79 
   5 -13  -8    7.64    1.51 
   4 -13  -8    0.27    0.92 
   3 -13  -8   -0.07    0.85 
   2 -13  -8   26.25    2.47 
   2 -13  -8   28.35    1.83 
   1 -13  -8    4.55    1.22 
   1 -13  -8    3.76    1.20 
   0 -13  -8   11.31    1.68 
  -1 -13  -8    0.96    0.99 
  -2 -13  -8    0.34    1.11 
  -3 -13  -8   52.46    3.24 
  -4 -13  -8    2.03    1.29 
  -5 -13  -8    2.15    1.42 
  -6 -13  -8    0.10    1.33 
  -7 -13  -8    0.16    1.58 
  -8 -13  -8    0.17    1.71 
  10 -14  -8    2.27    2.92 
  10 -14  -8    2.47    1.73 
   9 -14  -8   -1.37    1.29 
   8 -14  -8    5.75    1.66 
   7 -14  -8    2.66    1.31 
   6 -14  -8    8.13    1.64 
   5 -14  -8    1.00    1.04 
   4 -14  -8   -1.14    0.81 
   3 -14  -8    6.56    1.49 
   2 -14  -8   11.69    1.40 
   2 -14  -8   10.04    1.72 
   1 -14  -8   12.61    1.54 
   1 -14  -8    9.13    1.75 
   0 -14  -8    2.58    1.06 
  -1 -14  -8   10.25    1.66 
  -2 -14  -8   10.88    1.83 
  -3 -14  -8    1.27    1.25 
  -4 -14  -8   11.61    1.98 
  -5 -14  -8   -0.43    1.35 
  -6 -14  -8    3.30    1.74 
  -7 -14  -8    0.52    1.58 
  -8 -14  -8    1.79    1.65 
  10 -15  -8   -0.18    1.64 
  10 -15  -8    8.95    2.53 
   9 -15  -8    4.62    1.74 
   8 -15  -8    0.14    1.32 
   7 -15  -8    3.54    1.48 
   6 -15  -8   -0.49    0.92 
   5 -15  -8   -0.58    0.91 
   4 -15  -8   -0.41    0.87 
   3 -15  -8    8.24    1.59 
   2 -15  -8   38.48    2.68 
   1 -15  -8    2.63    1.13 
   1 -15  -8   -0.06    0.92 
   0 -15  -8    0.89    1.05 
   0 -15  -8    1.40    1.01 
  -1 -15  -8    5.65    1.34 
  -2 -15  -8    3.38    1.24 
  -3 -15  -8   17.96    2.24 
  -4 -15  -8    1.80    1.34 
  -5 -15  -8    3.01    1.60 
  -6 -15  -8   -0.67    1.37 
  -7 -15  -8    0.21    1.68 
  10 -16  -8    4.75    1.87 
   9 -16  -8    2.78    1.54 
   8 -16  -8    1.82    1.45 
   7 -16  -8    0.44    1.21 
   6 -16  -8    3.90    1.37 
   5 -16  -8    1.71    1.18 
   4 -16  -8    0.96    1.06 
   3 -16  -8   22.23    2.38 
   2 -16  -8   10.17    1.74 
   1 -16  -8   10.22    1.84 
   1 -16  -8   11.85    1.51 
   0 -16  -8    4.19    1.37 
   0 -16  -8   10.23    1.54 
  -1 -16  -8    6.45    1.42 
  -2 -16  -8    2.55    1.22 
  -3 -16  -8   -0.31    1.06 
  -4 -16  -8    8.42    1.92 
  -5 -16  -8    1.02    1.51 
  -6 -16  -8    0.68    1.45 
  -7 -16  -8    0.30    1.50 
   9 -17  -8    5.83    1.80 
   8 -17  -8    0.80    1.46 
   7 -17  -8    0.90    1.23 
   6 -17  -8    2.46    1.28 
   5 -17  -8    4.79    1.44 
   4 -17  -8   24.29    2.53 
   3 -17  -8   12.73    1.93 
   2 -17  -8    8.24    1.60 
   1 -17  -8    3.24    1.32 
   1 -17  -8    5.75    1.33 
   0 -17  -8    8.19    1.43 
   0 -17  -8    6.22    1.59 
  -1 -17  -8   10.02    1.64 
  -2 -17  -8    0.31    1.01 
  -3 -17  -8   -0.18    1.07 
  -4 -17  -8    0.55    1.25 
  -5 -17  -8    5.56    1.84 
  -6 -17  -8    3.84    1.80 
  -7 -17  -8    0.34    1.68 
   9 -18  -8    1.36    1.57 
   8 -18  -8    3.11    1.61 
   7 -18  -8   -1.34    1.22 
   6 -18  -8    1.09    1.17 
   5 -18  -8   -0.10    1.01 
   4 -18  -8    5.14    1.46 
   3 -18  -8   17.06    2.21 
   2 -18  -8    5.33    1.49 
   1 -18  -8   21.99    2.51 
   1 -18  -8   24.05    2.03 
   0 -18  -8    2.00    1.18 
   0 -18  -8    1.01    0.93 
  -1 -18  -8    2.88    1.21 
  -1 -18  -8   -0.83    0.95 
  -2 -18  -8    1.66    1.20 
  -3 -18  -8   -0.36    1.22 
  -4 -18  -8    4.10    1.57 
  -5 -18  -8    0.91    1.49 
  -6 -18  -8    2.77    1.81 
  -7 -18  -8   -0.07    1.65 
   9 -19  -8    1.35    1.54 
   8 -19  -8    1.90    1.54 
   7 -19  -8    4.09    1.70 
   6 -19  -8    0.67    1.19 
   5 -19  -8    0.44    1.20 
   4 -19  -8   14.58    2.26 
   3 -19  -8   20.60    2.40 
   2 -19  -8   10.48    1.87 
   1 -19  -8    5.49    1.45 
   1 -19  -8    3.64    1.21 
   0 -19  -8    0.35    0.93 
   0 -19  -8    0.53    1.10 
  -1 -19  -8    0.11    1.05 
  -1 -19  -8    0.42    0.98 
  -2 -19  -8   -0.49    0.96 
  -3 -19  -8    3.00    1.37 
  -4 -19  -8    0.61    1.33 
  -5 -19  -8    2.38    1.66 
  -6 -19  -8    1.81    1.65 
  -7 -19  -8    0.02    1.76 
   9 -20  -8    1.20    1.66 
   8 -20  -8    1.60    1.56 
   7 -20  -8   -0.51    1.31 
   6 -20  -8    0.43    1.32 
   5 -20  -8    0.11    1.17 
   4 -20  -8    4.63    1.64 
   3 -20  -8    8.12    1.69 
   2 -20  -8   -1.02    1.08 
   1 -20  -8    6.42    1.64 
   0 -20  -8    1.31    1.14 
   0 -20  -8    3.52    1.20 
  -1 -20  -8    2.12    1.26 
  -1 -20  -8    2.86    1.20 
  -2 -20  -8    0.36    1.09 
  -3 -20  -8    1.20    1.21 
  -4 -20  -8    2.85    1.56 
  -5 -20  -8    2.25    1.65 
  -6 -20  -8   -0.53    1.48 
   8 -21  -8    0.31    1.54 
   7 -21  -8    3.17    1.59 
   6 -21  -8   -1.34    1.14 
   5 -21  -8    6.87    1.79 
   4 -21  -8    4.56    1.67 
   3 -21  -8    0.43    1.27 
   2 -21  -8    2.27    1.30 
   1 -21  -8    4.24    1.47 
   0 -21  -8    9.73    1.62 
   0 -21  -8    8.25    1.78 
  -1 -21  -8    4.67    1.57 
  -1 -21  -8    2.59    1.17 
  -2 -21  -8    0.58    1.28 
  -2 -21  -8    1.35    1.17 
  -3 -21  -8    1.10    1.41 
  -4 -21  -8    0.93    1.43 
  -5 -21  -8    3.14    1.65 
  -6 -21  -8   -1.01    1.48 
   8 -22  -8    4.70    1.91 
   7 -22  -8    3.06    1.65 
   6 -22  -8    4.35    1.69 
   5 -22  -8   -0.57    1.26 
   4 -22  -8   -0.20    1.33 
   3 -22  -8    7.64    1.83 
   2 -22  -8   -0.01    1.08 
   1 -22  -8    9.47    1.87 
   0 -22  -8    2.78    1.30 
   0 -22  -8    2.49    1.41 
  -1 -22  -8    1.11    1.15 
  -1 -22  -8   -0.11    1.24 
  -2 -22  -8    1.62    1.26 
  -2 -22  -8    0.23    1.30 
  -3 -22  -8    2.35    1.44 
  -4 -22  -8    0.58    1.36 
  -5 -22  -8   -0.82    1.41 
  -6 -22  -8    0.53    1.59 
   8 -23  -8   -1.09    1.60 
   7 -23  -8   10.79    2.19 
   6 -23  -8    0.86    1.43 
   5 -23  -8    4.19    1.66 
   4 -23  -8    1.31    1.42 
   3 -23  -8    0.81    1.30 
   2 -23  -8    3.68    1.42 
   1 -23  -8    1.33    1.29 
   0 -23  -8    5.00    1.59 
   0 -23  -8    4.21    1.48 
  -1 -23  -8    1.09    1.18 
  -1 -23  -8    1.03    1.26 
  -2 -23  -8    1.87    1.47 
  -2 -23  -8    1.81    1.28 
  -3 -23  -8    1.31    1.64 
  -3 -23  -8    2.29    1.38 
  -4 -23  -8    2.03    1.59 
  -5 -23  -8    0.72    1.64 
   7 -24  -8    1.54    1.63 
   6 -24  -8    5.89    1.93 
   5 -24  -8    3.29    1.62 
   4 -24  -8    2.35    1.54 
   3 -24  -8    2.43    1.47 
   2 -24  -8    0.18    1.29 
   1 -24  -8    3.84    1.58 
   0 -24  -8   -0.55    1.18 
   0 -24  -8    0.34    1.22 
  -1 -24  -8    5.82    1.53 
  -1 -24  -8    6.04    1.76 
  -2 -24  -8    1.69    1.42 
  -2 -24  -8    0.93    1.55 
  -3 -24  -8    2.23    1.47 
  -3 -24  -8    2.00    1.67 
  -4 -24  -8   -0.36    1.34 
  -5 -24  -8   -1.30    1.43 
   7 -25  -8    2.95    1.80 
   6 -25  -8    0.81    1.59 
   5 -25  -8   11.31    2.22 
   4 -25  -8    0.91    1.36 
   3 -25  -8    2.18    1.62 
   2 -25  -8    6.49    1.76 
   1 -25  -8    2.16    1.46 
   0 -25  -8    2.71    1.54 
  -1 -25  -8   -0.74    1.25 
  -1 -25  -8    0.33    1.31 
  -2 -25  -8    5.02    1.97 
  -2 -25  -8    3.61    1.54 
  -3 -25  -8   -1.70    1.48 
  -3 -25  -8    1.51    1.52 
  -4 -25  -8    0.48    1.46 
  -4 -25  -8   -2.46    1.67 
  -5 -25  -8    0.13    1.66 
   7 -26  -8   -0.92    1.48 
   6 -26  -8    2.15    1.94 
   5 -26  -8    0.43    1.55 
   4 -26  -8    5.10    1.76 
   3 -26  -8    2.75    1.59 
   2 -26  -8   -0.40    1.31 
   1 -26  -8    1.06    1.40 
   0 -26  -8    0.55    1.36 
  -1 -26  -8   11.88    2.30 
  -1 -26  -8   11.62    2.02 
  -2 -26  -8   -1.17    1.32 
  -2 -26  -8    1.76    1.61 
  -3 -26  -8   -1.68    1.41 
  -3 -26  -8    3.15    1.77 
  -4 -26  -8    1.46    1.84 
  -4 -26  -8   -0.33    1.47 
   6 -27  -8   -0.65    1.43 
   5 -27  -8    2.13    1.65 
   4 -27  -8    4.20    1.79 
   3 -27  -8    2.93    1.63 
   2 -27  -8    4.59    1.79 
   1 -27  -8    2.03    1.52 
   0 -27  -8   10.12    2.19 
  -1 -27  -8   -0.82    1.33 
  -1 -27  -8    0.47    1.50 
  -2 -27  -8    1.81    1.81 
  -2 -27  -8    4.71    1.82 
  -3 -27  -8   -1.34    1.76 
  -3 -27  -8    1.29    1.57 
  -4 -27  -8   -1.92    1.37 
  -4 -27  -8    1.81    1.97 
   5 -28  -8    1.37    1.60 
   4 -28  -8   -1.72    1.29 
   3 -28  -8    1.04    1.57 
   2 -28  -8    0.60    1.47 
   1 -28  -8    4.83    1.83 
   0 -28  -8    2.94    1.69 
  -1 -28  -8    6.11    1.71 
  -1 -28  -8    5.12    1.86 
  -2 -28  -8    1.46    1.76 
  -2 -28  -8    0.15    1.39 
  -3 -28  -8    3.35    1.72 
  -3 -28  -8    4.72    2.08 
   5 -29  -8   -0.44    1.55 
   4 -29  -8   -1.57    1.33 
   3 -29  -8   -0.11    1.50 
   2 -29  -8    8.80    2.26 
   1 -29  -8    0.19    1.41 
   0 -29  -8    7.56    2.12 
  -1 -29  -8    1.20    1.66 
  -2 -29  -8    7.16    2.22 
  -2 -29  -8    7.50    1.92 
   4 -30  -8   -0.26    1.49 
   3 -30  -8    2.24    1.73 
   2 -30  -8    0.34    1.67 
   1 -30  -8    8.48    2.18 
   0 -30  -8    0.39    1.56 
  -1 -30  -8    4.10    1.97 
  -2 -30  -8   -0.07    1.42 
  -2 -30  -8    0.50    1.77 
   3 -31  -8    0.68    1.58 
   2 -31  -8    2.06    1.85 
   1 -31  -8    0.02    1.65 
   0 -31  -8    7.04    2.07 
  -2 -29   9    0.65    1.81 
  -1 -29   9    0.66    1.69 
  -4 -28   9    1.06    1.93 
  -3 -28   9   -0.88    1.57 
  -2 -28   9    1.23    1.78 
  -1 -28   9    0.72    1.73 
   0 -28   9    1.93    1.97 
   1 -28   9   -0.22    1.98 
  -5 -27   9    1.98    1.97 
  -4 -27   9    0.57    2.04 
  -3 -27   9    0.01    1.72 
  -2 -27   9   -2.21    1.42 
  -1 -27   9    2.61    1.89 
   0 -27   9    2.35    1.90 
   1 -27   9   -0.52    1.83 
   2 -27   9   -0.76    1.62 
  -5 -26   9    3.59    1.98 
  -4 -26   9    4.64    2.22 
  -3 -26   9   -0.45    1.60 
  -2 -26   9   -1.52    1.47 
  -1 -26   9    0.70    1.53 
   0 -26   9    0.70    1.63 
   1 -26   9    0.34    1.86 
   2 -26   9    0.00    1.80 
   3 -26   9    1.87    2.05 
   6  25  -9   -1.93    1.81 
  -6 -25   9    1.25    1.92 
  -5 -25   9    4.25    1.99 
  -4 -25   9    0.90    1.68 
  -3 -25   9   -1.33    1.52 
  -2 -25   9   -0.05    1.48 
  -1 -25   9    1.23    1.65 
   0 -25   9    0.89    1.66 
   1 -25   9    0.15    1.77 
   2 -25   9    0.09    1.99 
   3 -25   9    3.09    2.31 
   6  24  -9    3.22    2.26 
  -6 -24   9    2.68    2.04 
  -5 -24   9    0.83    1.66 
  -4 -24   9    4.09    2.07 
  -3 -24   9   -1.05    1.42 
  -2 -24   9    2.42    1.68 
  -1 -24   9    0.45    1.53 
   0 -24   9   -0.56    1.43 
   1 -24   9   -2.84    1.33 
   2 -24   9   -2.24    1.48 
   3 -24   9    0.61    1.86 
   4 -24   9    5.24    2.35 
  -7 -23   9    5.98    2.32 
   7  23  -9   -0.89    1.93 
  -6 -23   9    0.61    1.62 
   6  23  -9    0.55    2.03 
  -5 -23   9    3.82    1.95 
  -4 -23   9   -0.22    1.44 
  -3 -23   9    0.77    1.53 
  -2 -23   9    2.45    1.68 
  -1 -23   9    1.83    1.65 
   0 -23   9    3.42    1.82 
   1 -23   9    2.51    1.88 
   2 -23   9    0.01    1.81 
   3 -23   9    2.43    2.02 
   4 -23   9    1.18    1.99 
   7  22  -9    2.71    2.38 
  -7 -22   9    6.68    2.25 
  -6 -22   9    5.52    2.09 
   6  22  -9    3.49    2.32 
  -5 -22   9    0.30    1.50 
   5  22  -9   -1.48    1.77 
  -4 -22   9    2.56    1.66 
  -3 -22   9    0.73    1.41 
  -2 -22   9    1.52    1.37 
  -1 -22   9    3.62    1.75 
   0 -22   9    0.15    1.46 
   1 -22   9    1.18    1.56 
   2 -22   9    3.25    1.85 
   3 -22   9    1.19    1.98 
   4 -22   9    0.84    2.01 
   5 -22   9    0.86    2.13 
   5 -22   9   -0.15    1.79 
   8  21  -9    3.32    2.46 
   7  21  -9    0.52    2.08 
  -7 -21   9    4.04    1.98 
   6  21  -9    0.46    1.89 
  -6 -21   9    1.60    1.66 
   5  21  -9    5.91    2.21 
  -5 -21   9    4.74    1.65 
  -4 -21   9    1.46    1.58 
  -3 -21   9    4.03    1.73 
  -2 -21   9    2.28    1.51 
  -1 -21   9    1.50    1.58 
   0 -21   9    6.56    2.08 
   1 -21   9   -1.01    1.37 
   2 -21   9    1.68    1.70 
   3 -21   9    0.80    1.80 
   4 -21   9   -0.87    1.53 
   4 -21   9    0.86    1.96 
   5 -21   9    0.69    1.97 
   5 -21   9   -1.71    1.85 
   8  20  -9    3.27    2.49 
  -7 -20   9   -1.79    1.64 
   7  20  -9    1.05    2.09 
  -6 -20   9    2.12    1.66 
   6  20  -9    2.29    2.09 
   5  20  -9   -0.17    1.60 
  -5 -20   9    0.93    1.47 
  -4 -20   9    1.11    1.31 
  -3 -20   9    2.23    1.54 
  -2 -20   9    2.44    1.37 
  -1 -20   9    0.98    1.42 
   0 -20   9    1.72    1.54 
   1 -20   9    5.96    1.86 
   2 -20   9    3.07    1.76 
   3 -20   9    0.88    1.75 
   4 -20   9    2.14    2.11 
   4 -20   9    1.51    1.75 
   5 -20   9    0.70    1.97 
   5 -20   9    0.80    1.79 
   8  19  -9    2.17    2.21 
   7  19  -9    0.85    2.08 
  -7 -19   9   -1.40    1.40 
   6  19  -9   -2.40    1.38 
  -6 -19   9    1.11    1.44 
   5  19  -9    2.99    1.86 
  -5 -19   9    4.49    1.75 
   4  19  -9   -1.03    1.56 
  -4 -19   9    3.12    1.59 
  -3 -19   9   12.85    2.34 
  -2 -19   9    5.01    1.66 
  -1 -19   9    2.60    1.43 
   0 -19   9    1.99    1.55 
   1 -19   9   -0.61    1.28 
   2 -19   9    3.38    1.78 
   3 -19   9    0.37    1.71 
   4 -19   9   -2.94    1.41 
   5 -19   9    1.78    1.91 
   5 -19   9    0.79    1.99 
   6 -19   9    1.51    2.18 
   8  18  -9    0.12    2.11 
  -7 -18   9    0.71    1.63 
   7  18  -9    2.79    2.24 
  -6 -18   9    0.99    1.37 
   6  18  -9    2.53    2.00 
   5  18  -9    1.11    1.57 
  -5 -18   9   -0.21    1.18 
   4  18  -9    3.16    1.84 
  -4 -18   9    1.86    1.39 
  -3 -18   9    0.10    1.09 
  -2 -18   9   12.97    2.30 
  -1 -18   9   17.66    2.65 
   0 -18   9   -0.07    1.16 
   1 -18   9    1.89    1.54 
   2 -18   9   -0.77    1.43 
   3 -18   9    6.01    1.99 
   4 -18   9    0.96    1.88 
   5 -18   9    1.90    1.92 
   5 -18   9    1.39    2.03 
   6 -18   9    2.35    2.17 
  -6  18  -9    4.30    3.72 
   9  17  -9    2.14    2.48 
   8  17  -9    2.97    2.36 
   7  17  -9    1.11    2.05 
  -7 -17   9    2.00    1.63 
  -6 -17   9    0.92    1.30 
   6  17  -9   -0.99    1.50 
   5  17  -9    0.46    1.49 
  -5 -17   9    5.57    1.76 
   4  17  -9   -1.02    1.28 
  -4 -17   9    1.27    1.19 
  -3 -17   9    8.00    1.89 
  -2 -17   9   12.76    2.23 
  -1 -17   9    1.43    1.34 
   0 -17   9   11.76    2.31 
   1 -17   9    0.58    1.31 
   2 -17   9   -0.05    1.44 
   3 -17   9    2.53    1.82 
   4 -17   9    1.53    1.90 
   5 -17   9    0.79    1.86 
   5 -17   9    3.08    2.13 
  -6  17  -9    0.19    3.15 
   6 -17   9    1.57    2.05 
   9  16  -9    3.78    2.81 
   8  16  -9   -1.19    2.13 
   7  16  -9   -1.58    1.71 
   6  16  -9    1.91    1.81 
  -6 -16   9    1.44    1.34 
   5  16  -9    1.31    1.40 
  -5 -16   9    0.38    1.15 
   4  16  -9    4.90    1.73 
  -4 -16   9    4.71    1.44 
   3  16  -9    2.03    1.55 
  -3 -16   9    4.22    1.35 
  -2 -16   9    7.68    1.83 
  -1 -16   9   11.12    2.05 
   0 -16   9   -0.65    1.11 
   1 -16   9    3.03    1.46 
   2 -16   9    1.10    1.30 
   3 -16   9   -0.21    1.37 
   4 -16   9    2.58    1.94 
   5 -16   9    5.27    2.24 
   6 -16   9    1.72    2.00 
  -6  16  -9   -2.61    2.69 
   9  15  -9    1.28    2.41 
   8  15  -9   -0.54    1.83 
   7  15  -9    0.34    1.73 
  -6 -15   9    0.83    1.11 
   6  15  -9   -1.18    1.86 
   5  15  -9    2.82    1.64 
  -5 -15   9    3.65    1.39 
  -4 -15   9    5.21    1.55 
   4  15  -9    3.39    1.48 
   3  15  -9    4.20    1.69 
  -3 -15   9    4.00    1.43 
  -2 -15   9   14.81    2.29 
  -1 -15   9    2.83    1.28 
   0 -15   9    1.35    1.36 
   1 -15   9    1.55    1.30 
   2 -15   9    4.96    1.82 
   3 -15   9    5.81    1.89 
   4 -15   9    8.07    2.35 
   5 -15   9    2.34    2.05 
  -6  15  -9    3.32    2.75 
   9  14  -9    2.93    2.32 
   8  14  -9   -1.72    1.95 
   7  14  -9    1.12    1.81 
  -6 -14   9    2.80    1.34 
   6  14  -9    1.21    1.78 
  -5 -14   9    2.25    1.28 
   5  14  -9   -0.87    1.43 
  -4 -14   9    1.55    1.13 
   4  14  -9    2.25    1.53 
   3  14  -9   15.99    2.52 
  -3 -14   9   14.23    2.18 
  -2 -14   9    4.37    1.49 
  -1 -14   9    1.81    1.12 
   0 -14   9    0.53    1.04 
   1 -14   9   10.37    2.11 
   2 -14   9    5.94    1.80 
   3 -14   9    1.96    1.54 
   4 -14   9    1.03    1.70 
  -6  14  -9   -1.71    2.16 
  -7  14  -9    0.55    2.33 
   9  13  -9   -0.54    2.05 
   8  13  -9    1.83    2.33 
   7  13  -9   -0.44    1.79 
  -6 -13   9   -0.38    1.04 
   6  13  -9   -1.39    1.37 
  -5 -13   9    5.33    1.46 
   5  13  -9    0.07    1.22 
   4  13  -9    7.44    1.92 
  -4 -13   9    5.41    1.54 
  -3 -13   9    0.58    1.00 
   3  13  -9    2.67    1.47 
   2  13  -9   22.76    2.79 
  -2 -13   9   21.11    2.55 
  -1 -13   9   16.59    2.40 
   0 -13   9    2.33    1.25 
   1 -13   9    2.96    1.49 
   2 -13   9    3.68    1.57 
   3 -13   9    3.50    1.68 
   4 -13   9    3.99    1.98 
  -5  13  -9   -0.85    1.79 
  -6  13  -9    0.03    2.08 
  -7  13  -9    0.55    2.10 
  10  12  -9   -0.60    2.35 
   9  12  -9    0.60    2.19 
   8  12  -9   -1.19    1.90 
   7  12  -9   -2.45    1.57 
  -6 -12   9    0.84    1.12 
   6  12  -9    1.11    1.50 
  -5 -12   9   -0.71    0.88 
   5  12  -9   -0.33    1.21 
   4  12  -9    1.76    1.33 
  -4 -12   9    2.54    1.20 
  -3 -12   9   29.45    2.75 
   3  12  -9   30.66    3.23 
  -2 -12   9    6.24    1.60 
   2  12  -9   11.32    2.23 
  -1 -12   9    3.46    1.34 
   0 -12   9    2.52    1.35 
   1 -12   9   -0.64    1.04 
   2 -12   9    3.88    1.70 
   3 -12   9    6.17    1.89 
   4 -12   9    0.26    1.61 
  -5  12  -9    0.24    2.18 
  -6  12  -9    1.04    2.18 
  -7  12  -9    1.58    2.06 
  10  11  -9    4.37    2.93 
   9  11  -9   -0.27    2.16 
   8  11  -9   -0.95    1.81 
   7  11  -9    4.55    2.25 
  -6 -11   9    1.75    1.13 
   6  11  -9   -2.28    1.32 
  -5 -11   9    0.41    0.87 
   5  11  -9    2.78    1.58 
  -4 -11   9    6.63    1.55 
   4  11  -9    9.44    2.24 
  -3 -11   9   11.79    1.91 
   3  11  -9    6.93    1.85 
  -2 -11   9   29.57    2.84 
   2  11  -9   31.56    3.21 
  -1 -11   9    9.71    1.85 
   0 -11   9   17.89    2.48 
   1 -11   9    7.22    1.85 
   2 -11   9    0.20    1.14 
   3 -11   9    4.09    1.80 
   4 -11   9    6.49    2.11 
  -5  11  -9   -1.37    1.66 
  -6  11  -9    2.55    2.11 
  -7  11  -9    1.27    2.18 
  10  10  -9   -0.09    2.30 
   9  10  -9   -1.06    2.16 
   8  10  -9    1.78    2.12 
   7  10  -9    1.20    2.06 
   6  10  -9    3.29    1.82 
  -6 -10   9    0.85    1.09 
  -5 -10   9    2.11    1.04 
   5  10  -9    3.22    1.68 
  -4 -10   9    8.35    1.52 
   4  10  -9    8.96    2.19 
   3  10  -9   21.83    2.91 
  -3 -10   9   20.57    2.35 
   2  10  -9    2.30    1.61 
  -2 -10   9    3.33    1.32 
  -1 -10   9   35.23    3.08 
   0 -10   9    4.32    1.38 
   1 -10   9    4.67    1.50 
   2 -10   9    8.98    2.09 
   3 -10   9    2.94    1.67 
  -4  10  -9    2.09    1.73 
  -5  10  -9    6.96    2.31 
  -6  10  -9   -0.10    1.70 
  -7  10  -9    0.05    1.91 
  10   9  -9    3.00    2.84 
   9   9  -9    3.51    2.53 
   8   9  -9   -1.06    1.77 
   7   9  -9    1.08    1.93 
   6   9  -9    1.87    1.53 
   5   9  -9    8.76    2.18 
  -5  -9   9    8.23    1.58 
  -4  -9   9    1.39    0.87 
   4   9  -9    0.36    1.29 
  -3  -9   9    4.61    1.37 
   3   9  -9    6.26    1.88 
   2   9  -9   42.33    3.37 
  -2  -9   9   37.97    3.05 
   1   9  -9    1.97    1.59 
  -1  -9   9    1.04    1.06 
   0  -9   9   40.61    3.38 
   1  -9   9   14.64    2.22 
   2  -9   9    7.84    2.05 
   3  -9   9   -0.27    1.31 
  -4   9  -9    2.03    1.92 
  -5   9  -9    0.53    1.56 
  -6   9  -9    3.58    1.92 
  -7   9  -9    0.52    1.88 
  10   8  -9   -2.82    2.18 
   9   8  -9   -1.98    2.16 
   8   8  -9    0.95    1.98 
   7   8  -9    1.76    1.80 
   6   8  -9    1.09    1.61 
   5   8  -9    1.77    1.51 
  -5  -8   9    2.30    1.07 
  -4  -8   9   21.81    2.29 
   4   8  -9   17.00    2.81 
   3   8  -9    6.93    1.85 
  -3  -8   9    6.34    1.47 
   2   8  -9    4.64    1.76 
  -2  -8   9    8.85    1.67 
   1   8  -9   83.33    4.72 
  -1  -8   9   90.42    4.34 
   0  -8   9    3.65    1.56 
   1  -8   9    1.87    1.33 
   2  -8   9   -0.98    1.16 
   3  -8   9   14.46    2.63 
  -4   8  -9    6.77    2.00 
  -5   8  -9    3.91    1.97 
  -6   8  -9   -2.11    1.44 
  -7   8  -9   -1.24    1.64 
  10   7  -9    1.01    2.41 
   9   7  -9    0.86    2.24 
   8   7  -9    0.91    2.24 
   7   7  -9    1.22    1.67 
   6   7  -9    8.33    2.07 
  -5  -7   9    0.35    0.89 
   5   7  -9   -0.69    1.13 
  -4  -7   9   15.71    1.97 
   4   7  -9   11.85    2.57 
  -3  -7   9    1.83    1.02 
   3   7  -9    1.77    1.50 
  -2  -7   9   17.57    2.21 
   2   7  -9   13.74    2.58 
   1   7  -9   18.82    2.90 
  -1  -7   9   17.98    2.36 
   0  -7   9   33.82    3.10 
   1  -7   9    0.72    1.28 
   2  -7   9   25.15    2.96 
  -3   7  -9   -0.85    1.07 
  -4   7  -9    5.15    1.84 
  -5   7  -9    4.05    2.08 
  -6   7  -9   -0.48    1.57 
  -7   7  -9   -0.42    1.81 
  -8   7  -9   -0.48    1.76 
  10   6  -9   -2.59    2.45 
   9   6  -9    0.53    2.31 
   8   6  -9   -0.17    1.91 
   7   6  -9    5.36    2.11 
   6   6  -9    2.23    1.56 
  -5  -6   9    0.87    0.99 
   5   6  -9    0.60    1.26 
  -4  -6   9    1.20    0.95 
   4   6  -9    0.52    1.32 
   3   6  -9   13.27    2.54 
  -3  -6   9   16.16    2.08 
  -2  -6   9    0.28    1.01 
   2   6  -9   -0.46    1.24 
  -1  -6   9   65.52    3.72 
   1   6  -9   74.51    4.59 
   0  -6   9    1.10    1.33 
   1  -6   9   18.05    2.54 
   2  -6   9    1.32    1.45 
  -3   6  -9   15.58    2.44 
  -4   6  -9   -1.89    1.09 
  -5   6  -9    0.14    1.30 
  -6   6  -9    1.67    1.50 
  -7   6  -9    1.80    1.72 
  -8   6  -9    0.37    1.91 
  10   5  -9    2.20    2.65 
   9   5  -9    1.30    2.26 
   8   5  -9    0.00    1.93 
   7   5  -9   11.73    2.99 
   6   5  -9    2.32    1.63 
  -5  -5   9    0.98    0.98 
   5   5  -9    1.88    1.54 
  -4  -5   9    4.94    1.35 
   4   5  -9    2.39    1.63 
   4   5  -9    3.02    1.01 
   3   5  -9    1.38    1.62 
  -3  -5   9    3.24    1.33 
   2   5  -9   41.05    3.50 
  -2  -5   9   41.23    2.83 
  -1  -5   9   30.75    2.87 
   1   5  -9   30.12    3.24 
   0  -5   9   22.01    2.68 
   1  -5   9   -1.05    1.08 
  -3   5  -9    0.94    1.25 
  -4   5  -9    0.23    1.27 
  -5   5  -9    0.44    1.44 
  -6   5  -9    2.51    1.59 
  -7   5  -9    0.28    1.62 
  -8   5  -9    0.63    1.93 
  10   4  -9    3.06    2.93 
   9   4  -9   -2.81    1.96 
   8   4  -9   -1.05    1.73 
   7   4  -9   -1.21    1.59 
   6   4  -9    3.05    1.62 
   5   4  -9    1.54    1.74 
  -4  -4   9    3.94    1.28 
   4   4  -9    2.27    1.57 
   4   4  -9    2.88    1.05 
   3   4  -9   21.35    3.11 
  -3  -4   9   19.29    2.23 
   3   4  -9   16.69    1.97 
  -2  -4   9    3.54    1.34 
  -1  -4   9   91.20    4.35 
   0  -4   9    8.54    1.92 
   1  -4   9   12.36    2.25 
  -2   4  -9    0.76    1.06 
  -3   4  -9   -0.64    1.02 
  -4   4  -9   -0.16    0.97 
  -5   4  -9    1.68    1.38 
  -6   4  -9    2.57    1.76 
  -7   4  -9   -0.52    1.55 
  -8   4  -9    0.55    1.85 
  10   3  -9    2.55    2.90 
   9   3  -9    1.48    2.26 
   8   3  -9    2.91    2.16 
   7   3  -9    0.40    1.62 
   6   3  -9    0.74    1.56 
   5   3  -9   -1.02    1.39 
   5   3  -9    0.96    0.99 
  -4  -3   9    0.44    1.04 
   4   3  -9    0.03    0.94 
   4   3  -9    0.40    1.32 
  -3  -3   9    0.41    1.03 
   3   3  -9    1.34    0.99 
  -2  -3   9   25.14    2.53 
  -1  -3   9   17.59    2.32 
   0  -3   9   59.05    3.59 
  -1   3  -9   -0.25    1.09 
  -2   3  -9    0.80    1.06 
  -3   3  -9   -1.49    0.95 
  -4   3  -9    1.24    1.20 
  -5   3  -9    1.11    1.35 
  -6   3  -9    0.50    1.52 
  -7   3  -9   -2.37    1.46 
  -8   3  -9    0.25    1.76 
  10   2  -9   -0.73    2.29 
   9   2  -9    0.88    2.05 
   8   2  -9    0.44    1.83 
   7   2  -9    1.73    2.02 
   6   2  -9    1.96    1.72 
   5   2  -9    2.14    1.10 
   5   2  -9    2.02    1.79 
  -4  -2   9    1.81    1.07 
   4   2  -9    7.14    1.53 
   4   2  -9    2.98    1.10 
   3   2  -9    8.04    1.57 
  -3  -2   9    6.99    1.54 
  -2  -2   9    6.41    1.56 
  -1  -2   9   26.42    2.76 
   0  -2   9    2.39    1.38 
  -1   2  -9   66.66    3.80 
  -2   2  -9    0.44    1.08 
  -3   2  -9   -1.35    0.87 
  -4   2  -9   -0.36    0.90 
  -5   2  -9    0.85    1.24 
  -6   2  -9    0.16    1.48 
  -7   2  -9   -1.39    1.59 
  -8   2  -9   -0.37    1.58 
  10   1  -9    2.34    2.53 
   9   1  -9   -0.10    2.26 
   8   1  -9    1.15    2.16 
   7   1  -9   -0.34    1.67 
   6   1  -9   -0.59    1.41 
   6   1  -9    0.92    1.12 
   5   1  -9    3.33    1.19 
   5   1  -9    5.11    2.02 
   4   1  -9   10.17    1.55 
   3   1  -9    0.64    1.01 
  -3  -1   9    3.25    1.25 
  -2  -1   9    9.44    1.75 
  -1  -1   9   21.28    2.57 
   0   1  -9   39.76    2.83 
  -1   1  -9    2.92    1.36 
  -2   1  -9    2.26    1.13 
  -3   1  -9    0.87    0.98 
  -4   1  -9   -1.43    0.90 
  -5   1  -9    1.69    1.36 
  -6   1  -9    0.45    1.43 
  -7   1  -9    0.30    1.55 
  -8   1  -9   -0.18    1.63 
  10   0  -9   -1.86    2.27 
   9   0  -9   -1.50    1.91 
   8   0  -9   -0.26    1.94 
   7   0  -9    0.47    1.74 
   6   0  -9    0.69    0.97 
   6   0  -9   -0.65    1.46 
   5   0  -9   -0.72    0.82 
  -4   0   9    2.94    0.97 
   4   0  -9    0.35    0.92 
  -3   0   9    4.63    1.35 
   3   0  -9    5.45    1.31 
  -2   0   9    0.67    1.19 
   1   0  -9   12.66    1.94 
   0   0  -9   -0.89    0.93 
  -1   0  -9  119.92    5.16 
  -2   0  -9   -1.49    0.72 
  -3   0  -9    0.59    0.97 
  -4   0  -9   -0.42    0.87 
  -5   0  -9    0.80    1.26 
  -6   0  -9    0.44    1.55 
  -7   0  -9   -0.22    1.38 
  -8   0  -9   -2.08    1.42 
  10  -1  -9   -3.39    2.35 
   9  -1  -9   -0.11    2.15 
   8  -1  -9    3.40    2.42 
   7  -1  -9   -3.27    1.37 
   6  -1  -9    2.57    1.48 
   6  -1  -9    0.11    0.93 
   5  -1  -9    5.40    1.30 
   4  -1  -9    9.41    1.56 
   3  -1  -9    2.13    1.11 
   2  -1  -9   10.70    1.79 
   1  -1  -9   17.88    2.23 
   0  -1  -9   39.87    2.78 
  -1  -1  -9    1.49    1.20 
  -2  -1  -9    5.14    1.33 
  -3  -1  -9    0.85    0.92 
  -4  -1  -9    0.39    0.97 
  -5  -1  -9    1.60    1.27 
  -6  -1  -9   -0.66    1.48 
  -7  -1  -9    0.12    1.45 
  -8  -1  -9   -0.69    1.64 
  10  -2  -9    0.84    2.51 
   9  -2  -9    0.49    2.03 
   8  -2  -9   -0.72    1.78 
   7  -2  -9    1.32    1.09 
   7  -2  -9    2.23    2.09 
   6  -2  -9    2.23    1.04 
   5  -2  -9    1.40    1.01 
   4  -2  -9    1.80    1.05 
   3  -2  -9    7.55    1.48 
   3  -2  -9   10.03    1.65 
   2  -2  -9    5.35    1.45 
   1  -2  -9   15.69    2.10 
   0  -2  -9    3.87    1.26 
  -1  -2  -9   73.35    3.85 
  -2  -2  -9    1.25    0.98 
  -3  -2  -9    0.53    0.93 
  -4  -2  -9    1.41    1.13 
  -5  -2  -9   -0.28    1.18 
  -6  -2  -9   -1.24    1.23 
  -7  -2  -9   -0.05    1.58 
  -8  -2  -9    1.59    1.87 
  10  -3  -9   -1.16    2.42 
   9  -3  -9    0.71    2.24 
   8  -3  -9   -1.26    2.03 
   7  -3  -9    0.80    1.79 
   7  -3  -9    1.36    1.06 
   6  -3  -9    1.29    1.04 
   5  -3  -9    1.55    1.06 
   4  -3  -9   -0.19    0.81 
   3  -3  -9    1.11    0.98 
   3  -3  -9    1.99    1.11 
   2  -3  -9   24.92    2.34 
   1  -3  -9   21.27    2.26 
   0  -3  -9   48.77    2.97 
  -1  -3  -9    0.80    1.03 
  -2  -3  -9    1.96    1.07 
  -3  -3  -9    1.71    1.08 
  -4  -3  -9    1.46    1.15 
  -5  -3  -9    3.19    1.50 
  -6  -3  -9   -0.88    1.28 
  -7  -3  -9   -0.69    1.48 
  -8  -3  -9   -0.86    1.70 
  10  -4  -9   -1.09    2.47 
   9  -4  -9   -0.22    2.36 
   8  -4  -9    2.08    1.34 
   8  -4  -9   -1.09    2.23 
   7  -4  -9    7.54    1.92 
   7  -4  -9    1.71    1.05 
   6  -4  -9    0.76    1.03 
   5  -4  -9    0.79    0.95 
   4  -4  -9    1.92    0.90 
   3  -4  -9   14.85    1.91 
   3  -4  -9   14.67    1.74 
   2  -4  -9    0.71    1.00 
   1  -4  -9   91.04    4.05 
   0  -4  -9    7.21    1.53 
  -1  -4  -9   18.09    2.21 
  -2  -4  -9    0.85    1.05 
  -3  -4  -9    1.87    1.08 
  -4  -4  -9    1.02    1.06 
  -5  -4  -9    1.13    1.24 
  -6  -4  -9    0.62    1.36 
  -7  -4  -9   -0.17    1.57 
  -8  -4  -9   -0.58    1.51 
  10  -5  -9    0.55    2.84 
   9  -5  -9    2.18    2.41 
   8  -5  -9    1.48    1.25 
   8  -5  -9    0.42    2.19 
   7  -5  -9   11.47    1.72 
   6  -5  -9    4.80    1.24 
   5  -5  -9    2.26    1.12 
   4  -5  -9    3.77    1.23 
   3  -5  -9    2.97    1.07 
   3  -5  -9    3.93    1.08 
   2  -5  -9   49.20    3.06 
   2  -5  -9   43.53    2.68 
   1  -5  -9   28.05    2.45 
   0  -5  -9   21.86    2.34 
  -1  -5  -9    0.42    0.97 
  -2  -5  -9   22.83    2.54 
  -3  -5  -9    1.72    1.20 
  -4  -5  -9    2.12    1.27 
  -5  -5  -9    1.16    1.37 
  -6  -5  -9   -1.08    1.32 
  -7  -5  -9    0.34    1.64 
  -8  -5  -9    0.04    1.57 
  10  -6  -9    0.94    2.61 
   9  -6  -9    1.37    2.54 
   8  -6  -9   -1.29    1.58 
   8  -6  -9    1.56    1.28 
   7  -6  -9    4.69    1.32 
   6  -6  -9    2.83    1.24 
   5  -6  -9   -0.49    0.89 
   4  -6  -9    1.80    0.99 
   3  -6  -9   15.44    1.98 
   3  -6  -9   14.14    1.64 
   2  -6  -9    0.14    0.90 
   2  -6  -9    0.73    1.11 
   1  -6  -9   76.21    3.67 
   0  -6  -9    1.74    1.15 
  -1  -6  -9   13.11    2.04 
  -2  -6  -9    1.98    1.18 
  -3  -6  -9   14.90    2.22 
  -4  -6  -9    1.20    1.25 
  -5  -6  -9    0.63    1.37 
  -6  -6  -9    0.51    1.52 
  -7  -6  -9    0.64    1.66 
  -8  -6  -9   -0.29    1.60 
  10  -7  -9   -0.61    2.73 
   9  -7  -9   -0.95    1.33 
   9  -7  -9   -2.09    2.25 
   8  -7  -9    1.16    1.22 
   8  -7  -9    4.36    1.92 
   7  -7  -9    2.68    1.15 
   6  -7  -9   11.04    1.69 
   5  -7  -9    1.08    1.03 
   4  -7  -9   18.72    2.12 
   3  -7  -9    0.40    0.92 
   2  -7  -9   13.22    1.97 
   2  -7  -9   15.43    1.87 
   1  -7  -9   17.95    2.09 
   0  -7  -9   36.97    2.61 
  -1  -7  -9   -0.18    0.95 
  -2  -7  -9   26.84    2.67 
  -3  -7  -9    1.98    1.23 
  -4  -7  -9    4.94    1.62 
  -5  -7  -9    2.50    1.68 
  -6  -7  -9   -1.87    1.26 
  -7  -7  -9    0.59    1.62 
  -8  -7  -9    0.81    1.64 
  10  -8  -9    0.94    3.03 
   9  -8  -9   -1.21    2.16 
   9  -8  -9   -0.47    1.29 
   8  -8  -9    0.00    1.12 
   7  -8  -9    1.26    1.03 
   6  -8  -9    2.33    1.19 
   5  -8  -9    0.34    1.00 
   4  -8  -9   26.18    2.45 
   3  -8  -9    4.71    1.37 
   2  -8  -9    9.02    1.76 
   2  -8  -9    8.29    1.49 
   1  -8  -9   97.26    4.13 
   0  -8  -9    5.34    1.32 
  -1  -8  -9    3.12    1.20 
  -2  -8  -9    1.14    1.14 
  -3  -8  -9   13.95    2.16 
  -4  -8  -9    5.11    1.64 
  -5  -8  -9    4.26    1.78 
  -6  -8  -9   -1.23    1.34 
  -7  -8  -9   -1.44    1.36 
  10  -9  -9   -3.40    2.81 
   9  -9  -9   -1.48    2.23 
   9  -9  -9    1.23    1.46 
   8  -9  -9    2.86    1.39 
   7  -9  -9   -0.18    1.07 
   6  -9  -9    2.85    1.22 
   5  -9  -9   10.81    1.74 
   4  -9  -9   -0.24    0.86 
   3  -9  -9    4.33    1.37 
   2  -9  -9   39.28    2.42 
   2  -9  -9   43.94    2.90 
   1  -9  -9    1.26    1.08 
   0  -9  -9   47.20    2.85 
  -1  -9  -9   19.48    2.25 
  -2  -9  -9    8.46    1.73 
  -3  -9  -9   -0.10    1.04 
  -4  -9  -9    1.93    1.39 
  -5  -9  -9    1.02    1.41 
  -6  -9  -9    3.63    1.79 
  -7  -9  -9   -0.12    1.51 
  10 -10  -9   -1.56    2.80 
  10 -10  -9   -1.41    1.50 
   9 -10  -9    1.32    1.76 
   9 -10  -9    1.45    1.57 
   8 -10  -9    0.76    1.30 
   7 -10  -9    1.11    1.11 
   6 -10  -9    3.68    1.28 
   5 -10  -9    0.84    1.09 
   4 -10  -9    8.36    1.65 
   3 -10  -9   20.87    2.36 
   2 -10  -9    2.18    1.16 
   2 -10  -9    3.74    1.24 
   1 -10  -9   33.12    2.33 
   0 -10  -9    4.06    1.34 
  -1 -10  -9    1.83    1.22 
  -2 -10  -9    6.75    1.61 
  -3 -10  -9    2.14    1.42 
  -4 -10  -9   -0.12    1.21 
  -5 -10  -9    5.88    1.89 
  -6 -10  -9    0.71    1.53 
  -7 -10  -9    6.00    2.43 
  10 -11  -9    0.61    3.11 
  10 -11  -9    0.53    1.65 
   9 -11  -9    1.49    1.50 
   8 -11  -9    0.47    1.22 
   7 -11  -9    4.58    1.47 
   6 -11  -9    1.22    1.09 
   5 -11  -9    1.07    1.00 
   4 -11  -9    9.80    1.77 
   3 -11  -9    7.46    1.66 
   2 -11  -9   28.03    2.25 
   2 -11  -9   30.39    2.76 
   1 -11  -9   10.70    1.71 
   1 -11  -9   13.00    2.16 
   0 -11  -9   19.95    2.19 
  -1 -11  -9   11.89    1.86 
  -2 -11  -9    0.75    1.13 
  -3 -11  -9    4.14    1.47 
  -4 -11  -9    7.83    1.85 
  -5 -11  -9   -0.97    1.38 
  -6 -11  -9    2.23    1.79 
  -7 -11  -9    3.26    1.96 
  10 -12  -9   -0.33    3.07 
  10 -12  -9    1.03    1.70 
   9 -12  -9   -0.76    1.32 
   8 -12  -9    1.92    1.43 
   7 -12  -9   -0.59    1.23 
   6 -12  -9    0.88    1.08 
   5 -12  -9   -0.48    0.99 
   4 -12  -9    1.49    1.11 
   3 -12  -9   31.05    2.81 
   2 -12  -9    8.14    1.73 
   1 -12  -9    6.40    1.68 
   1 -12  -9    5.96    1.41 
   0 -12  -9    0.84    1.04 
  -1 -12  -9    0.99    1.01 
  -2 -12  -9    6.77    1.54 
  -3 -12  -9    5.72    1.61 
  -4 -12  -9   -0.05    1.22 
  -5 -12  -9    0.30    1.42 
  -6 -12  -9    1.75    1.73 
  -7 -12  -9    2.27    1.83 
   9 -13  -9   -0.95    1.37 
   8 -13  -9    2.08    1.45 
   7 -13  -9    0.98    1.24 
   6 -13  -9    0.38    1.01 
   5 -13  -9    0.62    1.04 
   4 -13  -9    6.54    1.54 
   3 -13  -9    2.70    1.25 
   2 -13  -9   22.23    2.54 
   1 -13  -9   18.61    2.42 
   1 -13  -9   19.51    2.04 
   0 -13  -9    4.79    1.37 
  -1 -13  -9    2.78    1.33 
  -2 -13  -9    4.90    1.58 
  -3 -13  -9    4.43    1.63 
  -4 -13  -9    4.91    1.74 
  -5 -13  -9    0.56    1.42 
  -6 -13  -9    1.23    1.77 
  -7 -13  -9   -2.04    1.54 
   9 -14  -9   -0.44    1.37 
   8 -14  -9    1.70    1.52 
   7 -14  -9   -0.46    1.19 
   6 -14  -9   -0.95    1.11 
   5 -14  -9    2.14    1.28 
   4 -14  -9    1.30    1.21 
   3 -14  -9   13.09    2.04 
   2 -14  -9    5.00    1.49 
   1 -14  -9   -0.36    0.98 
   1 -14  -9   -1.82    0.85 
   0 -14  -9    0.84    1.11 
  -1 -14  -9   10.99    1.93 
  -2 -14  -9    3.69    1.47 
  -3 -14  -9    2.22    1.52 
  -4 -14  -9    0.27    1.32 
  -5 -14  -9    1.96    1.61 
  -6 -14  -9    0.58    1.66 
  -7 -14  -9   -1.06    1.53 
   9 -15  -9   -0.83    1.46 
   8 -15  -9    4.63    1.77 
   7 -15  -9    1.25    1.30 
   6 -15  -9    0.97    1.32 
   5 -15  -9    1.87    1.30 
   4 -15  -9    2.65    1.26 
   3 -15  -9    4.07    1.52 
   2 -15  -9   16.80    2.35 
   1 -15  -9    6.53    1.70 
   1 -15  -9    2.72    1.19 
   0 -15  -9    4.58    1.31 
   0 -15  -9    4.43    1.55 
  -1 -15  -9    1.11    1.10 
  -2 -15  -9    2.22    1.26 
  -3 -15  -9    6.29    1.80 
  -4 -15  -9    5.34    1.77 
  -5 -15  -9    0.55    1.48 
  -6 -15  -9    1.22    1.70 
   9 -16  -9    2.93    1.73 
   8 -16  -9    1.63    1.57 
   7 -16  -9    0.08    1.31 
   6 -16  -9    0.23    1.24 
   5 -16  -9   -0.20    1.16 
   4 -16  -9    2.70    1.34 
   3 -16  -9    3.68    1.43 
   2 -16  -9    7.56    1.73 
   1 -16  -9    9.66    1.64 
   1 -16  -9   10.01    1.93 
   0 -16  -9   -1.27    0.89 
   0 -16  -9    0.00    1.16 
  -1 -16  -9    2.15    1.24 
  -2 -16  -9    2.13    1.37 
  -3 -16  -9   -1.63    1.11 
  -4 -16  -9    0.52    1.52 
  -5 -16  -9    5.60    1.94 
  -6 -16  -9    1.46    1.68 
   9 -17  -9    0.53    1.51 
   8 -17  -9    3.25    1.75 
   7 -17  -9    0.75    1.36 
   6 -17  -9   -0.65    1.15 
   5 -17  -9    1.74    1.41 
   4 -17  -9    0.41    1.21 
   3 -17  -9   15.49    2.27 
   2 -17  -9    7.74    1.83 
   1 -17  -9    3.41    1.52 
   0 -17  -9   10.95    1.73 
   0 -17  -9   11.60    2.09 
  -1 -17  -9    0.43    1.07 
  -2 -17  -9    0.51    1.17 
  -3 -17  -9    2.47    1.58 
  -4 -17  -9    1.02    1.48 
  -5 -17  -9    2.48    1.71 
  -6 -17  -9    3.97    1.81 
   8 -18  -9    3.65    1.75 
   7 -18  -9    1.65    1.52 
   6 -18  -9    0.82    1.33 
   5 -18  -9    0.18    1.26 
   4 -18  -9    2.40    1.42 
   3 -18  -9    0.00    1.14 
   2 -18  -9   11.33    2.02 
   1 -18  -9   12.28    2.10 
   0 -18  -9    4.19    1.31 
   0 -18  -9   -0.25    1.15 
  -1 -18  -9    2.35    1.20 
  -1 -18  -9    4.05    1.60 
  -2 -18  -9    2.62    1.41 
  -3 -18  -9    1.27    1.28 
  -4 -18  -9    1.73    1.52 
  -5 -18  -9    1.82    1.72 
  -6 -18  -9   -0.23    1.57 
   8 -19  -9    0.47    1.58 
   7 -19  -9    1.47    1.58 
   6 -19  -9    1.24    1.35 
   5 -19  -9    2.84    1.58 
   4 -19  -9    1.20    1.38 
   3 -19  -9   16.91    2.42 
   2 -19  -9    3.80    1.46 
   1 -19  -9    3.31    1.45 
   0 -19  -9    1.73    1.43 
   0 -19  -9    2.27    1.31 
  -1 -19  -9    1.44    1.40 
  -1 -19  -9    0.16    1.14 
  -2 -19  -9    4.91    1.55 
  -3 -19  -9    2.94    1.51 
  -4 -19  -9   -0.95    1.43 
  -5 -19  -9   -0.60    1.53 
  -6 -19  -9    0.65    1.74 
   8 -20  -9   -0.11    1.55 
   7 -20  -9   -0.71    1.37 
   6 -20  -9    1.81    1.50 
   5 -20  -9    0.97    1.49 
   4 -20  -9    0.56    1.38 
   3 -20  -9    0.80    1.41 
   2 -20  -9    2.61    1.50 
   1 -20  -9    0.74    1.30 
   0 -20  -9    2.07    1.31 
   0 -20  -9    1.56    1.37 
  -1 -20  -9    6.27    1.58 
  -1 -20  -9    5.67    1.81 
  -2 -20  -9    2.94    1.52 
  -3 -20  -9   -0.58    1.26 
  -4 -20  -9    2.98    1.77 
  -5 -20  -9   -0.57    1.50 
   8 -21  -9    0.78    1.64 
   7 -21  -9    3.12    1.78 
   6 -21  -9    1.91    1.59 
   5 -21  -9    2.54    1.53 
   4 -21  -9    3.70    1.73 
   3 -21  -9    0.91    1.36 
   2 -21  -9   -0.17    1.22 
   1 -21  -9    0.35    1.25 
   0 -21  -9    4.97    1.67 
   0 -21  -9    6.31    1.62 
  -1 -21  -9    1.01    1.28 
  -1 -21  -9    1.38    1.36 
  -2 -21  -9    1.65    1.54 
  -2 -21  -9    0.73    1.36 
  -3 -21  -9    2.10    1.56 
  -4 -21  -9   -0.10    1.53 
  -5 -21  -9   -1.43    1.47 
   7 -22  -9    3.18    1.88 
   6 -22  -9    3.42    1.78 
   5 -22  -9   -0.48    1.42 
   4 -22  -9    0.66    1.48 
   3 -22  -9   -0.31    1.16 
   2 -22  -9    0.31    1.35 
   1 -22  -9    0.17    1.36 
   0 -22  -9   -0.20    1.33 
  -1 -22  -9   -0.23    1.25 
  -1 -22  -9    0.03    1.29 
  -2 -22  -9    3.26    1.51 
  -2 -22  -9   -0.11    1.44 
  -3 -22  -9    0.13    1.38 
  -4 -22  -9    4.19    1.73 
  -5 -22  -9   -0.08    1.53 
   7 -23  -9    6.17    1.98 
   6 -23  -9   -0.73    1.55 
   5 -23  -9    4.35    1.79 
   4 -23  -9    0.20    1.45 
   3 -23  -9    3.80    1.70 
   2 -23  -9    3.03    1.59 
   1 -23  -9   -0.08    1.33 
   0 -23  -9    1.09    1.52 
  -1 -23  -9    1.09    1.63 
  -1 -23  -9    0.46    1.34 
  -2 -23  -9    4.55    1.80 
  -2 -23  -9    2.05    1.45 
  -3 -23  -9    3.27    1.95 
  -3 -23  -9    1.96    1.62 
  -4 -23  -9    0.33    1.59 
   6 -24  -9   -0.23    1.54 
   5 -24  -9   -0.57    1.38 
   4 -24  -9    5.58    1.96 
   3 -24  -9    1.81    1.50 
   2 -24  -9    3.13    1.67 
   1 -24  -9    1.03    1.54 
   0 -24  -9   -0.26    1.29 
  -1 -24  -9   -0.51    1.37 
  -1 -24  -9   -0.63    1.35 
  -2 -24  -9    0.55    1.47 
  -2 -24  -9    0.42    1.54 
  -3 -24  -9    1.39    1.58 
  -3 -24  -9    1.95    1.91 
  -4 -24  -9    4.65    1.89 
   6 -25  -9    0.65    1.64 
   5 -25  -9    4.75    1.83 
   4 -25  -9    0.38    1.58 
   3 -25  -9    0.46    1.43 
   2 -25  -9   -0.83    1.18 
   1 -25  -9    0.30    1.56 
   0 -25  -9    2.04    1.72 
  -1 -25  -9    0.45    1.60 
  -1 -25  -9   -0.07    1.38 
  -2 -25  -9   -0.87    1.38 
  -2 -25  -9    0.10    1.81 
  -3 -25  -9    2.11    1.65 
  -3 -25  -9    4.76    2.01 
   5 -26  -9    3.58    1.71 
   4 -26  -9    5.35    1.92 
   3 -26  -9   -0.16    1.42 
   2 -26  -9    0.07    1.50 
   1 -26  -9    1.19    1.52 
   0 -26  -9   -0.77    1.41 
  -1 -26  -9    0.23    1.69 
  -2 -26  -9    0.11    1.90 
  -2 -26  -9   -0.52    1.46 
  -3 -26  -9    2.04    1.89 
  -3 -26  -9   -0.07    1.48 
   5 -27  -9   -0.79    1.38 
   4 -27  -9    0.64    1.55 
   3 -27  -9   -0.21    1.62 
   2 -27  -9   -0.47    1.56 
   1 -27  -9   -0.83    1.47 
   0 -27  -9    0.28    1.71 
  -1 -27  -9    2.34    1.90 
  -2 -27  -9    2.89    1.93 
  -2 -27  -9    0.78    1.47 
   4 -28  -9    0.48    1.45 
   3 -28  -9   -0.99    1.49 
   2 -28  -9    1.02    1.65 
   1 -28  -9    1.14    1.66 
   0 -28  -9    3.44    1.90 
  -1 -28  -9    1.25    1.80 
   2 -29  -9   -0.82    1.46 
   1 -29  -9   -0.04    1.68 
  -2 -26  10    1.11    1.80 
  -1 -26  10    2.66    1.81 
   0 -26  10   -0.25    1.73 
  -4 -25  10    4.43    2.14 
  -3 -25  10    2.50    1.97 
  -2 -25  10    0.86    1.81 
  -1 -25  10    0.66    2.02 
   0 -25  10    2.86    2.14 
   1 -25  10   -0.38    1.78 
  -5 -24  10    0.03    1.78 
  -4 -24  10    2.80    1.87 
  -3 -24  10    2.52    1.94 
  -2 -24  10    0.13    1.66 
  -1 -24  10    1.77    1.88 
   0 -24  10    0.86    1.70 
   1 -24  10    1.56    1.77 
   2 -24  10   -2.04    1.68 
  -5 -23  10    2.18    2.08 
  -4 -23  10    3.07    1.88 
  -3 -23  10    3.22    1.88 
  -2 -23  10    4.23    1.99 
  -1 -23  10    1.02    1.79 
   0 -23  10    1.13    1.79 
   1 -23  10    0.90    1.67 
   2 -23  10    0.54    1.81 
  -6 -22  10    0.25    1.88 
  -5 -22  10    2.45    1.80 
  -4 -22  10    2.09    1.83 
  -3 -22  10    0.73    1.62 
  -2 -22  10    0.35    1.66 
  -1 -22  10    7.80    2.28 
   0 -22  10   -2.82    1.34 
   1 -22  10   -0.38    1.62 
   2 -22  10    0.49    1.89 
   3 -22  10    0.27    1.99 
   6  21 -10    1.41    2.01 
  -6 -21  10   -1.32    1.77 
  -5 -21  10    3.74    2.05 
  -4 -21  10    0.28    1.51 
  -3 -21  10    3.75    1.86 
  -2 -21  10    1.86    1.70 
  -1 -21  10    1.22    1.64 
   0 -21  10    1.51    1.59 
   1 -21  10    1.30    1.59 
   2 -21  10    1.95    1.97 
   3 -21  10   -2.30    1.70 
   7  20 -10   -1.17    2.17 
  -6 -20  10    3.30    2.04 
   6  20 -10    3.39    2.31 
  -5 -20  10   -0.52    1.41 
  -4 -20  10    3.39    1.81 
  -2 -20  10    1.47    1.47 
  -1 -20  10    0.24    1.45 
   0 -20  10    2.22    1.54 
   1 -20  10   -1.16    1.55 
   2 -20  10    2.31    1.95 
   3 -20  10   -0.02    1.92 
   4 -20  10    3.06    2.30 
   7  19 -10    2.05    2.23 
   6  19 -10   -0.50    1.91 
  -6 -19  10   -0.91    1.56 
  -5 -19  10    4.40    1.90 
  -4 -19  10   10.30    2.36 
  -3 -19  10    6.60    2.05 
  -2 -19  10    0.27    1.47 
  -1 -19  10   -1.69    1.18 
   0 -19  10    1.24    1.53 
   1 -19  10    1.24    1.64 
   2 -19  10    0.18    1.69 
   3 -19  10    0.87    1.91 
   4 -19  10   -0.74    1.85 
   7  18 -10   -0.31    2.02 
  -6 -18  10    2.46    1.75 
   6  18 -10   -0.08    1.86 
  -5 -18  10   -0.14    1.41 
   5  18 -10   -0.16    1.85 
  -4 -18  10   11.06    2.24 
  -3 -18  10    3.45    1.65 
  -2 -18  10    0.09    1.43 
  -1 -18  10    3.09    1.68 
   0 -18  10    0.16    1.47 
   1 -18  10    1.42    1.73 
   2 -18  10    0.16    1.79 
   3 -18  10   -2.84    1.57 
   4 -18  10   -0.24    1.94 
   8  17 -10   -1.20    2.27 
   7  17 -10   -2.24    1.88 
  -6 -17  10   -1.06    1.42 
   6  17 -10   -0.90    1.90 
  -5 -17  10   10.92    2.28 
   5  17 -10    9.56    2.58 
  -4 -17  10    1.41    1.32 
  -3 -17  10    2.15    1.46 
  -2 -17  10    2.52    1.53 
  -1 -17  10   -0.04    1.29 
   0 -17  10    3.38    1.68 
   1 -17  10    0.04    1.61 
   2 -17  10    0.57    1.65 
   3 -17  10    3.08    1.86 
   4 -17  10    1.66    2.10 
   5 -17  10    5.56    2.67 
   8  16 -10   -1.44    2.11 
   7  16 -10    1.17    2.03 
  -6 -16  10    4.40    1.72 
   6  16 -10    5.19    2.33 
  -5 -16  10    0.86    1.30 
   5  16 -10    1.66    1.72 
  -4 -16  10    6.20    1.77 
  -3 -16  10    1.00    1.28 
  -2 -16  10    1.41    1.36 
  -1 -16  10    1.23    1.43 
   0 -16  10    1.84    1.56 
   1 -16  10    0.75    1.44 
   2 -16  10    1.23    1.76 
   3 -16  10    3.17    2.06 
   4 -16  10    2.18    2.01 
  -5  16 -10   -0.99    3.39 
   8  15 -10    0.77    2.20 
   7  15 -10    0.44    2.10 
  -6 -15  10    1.14    1.48 
   6  15 -10    0.96    1.77 
   5  15 -10    9.23    2.48 
  -5 -15  10    6.53    1.75 
   4  15 -10    2.40    1.87 
  -4 -15  10    0.03    1.07 
  -3 -15  10    1.28    1.31 
  -2 -15  10    3.76    1.55 
  -1 -15  10    4.45    1.60 
   0 -15  10    5.52    1.80 
   1 -15  10   -0.35    1.35 
   2 -15  10    0.58    1.60 
   3 -15  10    1.02    1.86 
   4 -15  10   -0.42    1.68 
  -5  15 -10    6.97    3.88 
   8  14 -10    0.81    2.24 
   7  14 -10    0.04    2.14 
  -6 -14  10   10.85    2.20 
   6  14 -10   11.27    2.93 
  -5 -14  10    1.18    1.32 
   5  14 -10    1.52    1.79 
   4  14 -10    4.45    1.90 
  -4 -14  10    3.73    1.45 
  -3 -14  10    1.30    1.14 
  -2 -14  10    5.21    1.66 
  -1 -14  10    0.71    1.21 
   0 -14  10   -0.74    1.25 
   1 -14  10    2.41    1.59 
   2 -14  10    1.69    1.72 
   3 -14  10    1.95    1.72 
   4 -14  10    4.03    2.13 
  -5  14 -10   -1.39    2.81 
   9  13 -10   -0.56    2.24 
   8  13 -10    1.57    2.20 
   7  13 -10    0.99    2.09 
   6  13 -10    3.37    2.17 
   5  13 -10   11.06    2.63 
  -5 -13  10   13.62    2.17 
  -4 -13  10    0.00    1.14 
   4  13 -10    0.88    1.55 
  -3 -13  10    5.79    1.62 
  -2 -13  10    0.98    1.22 
  -1 -13  10    5.84    1.77 
   0 -13  10    4.56    1.68 
   1 -13  10   -0.01    1.35 
   2 -13  10    1.12    1.67 
   3 -13  10    3.33    2.00 
   4 -13  10   -0.41    1.88 
  -5  13 -10    0.29    2.75 
  -6  13 -10   -0.93    2.36 
   9  12 -10   -0.90    2.29 
   8  12 -10    2.69    2.43 
   7  12 -10   -1.18    1.77 
   6  12 -10    4.47    2.09 
   5  12 -10   -1.63    1.43 
  -5 -12  10    0.31    1.22 
  -4 -12  10   13.74    2.20 
   4  12 -10   15.18    2.79 
  -3 -12  10    0.70    1.11 
   3  12 -10    0.59    1.51 
  -2 -12  10    6.56    1.59 
  -1 -12  10   -0.26    1.10 
   0 -12  10    1.24    1.43 
   1 -12  10    1.74    1.56 
   2 -12  10    3.40    1.86 
   3 -12  10    2.29    1.88 
  -4  12 -10    3.09    2.91 
  -5  12 -10   -1.54    2.22 
  -6  12 -10   -1.15    2.27 
   9  11 -10    0.10    2.39 
   8  11 -10    2.05    2.47 
   7  11 -10    0.05    1.85 
   6  11 -10    0.71    1.87 
  -5 -11  10    3.50    1.39 
   5  11 -10    7.79    2.05 
   4  11 -10    1.48    1.45 
  -4 -11  10    2.78    1.25 
   3  11 -10   24.41    3.27 
  -3 -11  10   19.96    2.55 
  -2 -11  10    4.15    1.50 
  -1 -11  10   -0.58    1.09 
   0 -11  10    0.56    1.39 
   1 -11  10    1.64    1.47 
   2 -11  10    5.95    2.01 
   3 -11  10    3.57    2.01 
  -4  11 -10   -2.37    1.94 
  -5  11 -10    2.68    2.38 
  -6  11 -10    0.72    2.13 
   9  10 -10    0.64    2.37 
   8  10 -10    2.77    2.45 
   7  10 -10    2.23    2.16 
   6  10 -10    4.64    2.33 
  -5 -10  10    1.78    1.17 
   5  10 -10    3.17    1.77 
   4  10 -10    6.72    2.03 
  -4 -10  10    6.45    1.64 
  -3 -10  10    1.84    1.20 
   3  10 -10    1.20    1.48 
  -2 -10  10   10.64    1.97 
  -1 -10  10    1.21    1.33 
   0 -10  10    2.85    1.50 
   1 -10  10    1.77    1.46 
   2 -10  10    1.84    1.52 
   3 -10  10   -0.22    1.66 
  -4  10 -10    3.12    2.36 
  -5  10 -10    0.29    1.96 
  -6  10 -10    1.97    2.24 
   9   9 -10   -0.79    2.16 
   8   9 -10    3.34    2.57 
   7   9 -10    3.83    2.36 
   6   9 -10    2.10    1.82 
  -5  -9  10    4.05    1.43 
   5   9 -10    0.34    1.60 
  -4  -9  10    5.63    1.50 
   4   9 -10    5.21    1.74 
  -3  -9  10    5.22    1.53 
   3   9 -10    8.37    2.13 
  -2  -9  10   -1.13    1.02 
  -1  -9  10    1.71    1.37 
   0  -9  10    0.73    1.29 
   1  -9  10    0.38    1.34 
   2  -9  10    9.68    2.30 
  -3   9 -10    1.00    1.68 
  -4   9 -10   -1.78    1.68 
  -5   9 -10    0.85    1.81 
  -6   9 -10    2.84    2.26 
   9   8 -10   -1.60    2.34 
   8   8 -10    1.02    2.28 
   7   8 -10    1.60    1.91 
   6   8 -10    6.58    2.36 
  -5  -8  10   -0.15    1.17 
   5   8 -10   -0.29    1.58 
   4   8 -10    2.13    1.61 
  -4  -8  10    1.31    1.12 
  -3  -8  10   -0.41    1.06 
   3   8 -10   -0.82    1.37 
  -2  -8  10    2.38    1.36 
   2   8 -10   -0.91    1.52 
  -1  -8  10    2.63    1.33 
   0  -8  10   11.84    2.18 
   1  -8  10   13.14    2.38 
   2  -8  10    7.48    2.21 
  -3   8 -10    2.35    1.84 
  -4   8 -10    0.96    1.68 
  -5   8 -10   -1.05    1.49 
  -6   8 -10    5.94    2.47 
   9   7 -10    3.53    2.89 
   8   7 -10    1.79    2.45 
   7   7 -10    0.94    2.07 
   6   7 -10    0.57    1.47 
   5   7 -10    2.94    1.68 
   4   7 -10    1.62    1.49 
  -4  -7  10    1.38    1.14 
   3   7 -10    8.59    2.16 
  -3  -7  10   10.24    1.89 
  -2  -7  10    1.07    1.23 
   2   7 -10    0.43    1.54 
  -1  -7  10    5.12    1.64 
   0  -7  10   10.45    2.15 
   1  -7  10    0.61    1.31 
   2  -7  10    9.93    2.24 
  -3   7 -10    0.62    1.58 
  -4   7 -10    0.58    1.76 
  -5   7 -10    4.22    2.10 
  -6   7 -10   -0.98    1.66 
   9   6 -10    1.15    2.72 
   8   6 -10    0.11    2.23 
   7   6 -10    1.15    1.73 
   6   6 -10    0.91    1.85 
   5   6 -10   -0.01    1.46 
   4   6 -10    2.40    1.68 
  -4  -6  10    9.76    1.81 
   3   6 -10    5.17    1.98 
  -3  -6  10    5.69    1.62 
  -2  -6  10   10.02    1.99 
   2   6 -10    6.32    2.13 
  -1  -6  10   22.58    2.79 
   0  -6  10    2.20    1.49 
   1  -6  10   11.49    2.38 
  -2   6 -10    0.97    1.43 
  -3   6 -10    0.10    1.51 
  -4   6 -10   -0.06    1.43 
  -5   6 -10    0.63    1.87 
  -6   6 -10    2.96    1.98 
  -7   6 -10   -1.16    1.74 
  10   5 -10    1.10    2.68 
   9   5 -10    3.21    2.66 
   8   5 -10    1.53    2.24 
   7   5 -10    5.70    2.50 
   6   5 -10   -0.28    1.66 
   5   5 -10    1.56    1.89 
  -4  -5  10    3.92    1.43 
   4   5 -10    2.20    1.79 
   3   5 -10   33.33    2.78 
   3   5 -10   26.10    3.59 
  -3  -5  10   25.39    2.71 
   2   5 -10    0.74    1.41 
  -2  -5  10    1.98    1.24 
  -1  -5  10    1.40    1.29 
   1   5 -10    0.41    1.73 
   0  -5  10   35.09    3.38 
   1  -5  10    1.65    1.59 
  -2   5 -10    7.67    2.02 
  -3   5 -10   -0.86    1.49 
  -4   5 -10    1.55    1.58 
  -5   5 -10    0.88    1.50 
  -6   5 -10   -0.58    1.63 
  -7   5 -10    2.18    1.99 
  10   4 -10    0.82    2.94 
   9   4 -10    0.14    2.34 
   8   4 -10    2.83    2.48 
   7   4 -10   -1.81    1.97 
   6   4 -10   14.19    3.05 
   5   4 -10    0.10    1.57 
   4   4 -10   25.08    3.87 
  -4  -4  10   29.89    2.81 
   3   4 -10    1.54    1.34 
  -3  -4  10    0.14    1.09 
   3   4 -10    4.73    1.99 
   2   4 -10    7.31    1.84 
  -2  -4  10    3.32    1.45 
  -1  -4  10    2.07    1.39 
   0  -4  10   -0.25    1.22 
  -1   4 -10   23.22    2.93 
  -2   4 -10    0.07    1.28 
  -3   4 -10   -0.07    1.30 
  -4   4 -10    0.63    1.33 
  -5   4 -10   -0.42    1.39 
  -6   4 -10    3.99    1.86 
  -7   4 -10   -1.43    1.84 
  10   3 -10    2.02    3.04 
   9   3 -10    7.20    3.00 
   8   3 -10   -0.16    2.22 
   7   3 -10    2.62    2.31 
   6   3 -10    1.55    1.81 
   5   3 -10   35.16    4.54 
   4   3 -10    3.61    1.44 
   4   3 -10    1.19    1.85 
  -4  -3  10    3.77    1.47 
   3   3 -10    8.82    1.77 
   3   3 -10   12.67    2.26 
  -3  -3  10   12.88    2.02 
  -2  -3  10    0.86    1.15 
  -1  -3  10    4.15    1.47 
  -1   3 -10    2.94    1.41 
  -2   3 -10   -0.41    1.30 
  -3   3 -10   -1.70    1.08 
  -4   3 -10    0.93    1.27 
  -5   3 -10    1.67    1.64 
  -6   3 -10   -0.11    1.56 
  -7   3 -10    4.41    2.17 
  10   2 -10   -0.64    2.57 
   9   2 -10    1.25    2.41 
   8   2 -10    3.38    2.63 
   7   2 -10    1.49    2.26 
   6   2 -10    7.13    2.67 
   5   2 -10   -2.34    1.69 
   4   2 -10   37.39    2.69 
   4   2 -10   41.06    4.49 
   3   2 -10    4.28    1.39 
  -3  -2  10    4.52    1.63 
  -2  -2  10   20.90    2.59 
  -1  -2  10   -0.64    1.21 
   0   2 -10    1.53    1.32 
  -1   2 -10    0.66    1.31 
  -2   2 -10   -0.24    1.14 
  -3   2 -10    2.06    1.32 
  -4   2 -10    1.21    1.46 
  -5   2 -10    0.16    1.36 
  -6   2 -10    7.55    2.40 
  -7   2 -10   -1.13    1.54 
  10   1 -10    2.93    2.82 
   9   1 -10    2.44    2.54 
   8   1 -10    2.02    2.35 
   7   1 -10    4.59    2.54 
   6   1 -10    2.08    2.19 
   5   1 -10   27.30    4.10 
   5   1 -10   26.68    2.38 
   4   1 -10   -0.40    1.05 
  -3  -1  10   24.27    2.63 
   3   1 -10   22.10    2.44 
  -2  -1  10    2.09    1.32 
   1   1 -10    2.62    1.35 
   0   1 -10   -1.59    1.07 
  -1   1 -10   -0.68    1.12 
  -2   1 -10    2.09    1.24 
  -3   1 -10    4.56    1.60 
  -4   1 -10    0.24    1.47 
  -5   1 -10    3.09    1.62 
  -6   1 -10   -2.35    1.45 
  -7   1 -10    3.15    1.90 
  10   0 -10    2.01    2.86 
   9   0 -10   -1.19    2.32 
   8   0 -10   -1.21    2.31 
   7   0 -10   -3.40    1.81 
   6   0 -10   11.57    3.21 
   5   0 -10    0.26    1.06 
   5   0 -10    3.73    1.33 
   4   0 -10   26.15    2.38 
   3   0 -10    0.73    1.16 
   2   0 -10   28.60    2.78 
   1   0 -10   -0.64    0.93 
   0   0 -10    0.18    1.19 
  -1   0 -10    0.79    1.07 
  -2   0 -10    1.86    1.13 
  -3   0 -10    2.66    1.37 
  -4   0 -10    8.41    1.99 
  -5   0 -10    1.68    1.56 
  -6   0 -10    2.53    1.86 
  -7   0 -10   -1.78    1.68 
  10  -1 -10   -2.59    2.48 
   9  -1 -10    3.74    2.77 
   8  -1 -10    0.64    2.39 
   7  -1 -10   -0.54    2.21 
   6  -1 -10    5.03    2.34 
   6  -1 -10    5.26    1.55 
   5  -1 -10   31.39    2.54 
   4  -1 -10    3.41    1.27 
   3  -1 -10   23.52    2.48 
   3  -1 -10   24.25    2.56 
   2  -1 -10    1.46    1.32 
   1  -1 -10    1.59    1.31 
   0  -1 -10   -0.89    1.03 
  -1  -1 -10   -0.06    0.95 
  -2  -1 -10    1.00    1.10 
  -3  -1 -10    1.62    1.31 
  -4  -1 -10    0.98    1.41 
  -5  -1 -10    5.49    2.00 
  -6  -1 -10   -0.51    1.74 
  -7  -1 -10    3.52    2.03 
  10  -2 -10    1.32    2.72 
   9  -2 -10   -0.81    2.39 
   8  -2 -10    3.66    2.82 
   7  -2 -10   -4.00    1.98 
   6  -2 -10    8.27    1.67 
   6  -2 -10   12.36    2.53 
   5  -2 -10    2.35    1.17 
   4  -2 -10   41.71    2.81 
   3  -2 -10    1.07    1.25 
   3  -2 -10    3.45    1.56 
   2  -2 -10   16.05    2.21 
   1  -2 -10    1.27    1.15 
   0  -2 -10    1.05    1.06 
  -1  -2 -10    0.01    0.93 
  -2  -2 -10    1.31    1.07 
  -3  -2 -10    3.01    1.43 
  -4  -2 -10    1.31    1.42 
  -5  -2 -10    0.65    1.46 
  -6  -2 -10    5.53    2.09 
  -7  -2 -10   -2.62    1.55 
  10  -3 -10    3.13    2.78 
   9  -3 -10    5.53    3.16 
   8  -3 -10   -4.94    1.84 
   7  -3 -10    4.90    2.74 
   6  -3 -10   -2.02    0.99 
   5  -3 -10   33.99    2.51 
   4  -3 -10    4.23    1.31 
   3  -3 -10   10.86    1.97 
   3  -3 -10   10.58    1.93 
   2  -3 -10   -1.14    0.95 
   1  -3 -10    4.98    1.48 
   0  -3 -10   27.26    2.65 
  -1  -3 -10    1.48    1.23 
  -2  -3 -10    2.52    1.32 
  -3  -3 -10    2.02    1.35 
  -4  -3 -10   -1.24    1.20 
  -5  -3 -10    2.65    1.62 
  -6  -3 -10   -1.08    1.44 
  -7  -3 -10    0.12    1.68 
  10  -4 -10    2.47    2.88 
   9  -4 -10    0.08    2.65 
   8  -4 -10   -0.06    2.53 
   7  -4 -10    0.59    1.29 
   7  -4 -10    8.21    2.35 
   6  -4 -10   10.57    1.80 
   5  -4 -10    1.24    1.06 
   4  -4 -10   24.55    2.47 
   3  -4 -10   -0.32    1.09 
   2  -4 -10    7.06    1.57 
   1  -4 -10    4.87    1.39 
   0  -4 -10    1.62    1.00 
  -1  -4 -10   17.54    2.30 
  -2  -4 -10    1.87    1.12 
  -3  -4 -10    0.69    1.28 
  -4  -4 -10    1.11    1.44 
  -5  -4 -10    0.98    1.46 
  -6  -4 -10    2.19    1.85 
  -7  -4 -10    0.75    1.74 
  10  -5 -10    0.73    2.63 
   9  -5 -10    3.05    3.11 
   8  -5 -10   -1.49    2.18 
   7  -5 -10    7.53    1.67 
   6  -5 -10    2.41    1.25 
   5  -5 -10    2.47    1.21 
   4  -5 -10    3.56    1.29 
   3  -5 -10   23.91    2.59 
   2  -5 -10    1.01    1.10 
   2  -5 -10    3.35    1.37 
   1  -5 -10    2.77    1.22 
   0  -5 -10   37.47    3.05 
  -1  -5 -10    2.16    1.21 
  -2  -5 -10    6.25    1.74 
  -3  -5 -10    2.38    1.44 
  -4  -5 -10    1.35    1.47 
  -5  -5 -10   -0.66    1.37 
  -6  -5 -10    0.53    1.68 
  -7  -5 -10    6.71    2.25 
   9  -6 -10    0.24    2.81 
   8  -6 -10    5.65    1.67 
   8  -6 -10    5.45    2.93 
   7  -6 -10   -1.32    1.05 
   6  -6 -10    1.22    1.20 
   5  -6 -10    1.02    1.16 
   4  -6 -10    7.68    1.68 
   3  -6 -10    4.65    1.43 
   2  -6 -10    2.83    1.46 
   2  -6 -10    6.17    1.56 
   1  -6 -10   22.10    2.44 
   0  -6 -10    4.52    1.44 
  -1  -6 -10    9.35    1.87 
  -2  -6 -10    2.47    1.29 
  -3  -6 -10    3.38    1.52 
  -4  -6 -10    1.22    1.52 
  -5  -6 -10   -0.70    1.40 
  -6  -6 -10    1.43    1.82 
  -7  -6 -10   -0.13    1.64 
   9  -7 -10   -2.18    2.27 
   8  -7 -10   -0.34    1.32 
   8  -7 -10    6.84    2.41 
   7  -7 -10    0.12    1.20 
   6  -7 -10    1.77    1.14 
   5  -7 -10    1.41    1.13 
   4  -7 -10    1.27    1.13 
   3  -7 -10   12.28    2.03 
   2  -7 -10    1.13    1.23 
   2  -7 -10    1.18    1.24 
   1  -7 -10    4.64    1.48 
   0  -7 -10   14.54    2.18 
  -1  -7 -10    0.73    1.10 
  -2  -7 -10   11.64    2.04 
  -3  -7 -10    3.61    1.49 
  -4  -7 -10    0.78    1.43 
  -5  -7 -10    1.68    1.69 
  -6  -7 -10   -0.90    1.62 
   9  -8 -10   -0.87    2.51 
   8  -8 -10   -1.63    1.27 
   7  -8 -10   -0.50    1.18 
   6  -8 -10    6.50    1.70 
   5  -8 -10    0.50    1.10 
   4  -8 -10    1.53    1.18 
   3  -8 -10   -0.74    0.90 
   2  -8 -10    1.20    1.23 
   2  -8 -10    3.28    1.37 
   1  -8 -10    3.17    1.29 
   0  -8 -10   11.55    1.90 
  -1  -8 -10   12.63    2.07 
  -2  -8 -10   10.44    2.02 
  -3  -8 -10   -0.97    1.18 
  -4  -8 -10    0.35    1.48 
  -5  -8 -10   -0.77    1.55 
  -6  -8 -10    3.17    1.91 
   9  -9 -10    0.33    1.45 
   9  -9 -10   -2.66    2.56 
   8  -9 -10    1.67    1.40 
   7  -9 -10    5.02    1.59 
   6  -9 -10    1.15    1.23 
   5  -9 -10    1.32    1.29 
   4  -9 -10    4.84    1.58 
   3  -9 -10    7.29    1.78 
   2  -9 -10   -1.31    0.99 
   1  -9 -10    2.98    1.33 
   0  -9 -10    1.17    1.14 
  -1  -9 -10    0.10    1.05 
  -2  -9 -10   11.16    2.00 
  -3  -9 -10    1.92    1.51 
  -4  -9 -10   -0.50    1.39 
  -5  -9 -10    1.75    1.65 
  -6  -9 -10   -0.96    1.59 
   9 -10 -10    0.36    1.51 
   9 -10 -10    3.26    2.17 
   8 -10 -10    0.28    1.38 
   7 -10 -10    2.94    1.52 
   6 -10 -10    3.61    1.45 
   5 -10 -10    0.80    1.18 
   4 -10 -10    9.11    1.93 
   3 -10 -10   -1.20    1.10 
   2 -10 -10    9.53    1.93 
   1 -10 -10   -0.09    1.26 
   1 -10 -10   -0.46    1.03 
   0 -10 -10    2.18    1.27 
  -1 -10 -10    2.33    1.31 
  -2 -10 -10    2.14    1.45 
  -3 -10 -10    1.12    1.45 
  -4 -10 -10    2.59    1.71 
  -5 -10 -10    1.02    1.64 
  -6 -10 -10    1.79    1.84 
   9 -11 -10    1.78    1.62 
   8 -11 -10    0.57    1.43 
   7 -11 -10    0.88    1.31 
   6 -11 -10    0.30    1.21 
   5 -11 -10    3.94    1.45 
   4 -11 -10    0.92    1.20 
   3 -11 -10   26.73    2.81 
   2 -11 -10    3.34    1.52 
   1 -11 -10    0.00    1.16 
   1 -11 -10    0.85    1.20 
   0 -11 -10   -0.32    1.01 
  -1 -11 -10    1.64    1.31 
  -2 -11 -10    4.99    1.63 
  -3 -11 -10    4.26    1.76 
  -4 -11 -10   -0.42    1.35 
  -5 -11 -10    0.25    1.58 
  -6 -11 -10    0.36    1.75 
   9 -12 -10    1.11    1.58 
   8 -12 -10   -1.21    1.30 
   7 -12 -10    0.82    1.31 
   6 -12 -10    6.12    1.74 
   5 -12 -10    0.23    1.29 
   4 -12 -10   13.21    2.18 
   3 -12 -10    0.02    1.07 
   2 -12 -10    6.31    1.79 
   1 -12 -10   -0.54    1.13 
   1 -12 -10    1.76    1.21 
   0 -12 -10    0.57    1.14 
  -1 -12 -10    0.68    1.17 
  -2 -12 -10    2.75    1.48 
  -3 -12 -10    1.61    1.49 
  -4 -12 -10    0.45    1.61 
  -5 -12 -10    0.49    1.64 
  -6 -12 -10    0.52    1.67 
   9 -13 -10    0.49    1.53 
   8 -13 -10    3.51    1.66 
   7 -13 -10    0.09    1.34 
   6 -13 -10    4.71    1.71 
   5 -13 -10   14.23    2.27 
   4 -13 -10   -0.91    1.03 
   3 -13 -10    1.52    1.24 
   2 -13 -10    1.91    1.32 
   1 -13 -10    2.97    1.48 
   1 -13 -10    3.58    1.69 
   0 -13 -10    2.11    1.31 
  -1 -13 -10    0.67    1.18 
  -2 -13 -10    0.76    1.40 
  -3 -13 -10    3.00    1.66 
  -4 -13 -10   -0.45    1.46 
  -5 -13 -10   -0.73    1.55 
  -6 -13 -10   -1.74    1.52 
   8 -14 -10   -0.40    1.44 
   7 -14 -10   -1.46    1.29 
   6 -14 -10   15.49    2.40 
   5 -14 -10   -0.63    1.27 
   4 -14 -10    3.37    1.57 
   3 -14 -10    2.49    1.44 
   2 -14 -10    2.93    1.55 
   1 -14 -10    0.20    1.23 
   0 -14 -10   -1.34    1.12 
   0 -14 -10    1.74    1.58 
  -1 -14 -10    1.11    1.34 
  -2 -14 -10    0.59    1.32 
  -3 -14 -10    1.37    1.52 
  -4 -14 -10   -0.17    1.55 
  -5 -14 -10    0.76    1.67 
   8 -15 -10   -0.58    1.46 
   7 -15 -10    4.93    1.84 
   6 -15 -10   -0.17    1.36 
   5 -15 -10    5.22    1.78 
   4 -15 -10    2.57    1.45 
   3 -15 -10    0.58    1.37 
   2 -15 -10    0.31    1.30 
   1 -15 -10    5.01    1.78 
   0 -15 -10    5.62    1.62 
   0 -15 -10    5.76    1.94 
  -1 -15 -10   -0.85    1.14 
  -2 -15 -10   -0.12    1.31 
  -3 -15 -10   -1.15    1.28 
  -4 -15 -10    2.40    1.65 
  -5 -15 -10    2.14    1.76 
   8 -16 -10    0.15    1.51 
   7 -16 -10    0.61    1.48 
   6 -16 -10    3.74    1.74 
   5 -16 -10   -0.53    1.38 
   4 -16 -10    5.45    1.85 
   3 -16 -10   -0.14    1.27 
   2 -16 -10    0.27    1.37 
   1 -16 -10    2.54    1.43 
   0 -16 -10   -1.24    1.13 
   0 -16 -10   -1.07    1.41 
  -1 -16 -10    0.38    1.20 
  -2 -16 -10   -0.88    1.25 
  -3 -16 -10    2.90    1.69 
  -4 -16 -10    2.99    1.92 
  -5 -16 -10   -1.31    1.45 
   8 -17 -10    0.70    1.61 
   7 -17 -10   -1.83    1.39 
   6 -17 -10   -0.80    1.37 
   5 -17 -10   11.65    2.32 
   4 -17 -10   -0.24    1.36 
   3 -17 -10    2.46    1.61 
   2 -17 -10    0.66    1.33 
   1 -17 -10    0.11    1.34 
   0 -17 -10    2.67    1.66 
   0 -17 -10    1.10    1.37 
  -1 -17 -10   -1.68    1.12 
  -2 -17 -10   -0.44    1.20 
  -3 -17 -10   -1.23    1.33 
  -4 -17 -10    0.56    1.60 
  -5 -17 -10    1.36    1.82 
   7 -18 -10   -2.64    1.27 
   6 -18 -10    1.81    1.65 
   5 -18 -10   -0.16    1.44 
   4 -18 -10    9.64    2.10 
   3 -18 -10    4.29    1.86 
   2 -18 -10   -1.45    1.22 
   1 -18 -10    1.38    1.53 
   0 -18 -10    0.53    1.47 
  -1 -18 -10   -0.68    1.51 
  -1 -18 -10    1.90    1.44 
  -2 -18 -10   -0.64    1.33 
  -3 -18 -10    0.24    1.54 
  -4 -18 -10   -1.02    1.50 
   7 -19 -10    0.73    1.61 
   6 -19 -10   -0.53    1.48 
   5 -19 -10    2.29    1.72 
   4 -19 -10    0.89    1.49 
   3 -19 -10    6.10    1.89 
   2 -19 -10   -0.06    1.40 
   1 -19 -10    0.42    1.34 
   0 -19 -10    1.12    1.45 
  -1 -19 -10    2.50    1.68 
  -1 -19 -10    0.46    1.32 
  -2 -19 -10   -0.80    1.24 
  -3 -19 -10   -0.69    1.49 
  -4 -19 -10    0.60    1.63 
   7 -20 -10   -0.94    1.51 
   6 -20 -10   -1.13    1.38 
   5 -20 -10    0.54    1.62 
   4 -20 -10    5.14    1.98 
   3 -20 -10    2.11    1.54 
   2 -20 -10    2.61    1.76 
   1 -20 -10    2.06    1.68 
   0 -20 -10    2.94    1.74 
  -1 -20 -10    0.85    1.55 
  -1 -20 -10    0.98    1.44 
  -2 -20 -10    0.97    1.51 
  -2 -20 -10   -0.09    1.82 
  -3 -20 -10    0.30    1.47 
  -4 -20 -10   -0.06    1.64 
   6 -21 -10    1.20    1.64 
   5 -21 -10    6.80    2.06 
   4 -21 -10   -1.04    1.36 
   3 -21 -10    3.17    1.78 
   2 -21 -10    0.83    1.61 
   1 -21 -10    1.30    1.54 
   0 -21 -10    0.82    1.49 
  -1 -21 -10    1.17    1.73 
  -1 -21 -10    0.24    1.46 
  -2 -21 -10   -0.31    1.40 
  -2 -21 -10   -1.79    1.59 
  -3 -21 -10    2.86    1.76 
   6 -22 -10    3.38    1.75 
   5 -22 -10    1.38    1.58 
   4 -22 -10    4.59    1.96 
   3 -22 -10    0.40    1.60 
   2 -22 -10   -0.84    1.37 
   1 -22 -10    4.32    1.90 
   0 -22 -10    1.34    1.59 
  -1 -22 -10   -0.62    1.54 
  -1 -22 -10    0.54    1.40 
  -2 -22 -10    1.16    1.82 
  -2 -22 -10    2.80    1.72 
  -3 -22 -10   -0.20    1.47 
  -3 -22 -10   -1.25    1.90 
   5 -23 -10    2.91    1.78 
   4 -23 -10    1.32    1.78 
   3 -23 -10    1.91    1.59 
   2 -23 -10    2.18    1.72 
   1 -23 -10    0.24    1.57 
   0 -23 -10    1.86    1.77 
  -1 -23 -10    1.55    1.86 
  -2 -23 -10    0.72    1.51 
  -2 -23 -10    1.82    1.92 
   5 -24 -10    1.67    1.77 
   4 -24 -10    5.96    2.05 
   3 -24 -10    2.46    1.66 
   2 -24 -10    0.17    1.61 
   1 -24 -10   -0.40    1.56 
   0 -24 -10    1.18    1.78 
  -1 -24 -10    0.51    1.78 
  -2 -24 -10   -2.40    1.61 
  -2 -24 -10    1.91    1.56 
   4 -25 -10    0.56    1.66 
   3 -25 -10    3.86    1.98 
   2 -25 -10    0.55    1.56 
   1 -25 -10   -0.48    1.77 
   0 -25 -10    0.93    1.66 
  -1 -25 -10    0.99    1.71 
   2 -26 -10    0.73    1.61 
   1 -26 -10    4.31    1.92 
   0 -26 -10    0.25    1.65 
  -3 -22  11    1.31    1.90 
  -2 -22  11   -0.82    1.73 
  -1 -22  11   -0.21    1.66 
   0 -22  11    1.46    1.91 
  -4 -21  11   -0.51    1.65 
  -3 -21  11    0.48    1.62 
  -2 -21  11    3.49    2.07 
  -1 -21  11    5.26    2.18 
   0 -21  11    0.36    1.85 
   1 -21  11   -0.43    1.70 
  -5 -20  11    1.78    2.03 
  -4 -20  11    1.84    1.82 
  -3 -20  11    0.93    1.67 
  -2 -20  11   -0.78    1.57 
  -1 -20  11    3.90    2.04 
   0 -20  11    3.74    2.25 
   1 -20  11   -0.62    1.81 
   2 -20  11    1.52    1.86 
  -5 -19  11    5.45    2.14 
  -4 -19  11   -0.04    1.70 
  -3 -19  11    0.74    1.71 
  -2 -19  11   -0.81    1.57 
  -1 -19  11    1.92    1.81 
   0 -19  11    3.18    2.21 
   1 -19  11    2.31    2.02 
   2 -19  11   -1.67    1.70 
  -5 -18  11    2.47    1.82 
  -4 -18  11    6.53    2.16 
  -3 -18  11    1.71    1.74 
  -2 -18  11   -0.01    1.58 
  -1 -18  11    4.44    1.91 
   0 -18  11    1.37    1.74 
   1 -18  11    3.02    2.11 
   2 -18  11    0.13    1.77 
   3 -18  11   -1.39    1.91 
   6  17 -11   -2.59    1.80 
  -5 -17  11    3.74    1.93 
  -4 -17  11    0.59    1.66 
  -3 -17  11    0.79    1.61 
  -2 -17  11    7.49    2.18 
  -1 -17  11    0.41    1.59 
   0 -17  11   -0.18    1.67 
   1 -17  11   -2.13    1.55 
   2 -17  11   -0.82    1.77 
   3 -17  11   -0.39    1.79 
   7  16 -11    1.29    2.33 
   6  16 -11    2.52    2.22 
  -5 -16  11   -0.17    1.65 
  -4 -16  11    0.08    1.48 
  -3 -16  11    3.89    1.78 
  -2 -16  11   -0.04    1.57 
  -1 -16  11    3.43    1.89 
   0 -16  11    0.45    1.61 
   1 -16  11    1.17    1.76 
   2 -16  11    1.13    1.90 
   3 -16  11    2.41    2.06 
   7  15 -11    4.47    2.41 
   6  15 -11    4.81    2.42 
  -5 -15  11    0.47    1.53 
  -4 -15  11    0.71    1.56 
  -3 -15  11    1.56    1.55 
  -2 -15  11    5.43    1.97 
  -1 -15  11    0.31    1.58 
   0 -15  11    1.51    1.71 
   1 -15  11   -0.15    1.61 
   2 -15  11    0.76    1.79 
   3 -15  11    0.83    1.87 
   7  14 -11    2.58    2.30 
   6  14 -11   -1.93    2.10 
   5  14 -11    2.58    2.33 
  -5 -14  11   -0.28    1.59 
  -4 -14  11   -0.80    1.43 
  -3 -14  11    2.84    1.58 
  -2 -14  11    3.08    1.76 
  -1 -14  11    5.47    1.95 
   0 -14  11    1.24    1.67 
   1 -14  11    4.43    2.06 
   2 -14  11    2.42    1.90 
   3 -14  11    0.37    1.82 
  -4  14 -11    0.19    3.53 
   7  13 -11    4.18    2.67 
   6  13 -11   -0.53    2.05 
  -5 -13  11   -0.43    1.37 
   5  13 -11   -0.02    2.00 
  -4 -13  11    3.23    1.55 
  -3 -13  11    0.95    1.41 
  -2 -13  11    4.91    1.75 
  -1 -13  11   -0.41    1.47 
   0 -13  11    3.11    1.98 
   1 -13  11   -1.05    1.67 
   2 -13  11    1.77    1.80 
   3 -13  11    0.06    1.89 
  -4  13 -11    3.70    3.39 
   8  12 -11    1.33    2.21 
   7  12 -11    1.00    2.11 
   6  12 -11    2.02    2.17 
  -5 -12  11    0.66    1.53 
   5  12 -11   -0.08    1.95 
  -4 -12  11    2.84    1.48 
  -3 -12  11    7.40    2.05 
  -2 -12  11    2.89    1.56 
  -1 -12  11    4.18    1.90 
   0 -12  11   -1.01    1.40 
   1 -12  11    0.55    1.65 
   2 -12  11    0.22    1.68 
   3 -12  11    1.89    2.15 
  -4  12 -11    1.94    3.04 
   8  11 -11    0.93    2.36 
   7  11 -11   -0.33    2.13 
   6  11 -11    2.10    2.14 
   5  11 -11    2.52    2.24 
  -4 -11  11    1.51    1.46 
   4  11 -11    2.34    2.21 
  -3 -11  11    1.09    1.42 
  -2 -11  11    5.64    1.74 
  -1 -11  11    0.48    1.43 
   0 -11  11    4.51    1.91 
   1 -11  11    0.09    1.64 
   2 -11  11    4.68    2.18 
  -3  11 -11    3.03    2.92 
  -4  11 -11    7.00    3.13 
  -5  11 -11    2.20    2.72 
   8  10 -11   -0.42    2.14 
   7  10 -11    2.25    2.26 
   6  10 -11    3.25    2.21 
   5  10 -11    4.28    2.18 
  -4 -10  11    1.49    1.53 
   4  10 -11    3.01    2.16 
  -3 -10  11    4.94    1.72 
  -2 -10  11    0.50    1.46 
  -1 -10  11    8.92    2.05 
   0 -10  11    0.51    1.60 
   1 -10  11    3.24    1.86 
   2 -10  11    0.98    1.64 
  -3  10 -11   10.34    3.38 
  -4  10 -11   -1.29    2.20 
  -5  10 -11    3.08    2.42 
   8   9 -11    5.08    2.83 
   7   9 -11    1.98    2.50 
   6   9 -11    0.72    2.09 
   5   9 -11    0.09    1.64 
  -4  -9  11    4.87    1.83 
   4   9 -11    5.55    2.24 
  -3  -9  11    4.64    1.72 
  -2  -9  11    4.13    1.79 
  -1  -9  11    3.59    1.56 
   0  -9  11   14.43    2.69 
   1  -9  11    1.81    1.66 
  -3   9 -11    1.97    2.40 
  -4   9 -11   10.90    3.31 
  -5   9 -11    2.04    2.25 
   8   8 -11    3.19    2.74 
   7   8 -11    4.50    2.55 
   6   8 -11    0.45    1.97 
   5   8 -11    2.95    2.07 
   4   8 -11   -0.45    1.62 
  -4  -8  11    0.96    1.43 
   3   8 -11    2.18    2.00 
  -3  -8  11    2.15    1.60 
  -2  -8  11    1.59    1.38 
  -1  -8  11   17.98    2.74 
   0  -8  11    0.22    1.44 
   1  -8  11    6.92    2.28 
  -2   8 -11    3.84    2.22 
  -3   8 -11    8.15    2.83 
  -4   8 -11   -0.97    2.11 
  -5   8 -11    5.02    2.48 
   8   7 -11    4.88    2.94 
   7   7 -11   -3.44    1.80 
   6   7 -11    5.02    2.35 
   5   7 -11   -2.20    1.62 
  -4  -7  11    5.96    1.94 
   4   7 -11    1.38    1.81 
   3   7 -11   -1.06    1.65 
  -3  -7  11    2.24    1.36 
  -2  -7  11    8.36    2.04 
  -1  -7  11    0.40    1.49 
   0  -7  11   11.42    2.47 
   1  -7  11   -0.61    1.38 
  -2   7 -11   11.84    2.87 
  -3   7 -11    0.55    1.91 
  -4   7 -11    7.78    2.59 
  -5   7 -11    2.06    2.00 
   8   6 -11   -0.77    2.39 
   7   6 -11    4.83    2.65 
   6   6 -11   -0.33    1.95 
   5   6 -11   -0.62    1.87 
  -4  -6  11    2.66    1.61 
   4   6 -11    1.18    1.88 
   3   6 -11    6.19    2.51 
  -3  -6  11   12.74    2.21 
  -2  -6  11   -0.53    1.32 
  -1  -6  11    5.08    1.76 
   0  -6  11   -0.19    1.36 
  -1   6 -11   15.39    2.95 
  -2   6 -11    2.57    2.04 
  -3   6 -11    2.89    2.10 
  -4   6 -11    1.09    1.75 
  -5   6 -11    1.19    2.13 
   8   5 -11    4.13    2.76 
   7   5 -11   -0.28    2.15 
   6   5 -11    1.67    2.26 
   5   5 -11    1.36    1.74 
   4   5 -11    1.60    2.09 
  -3  -5  11    0.61    1.37 
   3   5 -11   -0.74    1.70 
  -2  -5  11    1.89    1.32 
  -1  -5  11   -0.07    1.41 
  -1   5 -11    0.63    1.63 
  -2   5 -11   11.47    2.61 
  -3   5 -11   -1.89    1.46 
  -4   5 -11    2.57    2.07 
  -5   5 -11   -1.36    1.70 
   9   4 -11   -0.59    2.41 
   8   4 -11    0.18    2.32 
   7   4 -11   -1.74    2.03 
   6   4 -11    1.74    2.09 
   5   4 -11    0.32    1.91 
   4   4 -11    0.30    1.87 
  -3  -4  11    0.93    1.38 
   3   4 -11   -1.35    1.69 
   2   4 -11    1.85    2.19 
  -2  -4  11    0.50    1.39 
  -1  -4  11    5.29    2.08 
   0   4 -11    0.77    1.60 
  -1   4 -11    4.86    2.05 
  -2   4 -11   -0.40    1.62 
  -3   4 -11    5.40    2.04 
  -4   4 -11    0.17    1.58 
  -5   4 -11    4.82    2.24 
   9   3 -11    2.12    2.80 
   8   3 -11    2.56    2.63 
   7   3 -11   -2.99    1.75 
   6   3 -11   -0.44    2.07 
   5   3 -11    0.36    1.95 
   4   3 -11   -1.86    1.62 
   3   3 -11    1.16    2.03 
   3   3 -11    2.83    1.55 
  -3  -3  11    3.34    1.63 
   2   3 -11    7.64    2.04 
  -2  -3  11    1.07    1.45 
   1   3 -11    0.45    1.41 
   0   3 -11    3.01    1.66 
  -1   3 -11    3.48    1.82 
  -2   3 -11    6.16    1.99 
  -3   3 -11    1.61    1.69 
  -4   3 -11    2.23    1.91 
  -5   3 -11   -0.56    1.52 
   9   2 -11   -0.38    2.53 
   8   2 -11   -4.02    2.11 
   7   2 -11    0.30    2.37 
   6   2 -11   -1.16    2.13 
   5   2 -11   -2.65    1.75 
   4   2 -11   -0.44    1.66 
   3   2 -11    0.78    1.42 
  -3  -2  11   -1.98    1.25 
   3   2 -11    3.43    1.45 
   2   2 -11    7.59    2.11 
   1   2 -11    1.16    1.40 
   0   2 -11   -1.59    1.26 
  -1   2 -11    2.99    1.76 
  -2   2 -11    1.12    1.43 
  -3   2 -11    6.83    2.09 
  -4   2 -11    0.96    1.68 
  -5   2 -11    0.92    1.82 
   9   1 -11   -1.16    2.71 
   8   1 -11   -0.68    2.35 
   7   1 -11   -0.12    2.29 
   6   1 -11   -0.82    2.29 
   5   1 -11   -0.81    1.89 
   4   1 -11    3.35    1.53 
   4   1 -11    8.99    1.95 
   3   1 -11    3.12    1.55 
   3   1 -11    1.15    1.74 
   2   1 -11    1.14    1.38 
   1   1 -11   -1.05    1.23 
   0   1 -11    2.04    1.53 
  -1   1 -11   -0.01    1.32 
  -2   1 -11    4.67    1.85 
  -3   1 -11    0.55    1.54 
  -4   1 -11    3.26    1.91 
  -5   1 -11   -1.41    1.58 
   9   0 -11   -2.62    2.49 
   8   0 -11    0.39    2.31 
   7   0 -11   -3.02    2.14 
   6   0 -11   -1.55    2.18 
   5   0 -11    3.92    2.32 
   4   0 -11    1.76    1.45 
   3   0 -11   -0.55    1.55 
   3   0 -11   -0.61    1.23 
   2   0 -11   -0.29    1.23 
   1   0 -11   -0.94    1.27 
   0   0 -11    0.65    1.15 
  -1   0 -11    6.38    1.76 
  -2   0 -11   -0.49    1.26 
  -3   0 -11    5.87    2.02 
  -4   0 -11   -0.99    1.49 
  -5   0 -11    2.13    1.90 
   9  -1 -11   -1.17    2.58 
   8  -1 -11   -1.20    2.39 
   7  -1 -11   -3.27    2.04 
   6  -1 -11    0.48    2.33 
   5  -1 -11   -0.54    1.25 
   4  -1 -11    3.41    1.46 
   3  -1 -11    2.38    1.48 
   2  -1 -11    1.24    1.40 
   1  -1 -11   -1.47    0.93 
   0  -1 -11    4.06    1.52 
  -1  -1 -11    1.11    1.29 
  -2  -1 -11    4.70    1.70 
  -3  -1 -11    1.86    1.50 
  -4  -1 -11    2.27    1.65 
  -5  -1 -11    0.85    1.80 
   9  -2 -11    0.56    2.86 
   8  -2 -11    1.45    2.91 
   7  -2 -11    1.18    2.94 
   6  -2 -11    4.25    2.06 
   5  -2 -11    2.41    1.44 
   4  -2 -11    0.75    1.22 
   3  -2 -11    0.09    1.38 
   2  -2 -11    5.83    1.74 
   1  -2 -11    0.97    1.25 
   0  -2 -11    1.46    1.18 
  -1  -2 -11    3.59    1.54 
  -2  -2 -11    1.26    1.39 
  -3  -2 -11    7.81    2.15 
  -4  -2 -11    1.27    1.72 
  -5  -2 -11    1.21    1.74 
   9  -3 -11    0.96    2.79 
   8  -3 -11    5.06    3.36 
   7  -3 -11   -2.54    2.24 
   6  -3 -11    0.27    1.41 
   5  -3 -11   -0.55    1.28 
   4  -3 -11    0.31    1.23 
   3  -3 -11    5.01    1.64 
   2  -3 -11    3.70    1.55 
   1  -3 -11    0.85    1.13 
   0  -3 -11    3.98    1.54 
  -1  -3 -11    3.05    1.48 
  -2  -3 -11    5.67    1.87 
  -3  -3 -11    0.40    1.43 
  -4  -3 -11    5.23    2.01 
  -5  -3 -11    1.33    1.72 
   9  -4 -11    1.97    3.19 
   8  -4 -11   -1.77    2.77 
   7  -4 -11    2.49    2.52 
   6  -4 -11   -0.74    1.38 
   5  -4 -11   -0.94    1.25 
   4  -4 -11   -1.54    1.07 
   3  -4 -11    1.75    1.50 
   2  -4 -11    1.73    1.48 
   2  -4 -11    0.50    1.36 
   1  -4 -11    4.29    1.54 
   0  -4 -11    2.02    1.30 
  -1  -4 -11    4.80    1.62 
  -2  -4 -11   -0.06    1.35 
  -3  -4 -11    5.10    1.85 
  -4  -4 -11    2.62    1.69 
  -5  -4 -11    1.87    1.77 
   8  -5 -11   -3.21    2.75 
   7  -5 -11    4.96    2.16 
   6  -5 -11    2.59    1.57 
   5  -5 -11    1.96    1.38 
   4  -5 -11    0.79    1.30 
   3  -5 -11    0.79    1.29 
   2  -5 -11    4.69    1.91 
   2  -5 -11    6.21    1.89 
   1  -5 -11    2.30    1.38 
   0  -5 -11    7.41    1.70 
  -1  -5 -11    1.72    1.46 
  -2  -5 -11   10.44    2.24 
  -3  -5 -11    0.35    1.58 
  -4  -5 -11    3.80    1.84 
  -5  -5 -11   -0.68    1.57 
   8  -6 -11    2.26    3.15 
   7  -6 -11    3.08    1.68 
   6  -6 -11   -0.11    1.33 
   5  -6 -11    1.26    1.39 
   4  -6 -11   -0.13    1.25 
   3  -6 -11    3.27    1.67 
   2  -6 -11   -0.09    1.42 
   1  -6 -11    5.70    1.69 
   0  -6 -11    2.74    1.41 
  -1  -6 -11   13.10    2.31 
  -2  -6 -11    1.63    1.52 
  -3  -6 -11    8.83    2.28 
  -4  -6 -11   -2.32    1.31 
  -5  -6 -11    2.96    1.88 
   8  -7 -11   10.80    3.42 
   7  -7 -11   -1.79    1.34 
   6  -7 -11    2.86    1.67 
   5  -7 -11    0.32    1.38 
   4  -7 -11    5.04    1.75 
   3  -7 -11   -1.76    1.17 
   2  -7 -11    7.06    1.98 
   1  -7 -11    2.91    1.51 
   0  -7 -11    6.93    1.87 
  -1  -7 -11    1.37    1.43 
  -2  -7 -11    6.85    1.95 
  -3  -7 -11   -1.48    1.37 
  -4  -7 -11    2.28    1.89 
  -5  -7 -11    0.15    1.75 
   7  -8 -11    3.71    1.71 
   6  -8 -11    0.09    1.52 
   5  -8 -11   -1.05    1.28 
   4  -8 -11   -1.04    1.16 
   3  -8 -11    1.21    1.41 
   2  -8 -11   -1.01    1.29 
   1  -8 -11   18.57    2.43 
   0  -8 -11    1.41    1.33 
  -1  -8 -11    8.81    2.07 
  -2  -8 -11    2.32    1.64 
  -3  -8 -11    6.11    2.01 
  -4  -8 -11    1.38    1.78 
  -5  -8 -11    5.80    2.30 
   8  -9 -11    1.41    1.55 
   7  -9 -11    1.13    1.52 
   6  -9 -11   -1.52    1.36 
   5  -9 -11   -0.96    1.31 
   4  -9 -11    2.84    1.54 
   3  -9 -11   -0.46    1.39 
   2  -9 -11    5.33    1.96 
   1  -9 -11    0.16    1.35 
   1  -9 -11    1.33    1.56 
   0  -9 -11   11.13    2.01 
  -1  -9 -11    0.11    1.31 
  -2  -9 -11    2.39    1.63 
  -3  -9 -11    1.08    1.59 
  -4  -9 -11   10.20    2.55 
  -5  -9 -11   -1.27    1.46 
   8 -10 -11    1.46    1.59 
   7 -10 -11    0.67    1.49 
   6 -10 -11    1.82    1.71 
   5 -10 -11    0.13    1.43 
   4 -10 -11    1.09    1.47 
   3 -10 -11    3.63    1.82 
   2 -10 -11   -1.53    1.39 
   1 -10 -11   12.08    2.69 
   1 -10 -11    6.12    1.80 
   0 -10 -11    2.60    1.56 
  -1 -10 -11    3.01    1.62 
  -2 -10 -11   -0.04    1.42 
  -3 -10 -11    6.98    2.20 
  -4 -10 -11   -1.67    1.54 
  -5 -10 -11    2.51    1.96 
   8 -11 -11    0.74    1.57 
   7 -11 -11   -1.41    1.36 
   6 -11 -11   -0.20    1.53 
   5 -11 -11    0.97    1.42 
   4 -11 -11    5.34    1.90 
   3 -11 -11    6.16    2.00 
   2 -11 -11    5.27    1.95 
   1 -11 -11   -0.09    1.59 
   0 -11 -11    4.61    1.72 
  -1 -11 -11   -1.69    1.29 
  -2 -11 -11    3.78    1.80 
  -3 -11 -11   -0.67    1.55 
  -4 -11 -11    2.96    2.07 
  -5 -11 -11    0.42    1.73 
   8 -12 -11    0.74    1.62 
   7 -12 -11   -0.83    1.35 
   6 -12 -11    1.50    1.68 
   5 -12 -11   -0.12    1.39 
   4 -12 -11    1.27    1.54 
   3 -12 -11    7.62    2.02 
   2 -12 -11    4.75    1.91 
   1 -12 -11    4.32    1.90 
   0 -12 -11   -0.83    1.28 
  -1 -12 -11    1.58    1.57 
  -2 -12 -11    0.58    1.45 
  -3 -12 -11    2.68    1.75 
  -4 -12 -11    1.21    1.75 
   7 -13 -11   -1.33    1.36 
   6 -13 -11    2.79    1.65 
   5 -13 -11    0.46    1.48 
   4 -13 -11    0.30    1.60 
   3 -13 -11    1.34    1.66 
   2 -13 -11    8.63    2.29 
   1 -13 -11   -0.63    1.57 
   0 -13 -11    2.14    1.54 
  -1 -13 -11    2.15    1.65 
  -2 -13 -11   -0.88    1.48 
  -3 -13 -11   -0.22    1.61 
  -4 -13 -11    0.94    1.81 
   7 -14 -11    1.24    1.59 
   6 -14 -11    2.47    1.69 
   5 -14 -11    1.69    1.71 
   4 -14 -11   -0.52    1.41 
   3 -14 -11    2.80    1.77 
   2 -14 -11    1.65    1.82 
   1 -14 -11    5.93    2.21 
   0 -14 -11    3.45    1.76 
   0 -14 -11    2.10    1.92 
  -1 -14 -11    1.31    1.48 
  -2 -14 -11    2.31    1.80 
  -3 -14 -11    0.84    1.64 
  -4 -14 -11    2.04    1.79 
   7 -15 -11    3.79    1.75 
   6 -15 -11    2.87    1.86 
   5 -15 -11    0.70    1.70 
   4 -15 -11    2.15    1.69 
   3 -15 -11    0.26    1.54 
   2 -15 -11    5.24    2.02 
   1 -15 -11    0.79    1.54 
   0 -15 -11    0.87    1.75 
  -1 -15 -11    1.28    1.67 
  -2 -15 -11   -1.01    1.43 
  -3 -15 -11   -1.17    1.54 
  -4 -15 -11    6.12    2.10 
   6 -16 -11    2.65    1.79 
   5 -16 -11   -0.91    1.45 
   4 -16 -11    2.17    1.81 
   3 -16 -11    2.80    1.73 
   2 -16 -11   -0.09    1.61 
   1 -16 -11    4.70    2.05 
   0 -16 -11   -1.50    1.63 
  -1 -16 -11    2.28    1.59 
  -2 -16 -11   -0.50    1.48 
  -3 -16 -11   -0.36    1.60 
   6 -17 -11   -1.23    1.41 
   5 -17 -11    2.56    1.99 
   4 -17 -11   -1.72    1.41 
   3 -17 -11    1.29    1.66 
   2 -17 -11   15.75    2.79 
   1 -17 -11   -1.86    1.50 
   0 -17 -11    0.35    1.79 
  -1 -17 -11   -1.07    1.41 
  -1 -17 -11   -0.35    1.80 
  -2 -17 -11    0.30    1.52 
  -3 -17 -11   -1.73    1.46 
   6 -18 -11   -0.72    1.54 
   5 -18 -11    0.74    1.70 
   4 -18 -11    6.27    2.15 
   3 -18 -11    1.69    1.72 
   2 -18 -11    0.61    1.65 
   1 -18 -11    0.75    1.81 
   0 -18 -11    1.98    1.84 
  -1 -18 -11    3.26    2.10 
  -1 -18 -11    0.95    1.43 
  -2 -18 -11   -0.17    1.62 
  -3 -18 -11   -0.98    1.59 
   5 -19 -11    3.35    2.01 
   4 -19 -11    0.32    1.71 
   3 -19 -11   -1.81    1.38 
   2 -19 -11    2.23    1.86 
   1 -19 -11    1.60    2.00 
   0 -19 -11    6.11    2.13 
  -1 -19 -11   -0.16    1.67 
  -2 -19 -11   -0.30    1.54 
  -2 -19 -11    0.86    2.07 
   5 -20 -11   -1.39    1.60 
   4 -20 -11    2.29    1.82 
   3 -20 -11   -0.15    1.62 
   2 -20 -11   -0.30    1.67 
   1 -20 -11    3.70    1.96 
   0 -20 -11    2.03    1.93 
  -1 -20 -11    2.08    2.06 
  -2 -20 -11    0.85    2.12 
  -2 -20 -11    0.52    1.57 
   4 -21 -11   -2.20    1.58 
   3 -21 -11    1.23    1.77 
   2 -21 -11    2.44    1.88 
   1 -21 -11    7.71    2.37 
   0 -21 -11    1.86    1.90 
  -1 -21 -11    1.07    1.85 
   3 -22 -11   -2.35    1.47 
   2 -22 -11    3.52    1.88 
   1 -22 -11   -0.28    1.70 
   0 -22 -11   -0.04    1.78 
  -2 -18  12    0.90    1.89 
  -1 -18  12    0.98    2.00 
  -3 -17  12    1.83    2.11 
  -2 -17  12    1.90    1.95 
  -1 -17  12   -1.78    1.82 
   0 -17  12    1.97    1.89 
  -4 -16  12    3.23    2.06 
  -3 -16  12   -0.15    1.84 
  -2 -16  12    3.46    2.23 
  -1 -16  12    0.27    1.89 
   0 -16  12    1.06    1.93 
   1 -16  12   -0.19    2.00 
  -4 -15  12    1.19    1.92 
  -3 -15  12    2.40    2.04 
  -2 -15  12    2.88    2.06 
  -1 -15  12    4.02    2.19 
   0 -15  12    1.73    2.07 
   1 -15  12   -0.24    1.99 
  -4 -14  12    7.60    2.41 
  -3 -14  12   -0.07    1.72 
  -2 -14  12    2.93    2.08 
  -1 -14  12    0.46    1.83 
   0 -14  12    1.98    2.06 
   1 -14  12    3.14    2.25 
   2 -14  12   -0.53    1.75 
  -4 -13  12    0.85    1.88 
  -3 -13  12    2.60    1.89 
  -2 -13  12    0.12    1.88 
  -1 -13  12    3.58    2.14 
   0 -13  12    0.12    1.95 
   1 -13  12    1.90    2.04 
   2 -13  12    2.34    2.23 
   6  12 -12    4.06    2.59 
  -4 -12  12   10.87    2.57 
  -3 -12  12    1.92    1.87 
  -2 -12  12    2.92    1.98 
  -1 -12  12    2.23    1.95 
   0 -12  12    1.52    1.93 
   1 -12  12    0.61    1.98 
   2 -12  12    0.58    2.21 
   6  11 -12   -0.63    2.16 
  -4 -11  12   -0.88    1.59 
  -3 -11  12    8.28    2.38 
  -2 -11  12    2.12    1.88 
  -1 -11  12    2.59    2.10 
   0 -11  12    0.54    1.81 
   1 -11  12    2.99    2.21 
  -2  11 -12   -0.47    3.52 
  -3  11 -12    1.38    3.12 
   6  10 -12    1.43    2.23 
   5  10 -12    0.88    2.26 
  -4 -10  12    8.36    2.42 
  -3 -10  12    4.96    2.03 
  -2 -10  12    3.57    1.98 
  -1 -10  12    0.17    1.83 
   0 -10  12    3.40    1.99 
   1 -10  12    0.72    1.83 
  -2  10 -12    7.01    3.59 
  -3  10 -12   -2.37    2.64 
   6   9 -12    2.06    2.24 
   5   9 -12    0.63    2.27 
  -3  -9  12    9.19    2.34 
  -2  -9  12   -0.32    1.69 
  -1  -9  12    4.32    2.05 
   0  -9  12    1.86    1.94 
  -2   9 -12    1.31    2.72 
  -3   9 -12    0.16    2.55 
   7   8 -12    0.41    2.56 
   6   8 -12    2.67    2.49 
   5   8 -12    3.09    2.39 
  -3  -8  12    0.69    1.71 
  -2  -8  12    6.14    2.13 
  -1  -8  12   -0.20    1.78 
   0  -8  12    0.34    1.91 
  -1   8 -12    3.61    2.69 
  -2   8 -12    4.62    3.16 
  -3   8 -12   -0.63    2.28 
   7   7 -12   -1.02    2.13 
   6   7 -12    3.36    2.68 
   5   7 -12    2.95    2.47 
   4   7 -12   -1.97    2.06 
  -3  -7  12    6.10    2.07 
  -2  -7  12   -1.13    1.69 
  -1  -7  12   -0.75    1.60 
  -1   7 -12    0.05    2.17 
  -2   7 -12    3.06    2.65 
  -3   7 -12   -2.59    1.96 
   7   6 -12    2.40    2.41 
   6   6 -12    2.53    2.58 
   5   6 -12   -3.55    1.89 
   4   6 -12    6.50    2.81 
  -3  -6  12    2.10    1.73 
  -2  -6  12    0.85    1.70 
  -1  -6  12   -0.26    1.75 
   0   6 -12    4.99    2.61 
  -1   6 -12    2.74    2.54 
  -2   6 -12    4.77    2.60 
  -3   6 -12    0.28    2.19 
   7   5 -12    2.60    2.72 
   6   5 -12   -2.32    2.26 
   5   5 -12    1.89    2.43 
   4   5 -12   -2.42    2.27 
  -3  -5  12   -2.47    1.57 
  -2  -5  12    0.36    1.66 
   1   5 -12    2.83    2.20 
   0   5 -12   -0.95    1.93 
  -1   5 -12    6.96    2.72 
  -2   5 -12    1.90    2.13 
  -3   5 -12    0.20    1.95 
  -4   5 -12    2.60    2.08 
   7   4 -12    0.56    2.79 
   6   4 -12    6.09    3.09 
   5   4 -12   -0.50    2.43 
   4   4 -12    2.41    2.68 
   2   4 -12    3.63    2.27 
   1   4 -12    9.27    2.79 
   0   4 -12    4.53    2.50 
  -1   4 -12    0.57    2.13 
  -2   4 -12   -0.18    1.70 
  -3   4 -12    2.35    1.94 
  -4   4 -12    0.18    1.83 
   7   3 -12    6.52    3.32 
   6   3 -12    1.34    2.62 
   5   3 -12    0.19    2.49 
   4   3 -12    1.77    2.72 
   3   3 -12    0.68    2.81 
   2   3 -12    4.70    2.27 
   1   3 -12    8.67    2.63 
   0   3 -12    0.16    1.88 
  -1   3 -12    1.12    1.81 
  -2   3 -12    2.42    1.78 
  -3   3 -12    0.70    1.85 
  -4   3 -12    1.81    2.00 
   7   2 -12    1.59    2.72 
   6   2 -12    8.30    3.27 
   5   2 -12   -0.57    2.60 
   4   2 -12    0.61    2.52 
   3   2 -12   -0.61    2.48 
   2   2 -12    5.14    2.39 
   1   2 -12   -1.38    1.86 
   0   2 -12    0.56    1.73 
  -1   2 -12   -1.88    1.41 
  -2   2 -12    1.95    1.82 
  -3   2 -12    3.29    2.04 
  -4   2 -12    0.88    1.79 
   7   1 -12    7.79    3.56 
   6   1 -12    1.98    2.89 
   5   1 -12    7.94    3.59 
   4   1 -12    1.25    2.48 
   3   1 -12    2.02    1.98 
   2   1 -12    1.99    2.08 
   1   1 -12    2.42    1.76 
   0   1 -12   -1.24    1.49 
  -1   1 -12    1.89    1.64 
  -2   1 -12    1.23    1.77 
  -3   1 -12    3.58    2.05 
  -4   1 -12   -0.13    1.75 
   7   0 -12    0.47    2.88 
   6   0 -12    3.30    3.23 
   5   0 -12   -0.29    2.80 
   4   0 -12   19.03    3.54 
   3   0 -12   -0.58    1.69 
   2   0 -12   -1.57    1.75 
   1   0 -12    0.97    1.58 
   0   0 -12    1.28    1.58 
  -1   0 -12   -0.61    1.57 
  -2   0 -12   -1.35    1.47 
  -3   0 -12    1.60    1.94 
  -4   0 -12    0.72    1.84 
   7  -1 -12    6.34    3.66 
   6  -1 -12    2.95    3.10 
   5  -1 -12   11.71    3.37 
   4  -1 -12   -0.25    1.62 
   3  -1 -12    1.80    1.97 
   2  -1 -12    3.65    1.90 
   1  -1 -12    5.69    1.95 
  -1  -1 -12    1.04    1.76 
  -2  -1 -12    0.07    1.49 
  -3  -1 -12    2.30    1.90 
  -4  -1 -12    3.20    2.15 
   7  -2 -12   -3.90    2.54 
   6  -2 -12    9.49    3.66 
   4  -2 -12    0.19    1.71 
   3  -2 -12   -1.25    1.45 
   2  -2 -12    8.54    2.73 
   1  -2 -12    2.41    1.67 
   0  -2 -12    1.30    1.56 
  -1  -2 -12    1.53    1.71 
  -2  -2 -12    0.85    1.57 
  -3  -2 -12    2.98    1.92 
  -4  -2 -12    1.97    1.90 
   7  -3 -12    4.15    3.57 
   6  -3 -12    6.11    2.55 
   5  -3 -12    4.54    1.86 
   4  -3 -12    1.40    1.66 
   3  -3 -12    1.34    1.94 
   2  -3 -12    8.44    2.51 
   1  -3 -12    5.47    1.96 
   0  -3 -12    0.36    1.50 
  -1  -3 -12    2.18    1.76 
  -2  -3 -12    2.68    1.89 
  -3  -3 -12    0.38    1.88 
  -4  -3 -12    1.15    1.81 
   7  -4 -12    0.48    3.10 
   5  -4 -12    1.68    1.71 
   4  -4 -12    0.18    1.65 
   3  -4 -12   -0.91    1.64 
   2  -4 -12    1.42    1.96 
   1  -4 -12    3.14    1.89 
   0  -4 -12    2.49    1.71 
  -1  -4 -12    1.09    1.63 
  -2  -4 -12    0.13    1.55 
  -3  -4 -12    3.08    1.93 
  -4  -4 -12    1.29    1.79 
   7  -5 -12    9.36    3.20 
   5  -5 -12    5.13    1.99 
   4  -5 -12    2.20    1.76 
   3  -5 -12    0.82    1.72 
   2  -5 -12   -1.21    1.77 
   1  -5 -12    0.27    1.65 
   0  -5 -12   -0.24    1.60 
  -1  -5 -12    6.42    2.26 
  -2  -5 -12    3.63    1.74 
  -3  -5 -12    2.37    1.79 
  -4  -5 -12    2.23    1.85 
   6  -6 -12    0.99    1.64 
   5  -6 -12    2.33    1.72 
   4  -6 -12    4.86    2.06 
   3  -6 -12    0.72    1.95 
   2  -6 -12   -0.49    1.86 
   1  -6 -12    0.45    1.65 
   0  -6 -12    1.15    1.63 
  -1  -6 -12    2.68    1.80 
  -2  -6 -12    4.39    1.96 
  -3  -6 -12    1.90    1.84 
   6  -7 -12    0.28    1.63 
   5  -7 -12    3.91    2.04 
   4  -7 -12   -0.68    1.65 
   3  -7 -12    7.23    2.23 
   2  -7 -12   -1.81    1.79 
   0  -7 -12    0.81    1.63 
  -1  -7 -12    1.09    1.76 
  -2  -7 -12    5.52    2.18 
  -3  -7 -12   -2.49    1.52 
   7  -8 -12   -2.07    1.44 
   6  -8 -12    5.28    1.98 
   5  -8 -12   -0.33    1.53 
   4  -8 -12    3.30    2.08 
   3  -8 -12   -0.27    1.80 
   2  -8 -12    6.02    2.40 
   1  -8 -12    0.29    2.09 
   0  -8 -12   -0.62    1.55 
  -1  -8 -12    0.31    1.63 
  -2  -8 -12    1.72    1.81 
  -3  -8 -12    1.36    1.97 
   6  -9 -12    0.35    1.76 
   5  -9 -12    3.81    1.90 
   4  -9 -12    2.67    1.89 
   3  -9 -12    8.41    2.39 
   2  -9 -12    2.60    1.98 
   1  -9 -12    3.48    2.40 
   0  -9 -12    0.21    1.62 
  -1  -9 -12    2.02    1.88 
  -2  -9 -12    1.21    1.72 
  -3  -9 -12    0.90    1.85 
   6 -10 -12   -1.12    1.59 
   5 -10 -12   -1.14    1.50 
   4 -10 -12   15.39    2.74 
   3 -10 -12    2.16    1.82 
   2 -10 -12    2.96    2.23 
   1 -10 -12    0.57    2.14 
   0 -10 -12    2.34    1.80 
  -1 -10 -12    2.07    1.83 
  -2 -10 -12    3.03    1.93 
  -3 -10 -12   -1.84    1.65 
   6 -11 -12    0.96    1.88 
   5 -11 -12    8.78    2.29 
   4 -11 -12    3.97    2.11 
   3 -11 -12   11.20    2.65 
   2 -11 -12    1.73    2.02 
   1 -11 -12    3.72    2.47 
   0 -11 -12    0.33    1.65 
  -1 -11 -12    5.15    2.02 
  -2 -11 -12   -0.29    1.70 
  -3 -11 -12   -0.27    1.64 
   6 -12 -12    0.89    1.83 
   5 -12 -12   -0.40    1.61 
   4 -12 -12   10.76    2.46 
   3 -12 -12   -0.44    1.93 
   2 -12 -12   -0.29    1.84 
   1 -12 -12   -2.95    1.77 
   0 -12 -12    7.50    2.81 
  -1 -12 -12    0.01    1.49 
  -2 -12 -12    0.56    1.76 
   5 -13 -12    8.11    2.31 
   4 -13 -12    0.12    1.84 
   3 -13 -12   -1.34    1.64 
   2 -13 -12   -0.57    1.86 
   1 -13 -12    5.58    2.45 
   0 -13 -12    2.84    2.54 
  -1 -13 -12    1.24    1.67 
  -2 -13 -12    2.99    1.96 
   5 -14 -12    0.08    1.68 
   4 -14 -12    6.19    2.21 
   3 -14 -12   -0.75    1.76 
   2 -14 -12    5.18    2.29 
   1 -14 -12   -0.96    1.86 
   0 -14 -12    3.19    2.42 
  -1 -14 -12   -1.63    1.55 
  -2 -14 -12    0.19    1.89 
   5 -15 -12    7.47    2.37 
   4 -15 -12   -0.15    1.67 
   3 -15 -12    4.29    2.08 
   2 -15 -12    0.62    2.01 
   1 -15 -12    5.82    2.33 
   0 -15 -12    2.36    2.22 
  -1 -15 -12    0.19    1.61 
   4 -16 -12    1.92    1.98 
   3 -16 -12    1.81    1.96 
   2 -16 -12    4.56    2.21 
   1 -16 -12   -0.61    1.93 
   0 -16 -12    0.17    2.02 
  -1 -16 -12    2.65    2.51 
   3 -17 -12    3.57    2.16 
   2 -17 -12    1.44    2.04 
   1 -17 -12   -0.95    1.85 
   0 -17 -12    1.27    2.17 
   2 -18 -12   -2.12    1.67 
   1 -18 -12   -1.91    1.80 
  -2 -11  13    1.14    2.07 
  -3 -10  13    1.73    2.10 
  -2 -10  13   -0.99    1.95 
  -1 -10  13    0.00    2.04 
  -3  -9  13   -1.07    1.78 
  -2  -9  13   -1.72    1.94 
  -1  -9  13   -2.38    1.95 
   0   9 -13    2.51    3.80 
  -2  -8  13    0.34    2.19 
   0   8 -13    2.30    3.39 
  -2  -7  13   -1.21    2.14 
   1   7 -13   -0.61    3.21 
   0   7 -13    5.75    3.59 
   2   6 -13    0.16    3.04 
   1   6 -13    4.92    3.25 
   0   6 -13    0.99    2.86 
  -1   6 -13   -1.67    2.50 
   5   5 -13   -4.26    2.10 
   2   5 -13    1.87    2.85 
   1   5 -13    1.52    2.75 
   0   5 -13   -3.25    2.45 
  -1   5 -13    1.49    2.22 
   5   4 -13    3.46    2.84 
   2   4 -13   -1.67    2.46 
   1   4 -13   -2.84    2.24 
   0   4 -13   -2.26    2.11 
  -1   4 -13    3.29    2.47 
   5   3 -13   -2.69    2.52 
   2   3 -13   -0.33    2.26 
   1   3 -13   -1.42    2.24 
   0   3 -13   -2.56    1.91 
  -1   3 -13    1.44    2.12 
   5   2 -13    0.26    2.89 
   4   2 -13    1.49    3.20 
   1   2 -13   -0.44    2.03 
   0   2 -13    1.04    2.08 
  -1   2 -13    3.52    2.15 
   5   1 -13   -0.32    3.18 
   4   1 -13    0.41    3.29 
   2   1 -13    1.79    2.74 
   1   1 -13    2.69    2.10 
   0   1 -13    1.85    1.96 
  -1   1 -13    2.58    2.14 
   5   0 -13    1.73    3.51 
   4   0 -13   -1.47    2.85 
   2   0 -13    2.33    2.83 
   1   0 -13    0.36    1.89 
   0   0 -13   -1.38    1.84 
  -1   0 -13    0.53    1.94 
   5  -1 -13    1.61    3.40 
   4  -1 -13    3.22    2.54 
   3  -1 -13   -0.90    2.06 
   2  -1 -13   -0.44    2.57 
   1  -1 -13   -0.97    1.78 
   0  -1 -13    0.96    1.97 
  -1  -1 -13    1.11    1.86 
   5  -2 -13    2.10    2.93 
   3  -2 -13    1.07    2.34 
   2  -2 -13   -0.58    2.64 
   1  -2 -13   -1.21    1.58 
   0  -2 -13    2.81    1.98 
  -1  -2 -13   -0.31    1.82 
   4  -3 -13    1.07    1.81 
   3  -3 -13    0.91    2.13 
   2  -3 -13    2.06    2.65 
   0  -3 -13   -0.45    1.69 
  -1  -3 -13    2.35    1.98 
   4  -4 -13   -0.58    1.77 
   3  -4 -13    0.98    2.27 
   2  -4 -13    1.81    2.63 
   0  -4 -13    2.16    2.01 
  -1  -4 -13    2.50    2.09 
   4  -5 -13    2.23    2.07 
   3  -5 -13    0.15    2.14 
   2  -5 -13   -0.38    2.55 
   0  -5 -13    2.78    2.09 
  -1  -5 -13    1.29    1.89 
   4  -6 -13    0.46    2.02 
   3  -6 -13   -1.84    2.10 
   2  -6 -13    1.90    2.63 
   1  -6 -13    8.33    3.53 
   0  -6 -13    1.10    1.87 
  -1  -6 -13    4.03    2.30 
   4  -7 -13   -0.80    1.85 
   3  -7 -13   -0.55    2.06 
   2  -7 -13    1.63    2.60 
   1  -7 -13    6.82    3.30 
   0  -7 -13    3.45    2.02 
   4  -8 -13   -1.21    1.83 
   3  -8 -13    1.46    2.23 
   2  -8 -13   -0.30    2.33 
   1  -8 -13   -0.14    2.54 
   4  -9 -13    1.76    2.21 
   3  -9 -13    4.65    2.35 
   2  -9 -13    1.77    2.22 
   1  -9 -13    1.97    2.60 
   3 -10 -13   -0.44    2.00 
   2 -10 -13    2.07    2.34 
   1 -10 -13    3.88    2.81 
   2 -11 -13   -1.49    2.17 
   0   0   0    0.00    0.00 
;
_shelx_hkl_checksum              72897
#END Tags that were not found in dictionaries
loop_
_space_group_symop_operation_xyz
'x, y, z'
'-x+1/2, y+1/2, -z+1/2'
'-x, -y, -z'
'x-1/2, -y-1/2, z-1/2'
loop_
_atom_site_label
_atom_site_type_symbol
_atom_site_fract_x
_atom_site_fract_y
_atom_site_fract_z
_atom_site_U_iso_or_equiv
_atom_site_adp_type
_atom_site_occupancy
_atom_site_site_symmetry_order
_atom_site_calc_flag
_atom_site_refinement_flags_posn
_atom_site_refinement_flags_adp
_atom_site_refinement_flags_occupancy
_atom_site_disorder_assembly
_atom_site_disorder_group
S1 S 1.04023(8) 1.00640(2) 0.72174(7) 0.0447(2) Uani 1 1 d . . . . .
O1 O 1.1181(2) 1.00418(8) 0.8519(2) 0.0590(6) Uani 1 1 d . . . . .
O2 O 1.1051(2) 1.02278(7) 0.6131(2) 0.0548(6) Uani 1 1 d . . . . .
N1 N 0.9861(3) 0.95551(8) 0.6819(2) 0.0455(6) Uani 1 1 d . . . . .
H1A H 0.9844 0.9445 0.5989 0.055 Uiso 1 1 d R U . A .
C1 C 0.8220(4) 0.83669(11) 0.5564(4) 0.0626(9) Uani 1 1 d . . . . .
N2 N 0.9100(7) 0.8687(2) 0.6003(6) 0.0536(14) Uani 0.5 1 d . . P A 1
C2 C 0.9421(7) 0.8765(2) 0.7446(6) 0.0518(15) Uani 0.5 1 d . . P A 1
H2A H 0.8789 0.8579 0.7886 0.062 Uiso 0.5 1 calc R U P A 1
C3 C 0.926(3) 0.9270(10) 0.784(3) 0.061(5) Uani 0.5 1 d . . P A 1
H3A H 0.9697 0.9334 0.8757 0.074 Uiso 0.5 1 calc R U P A 1
N2' N 0.8264(7) 0.8816(2) 0.5961(6) 0.0507(14) Uani 0.5 1 d . . P A 2
C2' C 0.8261(7) 0.8950(2) 0.7350(6) 0.0484(14) Uani 0.5 1 d . . P A 2
H2'A H 0.8296 0.8677 0.7913 0.058 Uiso 0.5 1 calc R U P A 2
C3' C 0.956(3) 0.9214(10) 0.769(3) 0.054(4) Uani 0.5 1 d . . P A 2
H3'A H 0.9446 0.9378 0.8506 0.064 Uiso 0.5 1 calc R U P A 2
C4 C 0.8110(3) 0.82868(11) 0.4111(3) 0.0526(8) Uani 1 1 d . . . . .
C5 C 0.8571(4) 0.86171(13) 0.3300(4) 0.0717(10) Uani 1 1 d . . . . .
H5A H 0.8963 0.8885 0.3679 0.086 Uiso 1 1 calc R U . . .
C6 C 0.8456(5) 0.85540(15) 0.1942(4) 0.0881(13) Uani 1 1 d . . . . .
H6A H 0.8770 0.8779 0.1413 0.106 Uiso 1 1 calc R U . . .
C7 C 0.7882(5) 0.81628(17) 0.1371(4) 0.0899(13) Uani 1 1 d . . . . .
H7A H 0.7802 0.8121 0.0453 0.108 Uiso 1 1 calc R U . . .
C8 C 0.7424(5) 0.78315(16) 0.2154(5) 0.0864(13) Uani 1 1 d . . . . .
H8A H 0.7034 0.7564 0.1767 0.104 Uiso 1 1 calc R U . . .
C9 C 0.7541(4) 0.78939(12) 0.3517(4) 0.0671(10) Uani 1 1 d . . . . .
H9A H 0.7230 0.7667 0.4040 0.081 Uiso 1 1 calc R U . . .
C10 C 0.7802(3) 0.80009(11) 0.6450(3) 0.0568(8) Uani 1 1 d . . . . .
C11 C 0.6459(5) 0.79392(17) 0.6598(6) 0.0991(15) Uani 1 1 d . . . . .
H11A H 0.5779 0.8130 0.6153 0.119 Uiso 1 1 calc R U . . .
C12 C 0.6090(8) 0.7587(3) 0.7425(8) 0.140(3) Uani 1 1 d . . . . .
H12A H 0.5164 0.7539 0.7502 0.168 Uiso 1 1 calc R U . . .
C13 C 0.7063(12) 0.7325(2) 0.8092(8) 0.155(4) Uani 1 1 d . . . . .
H13A H 0.6817 0.7097 0.8649 0.186 Uiso 1 1 calc R U . . .
C14 C 0.8386(9) 0.73841(18) 0.7976(6) 0.131(2) Uani 1 1 d . . . . .
H14A H 0.9060 0.7199 0.8452 0.157 Uiso 1 1 calc R U . . .
C15 C 0.8759(5) 0.77187(15) 0.7152(5) 0.0865(13) Uani 1 1 d . . . . .
H15A H 0.9688 0.7754 0.7070 0.104 Uiso 1 1 calc R U . . .
C16 C 1.0859(3) 0.86226(17) 0.7959(3) 0.0676(17) Uani 0.5 1 d G U P A 1
C17 C 1.1882(3) 0.86727(16) 0.7156(3) 0.0791(19) Uani 0.5 1 d G U P A 1
H17A H 1.1659 0.8791 0.6300 0.095 Uiso 0.5 1 calc R U P A 1
C18 C 1.3238(3) 0.85464(13) 0.7635(4) 0.099(2) Uani 0.5 1 d G U P A 1
H18A H 1.3923 0.8580 0.7098 0.119 Uiso 0.5 1 calc R U P A 1
C19 C 1.3571(4) 0.83699(13) 0.8915(4) 0.094(2) Uani 0.5 1 d G U P A 1
H19A H 1.4479 0.8285 0.9235 0.113 Uiso 0.5 1 calc R U P A 1
C20 C 1.2548(5) 0.83197(11) 0.9717(3) 0.081(2) Uani 0.5 1 d G U P A 1
H20A H 1.2771 0.8202 1.0574 0.097 Uiso 0.5 1 calc R U P A 1
C21 C 1.1192(4) 0.84461(13) 0.9239(3) 0.0714(18) Uani 0.5 1 d G U P A 1
H21A H 1.0507 0.8413 0.9776 0.086 Uiso 0.5 1 calc R U P A 1
C16' C 1.0892(3) 0.88787(17) 0.8136(4) 0.0635(16) Uani 0.5 1 d G U P A 2
C17' C 1.2016(3) 0.88732(14) 0.7446(4) 0.0775(19) Uani 0.5 1 d G U P A 2
H17B H 1.2024 0.9063 0.6712 0.093 Uiso 0.5 1 calc R U P A 2
C18' C 1.3130(3) 0.85845(12) 0.7854(4) 0.087(2) Uani 0.5 1 d G U P A 2
H18B H 1.3882 0.8581 0.7393 0.105 Uiso 0.5 1 calc R U P A 2
C19' C 1.3118(4) 0.83013(10) 0.8952(4) 0.085(2) Uani 0.5 1 d G U P A 2
H19B H 1.3863 0.8108 0.9225 0.102 Uiso 0.5 1 calc R U P A 2
C20' C 1.1994(5) 0.83067(11) 0.9642(3) 0.0772(19) Uani 0.5 1 d G U P A 2
H20B H 1.1986 0.8117 1.0376 0.093 Uiso 0.5 1 calc R U P A 2
C21' C 1.0880(4) 0.85955(16) 0.9233(3) 0.0726(19) Uani 0.5 1 d G U P A 2
H21B H 1.0128 0.8599 0.9695 0.087 Uiso 0.5 1 calc R U P A 2
C29 C 0.8937(3) 1.04019(10) 0.7309(3) 0.0469(7) Uani 1 1 d . . . . .
C30 C 0.8410(4) 1.04280(12) 0.8488(3) 0.0588(9) Uani 1 1 d . . . . .
H30A H 0.8868 1.0287 0.9251 0.071 Uiso 1 1 calc R U . . .
C31 C 0.7200(4) 1.06642(13) 0.8534(4) 0.0700(10) Uani 1 1 d . . . . .
H31A H 0.6850 1.0681 0.9335 0.084 Uiso 1 1 calc R U . . .
C32 C 0.6489(4) 1.08781(13) 0.7409(4) 0.0710(10) Uani 1 1 d . . . . .
C33 C 0.7056(4) 1.08558(14) 0.6246(4) 0.0776(11) Uani 1 1 d . . . . .
H33A H 0.6614 1.1004 0.5487 0.093 Uiso 1 1 calc R U . . .
C34 C 0.8269(4) 1.06179(12) 0.6186(3) 0.0636(9) Uani 1 1 d . . . . .
H34A H 0.8632 1.0604 0.5391 0.076 Uiso 1 1 calc R U . . .
C35 C 0.5121(5) 1.11119(18) 0.7443(5) 0.1095(17) Uani 1 1 d . . . . .
H35A H 0.4781 1.1235 0.6578 0.164 Uiso 1 1 calc R U . . .
H35B H 0.5243 1.1355 0.8086 0.164 Uiso 1 1 calc R U . . .
H35C H 0.4466 1.0895 0.7687 0.164 Uiso 1 1 calc R U . . .
C23' C 0.7022(6) 0.9236(2) 0.7533(6) 0.0613(17) Uani 0.5 1 d G U P A 2
C24' C 0.6746(7) 0.9289(2) 0.8828(5) 0.073(2) Uani 0.5 1 d G U P A 2
H24A H 0.7328 0.9157 0.9537 0.087 Uiso 0.5 1 calc R U P A 2
C25' C 0.5600(8) 0.9539(3) 0.9065(5) 0.081(2) Uani 0.5 1 d G U P A 2
H25A H 0.5415 0.9575 0.9931 0.097 Uiso 0.5 1 calc R U P A 2
C26' C 0.4729(7) 0.9737(3) 0.8006(6) 0.0732(19) Uani 0.5 1 d G U P A 2
H26A H 0.3962 0.9904 0.8164 0.088 Uiso 0.5 1 calc R U P A 2
C27' C 0.5005(6) 0.9684(2) 0.6711(5) 0.0680(18) Uani 0.5 1 d G U P A 2
H27A H 0.4423 0.9816 0.6003 0.082 Uiso 0.5 1 calc R U P A 2
C28' C 0.6152(6) 0.9433(2) 0.6474(5) 0.0658(18) Uani 0.5 1 d G U P A 2
H28A H 0.6336 0.9398 0.5608 0.079 Uiso 0.5 1 calc R U P A 2
C23 C 0.7609(5) 0.9382(2) 0.7612(7) 0.0648(18) Uani 0.5 1 d G U P A 1
C24 C 0.7029(7) 0.9392(3) 0.8781(6) 0.076(2) Uani 0.5 1 d G U P A 1
H24B H 0.7571 0.9325 0.9592 0.091 Uiso 0.5 1 calc R U P A 1
C25 C 0.5640(8) 0.9504(3) 0.8736(6) 0.088(2) Uani 0.5 1 d G U P A 1
H25B H 0.5252 0.9511 0.9517 0.105 Uiso 0.5 1 calc R U P A 1
C26 C 0.4831(6) 0.9605(3) 0.7522(8) 0.087(2) Uani 0.5 1 d G U P A 1
H26B H 0.3901 0.9680 0.7492 0.105 Uiso 0.5 1 calc R U P A 1
C27 C 0.5410(6) 0.9595(3) 0.6354(6) 0.085(2) Uani 0.5 1 d G U P A 1
H27B H 0.4869 0.9663 0.5542 0.102 Uiso 0.5 1 calc R U P A 1
C28 C 0.6799(6) 0.9483(2) 0.6399(6) 0.0743(19) Uani 0.5 1 d G U P A 1
H28B H 0.7187 0.9476 0.5617 0.089 Uiso 0.5 1 calc R U P A 1
loop_
_atom_site_aniso_label
_atom_site_aniso_U_11
_atom_site_aniso_U_22
_atom_site_aniso_U_33
_atom_site_aniso_U_23
_atom_site_aniso_U_13
_atom_site_aniso_U_12
S1 0.0515(4) 0.0428(4) 0.0401(4) 0.0050(3) 0.0082(3) -0.0030(3)
O1 0.0628(14) 0.0635(14) 0.0476(13) 0.0056(10) -0.0012(11) -0.0082(11)
O2 0.0655(14) 0.0514(12) 0.0512(13) 0.0060(10) 0.0211(11) -0.0068(10)
N1 0.0614(15) 0.0390(13) 0.0378(14) 0.0021(10) 0.0127(12) 0.0003(11)
C1 0.077(2) 0.053(2) 0.057(2) -0.0015(16) 0.0072(18) -0.0155(18)
N2 0.064(4) 0.050(3) 0.049(3) -0.003(3) 0.014(3) -0.005(3)
C2 0.061(4) 0.045(4) 0.051(4) 0.006(3) 0.013(3) -0.010(3)
C3 0.107(14) 0.039(7) 0.051(8) -0.008(5) 0.052(7) -0.019(7)
N2' 0.058(4) 0.048(3) 0.047(3) -0.001(2) 0.013(3) 0.000(3)
C2' 0.061(4) 0.042(3) 0.044(4) 0.006(3) 0.013(3) -0.002(3)
C3' 0.087(10) 0.054(9) 0.028(6) -0.010(5) 0.034(7) -0.014(7)
C4 0.0476(17) 0.0488(18) 0.061(2) -0.0053(15) 0.0077(15) 0.0030(14)
C5 0.098(3) 0.056(2) 0.061(2) -0.0044(17) 0.013(2) -0.011(2)
C6 0.123(4) 0.080(3) 0.066(3) -0.006(2) 0.029(3) -0.009(3)
C7 0.109(3) 0.098(3) 0.064(3) -0.023(2) 0.019(2) -0.008(3)
C8 0.092(3) 0.084(3) 0.086(3) -0.039(2) 0.025(3) -0.018(2)
C9 0.064(2) 0.061(2) 0.079(3) -0.0151(19) 0.0174(19) -0.0082(17)
C10 0.058(2) 0.0488(18) 0.064(2) -0.0028(16) 0.0117(17) -0.0086(16)
C11 0.071(3) 0.093(3) 0.141(4) 0.001(3) 0.039(3) -0.007(2)
C12 0.140(6) 0.126(6) 0.177(7) -0.031(5) 0.100(5) -0.058(5)
C13 0.271(12) 0.092(5) 0.121(6) -0.015(4) 0.090(7) -0.068(6)
C14 0.213(8) 0.068(3) 0.105(4) 0.027(3) 0.002(5) -0.002(4)
C15 0.079(3) 0.075(3) 0.103(4) 0.012(2) 0.006(2) 0.005(2)
C16 0.070(3) 0.065(4) 0.069(4) 0.016(3) 0.016(3) -0.002(3)
C17 0.079(4) 0.074(4) 0.086(4) 0.021(3) 0.019(3) -0.002(3)
C18 0.095(4) 0.092(4) 0.111(5) 0.020(4) 0.018(4) 0.013(4)
C19 0.090(4) 0.085(4) 0.107(5) 0.010(4) 0.015(4) 0.018(4)
C20 0.083(4) 0.075(4) 0.085(4) 0.006(3) 0.015(3) 0.016(3)
C21 0.071(3) 0.076(4) 0.068(4) 0.009(3) 0.013(3) 0.010(3)
C16' 0.064(3) 0.066(3) 0.062(4) 0.019(3) 0.015(3) 0.002(3)
C17' 0.074(4) 0.082(4) 0.080(4) 0.020(3) 0.022(3) 0.010(3)
C18' 0.083(4) 0.086(4) 0.097(4) 0.021(4) 0.026(4) 0.020(3)
C19' 0.082(4) 0.071(4) 0.102(4) 0.021(3) 0.017(3) 0.023(3)
C20' 0.080(4) 0.064(4) 0.086(4) 0.016(3) 0.009(3) 0.013(3)
C21' 0.076(3) 0.070(3) 0.071(4) 0.018(3) 0.008(3) 0.007(3)
C29 0.0597(18) 0.0425(16) 0.0392(17) 0.0027(13) 0.0097(14) -0.0007(14)
C30 0.072(2) 0.059(2) 0.047(2) -0.0006(15) 0.0137(17) 0.0043(17)
C31 0.082(3) 0.066(2) 0.068(3) -0.0079(19) 0.034(2) 0.003(2)
C32 0.067(2) 0.062(2) 0.087(3) -0.009(2) 0.020(2) 0.0061(18)
C33 0.084(3) 0.079(3) 0.068(3) 0.010(2) 0.004(2) 0.024(2)
C34 0.072(2) 0.071(2) 0.049(2) 0.0106(17) 0.0132(17) 0.0160(19)
C35 0.084(3) 0.109(4) 0.141(5) -0.006(3) 0.033(3) 0.033(3)
C23' 0.067(4) 0.065(4) 0.056(3) 0.010(3) 0.020(3) 0.010(3)
C24' 0.076(4) 0.082(4) 0.065(4) 0.008(3) 0.026(3) 0.010(3)
C25' 0.080(4) 0.097(4) 0.073(4) 0.002(3) 0.034(3) 0.003(3)
C26' 0.066(4) 0.088(4) 0.070(4) -0.007(3) 0.025(3) 0.003(3)
C27' 0.065(4) 0.083(4) 0.059(4) -0.005(3) 0.018(3) 0.008(3)
C28' 0.067(4) 0.075(4) 0.057(3) 0.003(3) 0.017(3) 0.014(3)
C23 0.064(4) 0.066(4) 0.070(4) 0.012(3) 0.028(3) -0.003(3)
C24 0.079(4) 0.078(4) 0.079(4) 0.013(3) 0.036(3) -0.004(3)
C25 0.084(4) 0.101(4) 0.087(4) 0.008(4) 0.041(4) -0.008(4)
C26 0.068(4) 0.103(4) 0.096(5) -0.003(4) 0.029(4) -0.005(4)
C27 0.066(4) 0.100(4) 0.091(4) 0.000(4) 0.019(4) -0.004(4)
C28 0.064(4) 0.083(4) 0.079(4) 0.006(3) 0.020(3) -0.006(3)
loop_
_atom_type_symbol
_atom_type_description
_atom_type_scat_dispersion_real
_atom_type_scat_dispersion_imag
_atom_type_scat_source
C C 0.0033 0.0016 'International Tables Vol C Tables 4.2.6.8 and 6.1.1.4'
H H 0.0000 0.0000 'International Tables Vol C Tables 4.2.6.8 and 6.1.1.4'
N N 0.0061 0.0033 'International Tables Vol C Tables 4.2.6.8 and 6.1.1.4'
O O 0.0106 0.0060 'International Tables Vol C Tables 4.2.6.8 and 6.1.1.4'
S S 0.1246 0.1234 'International Tables Vol C Tables 4.2.6.8 and 6.1.1.4'
loop_
_geom_angle_atom_site_label_1
_geom_angle_atom_site_label_2
_geom_angle_atom_site_label_3
_geom_angle
O1 S1 O2 119.49(14)
O1 S1 N1 107.42(13)
O2 S1 N1 106.44(13)
O1 S1 C29 107.56(14)
O2 S1 C29 108.19(14)
N1 S1 C29 107.16(14)
C3' N1 S1 126.7(11)
C3 N1 S1 118.9(11)
C3' N1 H1A 111.0
C3 N1 H1A 119.2
S1 N1 H1A 121.7
N2 C1 C4 113.5(4)
N2' C1 C4 116.0(4)
N2 C1 C10 122.4(4)
N2' C1 C10 120.5(4)
C4 C1 C10 120.0(3)
C1 N2 C2 118.8(5)
N2 C2 C16 110.7(5)
N2 C2 C3 113.1(13)
C16 C2 C3 107.9(13)
N2 C2 H2A 108.3
C16 C2 H2A 108.3
C3 C2 H2A 108.3
N1 C3 C2 106.3(14)
N1 C3 C23 105.7(19)
C2 C3 C23 107.3(19)
N1 C3 H3A 112.4
C2 C3 H3A 112.4
C23 C3 H3A 112.4
C1 N2' C2' 122.4(5)
N2' C2' C3' 103.6(10)
N2' C2' C23' 112.8(5)
C3' C2' C23' 111.1(10)
N2' C2' H2'A 109.7
C3' C2' H2'A 109.7
C23' C2' H2'A 109.7
N1 C3' C2' 119(2)
N1 C3' C16' 111.7(16)
C2' C3' C16' 111.7(19)
N1 C3' H3'A 104.3
C2' C3' H3'A 104.3
C16' C3' H3'A 104.3
C9 C4 C5 117.9(3)
C9 C4 C1 122.1(3)
C5 C4 C1 119.9(3)
C6 C5 C4 121.0(4)
C6 C5 H5A 119.5
C4 C5 H5A 119.5
C7 C6 C5 120.2(4)
C7 C6 H6A 119.9
C5 C6 H6A 119.9
C6 C7 C8 119.8(4)
C6 C7 H7A 120.1
C8 C7 H7A 120.1
C7 C8 C9 120.1(4)
C7 C8 H8A 119.9
C9 C8 H8A 119.9
C4 C9 C8 121.0(4)
C4 C9 H9A 119.5
C8 C9 H9A 119.5
C11 C10 C15 117.4(4)
C11 C10 C1 121.4(4)
C15 C10 C1 121.3(3)
C10 C11 C12 120.2(5)
C10 C11 H11A 119.9
C12 C11 H11A 119.9
C13 C12 C11 119.9(6)
C13 C12 H12A 120.1
C11 C12 H12A 120.1
C12 C13 C14 120.9(7)
C12 C13 H13A 119.6
C14 C13 H13A 119.6
C13 C14 C15 120.0(7)
C13 C14 H14A 120.0
C15 C14 H14A 120.0
C10 C15 C14 121.7(5)
C10 C15 H15A 119.2
C14 C15 H15A 119.2
C17 C16 C21 120.0
C17 C16 C2 119.6(3)
C21 C16 C2 120.4(3)
C16 C17 C18 120.0
C16 C17 H17A 120.0
C18 C17 H17A 120.0
C19 C18 C17 120.0
C19 C18 H18A 120.0
C17 C18 H18A 120.0
C20 C19 C18 120.0
C20 C19 H19A 120.0
C18 C19 H19A 120.0
C19 C20 C21 120.0
C19 C20 H20A 120.0
C21 C20 H20A 120.0
C20 C21 C16 120.0
C20 C21 H21A 120.0
C16 C21 H21A 120.0
C17' C16' C21' 120.0
C17' C16' C3' 121.5(10)
C21' C16' C3' 118.5(10)
C16' C17' C18' 120.0
C16' C17' H17B 120.0
C18' C17' H17B 120.0
C19' C18' C17' 120.0
C19' C18' H18B 120.0
C17' C18' H18B 120.0
C18' C19' C20' 120.0
C18' C19' H19B 120.0
C20' C19' H19B 120.0
C21' C20' C19' 120.0
C21' C20' H20B 120.0
C19' C20' H20B 120.0
C20' C21' C16' 120.0
C20' C21' H21B 120.0
C16' C21' H21B 120.0
C30 C29 C34 120.1(3)
C30 C29 S1 119.7(2)
C34 C29 S1 120.1(2)
C29 C30 C31 119.7(3)
C29 C30 H30A 120.2
C31 C30 H30A 120.2
C30 C31 C32 121.5(3)
C30 C31 H31A 119.3
C32 C31 H31A 119.3
C33 C32 C31 117.7(3)
C33 C32 C35 121.0(4)
C31 C32 C35 121.3(4)
C32 C33 C34 121.3(4)
C32 C33 H33A 119.3
C34 C33 H33A 119.3
C29 C34 C33 119.6(3)
C29 C34 H34A 120.2
C33 C34 H34A 120.2
C32 C35 H35A 109.5
C32 C35 H35B 109.5
H35A C35 H35B 109.5
C32 C35 H35C 109.5
H35A C35 H35C 109.5
H35B C35 H35C 109.5
C24' C23' C28' 120.0
C24' C23' C2' 117.0(4)
C28' C23' C2' 122.9(4)
C23' C24' C25' 120.0
C23' C24' H24A 120.0
C25' C24' H24A 120.0
C24' C25' C26' 120.0
C24' C25' H25A 120.0
C26' C25' H25A 120.0
C25' C26' C27' 120.0
C25' C26' H26A 120.0
C27' C26' H26A 120.0
C28' C27' C26' 120.0
C28' C27' H27A 120.0
C26' C27' H27A 120.0
C27' C28' C23' 120.0
C27' C28' H28A 120.0
C23' C28' H28A 120.0
C24 C23 C28 120.0
C24 C23 C3 113.9(11)
C28 C23 C3 126.0(11)
C23 C24 C25 120.0
C23 C24 H24B 120.0
C25 C24 H24B 120.0
C26 C25 C24 120.0
C26 C25 H25B 120.0
C24 C25 H25B 120.0
C25 C26 C27 120.0
C25 C26 H26B 120.0
C27 C26 H26B 120.0
C28 C27 C26 120.0
C28 C27 H27B 120.0
C26 C27 H27B 120.0
C27 C28 C23 120.0
C27 C28 H28B 120.0
C23 C28 H28B 120.0
loop_
_geom_bond_atom_site_label_1
_geom_bond_atom_site_label_2
_geom_bond_distance
S1 O1 1.421(2)
S1 O2 1.435(2)
S1 N1 1.612(2)
S1 C29 1.755(3)
N1 C3' 1.39(3)
N1 C3 1.52(3)
N1 H1A 0.9000
C1 N2 1.303(7)
C1 N2' 1.374(7)
C1 C4 1.480(5)
C1 C10 1.496(5)
N2 C2 1.468(8)
C2 C16 1.481(7)
C2 C3 1.55(3)
C2 H2A 0.9800
C3 C23 1.62(3)
C3 H3A 0.9800
N2' C2' 1.463(8)
C2' C3' 1.48(3)
C2' C23' 1.506(8)
C2' H2'A 0.9800
C3' C16' 1.64(3)
C3' H3'A 0.9800
C4 C9 1.376(5)
C4 C5 1.389(5)
C5 C6 1.378(5)
C5 H5A 0.9300
C6 C7 1.365(6)
C6 H6A 0.9300
C7 C8 1.372(6)
C7 H7A 0.9300
C8 C9 1.382(5)
C8 H8A 0.9300
C9 H9A 0.9300
C10 C11 1.355(5)
C10 C15 1.364(5)
C11 C12 1.410(8)
C11 H11A 0.9300
C12 C13 1.324(10)
C12 H12A 0.9300
C13 C14 1.326(10)
C13 H13A 0.9300
C14 C15 1.373(7)
C14 H14A 0.9300
C15 H15A 0.9300
C16 C17 1.3900
C16 C21 1.3900
C17 C18 1.3900
C17 H17A 0.9300
C18 C19 1.3900
C18 H18A 0.9300
C19 C20 1.3900
C19 H19A 0.9300
C20 C21 1.3900
C20 H20A 0.9300
C21 H21A 0.9300
C16' C17' 1.3900
C16' C21' 1.3900
C17' C18' 1.3900
C17' H17B 0.9300
C18' C19' 1.3900
C18' H18B 0.9300
C19' C20' 1.3900
C19' H19B 0.9300
C20' C21' 1.3900
C20' H20B 0.9300
C21' H21B 0.9300
C29 C30 1.375(4)
C29 C34 1.378(4)
C30 C31 1.376(5)
C30 H30A 0.9300
C31 C32 1.392(5)
C31 H31A 0.9300
C32 C33 1.380(5)
C32 C35 1.507(5)
C33 C34 1.385(5)
C33 H33A 0.9300
C34 H34A 0.9300
C35 H35A 0.9600
C35 H35B 0.9600
C35 H35C 0.9600
C23' C24' 1.3900
C23' C28' 1.3900
C24' C25' 1.3900
C24' H24A 0.9300
C25' C26' 1.3900
C25' H25A 0.9300
C26' C27' 1.3900
C26' H26A 0.9300
C27' C28' 1.3900
C27' H27A 0.9300
C28' H28A 0.9300
C23 C24 1.3900
C23 C28 1.3900
C24 C25 1.3900
C24 H24B 0.9300
C25 C26 1.3900
C25 H25B 0.9300
C26 C27 1.3900
C26 H26B 0.9300
C27 C28 1.3900
C27 H27B 0.9300
C28 H28B 0.9300
loop_
_geom_hbond_atom_site_label_D
_geom_hbond_atom_site_label_H
_geom_hbond_atom_site_label_A
_geom_hbond_distance_DH
_geom_hbond_distance_HA
_geom_hbond_distance_DA
_geom_hbond_angle_DHA
_geom_hbond_site_symmetry_A
C30 H30A O1 0.93 2.47 3.302(4) 149.6 3_777
N1 H1A O2 0.90 2.40 3.057(3) 130.4 3_776
N1 H1A O2 0.90 2.40 3.057(3) 130.4 3_776
loop_
_geom_torsion_atom_site_label_1
_geom_torsion_atom_site_label_2
_geom_torsion_atom_site_label_3
_geom_torsion_atom_site_label_4
_geom_torsion
O1 S1 N1 C3' 29.7(14)
O2 S1 N1 C3' 158.7(14)
C29 S1 N1 C3' -85.7(14)
O1 S1 N1 C3 44.5(14)
O2 S1 N1 C3 173.6(14)
C29 S1 N1 C3 -70.8(14)
N2' C1 N2 C2 83.9(8)
C4 C1 N2 C2 -173.2(5)
C10 C1 N2 C2 -16.0(9)
C1 N2 C2 C16 110.6(6)
C1 N2 C2 C3 -128.1(13)
C3' N1 C3 C2 -31(8)
S1 N1 C3 C2 -156.3(11)
C3' N1 C3 C23 -144(11)
S1 N1 C3 C23 89.9(17)
N2 C2 C3 N1 -42(2)
C16 C2 C3 N1 81.2(19)
N2 C2 C3 C23 71.1(16)
C16 C2 C3 C23 -166.1(12)
N2 C1 N2' C2' -89.1(8)
C4 C1 N2' C2' 175.1(5)
C10 C1 N2' C2' 16.0(8)
C1 N2' C2' C3' 121.4(13)
C1 N2' C2' C23' -118.4(6)
C3 N1 C3' C2' 72(9)
S1 N1 C3' C2' 134.0(13)
C3 N1 C3' C16' -156(11)
S1 N1 C3' C16' -93.5(14)
N2' C2' C3' N1 48.7(18)
C23' C2' C3' N1 -72.7(16)
N2' C2' C3' C16' -83.7(14)
C23' C2' C3' C16' 154.9(10)
N2 C1 C4 C9 162.4(4)
N2' C1 C4 C9 -154.6(4)
C10 C1 C4 C9 4.6(5)
N2 C1 C4 C5 -18.6(6)
N2' C1 C4 C5 24.4(6)
C10 C1 C4 C5 -176.4(3)
C9 C4 C5 C6 0.3(6)
C1 C4 C5 C6 -178.8(4)
C4 C5 C6 C7 0.0(7)
C5 C6 C7 C8 -0.2(8)
C6 C7 C8 C9 0.1(7)
C5 C4 C9 C8 -0.4(5)
C1 C4 C9 C8 178.6(4)
C7 C8 C9 C4 0.2(6)
N2 C1 C10 C11 121.6(6)
N2' C1 C10 C11 75.6(6)
C4 C1 C10 C11 -82.6(5)
N2 C1 C10 C15 -57.7(6)
N2' C1 C10 C15 -103.7(5)
C4 C1 C10 C15 98.1(4)
C15 C10 C11 C12 -1.6(7)
C1 C10 C11 C12 179.1(5)
C10 C11 C12 C13 2.1(10)
C11 C12 C13 C14 -1.2(12)
C12 C13 C14 C15 -0.3(12)
C11 C10 C15 C14 0.1(7)
C1 C10 C15 C14 179.5(4)
C13 C14 C15 C10 0.8(9)
N2 C2 C16 C17 33.4(6)
C3 C2 C16 C17 -90.8(11)
N2 C2 C16 C21 -147.5(4)
C3 C2 C16 C21 88.3(12)
C21 C16 C17 C18 0.0
C2 C16 C17 C18 179.1(5)
C16 C17 C18 C19 0.0
C17 C18 C19 C20 0.0
C18 C19 C20 C21 0.0
C19 C20 C21 C16 0.0
C17 C16 C21 C20 0.0
C2 C16 C21 C20 -179.1(5)
N1 C3' C16' C17' -16(2)
C2' C3' C16' C17' 120.4(13)
N1 C3' C16' C21' 164.4(11)
C2' C3' C16' C21' -59.7(16)
C21' C16' C17' C18' 0.0
C3' C16' C17' C18' 180.0(13)
C16' C17' C18' C19' 0.0
C17' C18' C19' C20' 0.0
C18' C19' C20' C21' 0.0
C19' C20' C21' C16' 0.0
C17' C16' C21' C20' 0.0
C3' C16' C21' C20' -180.0(12)
O1 S1 C29 C30 -27.2(3)
O2 S1 C29 C30 -157.6(3)
N1 S1 C29 C30 88.0(3)
O1 S1 C29 C34 156.7(3)
O2 S1 C29 C34 26.3(3)
N1 S1 C29 C34 -88.1(3)
C34 C29 C30 C31 1.1(5)
S1 C29 C30 C31 -175.0(3)
C29 C30 C31 C32 0.2(6)
C30 C31 C32 C33 -1.6(6)
C30 C31 C32 C35 176.2(4)
C31 C32 C33 C34 1.8(6)
C35 C32 C33 C34 -176.0(4)
C30 C29 C34 C33 -0.9(5)
S1 C29 C34 C33 175.2(3)
C32 C33 C34 C29 -0.6(6)
N2' C2' C23' C24' 165.1(5)
C3' C2' C23' C24' -79.1(13)
N2' C2' C23' C28' -13.4(7)
C3' C2' C23' C28' 102.4(13)
C28' C23' C24' C25' 0.0
C2' C23' C24' C25' -178.5(6)
C23' C24' C25' C26' 0.0
C24' C25' C26' C27' 0.0
C25' C26' C27' C28' 0.0
C26' C27' C28' C23' 0.0
C24' C23' C28' C27' 0.0
C2' C23' C28' C27' 178.4(6)
N1 C3 C23 C24 -144.0(11)
C2 C3 C23 C24 102.8(15)
N1 C3 C23 C28 33(2)
C2 C3 C23 C28 -80.1(19)
C28 C23 C24 C25 0.0
C3 C23 C24 C25 177.2(12)
C23 C24 C25 C26 0.0
C24 C25 C26 C27 0.0
C25 C26 C27 C28 0.0
C26 C27 C28 C23 0.0
C24 C23 C28 C27 0.0
C3 C23 C28 C27 -176.9(14)
