#------------------------------------------------------------------------------
#$Date: 2016-02-18 17:37:37 +0200 (Thu, 18 Feb 2016) $
#$Revision: 176729 $
#$URL: svn://www.crystallography.net/cod/cif/1/51/66/1516631.cif $
#------------------------------------------------------------------------------
#
# This file is available in the Crystallography Open Database (COD),
# http://www.crystallography.net/
#
# All data on this site have been placed in the public domain by the
# contributors.
#
data_1516631
loop_
_publ_author_name
'Choudhary, Amit'
'Newberry, Robert W.'
'Raines, Ronald T.'
_publ_section_title
;
 n\\rightarrow \p* Interactions Engender Chirality in Carbonyl Groups.
;
_journal_issue                   13
_journal_name_full               'Organic letters'
_journal_page_first              3421
_journal_page_last               3423
_journal_paper_doi               10.1021/ol5012967
_journal_volume                  16
_journal_year                    2014
_chemical_absolute_configuration ad
_chemical_formula_sum            'C9 H15 N O3 S'
_chemical_formula_weight         217.28
_space_group_crystal_system      monoclinic
_space_group_IT_number           4
_space_group_name_Hall           'P 2yb'
_space_group_name_H-M_alt        'P 1 21 1'
_symmetry_space_group_name_Hall  'P 2yb'
_symmetry_space_group_name_H-M   'P 1 21 1'
_atom_sites_solution_hydrogens   geom
_audit_creation_method
;
manual editing of the CIF file 
created by SHELXTL Ver. 6.10
;
_cell_angle_alpha                90
_cell_angle_beta                 99.245(2)
_cell_angle_gamma                90
_cell_formula_units_Z            2
_cell_length_a                   6.3034(9)
_cell_length_b                   6.8102(9)
_cell_length_c                   12.5634(17)
_cell_measurement_reflns_used    3375
_cell_measurement_temperature    100(2)
_cell_measurement_theta_max      29.5037
_cell_measurement_theta_min      3.2744
_cell_volume                     532.31(13)
_computing_cell_refinement       'SAINT Ver. 6.22  (Bruker-AXS, 2003)'
_computing_data_collection       'SMART Ver. 5.622 (Bruker-AXS, 2003)'
_computing_data_reduction        'SAINT Ver. 6.22'
_computing_molecular_graphics    'SHELXTL Ver. 6.10'
_computing_publication_material  'SHELXTL Ver. 6.10'
_computing_structure_refinement  'SHELXL-2013 (Sheldrick, 2013)'
_computing_structure_solution    'SHELXTL Ver. 6.10 (Bruker-AXS, 2003)'
_diffrn_ambient_temperature      100(2)
_diffrn_measured_fraction_theta_full 0.999
_diffrn_measured_fraction_theta_max 0.976
_diffrn_measurement_device_type  'Bruker CCD-1000 area detector'
_diffrn_measurement_method       '0.30\% \w scans'
_diffrn_radiation_type           MoK\a
_diffrn_radiation_wavelength     0.71073
_diffrn_reflns_av_R_equivalents  0.0247
_diffrn_reflns_av_unetI/netI     0.0325
_diffrn_reflns_Laue_measured_fraction_full 0.999
_diffrn_reflns_Laue_measured_fraction_max 0.976
_diffrn_reflns_limit_h_max       8
_diffrn_reflns_limit_h_min       -8
_diffrn_reflns_limit_k_max       9
_diffrn_reflns_limit_k_min       -9
_diffrn_reflns_limit_l_max       17
_diffrn_reflns_limit_l_min       -17
_diffrn_reflns_number            7824
_diffrn_reflns_point_group_measured_fraction_full 0.999
_diffrn_reflns_point_group_measured_fraction_max 0.975
_diffrn_reflns_theta_full        25.242
_diffrn_reflns_theta_max         30.009
_diffrn_reflns_theta_min         3.274
_diffrn_source                   'fine-focus sealed tube'
_exptl_absorpt_coefficient_mu    0.286
_exptl_absorpt_correction_T_max  0.9802
_exptl_absorpt_correction_T_min  0.8892
_exptl_absorpt_correction_type   multi-scan
_exptl_absorpt_process_details
;
SADABS  (Bruker-AXS, 2003)
;
_exptl_crystal_colour            colorless
_exptl_crystal_density_diffrn    1.356
_exptl_crystal_description       block
_exptl_crystal_F_000             232
_exptl_crystal_size_max          0.420
_exptl_crystal_size_mid          0.390
_exptl_crystal_size_min          0.070
_refine_diff_density_max         0.387
_refine_diff_density_min         -0.204
_refine_diff_density_rms         0.060
_refine_ls_abs_structure_details
;
 Refined as an inversion twin.
;
_refine_ls_abs_structure_Flack   -0.14(9)
_refine_ls_extinction_method     none
_refine_ls_goodness_of_fit_ref   1.072
_refine_ls_hydrogen_treatment    constr
_refine_ls_matrix_type           full
_refine_ls_number_parameters     131
_refine_ls_number_reflns         2923
_refine_ls_number_restraints     1
_refine_ls_restrained_S_all      1.071
_refine_ls_R_factor_all          0.0422
_refine_ls_R_factor_gt           0.0349
_refine_ls_shift/su_max          0.000
_refine_ls_shift/su_mean         0.000
_refine_ls_structure_factor_coef Fsqd
_refine_ls_weighting_details
'w=1/[\s^2^(Fo^2^)+(0.0475P)^2^+0.0766P] where P=(Fo^2^+2Fc^2^)/3'
_refine_ls_weighting_scheme      calc
_refine_ls_wR_factor_gt          0.0806
_refine_ls_wR_factor_ref         0.0850
_reflns_Friedel_coverage         0.855
_reflns_Friedel_fraction_full    1.000
_reflns_Friedel_fraction_max     0.975
_reflns_number_gt                2638
_reflns_number_total             2923
_reflns_threshold_expression     'I > 2\s(I)'
_cod_data_source_file            ol5012967_si_006.cif
_cod_data_source_block           global
_cod_depositor_comments
'Adding full bibliography for 1516628--1516633.cif.'
_cod_database_code               1516631
#BEGIN Tags that were not found in dictionaries:
_shelx_space_group_comment
;
The symmetry employed for this shelxl refinement is uniquely defined
by the following loop, which should always be used as a source of
symmetry information in preference to the above space-group names.
They are only intended as comments.
;
_shelx_estimated_absorpt_t_min   0.889
_shelx_estimated_absorpt_t_max   0.980
_shelxl_version_number           2013-4
_shelx_res_file
;
TITL raines20 in P2(1)
CELL 0.71073   6.3034   6.8102  12.5634  90.000  99.245  90.000
ZERR    2.00   0.0009   0.0009   0.0017   0.000   0.002   0.000
LATT -1
SYMM -X, 0.5+Y, -Z
SFAC C  H  N  O  S
UNIT 18 30 2 6 2
L.S. 100
ACTA
BOND
FMAP 2
PLAN 10
size 0.42 0.39 0.07
wpdb -2
twin
conf
TEMP -173
WGHT    0.047500    0.076600
BASF  -0.13993
FVAR       0.39585
MOLE 1
S1    5   -0.120840    0.967334    0.612362    11.00000    0.01405    0.01672 =
         0.02418    0.00074    0.00441    0.00220
C4    1    0.406338    0.460824    0.754272    11.00000    0.01572    0.01526 =
         0.01663   -0.00196    0.00366    0.00138
AFIX  13
H4    2    0.460989    0.519350    0.826476    11.00000   -1.20000
AFIX   0
C1    1    0.275446    0.959753    0.543359    11.00000    0.01668    0.01848 =
         0.01911    0.00440    0.00539   -0.00138
AFIX 137
H1A   2    0.408057    0.997267    0.590908    11.00000   -1.50000
H1B   2    0.209822    1.076466    0.506039    11.00000   -1.50000
H1C   2    0.308837    0.864092    0.490172    11.00000   -1.50000
AFIX   0
N1    3    0.188445    0.709530    0.664555    11.00000    0.01275    0.01538 =
         0.01447    0.00036    0.00538   -0.00061
C6    1    0.052936    0.599665    0.727739    11.00000    0.01342    0.01689 =
         0.01353    0.00042    0.00461   -0.00254
AFIX  13
H6    2   -0.093700    0.580068    0.685103    11.00000   -1.20000
AFIX   0
C3    1    0.399639    0.616733    0.666505    11.00000    0.01344    0.01837 =
         0.02080    0.00417    0.00433    0.00242
AFIX  23
H3A   2    0.517179    0.713305    0.684986    11.00000   -1.20000
H3B   2    0.411113    0.556315    0.595983    11.00000   -1.20000
AFIX   0
C2    1    0.121697    0.870045    0.609159    11.00000    0.01271    0.01560 =
         0.01454   -0.00214    0.00259   -0.00090
C5    1    0.169147    0.403138    0.747398    11.00000    0.01886    0.01369 =
         0.01835   -0.00060    0.00674   -0.00099
AFIX  23
H5A   2    0.124247    0.310922    0.687065    11.00000   -1.20000
H5B   2    0.141850    0.342238    0.815461    11.00000   -1.20000
AFIX   0
O2    4   -0.148217    0.661382    0.865812    11.00000    0.02148    0.02514 =
         0.01941   -0.00454    0.01147   -0.00518
O3    4    0.544197    0.308075    0.731486    11.00000    0.02332    0.01963 =
         0.02032    0.00290    0.00644    0.00844
O1    4    0.176090    0.806020    0.882604    11.00000    0.02158    0.03104 =
         0.02220   -0.00972    0.00470   -0.00601
C7    1    0.038097    0.705574    0.832702    11.00000    0.01646    0.01525 =
         0.01611    0.00094    0.00362   -0.00034
C9    1   -0.179573    0.740598    0.968917    11.00000    0.03232    0.02589 =
         0.02063   -0.00320    0.01459    0.00002
AFIX 137
H9A   2   -0.085771    0.671729    1.026809    11.00000   -1.50000
H9B   2   -0.329873    0.722910    0.978085    11.00000   -1.50000
H9C   2   -0.144331    0.880853    0.971744    11.00000   -1.50000
AFIX   0
C8    1    0.586498    0.170517    0.817548    11.00000    0.03528    0.02526 =
         0.02441    0.00413    0.00769    0.01290
AFIX 137
H8A   2    0.645630    0.239417    0.884220    11.00000   -1.50000
H8B   2    0.690424    0.072856    0.800756    11.00000   -1.50000
H8C   2    0.452570    0.104549    0.826936    11.00000   -1.50000
AFIX   0
HKLF 4

REM  raines20 in P2(1)
REM R1 =  0.0349 for    2638 Fo > 4sig(Fo)  and  0.0422 for all    2923 data
REM    131 parameters refined using      1 restraints

END

WGHT      0.0472      0.0823

REM Highest difference peak  0.387,  deepest hole -0.204,  1-sigma level  0.060
Q1    1  -0.1116  0.9722  0.6782  11.00000  0.05    0.39
Q2    1   0.0002  0.8995  0.6132  11.00000  0.05    0.35
Q3    1   0.1873  0.9532  0.5873  11.00000  0.05    0.33
Q4    1  -0.1364  1.0033  0.5436  11.00000  0.05    0.33
Q5    1   0.0474  0.6598  0.7796  11.00000  0.05    0.33
Q6    1   0.4744  0.3771  0.7370  11.00000  0.05    0.30
Q7    1   0.3992  0.5227  0.7066  11.00000  0.05    0.30
Q8    1   0.2764  0.6489  0.6582  11.00000  0.05    0.27
Q9    1  -0.2140  0.6306  1.0089  11.00000  0.05    0.27
Q10   1   0.2875  0.4400  0.7529  11.00000  0.05    0.26
;
_shelx_res_checksum              21597
_shelx_hkl_file
;
  -1   0   0  183.26    3.31
   1   0   0  182.08    3.42
   1   0   0  190.12    3.21
   1   0   0  172.27    3.16
   2   0   0   -0.15    0.11
   2   0   0   -0.14    0.10
   2   0   0   -0.18    0.11
  -2   0   0   -0.29    0.10
   2   0   0   -0.24    0.17
  -3   0   0  352.46    6.53
   3   0   0  358.47    6.85
   3   0   0  359.68    6.34
   3   0   0  354.89    6.20
   3   0   0  357.13    6.22
   4   0   0  144.30    2.86
   4   0   0  147.98    2.73
   4   0   0  143.05    2.69
   4   0   0  136.76    3.21
  -4   0   0  143.16    2.94
   5   0   0    1.87    0.25
  -5   0   0    2.35    0.36
   5   0   0    1.90    0.43
   5   0   0    1.94    0.32
   6   0   0    0.35    0.22
   6   0   0    0.05    0.40
   7   0   0   23.97    1.33
   8   0   0   -0.02    0.64
   0  -1   0   -0.10    0.08
   0  -1   0    0.00    0.06
   0   1   0   -0.13    0.06
   1  -1   0   80.67    1.54
   1  -1   0   78.41    1.57
   1  -1   0   81.67    1.64
  -1  -1   0   80.60    1.55
  -1  -1   0   77.88    1.61
   1   1   0   80.62    1.55
   1   1   0   82.94    1.61
   1   1   0   82.44    1.56
  -2  -1   0   58.57    1.33
   2  -1   0   58.13    1.41
  -2  -1   0   60.67    1.30
   2  -1   0   58.99    1.27
  -2   1   0   57.48    1.24
   2   1   0   58.53    1.33
   2   1   0   56.77    1.21
   2   1   0   58.23    1.24
  -3  -1   0  150.38    2.91
   3  -1   0  145.92    3.16
  -3  -1   0  143.99    2.97
   3  -1   0  148.69    2.86
   3   1   0  149.65    2.86
  -3   1   0  152.90    2.93
   3   1   0  143.76    2.85
   3   1   0  149.71    3.13
   4  -1   0    2.55    0.32
   4  -1   0    2.95    0.43
  -4  -1   0    2.93    0.35
   4   1   0    2.59    0.40
   4   1   0    2.53    0.29
   4   1   0    3.37    0.32
  -4   1   0    2.61    0.29
   5  -1   0   29.53    1.00
   5  -1   0   29.17    1.18
  -5  -1   0   28.86    1.04
  -5   1   0   29.48    0.96
   5   1   0   28.22    0.90
   5   1   0   28.35    0.95
   5   1   0   27.46    1.14
   6  -1   0    7.98    0.80
  -6  -1   0    6.69    0.63
   6   1   0    6.17    0.48
   6   1   0    5.63    0.68
   6   1   0    5.92    0.52
   7  -1   0   12.60    1.08
   7   1   0   11.46    0.61
   7   1   0   11.35    1.06
   8  -1   0    1.10    0.71
   8   1   0    1.33    0.69
   0  -2   0   18.68    0.48
   0  -2   0   20.77    0.64
   0  -2   0   18.22    0.47
   0   2   0   17.63    0.52
   1  -2   0    1.80    0.23
   1  -2   0    2.22    0.23
  -1  -2   0    1.85    0.24
  -1  -2   0    2.29    0.26
   1  -2   0    2.23    0.23
   1   2   0    1.64    0.19
   1   2   0    1.84    0.20
   2  -2   0   18.51    0.67
  -2  -2   0   19.43    0.67
   2  -2   0   19.40    0.61
  -2  -2   0   19.48    0.71
   2  -2   0   19.57    0.65
   2   2   0   20.39    0.63
   2   2   0   20.39    0.62
   2   2   0   18.66    0.64
  -3  -2   0   54.65    1.41
   3  -2   0   53.58    1.47
  -3  -2   0   55.03    1.45
   3  -2   0   56.73    1.36
   3   2   0   55.28    1.36
  -3   2   0   54.68    1.32
   3   2   0   56.92    1.33
   3   2   0   54.33    1.40
   4  -2   0   26.64    1.04
  -4  -2   0   26.06    0.98
   4  -2   0   27.67    0.92
   4   2   0   28.90    0.95
   4   2   0   29.41    1.05
  -4   2   0   29.50    0.92
   4   2   0   29.03    0.93
   5  -2   0   52.91    1.48
   5  -2   0   51.02    1.69
  -5  -2   0   51.22    1.58
   5   2   0   52.32    1.65
   5   2   0   52.83    1.44
   5   2   0   52.81    1.45
  -5   2   0   56.00    1.47
   6  -2   0   19.26    1.11
  -6  -2   0   18.92    0.96
   6   2   0   19.82    1.07
   6   2   0   19.52    0.89
   6   2   0   20.88    0.88
   7  -2   0   11.67    1.04
   7   2   0   10.51    1.00
   7   2   0    9.92    0.68
   8   2   0   22.21    0.98
   8   2   0   24.14    1.46
   0  -3   0   -0.19    0.15
   0  -3   0    0.05    0.12
   0  -3   0   -0.21    0.10
   0   3   0   -0.16    0.13
  -1  -3   0   67.07    1.64
   1  -3   0   67.19    1.57
   1  -3   0   63.15    1.56
  -1  -3   0   66.24    1.46
  -1   3   0   68.85    1.47
   1   3   0   67.83    1.53
   1   3   0   68.23    1.50
   2  -3   0  122.90    2.56
   2  -3   0  122.24    2.56
  -2  -3   0  119.98    2.51
  -2  -3   0  121.10    2.70
   2  -3   0  119.84    2.59
   2   3   0  128.64    2.62
   2   3   0  126.39    2.53
   2   3   0  130.86    2.63
  -3  -3   0   42.98    1.35
   3  -3   0   44.81    1.24
   3  -3   0   43.40    1.19
   3  -3   0   42.82    1.30
  -3  -3   0   42.57    1.27
   3   3   0   44.02    1.20
   3   3   0   43.79    1.23
   3   3   0   42.54    1.16
   4  -3   0   25.98    1.07
  -4  -3   0   24.07    1.01
  -4  -3   0   24.92    1.05
   4  -3   0   25.71    0.95
  -4   3   0   27.81    0.92
   4   3   0   25.78    0.98
   4   3   0   27.08    0.97
   4   3   0   27.28    0.93
   5  -3   0   32.17    1.19
   5  -3   0   32.06    1.31
  -5  -3   0   32.92    1.31
   5   3   0   32.63    1.14
   5   3   0   34.07    1.24
   5   3   0   33.66    1.18
  -6  -3   0   42.46    1.61
   6  -3   0   42.10    1.66
   6   3   0   41.84    1.53
   6   3   0   42.00    1.39
   6   3   0   41.26    1.39
   7  -3   0    4.09    0.77
   7   3   0    6.28    0.65
  -8   3   0    1.92    0.78
   8   3   0    2.24    0.56
   0  -4   0   82.27    1.65
   0  -4   0   86.59    1.63
   0  -4   0   83.22    2.06
   0   4   0   78.22    1.79
  -1  -4   0   31.19    1.08
  -1  -4   0   32.34    0.88
   1  -4   0   31.59    1.05
  -1  -4   0   31.49    0.90
   1   4   0   29.88    0.91
  -1   4   0   30.00    0.79
   1   4   0   29.69    0.93
  -2  -4   0    9.28    0.55
   2  -4   0    8.71    0.56
   2  -4   0    9.70    0.55
  -2  -4   0   10.08    0.64
  -2   4   0   11.14    0.54
   2   4   0   11.03    0.61
   2   4   0   10.08    0.57
  -3  -4   0    5.89    0.60
  -3  -4   0    6.20    0.54
   3  -4   0    7.01    0.50
   3  -4   0    5.93    0.52
   3   4   0    6.75    0.49
   3   4   0    6.39    0.54
   4  -4   0   19.40    0.82
  -4  -4   0   18.41    0.99
  -4  -4   0   17.53    0.91
   4  -4   0   17.93    0.91
   4  -4   0   17.91    0.88
   4   4   0   18.24    0.82
   4   4   0   19.53    0.92
   5  -4   0    2.13    0.54
  -5  -4   0    1.87    0.55
   5  -4   0    2.50    0.47
   5   4   0    2.55    0.41
   5   4   0    2.44    0.49
  -6  -4   0   -0.72    0.45
   6   4   0    0.01    0.38
   6   4   0    0.43    0.43
  -7  -4   0    9.19    1.05
   7   4   0    8.45    0.81
  -7   4   0    9.04    0.97
   0  -5   0   -0.16    0.24
   0  -5   0   -0.23    0.13
   0   5   0   -0.18    0.19
  -1  -5   0   14.72    0.60
  -1  -5   0   14.29    0.82
   1  -5   0   14.17    0.76
   1   5   0   14.09    0.69
  -1   5   0   12.64    0.65
   2  -5   0    9.07    0.62
  -2  -5   0    9.21    0.68
  -2  -5   0    9.60    0.58
   2  -5   0    9.61    0.65
   2   5   0    9.76    0.61
  -2   5   0    9.99    0.56
   3  -5   0   44.51    1.46
   3  -5   0   43.39    1.40
  -3  -5   0   43.09    1.56
  -3  -5   0   43.23    1.39
  -3   5   0   47.62    1.42
   3   5   0   46.76    1.47
   4  -5   0   10.63    0.75
   4  -5   0   10.63    0.69
  -4  -5   0   10.96    0.86
  -4  -5   0   11.34    0.78
   4   5   0   10.10    0.71
  -4   5   0   11.41    0.77
  -5  -5   0    3.73    0.67
  -5  -5   0    4.70    0.69
   5  -5   0    4.93    0.64
   5   5   0    4.91    0.60
  -5   5   0    6.30    0.73
  -6  -5   0    7.37    0.90
   6   5   0    6.05    0.79
  -6   5   0    6.97    0.87
  -7  -5   0   13.89    1.30
  -7   5   0   16.09    1.20
   7   5   0   17.60    1.17
   0  -6   0   45.82    1.58
   0   6   0   41.27    1.34
  -1  -6   0    1.72    0.31
  -1  -6   0    1.42    0.43
   1  -6   0    1.78    0.43
  -1   6   0    1.63    0.33
   1   6   0    1.46    0.36
  -2  -6   0    1.70    0.46
  -2  -6   0    2.42    0.43
   2  -6   0    2.45    0.48
  -2   6   0    2.32    0.38
   2   6   0    2.30    0.41
   3  -6   0    5.20    0.65
   3  -6   0    5.00    0.60
  -3  -6   0    4.84    0.67
  -3  -6   0    5.67    0.60
   3   6   0    6.18    0.61
  -4  -6   0   14.64    0.91
  -4  -6   0   13.31    1.09
   4  -6   0   14.19    0.95
   4   6   0   13.64    0.87
  -5  -6   0    7.38    0.86
  -5  -6   0    7.64    0.89
   5  -6   0    7.97    0.83
   5   6   0    7.47    0.77
   0  -7   0   -0.29    0.32
   0   7   0   -0.18    0.29
  -1  -7   0    2.23    0.33
   1  -7   0    1.79    0.49
  -1  -7   0    1.08    0.47
  -1   7   0    2.51    0.45
   1   7   0    2.23    0.45
  -2  -7   0   15.69    0.78
   2  -7   0   16.88    0.99
  -2  -7   0   15.45    1.03
   2   7   0   15.05    0.91
  -2   7   0   13.88    0.83
  -3  -7   0   21.96    1.04
  -3  -7   0   20.59    1.23
   3  -7   0   22.97    1.18
  -3   7   0   23.19    1.08
   3   7   0   23.17    1.16
  -4  -7   0    5.19    0.83
  -4  -7   0    4.73    0.72
   4   7   0    4.57    0.67
  -4   7   0    5.41    0.62
  -5  -7   0    5.31    0.85
  -5  -7   0    5.28    0.92
   5   7   0    4.85    0.72
   0  -8   0   29.01    1.42
   0   8   0   27.73    1.28
   1  -8   0    9.42    0.90
  -1  -8   0   10.35    1.00
  -1   8   0   10.72    0.85
   1   8   0   10.85    0.87
  -2  -8   0   -0.04    0.37
  -2  -8   0    0.34    0.47
   2  -8   0    0.05    0.45
  -2   8   0    0.18    0.40
   2   8   0    0.59    0.48
  -3  -8   0   -0.10    0.54
  -3  -8   0   -0.39    0.48
  -3   8   0    0.34    0.42
   3   8   0    0.62    0.50
  -4  -8   0    5.03    0.94
  -4  -8   0    5.34    0.77
   4   8   0    6.53    0.81
  -4   8   0    5.35    0.70
   0  -9   0   -0.71    0.56
   0   9   0   -0.75    0.46
  -1  -9   0    7.48    0.98
   1  -9   0    6.22    0.91
  -1   9   0    7.60    0.85
   1   9   0    5.76    0.81
  -2  -9   0    6.34    0.95
   2  -9   0    7.61    0.94
  -2   9   0    7.54    0.84
   2   9   0    7.14    0.93
   8   0  -1   47.12    2.04
   7   0  -1   19.74    1.19
   6   0  -1   18.08    1.03
  -6   0   1   19.26    0.90
   6   0  -1   17.72    0.58
  -5   0   1   16.36    0.73
   5   0  -1   16.26    0.55
   5   0  -1   16.62    0.67
   5   0  -1   15.77    0.89
  -4   0   1   10.62    0.53
   4   0  -1   10.55    0.47
   4   0  -1   10.25    0.64
   4   0  -1   10.98    0.44
   4   0  -1   10.94    0.43
   3   0  -1    0.58    0.24
   3   0  -1    1.03    0.17
   3   0  -1    0.58    0.17
   3   0  -1    0.61    0.16
  -3   0   1    1.08    0.20
   2   0  -1    7.19    0.29
   2   0  -1    7.95    0.28
   2   0  -1    7.42    0.40
   2   0  -1    7.02    0.28
  -2   0   1    7.34    0.34
   1   0  -1   66.47    1.41
   1   0  -1   70.82    1.29
  -1   0   1   69.40    1.38
   1   0  -1   68.99    1.27
   1   0   1   57.90    1.17
  -1   0  -1   61.10    1.14
   1   0   1   57.79    1.24
   1   0   1   58.90    1.11
   2   0   1    4.05    0.28
   2   0   1    3.79    0.33
   2   0   1    3.93    0.24
  -2   0  -1    4.63    0.24
   3   0   1    5.78    0.37
   3   0   1    5.90    0.46
  -3   0  -1    5.80    0.32
   3   0   1    6.10    0.33
   3   0   1    5.50    0.30
   4   0   1    6.57    0.39
   4   0   1    5.98    0.54
  -4   0  -1    6.47    0.40
   4   0   1    5.83    0.41
   4   0   1    6.06    0.35
   5   0   1   42.03    1.50
  -5   0  -1   44.98    1.25
   5   0   1   43.84    1.29
   5   0   1   44.12    1.06
   6   0   1  109.41    2.54
   6   0   1  107.86    2.18
   6   0   1  107.13    2.94
   7   0   1    0.10    0.52
  -8   0  -1    0.32    0.61
   8  -1  -1    8.64    1.10
   8   1  -1    7.98    1.05
   7  -1  -1    0.03    0.48
   7   1  -1    0.41    0.51
   7   1  -1    0.28    0.27
   6  -1  -1    8.92    0.80
  -6  -1   1    8.10    0.67
  -6   1   1    9.18    0.65
   6   1  -1    9.44    0.54
   6   1  -1   10.37    0.83
  -5  -1   1   92.68    2.26
   5  -1  -1   94.89    2.52
   5   1  -1   98.09    2.48
  -5   1   1   92.39    2.21
   5   1  -1   93.37    2.05
   5   1  -1   95.39    2.08
   4  -1  -1   14.92    0.75
  -4  -1   1   14.46    0.65
   4  -1  -1   15.56    0.59
   4   1  -1   15.13    0.74
   4   1  -1   16.22    0.61
  -4   1   1   14.93    0.63
   4   1  -1   15.42    0.57
  -3  -1   1   23.63    0.75
  -3  -1   1   22.04    0.76
   3  -1  -1   23.29    0.67
   3  -1  -1   23.25    0.84
   3   1  -1   21.84    0.69
   3   1  -1   22.79    0.64
  -3   1   1   22.64    0.72
   3   1  -1   22.87    0.81
  -2  -1   1   75.78    1.65
  -2  -1   1   76.69    1.59
   2  -1  -1   78.64    1.52
   2  -1  -1   75.91    1.71
  -2   1   1   82.75    1.71
   2   1  -1   81.16    1.77
   2   1  -1   82.77    1.59
   2   1  -1   81.39    1.65
   1  -1  -1  219.25    3.77
   1  -1  -1  211.56    3.99
  -1  -1   1  208.65    3.93
  -1  -1   1  209.06    3.77
   1  -1  -1  216.14    3.94
   1   1  -1  207.45    3.68
   1   1  -1  211.71    3.90
   1   1  -1  206.96    3.66
   0  -1   1  193.52    3.42
   0  -1   1  197.10    3.50
   0  -1  -1  192.57    3.42
   0  -1   1  200.38    3.59
   0  -1  -1  193.01    3.62
   0  -1  -1  202.44    3.72
   0   1  -1  185.82    3.51
   0   1   1  193.89    3.34
  -1  -1  -1  612.68   10.97
  -1  -1  -1  616.03   10.52
   1  -1   1  624.70   10.96
   1  -1   1  611.75   10.60
   1   1   1  589.51   10.60
   1   1   1  578.40    9.97
  -1   1  -1  579.51   10.62
   1   1   1  592.85   10.06
  -2  -1  -1  166.05    3.19
   2  -1   1  166.20    3.12
   2  -1   1  163.45    3.33
   2   1   1  159.96    2.99
   2   1   1  164.01    3.15
   2   1   1  150.25    2.94
  -2   1  -1  163.31    2.96
  -3  -1  -1   59.11    1.45
  -3  -1  -1   57.50    1.42
   3  -1   1   59.52    1.57
   3  -1   1   61.39    1.42
  -3   1  -1   59.28    1.31
   3   1   1   61.65    1.54
   3   1   1   60.68    1.40
   3   1   1   59.84    1.36
  -4  -1  -1   16.72    0.69
   4  -1   1   15.88    0.68
   4  -1   1   15.92    0.80
   4   1   1   15.65    0.62
   4   1   1   15.40    0.65
  -4   1  -1   16.33    0.58
   4   1   1   14.89    0.77
   5  -1   1    1.34    0.32
   5  -1   1    1.09    0.38
  -5  -1  -1    1.14    0.39
   5   1   1    1.05    0.29
   5   1   1    1.29    0.41
   5   1   1    0.84    0.27
   6  -1   1    4.20    0.52
   6  -1   1    4.46    0.66
   6   1   1    4.34    0.42
   6   1   1    6.15    0.73
   6   1   1    3.58    0.48
   7  -1   1    6.71    0.86
   7   1   1    7.13    0.52
   7   1   1    7.04    0.85
  -8  -1  -1   11.03    1.03
  -8   1  -1   12.74    1.13
   8  -2  -1   16.00    1.38
   8   2  -1   14.71    0.82
   8   2  -1   16.03    1.36
  -7  -2   1    9.80    0.88
   7  -2  -1   11.59    1.06
   7   2  -1   13.27    1.05
   7   2  -1   11.45    0.71
  -6  -2   1    1.98    0.44
   6  -2  -1    1.04    0.50
   6   2  -1    2.93    0.57
   6   2  -1    1.86    0.36
   5  -2  -1   64.26    1.63
  -5  -2   1   61.81    1.78
   5  -2  -1   59.62    1.86
   5   2  -1   60.58    1.53
  -5   2   1   63.99    1.65
   5   2  -1   59.70    1.60
   5   2  -1   60.83    1.79
   4  -2  -1   75.81    2.06
   4  -2  -1   80.55    1.80
  -4  -2   1   77.74    1.91
  -4  -2   1   77.45    1.98
   4   2  -1   80.71    2.02
   4   2  -1   80.74    1.81
  -4   2   1   84.15    1.92
   4   2  -1   78.87    1.87
  -3  -2   1   22.45    0.86
  -3  -2   1   23.97    0.83
   3  -2  -1   24.63    0.88
   3  -2  -1   24.56    0.76
   3   2  -1   23.13    0.80
  -3   2   1   24.21    0.77
   3   2  -1   23.01    0.78
   3   2  -1   23.72    0.72
   2  -2  -1  290.65    5.19
  -2  -2   1  294.08    5.47
  -2  -2   1  281.38    5.22
   2  -2  -1  288.02    5.50
   2  -2  -1  284.79    5.38
   2   2  -1  283.66    5.27
   2   2  -1  298.39    5.52
   2   2  -1  299.72    5.25
  -1  -2   1  112.52    2.18
   1  -2  -1  111.98    2.22
  -1  -2   1  110.39    2.31
   1  -2  -1  112.56    2.21
   1  -2  -1  112.74    2.29
   1   2  -1  114.19    2.20
   1   2  -1  114.54    2.19
   1   2  -1  115.73    2.22
   0  -2   1  445.24    7.91
   0  -2  -1  439.52    7.95
   0  -2  -1  440.57    7.45
   0  -2  -1  434.09    7.48
   0  -2   1  440.14    7.46
   0  -2   1  433.17    7.49
   0  -2   1  424.86    7.67
   0   2  -1  410.60    7.56
   0   2   1  422.00    7.26
  -1  -2  -1   98.83    1.98
   1  -2   1  103.63    2.02
  -1  -2  -1   98.90    2.12
   1  -2   1  100.27    2.05
   1   2   1  100.60    1.95
   1   2   1   98.63    1.99
  -1   2  -1   99.39    2.02
   2  -2   1  102.24    2.07
   2  -2   1  103.64    2.14
  -2  -2  -1  103.09    2.24
   2  -2   1  102.04    2.24
  -2  -2  -1  102.03    2.15
   2   2   1  107.34    2.17
   2   2   1  108.61    2.19
   2   2   1  104.61    2.17
   3  -2   1   32.25    0.98
  -3  -2  -1   30.97    1.00
   3  -2   1   31.51    1.06
  -3  -2  -1   32.68    1.03
   3   2   1   33.21    1.00
  -3   2  -1   33.53    0.89
   3   2   1   32.62    0.96
   3   2   1   34.33    0.99
  -4  -2  -1    3.75    0.45
   4  -2   1    4.08    0.41
   4  -2   1    3.66    0.50
  -4   2  -1    4.59    0.36
   4   2   1    4.49    0.48
   4   2   1    3.56    0.37
   4   2   1    4.35    0.40
   5  -2   1   25.19    1.00
   5  -2   1   24.38    1.13
  -5  -2  -1   25.51    1.06
   5   2   1   24.83    1.07
   5   2   1   25.29    0.94
   5   2   1   23.79    0.91
   6  -2   1    0.28    0.46
   6  -2   1    0.91    0.41
  -6  -2  -1    1.02    0.50
   6   2   1    2.22    0.56
   6   2   1    1.76    0.40
   6   2   1    1.56    0.35
   7   2   1   11.07    0.99
   7   2   1    9.25    0.67
  -8  -2  -1    1.91    0.75
   8   2   1    1.50    0.43
  -8   2  -1    1.75    0.73
   8  -3  -1    1.21    0.74
   8   3  -1    0.89    0.51
  -7  -3   1    3.15    0.71
   7  -3  -1    2.25    0.69
   7   3  -1    3.94    0.56
   6  -3  -1   13.76    0.97
  -6  -3   1   15.20    0.98
   6   3  -1   13.10    0.79
   6   3  -1   14.07    0.91
   5  -3  -1   44.37    1.58
   5  -3  -1   49.60    1.44
  -5  -3   1   44.37    1.57
   5   3  -1   46.90    1.36
   5   3  -1   45.46    1.49
  -5   3   1   46.06    1.40
   5   3  -1   45.18    1.44
  -4  -3   1   15.02    0.78
   4  -3  -1   15.82    0.73
   4  -3  -1   15.62    0.80
  -4  -3   1   15.79    0.83
   4   3  -1   15.01    0.73
   4   3  -1   15.00    0.67
  -4   3   1   15.24    0.69
   4   3  -1   15.49    0.73
  -3  -3   1    5.15    0.46
  -3  -3   1    4.93    0.49
   3  -3  -1    4.68    0.45
   3  -3  -1    4.55    0.42
   3  -3  -1    4.72    0.41
   3   3  -1    4.68    0.38
   3   3  -1    4.75    0.37
   3   3  -1    4.61    0.43
   2  -3  -1   91.69    2.08
  -2  -3   1   89.92    2.02
  -2  -3   1   94.80    2.19
   2  -3  -1   91.08    2.02
   2  -3  -1   92.54    2.04
   2   3  -1   93.42    2.00
   2   3  -1   92.82    1.97
   2   3  -1   92.31    1.92
  -1  -3   1   10.81    0.55
  -1  -3   1    9.58    0.44
   1  -3  -1    8.80    0.49
   1  -3  -1    9.42    0.40
   1   3  -1   10.67    0.36
   1   3  -1    9.70    0.46
   1   3  -1   10.07    0.45
  -1   3   1   10.75    0.46
   0  -3  -1  110.91    2.10
   0  -3  -1  113.20    2.09
   0  -3   1  114.92    2.10
   0  -3  -1  111.69    2.46
   0  -3   1  117.04    2.42
   0  -3   1  114.68    2.43
   0  -3   1  111.22    2.12
   0   3   1  109.24    2.16
   0   3  -1  103.55    2.07
  -1  -3  -1   58.24    1.51
   1  -3   1   59.22    1.46
   1  -3   1   57.79    1.41
  -1  -3  -1   59.14    1.34
   1   3   1   57.13    1.34
   1   3   1   58.69    1.38
  -1   3  -1   60.79    1.32
   2  -3   1    0.34    0.17
   2  -3   1    0.40    0.20
  -2  -3  -1    0.18    0.23
  -2  -3  -1    0.63    0.23
   2   3   1    0.79    0.21
  -2   3  -1    0.32    0.20
   2   3   1    0.33    0.15
   2   3   1    0.11    0.20
  -3  -3  -1   76.81    1.88
   3  -3   1   76.53    1.87
   3  -3   1   77.52    1.74
  -3  -3  -1   72.47    1.95
   3   3   1   77.80    1.82
   3   3   1   79.54    1.87
   3   3   1   81.70    1.90
  -4  -3  -1   12.37    0.74
   4  -3   1   12.62    0.71
  -4  -3  -1   11.46    0.73
   4   3   1   12.01    0.64
   4   3   1   13.39    0.71
  -4   3  -1   13.87    0.62
   4   3   1   13.31    0.72
  -5  -3  -1    6.48    0.68
   5  -3   1    7.34    0.64
   5   3   1    8.57    0.70
   5   3   1    7.10    0.59
   5   3   1    8.93    0.66
   6  -3   1   13.75    0.90
  -6  -3  -1   13.77    0.94
   6   3   1   14.54    0.84
   6   3   1   14.01    0.81
  -6   3  -1   14.36    0.92
   7   3   1   10.67    0.77
  -7   3  -1   11.42    1.03
  -7  -4   1   16.26    1.16
   7  -4  -1   18.81    1.22
   7   4  -1   17.82    1.03
  -6  -4   1    4.20    0.72
   6  -4  -1    3.96    0.69
   6   4  -1    4.64    0.64
   5  -4  -1    3.46    0.59
   5  -4  -1    2.93    0.48
  -5  -4   1    3.32    0.59
   5   4  -1    3.29    0.52
   5   4  -1    2.34    0.40
   4  -4  -1   10.81    0.65
  -4  -4   1   11.74    0.80
   4  -4  -1   11.00    0.68
  -4  -4   1   11.81    0.75
   4  -4  -1   11.31    0.74
   4   4  -1   12.22    0.68
   4   4  -1   12.16    0.74
   3  -4  -1   40.73    1.27
   3  -4  -1   40.23    1.26
   3  -4  -1   43.09    1.29
  -3  -4   1   40.11    1.41
  -3  -4   1   39.23    1.27
   3   4  -1   44.51    1.28
   3   4  -1   43.73    1.32
   2  -4  -1   85.03    1.93
   2  -4  -1   80.77    2.00
  -2  -4   1   82.75    2.15
  -2  -4   1   84.50    1.95
   2  -4  -1   82.79    2.03
   2   4  -1   82.34    1.91
   2   4  -1   81.78    1.72
   2   4  -1   86.67    1.94
   1  -4  -1    0.80    0.28
  -1  -4   1    1.19    0.23
  -1  -4   1    1.58    0.32
  -1  -4   1    1.19    0.24
   1   4  -1    0.74    0.25
  -1   4   1    1.09    0.22
  -1   4   1    1.35    0.20
   1   4  -1    0.83    0.23
   0  -4   1   14.27    0.47
   0  -4  -1   13.43    0.70
   0  -4   1   13.51    0.67
   0  -4  -1   13.22    0.45
   0  -4  -1   14.90    0.45
   0  -4   1   14.41    0.47
   0   4   1   13.15    0.57
   0   4  -1   14.24    0.60
   0   4  -1   12.90    0.46
  -1  -4  -1   25.92    0.81
  -1  -4  -1   25.89    0.99
   1  -4   1   27.37    0.94
   1  -4   1   25.62    0.96
  -1  -4  -1   26.53    0.79
  -1   4  -1   27.80    0.78
   1   4   1   27.31    0.89
   1   4   1   25.92    0.87
   2  -4   1   11.27    0.58
   2  -4   1   12.45    0.67
  -2  -4  -1   11.26    0.59
  -2  -4  -1   12.01    0.70
   2   4   1   13.20    0.64
   2   4   1   12.91    0.66
  -2   4  -1   13.24    0.58
  -3  -4  -1    2.51    0.40
   3  -4   1    3.33    0.38
   3  -4   1    2.85    0.41
  -3  -4  -1    3.34    0.47
   3   4   1    2.68    0.36
  -3   4  -1    3.01    0.43
   3   4   1    3.02    0.44
  -4  -4  -1   -0.64    0.35
   4  -4   1    0.18    0.33
  -4  -4  -1   -0.18    0.35
   4   4   1    0.12    0.29
   4   4   1   -0.35    0.30
  -4   4  -1   -0.34    0.30
   5  -4   1   41.74    1.50
  -5  -4  -1   42.78    1.64
   5   4   1   39.58    1.37
   5   4   1   43.02    1.47
  -5   4  -1   40.07    1.50
   6  -4   1    5.03    0.71
  -6  -4  -1    5.54    0.80
   6   4   1    5.66    0.67
  -6   4  -1    5.86    0.78
   6   4   1    5.59    0.64
  -7   4  -1    2.29    0.74
   7   4   1    1.29    0.59
  -7  -5   1    3.46    0.86
  -7   5   1    5.30    0.88
   7   5  -1    4.73    0.79
  -6  -5   1   13.72    1.06
   6   5  -1   17.87    1.13
  -5  -5   1   25.85    1.37
   5  -5  -1   31.35    1.28
  -5  -5   1   28.09    1.30
   5   5  -1   30.21    1.20
   4  -5  -1   20.89    1.00
  -4  -5   1   22.28    1.17
  -4  -5   1   22.78    1.07
   4  -5  -1   21.65    0.99
   4   5  -1   21.73    0.96
   3  -5  -1    9.44    0.68
  -3  -5   1    9.50    0.78
   3  -5  -1    9.71    0.65
  -3  -5   1    9.89    0.69
   3   5  -1    9.72    0.63
   2  -5  -1   37.90    1.31
  -2  -5   1   39.89    1.39
  -2  -5   1   40.00    1.22
  -2   5   1   41.16    1.17
   2   5  -1   42.34    1.28
  -2   5   1   42.76    1.26
  -1  -5   1   43.76    1.46
   1  -5  -1   44.45    1.46
  -1  -5   1   44.78    1.17
   1   5  -1   47.08    1.37
  -1   5   1   48.47    1.35
   0  -5   1    3.10    0.24
   0  -5  -1    2.82    0.44
   0  -5   1    3.61    0.45
   0  -5   1    3.26    0.25
   0   5  -1    3.31    0.37
   0   5   1    3.12    0.36
  -1  -5  -1    1.34    0.26
  -1  -5  -1    1.05    0.35
   1  -5   1    1.11    0.31
   1   5   1    1.05    0.27
  -2  -5  -1   62.98    1.65
   2  -5   1   66.07    1.85
   2  -5   1   64.31    1.75
  -2  -5  -1   63.81    1.93
   2   5   1   72.23    1.92
  -2   5  -1   72.78    1.76
   3  -5   1   28.13    1.15
   3  -5   1   28.68    1.06
  -3  -5  -1   25.83    1.07
  -3  -5  -1   29.11    1.26
   3   5   1   26.51    1.07
  -3   5  -1   28.16    1.04
  -4  -5  -1    1.66    0.47
  -4  -5  -1    2.66    0.50
   4  -5   1    2.27    0.49
  -4   5  -1    2.73    0.48
   4   5   1    3.01    0.47
   5  -5   1    7.33    0.78
  -5  -5  -1    9.14    0.92
   5   5   1    9.38    0.73
  -5   5  -1    8.27    0.81
   6  -5   1    5.45    0.76
  -6  -5  -1    5.68    0.85
   6   5   1    6.19    0.71
   6   5   1    5.09    0.75
  -6   5  -1    4.75    0.78
   7   5   1    6.19    0.90
  -7   5  -1    3.59    0.87
  -6  -6   1    2.49    0.77
  -5  -6   1    2.02    0.68
   5  -6  -1    1.42    0.57
  -5  -6   1    2.04    0.64
   5   6  -1    1.17    0.49
  -4  -6   1    2.18    0.53
   4  -6  -1    1.99    0.54
  -4  -6   1    1.18    0.53
   4   6  -1    2.06    0.49
   3  -6  -1   11.62    0.79
  -3  -6   1   10.15    0.88
  -3  -6   1   10.41    0.73
  -3   6   1   10.77    0.69
   3   6  -1   12.12    0.78
  -2  -6   1   23.87    1.16
   2  -6  -1   26.13    1.14
  -2  -6   1   25.66    0.97
   2   6  -1   24.19    1.01
  -2   6   1   24.32    0.98
  -1  -6   1    5.13    0.43
  -1  -6   1    4.60    0.59
   1  -6  -1    6.35    0.67
  -1   6   1    4.58    0.47
   1   6  -1    5.11    0.51
   0  -6  -1   10.81    0.79
   0  -6   1   10.58    0.74
   0   6   1   11.17    0.68
   0   6  -1   10.57    0.67
  -1  -6  -1   21.08    0.76
   1  -6   1   20.00    0.98
  -1  -6  -1   19.42    1.01
  -1   6  -1   20.68    0.92
   1   6   1   20.42    0.92
   2  -6   1   40.10    1.39
  -2  -6  -1   40.16    1.55
   2  -6   1   37.87    1.46
  -2  -6  -1   38.25    1.24
   2   6   1   42.01    1.47
  -3  -6  -1    9.26    0.86
   3  -6   1    7.75    0.75
   3  -6   1    9.87    0.73
  -3  -6  -1    9.23    0.73
   3   6   1   10.43    0.75
  -4  -6  -1    2.52    0.56
  -4  -6  -1    3.10    0.65
   4  -6   1    3.14    0.61
   4   6   1    3.55    0.55
  -5  -6  -1   10.42    1.04
  -5  -6  -1   10.14    0.94
   5  -6   1   10.52    0.94
   5   6   1   11.55    0.90
  -6  -6  -1   16.74    1.27
   6   6   1   19.46    1.16
  -6   6  -1   19.54    1.28
  -5  -7   1   18.75    1.22
  -5  -7   1   16.28    1.28
   5   7  -1   17.18    1.09
  -4  -7   1    7.61    0.93
  -4  -7   1    7.34    0.81
  -4   7   1    7.56    0.73
   4   7  -1    6.61    0.76
   3  -7  -1   -0.83    0.40
  -3  -7   1   -0.27    0.40
  -3  -7   1    0.11    0.45
   3   7  -1   -0.21    0.35
  -3   7   1    0.19    0.37
  -2  -7   1    0.22    0.32
   2  -7  -1    0.23    0.41
  -2  -7   1    0.22    0.41
   2   7  -1    0.36    0.35
  -2   7   1   -0.24    0.31
  -1  -7   1   47.58    1.78
  -1  -7   1   51.69    1.28
   1  -7  -1   49.94    1.80
  -1   7   1   48.48    1.58
   1   7  -1   46.22    1.59
   0  -7  -1   10.03    0.86
   0  -7   1   10.06    0.86
   0   7  -1    9.53    0.70
   0   7   1    9.26    0.73
  -1  -7  -1    7.23    0.75
   1  -7   1    7.25    0.74
  -1  -7  -1    6.49    0.46
   1   7   1    7.80    0.67
  -1   7  -1    6.13    0.62
  -2  -7  -1   43.89    1.33
   2  -7   1   44.70    1.60
  -2  -7  -1   38.39    1.66
  -2   7  -1   43.11    1.53
   2   7   1   45.15    1.64
  -3  -7  -1   41.77    1.78
  -3  -7  -1   42.57    1.47
  -3   7  -1   42.53    1.53
   3   7   1   44.61    1.65
  -4  -7  -1    0.71    0.54
  -4  -7  -1    0.77    0.58
   4  -7   1    1.10    0.58
   4   7   1    0.64    0.49
   5  -7   1    0.72    0.64
  -5  -7  -1    0.49    0.66
  -5  -7  -1    1.36    0.65
   5   7   1    0.65    0.53
  -4  -8   1    8.79    0.87
  -4  -8   1    7.68    1.07
  -4   8   1   10.01    0.88
   4   8  -1    9.75    0.99
  -3  -8   1    6.01    0.94
   3  -8  -1    6.00    0.85
  -3  -8   1    6.06    0.71
   3   8  -1    4.61    0.70
  -3   8   1    4.85    0.66
  -2  -8   1   11.09    0.69
  -2  -8   1    8.08    0.95
   2  -8  -1   11.51    0.99
   2   8  -1   10.23    0.86
  -2   8   1   11.05    0.86
  -1  -8   1    3.14    0.64
   1  -8  -1    3.70    0.65
   1   8  -1    3.37    0.58
  -1   8   1    3.96    0.60
   0  -8  -1   16.34    1.12
   0  -8   1   16.88    1.10
   0   8  -1   18.67    1.04
   0   8   1   17.24    1.00
  -1  -8  -1    2.39    0.63
   1  -8   1    2.41    0.60
  -1   8  -1    1.60    0.48
   1   8   1    2.87    0.52
  -2  -8  -1    5.17    0.54
  -2  -8  -1    4.07    0.73
   2  -8   1    4.81    0.76
  -2   8  -1    5.30    0.64
   2   8   1    4.56    0.66
  -3  -8  -1    8.90    0.82
  -3  -8  -1    9.97    1.06
  -3   8  -1   10.56    0.85
   3   8   1    8.64    0.88
  -4  -8  -1    4.91    0.79
  -4  -8  -1    4.42    0.89
  -4   8  -1    3.56    0.64
   4   8   1    6.85    0.85
  -2  -9   1    3.85    0.85
   2  -9  -1    5.12    0.84
  -2   9   1    1.68    0.58
   2   9  -1    2.49    0.69
   1  -9  -1    0.45    0.58
  -1  -9   1   -0.03    0.60
   1   9  -1   -0.56    0.47
  -1   9   1   -0.07    0.48
   0  -9   1    7.57    1.01
   0  -9  -1    8.01    1.00
   0   9   1    7.82    0.85
   0   9  -1    8.78    0.89
  -1  -9  -1    0.93    0.61
   1  -9   1    0.47    0.60
  -1   9  -1    1.13    0.55
   1   9   1    1.38    0.58
  -2  -9  -1    2.59    0.72
  -2   9  -1    2.64    0.63
   2   9   1    2.50    0.74
   8   0  -2   15.61    1.21
  -7   0   2    1.23    0.49
   7   0  -2    0.70    0.52
  -6   0   2   16.00    0.85
   6   0  -2   16.40    0.99
   6   0  -2   15.76    0.53
   5   0  -2   12.86    0.79
  -5   0   2   14.75    0.72
   5   0  -2   13.11    0.56
   5   0  -2   12.34    0.49
   4   0  -2    6.25    0.54
   4   0  -2    7.38    0.37
   4   0  -2    6.95    0.35
   4   0  -2    7.26    0.36
  -4   0   2    7.07    0.47
   3   0  -2    0.51    0.15
   3   0  -2    0.82    0.16
  -3   0   2    0.71    0.20
   3   0  -2    0.29    0.20
   3   0  -2    0.51    0.13
   2   0  -2  499.00    8.47
   2   0  -2  486.78    8.47
   2   0  -2  514.53    8.56
   2   0  -2  492.27    9.17
  -2   0   2  486.33    8.93
   1   0  -2  178.01    3.17
  -1   0   2  179.35    3.35
   1   0  -2  183.99    3.43
   0   0   2  310.74    5.30
   0   0  -2  311.49    5.61
   0   0  -2  295.41    5.26
   0   0   2  303.29    5.26
   1   0   2    2.48    0.19
  -1   0  -2    2.67    0.15
  -1   0  -2    3.04    0.24
  -1   0  -2    2.72    0.22
   1   0   2    2.91    0.22
  -2   0  -2   15.70    0.59
  -2   0  -2   15.47    0.43
   2   0   2   15.07    0.47
  -2   0  -2   15.62    0.53
   2   0   2   14.72    0.54
   3   0   2   15.87    0.69
   3   0   2   15.54    0.55
   3   0   2   15.50    0.52
  -3   0  -2   15.17    0.60
  -3   0  -2   15.59    0.51
   4   0   2   14.02    0.64
  -4   0  -2   14.63    0.57
   4   0   2   14.23    0.75
   4   0   2   13.59    0.52
   5   0   2   18.37    0.96
   5   0   2   17.49    0.78
   5   0   2   17.75    0.64
   6   0   2    3.36    0.34
   6   0   2    3.25    0.47
  -7   0  -2   -0.52    0.55
  -8   0  -2    0.25    0.65
   8  -1  -2    2.63    0.83
   8   1  -2    3.63    0.83
   7  -1  -2   10.83    1.01
  -7  -1   2   12.28    0.88
   7   1  -2   12.50    0.62
   7   1  -2   12.50    1.05
  -6  -1   2    8.57    0.69
   6  -1  -2    8.75    0.80
  -6   1   2    9.21    0.65
   6   1  -2    8.19    0.51
   6   1  -2    8.05    0.77
   5  -1  -2   64.00    1.92
  -5  -1   2   66.41    1.79
   5   1  -2   67.68    1.56
  -5   1   2   70.35    1.80
   5   1  -2   68.18    1.96
   5   1  -2   67.99    1.60
   4  -1  -2   46.99    1.45
  -4  -1   2   48.35    1.36
   4  -1  -2   49.96    1.17
   4   1  -2   48.56    1.20
   4   1  -2   47.77    1.12
  -4   1   2   46.57    1.30
   4   1  -2   48.08    1.41
   3  -1  -2   89.94    2.08
  -3  -1   2   94.66    1.93
   3  -1  -2   86.34    1.76
  -3  -1   2   86.77    1.99
  -3   1   2   94.42    2.05
   3   1  -2   94.02    1.82
   3   1  -2   92.99    2.13
   3   1  -2   91.69    1.92
  -2  -1   2    0.25    0.16
   2  -1  -2    0.46    0.12
  -2  -1   2    0.37    0.17
   2  -1  -2    0.03    0.16
   2   1  -2    0.33    0.18
   2   1  -2    0.18    0.10
  -2   1   2    0.30    0.15
   2   1  -2    0.24    0.15
   1  -1  -2    4.48    0.29
  -1  -1   2    5.24    0.29
  -1  -1   2    5.01    0.29
   1  -1  -2    4.93    0.30
   1   1  -2    5.29    0.30
  -1   1   2    5.47    0.20
   1   1  -2    5.22    0.21
   1   1  -2    5.44    0.29
   0  -1  -2  109.15    2.11
   0  -1  -2  106.01    1.97
   0  -1   2  109.24    2.03
   0  -1   2  105.28    1.97
   0  -1  -2  109.35    2.07
   0  -1   2  107.76    2.03
   0   1  -2  104.79    2.08
   0   1   2  106.59    1.96
   1  -1   2  624.58   10.80
   1  -1   2  639.78   10.98
  -1  -1  -2  644.04   10.89
   1  -1   2  630.40   11.48
  -1  -1  -2  642.22   11.33
   1  -1   2  644.87   10.80
  -1  -1  -2  624.99   11.48
  -1   1  -2  626.20   11.23
   1   1   2  605.56   10.54
   1   1   2  622.59   10.65
   2  -1   2   10.47    0.47
  -2  -1  -2    9.83    0.45
  -2  -1  -2   10.45    0.47
   2  -1   2   10.37    0.32
  -2  -1  -2   11.19    0.45
   2  -1   2   10.61    0.33
   2   1   2    9.50    0.42
  -2   1  -2   10.81    0.31
  -2   1  -2   10.17    0.49
   2   1   2   10.84    0.46
  -3  -1  -2   18.44    0.66
   3  -1   2   17.22    0.46
  -3  -1  -2   17.37    0.69
   3  -1   2   18.08    0.47
   3  -1   2   15.74    0.66
  -3   1  -2   16.61    0.49
   3   1   2   16.41    0.70
   3   1   2   16.59    0.61
   3   1   2   17.98    0.65
   4  -1   2   33.23    1.09
  -4  -1  -2   35.04    1.06
   4  -1   2   33.65    1.21
   4   1   2   33.56    0.99
   4   1   2   34.68    1.19
  -4   1  -2   36.32    0.91
   4   1   2   34.02    1.06
  -5  -1  -2   37.62    1.21
   5  -1   2   37.96    1.24
   5   1   2   37.39    1.10
   5   1   2   37.54    1.20
   5   1   2   37.64    1.37
   6  -1   2   14.84    0.83
   6   1   2   13.98    0.80
   6   1   2   14.52    0.69
  -6   1  -2   14.90    0.92
  -7  -1  -2   11.53    0.98
   7   1   2   11.41    0.64
  -7   1  -2   11.94    1.05
  -8  -1  -2   41.87    1.81
  -8   1  -2   41.99    1.86
   8  -2  -2    4.60    0.90
   8   2  -2    5.54    0.94
   8   2  -2    4.13    0.53
   7  -2  -2   13.63    1.03
  -7  -2   2   14.56    1.02
   7   2  -2   13.76    0.77
   7   2  -2   13.76    1.03
  -6  -2   2   14.15    0.86
   6  -2  -2   15.25    0.97
   6   2  -2   15.77    0.75
   6   2  -2   14.51    0.93
  -6   2   2   15.24    0.82
   5  -2  -2   11.72    0.80
   5  -2  -2   12.44    0.63
  -5  -2   2   12.71    0.74
   5   2  -2   11.58    0.56
   5   2  -2   12.14    0.66
  -5   2   2   12.08    0.67
   5   2  -2   11.17    0.76
  -4  -2   2   43.93    1.33
  -4  -2   2   40.72    1.27
   4  -2  -2   44.29    1.13
   4  -2  -2   41.79    1.37
   4   2  -2   43.53    1.34
   4   2  -2   43.50    1.24
   4   2  -2   46.20    1.13
  -4   2   2   46.06    1.28
   3  -2  -2   27.30    0.96
   3  -2  -2   28.94    0.82
  -3  -2   2   28.46    0.91
  -3  -2   2   29.79    0.97
   3   2  -2   29.56    0.80
   3   2  -2   30.22    0.91
  -3   2   2   30.29    0.93
   3   2  -2   29.00    0.93
   2  -2  -2   50.05    1.15
   2  -2  -2   50.83    1.25
   2  -2  -2   51.35    1.27
  -2  -2   2   48.97    1.28
  -2  -2   2   48.61    1.21
   2   2  -2   50.64    1.11
   2   2  -2   50.36    1.20
   2   2  -2   50.06    1.22
  -1  -2   2  106.48    2.11
   1  -2  -2  107.81    2.25
  -1  -2   2  107.89    2.23
   1  -2  -2  107.95    2.15
   1   2  -2  112.03    2.26
  -1   2   2  113.30    2.16
   1   2  -2  118.39    2.18
   1   2  -2  112.66    2.21
   0  -2  -2   23.07    0.57
   0  -2   2   24.41    0.61
   0  -2   2   23.96    0.60
   0  -2  -2   23.79    0.75
   0  -2  -2   24.19    0.59
   0  -2   2   23.63    0.72
   0  -2   2   24.04    0.68
   0   2   2   22.43    0.62
   0   2  -2   21.95    0.61
  -1  -2  -2  210.67    3.84
  -1  -2  -2  206.64    3.86
  -1  -2  -2  211.70    4.07
   1  -2   2  201.19    3.91
   1  -2   2  215.38    3.89
   1   2   2  197.39    3.65
   1   2   2  199.93    3.61
  -1   2  -2  191.96    3.78
  -2  -2  -2   98.75    2.18
  -2  -2  -2   99.63    2.10
  -2  -2  -2  100.72    2.03
   2  -2   2   96.70    1.94
   2  -2   2   98.88    2.13
   2   2   2   94.42    2.01
  -2   2  -2   97.32    2.11
   2   2   2   93.71    1.97
  -3  -2  -2   64.77    1.61
   3  -2   2   62.68    1.59
  -3  -2  -2   62.98    1.62
   3   2   2   62.65    1.51
  -3   2  -2   61.81    1.64
   3   2   2   63.59    1.54
  -3   2  -2   64.34    1.37
  -4  -2  -2   22.96    0.94
  -4  -2  -2   22.21    0.91
   4  -2   2   24.77    0.93
   4   2   2   22.51    0.87
   4   2   2   23.07    0.83
  -4   2  -2   23.46    0.96
   5  -2   2   51.81    1.57
  -5  -2  -2   51.92    1.61
   5   2   2   52.84    1.53
  -5   2  -2   51.59    1.67
   5   2   2   54.00    1.49
  -6  -2  -2   19.38    1.00
   6  -2   2   18.38    0.97
  -6   2  -2   17.14    1.03
   6   2   2   17.35    0.90
   6   2   2   17.19    0.81
  -7  -2  -2    6.61    0.83
   7   2   2    6.51    0.61
  -7   2  -2    6.81    0.84
  -8  -2  -2    3.08    0.92
  -8   2  -2    2.10    0.79
   8   2   2    1.33    0.43
   8  -3  -2    1.57    0.81
   8   3  -2    2.10    0.56
  -7  -3   2    0.84    0.58
   7  -3  -2    1.39    0.64
   7   3  -2    1.14    0.41
  -6  -3   2   -0.08    0.40
   6  -3  -2    0.12    0.44
   6   3  -2   -0.07    0.48
   6   3  -2    0.02    0.37
   5  -3  -2    6.87    0.55
   5  -3  -2    4.60    0.61
  -5  -3   2    5.52    0.62
   5   3  -2    6.34    0.49
   5   3  -2    5.93    0.62
  -5   3   2    6.49    0.59
   5   3  -2    6.91    0.61
  -4  -3   2    3.73    0.50
   4  -3  -2    4.46    0.42
   4  -3  -2    3.03    0.46
  -4  -3   2    3.47    0.46
   4   3  -2    4.57    0.40
   4   3  -2    4.43    0.46
  -4   3   2    4.05    0.44
   4   3  -2    4.12    0.45
   3  -3  -2   13.20    0.65
   3  -3  -2   12.96    0.63
  -3  -3   2   12.03    0.67
  -3  -3   2   12.90    0.64
   3  -3  -2   11.20    0.57
   3   3  -2   12.24    0.58
   3   3  -2   13.11    0.64
   3   3  -2   13.81    0.58
  -2  -3   2   15.95    0.67
   2  -3  -2   16.82    0.64
  -2  -3   2   15.62    0.71
   2  -3  -2   15.72    0.64
   2  -3  -2   16.20    0.68
   2   3  -2   17.24    0.60
   2   3  -2   17.57    0.67
   2   3  -2   16.86    0.61
   1  -3  -2    2.19    0.23
  -1  -3   2    2.07    0.29
   1  -3  -2    2.00    0.28
  -1  -3   2    2.10    0.27
  -1   3   2    2.12    0.24
   1   3  -2    1.70    0.25
   1   3  -2    2.19    0.24
   1   3  -2    2.06    0.22
   0  -3  -2  235.39    4.26
   0  -3  -2  246.63    4.24
   0  -3   2  245.60    4.64
   0  -3   2  233.74    4.56
   0  -3   2  244.83    4.29
   0  -3  -2  237.46    4.75
   0  -3   2  243.38    4.26
   0   3   2  236.70    4.43
   0   3  -2  241.73    4.53
  -1  -3  -2  103.20    2.11
  -1  -3  -2  102.68    2.35
   1  -3   2  102.62    2.16
   1  -3   2   99.67    2.23
   1   3   2  104.50    2.09
  -1   3  -2  100.91    2.13
   1   3   2   99.36    2.15
  -2  -3  -2   36.04    0.84
   2  -3   2   36.64    0.96
  -2  -3  -2   35.97    1.16
  -2  -3  -2   36.85    1.07
   2  -3   2   35.62    1.10
   2   3   2   37.50    1.09
   2   3   2   40.40    1.11
  -2   3  -2   38.52    1.10
  -3  -3  -2   23.95    0.98
   3  -3   2   25.00    0.95
   3  -3   2   25.58    0.78
  -3  -3  -2   26.81    0.81
  -3  -3  -2   25.52    0.95
   3   3   2   26.43    0.93
   3   3   2   26.80    0.93
  -3   3  -2   25.80    0.97
  -4  -3  -2   57.53    1.77
   4  -3   2   62.63    1.72
  -4  -3  -2   61.15    1.75
  -4  -3  -2   62.17    1.59
   4   3   2   60.60    1.64
  -4   3  -2   59.29    1.75
   4   3   2   58.32    1.61
  -5  -3  -2    9.69    0.78
  -5  -3  -2    9.16    0.70
   5  -3   2    9.63    0.72
   5   3   2    7.90    0.62
   5   3   2    7.15    0.62
  -5   3  -2    7.89    0.72
   6  -3   2    9.28    0.80
  -6   3  -2    9.95    0.92
   6   3   2    9.41    0.73
   6   3   2    9.80    0.75
   7   3   2    9.00    0.77
  -7   3  -2    8.47    0.94
  -8  -4   2    2.80    0.97
   7  -4  -2   19.82    1.30
  -7  -4   2   18.33    1.23
   7   4  -2   20.76    1.13
   6  -4  -2   11.10    0.98
  -6  -4   2   12.01    0.94
   6   4  -2   11.72    0.92
  -5  -4   2   14.34    0.94
   5  -4  -2   16.77    0.96
  -5   4   2   18.19    0.90
   5   4  -2   18.65    0.85
   5   4  -2   18.41    0.93
  -4  -4   2   10.14    0.70
   4  -4  -2   10.02    0.70
   4  -4  -2   10.43    0.66
  -4  -4   2   10.14    0.76
   4  -4  -2   12.18    0.69
   4   4  -2   12.40    0.65
   4   4  -2   12.12    0.74
  -3  -4   2   70.90    1.87
   3  -4  -2   74.21    1.92
   3  -4  -2   74.67    1.85
  -3  -4   2   71.56    2.03
   3  -4  -2   71.97    1.85
   3   4  -2   78.30    1.93
   3   4  -2   76.07    1.85
   3   4  -2   76.55    1.79
   2  -4  -2   41.37    1.11
  -2  -4   2   39.84    1.32
   2  -4  -2   39.12    1.26
  -2  -4   2   38.31    1.16
  -2   4   2   41.58    1.14
   2   4  -2   43.19    1.19
   2   4  -2   42.97    1.06
   1  -4  -2    9.76    0.43
  -1  -4   2    9.77    0.59
  -1  -4   2   10.48    0.50
   1  -4  -2   10.26    0.59
   1   4  -2   10.12    0.52
   1   4  -2   10.64    0.58
   1   4  -2   11.93    0.46
  -1   4   2   11.18    0.52
   0  -4   2   20.75    0.60
   0  -4  -2   20.28    0.58
   0  -4  -2   20.18    0.87
   0  -4   2   20.32    0.85
   0  -4  -2   20.46    0.57
   0  -4   2   20.22    0.81
   0  -4   2   19.85    0.59
   0   4  -2   19.47    0.64
   0   4   2   20.97    0.76
   1  -4   2   64.44    1.61
   1  -4   2   63.70    1.69
  -1  -4  -2   62.92    1.76
  -1  -4  -2   61.42    1.49
   1   4   2   65.36    1.64
  -1   4  -2   64.90    1.50
   2  -4   2   23.12    0.80
  -2  -4  -2   21.81    0.83
   2  -4   2   20.94    0.90
  -2  -4  -2   21.80    0.95
   2   4   2   23.97    0.90
  -2   4  -2   23.01    0.82
   2   4   2   23.54    0.89
   3  -4   2   44.10    1.21
  -3  -4  -2   41.62    1.44
  -3  -4  -2   40.96    1.33
   3  -4   2   45.01    1.41
   3   4   2   47.36    1.42
  -3   4  -2   44.11    1.36
   3   4   2   45.85    1.39
  -4  -4  -2   33.65    1.34
  -4  -4  -2   34.80    1.31
   4  -4   2   35.70    1.30
   4   4   2   34.84    1.26
   4   4   2   36.30    1.25
  -4   4  -2   36.97    1.31
   5  -4   2   10.67    0.79
  -5  -4  -2   11.61    0.87
  -5   4  -2   10.31    0.86
   5   4   2    9.77    0.74
   5   4   2   11.79    0.78
   6  -4   2   15.09    0.98
  -6  -4  -2   13.69    1.01
   6   4   2   15.66    0.96
   6   4   2   12.48    0.86
  -6   4  -2   13.43    0.97
   7   4   2   13.05    0.96
  -7   4  -2   13.38    1.14
  -7  -5   2   10.52    1.14
   7   5  -2   11.02    1.01
  -6  -5   2    7.00    0.88
   6  -5  -2    7.31    0.82
   6   5  -2    9.08    0.90
  -5  -5   2   25.06    1.32
   5  -5  -2   24.48    1.21
  -5  -5   2   25.13    1.21
  -5   5   2   26.44    1.14
   5   5  -2   27.84    1.12
  -4  -5   2   12.32    0.81
   4  -5  -2   12.90    0.80
  -4  -5   2   12.51    0.89
   4  -5  -2   11.13    0.76
   4  -5  -2   10.86    0.78
   4   5  -2   11.53    0.72
  -3  -5   2   34.49    1.24
   3  -5  -2   36.28    1.21
   3  -5  -2   37.99    1.32
  -3  -5   2   33.64    1.40
  -3   5   2   36.24    1.15
   3   5  -2   37.53    1.23
  -2  -5   2   15.88    0.88
   2  -5  -2   17.47    0.85
  -2  -5   2   18.33    0.78
   2  -5  -2   17.66    0.70
   2   5  -2   17.73    0.79
  -2   5   2   18.50    0.76
  -1  -5   2   20.35    0.74
  -1  -5   2   20.07    0.92
   1  -5  -2   19.51    0.92
   1   5  -2   20.84    0.83
  -1   5   2   20.17    0.80
   0  -5  -2   28.38    1.15
   0  -5   2   27.92    0.74
   0  -5   2   28.79    1.08
   0  -5  -2   28.08    0.71
   0  -5   2   28.13    0.73
   0  -5  -2   28.35    0.71
   0   5   2   28.01    1.00
   0   5  -2   28.68    1.00
   1  -5   2   23.98    0.95
  -1  -5  -2   22.60    1.01
   1  -5   2   23.28    1.01
  -1  -5  -2   22.11    0.79
   1   5   2   22.63    0.90
  -1   5  -2   22.85    0.77
  -2  -5  -2   33.31    1.33
  -2  -5  -2   34.46    1.14
   2  -5   2   37.35    1.19
   2  -5   2   35.18    1.30
   2   5   2   38.20    1.30
  -2   5  -2   39.05    1.17
   3  -5   2    5.82    0.60
  -3  -5  -2    5.70    0.66
  -3  -5  -2    6.07    0.59
   3  -5   2    6.57    0.55
  -3   5  -2    4.87    0.54
   3   5   2    4.57    0.50
   4  -5   2   12.38    0.86
  -4  -5  -2   13.53    0.84
  -4  -5  -2   12.85    0.91
  -4   5  -2   14.41    0.84
   4   5   2   13.22    0.83
   5  -5   2    5.11    0.70
  -5  -5  -2    5.84    0.79
  -5   5  -2    5.90    0.73
   5   5   2    6.89    0.68
  -6  -5  -2    0.25    0.58
   6  -5   2   -0.32    0.54
   6   5   2    1.08    0.57
  -6   5  -2    0.03    0.57
   6   5   2    0.96    0.49
  -7   5  -2   -0.77    0.64
   7   5   2    1.99    0.73
  -6  -6   2   18.36    1.34
  -5  -6   2    9.97    0.99
  -5  -6   2   10.89    1.09
   5   6  -2   10.62    0.85
  -4  -6   2    7.66    0.75
   4  -6  -2    7.22    0.73
  -4  -6   2    6.77    0.86
   4   6  -2    8.64    0.73
  -4   6   2    8.42    0.65
   3  -6  -2    7.54    0.70
  -3  -6   2    5.48    0.61
  -3  -6   2    4.66    0.65
  -3   6   2    6.27    0.55
   3   6  -2    5.31    0.58
   2  -6  -2   87.60    2.41
  -2  -6   2   84.74    2.48
  -2  -6   2   88.27    2.12
  -2   6   2   87.90    2.18
   2   6  -2   85.54    2.21
  -1  -6   2    5.11    0.43
   1  -6  -2    5.84    0.64
  -1  -6   2    4.66    0.58
  -1   6   2    4.59    0.47
   1   6  -2    4.37    0.49
   0  -6   2    0.41    0.32
   0  -6  -2    0.40    0.34
   0   6   2    0.09    0.26
   0   6  -2    0.54    0.28
  -1  -6  -2   59.77    1.44
  -1  -6  -2   57.88    1.90
   1  -6   2   57.88    1.77
  -1   6  -2   62.71    1.76
   1   6   2   59.54    1.75
  -2  -6  -2   11.17    0.69
   2  -6   2   13.53    0.79
   2  -6   2   12.19    0.84
  -2  -6  -2   12.76    0.87
   2   6   2   13.33    0.81
  -3  -6  -2    5.07    0.58
  -3  -6  -2    5.15    0.71
   3  -6   2    4.84    0.62
   3   6   2    5.29    0.59
   4  -6   2    2.03    0.55
  -4  -6  -2    1.85    0.53
  -4  -6  -2    1.04    0.58
   4   6   2    2.39    0.52
  -5  -6  -2   20.76    1.20
   5  -6   2   20.03    1.23
  -5  -6  -2   21.67    1.33
  -5   6  -2   20.17    1.17
   5   6   2   19.58    1.07
  -6  -6  -2    2.85    0.85
   6  -6   2    2.76    0.78
  -6   6  -2    2.89    0.77
   6   6   2    3.06    0.69
  -5  -7   2   13.11    1.10
  -5  -7   2   12.89    1.23
   5   7  -2   12.52    1.00
  -4  -7   2   13.36    1.17
  -4  -7   2   12.15    0.90
   4  -7  -2   12.36    0.95
  -4   7   2   14.21    0.86
   4   7  -2   12.33    0.88
  -3  -7   2   12.05    1.03
  -3  -7   2   12.51    0.81
   3  -7  -2   12.49    0.92
  -3   7   2   13.25    0.85
   3   7  -2   14.40    0.92
   2  -7  -2    0.25    0.38
  -2  -7   2    0.18    0.42
  -2  -7   2    0.03    0.32
  -2   7   2    0.64    0.34
   2   7  -2    0.14    0.36
  -1  -7   2    8.28    0.51
  -1  -7   2    8.14    0.81
   1  -7  -2    8.52    0.83
  -1   7   2    8.07    0.66
   1   7  -2    8.01    0.70
   0  -7   2    8.09    0.77
   0  -7  -2   10.18    0.89
   0   7  -2    8.78    0.72
   0   7   2    9.86    0.75
  -1  -7  -2    3.93    0.38
   1  -7   2    2.86    0.54
  -1  -7  -2    3.15    0.60
  -1   7  -2    3.80    0.51
   1   7   2    3.25    0.48
  -2  -7  -2    9.18    0.67
  -2  -7  -2   11.61    0.97
   2  -7   2   11.71    0.85
   2   7   2   11.53    0.85
  -2   7  -2   11.09    0.77
  -3  -7  -2    9.38    0.97
   3  -7   2    7.63    0.84
  -3  -7  -2    8.31    0.75
   3   7   2    9.22    0.86
  -4  -7  -2    3.88    0.67
   4  -7   2    3.75    0.72
  -4  -7  -2    2.82    0.73
   4   7   2    2.96    0.63
  -5  -7  -2    3.03    0.76
   5  -7   2    2.32    0.72
  -5  -7  -2    1.16    0.74
   5   7   2    2.62    0.67
  -4  -8   2    0.32    0.56
  -4  -8   2   -0.68    0.63
   4   8  -2    0.45    0.57
  -4   8   2    0.90    0.52
  -3  -8   2   23.98    1.46
  -3  -8   2   25.66    1.17
   3  -8  -2   25.67    1.40
  -3   8   2   24.54    1.21
   3   8  -2   27.22    1.36
   2  -8  -2   24.58    1.31
  -2  -8   2   23.12    1.34
  -2  -8   2   23.78    0.97
   2   8  -2   24.21    1.22
  -2   8   2   23.60    1.17
  -1  -8   2    2.51    0.60
   1  -8  -2    2.49    0.61
  -1   8   2    2.16    0.52
   1   8  -2    2.19    0.54
   0  -8   2    2.00    0.56
   0  -8  -2    2.14    0.60
   0   8   2    1.58    0.49
   0   8  -2    1.46    0.48
   1  -8   2    5.23    0.76
  -1  -8  -2    6.37    0.83
  -1   8  -2    4.39    0.62
   1   8   2    4.17    0.65
  -2  -8  -2    1.10    0.61
  -2  -8  -2    2.31    0.45
  -2   8  -2    2.05    0.54
   2   8   2    1.66    0.55
  -3  -8  -2    7.60    0.95
  -3  -8  -2    8.35    0.78
   3   8   2    7.52    0.86
  -3   8  -2    7.89    0.80
  -4  -8  -2    0.06    0.61
  -4  -8  -2    0.34    0.61
  -4   8  -2    0.55    0.53
   4   8   2   -0.13    0.55
   3  -9  -2    4.81    0.95
  -3   9   2    4.97    0.79
   2  -9  -2    3.94    0.85
  -2  -9   2    4.56    0.81
  -2   9   2    3.82    0.70
   2   9  -2    4.10    0.72
  -1  -9   2    3.58    0.78
   1  -9  -2    4.70    0.86
   1   9  -2    4.63    0.76
  -1   9   2    4.89    0.72
   0  -9   2   16.36    1.18
   0  -9  -2   14.76    1.23
   0   9  -2   15.16    1.06
   0   9   2   16.46    1.08
  -1  -9  -2    4.84    0.90
   1  -9   2    4.82    0.82
  -1   9  -2    6.65    0.83
   1   9   2    6.22    0.86
   8   0  -3    5.68    0.93
   7   0  -3    7.82    0.93
  -7   0   3   10.35    0.88
   6   0  -3    1.45    0.51
  -6   0   3    0.90    0.39
   5   0  -3   29.27    0.79
   5   0  -3   30.41    1.20
  -5   0   3   28.98    1.05
   4   0  -3    5.60    0.52
   4   0  -3    5.65    0.33
  -4   0   3    5.75    0.46
   4   0  -3    5.23    0.29
   4   0  -3    5.63    0.35
  -3   0   3    0.76    0.22
   3   0  -3    1.02    0.17
   3   0  -3    0.86    0.12
   3   0  -3    0.82    0.17
   3   0  -3    0.62    0.25
  -2   0   3  146.93    2.97
   2   0  -3  151.37    2.74
   2   0  -3  153.27    3.06
  -1   0   3   75.82    1.37
   1   0  -3   75.28    1.46
   1   0  -3   75.42    1.59
  -1   0   3   70.59    1.54
  -1   0   3   76.38    1.47
   0   0  -3   17.77    0.55
   0   0   3   17.67    0.46
   0   0   3   18.24    0.48
   0   0  -3   17.94    0.51
   0   0   3   17.29    0.49
   1   0   3    8.18    0.37
  -1   0  -3    7.74    0.25
  -1   0  -3    7.92    0.37
   1   0   3    7.89    0.33
  -1   0  -3    7.39    0.36
   2   0   3   86.08    1.75
  -2   0  -3   89.67    1.83
   2   0   3   85.98    1.87
  -2   0  -3   85.47    1.92
  -2   0  -3   90.98    1.71
   3   0   3  101.59    2.09
   3   0   3  101.78    2.22
  -3   0  -3  103.62    2.17
   3   0   3   99.19    2.04
  -3   0  -3  101.08    2.32
   4   0   3   29.76    1.00
   4   0   3   28.34    0.83
  -4   0  -3   27.61    1.05
   5   0   3    7.87    0.58
  -5   0  -3    8.36    0.71
   5   0   3    8.84    0.46
   6   0   3   -0.40    0.32
   6   0   3   -0.11    0.22
  -6   0  -3    0.14    0.53
  -7   0  -3    2.98    0.69
   7   0   3    1.45    0.52
  -8   0  -3    0.33    0.70
   8  -1  -3    0.45    0.68
   8   1  -3    2.14    0.80
  -7  -1   3   25.53    1.19
   7  -1  -3   23.35    1.34
  -7   1   3   24.96    1.16
   7   1  -3   25.28    0.88
   7   1  -3   24.45    1.32
   6  -1  -3    1.46    0.46
  -6  -1   3    1.16    0.41
  -6   1   3    1.18    0.40
   6   1  -3    1.15    0.29
   6   1  -3    1.23    0.45
  -5  -1   3   -0.14    0.26
   5  -1  -3    0.99    0.39
  -5   1   3    0.29    0.26
   5   1  -3    0.28    0.31
   5   1  -3    0.17    0.24
   4  -1  -3   66.94    1.82
   4  -1  -3   68.85    1.43
  -4  -1   3   66.09    1.73
  -4   1   3   66.58    1.70
   4   1  -3   64.24    1.51
   4   1  -3   66.63    1.80
   4   1  -3   67.03    1.38
  -3  -1   3  161.78    3.10
  -3  -1   3  153.33    3.24
   3  -1  -3  159.79    3.36
   3   1  -3  154.66    3.33
   3   1  -3  157.93    3.02
   3   1  -3  159.23    2.84
  -3   1   3  158.72    3.23
  -2  -1   3   24.56    0.75
   2  -1  -3   25.11    0.79
  -2  -1   3   24.01    0.72
  -2   1   3   26.40    0.56
   2   1  -3   25.03    0.73
   2   1  -3   26.45    0.58
  -2   1   3   26.12    0.79
   2   1  -3   26.70    0.81
   1  -1  -3    5.22    0.32
  -1  -1   3    4.13    0.25
   1  -1  -3    5.23    0.34
  -1  -1   3    4.39    0.29
   1  -1  -3    5.42    0.23
   1  -1  -3    5.19    0.24
  -1  -1   3    5.09    0.30
  -1   1   3    5.08    0.21
   1   1  -3    4.68    0.32
   1   1  -3    5.21    0.34
   0  -1  -3  952.15   16.95
   0  -1   3 1000.00   16.39
   0  -1   3  918.85   16.88
   0  -1   3  964.74   16.23
   0  -1  -3  952.73   16.22
   0  -1  -3  963.85   17.26
   0   1   3  958.76   16.08
   0   1  -3  933.70   15.96
   0   1   3  934.38   15.94
   0   1  -3  945.41   17.02
  -1  -1  -3  223.60    4.38
  -1  -1  -3  238.13    4.36
   1  -1   3  237.71    4.30
  -1  -1  -3  234.02    4.24
   1  -1   3  237.63    4.13
   1   1   3  231.36    4.19
  -1   1  -3  228.22    4.39
   1   1   3  232.29    4.14
   2  -1   3   45.46    0.99
  -2  -1  -3   45.66    1.09
  -2  -1  -3   43.09    1.13
   2  -1   3   45.07    1.16
   2  -1   3   44.48    0.96
  -2  -1  -3   41.35    1.09
   2   1   3   44.64    1.09
   2   1   3   46.01    1.15
  -2   1  -3   44.11    1.18
   3  -1   3   96.01    2.18
  -3  -1  -3   97.05    2.16
   3  -1   3   97.14    1.88
  -3  -1  -3  101.15    2.11
  -3  -1  -3   94.20    2.19
   3  -1   3   98.85    1.90
   3   1   3   93.89    2.09
   3   1   3   92.53    1.99
  -3   1  -3   96.76    1.82
  -3   1  -3   93.84    2.21
  -4  -1  -3   32.41    1.14
   4  -1   3   33.26    0.82
   4  -1   3   31.80    1.10
  -4  -1  -3   34.73    1.05
   4  -1   3   32.77    0.80
  -4   1  -3   33.22    1.17
   4   1   3   32.14    1.06
   4   1   3   32.58    0.98
  -5  -1  -3   25.44    1.09
   5  -1   3   23.27    1.00
  -5   1  -3   22.81    1.08
   5   1   3   24.22    0.87
   5   1   3   24.95    0.98
  -6  -1  -3   13.13    0.91
   6  -1   3   13.85    0.85
   6   1   3   13.54    0.67
  -6   1  -3   12.09    0.91
   6   1   3   15.07    0.85
   7  -1   3    7.57    0.76
  -7  -1  -3    8.37    0.91
   7   1   3    7.64    0.58
  -7   1  -3    8.62    0.94
   7   1   3    8.32    0.76
  -8  -1  -3    6.51    0.93
  -8   1  -3    4.92    0.94
   8   1   3    6.26    0.52
   8  -2  -3    4.67    0.90
  -8  -2   3    4.67    0.86
   8   2  -3    3.85    0.51
   8   2  -3    3.20    0.88
  -7  -2   3    0.21    0.49
   7  -2  -3    0.28    0.53
   7   2  -3    0.36    0.55
   7   2  -3   -0.29    0.32
  -6  -2   3   11.11    0.79
   6  -2  -3   12.73    0.91
   6   2  -3   15.31    0.76
   6   2  -3   16.06    0.97
  -6   2   3   14.93    0.84
  -5  -2   3   24.01    1.05
   5  -2  -3   26.52    1.15
   5   2  -3   26.27    0.96
   5   2  -3   26.18    1.10
  -5   2   3   27.70    1.04
   4  -2  -3   58.56    1.68
  -4  -2   3   56.96    1.62
   4  -2  -3   61.03    1.37
  -4  -2   3   55.62    1.54
   4   2  -3   61.79    1.37
   4   2  -3   60.01    1.54
   4   2  -3   61.51    1.70
  -4   2   3   61.22    1.63
  -3  -2   3   93.51    2.19
   3  -2  -3   93.91    1.92
  -3  -2   3   97.28    2.11
   3  -2  -3   93.37    2.21
  -3   2   3  100.75    2.29
   3   2  -3  101.35    2.02
   3   2  -3   99.10    2.31
   3   2  -3  109.13    2.21
  -2  -2   3   92.02    1.96
  -2  -2   3   93.40    2.07
   2  -2  -3   90.66    2.07
   2  -2  -3   93.04    2.04
   2   2  -3   97.08    1.89
  -2   2   3   98.47    1.87
   2   2  -3   97.44    2.03
   2   2  -3   94.77    2.09
   1  -2  -3  133.08    2.62
  -1  -2   3  136.03    2.67
   1  -2  -3  133.77    2.74
  -1  -2   3  130.35    2.55
  -1  -2   3  128.29    2.57
   1   2  -3  139.67    2.67
  -1   2   3  140.57    2.61
   1   2  -3  138.14    2.78
   0  -2   3   11.01    0.42
   0  -2  -3   10.54    0.50
   0  -2  -3   10.62    0.40
   0  -2   3   10.10    0.47
   0  -2   3    9.96    0.40
   0  -2  -3   10.91    0.37
   0   2  -3    9.97    0.45
   0   2   3   10.16    0.42
  -1  -2  -3   13.82    0.55
   1  -2   3   13.59    0.42
   1  -2   3   13.93    0.42
   1  -2   3   14.51    0.45
  -1  -2  -3   12.88    0.43
  -1  -2  -3   14.77    0.59
   1  -2   3   13.78    0.58
   1   2   3   13.05    0.52
   1   2   3   12.95    0.49
  -1   2  -3   13.83    0.53
  -2  -2  -3   22.21    0.65
  -2  -2  -3   20.92    0.75
   2  -2   3   21.61    0.79
  -2  -2  -3   21.97    0.77
   2  -2   3   21.17    0.53
  -2   2  -3   21.68    0.76
   2   2   3   22.69    0.75
   2   2   3   22.38    0.73
  -3  -2  -3   41.29    1.23
   3  -2   3   43.09    1.25
  -3  -2  -3   39.53    1.19
  -3  -2  -3   41.37    1.13
  -3   2  -3   42.52    1.27
  -3   2  -3   41.73    0.92
   3   2   3   42.31    1.22
   3   2   3   41.83    1.17
  -4  -2  -3    2.85    0.42
   4  -2   3    2.95    0.41
  -4  -2  -3    3.20    0.44
   4   2   3    3.82    0.40
  -4   2  -3    3.83    0.51
   4   2   3    3.45    0.40
  -5  -2  -3   -0.46    0.36
   5  -2   3    0.09    0.31
  -5  -2  -3   -0.31    0.35
   5   2   3    0.12    0.29
  -5   2  -3    0.87    0.42
   5   2   3    0.12    0.27
  -6  -2  -3    3.70    0.64
   6  -2   3    2.68    0.52
   6   2   3    3.35    0.52
   6   2   3    2.98    0.45
  -6   2  -3    4.52    0.66
  -7  -2  -3   12.92    1.01
   7  -2   3   13.60    0.98
   7   2   3   11.45    0.73
  -7   2  -3   13.44    1.04
   7   2   3   12.92    0.93
  -8  -3   3   25.27    1.54
   8  -3  -3   28.21    1.59
   8   3  -3   25.88    1.16
  -7  -3   3   25.31    1.34
   7  -3  -3   27.66    1.43
   7   3  -3   27.60    1.15
   7   3  -3   28.16    1.42
   6  -3  -3    5.96    0.73
  -6  -3   3    5.24    0.66
   6   3  -3    4.90    0.60
   6   3  -3    4.74    0.68
  -6   3   3    5.47    0.62
   5  -3  -3   18.97    0.99
  -5  -3   3   19.86    1.00
   5   3  -3   17.55    0.85
  -5   3   3   19.91    0.89
   5   3  -3   18.29    0.96
   4  -3  -3   74.00    2.01
  -4  -3   3   73.03    2.04
  -4  -3   3   73.64    1.93
   4  -3  -3   75.88    1.76
   4   3  -3   78.74    1.77
   4   3  -3   73.92    1.96
   4   3  -3   79.02    1.95
  -4   3   3   76.32    1.97
  -3  -3   3    8.36    0.53
   3  -3  -3    8.65    0.55
  -3  -3   3    8.04    0.57
   3  -3  -3    7.64    0.54
   3  -3  -3    7.36    0.47
   3   3  -3   10.24    0.55
   3   3  -3   10.54    0.60
   3   3  -3    9.90    0.48
  -2  -3   3   14.06    0.66
   2  -3  -3   12.24    0.55
  -2  -3   3   12.86    0.59
   2  -3  -3   12.15    0.60
   2   3  -3   13.08    0.52
  -2   3   3   13.52    0.51
   2   3  -3   13.42    0.57
   2   3  -3   13.79    0.62
  -1  -3   3   13.25    0.54
  -1  -3   3   12.66    0.60
   1  -3  -3   13.01    0.48
   1  -3  -3   13.15    0.62
   1   3  -3   13.17    0.57
   1   3  -3   14.03    0.53
  -1   3   3   14.09    0.54
   0  -3  -3   24.13    0.88
   0  -3   3   25.56    0.81
   0  -3   3   26.87    0.70
   0  -3  -3   24.89    0.68
   0  -3   3   26.40    0.88
   0  -3  -3   26.18    0.68
   0  -3   3   25.68    0.70
   0   3  -3   24.24    0.75
   0   3   3   24.12    0.75
  -1  -3  -3    3.06    0.32
   1  -3   3    2.43    0.33
  -1  -3  -3    2.63    0.35
   1  -3   3    3.60    0.31
   1   3   3    2.95    0.31
   1   3   3    2.81    0.31
  -1   3  -3    3.69    0.31
   2  -3   3    8.24    0.53
  -2  -3  -3    7.59    0.50
  -2  -3  -3    7.48    0.36
  -2  -3  -3    8.46    0.56
   2  -3   3    8.25    0.38
   2   3   3    7.25    0.47
  -2   3  -3    7.66    0.48
   2   3   3    6.87    0.46
  -3  -3  -3   24.06    0.75
  -3  -3  -3   24.20    0.96
   3  -3   3   23.09    0.93
  -3  -3  -3   22.29    0.91
   3  -3   3   23.95    0.69
  -3   3  -3   24.65    0.93
   3   3   3   22.24    0.86
   3   3   3   23.35    0.86
  -4  -3  -3   19.81    0.80
  -4  -3  -3   19.16    0.92
   4  -3   3   18.92    0.92
  -4  -3  -3   17.86    0.90
   4   3   3   17.75    0.83
  -4   3  -3   16.20    0.85
   4   3   3   17.85    0.82
  -5  -3  -3    8.32    0.75
   5  -3   3    6.42    0.66
  -5  -3  -3    7.50    0.66
   5   3   3    5.39    0.58
   5   3   3    5.22    0.55
  -5   3  -3    5.60    0.64
   6  -3   3   24.15    1.22
   6   3   3   23.65    1.06
  -6   3  -3   22.63    1.19
   6   3   3   22.95    1.09
   7   3   3    3.94    0.61
  -7   3  -3    3.95    0.78
   7   3   3    2.77    0.64
  -8  -4   3    2.04    0.87
  -7  -4   3   11.39    1.12
   7  -4  -3    9.64    1.03
   7   4  -3    9.08    0.87
  -6  -4   3    2.21    0.62
   6  -4  -3    2.73    0.62
  -6   4   3    2.96    0.57
   6   4  -3    3.75    0.62
  -5  -4   3   20.02    1.08
   5  -4  -3   18.72    1.02
   5   4  -3   22.38    1.04
  -5   4   3   23.29    1.03
   4  -4  -3   41.04    1.31
   4  -4  -3   43.13    1.41
   4  -4  -3   42.40    1.43
  -4  -4   3   43.42    1.55
  -4  -4   3   41.14    1.39
   4   4  -3   47.36    1.34
   4   4  -3   46.44    1.48
  -3  -4   3    1.53    0.38
   3  -4  -3    2.20    0.39
   3  -4  -3    1.61    0.35
  -3  -4   3    1.69    0.35
  -3   4   3    1.70    0.27
   3   4  -3    1.47    0.36
   3   4  -3    1.52    0.29
   3   4  -3    1.76    0.36
  -2  -4   3    0.42    0.26
  -2  -4   3    0.07    0.24
   2  -4  -3    1.19    0.26
   2  -4  -3    0.52    0.25
   2   4  -3    0.46    0.23
   2   4  -3    0.61    0.24
  -2   4   3    0.25    0.18
   2   4  -3   -0.16    0.24
  -1  -4   3   95.04    2.25
   1  -4  -3   92.31    2.26
  -1  -4   3   89.03    1.98
   1  -4  -3   91.81    1.92
  -1   4   3   93.86    2.04
   1   4  -3   88.39    2.04
   1   4  -3   92.04    1.97
   0  -4  -3    4.92    0.50
   0  -4   3    4.89    0.32
   0  -4   3    5.04    0.47
   0  -4   3    5.71    0.46
   0  -4  -3    4.70    0.31
   0  -4   3    5.38    0.35
   0  -4  -3    5.24    0.34
   0   4   3    6.13    0.43
   0   4  -3    5.55    0.40
  -1  -4  -3   15.55    0.64
   1  -4   3   15.19    0.65
   1  -4   3   15.09    0.74
  -1  -4  -3   13.94    0.75
  -1   4  -3   15.66    0.64
   1   4   3   15.90    0.72
   2  -4   3   68.99    1.86
  -2  -4  -3   67.87    1.72
  -2  -4  -3   65.42    1.90
   2  -4   3   70.25    1.64
  -2   4  -3   70.77    1.78
   2   4   3   72.24    1.84
  -3  -4  -3  116.99    2.87
  -3  -4  -3  116.86    2.69
   3  -4   3  116.65    2.77
   3   4   3  126.69    2.79
  -3   4  -3  122.69    2.84
   3   4   3  120.70    2.80
  -4  -4  -3    8.97    0.72
  -4  -4  -3    8.98    0.77
   4  -4   3    9.78    0.75
   4   4   3    8.60    0.65
   4   4   3    9.13    0.68
  -4   4  -3    8.78    0.69
  -5  -4  -3    7.71    0.78
   5  -4   3    7.95    0.77
   5   4   3    7.04    0.67
  -5   4  -3    7.33    0.76
   5   4   3    8.55    0.73
   6  -4   3   36.77    1.55
  -6   4  -3   32.34    1.45
   6   4   3   31.07    1.36
   6   4   3   32.60    1.38
   7   4   3   14.15    1.04
   7   4   3   11.89    1.02
  -7   4  -3   12.50    1.11
   7  -5  -3    5.64    0.91
  -7  -5   3    4.28    0.88
   7   5  -3    6.53    0.89
   6  -5  -3    2.37    0.68
  -6  -5   3    2.13    0.67
   6   5  -3    3.26    0.67
  -5  -5   3    4.10    0.70
   5  -5  -3    4.45    0.67
  -5   5   3    4.61    0.60
  -4  -5   3    5.10    0.65
   4  -5  -3    5.14    0.60
   4  -5  -3    4.96    0.60
  -4  -5   3    6.33    0.64
   4   5  -3    3.83    0.48
  -4   5   3    4.42    0.44
  -3  -5   3    6.00    0.66
   3  -5  -3    4.91    0.59
  -3  -5   3    5.98    0.58
   3  -5  -3    6.52    0.57
  -3   5   3    5.05    0.44
   3   5  -3    4.79    0.46
  -2  -5   3   38.51    1.41
  -2  -5   3   39.42    1.22
   2  -5  -3   40.21    1.40
   2   5  -3   38.25    1.21
  -2   5   3   39.03    1.18
   1  -5  -3   27.26    1.11
  -1  -5   3   26.06    1.04
  -1  -5   3   27.42    0.89
  -1   5   3   27.67    0.96
   1   5  -3   26.77    0.95
   0  -5   3   20.47    0.89
   0  -5  -3   21.61    0.60
   0  -5  -3   19.95    0.60
   0  -5   3   20.55    0.97
   0  -5  -3   20.80    0.98
   0  -5   3   20.52    0.64
   0   5   3   19.50    0.82
  -1  -5  -3   22.58    1.05
   1  -5   3   23.34    1.03
   1  -5   3   23.44    0.93
  -1  -5  -3   23.30    0.81
  -1   5  -3   22.71    0.83
   1   5   3   20.85    0.92
   2  -5   3   34.96    1.31
   2  -5   3   36.05    1.16
  -2  -5  -3   34.98    1.36
  -2  -5  -3   34.42    1.15
  -2   5  -3   36.87    1.18
   2   5   3   37.60    1.30
  -3  -5  -3   15.18    0.96
   3  -5   3   17.04    0.93
  -3  -5  -3   14.71    0.81
  -3   5  -3   17.36    0.83
   3   5   3   15.98    0.86
  -4  -5  -3    4.94    0.64
  -4  -5  -3    4.80    0.67
   4  -5   3    4.23    0.61
   4   5   3    5.49    0.63
  -4   5  -3    6.58    0.67
   5  -5   3   24.10    1.27
  -5  -5  -3   23.56    1.31
  -5   5  -3   22.32    1.14
   5   5   3   20.79    1.07
   6  -5   3   17.74    1.19
  -6   5  -3   16.54    1.12
   6   5   3   17.89    1.08
   7   5   3    0.56    0.66
  -6  -6   3   10.88    1.17
  -5  -6   3   14.34    1.10
  -5  -6   3   17.94    1.22
  -4  -6   3    4.38    0.72
   4  -6  -3    5.02    0.66
  -4  -6   3    3.88    0.61
  -4   6   3    3.99    0.49
   4   6  -3    4.55    0.58
  -3  -6   3   39.57    1.63
   3  -6  -3   44.14    1.58
  -3  -6   3   41.81    1.43
  -3   6   3   43.07    1.38
   3   6  -3   44.23    1.43
  -2  -6   3   49.19    1.72
   2  -6  -3   50.67    1.74
  -2  -6   3   51.62    1.48
   2   6  -3   51.68    1.57
  -2   6   3   50.55    1.52
   1  -6  -3    5.68    0.64
  -1  -6   3    6.10    0.65
  -1  -6   3    6.24    0.48
  -1   6   3    6.44    0.56
   1   6  -3    6.42    0.56
   0  -6  -3   10.85    0.88
   0  -6   3   10.04    0.72
   0   6  -3    9.55    0.65
   0   6   3    9.17    0.63
   1  -6   3    1.80    0.43
  -1  -6  -3    1.76    0.33
   1  -6   3    1.85    0.41
  -1  -6  -3    1.65    0.45
   1   6   3    1.57    0.42
   2  -6   3    0.05    0.35
   2  -6   3    0.36    0.33
  -2  -6  -3   -0.18    0.34
  -2  -6  -3    0.11    0.31
   2   6   3    0.12    0.33
  -3  -6  -3   10.52    0.95
  -3  -6  -3   10.91    0.76
   3  -6   3   10.74    0.87
   3   6   3    9.86    0.78
  -4  -6  -3   10.19    0.86
   4  -6   3   11.61    0.95
  -4  -6  -3   10.40    1.00
   4   6   3   10.46    0.87
  -4   6  -3   10.77    0.87
  -5  -6  -3    1.30    0.68
  -5  -6  -3    2.08    0.72
   5  -6   3    1.90    0.66
  -5   6  -3    2.16    0.65
   5   6   3    1.28    0.53
   6  -6   3   -0.05    0.63
  -6  -6  -3   -1.15    0.77
   6   6   3    0.35    0.56
  -6   6  -3    0.62    0.70
  -5  -7   3    5.31    0.92
  -5  -7   3    4.38    0.82
   4  -7  -3   17.14    1.09
  -4  -7   3   14.91    1.09
  -4  -7   3   14.42    0.99
  -4   7   3   16.86    0.95
   4   7  -3   15.47    0.99
  -3  -7   3   11.25    0.79
  -3  -7   3   13.49    1.02
   3  -7  -3   13.40    0.95
  -3   7   3   11.79    0.80
   3   7  -3   13.81    0.86
  -2  -7   3    1.13    0.54
  -2  -7   3    0.69    0.36
   2  -7  -3    1.08    0.46
   2   7  -3    1.25    0.44
  -2   7   3    0.83    0.37
   1  -7  -3    2.27    0.54
  -1  -7   3    3.00    0.57
  -1  -7   3    2.73    0.36
   1   7  -3    3.87    0.53
  -1   7   3    3.21    0.50
   0  -7  -3   35.39    1.56
   0  -7   3   36.12    1.43
   0   7  -3   36.06    1.34
   0   7   3   34.40    1.33
  -1  -7  -3    6.01    0.46
  -1  -7  -3    5.84    0.74
   1  -7   3    6.99    0.71
   1   7   3    8.18    0.76
  -1   7  -3    7.35    0.65
  -2  -7  -3    4.00    0.49
  -2  -7  -3    3.09    0.64
   2  -7   3    3.98    0.64
   2   7   3    3.35    0.57
  -3  -7  -3    5.91    0.78
  -3  -7  -3    6.69    0.69
   3  -7   3    7.23    0.81
   3   7   3    5.92    0.72
  -4  -7  -3    1.05    0.60
  -4  -7  -3    0.47    0.59
   4  -7   3    1.67    0.62
   4   7   3    1.08    0.50
  -5  -7  -3    1.57    0.76
   5  -7   3    0.88    0.74
  -5  -7  -3    1.46    0.76
   5   7   3    0.90    0.59
  -4  -8   3    7.84    1.05
   4  -8  -3    9.35    0.96
  -4  -8   3    8.13    0.88
   4   8  -3    7.63    0.88
  -3  -8   3    0.65    0.48
   3  -8  -3   -0.43    0.53
  -3  -8   3    0.37    0.56
   3   8  -3   -0.51    0.47
  -3   8   3    0.48    0.46
  -2  -8   3    0.63    0.58
   2  -8  -3    1.66    0.59
  -2  -8   3    0.91    0.38
  -2   8   3    0.90    0.46
   2   8  -3    0.93    0.51
  -1  -8   3    7.17    0.83
   1  -8  -3    6.22    0.81
   1   8  -3    7.01    0.76
  -1   8   3    7.67    0.73
   0  -8  -3   16.45    1.14
   0  -8   3   17.04    1.09
   0   8   3   16.21    1.00
   0   8  -3   15.78    0.98
   1  -8   3   -0.29    0.47
  -1  -8  -3   -0.09    0.46
   1   8   3   -0.63    0.38
  -1   8  -3    0.10    0.37
  -2  -8  -3    3.10    0.70
  -2  -8  -3    3.04    0.49
  -2   8  -3    2.29    0.58
   2   8   3    4.74    0.70
  -3  -8  -3   31.13    1.26
  -3  -8  -3   31.02    1.63
  -3   8  -3   33.43    1.47
   3   8   3   36.05    1.62
  -4  -8  -3   10.52    1.17
   4  -8   3    8.81    1.03
   4   8   3   11.27    1.05
   2  -9  -3    4.09    0.92
  -2  -9   3    6.20    0.91
   2   9  -3    4.16    0.75
  -2   9   3    4.58    0.71
  -1  -9   3    1.30    0.65
   1  -9  -3    1.43    0.66
  -1   9   3    1.98    0.59
   1   9  -3    3.39    0.69
   0  -9  -3    8.30    1.02
   0  -9   3    6.76    0.89
   0   9   3    6.52    0.85
   0   9  -3    8.30    0.85
  -1  -9  -3   10.16    1.11
  -1   9  -3   11.78    0.98
   1   9   3   12.32    1.08
   8   0  -4   24.49    1.50
  -7   0   4   -0.03    0.44
   7   0  -4    0.79    0.55
   6   0  -4    8.47    0.81
  -6   0   4    6.83    0.65
   6   0  -4    7.42    0.40
   5   0  -4   38.67    1.43
   5   0  -4   41.82    1.01
  -5   0   4   40.45    1.33
   4   0  -4  178.29    3.30
  -4   0   4  174.64    3.70
   4   0  -4  174.11    3.86
   4   0  -4  181.15    3.29
   3   0  -4   30.78    0.80
   3   0  -4   29.96    0.79
  -3   0   4   31.65    0.98
   3   0  -4   30.81    1.03
  -2   0   4    3.13    0.28
   2   0  -4    3.11    0.26
  -2   0   4    3.95    0.33
   2   0  -4    2.84    0.32
  -1   0   4  314.24    5.36
  -1   0   4  299.08    5.58
  -1   0   4  308.24    5.29
   1   0  -4  297.74    5.73
   1   0  -4  301.87    5.35
   0   0  -4   82.75    1.67
   0   0   4   84.20    1.66
   0   0   4   85.51    1.66
   0   0  -4   80.26    1.79
   0   0   4   83.29    1.67
   1   0   4  120.86    2.34
  -1   0  -4  115.54    2.41
   1   0   4  115.51    2.25
  -1   0  -4  118.20    2.30
  -1   0  -4  115.25    2.20
   2   0   4   24.07    0.79
  -2   0  -4   24.02    0.78
  -2   0  -4   25.42    0.78
   2   0   4   22.71    0.69
  -2   0  -4   23.65    0.57
  -3   0  -4   99.12    2.31
   3   0   4   98.29    2.06
   3   0   4   96.96    2.24
  -3   0  -4  104.27    2.00
  -3   0  -4  102.29    2.21
  -4   0  -4   34.36    1.20
   4   0   4   34.21    1.15
   4   0   4   36.91    1.00
  -5   0  -4    0.11    0.36
   5   0   4    0.03    0.28
   5   0   4    0.29    0.22
   6   0   4    0.33    0.39
  -6   0  -4   -0.30    0.43
   6   0   4    0.30    0.26
   7   0   4    9.63    0.84
  -7   0  -4   10.98    0.99
  -8   0  -4   12.30    1.14
  -8  -1   4   14.96    1.09
   8  -1  -4   15.58    1.23
   8   1  -4   16.43    1.27
   7  -1  -4   23.49    1.32
  -7  -1   4   25.73    1.21
   7   1  -4   24.10    0.87
  -7   1   4   25.29    1.19
   7   1  -4   23.70    1.34
   6  -1  -4   20.30    1.10
  -6  -1   4   19.84    0.99
   6   1  -4   17.03    1.02
   6   1  -4   18.10    0.71
  -6   1   4   16.35    0.87
  -5  -1   4   35.43    1.25
   5  -1  -4   37.38    1.36
   5   1  -4   39.13    1.40
   5   1  -4   38.64    1.11
  -5   1   4   39.49    1.31
  -4  -1   4   17.05    0.77
   4  -1  -4   17.34    0.83
  -4   1   4   17.03    0.76
   4   1  -4   17.23    0.82
   4   1  -4   18.36    0.68
   3  -1  -4    3.02    0.38
  -3  -1   4    2.56    0.33
  -3  -1   4    2.27    0.31
  -3   1   4    2.51    0.32
   3   1  -4    2.85    0.18
   3   1  -4    1.84    0.36
  -2  -1   4   57.13    1.41
   2  -1  -4   60.86    1.17
   2  -1  -4   58.31    1.45
   2  -1  -4   60.12    1.17
  -2  -1   4   59.69    1.36
  -2   1   4   60.74    1.49
   2   1  -4   61.63    1.50
   2   1  -4   62.88    1.17
  -2   1   4   62.35    1.16
   2   1  -4   61.80    1.39
   1  -1  -4   90.19    1.95
  -1  -1   4   93.64    1.78
  -1  -1   4   91.66    1.90
   1  -1  -4   89.70    1.97
   1  -1  -4   94.55    1.76
   1  -1  -4   89.64    1.76
  -1  -1   4   92.99    1.86
   1   1  -4   90.93    1.99
  -1   1   4   95.89    1.75
   1   1  -4   89.93    1.86
   0  -1  -4  152.11    3.03
   0  -1   4  157.07    2.92
   0  -1  -4  148.97    2.87
   0  -1   4  153.94    2.87
   0  -1   4  158.51    2.89
   0  -1  -4  156.35    3.03
   0   1  -4  151.28    2.87
   0   1  -4  156.57    3.10
   0   1   4  152.54    2.84
   0   1   4  154.97    2.86
   1  -1   4    9.46    0.40
  -1  -1  -4    9.59    0.43
  -1  -1  -4    9.87    0.46
  -1  -1  -4    9.34    0.42
   1  -1   4   10.34    0.48
   1   1   4   11.01    0.47
   1   1   4   11.49    0.48
  -1   1  -4   11.66    0.47
  -1   1  -4   10.59    0.51
   2  -1   4    0.47    0.17
  -2  -1  -4   -0.13    0.17
   2  -1   4   -0.18    0.18
   2  -1   4    0.16    0.15
  -2  -1  -4   -0.14    0.22
  -2  -1  -4   -0.23    0.19
   2   1   4   -0.12    0.14
   2   1   4    0.12    0.17
  -2   1  -4    0.03    0.19
  -3  -1  -4   17.23    0.71
   3  -1   4   19.14    0.62
  -3  -1  -4   18.14    0.67
   3  -1   4   17.73    0.76
   3  -1   4   18.37    0.58
  -3  -1  -4   18.37    0.77
   3   1   4   17.93    0.73
  -3   1  -4   17.14    0.75
   3   1   4   15.85    0.65
   4  -1   4   14.55    0.74
  -4  -1  -4   15.16    0.76
   4  -1   4   15.50    0.53
  -4  -1  -4   14.33    0.66
   4   1   4   14.46    0.72
   4   1   4   14.14    0.64
  -4   1  -4   14.37    0.76
   5  -1   4    3.60    0.49
  -5  -1  -4    4.12    0.55
   5   1   4    2.82    0.38
  -5   1  -4    3.15    0.52
   5   1   4    2.53    0.43
   6  -1   4   34.18    1.33
  -6  -1  -4   33.49    1.37
   6   1   4   34.87    1.14
  -6   1  -4   33.98    1.42
   6   1   4   32.33    1.29
  -7  -1  -4    2.37    0.66
   7  -1   4    2.15    0.57
   7   1   4    2.22    0.42
   7   1   4    1.46    0.56
  -7   1  -4    1.93    0.67
  -8  -1  -4    1.96    0.79
  -8  -2   4    6.97    0.93
   8  -2  -4    7.02    0.99
   8   2  -4    8.69    1.13
   8   2  -4    6.59    0.62
  -7  -2   4    0.77    0.53
   7  -2  -4    1.06    0.60
  -7   2   4    0.98    0.46
   7   2  -4    0.72    0.57
   7   2  -4    1.56    0.40
   6  -2  -4    3.18    0.63
  -6  -2   4    4.09    0.58
  -6   2   4    3.26    0.52
   6   2  -4    3.91    0.61
   6   2  -4    2.79    0.42
  -5  -2   4   47.51    1.53
   5  -2  -4   46.94    1.62
   5   2  -4   46.52    1.55
  -5   2   4   46.61    1.48
   5   2  -4   47.64    1.37
  -4  -2   4    2.76    0.39
   4  -2  -4    2.50    0.42
   4  -2  -4    2.51    0.27
   4   2  -4    2.51    0.25
  -4   2   4    3.32    0.42
   4   2  -4    2.60    0.36
   4   2  -4    3.71    0.45
  -3  -2   4    3.34    0.38
  -3  -2   4    4.00    0.40
   3  -2  -4    3.35    0.39
   3   2  -4    3.73    0.37
   3   2  -4    3.75    0.27
  -3   2   4    3.57    0.26
  -3   2   4    4.41    0.42
   3   2  -4    4.01    0.41
  -2  -2   4   56.20    1.36
   2  -2  -4   54.86    1.45
   2  -2  -4   57.13    1.42
  -2  -2   4   54.72    1.40
   2   2  -4   56.19    1.19
   2   2  -4   56.67    1.35
   2   2  -4   54.38    1.40
  -2   2   4   55.96    1.17
   1  -2  -4   12.13    0.57
  -1  -2   4   10.15    0.46
   1  -2  -4   10.84    0.37
   1  -2  -4   10.82    0.36
  -1  -2   4   11.68    0.49
  -1  -2   4   10.45    0.49
   1  -2  -4   10.83    0.46
  -1   2   4   10.33    0.41
   1   2  -4    9.97    0.49
   1   2  -4    9.50    0.47
   0  -2  -4    9.28    0.43
   0  -2  -4   10.24    0.41
   0  -2   4   10.45    0.41
   0  -2   4    9.21    0.40
   0  -2  -4    9.43    0.48
   0  -2   4    9.72    0.47
   0   2  -4   10.21    0.47
   0   2   4   11.28    0.45
   0   2  -4   12.02    0.54
   0   2   4   11.28    0.45
   1  -2   4  157.04    3.16
   1  -2   4  156.87    2.92
  -1  -2  -4  154.76    3.09
   1  -2   4  160.42    2.93
  -1  -2  -4  156.20    3.22
   1  -2   4  164.70    2.98
  -1  -2  -4  160.53    3.08
   1   2   4  157.62    3.03
   1   2   4  158.84    3.08
  -1   2  -4  154.33    3.20
   2  -2   4    8.66    0.36
  -2  -2  -4    8.05    0.42
   2  -2   4    8.29    0.32
  -2  -2  -4    7.58    0.49
  -2  -2  -4    7.60    0.48
   2  -2   4    7.45    0.49
   2   2   4    7.50    0.45
  -2   2  -4    7.10    0.48
   2   2   4    7.56    0.47
  -3  -2  -4   30.62    1.07
  -3  -2  -4   30.90    0.96
  -3  -2  -4   31.89    1.03
   3  -2   4   31.36    1.08
  -3   2  -4   31.60    1.07
   3   2   4   32.24    1.06
   3   2   4   32.30    1.01
   4  -2   4   26.67    1.06
  -4  -2  -4   26.36    0.99
  -4  -2  -4   29.00    1.02
  -4   2  -4   27.50    1.09
   4   2   4   27.79    1.03
   4   2   4   26.98    0.97
   5  -2   4   29.06    1.19
  -5  -2  -4   28.52    1.13
  -5   2  -4   29.41    1.21
   5   2   4   27.62    1.12
   5   2   4   27.32    1.03
   6  -2   4    0.64    0.46
  -6  -2  -4    0.41    0.48
   6   2   4    0.37    0.35
  -6   2  -4    0.56    0.49
   6   2   4    0.41    0.38
   7  -2   4    1.75    0.62
  -7  -2  -4    1.60    0.65
   7   2   4    2.00    0.56
   7   2   4    1.23    0.44
  -7   2  -4    1.43    0.63
   8  -3  -4    0.52    0.77
  -8  -3   4    1.36    0.76
   8   3  -4    0.95    0.50
   7  -3  -4    5.34    0.82
  -7  -3   4    6.34    0.82
   7   3  -4    8.32    0.98
   7   3  -4    6.94    0.69
   6  -3  -4   27.62    1.30
  -6  -3   4   27.24    1.28
  -6   3   4   30.11    1.24
   6   3  -4   27.20    1.16
   6   3  -4   28.95    1.32
   5  -3  -4    9.88    0.76
  -5  -3   4    9.91    0.79
   5   3  -4   11.02    0.71
  -5   3   4    9.85    0.67
   5   3  -4   11.19    0.79
   4  -3  -4    9.54    0.67
  -4  -3   4   10.00    0.67
  -4  -3   4    9.97    0.67
   4   3  -4   11.28    0.66
  -4   3   4   10.36    0.64
   4   3  -4   12.62    0.55
   4   3  -4   10.11    0.66
   3  -3  -4   16.80    0.77
  -3  -3   4   15.72    0.77
  -3  -3   4   15.74    0.72
   3  -3  -4   15.67    0.74
   3   3  -4   16.40    0.74
   3   3  -4   16.40    0.73
   3   3  -4   16.04    0.60
  -3   3   4   17.54    0.59
  -2  -3   4  380.17    7.23
  -2  -3   4  370.16    6.90
   2  -3  -4  390.87    7.23
   2  -3  -4  380.73    7.29
   2   3  -4  407.40    7.20
  -2   3   4  401.56    7.07
   2   3  -4  388.67    7.52
   2   3  -4  396.14    7.08
   1  -3  -4    5.01    0.44
   1  -3  -4    4.35    0.34
  -1  -3   4    4.49    0.40
  -1  -3   4    4.12    0.36
  -1  -3   4    4.87    0.40
  -1   3   4    4.33    0.32
   1   3  -4    5.30    0.40
   1   3  -4    4.22    0.37
   0  -3  -4    5.10    0.29
   0  -3  -4    5.43    0.46
   0  -3   4    4.74    0.36
   0  -3  -4    5.01    0.31
   0  -3   4    5.70    0.37
   0  -3  -4    4.45    0.32
   0  -3   4    5.31    0.36
   0  -3   4    4.74    0.42
   0   3  -4    4.01    0.36
   0   3   4    5.09    0.37
   0   3  -4    4.99    0.39
   1  -3   4  166.98    3.05
  -1  -3  -4  167.54    3.54
   1  -3   4  173.54    3.28
  -1  -3  -4  167.17    3.26
  -1  -3  -4  164.46    3.19
   1  -3   4  160.20    3.40
   1  -3   4  166.97    3.03
   1   3   4  163.05    3.33
  -1   3  -4  165.96    3.42
   1   3   4  171.62    3.25
   2  -3   4  104.53    2.41
  -2  -3  -4  105.79    2.47
   2  -3   4  104.50    2.10
  -2  -3  -4  106.17    2.35
  -2  -3  -4  104.37    2.15
  -2   3  -4  106.06    2.40
   2   3   4  105.09    2.38
   2   3   4  106.52    2.32
   3  -3   4   17.10    0.84
  -3  -3  -4   16.94    0.83
  -3  -3  -4   16.60    0.65
  -3  -3  -4   16.76    0.79
   3   3   4   18.86    0.80
  -3   3  -4   18.26    0.82
   3   3   4   17.81    0.79
   4  -3   4    4.14    0.52
  -4  -3  -4    3.90    0.57
  -4  -3  -4    3.09    0.50
  -4  -3  -4    2.81    0.40
   4   3   4    3.12    0.43
   4   3   4    4.07    0.48
  -4   3  -4    3.58    0.49
   5  -3   4   49.31    1.66
   5   3   4   53.31    1.64
  -5   3  -4   54.26    1.80
   5   3   4   55.92    1.72
   6  -3   4   10.19    0.88
  -6   3  -4   10.49    0.92
   6   3   4   11.14    0.81
   6   3   4   10.39    0.84
   7  -3   4    2.60    0.70
  -7   3  -4    0.16    0.68
   7   3   4    3.30    0.61
   7   3   4    3.64    0.67
  -8  -4   4    2.41    0.95
  -7  -4   4    2.01    0.70
   7  -4  -4    1.08    0.65
   7   4  -4    0.89    0.56
  -6  -4   4    3.90    0.68
   6  -4  -4    4.46    0.68
   6   4  -4    2.70    0.57
  -6   4   4    3.07    0.59
   5  -4  -4   39.10    1.50
  -5  -4   4   38.61    1.54
  -5   4   4   38.54    1.41
   5   4  -4   40.34    1.43
  -4  -4   4   28.02    1.14
   4  -4  -4   26.12    1.10
  -4  -4   4   26.29    1.20
   4  -4  -4   28.79    1.14
   4   4  -4   29.65    0.99
   4   4  -4   27.40    1.06
   4   4  -4   30.10    1.16
  -3  -4   4    1.60    0.40
   3  -4  -4    2.46    0.39
   3  -4  -4    1.88    0.35
  -3  -4   4    1.24    0.33
  -3   4   4    2.41    0.31
   3   4  -4    1.71    0.35
   3   4  -4    2.00    0.29
   2  -4  -4   29.29    0.94
  -2  -4   4   29.51    1.10
   2  -4  -4   30.76    1.14
  -2  -4   4   29.20    0.99
   2   4  -4   27.90    0.90
   2   4  -4   30.50    0.95
  -2   4   4   28.87    0.91
   1  -4  -4   27.82    0.78
  -1  -4   4   27.88    1.01
  -1  -4   4   28.46    0.90
   1  -4  -4   28.00    1.07
  -1   4   4   28.31    0.91
   1   4  -4   29.21    0.92
   0  -4   4   28.26    1.04
   0  -4  -4   28.22    0.78
   0  -4   4   26.86    0.93
   0  -4   4   26.80    0.79
   0  -4   4   29.46    0.82
   0  -4  -4   26.69    1.07
   0  -4  -4   27.83    0.75
   0   4   4   27.99    0.96
   0   4  -4   28.59    0.93
   1  -4   4   26.31    1.03
  -1  -4  -4   26.53    1.07
  -1  -4  -4   25.71    0.88
   1  -4   4   28.59    0.91
   1   4   4   27.26    0.97
  -1   4  -4   26.08    0.90
  -2  -4  -4   13.43    0.76
  -2  -4  -4   13.38    0.69
   2  -4   4   11.98    0.71
   2  -4   4   13.43    0.58
  -2   4  -4   14.40    0.70
   2   4   4   14.41    0.73
  -3  -4  -4   15.23    0.87
   3  -4   4   15.71    0.86
  -3  -4  -4   14.59    0.80
  -3   4  -4   14.24    0.77
   3   4   4   15.00    0.80
   3   4   4   14.41    0.78
  -4  -4  -4    1.62    0.51
   4  -4   4    2.12    0.47
  -4  -4  -4    1.92    0.49
  -4   4  -4    2.56    0.51
   4   4   4    2.10    0.43
   4   4   4    2.21    0.45
  -5  -4  -4    2.12    0.62
   5  -4   4    2.86    0.56
  -5   4  -4    2.50    0.54
   5   4   4    2.59    0.53
   5   4   4    2.31    0.49
   6  -4   4    4.85    0.72
  -6   4  -4    3.13    0.67
   6   4   4    4.03    0.67
   6   4   4    3.44    0.63
   7  -4   4    1.49    0.70
  -7   4  -4    0.91    0.67
   7   4   4    0.48    0.58
   7   4   4    1.24    0.61
  -7  -5   4   15.37    1.33
   7  -5  -4   14.73    1.31
   7   5  -4   17.46    1.20
  -6  -5   4    7.45    0.96
   6  -5  -4    9.22    0.95
  -6   5   4    9.72    0.90
   6   5  -4    9.40    0.86
  -5  -5   4    0.39    0.47
   5  -5  -4    1.57    0.52
  -5   5   4    0.49    0.42
   4  -5  -4    8.34    0.75
   4  -5  -4    8.95    0.76
  -4  -5   4    7.79    0.81
  -4  -5   4    8.44    0.73
   4   5  -4    8.67    0.64
  -3  -5   4   29.47    1.29
   3  -5  -4   31.91    1.27
  -3  -5   4   30.25    1.16
   3  -5  -4   33.67    1.15
  -3   5   4   31.82    1.06
   3   5  -4   32.16    1.08
   2  -5  -4   44.67    1.51
  -2  -5   4   40.49    1.29
  -2  -5   4   42.71    1.48
   2   5  -4   46.38    1.33
  -2   5   4   43.14    1.28
   1  -5  -4   23.65    1.06
  -1  -5   4   25.20    0.87
  -1  -5   4   25.11    1.03
   1   5  -4   26.60    0.99
  -1   5   4   27.01    0.96
   0  -5   4    2.99    0.30
   0  -5   4    3.65    0.49
   0  -5  -4    3.49    0.51
   0  -5   4    3.45    0.45
   0  -5  -4    3.63    0.30
   0   5  -4    3.39    0.41
   0   5   4    2.36    0.36
   1  -5   4    1.37    0.37
  -1  -5  -4    0.31    0.33
  -1  -5  -4    1.09    0.31
   1  -5   4    0.32    0.26
  -1   5  -4    1.26    0.34
   1   5   4    1.11    0.33
  -2  -5  -4   22.07    0.91
  -2  -5  -4   23.73    1.10
   2  -5   4   22.41    1.06
   2   5   4   24.19    1.03
  -2   5  -4   23.58    0.97
  -3  -5  -4    7.59    0.68
   3  -5   4    7.78    0.71
  -3  -5  -4    7.15    0.74
  -3   5  -4    7.82    0.65
   3   5   4    7.12    0.64
  -4  -5  -4    3.44    0.68
  -4  -5  -4    2.97    0.62
   4  -5   4    3.14    0.56
   4   5   4    3.75    0.53
  -4   5  -4    4.41    0.61
   5  -5   4    5.25    0.71
  -5  -5  -4    4.28    0.81
  -5   5  -4    5.34    0.74
   5   5   4    4.14    0.62
   6  -5   4   22.93    1.33
   6   5   4   17.92    1.13
  -6  -6   4    2.69    0.81
  -5  -6   4    6.10    0.83
  -5  -6   4    5.48    0.85
  -4  -6   4   18.06    1.15
  -4  -6   4   17.92    1.00
   4  -6  -4   19.16    1.08
   4   6  -4   22.80    1.04
   3  -6  -4    8.94    0.82
  -3  -6   4    8.45    0.85
  -3  -6   4    7.83    0.68
  -3   6   4    8.79    0.64
   3   6  -4    8.74    0.65
  -2  -6   4    0.22    0.32
   2  -6  -4    1.10    0.43
  -2  -6   4    0.55    0.37
  -2   6   4    0.32    0.30
   2   6  -4    0.26    0.34
   1  -6  -4   38.39    1.50
  -1  -6   4   40.12    1.16
  -1  -6   4   39.26    1.43
   1   6  -4   40.49    1.34
  -1   6   4   41.54    1.34
   0  -6  -4   22.23    1.15
   0  -6   4   22.11    1.02
   0   6   4   24.03    1.04
   0   6  -4   24.44    1.02
  -1  -6  -4   19.21    0.76
   1  -6   4   19.03    1.05
   1  -6   4   19.65    0.94
  -1  -6  -4   19.61    1.08
   1   6   4   21.53    1.02
   2  -6   4   15.49    0.97
  -2  -6  -4   16.38    0.80
  -2  -6  -4   16.07    0.99
   2   6   4   16.90    0.94
  -3  -6  -4   40.33    1.43
   3  -6   4   42.65    1.65
  -3  -6  -4   41.83    1.67
   3   6   4   44.63    1.63
  -4  -6  -4   18.76    1.17
   4  -6   4   18.32    1.13
  -4  -6  -4   20.18    1.12
  -4   6  -4   21.42    1.08
   4   6   4   17.77    1.05
  -5  -6  -4    1.62    0.72
   5  -6   4    1.27    0.63
  -5  -6  -4    2.67    0.78
   5   6   4    1.48    0.55
  -5   6  -4    1.35    0.69
   6  -6   4    4.12    0.83
  -6   6  -4    2.42    0.87
   6   6   4    5.23    0.79
  -5  -7   4    2.17    0.84
  -5  -7   4    2.67    0.73
   5  -7  -4    5.05    0.79
  -4  -7   4    1.29    0.63
  -4  -7   4    1.96    0.56
   4  -7  -4    1.28    0.54
   4   7  -4    1.28    0.55
   3  -7  -4    7.23    0.80
  -3  -7   4    7.49    0.74
  -3  -7   4    8.04    0.88
  -3   7   4    8.44    0.71
   3   7  -4    7.79    0.72
  -2  -7   4   22.15    0.97
   2  -7  -4   22.73    1.26
  -2  -7   4   24.92    1.25
  -2   7   4   20.87    1.00
   2   7  -4   20.33    1.01
   1  -7  -4    6.74    0.77
  -1  -7   4    8.13    0.81
  -1  -7   4    7.53    0.51
   1   7  -4    7.11    0.66
  -1   7   4    6.64    0.62
   0  -7  -4   10.85    0.95
   0  -7   4   10.77    0.87
   0   7   4   10.67    0.81
   0   7  -4   10.68    0.74
  -1  -7  -4   21.22    0.79
   1  -7   4   22.49    1.12
  -1  -7  -4   23.78    1.26
   1   7   4   23.43    1.16
  -1   7  -4   23.38    1.11
   2  -7   4   13.25    1.00
  -2  -7  -4   14.09    0.80
  -2  -7  -4   16.08    1.08
   2   7   4   16.75    1.03
  -3  -7  -4    2.63    0.66
   3  -7   4    3.10    0.65
  -3  -7  -4    2.59    0.57
   3   7   4    3.95    0.64
  -4  -7  -4    1.17    0.61
   4  -7   4    0.97    0.60
  -4  -7  -4    0.82    0.64
   4   7   4    1.09    0.50
  -5  -7  -4    7.35    1.07
  -5  -7  -4   10.37    1.08
   5  -7   4   10.36    1.13
   5   7   4    9.36    0.94
   4  -8  -4    4.55    0.85
  -4  -8   4    5.40    0.77
  -4  -8   4    3.61    0.83
   4   8  -4    7.03    0.88
   3  -8  -4    4.28    0.75
  -3  -8   4    3.60    0.78
  -3  -8   4    4.67    0.63
  -3   8   4    5.77    0.71
   3   8  -4    5.67    0.71
  -2  -8   4    0.32    0.62
  -2  -8   4    0.99    0.41
   2  -8  -4    1.13    0.59
   2   8  -4    1.99    0.52
  -2   8   4    0.57    0.47
   1  -8  -4   11.55    1.06
  -1  -8   4   11.78    1.01
   1   8  -4   11.16    0.91
  -1   8   4   10.77    0.86
   0  -8  -4    4.80    0.77
   0  -8   4    4.76    0.71
   0   8   4    4.97    0.67
   0   8  -4    5.36    0.68
  -1  -8  -4    4.85    0.82
  -1   8  -4    5.81    0.68
   1   8   4    6.05    0.77
  -2  -8  -4    6.96    0.62
  -2  -8  -4    8.66    1.00
   2   8   4   10.28    0.96
  -2   8  -4    8.27    0.84
   3  -8   4    7.10    0.96
  -3  -8  -4    8.04    0.79
  -3  -8  -4    7.89    1.04
   3   8   4   11.21    1.05
  -2  -9   4   19.04    0.87
   2  -9  -4   16.55    1.31
  -2  -9   4   17.24    1.30
  -2   9   4   20.46    1.27
   2   9  -4   21.32    1.27
  -1  -9   4    1.12    0.62
   1  -9  -4    0.59    0.64
   1   9  -4    0.50    0.58
  -1   9   4    1.60    0.58
   0  -9  -4    1.88    0.71
   0   9   4   -0.10    0.49
   0   9  -4    1.35    0.57
   8   0  -5    7.48    1.01
  -8   0   5    6.46    0.90
   7   0  -5   33.63    1.56
  -7   0   5   34.30    1.43
   6   0  -5    0.92    0.46
  -6   0   5    0.73    0.39
   6   0  -5    0.34    0.21
   5   0  -5    5.81    0.64
   5   0  -5    6.40    0.38
  -5   0   5    6.84    0.61
   4   0  -5   94.50    2.36
  -4   0   5   95.31    2.29
   4   0  -5   92.73    1.93
   3   0  -5    4.03    0.30
  -3   0   5    2.99    0.32
   3   0  -5    3.98    0.43
   3   0  -5    3.67    0.30
  -3   0   5    3.80    0.38
   2   0  -5    0.07    0.19
   2   0  -5   -0.11    0.15
  -2   0   5   -0.12    0.14
  -2   0   5   -0.06    0.15
  -1   0   5    5.37    0.26
  -1   0   5    5.81    0.35
   1   0  -5    6.19    0.41
   1   0  -5    5.71    0.37
  -1   0   5    5.44    0.36
   0   0   5    8.57    0.36
   0   0   5    8.17    0.41
   0   0   5    8.49    0.38
   0   0  -5    8.63    0.43
   0   0  -5    7.62    0.45
  -1   0  -5   42.17    1.15
  -1   0  -5   43.55    0.94
   1   0   5   43.86    1.08
  -1   0  -5   43.51    1.11
   1   0   5   44.05    1.12
  -2   0  -5   19.76    0.74
   2   0   5   18.83    0.73
   2   0   5   19.37    0.66
  -2   0  -5   20.33    0.74
   3   0   5    0.55    0.24
  -3   0  -5    0.66    0.30
   3   0   5    0.76    0.21
  -4   0  -5    5.79    0.54
   4   0   5    5.69    0.43
   4   0   5    6.47    0.54
   5   0   5   27.98    0.92
  -5   0  -5   28.79    1.18
   5   0   5   27.17    1.13
  -6   0  -5   17.90    1.04
   6   0   5   16.33    0.70
   6   0   5   14.55    0.91
   7   0   5    0.05    0.28
   7   0   5   -0.07    0.47
  -7   0  -5    0.48    0.59
   8  -1  -5    1.18    0.77
  -8  -1   5    0.50    0.60
  -8   1   5    0.91    0.61
   8   1  -5    1.63    0.75
  -7  -1   5   12.02    0.91
   7  -1  -5   12.86    1.10
   7   1  -5   11.81    0.61
  -7   1   5   12.03    0.86
   7   1  -5   12.00    1.08
   6  -1  -5   25.09    1.25
  -6  -1   5   25.67    1.14
  -6   1   5   27.40    1.16
   6   1  -5   29.17    1.31
   6   1  -5   27.65    0.94
  -5  -1   5    7.83    0.61
   5  -1  -5    9.06    0.72
   5   1  -5    8.43    0.52
   5   1  -5    8.84    0.76
  -5   1   5    8.64    0.63
  -4  -1   5   39.98    1.27
   4  -1  -5   40.07    1.34
   4   1  -5   41.73    1.13
   4   1  -5   40.95    1.35
  -4   1   5   40.02    1.29
   3  -1  -5   58.30    1.59
  -3  -1   5   57.16    1.45
  -3  -1   5   57.53    1.53
   3  -1  -5   58.77    1.18
   3  -1  -5   58.40    1.18
   3   1  -5   58.35    1.39
   3   1  -5   60.71    1.59
  -3   1   5   56.64    1.53
  -2  -1   5   89.24    2.00
   2  -1  -5   90.28    2.06
  -2  -1   5   90.81    1.72
   2  -1  -5   92.17    1.75
  -2  -1   5   89.96    1.93
   2  -1  -5   88.35    1.76
  -2   1   5   97.66    1.73
   2   1  -5   93.58    1.98
  -2   1   5   94.37    2.11
   2   1  -5   91.01    2.14
   1  -1  -5  103.47    2.19
  -1  -1   5  100.71    2.06
   1  -1  -5  103.13    1.99
  -1  -1   5   98.99    1.97
  -1  -1   5  100.96    2.09
   1  -1  -5   96.80    2.15
   1   1  -5  104.23    2.14
  -1   1   5  108.51    2.00
  -1   1   5  104.77    2.08
   1   1  -5  102.00    2.29
   0  -1   5  177.12    3.35
   0  -1  -5  175.43    3.53
   0  -1  -5  176.87    3.34
   0  -1   5  179.20    3.38
   0  -1  -5  178.60    3.49
   0  -1   5  183.91    3.34
   0   1   5  175.27    3.28
   0   1  -5  172.13    3.55
   0   1   5  181.07    3.30
   0   1  -5  173.65    3.30
   1  -1   5   28.75    0.88
  -1  -1  -5   27.79    0.84
  -1  -1  -5   28.40    0.86
   1  -1   5   28.24    0.79
  -1  -1  -5   26.46    0.78
  -1   1  -5   27.57    0.82
   1   1   5   29.76    0.86
  -1   1  -5   27.84    0.89
   1   1   5   27.31    0.80
   2  -1   5    2.21    0.32
  -2  -1  -5    2.45    0.26
   2  -1   5    3.09    0.31
   2  -1   5    2.84    0.27
  -2  -1  -5    2.76    0.32
  -2  -1  -5    2.85    0.35
   2   1   5    2.42    0.27
  -2   1  -5    2.55    0.33
  -2   1  -5    2.93    0.34
   2   1   5    2.55    0.30
  -3  -1  -5   48.24    1.36
  -3  -1  -5   49.90    1.40
  -3  -1  -5   50.00    1.23
   3  -1   5   48.13    1.17
   3  -1   5   49.25    1.43
   3   1   5   45.15    1.22
   3   1   5   47.15    1.35
  -3   1  -5   46.51    1.36
  -4  -1  -5    5.70    0.56
   4  -1   5    4.95    0.37
   4  -1   5    5.40    0.52
   4   1   5    5.70    0.45
  -4   1  -5    4.80    0.55
   4   1   5    5.28    0.51
   5  -1   5    7.16    0.41
   5  -1   5    8.22    0.70
  -5  -1  -5    7.84    0.70
   5   1   5    8.49    0.70
   5   1   5    7.84    0.57
  -5   1  -5    7.46    0.73
  -6  -1  -5   10.51    0.85
   6  -1   5   10.62    0.81
   6   1   5   11.98    0.83
  -6   1  -5   12.80    0.94
   6   1   5   11.16    0.67
  -7  -1  -5    2.21    0.67
   7  -1   5    3.25    0.64
   7   1   5    4.39    0.69
   7   1   5    4.22    0.51
  -7   1  -5    5.98    0.83
   8  -2  -5    1.18    0.82
  -8  -2   5    2.14    0.68
   8   2  -5    2.04    0.78
   8   2  -5    1.79    0.48
  -7  -2   5    3.30    0.67
   7  -2  -5    4.26    0.71
  -7   2   5    5.30    0.69
   7   2  -5    4.41    0.79
   7   2  -5    4.64    0.53
   6  -2  -5    4.36    0.71
  -6  -2   5    3.16    0.55
  -6   2   5    4.36    0.59
   6   2  -5    4.44    0.64
   6   2  -5    5.32    0.53
  -5  -2   5   15.68    0.85
   5  -2  -5   14.78    0.89
  -5   2   5   14.44    0.81
   5   2  -5   15.72    0.91
   5   2  -5   15.24    0.74
   4  -2  -5   21.43    0.97
  -4  -2   5   20.59    0.91
   4   2  -5   21.81    0.84
  -4   2   5   21.48    0.93
   4   2  -5   22.09    0.96
   3  -2  -5   77.40    1.93
  -3  -2   5   74.07    1.83
  -3  -2   5   77.22    1.93
  -3   2   5   82.39    1.57
   3   2  -5   78.84    1.85
   3   2  -5   77.25    1.98
  -3   2   5   78.75    1.98
   3   2  -5   81.11    1.59
  -2  -2   5   27.90    0.90
   2  -2  -5   26.56    0.90
   2  -2  -5   27.26    0.95
  -2  -2   5   27.81    0.91
  -2   2   5   28.12    0.71
   2   2  -5   27.77    0.94
   2   2  -5   29.51    0.90
   2   2  -5   29.72    0.74
  -1  -2   5   96.68    2.06
   1  -2  -5   98.94    1.91
   1  -2  -5   95.48    2.23
   1  -2  -5   98.61    2.12
  -1  -2   5   96.60    2.09
  -1  -2   5   97.89    2.07
   1  -2  -5  102.19    1.90
   1   2  -5  100.10    2.08
  -1   2   5   96.45    1.96
   1   2  -5   98.79    2.22
   0  -2   5   88.25    1.85
   0  -2  -5   85.29    1.99
   0  -2  -5   89.20    1.88
   0  -2   5   91.99    1.82
   0  -2  -5   85.41    1.82
   0  -2   5   83.93    1.90
   0   2  -5   88.13    2.03
   0   2   5   89.18    1.85
   0   2   5   88.00    1.88
   0   2  -5   90.31    1.89
   1  -2   5  172.38    3.28
   1  -2   5  183.22    3.27
   1  -2   5  172.35    3.51
  -1  -2  -5  173.27    3.47
  -1  -2  -5  177.23    3.42
  -1  -2  -5  174.96    3.57
  -1   2  -5  168.17    3.49
   1   2   5  171.06    3.29
  -1   2  -5  169.89    3.25
   1   2   5  168.80    3.34
   2  -2   5   11.63    0.45
   2  -2   5   12.95    0.51
  -2  -2  -5   11.90    0.62
   2  -2   5   11.66    0.62
  -2  -2  -5   11.36    0.55
  -2  -2  -5   12.29    0.59
   2   2   5   11.59    0.60
  -2   2  -5   12.59    0.62
   2   2   5   12.09    0.59
  -3  -2  -5   26.50    0.95
  -3  -2  -5   26.40    1.02
  -3  -2  -5   28.63    0.93
   3  -2   5   27.26    1.04
   3  -2   5   28.16    0.72
   3  -2   5   28.38    0.74
   3   2   5   26.21    0.93
  -3   2  -5   26.60    0.99
   3   2   5   26.84    0.97
   4  -2   5   52.35    1.64
  -4  -2  -5   54.35    1.52
   4   2   5   50.79    1.43
  -4   2  -5   49.29    1.58
   4   2   5   50.44    1.53
  -5  -2  -5   10.41    0.76
   5  -2   5   11.26    0.77
   5   2   5    9.59    0.71
  -5   2  -5    9.13    0.75
   5   2   5    9.86    0.65
  -6  -2  -5    0.03    0.51
   6  -2   5   -0.05    0.43
  -6   2  -5    0.36    0.49
   6   2   5    0.52    0.44
   6   2   5    0.18    0.33
   7  -2   5    4.15    0.78
  -7  -2  -5    5.08    0.81
   7   2   5    4.36    0.56
  -7   2  -5    4.52    0.83
   7   2   5    5.09    0.77
   8  -3  -5    3.06    0.91
  -8  -3   5    5.08    0.86
   8   3  -5    5.71    0.66
   7  -3  -5   10.94    1.07
  -7  -3   5   10.00    1.00
   7   3  -5   12.05    1.11
   7   3  -5   11.01    0.83
  -7   3   5   10.10    0.93
  -6  -3   5    6.22    0.74
   6  -3  -5    6.80    0.79
   6   3  -5    8.07    0.67
  -6   3   5    6.91    0.71
   6   3  -5    7.25    0.77
  -5  -3   5    5.35    0.63
   5  -3  -5    4.97    0.67
   5   3  -5    6.73    0.69
  -5   3   5    5.30    0.57
   5   3  -5    5.90    0.59
  -4  -3   5    5.83    0.58
   4  -3  -5    7.37    0.61
  -4  -3   5    6.03    0.58
   4   3  -5    6.55    0.57
   4   3  -5    6.28    0.60
  -4   3   5    7.20    0.61
  -3  -3   5    2.40    0.40
  -3  -3   5    1.90    0.36
   3  -3  -5    1.85    0.39
   3  -3  -5    2.29    0.38
   3   3  -5    1.95    0.36
  -3   3   5    1.99    0.24
   3   3  -5    2.00    0.25
   3   3  -5    2.50    0.37
   2  -3  -5   22.66    0.90
  -2  -3   5   20.18    0.79
  -2  -3   5   20.67    0.83
   2  -3  -5   20.32    0.78
   2   3  -5   23.45    0.74
   2   3  -5   23.55    0.86
   2   3  -5   23.91    0.88
  -2   3   5   23.79    0.72
   1  -3  -5   41.21    1.09
   1  -3  -5   40.25    1.26
  -1  -3   5   43.78    1.20
  -1  -3   5   40.46    1.16
   1  -3  -5   41.92    0.92
   1  -3  -5   41.38    0.90
  -1  -3   5   40.88    1.13
  -1   3   5   43.69    1.13
   1   3  -5   44.47    1.25
   1   3  -5   43.09    1.20
   0  -3  -5    6.75    0.39
   0  -3   5    6.42    0.39
   0  -3  -5    6.25    0.39
   0  -3  -5    5.68    0.35
   0  -3   5    5.99    0.44
   0  -3   5    6.30    0.39
   0  -3  -5    6.02    0.51
   0   3  -5    6.77    0.47
   0   3   5    5.94    0.40
   0   3  -5    6.01    0.47
   0   3   5    5.31    0.40
   1  -3   5    7.13    0.39
   1  -3   5    7.10    0.51
   1  -3   5    7.00    0.40
   1  -3   5    7.75    0.37
  -1  -3  -5    7.23    0.53
  -1  -3  -5    6.59    0.47
  -1  -3  -5    6.27    0.39
  -1   3  -5    7.62    0.52
   1   3   5    5.97    0.44
   1   3   5    6.53    0.48
  -2  -3  -5   21.17    0.86
   2  -3   5   21.56    0.91
  -2  -3  -5   21.98    0.90
  -2  -3  -5   21.95    0.70
   2   3   5   21.20    0.84
  -2   3  -5   21.57    0.86
   2   3   5   22.14    0.85
   3  -3   5   27.29    1.09
  -3  -3  -5   26.30    1.05
  -3  -3  -5   26.53    1.05
  -3  -3  -5   29.07    0.91
   3   3   5   28.38    1.03
  -3   3  -5   27.12    1.06
   3   3   5   27.95    1.06
   4  -3   5   77.55    2.19
  -4  -3  -5   81.08    1.95
  -4  -3  -5   75.77    2.12
   4   3   5   75.09    1.98
  -4   3  -5   75.54    2.10
   4   3   5   75.44    2.07
   5  -3   5   10.72    0.84
  -5   3  -5    7.64    0.77
   5   3   5    7.49    0.66
   5   3   5    7.90    0.70
   6  -3   5    6.04    0.75
   6   3   5    7.52    0.72
   6   3   5    7.24    0.74
  -6   3  -5    6.48    0.80
   7  -3   5   17.09    1.22
  -7   3  -5   18.95    1.25
   7   3   5   16.88    0.97
   7   3   5   17.09    1.17
   7  -4  -5   32.64    1.62
  -7  -4   5   28.96    1.53
   7   4  -5   33.78    1.43
   6  -4  -5   12.49    1.04
  -6  -4   5   10.78    0.99
   6   4  -5   11.50    0.82
  -6   4   5   11.27    0.86
   5  -4  -5    2.07    0.53
  -5  -4   5    1.63    0.49
  -5   4   5    2.59    0.49
   5   4  -5    2.52    0.51
   4  -4  -5   16.55    0.89
  -4  -4   5   16.44    0.93
  -4  -4   5   14.54    0.86
   4   4  -5   16.76    0.90
   4   4  -5   17.39    0.87
  -3  -4   5   31.99    1.23
  -3  -4   5   31.14    1.13
   3  -4  -5   30.74    1.09
   3  -4  -5   29.92    1.19
   3   4  -5   31.04    0.98
   3   4  -5   32.10    1.12
   3   4  -5   30.97    1.14
  -3   4   5   32.35    0.97
  -2  -4   5   30.43    1.15
  -2  -4   5   32.08    1.07
   2  -4  -5   33.46    1.02
   2  -4  -5   32.39    1.19
   2   4  -5   34.32    1.09
  -2   4   5   32.86    0.99
   2   4  -5   33.61    1.01
  -1  -4   5   22.24    0.89
   1  -4  -5   22.74    0.97
  -1  -4   5   22.35    0.91
   1  -4  -5   22.95    0.72
  -1  -4   5   21.59    0.80
   1   4  -5   24.53    0.91
  -1   4   5   26.68    0.90
   0  -4  -5   64.18    1.87
   0  -4   5   68.65    1.71
   0  -4  -5   67.60    1.51
   0  -4   5   70.70    1.56
   0  -4   5   68.10    1.82
   0   4   5   71.64    1.79
   0   4  -5   72.85    1.82
   1  -4   5   54.11    1.62
  -1  -4  -5   53.84    1.65
   1  -4   5   56.30    1.20
  -1  -4  -5   54.61    1.43
   1  -4   5   56.14    1.42
   1  -4   5   53.79    1.20
   1   4   5   52.17    1.49
  -1   4  -5   52.87    1.47
  -2  -4  -5    9.00    0.66
   2  -4   5    8.72    0.63
  -2  -4  -5    8.16    0.61
   2   4   5    7.96    0.58
  -2   4  -5    9.10    0.63
  -3  -4  -5    0.54    0.37
   3  -4   5    1.04    0.37
  -3  -4  -5    1.26    0.39
   3   4   5    0.74    0.30
  -3   4  -5    0.43    0.34
  -4  -4  -5   34.76    1.40
  -4  -4  -5   34.73    1.38
   4  -4   5   33.17    1.38
   4   4   5   32.89    1.27
   4   4   5   31.04    1.26
  -4   4  -5   30.25    1.24
   5  -4   5    5.79    0.70
  -5   4  -5    5.05    0.67
   5   4   5    4.68    0.60
   5   4   5    4.28    0.63
   6  -4   5   18.41    1.20
   6   4   5   18.98    1.10
  -6   4  -5   18.38    1.15
   6   4   5   18.25    1.12
   7  -4   5    7.56    0.96
   7   4   5    8.46    0.91
   7   4   5    8.67    0.96
  -7  -5   5    8.13    1.06
   7  -5  -5    6.98    1.01
   7   5  -5   10.08    0.97
   6  -5  -5   31.35    1.47
  -6  -5   5   27.02    1.49
  -6   5   5   27.72    1.35
   6   5  -5   28.45    1.35
   5  -5  -5    5.76    0.74
  -5  -5   5    6.26    0.80
  -5   5   5    6.58    0.72
   4  -5  -5    6.90    0.70
  -4  -5   5    7.67    0.71
  -4  -5   5    7.10    0.78
   4  -5  -5    5.72    0.67
   3  -5  -5   32.03    1.28
  -3  -5   5   31.03    1.18
  -3  -5   5   31.38    1.32
  -3   5   5   33.65    1.10
   3   5  -5   34.09    1.13
  -2  -5   5   71.31    2.08
  -2  -5   5   71.78    1.88
   2  -5  -5   72.38    2.12
  -2   5   5   70.25    1.77
   2   5  -5   69.24    1.78
  -1  -5   5   19.43    0.90
   1  -5  -5   17.65    0.94
  -1  -5   5   18.11    0.78
   1   5  -5   19.18    0.82
  -1   5   5   18.93    0.83
   1   5  -5   19.64    0.83
   0  -5   5    1.20    0.25
   0  -5   5    1.08    0.39
   0  -5  -5    1.47    0.25
   0  -5  -5    0.46    0.36
   0  -5   5    0.40    0.28
   0   5   5    0.95    0.32
   0   5  -5    0.54    0.34
  -1  -5  -5   80.08    1.89
  -1  -5  -5   81.36    2.31
   1  -5   5   82.78    2.00
   1  -5   5   76.07    2.17
   1   5   5   85.41    2.24
  -1   5  -5   87.06    2.17
  -2  -5  -5    9.55    0.81
   2  -5   5   10.09    0.77
  -2  -5  -5    8.08    0.61
   2   5   5   10.90    0.75
  -2   5  -5   10.09    0.71
  -3  -5  -5   23.56    1.17
   3  -5   5   24.44    1.18
  -3  -5  -5   25.98    1.11
   3   5   5   22.25    1.08
  -3   5  -5   25.95    1.07
  -4  -5  -5    3.04    0.63
   4  -5   5    2.29    0.56
  -4  -5  -5    1.78    0.55
   4   5   5    2.09    0.51
  -4   5  -5    3.15    0.57
   5  -5   5    5.92    0.78
  -5   5  -5    4.50    0.75
   5   5   5    6.69    0.75
   6  -5   5    4.61    0.84
   6   5   5    3.98    0.72
  -6   5  -5    4.04    0.85
  -6  -6   5    1.18    0.70
  -6   6   5    0.33    0.62
  -5  -6   5    4.39    0.71
  -5  -6   5    4.39    0.79
  -5   6   5    4.68    0.71
   4  -6  -5   13.33    0.94
  -4  -6   5   13.89    1.02
  -4  -6   5   14.04    0.95
   3  -6  -5    6.80    0.73
  -3  -6   5    4.73    0.69
  -3  -6   5    5.45    0.64
   3   6  -5    4.65    0.55
  -3   6   5    6.16    0.57
  -2  -6   5   13.27    0.90
  -2  -6   5   14.23    0.76
   2  -6  -5   14.75    0.94
  -2   6   5   12.78    0.74
   2   6  -5   12.76    0.74
  -1  -6   5    1.76    0.43
   1  -6  -5    1.85    0.49
  -1  -6   5    1.64    0.33
  -1   6   5    1.97    0.38
   1   6  -5    1.74    0.38
   0  -6   5    1.08    0.27
   0  -6   5    1.23    0.43
   0  -6  -5    1.41    0.44
   0  -6   5    1.24    0.43
   0   6   5    1.74    0.40
  -1  -6  -5   17.91    0.76
  -1  -6  -5   17.57    1.05
   1  -6   5   17.64    1.01
   1   6   5   18.65    0.96
  -2  -6  -5    4.03    0.66
  -2  -6  -5    3.60    0.51
   2  -6   5    3.49    0.58
   2   6   5    5.50    0.61
   3  -6   5    1.39    0.50
  -3  -6  -5    0.86    0.50
  -3  -6  -5    1.02    0.46
   3   6   5    1.86    0.48
  -3   6  -5    1.59    0.56
   4  -6   5    1.07    0.53
  -4  -6  -5    0.37    0.54
  -4  -6  -5    1.48    0.63
   4   6   5    2.04    0.55
  -4   6  -5    2.56    0.63
   5  -6   5    4.88    0.81
  -5  -6  -5    4.83    0.87
  -5  -6  -5    4.36    0.86
  -5   6  -5    4.85    0.84
   5   6   5    5.70    0.81
   5  -7  -5    4.78    0.79
  -5  -7   5    3.51    0.78
  -5  -7   5    4.29    0.87
   4  -7  -5    2.26    0.61
  -4  -7   5    2.55    0.62
  -4  -7   5    1.86    0.67
  -3  -7   5    0.07    0.40
  -3  -7   5   -0.38    0.45
   3  -7  -5    0.03    0.48
  -3   7   5    0.68    0.41
   3   7  -5    0.21    0.40
  -2  -7   5   26.90    1.07
  -2  -7   5   25.33    1.30
   2  -7  -5   26.71    1.40
   2   7  -5   27.38    1.20
  -2   7   5   27.80    1.16
   1  -7  -5   16.94    1.09
  -1  -7   5   16.78    0.74
  -1  -7   5   15.51    0.98
   1   7  -5   17.26    0.93
  -1   7   5   15.66    0.94
   0  -7  -5    8.88    0.92
   0  -7   5    9.28    0.81
   0   7   5    7.58    0.73
   0   7  -5    8.60    0.71
  -1  -7  -5    1.81    0.38
  -1  -7  -5    1.86    0.58
   1  -7   5    1.50    0.51
   1   7   5    1.00    0.46
  -2  -7  -5    2.53    0.69
   2  -7   5    3.41    0.62
  -2  -7  -5    4.39    0.53
   2   7   5    3.78    0.64
  -3  -7  -5    8.96    0.98
  -3  -7  -5   10.77    0.81
   3  -7   5    9.33    0.95
   3   7   5    9.35    0.88
  -4  -7  -5    1.21    0.71
   4  -7   5    1.61    0.66
  -4  -7  -5    1.64    0.67
   4   7   5    1.67    0.58
  -5  -7  -5    2.78    0.86
  -5  -7  -5    2.79    0.96
  -4  -8   5   17.12    1.33
  -4  -8   5   20.24    1.20
   4  -8  -5   20.75    1.37
   3  -8  -5   13.13    1.22
  -3  -8   5   11.80    1.14
  -3  -8   5   10.36    0.87
   3   8  -5   12.87    0.96
  -3   8   5   12.26    0.93
  -2  -8   5    3.68    0.52
  -2  -8   5    4.65    0.78
   2  -8  -5    2.39    0.68
  -2   8   5    3.34    0.61
   2   8  -5    2.75    0.61
   1  -8  -5    9.78    0.99
  -1  -8   5   10.22    0.95
  -1   8   5    9.64    0.88
   1   8  -5    9.87    0.86
   0  -8  -5    9.55    1.00
   0   8  -5    8.62    0.80
   0   8   5    8.23    0.84
  -1  -8  -5    4.47    0.78
   1   8   5    4.82    0.73
  -1   8  -5    3.49    0.60
  -2  -8  -5    2.23    0.71
  -2  -8  -5    1.01    0.43
   2   8   5    1.47    0.58
  -3  -8  -5    3.40    0.82
  -3  -8  -5    4.50    0.67
   3  -8   5    3.02    0.78
   3   8   5    5.63    0.86
  -2  -9   5    8.61    1.11
  -2   9   5    7.69    0.89
   2   9  -5    7.08    0.91
  -1  -9   5    0.44    0.68
  -1   9   5    1.28    0.59
   1   9  -5    0.24    0.57
  -8   0   6   -0.07    0.64
   8   0  -6    0.19    0.65
  -7   0   6    9.41    0.88
   7   0  -6    9.81    0.99
   6   0  -6   -0.12    0.20
  -6   0   6   -0.46    0.33
   6   0  -6   -0.52    0.41
   5   0  -6    8.39    0.73
  -5   0   6    7.63    0.65
   5   0  -6    7.99    0.44
  -4   0   6   13.72    0.72
   4   0  -6   12.59    0.75
   4   0  -6   13.99    0.54
  -3   0   6    5.70    0.44
   3   0  -6    5.15    0.37
  -3   0   6    5.73    0.44
   3   0  -6    5.24    0.49
   3   0  -6    6.25    0.39
   2   0  -6   12.86    0.64
  -2   0   6   13.08    0.59
  -2   0   6   13.87    0.59
   2   0  -6   12.85    0.53
   1   0  -6   57.39    1.34
  -1   0   6   58.62    1.23
   1   0  -6   55.36    1.45
  -1   0   6   55.90    1.37
  -1   0   6   57.24    1.35
   0   0   6    1.45    0.20
   0   0   6    1.10    0.20
   0   0  -6    1.26    0.28
   0   0  -6    1.30    0.23
   0   0   6    1.30    0.22
   1   0   6   50.88    1.27
  -1   0  -6   52.06    1.38
   1   0   6   53.60    1.12
   1   0   6   51.44    1.33
  -1   0  -6   52.13    1.32
   2   0   6   46.66    1.31
   2   0   6   45.07    1.20
  -2   0  -6   45.81    1.32
  -2   0  -6   47.50    1.30
   3   0   6    5.08    0.48
  -3   0  -6    5.35    0.49
   3   0   6    5.56    0.43
   4   0   6    2.19    0.34
   4   0   6    2.57    0.43
  -4   0  -6    2.36    0.43
  -5   0  -6   19.32    1.03
   5   0   6   18.42    0.98
   5   0   6   18.10    0.76
  -6   0  -6    1.33    0.57
   6   0   6    1.03    0.45
   6   0   6    1.94    0.35
   7   0   6   -0.30    0.30
   7   0   6   -0.18    0.51
  -7   0  -6    0.07    0.62
  -8  -1   6   15.51    1.13
   8  -1  -6   16.55    1.30
  -8   1   6   14.69    1.11
   8   1  -6   17.37    1.39
   7  -1  -6    0.69    0.60
  -7  -1   6    0.86    0.50
   7   1  -6    1.34    0.59
  -7   1   6    1.76    0.52
   7   1  -6    0.92    0.33
  -6  -1   6    8.92    0.78
   6  -1  -6    9.62    0.87
   6   1  -6    8.71    0.54
  -6   1   6    8.30    0.75
   6   1  -6    8.93    0.84
  -5  -1   6   31.58    1.22
   5  -1  -6   32.14    1.32
  -5   1   6   30.45    1.21
   5   1  -6   31.23    1.28
   5   1  -6   34.64    1.04
   4  -1  -6   38.67    1.35
  -4  -1   6   37.97    1.26
   4  -1  -6   40.04    0.89
  -4   1   6   39.58    1.31
   4   1  -6   39.85    1.35
   4   1  -6   39.41    1.14
   3  -1  -6   11.89    0.43
  -3  -1   6   11.10    0.61
   3  -1  -6   11.53    0.65
  -3  -1   6   10.60    0.59
   3  -1  -6   11.61    0.44
   3   1  -6   11.15    0.54
   3   1  -6   10.73    0.63
  -3   1   6   10.79    0.60
  -2  -1   6   73.44    1.45
   2  -1  -6   68.17    1.76
   2  -1  -6   75.93    1.52
  -2  -1   6   71.61    1.72
   2  -1  -6   71.99    1.52
  -2  -1   6   73.95    1.69
   2   1  -6   74.89    1.73
   2   1  -6   77.77    1.91
  -2   1   6   79.76    1.49
  -2   1   6   78.57    1.70
  -2   1   6   76.40    1.86
  -1  -1   6   93.02    1.96
  -1  -1   6   86.69    1.82
  -1  -1   6   91.81    1.93
   1  -1  -6   89.44    2.04
   1  -1  -6   87.98    2.02
   1  -1  -6   87.96    1.86
  -1   1   6   97.40    2.00
  -1   1   6   96.01    1.90
   1   1  -6   95.27    2.20
   1   1  -6   93.40    2.03
   0  -1  -6   81.11    1.79
   0  -1  -6   77.51    1.74
   0  -1   6   81.39    1.65
   0  -1   6   79.21    1.74
   0  -1  -6   81.23    1.85
   0  -1   6   78.63    1.75
   0   1  -6   81.95    1.81
   0   1   6   84.01    1.80
   0   1  -6   83.64    1.98
   0   1   6   82.75    1.78
  -1  -1  -6   24.46    0.85
  -1  -1  -6   24.66    0.77
  -1  -1  -6   25.11    0.85
   1  -1   6   25.02    0.77
   1  -1   6   23.68    0.85
   1  -1   6   25.04    0.57
  -1   1  -6   27.39    0.87
   1   1   6   27.15    0.84
   1   1   6   24.95    0.85
  -1   1  -6   25.64    0.91
  -2  -1  -6    6.04    0.38
   2  -1   6    6.94    0.49
  -2  -1  -6    7.56    0.50
  -2  -1  -6    6.37    0.50
   2  -1   6    7.36    0.41
   2   1   6    7.36    0.48
  -2   1  -6    7.00    0.52
  -2   1  -6    7.91    0.55
   2   1   6    7.43    0.50
   3  -1   6   29.66    0.89
  -3  -1  -6   29.45    1.02
   3  -1   6   29.40    1.08
  -3  -1  -6   29.86    1.07
   3   1   6   29.66    1.05
  -3   1  -6   27.69    1.04
   3   1   6   29.83    0.98
  -4  -1  -6   36.68    1.28
   4  -1   6   38.50    1.34
   4  -1   6   35.93    1.02
   4   1   6   37.24    1.30
   4   1   6   36.30    1.17
  -4   1  -6   37.81    1.32
   5  -1   6    4.03    0.36
  -5  -1  -6    2.96    0.56
   5  -1   6    3.56    0.55
  -5   1  -6    3.79    0.62
   5   1   6    3.93    0.53
   5   1   6    3.51    0.44
  -6  -1  -6    4.90    0.72
   6  -1   6    7.22    0.73
   6   1   6    6.31    0.60
   6   1   6    5.99    0.70
  -6   1  -6    6.82    0.79
   7  -1   6    2.81    0.65
  -7  -1  -6    3.48    0.78
   7   1   6    3.41    0.65
   7   1   6    3.04    0.50
  -7   1  -6    3.20    0.77
   8  -2  -6    1.54    0.77
  -8  -2   6    1.02    0.66
   8   2  -6    0.27    0.77
  -8   2   6   -0.12    0.56
   8   2  -6    1.44    0.43
  -7  -2   6   21.06    1.18
   7  -2  -6   20.97    1.28
  -7   2   6   21.95    1.17
   7   2  -6   20.87    0.95
   7   2  -6   22.45    1.29
   6  -2  -6   30.30    1.37
  -6  -2   6   28.38    1.27
   6   2  -6   30.12    1.34
  -6   2   6   29.10    1.26
   6   2  -6   28.95    1.07
  -5  -2   6   41.99    1.49
   5  -2  -6   39.11    1.48
   5   2  -6   40.27    1.28
  -5   2   6   41.72    1.46
   5   2  -6   41.84    1.49
   4  -2  -6   42.69    1.43
  -4  -2   6   43.41    1.41
  -4   2   6   44.37    1.46
   4   2  -6   47.27    1.49
   3  -2  -6   39.95    1.29
  -3  -2   6   39.12    1.25
  -3  -2   6   41.15    1.24
   3   2  -6   38.95    1.16
   3   2  -6   39.98    0.91
   3   2  -6   38.74    1.27
  -3   2   6   42.00    1.30
   2  -2  -6   42.75    0.91
  -2  -2   6   39.40    1.14
   2  -2  -6   38.82    1.24
  -2  -2   6   36.83    1.15
   2  -2  -6   41.85    1.20
  -2  -2   6   41.51    1.04
   2  -2  -6   41.25    0.90
  -2   2   6   41.46    0.96
   2   2  -6   41.59    1.17
   2   2  -6   40.84    1.23
  -1  -2   6   35.75    0.99
   1  -2  -6   33.41    0.89
  -1  -2   6   33.13    1.00
   1  -2  -6   36.11    1.11
   1  -2  -6   34.62    1.02
   1  -2  -6   34.23    0.88
   1   2  -6   33.89    1.09
  -1   2   6   34.82    0.91
  -1   2   6   33.65    0.94
   1   2  -6   34.17    1.01
   0  -2  -6  243.08    4.50
   0  -2   6  237.30    4.61
   0  -2   6  247.30    4.52
   0  -2   6  244.38    4.55
   0  -2  -6  243.03    4.80
   0  -2  -6  246.03    4.74
   0   2   6  252.80    4.61
   0   2   6  250.41    4.58
   0   2  -6  244.09    4.60
   0   2  -6  241.80    4.95
  -1  -2  -6   63.62    1.55
   1  -2   6   63.56    1.45
  -1  -2  -6   63.60    1.54
  -1  -2  -6   61.87    1.57
   1  -2   6   60.33    1.29
   1  -2   6   63.51    1.62
  -1   2  -6   66.28    1.69
   1   2   6   62.83    1.55
  -1   2  -6   65.06    1.54
   1   2   6   62.66    1.58
   2  -2   6   30.73    1.07
  -2  -2  -6   29.76    0.99
   2  -2   6   29.14    0.84
  -2  -2  -6   29.58    0.96
  -2  -2  -6   29.70    1.03
   2   2   6   29.43    1.01
  -2   2  -6   29.95    1.06
   2   2   6   29.91    0.98
  -3  -2  -6   30.40    1.13
  -3  -2  -6   30.33    1.03
   3  -2   6   31.42    0.84
  -3  -2  -6   29.84    1.02
   3  -2   6   30.92    1.16
   3   2   6   30.20    1.09
  -3   2  -6   29.24    1.08
   3   2   6   30.26    1.05
   4  -2   6   14.27    0.85
  -4  -2  -6   16.54    0.82
   4   2   6   15.59    0.77
  -4   2  -6   16.67    0.90
   4   2   6   16.79    0.86
  -5  -2  -6    0.79    0.47
   5  -2   6    0.49    0.40
   5   2   6    0.62    0.37
   5   2   6    0.96    0.35
  -5   2  -6    1.61    0.50
   6  -2   6   17.54    1.07
  -6  -2  -6   19.92    1.12
   6   2   6   18.19    1.08
  -6   2  -6   17.64    1.11
   6   2   6   19.11    0.94
   7  -2   6    3.61    0.77
  -7   2  -6    3.90    0.81
   7   2   6    4.04    0.72
   7   2   6    3.51    0.57
  -8  -3   6   11.55    1.20
  -7  -3   6    3.91    0.74
   7  -3  -6    3.25    0.77
   7   3  -6    3.71    0.79
   7   3  -6    4.35    0.61
  -7   3   6    4.08    0.69
   6  -3  -6    3.12    0.66
  -6  -3   6    3.20    0.61
  -6   3   6    3.28    0.57
   6   3  -6    2.47    0.52
   6   3  -6    4.13    0.66
   5  -3  -6   12.78    0.88
  -5  -3   6   12.11    0.81
   5   3  -6   10.71    0.72
   5   3  -6   12.09    0.82
  -5   3   6   11.86    0.78
   4  -3  -6   71.70    2.02
  -4  -3   6   72.97    2.05
  -4  -3   6   72.98    1.99
   4   3  -6   76.38    2.08
  -4   3   6   75.77    2.11
  -3  -3   6   14.15    0.74
   3  -3  -6   14.65    0.73
  -3  -3   6   14.37    0.74
   3  -3  -6   14.44    0.78
   3   3  -6   15.58    0.58
   3   3  -6   15.54    0.78
   3   3  -6   15.95    0.77
  -3   3   6   16.83    0.58
   2  -3  -6    3.38    0.42
  -2  -3   6    4.04    0.43
   2  -3  -6    4.40    0.43
  -2  -3   6    5.26    0.46
   2   3  -6    5.38    0.50
   2   3  -6    5.84    0.51
  -2   3   6    4.99    0.36
   1  -3  -6  105.40    2.05
  -1  -3   6  103.29    2.26
  -1  -3   6  103.96    2.31
  -1  -3   6  102.23    2.30
   1  -3  -6   97.75    2.46
   1  -3  -6  103.71    2.26
   1  -3  -6  109.09    2.03
   1   3  -6  106.10    2.48
   1   3  -6  109.01    2.36
  -1   3   6  105.67    2.25
   0  -3   6    1.23    0.25
   0  -3  -6    1.05    0.25
   0  -3  -6    1.14    0.25
   0  -3   6    1.09    0.28
   0  -3   6    0.51    0.21
   0  -3  -6    1.05    0.30
   0   3   6    0.79    0.23
   0   3  -6    1.11    0.33
   1  -3   6    0.88    0.29
   1  -3   6    0.65    0.18
   1  -3   6    0.57    0.19
  -1  -3  -6    0.52    0.22
  -1  -3  -6    0.11    0.24
  -1  -3  -6    0.49    0.28
  -1   3  -6    0.62    0.29
   1   3   6   -0.17    0.23
   1   3   6    0.64    0.23
   2  -3   6    2.85    0.42
  -2  -3  -6    2.13    0.36
  -2  -3  -6    2.76    0.40
   2  -3   6    2.91    0.27
  -2  -3  -6    3.13    0.43
   2   3   6    2.56    0.36
  -2   3  -6    2.79    0.42
   2   3   6    3.46    0.41
  -3  -3  -6   51.11    1.39
   3  -3   6   51.51    1.64
  -3  -3  -6   48.06    1.51
  -3  -3  -6   51.58    1.57
  -3   3  -6   50.40    1.56
   3   3   6   53.15    1.51
   3   3   6   49.86    1.54
   4  -3   6    0.11    0.33
  -4   3  -6    0.17    0.37
   4   3   6   -0.23    0.29
   4   3   6    0.67    0.36
   5  -3   6    1.82    0.52
   5   3   6    2.30    0.47
   5   3   6    1.52    0.48
  -5   3  -6    1.67    0.54
   6  -3   6    3.55    0.66
  -6   3  -6    4.02    0.70
   6   3   6    3.87    0.61
   6   3   6    4.55    0.66
   7  -3   6    4.31    0.82
   7   3   6    5.52    0.85
   7   3   6    4.84    0.68
  -7  -4   6   24.52    1.42
   7  -4  -6   25.49    1.46
   7   4  -6   24.37    1.24
  -7   4   6   24.75    1.32
   6  -4  -6   10.11    0.96
  -6  -4   6    9.09    0.90
   6   4  -6    9.39    0.81
  -6   4   6   10.81    0.92
  -5  -4   6   13.87    0.92
   5  -4  -6   12.64    0.89
  -5   4   6   12.90    0.88
   5   4  -6   14.50    0.90
   5   4  -6   15.21    0.93
  -4  -4   6   13.93    0.86
  -4  -4   6   13.60    0.84
   4  -4  -6   14.38    0.85
  -4   4   6   15.65    0.85
   4   4  -6   13.66    0.88
   4   4  -6   13.21    0.85
   3  -4  -6    3.24    0.53
  -3  -4   6    4.09    0.50
  -3  -4   6    4.19    0.55
   3  -4  -6    5.09    0.52
   3   4  -6    4.15    0.52
  -3   4   6    4.51    0.39
   3   4  -6    4.04    0.39
   3   4  -6    4.50    0.52
   2  -4  -6   24.60    1.06
  -2  -4   6   24.80    1.01
   2  -4  -6   23.97    0.88
  -2  -4   6   22.58    0.92
  -2   4   6   25.81    0.89
   2   4  -6   26.92    0.99
   2   4  -6   26.76    0.90
  -1  -4   6   73.46    1.80
   1  -4  -6   72.74    1.48
   1  -4  -6   72.76    2.05
  -1  -4   6   74.82    1.92
  -1  -4   6   75.44    1.94
   1  -4  -6   75.10    1.72
   1   4  -6   77.45    1.97
  -1   4   6   78.25    1.88
   0  -4  -6    6.99    0.44
   0  -4   6    6.73    0.49
   0  -4   6    6.63    0.56
   0  -4  -6    7.79    0.61
   0  -4   6    7.10    0.45
   0   4   6    7.12    0.51
   0   4  -6    7.50    0.59
   1  -4   6    4.50    0.34
  -1  -4  -6    4.48    0.45
   1  -4   6    4.26    0.40
   1  -4   6    3.26    0.47
  -1  -4  -6    5.02    0.57
   1   4   6    4.48    0.46
  -1   4  -6    5.11    0.56
  -2  -4  -6   38.39    1.24
  -2  -4  -6   36.96    1.35
   2  -4   6   35.92    1.33
   2   4   6   40.22    1.34
  -2   4  -6   38.70    1.33
  -3  -4  -6    6.20    0.61
   3  -4   6    5.67    0.65
  -3  -4  -6    6.31    0.68
  -3   4  -6    6.21    0.64
   3   4   6    6.51    0.60
   4  -4   6    9.40    0.82
  -4  -4  -6    8.47    0.82
  -4  -4  -6    8.66    0.79
   4   4   6    8.86    0.73
  -4   4  -6    6.90    0.69
   5  -4   6    9.55    0.87
  -5   4  -6    9.70    0.89
   5   4   6   10.42    0.86
   5   4   6   11.23    0.88
   6  -4   6   36.45    1.65
  -6   4  -6   33.81    1.58
   6   4   6   37.51    1.51
   6   4   6   33.87    1.54
  -7  -5   6    8.29    1.10
   7  -5  -6   11.13    1.13
   7   5  -6    9.91    1.04
  -6  -5   6    4.66    0.84
   6  -5  -6   11.14    1.09
   6   5  -6    7.56    0.88
  -6   5   6    7.91    0.86
  -5  -5   6   13.68    1.01
   5  -5  -6   12.74    0.94
  -5   5   6   14.83    0.96
   4  -5  -6   20.25    1.02
   4  -5  -6   19.49    1.07
  -4  -5   6   18.58    1.10
  -4  -5   6   20.70    1.05
   3  -5  -6    5.60    0.62
  -3  -5   6    5.60    0.67
  -3  -5   6    5.08    0.56
  -3   5   6    6.08    0.49
   3   5  -6    6.40    0.53
  -2  -5   6    7.92    0.60
  -2  -5   6    7.26    0.67
   2  -5  -6    9.12    0.77
   2   5  -6    8.17    0.56
  -2   5   6    8.15    0.58
  -1  -5   6   38.17    1.19
   1  -5  -6   38.32    1.46
  -1  -5   6   37.45    1.33
  -1  -5   6   39.63    1.40
  -1   5   6   39.73    1.30
   1   5  -6   43.23    1.34
   0  -5   6   17.38    0.84
   0  -5  -6   18.40    0.98
   0  -5  -6   17.31    0.66
   0  -5   6   19.41    0.97
   0  -5   6   18.61    0.71
   0   5  -6   18.25    0.90
   0   5   6   19.36    0.88
   1  -5   6    1.48    0.41
  -1  -5  -6    1.31    0.36
  -1  -5  -6    1.02    0.46
  -1   5  -6    1.61    0.44
   1   5   6    1.97    0.39
  -2  -5  -6   13.08    0.76
   2  -5   6   11.96    0.83
  -2  -5  -6   12.59    0.87
   2   5   6   11.83    0.76
  -2   5  -6   12.45    0.82
   3  -5   6   31.03    1.36
  -3  -5  -6   30.42    1.36
  -3  -5  -6   30.01    1.22
  -3   5  -6   29.99    1.25
   3   5   6   28.54    1.23
   4  -5   6   15.23    1.04
  -4  -5  -6   15.45    1.06
  -4  -5  -6   14.87    1.02
  -4   5  -6   15.72    0.98
   4   5   6   15.20    0.98
   5  -5   6    0.59    0.54
   5   5   6    0.42    0.47
  -5   5  -6    0.31    0.56
   6  -5   6    5.85    0.88
   6   5   6    5.73    0.80
  -6   5  -6    7.82    0.94
  -6  -6   6    7.58    1.05
  -6   6   6    7.62    0.92
  -5  -6   6    3.93    0.79
  -5  -6   6    4.44    0.75
  -5   6   6    4.27    0.70
   4  -6  -6    0.75    0.47
  -4  -6   6    1.80    0.58
  -4  -6   6    1.89    0.52
  -3  -6   6    8.23    0.84
   3  -6  -6    9.35    0.87
  -3  -6   6    8.14    0.71
  -3   6   6    8.34    0.63
   3   6  -6    6.10    0.61
  -2  -6   6   12.77    0.76
   2  -6  -6   13.66    0.94
  -2  -6   6   12.92    0.88
   2   6  -6   13.79    0.77
  -2   6   6   12.99    0.77
   1  -6  -6    3.75    0.61
  -1  -6   6    5.40    0.50
  -1  -6   6    6.21    0.64
   1   6  -6    4.66    0.53
  -1   6   6    6.12    0.58
   0  -6   6   20.87    1.11
   0  -6  -6   20.12    1.11
   0  -6   6   19.78    0.98
   0  -6   6   21.56    0.73
   0   6   6   21.57    1.03
  -1  -6  -6   29.89    1.02
   1  -6   6   29.84    1.34
  -1  -6  -6   28.64    1.37
   1   6   6   30.78    1.27
   2  -6   6   27.37    1.31
  -2  -6  -6   24.42    1.06
  -2  -6  -6   26.80    1.31
   2   6   6   28.59    1.29
  -3  -6  -6    1.14    0.47
   3  -6   6    0.61    0.48
  -3  -6  -6    0.23    0.48
  -3   6  -6   -0.17    0.51
   3   6   6    0.79    0.42
  -4  -6  -6    0.88    0.66
   4  -6   6    1.15    0.57
  -4  -6  -6    0.87    0.65
   4   6   6    0.97    0.49
  -4   6  -6    0.55    0.59
   5  -6   6    1.84    0.69
  -5  -6  -6    1.28    0.83
   5   6   6    1.60    0.63
  -5   6  -6    1.98    0.77
  -5  -7   6    3.91    0.82
  -5  -7   6    2.30    0.80
   4  -7  -6    2.67    0.67
  -4  -7   6    1.48    0.62
  -4  -7   6    2.26    0.61
  -3  -7   6    6.72    0.85
  -3  -7   6    7.32    0.72
   3  -7  -6    6.64    0.86
   3   7  -6    7.26    0.71
   2  -7  -6   14.45    1.08
  -2  -7   6   15.66    0.85
  -2  -7   6   14.17    0.99
  -2   7   6   16.21    0.96
   2   7  -6   13.97    0.88
   1  -7  -6    9.11    0.91
  -1  -7   6    7.47    0.81
  -1  -7   6    8.30    0.58
  -1   7   6   10.41    0.79
   1   7  -6    7.87    0.71
   0  -7  -6    4.72    0.70
   0   7  -6    4.66    0.60
   0   7   6    5.98    0.68
  -1  -7  -6    1.01    0.54
   1  -7   6    1.12    0.54
  -1  -7  -6    1.41    0.37
   1   7   6    0.83    0.45
   2  -7   6    3.10    0.63
  -2  -7  -6    3.13    0.73
  -2  -7  -6    3.66    0.56
   2   7   6    3.15    0.61
   3  -7   6    3.92    0.74
  -3  -7  -6    3.98    0.78
  -3  -7  -6    5.27    0.67
   3   7   6    4.65    0.74
  -4  -7  -6    9.12    1.13
  -4  -7  -6    6.39    0.86
   4  -7   6    7.20    0.96
   4   7   6    8.13    0.93
   4  -8  -6    8.49    1.04
  -3  -8   6    0.02    0.61
  -3  -8   6    1.35    0.54
   3  -8  -6    1.42    0.68
   3   8  -6    1.39    0.58
  -2  -8   6    5.16    0.60
  -2  -8   6    3.46    0.77
   2  -8  -6    5.99    0.87
   2   8  -6    4.20    0.67
  -2   8   6    6.02    0.76
   1  -8  -6   13.23    1.22
  -1  -8   6   16.12    1.09
  -1   8   6   16.01    1.07
   1   8  -6   15.97    1.01
   0  -8  -6   -0.12    0.54
   0   8   6   -0.52    0.40
   0   8  -6    0.54    0.46
  -1  -8  -6    5.66    0.92
   1   8   6    6.12    0.80
  -1   8  -6    7.20    0.78
  -2  -8  -6   16.85    1.29
  -2  -8  -6   18.33    0.91
   2  -8   6   19.36    1.35
   2   8   6   20.43    1.27
  -3  -8  -6    1.15    0.80
   8   0  -7   -0.69    0.63
  -8   0   7   -0.76    0.56
   7   0  -7   10.46    1.02
  -7   0   7    8.53    0.85
   6   0  -7   36.07    0.99
   6   0  -7   37.88    1.56
  -6   0   7   34.75    1.41
   5   0  -7    2.43    0.32
   5   0  -7    0.52    0.40
  -5   0   7    1.65    0.40
   4   0  -7    2.77    0.48
  -4   0   7    3.39    0.46
   3   0  -7   15.17    0.75
   3   0  -7   15.26    0.61
  -3   0   7   14.48    0.70
   2   0  -7    0.06    0.20
  -2   0   7   -0.06    0.13
  -2   0   7    0.00    0.19
   2   0  -7   -0.31    0.22
  -2   0   7   -0.06    0.20
   1   0  -7    1.39    0.30
  -1   0   7    1.33    0.23
  -1   0   7    1.02    0.25
  -1   0   7    1.27    0.21
   1   0  -7    1.28    0.26
   0   0   7   34.14    0.96
   0   0  -7   32.71    1.01
   0   0   7   34.64    0.92
   0   0   7   35.33    1.01
   0   0  -7   34.87    1.10
   1   0   7   10.43    0.52
   1   0   7   10.18    0.40
  -1   0  -7   10.41    0.62
  -1   0  -7   10.78    0.58
   1   0   7   11.21    0.56
  -2   0  -7   15.85    0.76
  -2   0  -7   16.38    0.79
   2   0   7   16.15    0.68
   2   0   7   14.48    0.71
   3   0   7    0.94    0.29
  -3   0  -7    0.12    0.30
   3   0   7    0.66    0.24
   4   0   7   14.81    0.72
  -4   0  -7   15.05    0.82
   4   0   7   14.52    0.83
   5   0   7   -0.41    0.32
   5   0   7   -0.13    0.27
  -5   0  -7   -0.56    0.41
   6   0   7    3.68    0.64
   6   0   7    4.08    0.47
  -6   0  -7    5.46    0.84
   7   0   7    2.39    0.40
   7   0   7    1.09    0.60
  -7   0  -7    0.15    0.75
  -8  -1   7   18.68    1.23
   8  -1  -7   17.65    1.37
  -8   1   7   17.64    1.18
   8   1  -7   17.01    1.33
  -7  -1   7    2.67    0.61
   7  -1  -7    3.42    0.71
   7   1  -7    2.94    0.70
   7   1  -7    2.86    0.43
  -7   1   7    2.72    0.60
  -6  -1   7    7.33    0.74
   6  -1  -7    6.62    0.79
   6   1  -7    7.48    0.81
  -6   1   7    6.83    0.71
   6   1  -7    6.65    0.51
  -5  -1   7   39.12    1.40
   5  -1  -7   36.81    1.44
  -5   1   7   37.65    1.39
   5   1  -7   37.71    1.14
   5   1  -7   37.72    1.44
   4  -1  -7   36.35    1.33
   4  -1  -7   36.23    0.89
  -4  -1   7   36.94    1.28
   4   1  -7   33.49    1.02
  -4   1   7   32.74    1.21
   4   1  -7   33.44    1.26
  -3  -1   7   29.32    1.01
   3  -1  -7   27.61    0.78
   3  -1  -7   29.16    1.07
  -3  -1   7   29.55    1.03
   3   1  -7   27.87    0.92
   3   1  -7   28.75    1.08
  -3   1   7   29.92    1.06
   2  -1  -7    1.66    0.26
   2  -1  -7    2.17    0.28
   2  -1  -7    1.92    0.34
  -2  -1   7    2.44    0.31
  -2  -1   7    3.03    0.36
  -2   1   7    2.25    0.20
   2   1  -7    2.56    0.34
   2   1  -7    2.20    0.37
  -2   1   7    2.08    0.32
  -2   1   7    2.10    0.32
  -1  -1   7   32.11    0.90
   1  -1  -7   32.85    1.04
   1  -1  -7   33.75    0.96
  -1  -1   7   32.81    0.95
  -1  -1   7   34.93    1.01
  -1   1   7   34.04    0.88
   1   1  -7   32.09    1.09
  -1   1   7   32.67    0.97
  -1   1   7   32.53    1.00
   1   1  -7   34.39    1.01
   0  -1  -7    9.41    0.55
   0  -1   7    8.83    0.49
   0  -1  -7    8.18    0.48
   0  -1  -7    8.88    0.52
   0  -1   7    9.28    0.40
   0  -1   7    8.83    0.48
   0   1   7   10.29    0.49
   0   1  -7    9.13    0.58
   0   1  -7    9.65    0.55
   0   1   7   10.17    0.53
   1  -1   7   97.32    2.19
   1  -1   7   98.05    1.83
   1  -1   7   91.37    2.05
  -1  -1  -7   93.88    2.14
  -1  -1  -7   93.39    2.22
  -1  -1  -7   93.32    2.05
   1   1   7   96.16    2.13
  -1   1  -7  101.92    2.20
  -1   1  -7   95.30    2.33
   1   1   7   95.28    2.17
   2  -1   7    5.12    0.40
   2  -1   7    4.03    0.44
  -2  -1  -7    4.58    0.48
  -2  -1  -7    4.43    0.48
   2   1   7    3.81    0.41
  -2   1  -7    4.31    0.48
   2   1   7    5.27    0.44
   3  -1   7    6.96    0.59
   3  -1   7    6.41    0.45
  -3  -1  -7    6.64    0.59
   3   1   7    6.76    0.51
   3   1   7    6.71    0.56
  -3   1  -7    6.18    0.57
   4  -1   7   46.31    1.24
  -4  -1  -7   44.38    1.49
   4  -1   7   48.76    1.58
  -4   1  -7   45.92    1.51
   4   1   7   43.54    1.48
   4   1   7   45.13    1.36
   5  -1   7   16.88    0.99
  -5  -1  -7   16.96    0.99
   5  -1   7   17.90    0.69
   5   1   7   19.56    0.88
   5   1   7   18.48    1.01
  -5   1  -7   18.60    1.04
   6  -1   7    2.09    0.55
  -6  -1  -7    1.62    0.62
   6   1   7    1.16    0.40
   6   1   7    1.83    0.53
  -6   1  -7    1.24    0.62
   7  -1   7    1.34    0.60
  -7  -1  -7    3.14    0.80
   7   1   7    1.55    0.46
   7   1   7    1.59    0.63
  -7   1  -7    0.89    0.69
  -8  -2   7    0.26    0.67
   8  -2  -7    0.05    0.71
   8   2  -7    1.48    0.82
   8   2  -7    1.48    0.45
  -8   2   7    1.43    0.62
  -7  -2   7    3.68    0.70
   7  -2  -7    4.47    0.84
   7   2  -7    6.04    0.83
  -7   2   7    5.83    0.75
   7   2  -7    6.64    0.62
  -6  -2   7   15.67    0.99
   6  -2  -7   17.17    1.07
  -6   2   7   18.99    1.04
   6   2  -7   19.61    0.90
   6   2  -7   18.13    1.11
  -5  -2   7   18.76    0.97
   5  -2  -7   18.48    1.03
   5   2  -7   19.68    0.86
   5   2  -7   20.16    1.07
  -5   2   7   18.65    0.98
   4  -2  -7    2.57    0.48
  -4  -2   7    3.45    0.46
   4   2  -7    4.32    0.53
   4   2  -7    3.02    0.43
  -4   2   7    1.85    0.43
   3  -2  -7    6.12    0.55
  -3  -2   7    5.47    0.51
  -3  -2   7    4.65    0.48
   3   2  -7    5.31    0.54
  -3   2   7    5.53    0.53
   3   2  -7    4.80    0.46
   2  -2  -7   56.09    1.60
  -2  -2   7   54.01    1.33
   2  -2  -7   56.43    1.53
  -2  -2   7   54.82    1.48
   2  -2  -7   55.58    1.24
   2  -2  -7   56.11    1.24
  -2  -2   7   56.63    1.49
   2   2  -7   58.79    1.63
   2   2  -7   59.00    1.52
  -2   2   7   59.33    1.30
  -1  -2   7   24.61    0.86
   1  -2  -7   25.93    0.80
   1  -2  -7   25.20    0.94
   1  -2  -7   26.53    0.78
   1  -2  -7   25.82    0.88
  -1  -2   7   25.68    0.83
  -1  -2   7   24.50    0.83
  -1   2   7   27.91    0.81
   1   2  -7   26.37    0.92
   1   2  -7   26.07    0.99
   0  -2  -7   13.19    0.65
   0  -2  -7   12.75    0.60
   0  -2  -7   14.43    0.64
   0  -2   7   13.34    0.51
   0  -2   7   13.49    0.61
   0  -2   7   12.85    0.62
   0   2  -7   13.82    0.65
   0   2   7   14.33    0.62
   0   2   7   14.21    0.65
   0   2  -7   14.30    0.72
   1  -2   7   60.69    1.45
  -1  -2  -7   58.74    1.55
   1  -2   7   59.58    1.25
  -1  -2  -7   60.11    1.54
  -1  -2  -7   58.08    1.54
   1  -2   7   59.12    1.60
   1   2   7   61.34    1.51
  -1   2  -7   56.87    1.65
   1   2   7   60.12    1.56
  -2  -2  -7   18.02    0.85
  -2  -2  -7   18.12    0.75
  -2  -2  -7   19.66    0.79
   2  -2   7   18.21    0.69
   2  -2   7   19.56    0.87
   2   2   7   20.22    0.84
  -2   2  -7   19.72    0.90
   2   2   7   18.07    0.76
  -3  -2  -7    4.42    0.55
   3  -2   7    3.93    0.36
   3  -2   7    3.71    0.49
  -3  -2  -7    4.13    0.49
  -3   2  -7    4.96    0.55
   3   2   7    3.57    0.43
   3   2   7    3.99    0.46
  -4  -2  -7   11.52    0.74
   4  -2   7   11.64    0.80
   4  -2   7   10.89    0.49
  -4   2  -7   10.64    0.75
   4   2   7   11.15    0.68
   4   2   7   10.79    0.73
   5  -2   7   14.53    0.95
  -5  -2  -7   16.69    0.96
   5   2   7   15.27    0.93
   5   2   7   16.46    0.88
  -5   2  -7   14.51    0.93
   6  -2   7   17.61    1.12
  -6  -2  -7   16.92    1.09
   6   2   7   17.38    1.09
  -6   2  -7   18.13    1.13
   6   2   7   16.33    0.92
   7  -2   7   10.91    1.00
   7   2   7    8.33    0.95
  -8   3   7    5.43    0.89
   7  -3  -7    7.44    0.97
  -7  -3   7    6.67    0.85
   7   3  -7    6.10    0.90
  -7   3   7    7.78    0.87
   7   3  -7    6.47    0.69
  -6  -3   7    0.92    0.48
   6  -3  -7    1.38    0.59
   6   3  -7    0.60    0.43
   6   3  -7    1.25    0.57
  -6   3   7    1.00    0.46
  -5  -3   7   27.89    1.25
   5  -3  -7   28.90    1.29
  -5   3   7   28.74    1.24
   5   3  -7   28.77    1.12
   5   3  -7   29.19    1.29
  -4  -3   7   51.01    1.64
   4  -3  -7   50.46    1.64
  -4   3   7   52.21    1.69
   4   3  -7   52.87    1.55
   4   3  -7   52.71    1.67
  -3  -3   7    9.17    0.65
   3  -3  -7   10.63    0.68
  -3  -3   7   10.67    0.67
   3   3  -7   10.06    0.67
   3   3  -7    8.68    0.44
   3   3  -7    9.41    0.65
   2  -3  -7   13.23    0.68
  -2  -3   7   12.19    0.61
  -2  -3   7   13.08    0.68
  -2  -3   7   12.18    0.65
   2  -3  -7   12.90    0.74
   2   3  -7   13.05    0.72
  -2   3   7   13.18    0.55
   2   3  -7   12.80    0.71
  -1  -3   7   22.86    0.85
  -1  -3   7   21.37    0.81
   1  -3  -7   22.44    0.71
   1  -3  -7   20.77    0.93
   1  -3  -7   21.72    0.79
  -1  -3   7   22.68    0.86
  -1   3   7   22.39    0.78
   1   3  -7   22.06    0.93
   0  -3   7   15.06    0.64
   0  -3  -7   15.52    0.65
   0  -3  -7   14.25    0.74
   0  -3  -7   14.12    0.63
   0  -3   7   15.68    0.75
   0  -3   7   15.19    0.61
   0   3   7   15.27    0.68
   0   3  -7   14.03    0.74
   1  -3   7   33.62    0.99
  -1  -3  -7   35.27    1.13
  -1  -3  -7   35.00    1.03
  -1  -3  -7   35.49    1.21
   1  -3   7   33.43    1.19
   1   3   7   33.38    1.11
  -1   3  -7   34.94    1.22
   2  -3   7   16.96    0.87
  -2  -3  -7   16.09    0.72
  -2  -3  -7   17.20    0.82
  -2  -3  -7   15.05    0.81
   2  -3   7   15.73    0.60
   2   3   7   16.73    0.79
   2   3   7   15.28    0.79
  -2   3  -7   16.01    0.85
   3  -3   7   11.13    0.76
  -3  -3  -7   10.27    0.71
   3  -3   7   10.93    0.43
  -3  -3  -7   10.79    0.79
  -3  -3  -7   10.94    0.69
   3   3   7   10.15    0.70
  -3   3  -7   11.68    0.78
   3   3   7   11.32    0.70
   4  -3   7    0.79    0.40
   4   3   7    1.25    0.42
  -4   3  -7    0.75    0.45
   4   3   7    0.93    0.40
   5  -3   7   10.33    0.89
  -5   3  -7   10.68    0.90
   5   3   7   11.50    0.79
   5   3   7   12.15    0.93
   6  -3   7    0.12    0.52
   6   3   7    1.22    0.49
  -6   3  -7    0.53    0.62
   6   3   7    1.05    0.54
   7  -4  -7    1.04    0.69
  -7  -4   7    0.07    0.64
  -7   4   7    0.99    0.59
   7   4  -7   -0.13    0.50
  -6  -4   7   11.72    1.03
   6  -4  -7   11.24    1.02
   6   4  -7   11.87    0.89
  -6   4   7   12.17    1.01
  -5  -4   7    4.95    0.71
   5  -4  -7    2.89    0.62
  -5   4   7    4.96    0.65
   5   4  -7    5.05    0.61
   5   4  -7    4.59    0.71
   4  -4  -7    7.76    0.74
  -4  -4   7    8.60    0.77
  -4  -4   7    8.14    0.71
   4   4  -7    9.30    0.78
  -4   4   7    8.98    0.76
   4   4  -7    9.79    0.75
  -3  -4   7    2.83    0.48
   3  -4  -7    2.33    0.46
   3  -4  -7    3.41    0.47
  -3  -4   7    3.38    0.49
   3   4  -7    3.87    0.54
   3   4  -7    3.52    0.52
   3   4  -7    3.92    0.38
  -2  -4   7  109.78    2.63
   2  -4  -7  105.04    2.75
  -2  -4   7  106.70    2.51
   2  -4  -7  111.16    2.52
   2   4  -7  113.85    2.72
   2   4  -7  114.44    2.47
  -2   4   7  113.61    2.48
   1  -4  -7   39.22    1.13
   1  -4  -7   38.91    0.95
   1  -4  -7   36.65    1.38
  -1  -4   7   36.14    1.26
  -1  -4   7   38.82    1.25
  -1  -4   7   39.67    1.19
   1   4  -7   38.11    1.32
  -1   4   7   41.18    1.21
   0  -4   7    5.58    0.54
   0  -4  -7    4.68    0.43
   0  -4   7    5.15    0.43
   0  -4   7    4.43    0.43
   0  -4  -7    5.39    0.56
   0   4   7    4.72    0.47
   0   4  -7    4.21    0.52
  -1  -4  -7   19.34    0.83
   1  -4   7   19.23    0.92
  -1  -4  -7   17.74    0.92
   1  -4   7   20.08    0.70
   1   4   7   20.37    0.92
  -1   4  -7   22.80    1.02
   2  -4   7   60.45    1.89
  -2  -4  -7   63.09    1.91
  -2  -4  -7   61.08    1.74
  -2   4  -7   61.75    1.84
   2   4   7   59.19    1.76
  -3  -4  -7   10.92    0.78
  -3  -4  -7   10.60    0.86
   3  -4   7   10.63    0.82
   3   4   7    9.90    0.73
  -3   4  -7   10.47    0.77
   4  -4   7    9.85    0.84
  -4  -4  -7   12.08    0.94
  -4   4  -7   11.66    0.84
   4   4   7   10.97    0.85
   5  -4   7    3.26    0.65
   5   4   7    2.28    0.55
   5   4   7    2.86    0.65
  -5   4  -7    2.96    0.64
   6  -4   7    7.73    0.92
  -6   4  -7    8.65    0.96
   6   4   7    9.56    0.93
   6   4   7    9.06    0.92
   7  -5  -7    4.63    0.96
   7   5  -7    5.49    0.87
  -7   5   7    5.72    0.90
  -6  -5   7   11.46    1.12
   6  -5  -7   10.97    1.06
  -6   5   7   12.55    1.08
   6   5  -7   12.93    1.04
  -5  -5   7    3.63    0.68
   5  -5  -7    3.03    0.67
  -5   5   7    3.49    0.63
   4  -5  -7    4.61    0.66
  -4  -5   7    4.24    0.68
  -4  -5   7    3.94    0.61
  -3  -5   7   14.66    0.92
  -3  -5   7   14.72    0.84
   3  -5  -7   15.39    0.94
   3   5  -7   16.65    0.79
   2  -5  -7   12.55    0.89
  -2  -5   7   12.95    0.73
  -2  -5   7   12.48    0.82
   2   5  -7   13.70    0.72
   2   5  -7   14.90    0.86
  -2   5   7   14.80    0.75
  -1  -5   7   11.45    0.77
  -1  -5   7   11.97    0.66
  -1  -5   7   11.98    0.73
   1  -5  -7   10.66    0.79
  -1   5   7   12.34    0.73
   1   5  -7   14.61    0.84
   0  -5  -7   14.35    0.63
   0  -5  -7   15.57    0.92
   0  -5   7   15.78    0.67
   0  -5   7   15.15    0.75
   0  -5   7   14.51    0.88
   0   5  -7   18.15    0.94
   0   5   7   17.19    0.86
  -1  -5  -7   73.51    1.85
   1  -5   7   73.93    2.17
   1  -5   7   75.30    1.60
  -1  -5  -7   68.08    2.16
   1   5   7   78.31    2.14
  -1   5  -7   77.28    2.18
  -2  -5  -7    4.34    0.68
  -2  -5  -7    4.54    0.58
   2  -5   7    4.40    0.61
   2   5   7    4.74    0.56
  -2   5  -7    4.75    0.61
  -3  -5  -7    2.18    0.58
   3  -5   7    2.54    0.57
  -3  -5  -7    3.00    0.57
   3   5   7    3.05    0.52
  -3   5  -7    4.00    0.64
   4  -5   7    3.88    0.65
  -4  -5  -7    4.80    0.72
  -4   5  -7    4.88    0.73
   4   5   7    4.05    0.64
   5  -5   7    7.36    0.86
  -5   5  -7    5.78    0.83
   5   5   7    6.15    0.77
  -6  -6   7   33.36    1.77
  -6   6   7   36.20    1.67
  -5  -6   7    7.78    0.97
  -5  -6   7    7.84    0.91
  -5   6   7    7.38    0.87
   4  -6  -7    0.60    0.51
  -4  -6   7    0.63    0.54
  -4  -6   7    0.62    0.48
  -3  -6   7   13.76    0.86
   3  -6  -7   13.87    0.97
  -3  -6   7   14.08    1.00
   3   6  -7   15.14    0.83
  -2  -6   7   24.16    1.04
   2  -6  -7   23.56    1.24
  -2  -6   7   24.67    1.20
   2   6  -7   24.87    1.06
  -2   6   7   25.71    1.10
  -1  -6   7   16.97    0.79
   1  -6  -7   16.06    1.04
  -1  -6   7   15.84    0.91
   1   6  -7   17.52    0.89
  -1   6   7   17.70    0.94
   0  -6  -7    1.07    0.30
   0  -6   7    0.31    0.42
   0  -6  -7    1.06    0.47
   0  -6   7    1.02    0.29
   0   6   7    0.38    0.36
  -1  -6  -7    7.40    0.81
   1  -6   7    8.04    0.79
  -1  -6  -7    7.81    0.59
   1   6   7    8.80    0.76
  -2  -6  -7    8.33    0.90
  -2  -6  -7    7.83    0.71
   2  -6   7    9.97    0.88
  -2   6  -7   10.32    0.95
   2   6   7   11.08    0.88
  -3  -6  -7    2.74    0.58
  -3  -6  -7    1.93    0.67
   3  -6   7    1.86    0.59
  -3   6  -7    2.60    0.69
   3   6   7    2.37    0.54
   4  -6   7    2.88    0.70
  -4  -6  -7    3.00    0.78
  -4  -6  -7    1.81    0.67
   4   6   7    2.51    0.67
  -4   6  -7    3.34    0.74
   5  -6   7    3.90    0.82
  -5  -6  -7    1.44    0.91
  -5   6  -7    3.20    0.90
  -5  -7   7    3.03    0.89
  -5  -7   7    4.59    0.81
  -5   7   7    3.01    0.74
  -4  -7   7   15.88    1.29
   4  -7  -7   15.45    1.14
  -4  -7   7   15.17    1.04
  -3  -7   7   17.01    0.99
  -3  -7   7   17.67    1.18
   3  -7  -7   17.36    1.18
  -2  -7   7    0.35    0.38
   2  -7  -7   -0.03    0.45
  -2  -7   7    0.20    0.47
  -2   7   7    0.78    0.48
   2   7  -7   -0.15    0.40
  -1  -7   7    3.40    0.46
  -1  -7   7    3.55    0.66
   1  -7  -7    3.02    0.68
  -1   7   7    4.75    0.63
   1   7  -7    3.25    0.54
   0  -7  -7    8.05    0.91
   0   7   7    9.32    0.82
  -1  -7  -7   11.67    1.06
  -1  -7  -7   11.06    0.68
   1  -7   7   12.82    1.08
   1   7   7   10.75    0.91
  -2  -7  -7    2.96    0.72
   2  -7   7    2.07    0.66
  -2  -7  -7    3.10    0.55
   2   7   7    3.99    0.70
  -3  -7  -7    7.70    0.78
  -3  -7  -7    8.19    1.07
   3  -7   7    7.23    0.96
   3   7   7    7.85    0.87
  -4  -7  -7   17.55    1.18
  -4  -7  -7   20.51    1.45
  -3  -8   7    1.77    0.52
  -3  -8   7    1.80    0.75
   3  -8  -7    1.45    0.70
  -2  -8   7    7.95    1.02
   2  -8  -7    8.77    1.04
  -2  -8   7   10.25    0.78
  -2   8   7    8.20    0.86
   2   8  -7    9.23    0.87
   1  -8  -7   11.40    1.16
  -1   8   7   10.37    0.96
   1   8  -7   11.35    0.90
   0  -8  -7    0.15    0.61
   0   8   7    1.79    0.59
   0   8  -7    1.51    0.55
  -1  -8  -7    9.05    1.05
   1   8   7    8.71    0.95
  -2  -8  -7   14.62    0.87
  -2  -8  -7   18.39    1.32
   2  -8   7   17.87    1.28
   2   8   7   15.46    1.15
   8   0  -8    4.41    0.98
  -8   0   8    7.23    0.91
   7   0  -8    1.37    0.63
  -7   0   8    2.23    0.59
   6   0  -8    0.94    0.54
   6   0  -8    0.54    0.28
  -6   0   8    0.87    0.43
   5   0  -8   32.63    0.97
  -5   0   8   29.74    1.24
   5   0  -8   31.75    1.34
  -4   0   8  187.30    4.12
   4   0  -8  187.60    4.22
   4   0  -8  191.38    3.65
   3   0  -8   70.05    1.64
   3   0  -8   69.14    1.92
  -3   0   8   69.27    1.85
  -2   0   8    1.36    0.29
  -2   0   8    1.39    0.28
   2   0  -8    1.09    0.28
   2   0  -8    1.54    0.37
  -2   0   8    1.34    0.20
  -1   0   8  221.26    4.23
  -1   0   8  222.98    4.34
  -1   0   8  225.10    4.11
   1   0  -8  212.63    4.55
   1   0  -8  217.47    4.22
   0   0   8  108.59    2.28
   0   0   8  111.80    2.38
   0   0  -8  109.09    2.39
   0   0   8  108.06    2.34
   0   0  -8  108.94    2.58
   1   0   8    2.91    0.36
  -1   0  -8    1.92    0.39
  -1   0  -8    3.18    0.41
   1   0   8    2.63    0.35
   1   0   8    2.78    0.26
   2   0   8    4.70    0.47
   2   0   8    4.17    0.42
  -2   0  -8    4.78    0.54
  -2   0  -8    3.71    0.48
   3   0   8   50.37    1.60
  -3   0  -8   51.72    1.61
   3   0   8   52.31    1.45
   4   0   8    0.09    0.27
  -4   0  -8    0.29    0.39
   4   0   8    0.44    0.35
   5   0   8    0.19    0.31
   5   0   8   -0.35    0.39
  -5   0  -8    0.35    0.50
  -6   0  -8   11.12    1.01
   6   0   8   11.54    0.96
   6   0   8    9.59    0.66
  -7   0  -8    9.11    1.05
   8  -1  -8    6.21    0.98
  -8  -1   8    4.35    0.86
  -8   1   8    5.23    0.88
   8   1  -8    7.26    1.02
  -7  -1   8   10.80    0.98
   7  -1  -8   12.37    1.10
  -7   1   8   11.78    0.98
   7   1  -8   10.00    0.63
   7   1  -8   11.12    1.08
  -6  -1   8    1.87    0.48
   6  -1  -8    1.97    0.60
   6   1  -8    1.71    0.36
   6   1  -8    1.54    0.57
  -6   1   8    2.18    0.55
  -5  -1   8    0.02    0.37
   5  -1  -8    0.31    0.37
   5   1  -8   -0.51    0.25
   5   1  -8   -0.42    0.37
  -5   1   8    0.02    0.32
  -4  -1   8   42.24    1.42
   4  -1  -8   40.52    1.44
   4   1  -8   39.50    1.43
   4   1  -8   41.24    1.20
  -4   1   8   42.07    1.42
   3  -1  -8   20.43    0.68
  -3  -1   8   19.43    0.86
   3  -1  -8   19.75    0.92
   3   1  -8   19.99    0.92
  -3   1   8   19.76    0.88
   3   1  -8   20.41    0.80
   2  -1  -8    7.06    0.56
  -2  -1   8    6.43    0.46
   2  -1  -8    5.94    0.43
  -2  -1   8    6.76    0.50
  -2  -1   8    6.48    0.38
  -2   1   8    6.92    0.51
   2   1  -8    6.91    0.55
  -2   1   8    6.46    0.34
   2   1  -8    6.93    0.51
  -1  -1   8   16.87    0.65
  -1  -1   8   17.88    0.68
  -1  -1   8   18.65    0.74
   1  -1  -8   17.49    0.78
   1  -1  -8   17.27    0.70
   1   1  -8   15.93    0.73
  -1   1   8   17.87    0.74
  -1   1   8   18.30    0.73
  -1   1   8   17.83    0.62
   1   1  -8   18.48    0.83
   0  -1  -8    2.37    0.35
   0  -1   8    2.25    0.32
   0  -1   8    2.12    0.26
   0  -1   8    2.28    0.31
   0  -1  -8    2.49    0.33
   0  -1  -8    2.56    0.37
   0   1   8    1.95    0.34
   0   1   8    2.75    0.32
   0   1  -8    2.39    0.39
   0   1  -8    2.07    0.35
  -1  -1  -8   61.42    1.70
  -1  -1  -8   64.49    1.66
  -1  -1  -8   63.02    1.53
   1  -1   8   62.61    1.67
   1  -1   8   62.40    1.57
  -1   1  -8   58.60    1.71
   1   1   8   61.68    1.56
   1   1   8   58.88    1.56
   2  -1   8    7.91    0.59
  -2  -1  -8    8.25    0.67
   2  -1   8    7.43    0.49
  -2  -1  -8    8.60    0.63
   2   1   8    7.23    0.55
  -2   1  -8    8.35    0.67
   2   1   8    7.36    0.56
   3  -1   8    4.70    0.53
  -3  -1  -8    4.50    0.54
   3  -1   8    4.32    0.42
   3   1   8    4.39    0.50
   3   1   8    4.83    0.49
  -3   1  -8    3.83    0.53
   4  -1   8   10.82    0.58
  -4  -1  -8   11.65    0.81
   4  -1   8   10.08    0.78
  -4   1  -8   11.22    0.79
   4   1   8   11.04    0.77
   4   1   8   11.65    0.68
  -5  -1  -8    6.89    0.76
   5  -1   8    6.29    0.50
   5  -1   8    6.38    0.73
  -5   1  -8    5.41    0.74
   5   1   8    6.54    0.58
   5   1   8    7.21    0.72
   6  -1   8    2.41    0.63
   6  -1   8    4.17    0.41
  -6  -1  -8    4.61    0.75
   6   1   8    4.83    0.60
   6   1   8    4.83    0.72
  -6   1  -8    4.64    0.76
   7  -1   8    1.25    0.70
  -7  -1  -8    1.17    0.87
   7   1   8    0.24    0.62
  -8  -2   8    1.86    0.78
   8   2  -8    5.88    1.05
  -8   2   8    3.11    0.78
   7  -2  -8   14.16    1.12
  -7  -2   8   13.15    0.99
   7   2  -8   14.00    0.81
   7   2  -8   14.04    1.17
  -7   2   8   14.80    1.02
  -6  -2   8   15.80    1.02
   6  -2  -8   17.10    1.08
   6   2  -8   15.40    1.05
   6   2  -8   16.33    0.86
  -6   2   8   16.51    1.01
   5  -2  -8   15.95    1.00
  -5  -2   8   16.57    0.94
   5   2  -8   17.57    1.01
   5   2  -8   16.53    0.82
  -5   2   8   18.61    0.99
  -4  -2   8    0.92    0.35
   4  -2  -8    1.12    0.41
   4   2  -8    0.51    0.39
   4   2  -8    0.86    0.34
  -4   2   8    0.70    0.33
  -3  -2   8    3.72    0.45
  -3  -2   8    4.07    0.49
   3  -2  -8    4.10    0.30
   3  -2  -8    4.16    0.49
   3   2  -8    4.87    0.55
  -3   2   8    4.14    0.52
   3   2  -8    3.86    0.46
   2  -2  -8    6.60    0.42
  -2  -2   8    6.81    0.44
  -2  -2   8    7.35    0.55
   2  -2  -8    7.31    0.55
  -2  -2   8    6.79    0.50
   2   2  -8    6.29    0.60
  -2   2   8    7.46    0.41
  -2   2   8    7.39    0.54
   2   2  -8    8.14    0.59
   1  -2  -8    4.30    0.40
  -1  -2   8    4.22    0.41
  -1  -2   8    4.57    0.40
   1  -2  -8    4.91    0.46
  -1  -2   8    4.18    0.42
   1  -2  -8    4.10    0.48
   1   2  -8    5.57    0.49
   1   2  -8    5.28    0.54
  -1   2   8    5.11    0.39
   0  -2  -8   59.12    1.53
   0  -2   8   60.76    1.39
   0  -2  -8   61.70    1.61
   0  -2   8   60.21    1.60
   0  -2   8   59.44    1.55
   0  -2  -8   61.45    1.65
   0   2   8   61.68    1.55
   0   2   8   61.00    1.56
   0   2  -8   59.49    1.73
  -1  -2  -8   10.72    0.63
   1  -2   8   11.58    0.61
  -1  -2  -8   11.22    0.68
  -1  -2  -8   11.17    0.62
   1  -2   8   10.55    0.63
   1   2   8   10.81    0.62
   1   2   8   11.54    0.65
  -1   2  -8   12.74    0.77
   2  -2   8    0.60    0.31
  -2  -2  -8    0.35    0.36
  -2  -2  -8    0.94    0.38
   2  -2   8    1.04    0.29
  -2  -2  -8    1.55    0.36
   2   2   8    1.16    0.33
   2   2   8    0.85    0.30
  -2   2  -8    1.12    0.42
   3  -2   8   13.95    0.84
  -3  -2  -8   14.35    0.84
  -3  -2  -8   15.03    0.93
   3  -2   8   13.79    0.63
  -3   2  -8   14.97    0.90
   3   2   8   14.60    0.83
   3   2   8   14.10    0.79
   4  -2   8   69.23    2.10
   4  -2   8   66.94    1.57
  -4  -2  -8   66.82    1.95
   4   2   8   66.14    1.86
  -4   2  -8   64.24    1.99
   4   2   8   61.95    1.94
  -5  -2  -8    2.21    0.60
   5  -2   8    0.61    0.47
   5   2   8    0.73    0.39
  -5   2  -8    0.65    0.52
   5   2   8    1.25    0.47
   6  -2   8    0.50    0.54
   6   2   8    0.24    0.55
  -6   2  -8   -0.69    0.56
   6   2   8   -0.15    0.42
   7  -3  -8    6.74    0.92
  -7  -3   8    4.93    0.82
   7   3  -8    5.38    0.66
   7   3  -8    6.21    0.93
  -7   3   8    7.97    0.93
   6  -3  -8   17.56    1.15
  -6  -3   8   17.01    1.08
   6   3  -8   18.05    0.97
  -6   3   8   20.56    1.13
   6   3  -8   20.29    1.19
   5  -3  -8    0.79    0.52
  -5  -3   8    0.54    0.38
   5   3  -8    1.06    0.42
  -5   3   8    0.24    0.33
   5   3  -8    0.35    0.47
  -4  -3   8    3.67    0.52
   4  -3  -8    3.58    0.55
  -4   3   8    4.09    0.57
   4   3  -8    5.02    0.55
   4   3  -8    3.75    0.57
  -3  -3   8   69.14    1.93
  -3  -3   8   68.62    1.89
   3  -3  -8   71.05    1.95
   3   3  -8   73.60    1.93
  -3   3   8   70.69    2.03
   3   3  -8   71.57    2.01
  -2  -3   8    2.16    0.36
  -2  -3   8    2.16    0.39
  -2  -3   8    2.72    0.39
   2  -3  -8    2.57    0.26
   2  -3  -8    2.87    0.46
   2  -3  -8    2.06    0.40
   2   3  -8    2.86    0.43
   2   3  -8    3.00    0.48
  -2   3   8    3.17    0.33
   1  -3  -8   40.99    1.09
  -1  -3   8   40.61    1.23
   1  -3  -8   38.80    1.35
  -1  -3   8   39.00    1.24
  -1  -3   8   39.51    1.19
   1  -3  -8   40.99    1.23
  -1   3   8   42.14    1.20
   1   3  -8   43.57    1.42
   0  -3   8   14.20    0.61
   0  -3   8   14.44    0.66
   0  -3  -8   14.71    0.69
   0  -3   8   14.00    0.75
   0  -3  -8   15.50    0.69
   0  -3  -8   13.13    0.74
   0   3   8   14.75    0.69
   0   3  -8   14.56    0.81
   1  -3   8  123.12    2.63
   1  -3   8  127.03    2.92
  -1  -3  -8  122.53    2.74
  -1  -3  -8  123.87    2.77
  -1  -3  -8  125.26    2.91
   1   3   8  124.66    2.82
  -1   3  -8  124.20    3.02
  -2  -3  -8   35.67    1.19
  -2  -3  -8   35.96    1.25
   2  -3   8   34.99    1.33
  -2  -3  -8   38.03    1.30
   2  -3   8   37.00    1.05
   2   3   8   38.64    1.34
  -2   3  -8   39.72    1.43
   3  -3   8   10.12    0.79
   3  -3   8   10.21    0.48
  -3  -3  -8   11.24    0.82
   3   3   8   11.56    0.74
  -3   3  -8   10.60    0.80
   3   3   8   11.84    0.74
   4  -3   8   24.59    1.22
   4   3   8   20.05    1.06
   4   3   8   21.84    1.02
  -4   3  -8   21.35    1.13
   5  -3   8   15.07    1.05
   5   3   8   12.93    0.87
  -5   3  -8   11.74    0.93
   5   3   8   11.76    0.93
   6  -3   8    4.08    0.78
  -6   3  -8    4.69    0.85
   6   3   8    4.46    0.73
   6   3   8    4.83    0.72
   7  -4  -8    1.14    0.76
  -7  -4   8   -0.40    0.58
  -7   4   8    0.85    0.58
   7   4  -8    0.13    0.55
  -6  -4   8   12.10    1.08
   6  -4  -8   12.93    1.08
  -6   4   8   12.49    1.04
   6   4  -8   12.96    0.94
   5  -4  -8   15.68    1.01
  -5  -4   8   15.93    1.02
  -5   4   8   16.22    1.02
   5   4  -8   17.10    1.08
   5   4  -8   14.97    0.99
   4  -4  -8   19.50    1.04
  -4  -4   8   18.59    1.02
  -4  -4   8   18.49    1.03
   4   4  -8   19.23    1.02
  -4   4   8   18.38    1.02
   4   4  -8   18.67    1.03
  -3  -4   8    3.79    0.54
  -3  -4   8    4.26    0.56
   3  -4  -8    2.32    0.53
   3  -4  -8    3.15    0.48
   3   4  -8    3.33    0.54
  -2  -4   8   43.17    1.37
  -2  -4   8   42.74    1.40
  -2  -4   8   40.56    1.34
   2  -4  -8   41.76    1.50
   2  -4  -8   42.29    1.32
   2   4  -8   42.54    1.45
  -2   4   8   43.55    1.25
   1  -4  -8   33.80    1.31
  -1  -4   8   34.10    1.14
  -1  -4   8   32.68    1.15
   1  -4  -8   33.52    0.93
  -1  -4   8   31.34    1.18
   1   4  -8   33.13    1.24
  -1   4   8   33.61    1.11
   0  -4  -8    0.11    0.27
   0  -4   8    0.20    0.26
   0  -4  -8   -0.32    0.32
   0  -4   8    0.19    0.30
   0   4   8    0.27    0.28
   0   4  -8   -0.25    0.33
   1  -4   8   22.07    0.79
   1  -4   8   21.37    1.02
  -1  -4  -8   22.69    1.06
  -1  -4  -8   21.30    0.93
  -1   4  -8   22.65    1.09
   1   4   8   21.43    0.95
  -2  -4  -8   17.07    0.95
  -2  -4  -8   19.47    0.94
   2  -4   8   16.33    0.61
   2  -4   8   18.41    0.99
  -2   4  -8   16.74    0.95
   2   4   8   17.40    0.91
   3  -4   8    2.24    0.49
  -3  -4  -8    2.59    0.58
   3   4   8    1.30    0.42
  -3   4  -8    2.13    0.55
   4  -4   8   14.60    1.01
   4   4   8   13.88    0.91
  -4   4  -8   15.10    1.00
   5  -4   8    0.03    0.52
  -5   4  -8    0.25    0.59
   5   4   8    0.12    0.46
   6  -4   8    0.98    0.62
   6   4   8    0.31    0.58
   6   4   8   -0.03    0.59
   6  -5  -8    7.24    0.95
  -6  -5   8    8.78    1.01
   6   5  -8    8.17    0.94
  -6   5   8    7.17    0.92
  -5  -5   8    1.19    0.58
  -5   5   8    1.66    0.54
  -4  -5   8   15.51    1.04
  -4  -5   8   14.44    0.96
   3  -5  -8    7.47    0.77
  -3  -5   8    7.19    0.76
  -3  -5   8    7.36    0.70
   2  -5  -8    0.60    0.39
  -2  -5   8    0.68    0.34
  -2  -5   8    0.74    0.40
  -2   5   8    1.21    0.36
   2   5  -8    1.16    0.34
   2   5  -8    1.28    0.47
  -1  -5   8   14.13    0.74
  -1  -5   8   14.98    0.88
   1  -5  -8   13.81    0.93
  -1  -5   8   16.61    0.86
   1   5  -8   15.76    0.91
  -1   5   8   17.04    0.84
   0  -5   8    5.57    0.62
   0  -5  -8    4.48    0.43
   0  -5  -8    4.15    0.62
   0  -5   8    4.97    0.47
   0   5  -8    4.56    0.62
   0   5   8    4.64    0.53
   1  -5   8    7.15    0.72
  -1  -5  -8    7.60    0.77
  -1  -5  -8    8.40    0.63
   1  -5   8    7.84    0.47
  -1   5  -8    8.96    0.77
   1   5   8    7.92    0.71
  -2  -5  -8   14.26    0.94
  -2  -5  -8   14.23    0.88
   2  -5   8   13.57    0.93
  -2   5  -8   12.58    0.95
   2   5   8   11.24    0.81
  -3  -5  -8    0.18    0.55
  -3  -5  -8   -0.20    0.47
   3  -5   8    0.17    0.43
   3   5   8    0.24    0.45
  -3   5  -8    0.77    0.58
  -4  -5  -8    3.14    0.73
   4  -5   8    2.49    0.63
   4   5   8    2.22    0.58
  -4   5  -8    3.21    0.72
   5  -5   8    1.50    0.65
  -5   5  -8    1.07    0.69
   5   5   8    0.83    0.57
  -6   6   8   10.62    1.06
  -5  -6   8   -0.69    0.55
  -5   6   8   -0.50    0.56
  -4  -6   8    3.47    0.64
   4  -6  -8    1.78    0.58
  -4  -6   8    3.00    0.68
  -3  -6   8    1.93    0.52
   3  -6  -8    0.88    0.51
  -3  -6   8    1.25    0.45
  -2  -6   8    4.04    0.53
  -2  -6   8    4.34    0.66
   2  -6  -8    4.44    0.74
  -2   6   8    5.53    0.62
   2   6  -8    5.21    0.56
  -1  -6   8   18.11    1.00
   1  -6  -8   17.20    1.12
  -1  -6   8   18.80    1.09
  -1  -6   8   18.74    0.86
  -1   6   8   20.12    1.01
   0  -6  -8   15.96    0.67
   0  -6   8   16.02    0.72
   0  -6  -8   14.04    1.01
   0  -6   8   16.62    1.04
   0   6   8   17.18    0.96
  -1  -6  -8    0.65    0.51
   1  -6   8   -0.10    0.51
  -1  -6  -8    0.34    0.36
   1   6   8    0.55    0.41
  -2  -6  -8   -0.35    0.42
   2  -6   8    1.03    0.52
  -2  -6  -8    0.81    0.55
   2   6   8    0.61    0.45
  -2   6  -8    0.31    0.59
   3  -6   8   24.01    1.35
  -3  -6  -8   21.68    1.15
  -3  -6  -8   23.70    1.36
  -3   6  -8   21.91    1.26
   3   6   8   20.49    1.18
  -4  -6  -8    4.81    0.80
   4  -6   8    5.15    0.88
   4   6   8    5.81    0.78
  -4   6  -8    6.60    0.93
  -5  -7   8    2.53    0.82
  -4  -7   8   13.74    1.27
  -4  -7   8   14.71    1.04
   4  -7  -8   13.53    1.20
  -3  -7   8   11.49    0.91
   3  -7  -8   12.63    1.09
  -3  -7   8   12.13    1.08
  -2  -7   8    4.10    0.57
  -2  -7   8    3.28    0.70
   2  -7  -8    2.34    0.71
   2   7  -8    3.74    0.58
  -1  -7   8    4.33    0.50
   1  -7  -8    2.82    0.67
   1   7  -8    2.58    0.56
  -1   7   8    4.63    0.64
   0  -7  -8    2.87    0.70
   0  -7   8    3.10    0.67
   0   7   8    4.32    0.65
   1  -7   8    7.72    0.88
  -1  -7  -8    8.06    0.62
  -1  -7  -8    7.39    0.96
   1   7   8    6.41    0.81
  -2  -7  -8    2.67    0.75
  -2  -7  -8    5.41    0.63
   2  -7   8    4.58    0.80
   2   7   8    4.95    0.75
  -3  -7  -8    4.40    0.88
  -3  -7  -8    4.64    0.77
   3  -7   8    4.45    0.87
   3   7   8    3.46    0.74
  -3  -8   8   -0.62    0.61
   2  -8  -8    4.83    0.92
  -2  -8   8    6.15    0.64
   2   8  -8    4.16    0.71
  -1  -8   8    2.96    0.46
   1  -8  -8    2.07    0.80
   1   8  -8    2.18    0.61
  -1   8   8    1.93    0.60
   0  -8  -8    1.69    0.76
   0   8  -8    1.72    0.57
   0   8   8    1.53    0.63
   1  -8   8    4.96    0.88
  -1  -8  -8    5.96    0.94
   1   8   8    7.79    0.92
  -8   0   9   17.25    1.24
   7   0  -9   -0.08    0.59
  -7   0   9    0.46    0.52
   6   0  -9   -0.11    0.46
   6   0  -9   -0.20    0.26
  -6   0   9   -0.94    0.34
   5   0  -9   14.59    0.65
   5   0  -9   15.95    0.98
  -5   0   9   16.46    0.92
   4   0  -9    6.42    0.49
  -4   0   9    6.24    0.61
   4   0  -9    6.85    0.67
   3   0  -9    1.35    0.34
  -3   0   9    2.31    0.39
   3   0  -9    1.83    0.41
  -2   0   9   16.53    0.76
   2   0  -9   18.10    0.86
   2   0  -9   17.40    0.76
  -1   0   9   24.75    0.79
  -1   0   9   21.90    0.82
   1   0  -9   22.75    0.88
   1   0  -9   22.95    0.97
  -1   0   9   23.50    0.90
   0   0   9   30.72    0.94
   0   0   9   31.66    1.02
   0   0  -9   32.10    1.16
   0   0  -9   32.89    1.09
   0   0   9   31.54    1.06
  -1   0  -9   14.36    0.78
   1   0   9   13.42    0.70
   1   0   9   14.11    0.70
  -1   0  -9   14.27    0.81
  -2   0  -9   67.63    1.96
   2   0   9   67.00    1.86
   2   0   9   66.42    1.73
   3   0   9    0.83    0.40
  -3   0  -9    0.95    0.47
   3   0   9    1.71    0.36
   4   0   9    7.02    0.59
   4   0   9    6.36    0.70
  -4   0  -9    8.19    0.77
  -5   0  -9   29.08    1.36
   5   0   9   27.85    1.07
   5   0   9   26.27    1.29
   6   0   9    4.57    0.73
   6   0   9    5.33    0.56
  -6   0  -9    4.09    0.83
  -8  -1   9    1.61    0.72
  -8   1   9    0.88    0.65
   7  -1  -9    2.57    0.70
  -7  -1   9    1.94    0.62
   7   1  -9    3.43    0.77
   7   1  -9    4.15    0.49
  -7   1   9    3.97    0.68
  -6  -1   9   12.34    0.90
   6  -1  -9   13.82    1.01
   6   1  -9   13.65    0.71
   6   1  -9   13.37    0.98
  -6   1   9   13.29    0.91
   5  -1  -9   16.73    0.59
   5  -1  -9   16.14    0.99
  -5  -1   9   15.38    0.90
   5   1  -9   17.06    0.78
   5   1  -9   15.61    1.00
  -5   1   9   15.32    0.92
  -4  -1   9   39.98    1.42
   4  -1  -9   42.02    1.49
   4  -1  -9   39.87    1.05
   4   1  -9   40.98    1.24
   4   1  -9   40.28    1.48
  -4   1   9   38.86    1.41
  -3  -1   9   45.36    1.45
   3  -1  -9   47.16    1.53
   3  -1  -9   46.93    1.23
   3   1  -9   46.24    1.56
   3   1  -9   50.80    1.42
  -3   1   9   48.47    1.54
   2  -1  -9   27.58    0.92
  -2  -1   9   26.62    0.99
  -2  -1   9   26.25    0.95
   2  -1  -9   26.06    1.06
   2   1  -9   26.78    1.08
  -2   1   9   27.77    1.03
   2   1  -9   26.96    0.99
  -1  -1   9   48.57    1.29
  -1  -1   9   46.27    1.35
   1  -1  -9   47.89    1.32
  -1  -1   9   48.24    1.28
   1  -1  -9   46.63    1.44
  -1   1   9   46.47    1.21
  -1   1   9   47.72    1.35
   1   1  -9   45.79    1.48
   1   1  -9   47.64    1.38
   0  -1   9   19.13    0.79
   0  -1   9   19.26    0.67
   0  -1   9   19.39    0.79
   0  -1  -9   18.97    0.87
   0  -1  -9   19.94    0.84
   0   1   9   17.99    0.71
   0   1  -9   17.69    0.88
   0   1   9   17.96    0.73
   0   1   9   19.11    0.82
   0   1  -9   18.78    0.82
  -1  -1  -9    7.05    0.61
   1  -1   9    8.14    0.53
  -1  -1  -9    7.90    0.64
  -1  -1  -9    8.76    0.54
   1  -1   9    8.08    0.59
   1   1   9    7.50    0.53
  -1   1  -9    7.86    0.67
   1   1   9    7.71    0.58
  -2  -1  -9   50.11    1.55
   2  -1   9   46.38    1.36
  -2  -1  -9   49.22    1.59
   2  -1   9   49.35    1.55
  -2   1  -9   52.04    1.65
   2   1   9   46.69    1.50
   2   1   9   49.77    1.46
   3  -1   9    3.70    0.41
   3  -1   9    3.50    0.52
  -3  -1  -9    2.65    0.54
  -3   1  -9    2.02    0.54
   3   1   9    3.48    0.50
   3   1   9    3.81    0.46
   4  -1   9    2.50    0.39
   4  -1   9    1.72    0.47
  -4  -1  -9    2.29    0.57
   4   1   9    1.93    0.45
   4   1   9    2.71    0.52
  -4   1  -9    2.64    0.57
   5  -1   9   10.12    0.58
   5  -1   9    8.75    0.85
  -5  -1  -9   10.58    0.94
   5   1   9   10.97    0.90
   5   1   9   10.57    0.75
  -5   1  -9    9.92    0.95
   6  -1   9    3.69    0.44
   6  -1   9    5.16    0.74
  -6  -1  -9    2.64    0.79
   6   1   9    4.13    0.74
   6   1   9    4.56    0.61
  -6   1  -9    3.11    0.78
  -7  -2   9    8.27    0.89
   7  -2  -9    7.47    0.94
   7   2  -9    6.23    0.66
  -7   2   9    7.20    0.84
   7   2  -9    6.36    0.93
   6  -2  -9    0.42    0.57
  -6  -2   9    1.02    0.52
   6   2  -9    1.96    0.45
  -6   2   9    0.49    0.45
   6   2  -9    0.89    0.52
   5  -2  -9   17.18    1.02
  -5  -2   9   15.79    0.95
  -5   2   9   19.12    1.03
   5   2  -9   17.07    1.05
   5   2  -9   17.94    0.88
  -4  -2   9   73.32    2.08
   4  -2  -9   71.55    2.12
   4   2  -9   71.78    1.90
  -4   2   9   73.03    2.11
   4   2  -9   69.77    2.11
  -3  -2   9   48.60    1.51
   3  -2  -9   46.45    1.53
   3  -2  -9   46.78    1.13
  -3  -2   9   45.42    1.47
  -3   2   9   48.97    1.58
   3   2  -9   46.98    1.43
   3   2  -9   48.53    1.61
  -2  -2   9    8.89    0.62
   2  -2  -9    7.92    0.51
  -2  -2   9    8.18    0.55
   2  -2  -9    8.67    0.63
   2   2  -9    9.48    0.65
   2   2  -9    8.39    0.67
  -2   2   9    8.67    0.61
   1  -2  -9   71.55    1.92
  -1  -2   9   67.49    1.80
   1  -2  -9   67.93    1.69
   1  -2  -9   72.70    1.87
  -1  -2   9   68.98    1.72
  -1  -2   9   70.98    1.72
   1   2  -9   74.06    2.05
   1   2  -9   75.89    1.89
  -1   2   9   71.29    1.71
   0  -2  -9   22.86    0.93
   0  -2  -9   22.40    0.87
   0  -2   9   23.98    0.74
   0  -2   9   23.03    0.91
   0  -2  -9   22.73    0.93
   0  -2   9   22.06    0.88
   0   2  -9   23.94    1.04
   0   2   9   22.32    0.87
  -1  -2  -9   10.79    0.73
  -1  -2  -9   10.98    0.65
  -1  -2  -9   12.20    0.72
   1  -2   9   10.88    0.69
   1  -2   9   12.01    0.64
  -1   2  -9   12.52    0.82
   1   2   9   11.98    0.69
   1   2   9   12.74    0.70
   2  -2   9    9.45    0.71
   2  -2   9    9.29    0.58
  -2  -2  -9    9.29    0.72
  -2  -2  -9   10.46    0.75
   2   2   9   10.78    0.67
   2   2   9    9.90    0.68
  -2   2  -9    9.98    0.78
   3  -2   9   26.86    1.20
  -3  -2  -9   26.95    1.14
   3  -2   9   25.77    0.93
   3   2   9   25.39    1.11
   3   2   9   26.19    1.07
  -3   2  -9   24.52    1.17
   4  -2   9   13.06    0.91
  -4  -2  -9   12.85    0.90
   4  -2   9   14.13    0.64
  -4   2  -9   13.69    0.93
   4   2   9   12.50    0.85
   4   2   9   13.08    0.82
  -5  -2  -9    1.49    0.62
   5  -2   9    2.71    0.63
   5  -2   9    2.62    0.33
  -5   2  -9    2.13    0.69
   5   2   9    2.88    0.57
   5   2   9    1.87    0.49
   6  -2   9    0.90    0.61
   6   2   9    0.97    0.50
   6   2   9    0.04    0.53
  -6   2  -9    0.58    0.67
  -7  -3   9    9.22    1.03
   7  -3  -9    7.93    1.00
   7   3  -9    8.24    0.78
  -7   3   9    9.73    1.01
   7   3  -9    9.60    1.08
   6  -3  -9   28.96    1.46
  -6  -3   9   26.64    1.36
  -6   3   9   28.41    1.37
   6   3  -9   30.22    1.24
   6   3  -9   28.51    1.41
   5  -3  -9   11.16    0.94
  -5  -3   9   11.10    0.89
   5   3  -9   12.18    0.96
  -5   3   9   10.33    0.87
  -4  -3   9    7.14    0.70
   4  -3  -9    6.24    0.70
   4   3  -9    7.02    0.74
   4   3  -9    7.59    0.67
  -4   3   9    6.93    0.71
  -3  -3   9   17.64    0.93
   3  -3  -9   16.96    0.91
  -3  -3   9   17.90    0.89
   3   3  -9   17.90    0.92
   3   3  -9   17.49    0.97
  -3   3   9   17.59    0.93
  -2  -3   9    3.69    0.43
   2  -3  -9    4.33    0.55
   2  -3  -9    4.14    0.50
  -2  -3   9    3.80    0.47
   2  -3  -9    5.03    0.38
  -2  -3   9    3.96    0.47
   2   3  -9    5.32    0.59
   2   3  -9    5.74    0.57
  -1  -3   9   12.11    0.68
  -1  -3   9   12.31    0.63
   1  -3  -9   12.71    0.71
  -1  -3   9   11.25    0.66
   1  -3  -9   12.15    0.61
   1  -3  -9   11.97    0.75
  -1   3   9   13.39    0.65
   1   3  -9   12.52    0.80
   0  -3  -9   11.65    0.65
   0  -3   9   13.56    0.76
   0  -3   9   12.63    0.69
   0  -3  -9   12.26    0.68
   0  -3  -9   11.86    0.74
   0   3   9   12.94    0.70
   0   3  -9   12.51    0.82
   1  -3   9    9.23    0.57
  -1  -3  -9    7.74    0.66
   1  -3   9    9.23    0.70
  -1  -3  -9    8.24    0.66
  -1  -3  -9    8.68    0.63
   1   3   9    7.82    0.60
  -1   3  -9    9.88    0.79
  -2  -3  -9    8.89    0.69
  -2  -3  -9    9.04    0.74
  -2  -3  -9    8.76    0.70
   2  -3   9    9.12    0.74
   2  -3   9    9.08    0.55
  -2   3  -9    9.45    0.81
   2   3   9    9.69    0.68
   3  -3   9   10.74    0.55
  -3  -3  -9   10.80    0.88
   3  -3   9   12.10    0.86
   3   3   9   11.12    0.81
  -3   3  -9   10.87    0.87
   4  -3   9    0.49    0.46
   4   3   9    0.42    0.45
  -4   3  -9   -0.15    0.48
   4   3   9    0.00    0.37
   5  -3   9    2.66    0.67
  -5   3  -9    1.70    0.68
   5   3   9    3.81    0.63
   5   3   9    2.78    0.59
   6  -3   9   13.40    1.16
   6   3   9   12.07    1.09
   6   3   9   15.86    1.06
   7  -4  -9   -0.03    0.70
  -7   4   9   -0.27    0.59
   7   4  -9    0.28    0.57
   6  -4  -9    1.09    0.62
  -6  -4   9    2.56    0.63
   6   4  -9    1.49    0.60
  -6   4   9    1.66    0.60
   5  -4  -9    0.71    0.55
  -5  -4   9    1.10    0.50
   5   4  -9    1.42    0.61
  -5   4   9    1.98    0.58
   5   4  -9    1.82    0.56
  -4  -4   9   19.03    1.08
   4  -4  -9   22.68    1.13
  -4   4   9   19.64    1.08
   4   4  -9   20.80    1.09
   4   4  -9   21.26    1.12
   3  -4  -9   -0.96    0.38
  -3  -4   9    0.12    0.38
  -3  -4   9    0.47    0.39
   3  -4  -9    0.65    0.37
   3   4  -9    0.19    0.42
  -2  -4   9    8.12    0.66
  -2  -4   9    7.75    0.67
  -2  -4   9    7.74    0.64
   2  -4  -9    6.44    0.70
   2  -4  -9    7.46    0.64
   2   4  -9    8.58    0.75
  -1  -4   9   15.22    0.80
  -1  -4   9   16.74    0.81
   1  -4  -9   16.53    0.66
  -1  -4   9   17.49    0.87
   1  -4  -9   16.63    0.96
   1   4  -9   15.31    0.91
  -1   4   9   16.73    0.79
   0  -4   9    3.18    0.48
   0  -4  -9    3.12    0.41
   0  -4   9    4.12    0.45
   0  -4  -9    3.36    0.55
   0   4  -9    4.29    0.60
   0   4   9    5.10    0.51
  -1  -4  -9    7.85    0.75
  -1  -4  -9    8.39    0.67
   1  -4   9    7.82    0.52
   1  -4   9    7.27    0.69
  -1   4  -9    7.92    0.77
   1   4   9    7.51    0.63
  -2  -4  -9   12.59    0.83
   2  -4   9   10.78    0.54
   2  -4   9   11.53    0.85
  -2  -4  -9   11.80    0.84
   2   4   9   12.28    0.80
  -2   4  -9   12.34    0.92
  -3  -4  -9    2.02    0.59
   3  -4   9    2.87    0.55
  -3   4  -9    1.80    0.58
   3   4   9    2.09    0.50
   4  -4   9    9.89    0.93
  -4   4  -9   10.54    0.96
   4   4   9   11.50    0.93
   5  -4   9    2.99    0.71
   5   4   9    1.65    0.63
  -5   4  -9    4.22    0.78
  -6  -5   9   13.49    1.19
  -6   5   9   13.75    1.16
   6   5  -9   13.29    1.14
  -5  -5   9   12.82    1.09
  -5   5   9   13.74    1.01
  -4  -5   9    2.73    0.62
  -4  -5   9    3.19    0.61
  -4   5   9    3.54    0.61
  -3  -5   9    7.89    0.75
   3  -5  -9    7.43    0.82
  -3  -5   9    7.08    0.75
  -2  -5   9   10.63    0.74
   2  -5  -9   11.41    0.95
  -2  -5   9   11.20    0.80
   2   5  -9   11.69    0.87
   2   5  -9   10.45    0.69
   1  -5  -9   32.19    0.90
  -1  -5   9   32.65    1.25
   1  -5  -9   30.83    1.39
  -1  -5   9   32.72    1.32
  -1  -5   9   31.49    1.16
  -1   5   9   33.55    1.23
   1   5  -9   34.93    1.37
   0  -5   9    0.52    0.39
   0  -5  -9    1.81    0.37
   0  -5  -9    1.18    0.52
   0  -5   9    0.69    0.31
   0   5   9    1.14    0.43
   0   5  -9    1.03    0.46
  -1  -5  -9    9.51    0.86
  -1  -5  -9    9.06    0.68
   1  -5   9    8.30    0.52
   1  -5   9    8.35    0.80
  -1   5  -9   10.55    0.90
   1   5   9    9.57    0.75
  -2  -5  -9   26.19    1.31
   2  -5   9   24.95    1.28
  -2  -5  -9   25.99    1.14
   2   5   9   28.10    1.25
  -2   5  -9   25.81    1.34
   3  -5   9    6.02    0.76
  -3  -5  -9    4.50    0.74
  -3   5  -9    5.13    0.77
   3   5   9    4.66    0.67
   4  -5   9    1.52    0.65
  -4  -5  -9    2.69    0.75
   4   5   9    2.75    0.60
  -4   5  -9    1.98    0.74
  -5   5  -9    1.08    0.74
  -5  -6   9    1.98    0.73
  -5   6   9    0.94    0.62
  -4  -6   9    3.02    0.62
  -4  -6   9    2.49    0.68
   4  -6  -9    2.07    0.66
  -3  -6   9    9.96    0.95
  -3  -6   9    8.43    0.79
   3  -6  -9    8.88    0.92
   2  -6  -9    0.22    0.51
  -2  -6   9    0.43    0.37
  -2  -6   9    0.06    0.42
   2   6  -9    0.57    0.40
   1  -6  -9    6.56    0.85
  -1  -6   9    7.78    0.65
  -1  -6   9    7.23    0.78
  -1   6   9    7.54    0.72
   0  -6  -9    1.08    0.53
   0  -6  -9    0.66    0.36
   0  -6   9    1.02    0.50
   0  -6   9    1.92    0.36
   0   6   9    1.88    0.50
   1  -6   9    0.79    0.49
  -1  -6  -9    0.61    0.53
  -1  -6  -9    0.46    0.39
   1   6   9   -0.02    0.42
  -2  -6  -9    4.41    0.64
  -2  -6  -9    3.41    0.77
   2  -6   9    3.47    0.70
   2   6   9    5.02    0.68
  -2   6  -9    4.90    0.80
   3  -6   9    6.80    0.89
  -3  -6  -9    6.15    0.80
   3   6   9    6.39    0.81
  -3   6  -9    6.48    0.97
  -4  -6  -9    1.38    0.77
  -4   6  -9    3.60    0.91
  -4  -7   9    3.26    0.84
  -4  -7   9    4.12    0.75
   4  -7  -9    4.74    0.82
  -3  -7   9    2.32    0.67
  -3  -7   9    0.30    0.51
   3  -7  -9    2.19    0.76
   2  -7  -9   13.44    1.18
  -2  -7   9   13.82    0.90
   2   7  -9   11.96    0.86
   1  -7  -9   10.95    1.10
  -1  -7   9   11.34    0.73
   1   7  -9   11.95    0.88
  -1   7   9   13.26    1.03
   0  -7   9    1.05    0.32
   0  -7   9    0.37    0.56
   0  -7  -9    1.14    0.65
   0   7   9    0.28    0.47
   1  -7   9    1.21    0.64
  -1  -7  -9    1.35    0.43
  -1  -7  -9    0.38    0.60
   1   7   9    0.80    0.54
   2  -7   9   29.71    1.61
  -2  -7  -9   30.84    1.64
  -2  -7  -9   30.44    1.28
   2   7   9   32.17    1.54
  -3  -7  -9    1.67    0.85
  -1  -8   9   11.73    0.73
  -1   8   9   15.18    1.20
   1   8  -9   14.59    1.04
   0   8   9    3.75    0.77
   7   0 -10    7.99    0.99
  -7   0  10    7.22    0.85
  -6   0  10    2.14    0.61
   6   0 -10    1.44    0.58
   6   0 -10    1.91    0.38
  -5   0  10   10.13    0.84
   5   0 -10    9.30    0.59
   5   0 -10   11.59    0.94
   4   0 -10    1.23    0.47
  -4   0  10    1.67    0.41
   4   0 -10    0.91    0.33
  -3   0  10   14.51    0.78
   3   0 -10   13.07    0.68
   3   0 -10   14.09    0.85
   2   0 -10    9.15    0.63
  -2   0  10    8.85    0.58
   2   0 -10    9.18    0.71
  -1   0  10    0.66    0.31
  -1   0  10    0.16    0.24
  -1   0  10    0.27    0.25
   1   0 -10    0.33    0.30
   1   0 -10    0.14    0.32
   0   0  10    2.45    0.33
   0   0  10    2.76    0.38
   0   0 -10    2.55    0.46
   0   0  10    2.67    0.40
   0   0 -10    2.39    0.42
   1   0  10   25.55    1.02
  -1   0 -10   24.82    1.11
   1   0  10   24.77    0.98
  -1   0 -10   25.93    1.08
  -2   0 -10    0.22    0.47
   2   0  10   -0.24    0.25
   2   0  10    0.21    0.31
   3   0  10    0.78    0.39
   3   0  10    0.38    0.31
  -3   0 -10    0.11    0.50
  -4   0 -10   42.83    1.63
   4   0  10   39.98    1.35
   4   0  10   39.94    1.55
   5   0  10   22.16    1.23
   5   0  10   21.51    0.98
  -5   0 -10   21.77    1.28
   6   0  10    4.00    0.78
  -6   0 -10    2.19    0.80
   6   0  10    2.62    0.50
   7  -1 -10    0.59    0.66
  -7  -1  10    0.57    0.53
   7   1 -10    1.71    0.42
   7   1 -10    1.21    0.69
  -7   1  10    0.73    0.57
  -6  -1  10   20.83    1.18
   6  -1 -10   24.90    1.30
   6   1 -10   23.26    1.29
  -6   1  10   21.43    1.21
   6   1 -10   24.55    0.96
   5  -1 -10    5.71    0.41
  -5  -1  10    7.24    0.73
   5  -1 -10    5.68    0.73
   5   1 -10    5.63    0.73
  -5   1  10    5.55    0.67
   4  -1 -10   13.84    0.62
   4  -1 -10   14.02    0.90
  -4  -1  10   14.41    0.84
  -4   1  10   14.68    0.86
   4   1 -10   14.60    0.77
   4   1 -10   15.05    0.95
   3  -1 -10   36.68    1.40
  -3  -1  10   36.91    1.31
   3  -1 -10   40.44    1.15
   3   1 -10   41.04    1.47
   3   1 -10   36.96    1.23
  -3   1  10   37.89    1.36
   2  -1 -10    2.64    0.49
  -2  -1  10    2.10    0.37
   2  -1 -10    2.68    0.39
  -2  -1  10    2.10    0.44
  -2   1  10    1.75    0.36
   2   1 -10    1.27    0.46
   2   1 -10    2.67    0.41
  -1  -1  10    8.46    0.53
   1  -1 -10    7.54    0.57
   1  -1 -10    6.27    0.62
  -1  -1  10    6.97    0.50
  -1  -1  10    8.04    0.61
  -1   1  10    8.11    0.51
  -1   1  10    6.96    0.53
   1   1 -10    7.93    0.63
   1   1 -10    7.76    0.68
   0  -1  10   40.73    1.27
   0  -1  10   40.89    1.27
   0  -1 -10   38.66    1.35
   0  -1 -10   38.61    1.28
   0   1  10   40.84    1.30
   0   1 -10   40.96    1.33
   0   1  10   41.35    1.25
   0   1  10   40.68    1.21
   0   1 -10   41.84    1.46
  -1  -1 -10   14.17    0.85
  -1  -1 -10   14.46    0.84
   1  -1  10   13.82    0.77
   1  -1  10   13.37    0.71
  -1   1 -10   14.42    0.89
   1   1  10   15.36    0.79
   1   1  10   13.69    0.75
   2  -1  10   15.35    0.88
  -2  -1 -10   17.29    0.96
  -2  -1 -10   16.94    0.94
   2  -1  10   15.17    0.77
   2   1  10   18.61    0.88
  -2   1 -10   16.38    0.99
   2   1  10   17.22    0.91
  -3  -1 -10   20.03    1.07
   3  -1  10   20.50    0.89
   3  -1  10   20.69    1.07
  -3   1 -10   20.05    1.13
   3   1  10   19.34    0.95
   3   1  10   22.34    1.07
   4  -1  10   26.14    1.01
   4  -1  10   27.36    1.30
  -4  -1 -10   26.18    1.29
   4   1  10   23.89    1.08
   4   1  10   24.70    1.20
  -4   1 -10   26.09    1.29
   5  -1  10   14.68    0.75
  -5  -1 -10   16.77    1.10
   5  -1  10   14.04    1.03
   5   1  10   13.82    1.01
  -5   1 -10   14.46    1.06
   5   1  10   14.47    0.89
  -6  -1 -10    4.64    0.94
   6  -1  10    4.87    0.51
   6  -1  10    6.15    0.89
   6   1  10    4.67    0.76
  -6   1 -10    5.57    0.91
   6   1  10    4.48    0.62
  -7  -2  10    6.64    0.87
   7  -2 -10    5.81    0.96
   7   2 -10    7.82    1.08
   7   2 -10    7.60    0.69
  -7   2  10    8.76    0.95
   6  -2 -10    6.96    0.90
  -6  -2  10    7.67    0.85
  -6   2  10    7.99    0.88
   6   2 -10    7.81    0.68
   6   2 -10    7.71    0.96
  -5  -2  10    2.18    0.49
   5  -2 -10    2.41    0.60
  -5   2  10    1.88    0.51
   5   2 -10    1.37    0.56
   5   2 -10    2.30    0.47
   4  -2 -10   21.16    1.10
  -4  -2  10   22.52    1.07
   4   2 -10   23.03    1.01
   4   2 -10   24.15    1.18
  -4   2  10   23.71    1.14
  -3  -2  10   35.56    1.28
   3  -2 -10   33.96    1.32
   3  -2 -10   35.11    0.99
   3   2 -10   36.20    1.40
  -3   2  10   32.83    1.32
   3   2 -10   34.38    1.26
  -2  -2  10   20.80    0.88
  -2  -2  10   21.38    0.94
   2  -2 -10   19.65    0.78
   2  -2 -10   20.54    0.99
  -2   2  10   21.38    0.98
   2   2 -10   20.31    1.03
   2   2 -10   20.64    0.96
   1  -2 -10   10.01    0.61
  -1  -2  10    9.86    0.62
   1  -2 -10   11.89    0.73
  -1  -2  10   10.72    0.67
  -1  -2  10   10.44    0.59
   1   2 -10   10.70    0.72
  -1   2  10   10.28    0.58
   1   2 -10    9.92    0.76
   0  -2 -10    7.81    0.65
   0  -2  10    8.04    0.61
   0  -2 -10    7.20    0.63
   0  -2  10    7.60    0.58
   0  -2 -10    6.91    0.59
   0   2  10    7.66    0.56
   0   2 -10    8.03    0.75
  -1  -2 -10   36.10    1.28
  -1  -2 -10   34.03    1.18
  -1  -2 -10   36.40    1.27
   1  -2  10   32.97    1.24
   1  -2  10   32.20    1.13
  -1   2 -10   36.48    1.43
   1   2  10   34.87    1.24
  -2  -2 -10   26.66    1.17
   2  -2  10   24.08    1.11
   2  -2  10   24.23    0.97
  -2  -2 -10   27.96    1.17
   2   2  10   23.14    1.04
   2   2  10   25.27    1.08
  -2   2 -10   24.99    1.23
  -3  -2 -10   -0.75    0.43
   3  -2  10   -0.15    0.28
   3  -2  10   -0.40    0.34
   3   2  10   -0.01    0.33
   3   2  10    0.21    0.37
  -3   2 -10   -0.41    0.48
   4  -2  10    1.97    0.36
   4  -2  10    0.06    0.42
  -4  -2 -10    1.51    0.58
   4   2  10    1.59    0.47
  -4   2 -10    0.89    0.53
   4   2  10    1.23    0.48
   5  -2  10    8.01    0.52
   5  -2  10    8.66    0.91
   5   2  10    8.08    0.86
  -5   2 -10    8.49    0.97
   5   2  10    7.14    0.78
   7  -3 -10    3.87    0.87
  -7  -3  10    0.85    0.65
   7   3 -10    2.76    0.87
   7   3 -10    2.48    0.64
  -7   3  10    3.48    0.78
   6  -3 -10    2.45    0.69
  -6  -3  10    3.54    0.69
  -6   3  10    1.25    0.61
   6   3 -10    2.84    0.82
   6   3 -10    3.41    0.59
  -5  -3  10   11.56    0.91
   5  -3 -10   13.43    0.99
   5   3 -10   11.72    0.85
   5   3 -10   15.51    1.08
  -5   3  10   13.40    0.96
  -4  -3  10    3.76    0.58
   4  -3 -10    4.04    0.65
   4   3 -10    3.86    0.57
   4   3 -10    3.35    0.60
  -4   3  10    4.18    0.65
   3  -3 -10   11.21    0.80
  -3  -3  10   11.93    0.76
  -3  -3  10   12.20    0.83
  -3   3  10   11.74    0.80
   3   3 -10   12.40    0.91
   3   3 -10   11.88    0.79
  -2  -3  10   30.16    1.10
  -2  -3  10   28.72    1.15
   2  -3 -10   29.99    1.16
   2  -3 -10   28.58    0.90
   2  -3 -10   28.27    1.23
   2   3 -10   30.89    1.29
   1  -3 -10   25.39    0.92
  -1  -3  10   24.59    0.93
  -1  -3  10   27.07    1.05
  -1  -3  10   24.77    1.02
   1  -3 -10   26.40    1.14
   1  -3 -10   25.69    1.04
  -1   3  10   27.69    1.00
   1   3 -10   27.06    1.21
   0  -3  10   22.62    1.04
   0  -3  10   26.53    1.02
   0  -3 -10   24.75    0.99
   0  -3 -10   23.40    1.05
   0  -3 -10   24.45    0.97
   0   3  10   26.35    1.02
   0   3 -10   23.62    1.15
   1  -3  10    2.77    0.50
  -1  -3 -10    3.21    0.50
   1  -3  10    3.05    0.43
  -1  -3 -10    3.35    0.50
  -1  -3 -10    3.27    0.52
   1   3  10    2.87    0.45
  -1   3 -10    4.24    0.64
  -2  -3 -10    8.57    0.77
   2  -3  10    7.22    0.71
   2  -3  10    7.67    0.54
  -2   3 -10    8.22    0.89
   2   3  10    8.45    0.73
   3  -3  10    6.19    0.49
   3  -3  10    7.05    0.77
  -3  -3 -10    6.78    0.81
   3   3  10    4.82    0.61
  -3   3 -10    5.52    0.74
   4  -3  10    4.26    0.68
   4  -3  10    3.91    0.37
   4   3  10    3.48    0.63
  -4   3 -10    3.93    0.73
   4   3  10    3.28    0.60
   5  -3  10    0.44    0.57
  -5   3 -10    0.95    0.64
   5   3  10    0.24    0.53
   5   3  10    1.66    0.58
   6  -4 -10    6.63    0.93
  -6  -4  10    7.05    0.92
   6   4 -10    8.96    0.88
   6   4 -10    7.63    1.01
  -6   4  10    9.04    0.97
  -5  -4  10    3.17    0.68
   5  -4 -10    2.24    0.69
   5   4 -10    2.55    0.71
  -5   4  10    2.27    0.61
  -4  -4  10   12.97    0.91
   4  -4 -10   10.98    0.89
   4   4 -10   12.89    1.01
  -4   4  10   11.89    0.89
   3  -4 -10   11.13    0.87
  -3  -4  10   12.51    0.85
  -3  -4  10   10.28    0.78
   3   4 -10   12.14    0.96
  -2  -4  10   16.31    0.89
   2  -4 -10   16.32    1.00
   2  -4 -10   16.91    0.59
  -2  -4  10   17.61    0.89
   2  -4 -10   15.97    0.91
   2   4 -10   19.13    1.05
   1  -4 -10    0.31    0.36
  -1  -4  10   -0.05    0.29
  -1  -4  10   -0.02    0.35
   1  -4 -10    0.02    0.27
  -1   4  10   -0.42    0.26
   1   4 -10    0.64    0.44
   0  -4  10    3.39    0.53
   0  -4  10    2.43    0.42
   0  -4 -10    1.65    0.49
   0  -4 -10    3.34    0.46
   0   4 -10    2.72    0.60
   0   4  10    2.82    0.44
  -1  -4 -10    6.97    0.66
   1  -4  10    7.22    0.74
  -1  -4 -10    7.14    0.74
   1  -4  10    7.42    0.57
   1   4  10    6.88    0.65
  -1   4 -10    6.16    0.80
  -2  -4 -10   19.75    1.06
   2  -4  10   19.37    1.09
   2  -4  10   18.94    0.76
   2   4  10   18.93    1.04
  -2   4 -10   20.54    1.18
  -3  -4 -10    1.35    0.61
   3  -4  10    0.44    0.45
  -3   4 -10    0.24    0.58
   3   4  10    1.28    0.51
   4  -4  10    0.36    0.55
  -4   4 -10    0.01    0.61
   4   4  10    0.27    0.44
   5  -4  10    5.71    0.90
   5   4  10    5.07    0.82
  -5   4 -10    6.04    0.91
  -6  -5  10   19.79    1.32
  -6   5  10   22.22    1.34
  -5  -5  10    7.51    0.94
  -5   5  10    7.83    0.95
  -4  -5  10    2.29    0.60
  -4  -5  10    4.60    0.74
  -4   5  10    3.66    0.66
  -3  -5  10    0.10    0.46
  -3  -5  10    1.17    0.50
   3  -5 -10    0.99    0.50
   3   5 -10    0.99    0.58
   2  -5 -10   17.83    1.10
  -2  -5  10   18.18    0.97
  -2  -5  10   19.53    1.04
   2   5 -10   18.03    1.08
   1  -5 -10   19.21    1.14
   1  -5 -10   21.30    0.76
  -1  -5  10   20.40    1.10
  -1  -5  10   19.85    0.95
   1   5 -10   20.51    1.13
  -1   5  10   23.23    1.04
   0  -5  10   12.76    0.72
   0  -5 -10   12.65    0.70
   0  -5  10   13.64    0.93
   0  -5 -10   13.30    0.95
   0   5 -10   13.68    0.99
   0   5  10   14.95    0.89
  -1  -5 -10    3.37    0.55
   1  -5  10    3.28    0.40
   1  -5  10    2.77    0.58
  -1  -5 -10    3.91    0.64
   1   5  10    2.27    0.48
  -1   5 -10    2.91    0.65
   2  -5  10   11.26    0.96
  -2  -5 -10   12.74    0.97
  -2  -5 -10   10.34    0.87
  -2   5 -10    9.68    1.03
   2   5  10   10.83    0.90
  -3  -5 -10    5.92    0.79
   3  -5  10    6.56    0.84
   3   5  10    4.95    0.72
  -3   5 -10    5.61    0.90
  -4  -5 -10    7.72    1.03
   4  -5  10    8.26    0.98
   4   5  10    8.09    0.90
  -4   5 -10    9.62    1.04
  -5  -6  10   -0.22    0.66
  -5   6  10   -0.68    0.58
  -4  -6  10    1.03    0.55
  -4  -6  10    0.18    0.60
  -3  -6  10   34.17    1.40
  -3  -6  10   32.60    1.52
   3  -6 -10   32.09    1.59
  -2  -6  10    4.09    0.58
   2  -6 -10    3.08    0.68
  -1  -6  10    1.72    0.59
  -1  -6  10    2.17    0.46
   1  -6 -10    2.31    0.68
  -1   6  10    1.79    0.51
   0  -6 -10    1.30    0.65
   0  -6  10    2.27    0.43
   0  -6  10    3.77    0.71
   0  -6 -10    2.98    0.46
   0   6  10    2.76    0.56
   1  -6  10   23.76    1.32
  -1  -6 -10   25.90    1.42
  -1  -6 -10   24.83    1.07
   1   6  10   28.19    1.35
  -1   6 -10   25.60    1.43
  -2  -6 -10    1.04    0.54
   2  -6  10    0.50    0.57
  -2  -6 -10   -1.47    0.56
   2   6  10    0.99    0.51
  -2   6 -10   -0.15    0.78
  -3  -6 -10    0.67    0.67
   3  -6  10   -0.25    0.57
   3   6  10    0.81    0.54
  -3   6 -10    0.90    0.79
  -4  -7  10    1.54    0.77
   3  -7 -10    0.15    0.63
  -3  -7  10   -0.07    0.60
  -3  -7  10    0.36    0.54
  -2  -7  10   13.17    0.86
   2  -7 -10   11.09    1.12
   1  -7 -10    9.28    1.04
  -1  -7  10   10.64    0.74
   1   7 -10   10.19    0.84
   0  -7  10    3.15    0.72
   0  -7 -10    3.86    0.87
   0   7  10    3.30    0.73
  -1  -7 -10    1.29    0.72
  -1  -7 -10    1.25    0.49
   1  -7  10   -0.45    0.60
   1   7  10    1.14    0.58
  -2  -7 -10   14.67    1.37
   2  -7  10   16.06    1.32
   2   7  10   12.77    1.07
   7   0 -11    1.94    0.76
  -7   0  11    2.79    0.73
   6   0 -11    4.92    0.78
  -6   0  11    3.70    0.66
   6   0 -11    4.67    0.48
  -5   0  11   10.30    0.86
   5   0 -11   10.88    0.94
   4   0 -11    5.94    0.71
   4   0 -11    5.52    0.52
  -4   0  11    5.80    0.65
   3   0 -11   55.31    1.81
  -3   0  11   54.40    1.70
   3   0 -11   54.27    1.54
   2   0 -11   39.39    1.46
   2   0 -11   42.41    1.32
  -2   0  11   39.76    1.32
  -1   0  11    8.89    0.58
   1   0 -11    8.38    0.64
   1   0 -11    9.80    0.74
  -1   0  11    9.87    0.61
   0   0  11    0.02    0.31
   0   0  11   -0.23    0.29
   0   0 -11   -0.40    0.33
   0   0 -11    0.34    0.40
   1   0  11   40.50    1.40
  -1   0 -11   43.86    1.57
  -1   0 -11   44.92    1.49
   1   0  11   41.64    1.38
   2   0  11   -0.17    0.31
  -2   0 -11   -0.19    0.43
   2   0  11    0.23    0.34
  -3   0 -11    0.66    0.59
   3   0  11    0.59    0.41
   3   0  11    1.13    0.39
   4   0  11   14.86    0.85
  -4   0 -11   14.42    1.05
   4   0  11   13.66    0.96
   5   0  11   -0.36    0.56
   5   0  11    0.57    0.44
  -5   0 -11   -0.02    0.72
   7  -1 -11    7.96    1.04
  -7  -1  11    9.43    1.03
  -7   1  11   10.51    1.04
   7   1 -11    9.49    0.69
   7   1 -11    9.92    1.10
   6  -1 -11    3.74    0.72
  -6  -1  11    3.12    0.68
  -6   1  11    4.38    0.74
   6   1 -11    3.68    0.52
   6   1 -11    3.49    0.75
   5  -1 -11   -0.05    0.50
   5  -1 -11   -0.08    0.27
  -5  -1  11   -0.21    0.37
   5   1 -11   -0.05    0.46
  -5   1  11    0.69    0.42
   5   1 -11   -0.70    0.34
   4  -1 -11   41.16    1.58
  -4  -1  11   40.65    1.50
   4  -1 -11   40.67    1.18
   4   1 -11   41.07    1.35
   4   1 -11   42.19    1.62
  -4   1  11   41.23    1.55
   3  -1 -11   24.85    1.18
  -3  -1  11   28.83    1.14
   3  -1 -11   28.39    0.98
  -3   1  11   28.98    1.19
   3   1 -11   26.42    1.24
   3   1 -11   26.92    1.07
   2  -1 -11    5.12    0.63
  -2  -1  11    6.25    0.58
   2  -1 -11    5.78    0.52
   2   1 -11    5.89    0.59
   2   1 -11    6.42    0.69
  -2   1  11    6.88    0.61
   1  -1 -11   16.91    0.93
   1  -1 -11   15.76    0.79
  -1  -1  11   15.71    0.76
  -1  -1  11   16.15    0.83
  -1  -1  11   16.50    0.76
   1   1 -11   15.65    0.85
  -1   1  11   15.74    0.74
  -1   1  11   16.13    0.80
   1   1 -11   16.58    0.93
   0  -1 -11   80.48    2.05
   0  -1 -11   76.94    2.16
   0  -1  11   76.18    2.02
   0  -1  11   73.99    1.98
   0   1  11   80.30    1.96
   0   1  11   78.14    2.01
   0   1 -11   79.04    2.08
   0   1 -11   77.10    2.25
   1  -1  11    6.87    0.58
  -1  -1 -11    7.08    0.69
  -1  -1 -11    6.18    0.69
   1  -1  11    6.32    0.59
   1   1  11    6.82    0.61
   1   1  11    5.67    0.58
  -1   1 -11    6.54    0.72
  -2  -1 -11    5.78    0.75
   2  -1  11    5.07    0.63
   2  -1  11    5.46    0.53
   2   1  11    5.68    0.60
  -2   1 -11    6.57    0.79
   2   1  11    5.95    0.61
  -3  -1 -11   24.92    1.27
   3  -1  11   25.83    1.25
   3  -1  11   25.45    1.02
   3   1  11   24.39    1.19
  -3   1 -11   23.57    1.26
   3   1  11   25.08    1.11
   4  -1  11   18.03    1.11
   4  -1  11   18.50    0.87
  -4  -1 -11   18.24    1.17
   4   1  11   14.47    1.01
   4   1  11   15.78    0.93
  -4   1 -11   16.24    1.14
   5  -1  11    5.43    0.81
  -5  -1 -11    6.72    0.99
   5  -1  11    6.54    0.60
  -5   1 -11    5.45    0.92
   5   1  11    6.12    0.71
   5   1  11    4.35    0.79
  -7  -2  11    8.63    1.04
   7  -2 -11   10.99    1.18
   7   2 -11   10.72    0.80
   7   2 -11    9.97    1.19
  -7   2  11   10.27    1.06
   6  -2 -11    6.74    0.91
  -6  -2  11    7.71    0.88
   6   2 -11    8.12    0.71
   6   2 -11    7.88    0.96
  -6   2  11    6.21    0.83
   5  -2 -11    6.52    0.81
  -5  -2  11    6.13    0.75
  -5   2  11    5.61    0.74
   5   2 -11    7.66    0.84
   5   2 -11    5.60    0.64
   4  -2 -11   -0.16    0.24
   4  -2 -11   -0.28    0.48
  -4  -2  11    0.04    0.36
   4   2 -11   -0.35    0.34
  -4   2  11    0.21    0.39
   4   2 -11   -0.13    0.42
   3  -2 -11   14.57    0.91
   3  -2 -11   14.08    0.66
  -3  -2  11   13.24    0.82
   3   2 -11   14.27    0.95
  -3   2  11   14.49    0.88
   3   2 -11   13.58    0.83
  -2  -2  11    1.00    0.35
  -2  -2  11    2.72    0.47
   2  -2 -11    0.63    0.44
   2  -2 -11    2.07    0.37
  -2   2  11    1.50    0.41
   2   2 -11    1.34    0.43
   2   2 -11    2.47    0.55
   1  -2 -11   23.78    1.07
  -1  -2  11   22.67    1.01
  -1  -2  11   23.79    0.89
  -1  -2  11   23.85    0.97
   1  -2 -11   22.34    0.92
   1   2 -11   22.56    1.11
  -1   2  11   21.89    0.96
  -1   2  11   21.50    0.87
   0  -2 -11   -0.53    0.38
   0  -2 -11    0.17    0.36
   0  -2  11    0.48    0.33
   0  -2 -11    0.19    0.37
   0  -2  11    0.39    0.31
   0   2 -11    0.35    0.39
   0   2  11    0.48    0.30
  -1  -2 -11    0.58    0.42
   1  -2  11    0.82    0.36
   1  -2  11    0.33    0.30
  -1  -2 -11    0.71    0.46
  -1   2 -11    0.13    0.40
   1   2  11    0.32    0.32
  -2  -2 -11   23.93    1.15
   2  -2  11   21.41    1.09
   2  -2  11   22.09    0.95
  -2  -2 -11   24.35    1.18
   2   2  11   21.62    1.05
  -2   2 -11   22.75    1.23
   3  -2  11   16.58    1.01
  -3  -2 -11   14.61    1.01
   3  -2  11   14.55    0.78
  -3   2 -11   13.86    1.03
   3   2  11   13.65    0.90
   3   2  11   13.72    0.88
   4  -2  11    1.86    0.55
  -4  -2 -11    0.78    0.66
   4  -2  11    0.99    0.37
  -4   2 -11   -0.04    0.63
   4   2  11    0.03    0.46
   4   2  11    0.44    0.50
   5  -2  11    2.45    0.40
   5  -2  11    2.36    0.68
  -5   2 -11    2.02    0.77
   5   2  11    2.44    0.65
   5   2  11    1.94    0.59
   7   3 -11    1.48    0.88
   6  -3 -11    3.65    0.87
  -6  -3  11    3.38    0.70
   6   3 -11    2.32    0.78
   6   3 -11    3.29    0.59
  -6   3  11    1.71    0.67
  -5  -3  11   12.89    0.95
   5  -3 -11   14.29    1.06
   5   3 -11   14.64    0.93
   5   3 -11   14.87    1.12
  -5   3  11   13.63    1.00
  -4  -3  11    3.36    0.60
   4  -3 -11    3.63    0.63
   4   3 -11    4.29    0.74
  -4   3  11    3.28    0.59
   4   3 -11    3.77    0.62
  -3  -3  11    4.87    0.66
  -3  -3  11    4.29    0.57
   3  -3 -11    4.59    0.38
   3  -3 -11    4.14    0.63
   3   3 -11    4.23    0.69
   3   3 -11    3.96    0.58
  -3   3  11    4.18    0.60
   2  -3 -11    7.47    0.54
  -2  -3  11    6.70    0.68
   2  -3 -11    7.07    0.70
  -2  -3  11    5.42    0.57
   2   3 -11    7.76    0.79
  -2   3  11    7.98    0.74
   1  -3 -11   20.47    1.00
   1  -3 -11   20.20    0.86
  -1  -3  11   19.69    0.94
  -1  -3  11   19.61    0.93
   1  -3 -11   19.27    1.02
   1   3 -11   19.79    1.08
   0  -3  11   15.85    0.89
   0  -3 -11   15.68    0.89
   0  -3  11   15.43    0.81
   0  -3 -11   14.82    0.82
   0  -3 -11   14.57    0.85
   0   3  11   14.47    0.80
   0   3 -11   14.81    0.96
   1  -3  11    8.18    0.60
  -1  -3 -11    9.87    0.80
   1  -3  11   10.43    0.80
  -1  -3 -11    7.94    0.73
   1   3  11    8.26    0.70
  -1   3 -11    9.67    0.86
  -2  -3 -11    0.74    0.55
   2  -3  11    1.55    0.49
   2  -3  11    1.35    0.35
   2   3  11    0.74    0.37
  -2   3 -11    0.92    0.66
   3  -3  11    1.22    0.51
   3  -3  11    2.20    0.38
   3   3  11    2.22    0.53
  -3   3 -11    1.30    0.65
   4  -3  11   14.45    0.63
   4  -3  11   14.19    1.06
   4   3  11   13.70    1.00
  -4   3 -11   13.66    1.14
   5  -3  11    5.75    0.84
   5   3  11    3.14    0.69
   5   3  11    3.35    0.76
  -6  -4  11    6.47    0.91
   6  -4 -11    5.52    0.90
   6   4 -11    6.98    1.01
  -6   4  11    6.05    0.92
   6   4 -11    4.12    0.71
  -5  -4  11    5.88    0.84
   5  -4 -11    6.02    0.83
   5   4 -11    6.93    0.81
  -5   4  11    6.13    0.85
   5   4 -11    8.39    1.02
  -4  -4  11    1.83    0.56
   4  -4 -11    2.68    0.63
  -4   4  11    2.46    0.58
   4   4 -11    2.73    0.71
   3  -4 -11   27.35    1.23
  -3  -4  11   27.36    1.23
  -3  -4  11   27.16    1.27
  -3   4  11   27.38    1.30
   3   4 -11   26.66    1.33
   2  -4 -11   19.37    0.69
  -2  -4  11   18.16    0.94
  -2  -4  11   19.17    0.98
   2  -4 -11   17.44    1.06
   2   4 -11   18.25    1.09
  -1  -4  11   21.45    1.06
  -1  -4  11   21.35    1.02
   1  -4 -11   23.45    0.90
   1  -4 -11   23.16    1.18
   1   4 -11   24.59    1.21
   0  -4 -11    0.93    0.49
   0  -4  11    0.90    0.36
   0  -4  11    1.54    0.44
   0  -4 -11    0.96    0.41
   0   4 -11    2.16    0.57
   0   4  11    0.61    0.37
  -1  -4 -11   24.63    1.19
  -1  -4 -11   25.74    1.12
   1  -4  11   23.83    1.20
   1  -4  11   24.85    1.00
  -1   4 -11   26.62    1.35
   1   4  11   25.34    1.17
   2  -4  11   34.02    1.48
  -2  -4 -11   36.07    1.45
   2  -4  11   32.39    1.10
  -2   4 -11   33.76    1.56
   2   4  11   34.78    1.42
   3  -4  11    3.14    0.36
  -3  -4 -11    1.98    0.76
   3  -4  11    3.53    0.64
  -3   4 -11    4.01    0.83
   3   4  11    3.74    0.65
   4  -4  11    4.68    0.82
   4   4  11    5.56    0.76
  -4   4 -11    5.64    0.90
  -5  -5  11    1.55    0.67
  -5   5  11    1.29    0.69
  -4  -5  11    3.25    0.69
  -4  -5  11    2.41    0.67
  -4   5  11    1.89    0.60
   3  -5 -11    5.67    0.79
  -3  -5  11    4.99    0.74
  -3  -5  11    3.11    0.63
   3   5 -11    4.55    0.78
   2  -5 -11    0.36    0.55
  -2  -5  11    1.28    0.45
   2   5 -11    0.28    0.57
   1  -5 -11    6.92    0.82
   1  -5 -11    6.03    0.51
  -1  -5  11    6.82    0.76
  -1  -5  11    7.56    0.67
   1   5 -11    7.87    0.87
   0  -5  11   12.32    0.93
   0  -5  11   13.25    0.76
   0  -5 -11   14.30    0.76
   0  -5 -11   13.69    1.00
   0   5 -11   17.11    1.12
   0   5  11   15.21    0.94
  -1  -5 -11    1.65    0.54
   1  -5  11    1.90    0.57
  -1  -5 -11    1.31    0.64
   1  -5  11    1.48    0.34
   1   5  11    2.27    0.52
  -1   5 -11    2.78    0.73
   2  -5  11    0.13    0.54
   2  -5  11   -0.03    0.27
  -2  -5 -11    0.33    0.57
  -2   5 -11    0.19    0.68
   2   5  11   -0.53    0.41
  -3  -5 -11    1.27    0.71
   3  -5  11    1.35    0.61
  -3   5 -11    0.78    0.74
   3   5  11    0.80    0.51
  -4  -5 -11    6.39    1.07
  -4  -6  11    9.66    0.95
  -4  -6  11   10.08    1.10
  -4   6  11    8.27    1.00
  -3  -6  11   11.91    0.96
  -3  -6  11   10.42    1.02
   3  -6 -11    9.20    1.02
  -2  -6  11    0.07    0.39
   2  -6 -11   -0.16    0.57
  -1  -6  11    8.75    0.93
   1  -6 -11    7.50    0.95
  -1  -6  11    8.57    0.73
   0  -6 -11   -0.46    0.63
   0  -6  11    0.85    0.57
   0  -6  11    0.89    0.37
   0  -6 -11    1.22    0.42
   0   6  11    1.31    0.54
  -1  -6 -11    2.39    0.73
   1  -6  11    3.72    0.43
  -1  -6 -11    2.14    0.53
   1  -6  11    3.12    0.70
  -1   6 -11    2.00    0.87
   1   6  11    3.35    0.66
  -2  -6 -11    0.23    0.57
   2  -6  11    0.72    0.63
  -2   6 -11    1.40    0.80
   2   6  11    0.46    0.53
  -3   6 -11   15.32    1.42
   2  -7 -11   -0.97    0.61
  -2  -7  11    0.00    0.47
  -1  -7  11    1.78    0.48
   1  -7 -11    3.42    0.86
   1   7 -11    2.10    0.65
   0  -7 -11    6.90    1.00
   0  -7  11    6.54    0.56
   0  -7  11    6.00    0.96
   0   7  11    8.15    0.93
   1  -7  11    0.93    0.73
  -1  -7 -11    2.39    0.90
   1   7  11    2.56    0.69
  -7   0  12    1.74    0.64
   6   0 -12    0.50    0.37
   6   0 -12   -0.59    0.60
  -6   0  12    0.19    0.47
   5   0 -12   47.28    1.38
   5   0 -12   45.24    1.83
  -5   0  12   47.60    1.74
   4   0 -12    0.47    0.38
   4   0 -12    0.49    0.49
  -4   0  12   -0.09    0.38
   3   0 -12    4.74    0.69
  -3   0  12    4.43    0.56
   3   0 -12    3.86    0.53
   2   0 -12    9.16    0.71
  -2   0  12    9.82    0.67
   2   0 -12    9.70    0.85
  -1   0  12   30.75    1.09
   1   0 -12   28.77    1.16
   1   0 -12   29.21    1.27
   0   0  12    0.23    0.33
   0   0 -12    0.12    0.40
   0   0  12    0.32    0.35
   0   0 -12   -0.30    0.42
   1   0  12    2.25    0.45
   1   0  12    0.54    0.38
  -1   0 -12    1.08    0.52
  -2   0 -12   45.88    1.80
   2   0  12   45.83    1.53
   2   0  12   45.67    1.61
   3   0  12    6.41    0.71
   3   0  12    7.56    0.70
  -3   0 -12    6.06    0.83
  -4   0 -12    8.21    1.03
   4   0  12    7.15    0.68
   4   0  12    6.30    0.80
   5   0  12    4.51    0.63
   5   0  12    7.11    0.92
  -5   0 -12    6.70    1.02
  -6  -1  12    3.92    0.75
   6  -1 -12    5.52    0.84
   6   1 -12    4.38    0.88
   6   1 -12    5.35    0.58
  -6   1  12    4.66    0.73
  -5  -1  12   10.35    0.89
   5  -1 -12    8.19    0.93
   5  -1 -12    8.45    0.57
   5   1 -12    9.77    0.74
  -5   1  12    8.68    0.88
   5   1 -12    8.54    0.91
   4  -1 -12   18.61    0.80
  -4  -1  12   17.55    1.00
   4  -1 -12   19.77    1.12
   4   1 -12   18.84    0.92
  -4   1  12   17.60    1.02
   4   1 -12   18.49    1.13
   3  -1 -12   13.96    0.74
  -3  -1  12   12.95    0.80
   3  -1 -12   14.39    0.94
   3   1 -12   12.99    0.94
  -3   1  12   12.97    0.84
   3   1 -12   13.88    0.82
   2  -1 -12    1.80    0.52
  -2  -1  12    1.60    0.40
   2  -1 -12    0.52    0.37
   2   1 -12    0.89    0.41
  -2   1  12    0.76    0.37
   2   1 -12    1.15    0.52
  -1  -1  12   39.64    1.39
   1  -1 -12   38.11    1.47
   1  -1 -12   39.90    1.34
  -1   1  12   42.82    1.37
   1   1 -12   40.39    1.55
   1   1 -12   40.67    1.42
   0  -1  12   16.34    0.88
   0  -1 -12   16.95    1.00
   0  -1  12   16.69    0.87
   0  -1 -12   17.43    0.91
   0   1 -12   14.83    0.97
   0   1  12   17.36    0.86
  -1  -1 -12    1.01    0.51
   1  -1  12    1.25    0.39
   1  -1  12    0.31    0.38
  -1  -1 -12    0.37    0.51
   1   1  12    1.75    0.45
   1   1  12    1.43    0.43
  -1   1 -12    1.42    0.56
   2  -1  12   10.28    0.81
   2  -1  12    9.83    0.69
  -2  -1 -12   12.17    0.98
  -2   1 -12    9.06    0.95
   2   1  12   10.52    0.80
   2   1  12    9.78    0.78
   3  -1  12    0.65    0.38
   3  -1  12    1.23    0.50
  -3  -1 -12    1.80    0.63
   3   1  12    0.85    0.47
   3   1  12    1.11    0.49
  -3   1 -12    1.38    0.67
   4  -1  12    2.48    0.49
   4  -1  12    3.31    0.68
  -4  -1 -12    2.43    0.80
  -4   1 -12    1.34    0.74
   4   1  12    1.20    0.55
   4   1  12    1.84    0.55
   5  -1  12    8.33    0.96
   5  -1  12    6.99    0.66
  -5  -1 -12    8.01    1.11
   5   1  12    5.44    0.83
  -5   1 -12    6.29    0.97
   5   1  12    7.01    0.75
  -6  -2  12   12.74    1.09
   6  -2 -12   13.00    1.16
  -6   2  12   12.64    1.08
   6   2 -12   11.71    0.81
   6   2 -12   12.95    1.21
  -5  -2  12    7.27    0.83
   5  -2 -12    7.66    0.89
   5   2 -12    7.42    0.73
   5   2 -12    7.15    0.92
  -5   2  12    6.65    0.81
  -4  -2  12    1.02    0.44
   4  -2 -12    0.64    0.55
   4  -2 -12    1.31    0.33
   4   2 -12    2.24    0.49
   4   2 -12    0.04    0.58
  -4   2  12    0.63    0.45
   3  -2 -12   11.34    0.64
  -3  -2  12   11.81    0.78
   3  -2 -12   12.01    0.90
   3   2 -12   14.33    0.89
   3   2 -12   11.79    0.93
  -3   2  12   12.60    0.85
  -2  -2  12    7.10    0.67
   2  -2 -12    5.37    0.54
  -2  -2  12    5.70    0.59
   2  -2 -12    6.41    0.73
   2   2 -12    6.65    0.77
  -2   2  12    6.34    0.67
   2   2 -12    6.88    0.69
  -1  -2  12   16.87    0.92
   1  -2 -12   15.67    0.92
   1  -2 -12   15.99    0.83
  -1   2  12   18.10    0.91
   1   2 -12   16.35    1.02
   0  -2  12    6.98    0.65
   0  -2  12    7.94    0.68
   0  -2 -12    8.07    0.69
   0  -2 -12    8.12    0.76
   0   2 -12    6.48    0.75
   0   2  12    5.45    0.57
   0   2  12    6.77    0.62
   1  -2  12   -0.54    0.32
  -1  -2 -12   -0.56    0.44
  -1  -2 -12   -0.28    0.48
   1  -2  12    0.59    0.37
  -1   2 -12    0.16    0.52
   1   2  12   -0.16    0.32
  -2  -2 -12    2.76    0.67
  -2  -2 -12    3.05    0.66
   2  -2  12    1.82    0.49
   2  -2  12    2.41    0.43
   2   2  12    2.14    0.50
  -2   2 -12    2.26    0.67
  -3  -2 -12    5.05    0.85
   3  -2  12    5.25    0.68
   3  -2  12    5.30    0.57
  -3   2 -12    5.85    0.88
   3   2  12    6.81    0.75
   3   2  12    5.20    0.70
   4  -2  12   -0.17    0.36
   4  -2  12    0.08    0.54
   4   2  12   -0.26    0.51
  -4   2 -12    0.94    0.73
   4   2  12    0.70    0.51
   5   2  12    3.92    0.71
   6  -3 -12    6.30    0.97
  -6  -3  12    5.85    0.81
  -6   3  12    6.19    0.90
   6   3 -12    5.90    0.99
   5  -3 -12    4.06    0.78
  -5  -3  12    3.73    0.72
  -5   3  12    4.41    0.75
   5   3 -12    3.93    0.69
   5   3 -12    5.03    0.83
  -4  -3  12   13.34    0.92
   4  -3 -12   12.13    0.97
   4   3 -12   14.90    1.18
  -4   3  12   13.02    0.97
   4   3 -12   14.23    0.95
   3  -3 -12   27.54    1.31
  -3  -3  12   27.80    1.22
   3  -3 -12   29.19    0.89
   3   3 -12   29.87    1.42
  -3   3  12   30.29    1.36
   3   3 -12   28.10    1.29
   2  -3 -12   29.45    1.30
  -2  -3  12   28.87    1.26
  -2  -3  12   30.72    1.19
   2  -3 -12   27.12    1.01
   2   3 -12   30.35    1.40
  -2   3  12   32.00    1.34
   1  -3 -12   14.35    0.93
  -1  -3  12   15.19    0.89
   1  -3 -12   15.19    0.80
   1   3 -12   16.70    1.03
   0  -3  12    5.73    0.63
   0  -3 -12    6.54    0.69
   0  -3 -12    4.83    0.59
   0  -3  12    6.12    0.62
   0  -3 -12    5.34    0.68
   0   3  12    5.31    0.61
   0   3 -12    6.41    0.75
   1  -3  12   20.57    0.95
   1  -3  12   18.19    1.06
  -1  -3 -12   18.72    1.02
  -1   3 -12   20.61    1.25
   1   3  12   21.79    1.08
   2  -3  12   13.47    0.77
   2  -3  12   13.59    0.96
  -2  -3 -12   13.58    1.03
  -2   3 -12   12.48    1.09
   2   3  12   12.94    0.89
   3  -3  12    1.65    0.41
   3  -3  12    3.06    0.64
   3   3  12    1.58    0.53
  -3   3 -12    1.34    0.74
   4  -3  12   10.60    0.60
   4  -3  12   10.64    1.02
  -4   3 -12   11.36    1.16
   4   3  12    9.84    0.97
   6  -4 -12   22.89    1.46
   6   4 -12   26.24    1.64
   6   4 -12   22.67    1.30
  -5  -4  12   24.64    1.36
   5  -4 -12   21.45    1.36
   5   4 -12   21.69    1.24
   5   4 -12   24.38    1.49
  -5   4  12   22.87    1.34
   4  -4 -12    2.30    0.72
  -4  -4  12    2.58    0.61
  -4   4  12    0.78    0.54
   4   4 -12    3.48    0.77
  -3  -4  12    1.69    0.51
  -3  -4  12    0.77    0.52
  -3   4  12    0.78    0.50
   3   4 -12    2.17    0.68
   2  -4 -12    4.12    0.45
  -2  -4  12    3.92    0.60
   2   4 -12    3.00    0.68
  -1  -4  12    1.75    0.48
   1  -4 -12    3.39    0.63
   1  -4 -12    1.97    0.45
   1   4 -12    1.83    0.59
   0  -4 -12    3.09    0.67
   0  -4 -12    3.41    0.53
   0  -4  12    2.59    0.48
   0  -4  12    2.11    0.57
   0   4  12    2.87    0.54
   0   4 -12    4.08    0.74
   1  -4  12    3.17    0.49
  -1  -4 -12    2.93    0.58
   1  -4  12    3.43    0.62
  -1   4 -12    3.70    0.77
   1   4  12    2.87    0.54
  -2  -4 -12    9.93    0.91
   2  -4  12    8.01    0.61
   2  -4  12    8.22    0.87
   2   4  12    7.94    0.78
  -2   4 -12    9.04    1.03
  -3  -4 -12    2.29    0.75
   3  -4  12    2.31    0.37
   3  -4  12    2.59    0.64
  -3   4 -12    2.20    0.81
   3   4  12    3.23    0.68
  -5  -5  12   -0.49    0.63
  -4  -5  12    0.34    0.56
  -4   5  12   -0.81    0.55
  -3  -5  12    4.61    0.71
  -3  -5  12    4.04    0.71
   3   5 -12    4.25    0.88
  -3   5  12    4.27    0.72
  -2  -5  12   11.07    0.83
   2  -5 -12    9.41    0.99
   2   5 -12   10.44    1.00
   1  -5 -12    1.86    0.43
  -1  -5  12    2.40    0.52
   1  -5 -12    1.06    0.59
   1   5 -12    1.58    0.70
   0  -5  12    0.57    0.38
   0  -5 -12    0.27    0.59
   0  -5 -12   -0.20    0.41
   0  -5  12    1.08    0.55
   0   5  12    0.70    0.45
   0   5 -12    1.12    0.67
   1  -5  12    4.16    0.49
  -1  -5 -12    3.15    0.58
   1  -5  12    3.96    0.73
  -1   5 -12    2.93    0.84
   1   5  12    3.03    0.62
   2  -5  12    7.83    0.90
   2  -5  12    8.15    0.55
  -2  -5 -12    7.57    0.88
   2   5  12    7.41    0.84
  -3  -5 -12   -0.37    0.73
   3  -5  12   -0.63    0.61
   3   5  12   -0.24    0.52
  -3   5 -12   -0.36    0.83
  -4  -6  12    4.87    0.83
  -4  -6  12    3.07    0.89
   3  -6 -12    5.86    0.94
  -3  -6  12    6.11    0.79
  -2  -6  12    6.25    0.72
   2  -6 -12    6.03    0.93
   1  -6 -12   26.35    1.49
  -1  -6  12   29.35    1.21
   0  -6 -12   10.52    0.73
   0  -6 -12    9.36    1.07
   0  -6  12    9.36    0.71
   0  -6  12   10.82    1.04
   0   6  12   10.25    0.98
  -1  -6 -12    1.59    0.60
   1  -6  12    2.17    0.67
  -1  -6 -12   -0.02    0.71
   1  -6  12    1.22    0.38
  -1   6 -12    1.30    0.84
   1   6  12    0.06    0.53
   2  -6  12   18.47    1.35
  -2   6 -12   25.41    1.68
   2   6  12   22.62    1.38
   6   0 -13   11.54    0.69
   6   0 -13    9.72    1.10
  -6   0  13   11.24    1.03
  -5   0  13   16.67    1.05
   5   0 -13   14.25    1.09
   5   0 -13   14.86    0.81
   4   0 -13    0.34    0.38
  -4   0  13   -0.32    0.37
   4   0 -13   -0.06    0.55
  -3   0  13    0.23    0.38
   3   0 -13    1.12    0.44
   3   0 -13   -0.27    0.51
   2   0 -13    1.35    0.52
  -2   0  13    1.21    0.41
   2   0 -13    1.21    0.46
   1   0 -13    0.14    0.47
   1   0 -13    0.47    0.46
   0   0  13   -0.30    0.38
   0   0 -13    0.00    0.46
   0   0 -13   -0.59    0.45
   1   0  13   22.15    1.07
   1   0  13   21.96    1.10
  -1   0 -13   23.68    1.27
   2   0  13    0.22    0.43
   2   0  13   -0.14    0.40
  -2   0 -13   -0.23    0.62
   3   0  13    1.33    0.54
   3   0  13    2.84    0.53
  -3   0 -13    1.74    0.81
  -4   0 -13   16.75    1.39
   4   0  13   13.23    0.91
   4   0  13   12.69    1.10
   6  -1 -13    7.73    1.03
  -6  -1  13    7.19    0.91
  -6   1  13    7.53    0.91
   6   1 -13    7.89    0.70
   6   1 -13    8.03    1.05
  -5  -1  13   -0.48    0.41
   5  -1 -13   -1.45    0.54
  -5   1  13   -0.41    0.44
   5   1 -13   -1.23    0.53
   5   1 -13    0.16    0.42
  -4  -1  13    9.30    0.85
   4  -1 -13    7.10    0.87
   4  -1 -13    7.76    0.63
  -4   1  13    7.97    0.79
   4   1 -13    7.83    0.73
   4   1 -13    8.47    0.90
   3  -1 -13    9.80    0.71
  -3  -1  13    9.61    0.80
   3  -1 -13   10.85    0.98
   3   1 -13    7.69    0.89
  -3   1  13    9.39    0.79
   3   1 -13    9.08    0.77
   2  -1 -13    5.00    0.74
   2  -1 -13    6.24    0.63
  -2  -1  13    6.02    0.63
  -2   1  13    4.53    0.58
   2   1 -13    5.31    0.71
   2   1 -13    5.59    0.65
   1  -1 -13    1.11    0.53
   1  -1 -13    1.61    0.49
   1   1 -13    2.21    0.54
   1   1 -13    0.97    0.55
  -1   1  13    1.34    0.42
   0  -1  13    0.75    0.42
   0  -1  13    0.73    0.42
   0  -1 -13    0.38    0.46
   0  -1 -13    0.39    0.48
   0   1  13    1.14    0.41
   0   1 -13    1.48    0.55
   1  -1  13   11.21    0.82
   1  -1  13    9.63    0.78
  -1  -1 -13   11.36    0.95
  -1  -1 -13   11.58    0.98
   1   1  13   10.57    0.85
  -1   1 -13    9.63    0.96
   2  -1  13    8.23    0.70
  -2  -1 -13    6.84    0.89
   2  -1  13    5.32    0.71
   2   1  13    6.67    0.70
  -2   1 -13    6.70    0.90
   2   1  13    4.96    0.68
  -3  -1 -13    3.15    0.82
   3  -1  13    3.14    0.66
   3  -1  13    4.19    0.56
  -3   1 -13    3.20    0.76
   3   1  13    3.08    0.62
   3   1  13    4.01    0.73
  -4  -1 -13    1.47    0.94
   4  -1  13    2.49    0.66
   4  -1  13    2.60    0.55
   4   1  13    2.04    0.59
   4   1  13    2.47    0.69
  -4   1 -13    1.83    0.87
  -6  -2  13    2.15    0.69
   6  -2 -13    3.16    0.85
   6   2 -13    2.33    0.61
  -6   2  13    3.36    0.78
   6   2 -13    4.33    0.90
  -5  -2  13    3.17    0.66
   5  -2 -13    2.48    0.72
   5   2 -13    2.00    0.74
   5   2 -13    3.05    0.61
  -5   2  13    2.32    0.63
   4  -2 -13    5.50    0.81
   4  -2 -13    6.16    0.52
  -4  -2  13    7.57    0.78
   4   2 -13    5.21    0.84
  -4   2  13    6.43    0.80
   4   2 -13    5.68    0.73
   3  -2 -13   19.15    0.85
  -3  -2  13   20.91    1.06
   3  -2 -13   20.34    1.17
   3   2 -13   18.76    1.19
   3   2 -13   19.35    1.07
  -3   2  13   20.27    1.08
   2  -2 -13    1.22    0.54
   2  -2 -13    1.15    0.43
  -2   2  13    0.86    0.46
   2   2 -13    0.80    0.55
   2   2 -13    2.37    0.58
   1  -2 -13    8.78    0.82
  -1  -2  13    8.89    0.77
   1  -2 -13    9.32    0.74
   1   2 -13    9.60    0.92
  -1   2  13    7.58    0.70
   0  -2 -13   39.08    1.43
   0  -2  13   40.05    1.46
   0  -2 -13   40.84    1.54
   0  -2  13   40.11    1.48
   0   2 -13   43.98    1.77
   0   2  13   42.29    1.48
  -1  -2 -13    0.47    0.56
   1  -2  13    1.49    0.47
  -1  -2 -13    1.53    0.63
   1  -2  13    0.81    0.40
   1   2  13    0.92    0.45
  -1   2 -13    0.73    0.59
   2  -2  13   11.89    0.96
   2  -2  13    9.92    0.74
  -2  -2 -13   12.22    1.04
   2   2  13   10.69    0.90
  -2   2 -13   12.32    1.10
  -3  -2 -13    7.57    0.98
   3  -2  13    7.96    0.71
   3  -2  13    9.58    0.92
  -3   2 -13    6.35    1.02
   3   2  13    7.69    0.82
   4  -2  13   10.00    1.04
   4  -2  13    8.63    0.70
   4   2  13   10.25    0.99
  -4   2 -13   10.71    1.17
   4   2  13    9.32    0.95
  -6  -3  13    4.80    0.85
   6  -3 -13    5.93    1.04
   6   3 -13    6.44    0.85
   6   3 -13    7.97    1.13
  -5  -3  13    9.12    0.97
   5  -3 -13    8.18    1.03
  -5   3  13    8.58    1.01
   5   3 -13    9.33    1.12
   5   3 -13    9.46    0.90
  -4  -3  13    3.56    0.65
   4  -3 -13    3.76    0.77
   4   3 -13    3.07    0.67
   4   3 -13    5.10    0.89
  -4   3  13    4.22    0.71
  -3  -3  13    9.95    0.86
   3  -3 -13   10.15    0.60
   3  -3 -13    8.66    0.91
   3   3 -13   10.85    1.04
  -3   3  13   10.16    0.93
  -2  -3  13    7.49    0.79
   2  -3 -13    6.00    0.58
   2  -3 -13    6.06    0.76
   2   3 -13    7.38    0.87
  -2   3  13    6.64    0.75
   1  -3 -13    2.49    0.51
  -1  -3  13    2.14    0.51
   1  -3 -13    1.86    0.58
  -1   3  13    2.57    0.55
   1   3 -13    0.84    0.62
   0  -3 -13    4.43    0.61
   0  -3  13    3.40    0.58
   0  -3  13    3.54    0.63
   0  -3 -13    3.72    0.70
   0   3 -13    5.05    0.82
   0   3  13    4.04    0.59
   1  -3  13    4.87    0.70
   1  -3  13    5.97    0.64
  -1  -3 -13    5.53    0.73
   1   3  13    5.37    0.69
  -1   3 -13    5.08    0.85
   2  -3  13    6.30    0.79
  -2  -3 -13    8.71    0.96
   2  -3  13    7.23    0.66
   2   3  13    5.78    0.75
  -2   3 -13    7.82    0.99
   3  -3  13   11.23    0.74
   3  -3  13   11.69    1.04
  -3   3 -13   12.17    1.20
   3   3  13   12.40    1.03
   5  -4 -13   11.13    1.12
  -5  -4  13   11.19    1.14
   5   4 -13   13.61    1.26
   5   4 -13   11.76    1.09
  -5   4  13   11.63    1.14
  -4  -4  13    2.97    0.71
  -4   4  13    3.48    0.70
   4   4 -13    3.04    0.89
  -3  -4  13    4.45    0.74
  -3   4  13    2.86    0.64
   3   4 -13    3.31    0.79
   2  -4 -13    6.72    0.56
  -2  -4  13    9.02    0.82
   2   4 -13    9.08    0.97
  -2   4  13    6.18    0.77
   1  -4 -13    4.19    0.72
   1  -4 -13    4.28    0.57
  -1  -4  13    5.46    0.69
   1   4 -13    5.83    0.84
   0  -4 -13   19.86    1.01
   0  -4  13   21.07    1.03
   0  -4  13   21.24    1.21
   0   4 -13   22.67    1.34
   1  -4  13    6.26    0.63
   1  -4  13    7.57    0.85
  -1  -4 -13    5.60    0.78
  -1   4 -13    7.51    1.01
   1   4  13    6.26    0.74
   2  -4  13    3.74    0.76
   2  -4  13    3.86    0.52
  -2  -4 -13    2.73    0.77
  -2   4 -13    3.82    0.92
   2   4  13    2.48    0.64
   3  -4  13    1.14    0.36
   3  -4  13   -0.14    0.61
  -3  -4 -13    0.05    0.85
  -3   4 -13    0.22    0.83
   3   4  13    0.90    0.57
  -4  -5  13    2.75    0.77
  -4   5  13    3.03    0.82
  -3  -5  13   29.85    1.44
  -3   5  13   29.40    1.51
   3   5 -13   30.80    1.59
   2  -5 -13   15.32    1.13
  -2  -5  13   14.77    1.02
   2   5 -13   16.72    1.23
   1  -5 -13   11.05    0.71
   1  -5 -13   11.07    1.08
  -1  -5  13    8.60    0.80
   1   5 -13    8.91    1.00
   0  -5  13    1.75    0.46
   0  -5 -13    1.35    0.50
   0  -5  13    0.76    0.64
   0  -5 -13    0.23    0.73
   0   5 -13   -0.41    0.69
   1  -5  13    4.28    0.77
   1  -5  13    5.06    0.58
  -1  -5 -13    5.25    0.75
   1   5  13    5.32    0.76
  -1   5 -13    5.84    0.97
   2  -5  13    5.18    0.86
  -2  -5 -13    7.63    0.89
   2  -5  13    6.30    0.54
  -2   5 -13    7.58    1.08
   2   5  13    6.63    0.88
  -3  -6  13    0.99    0.62
  -2  -6  13    2.76    0.61
   2  -6 -13    1.39    0.79
  -1  -6  13    6.39    0.74
   1  -6 -13    7.71    1.04
   0  -6 -13    0.60    0.80
   1  -6  13    1.19    0.75
  -1   6 -13    4.19    1.12
   1   6  13    2.69    0.76
  -6   0  14    4.51    0.80
   6   0 -14    4.89    0.57
   5   0 -14    6.18    0.92
   5   0 -14    6.01    0.65
  -5   0  14    5.69    0.81
   4   0 -14    9.05    0.97
   4   0 -14    9.55    0.78
  -4   0  14    8.96    0.84
   3   0 -14   10.91    0.83
  -3   0  14   11.66    0.84
   3   0 -14   11.84    1.07
  -2   0  14   13.59    0.84
   2   0 -14   12.77    1.00
   2   0 -14   12.88    0.90
   1   0 -14   -0.17    0.48
   1   0 -14   -0.10    0.46
   0   0 -14   58.35    1.93
   0   0 -14   57.24    2.06
   1   0  14    9.07    0.84
  -1   0 -14    8.57    0.92
   1   0  14   11.15    0.88
   2   0  14    2.70    0.62
   2   0  14    1.55    0.53
  -2   0 -14    4.52    0.89
   3   0  14    4.14    0.75
   3   0  14    5.02    0.71
  -3   0 -14    4.03    0.93
  -4   0 -14   16.31    1.49
  -6  -1  14    2.99    0.77
  -5  -1  14   13.27    1.01
   5  -1 -14   14.60    1.14
   5  -1 -14   14.38    0.73
   5   1 -14   15.00    1.25
  -5   1  14   13.19    1.04
   5   1 -14   13.61    0.90
   4  -1 -14   13.57    1.13
  -4  -1  14   12.16    0.97
   4  -1 -14   11.83    0.76
   4   1 -14   11.53    0.87
   4   1 -14   13.32    1.16
  -4   1  14   13.11    0.94
  -3  -1  14    6.49    0.69
   3  -1 -14    5.67    0.64
   3  -1 -14    6.22    0.83
   3   1 -14    4.85    0.66
  -3   1  14    4.99    0.66
   3   1 -14    5.65    0.83
   2  -1 -14    6.44    0.82
   2  -1 -14    8.05    0.71
  -2   1  14    7.65    0.73
   2   1 -14    8.67    0.78
   2   1 -14    7.15    0.85
   1  -1 -14   15.95    0.99
   1  -1 -14   17.97    1.12
   1   1 -14   16.06    1.05
   1   1 -14   15.50    1.02
   0  -1 -14    8.72    0.85
   0  -1  14   10.49    0.86
   0  -1 -14   10.27    0.98
   0   1 -14   10.13    1.00
  -1  -1 -14    0.67    0.64
   1  -1  14    1.10    0.49
   1  -1  14    0.48    0.46
   1   1  14    0.97    0.50
  -1   1 -14    0.13    0.66
   2  -1  14    3.47    0.59
   2  -1  14    3.83    0.69
  -2  -1 -14    4.31    0.90
   2   1  14    4.31    0.73
  -2   1 -14    5.25    0.93
   3  -1  14   12.41    1.06
   3  -1  14   12.77    0.90
  -3  -1 -14   12.94    1.25
   3   1  14   11.93    1.04
  -3   1 -14   12.18    1.22
   3   1  14   12.74    1.01
  -4  -1 -14    1.67    1.07
   4   1  14    0.34    0.62
   5  -2 -14   12.04    1.17
  -5  -2  14   14.41    1.07
   5   2 -14   14.03    0.99
  -5   2  14   12.46    1.10
   5   2 -14   12.36    1.20
   4  -2 -14   16.67    1.17
   4  -2 -14   17.83    0.80
  -4  -2  14   18.68    1.14
  -4   2  14   17.80    1.13
   4   2 -14   17.05    1.05
   4   2 -14   18.82    1.29
   3  -2 -14   16.26    0.83
   3  -2 -14   16.46    1.13
  -3  -2  14   17.53    1.04
  -3   2  14   16.73    1.05
   3   2 -14   17.28    1.20
   3   2 -14   16.50    1.02
   2  -2 -14    9.19    0.92
   2  -2 -14    9.82    0.78
  -2   2  14    9.02    0.82
   2   2 -14    8.31    0.94
  -1  -2  14    9.08    0.81
   1  -2 -14    8.75    0.78
   1  -2 -14    7.87    0.87
   1   2 -14    7.57    0.91
   0  -2  14   13.15    0.91
   0  -2 -14   13.23    1.00
   0  -2 -14   13.29    0.93
   0   2 -14   13.83    1.09
   1  -2  14    6.51    0.70
   1  -2  14    4.04    0.66
  -1  -2 -14    5.20    0.80
  -1  -2 -14    6.89    0.87
  -1   2 -14    5.35    0.87
   1   2  14    3.99    0.65
  -2  -2 -14    1.42    0.71
   2  -2  14   -0.04    0.48
   2  -2  14    1.17    0.48
   2   2  14    0.67    0.51
  -2   2 -14   -0.66    0.68
   3  -2  14    9.58    0.78
   3  -2  14    7.13    0.90
  -3   2 -14    6.97    1.10
   3   2  14    6.89    0.89
   5  -3 -14    7.14    1.02
  -5  -3  14    7.02    0.88
   5   3 -14    9.06    0.94
   5   3 -14    6.94    1.06
  -5   3  14    8.45    0.99
  -4  -3  14    1.00    0.62
   4  -3 -14   -0.20    0.69
   4   3 -14    0.35    0.73
  -4   3  14    0.23    0.53
   4   3 -14    0.58    0.62
   3  -3 -14    6.11    0.57
   3  -3 -14    6.39    0.84
   3   3 -14    5.72    0.90
  -3   3  14    5.54    0.79
   2  -3 -14    2.58    0.70
  -2  -3  14    4.22    0.73
   2  -3 -14    3.33    0.52
   2   3 -14    3.44    0.75
  -2   3  14    3.65    0.67
   1  -3 -14    8.24    0.90
  -1  -3  14    7.46    0.79
   1  -3 -14    8.64    0.76
  -1   3  14    8.10    0.81
   1   3 -14    9.60    1.01
   0  -3  14    0.63    0.46
   0  -3 -14    0.19    0.49
   0   3 -14   -0.24    0.61
  -1  -3 -14    0.80    0.68
   1  -3  14    1.48    0.48
   1  -3  14   -0.10    0.52
  -1   3 -14    0.77    0.70
   1   3  14    1.02    0.55
  -2  -3 -14   18.55    1.25
   2  -3  14   19.70    1.22
   2  -3  14   16.20    0.96
  -2   3 -14   15.73    1.37
   2   3  14   18.81    1.17
   3  -3  14    8.06    0.96
   3   3  14    8.42    0.93
  -5  -4  14    3.37    0.87
   5   4 -14    3.08    0.98
  -4  -4  14    0.26    0.67
  -4   4  14    0.46    0.65
   4   4 -14    0.95    0.82
   3   4 -14    0.16    0.71
  -3   4  14    0.29    0.56
   2  -4 -14    4.57    0.54
  -2  -4  14    5.43    0.76
  -2   4  14    6.00    0.82
   2   4 -14    5.18    0.88
  -1  -4  14    0.98    0.55
   1  -4 -14    0.90    0.49
   1   4 -14    0.55    0.72
  -1   4  14    1.98    0.60
   0  -4 -14   15.15    0.95
   0  -4  14   14.71    0.93
   0   4 -14   15.94    1.24
   1  -4  14    3.09    0.57
   1  -4  14    3.12    0.73
  -1  -4 -14    2.72    0.72
   1   4  14    2.67    0.62
  -1   4 -14    3.30    0.86
  -2  -4 -14    0.48    0.75
   2  -4  14    0.39    0.61
   2  -4  14    0.58    0.42
   2   4  14    2.04    0.67
  -2   4 -14    2.70    0.93
  -3  -5  14    4.78    0.88
  -3   5  14    5.75    0.90
   3   5 -14    7.36    1.12
  -2  -5  14    2.87    0.68
   2   5 -14    1.91    0.80
  -2   5  14    1.22    0.66
   1  -5 -14   15.70    0.85
   1  -5 -14   15.69    1.31
  -1  -5  14   14.25    0.97
   1   5 -14   16.09    1.24
   0  -5  14    1.36    0.50
   0  -5 -14    2.36    0.63
   0   5 -14    3.92    0.94
   1  -5  14    3.25    0.84
   1   5  14    3.77    0.80
  -1   5 -14    2.46    0.92
  -5   0  15    1.75    0.66
   5   0 -15    1.54    0.58
   5   0 -15    0.22    0.77
  -4   0  15   14.05    0.98
   4   0 -15   13.63    0.89
   4   0 -15   13.94    1.22
  -3   0  15   22.48    1.16
   3   0 -15   24.87    1.16
   3   0 -15   20.36    1.31
   2   0 -15    1.94    0.71
   2   0 -15    0.13    0.53
   1   0 -15    2.32    0.67
   1   0 -15    1.35    0.58
   0   0 -15   19.73    1.30
  -1   0 -15    0.39    0.72
   1   0  15    0.25    0.53
   2   0  15   -0.17    0.51
  -2   0 -15    1.20    0.83
   2   0  15    0.45    0.62
   3   0  15    0.11    0.52
   3   0  15    0.20    0.66
  -3   0 -15   -0.21    0.91
   5  -1 -15   11.66    1.24
   5  -1 -15   13.49    0.77
  -5  -1  15   15.59    1.23
  -5   1  15   12.37    1.11
   5   1 -15   14.13    0.99
   5   1 -15   12.31    1.21
  -4  -1  15    4.33    0.77
   4  -1 -15    5.66    0.63
   4  -1 -15    4.53    0.86
  -4   1  15    4.79    0.77
   4   1 -15    5.83    0.73
   4   1 -15    5.09    0.87
   3  -1 -15    1.22    0.64
   3  -1 -15    0.53    0.49
   3   1 -15    0.86    0.62
   3   1 -15    0.68    0.58
  -3   1  15    1.10    0.51
   2  -1 -15    1.16    0.55
   2  -1 -15    0.27    0.57
   2   1 -15   -0.16    0.58
   2   1 -15    0.44    0.58
   1  -1 -15    6.88    0.90
   1  -1 -15    6.38    0.77
   1   1 -15    8.05    0.97
   0  -1 -15    8.77    0.99
   0  -1  15    9.87    0.89
   0  -1 -15    7.82    0.90
   0   1 -15    9.52    1.04
   1  -1  15   10.08    0.88
  -1  -1 -15   11.73    1.13
   1  -1  15    8.22    0.85
   1   1  15    9.97    0.88
  -1   1 -15    8.23    1.00
   2  -1  15    0.79    0.52
  -2  -1 -15    0.44    0.77
   2  -1  15    1.10    0.63
  -2   1 -15    1.07    0.79
   2   1  15    1.46    0.62
  -3  -1 -15    3.04    0.99
   3  -1  15    3.17    0.78
   3   1  15    2.36    0.73
   3   1  15    2.91    0.74
   5  -2 -15    0.59    0.80
  -5  -2  15    1.96    0.75
   5   2 -15    2.07    0.71
  -5   2  15    1.76    0.69
   4  -2 -15    0.70    0.42
  -4  -2  15    0.54    0.56
   4  -2 -15   -0.10    0.68
  -4   2  15   -0.27    0.56
   4   2 -15   -0.36    0.58
   4   2 -15    1.76    0.82
   3  -2 -15    0.17    0.44
   3  -2 -15    0.18    0.64
   3   2 -15   -0.28    0.73
  -3   2  15   -0.70    0.47
   3   2 -15    0.22    0.65
   2  -2 -15   12.75    1.13
   2  -2 -15   11.94    0.87
  -2   2  15   13.14    0.97
   2   2 -15   13.45    1.18
   1  -2 -15    4.09    0.69
  -1  -2  15    4.46    0.72
   1  -2 -15    4.74    0.80
   1   2 -15    3.19    0.80
   0  -2 -15    1.68    0.69
   0  -2  15    0.72    0.52
   0  -2 -15    1.24    0.64
   0   2 -15    0.50    0.65
  -1  -2 -15   11.26    1.13
  -1  -2 -15    9.14    0.99
   1  -2  15    9.36    0.85
   1  -2  15    8.83    0.93
  -1   2 -15   10.08    1.16
   2  -2  15    8.83    0.97
   2  -2  15    9.60    0.84
   2   2  15    8.88    0.96
  -2   2 -15   10.79    1.23
   4  -3 -15   11.10    1.14
   4   3 -15   10.14    1.21
   4   3 -15    9.67    1.00
  -4   3  15   10.84    1.09
   3  -3 -15    6.67    0.61
   3  -3 -15    5.21    0.93
  -3   3  15    4.61    0.82
   3   3 -15    6.73    1.01
   2  -3 -15    2.36    0.75
   2  -3 -15    2.76    0.56
   2   3 -15    2.95    0.77
  -2   3  15    2.25    0.67
   1  -3 -15    5.21    0.67
  -1  -3  15    6.30    0.81
   1   3 -15    5.07    0.84
   0  -3 -15   -0.57    0.56
   0  -3  15    0.34    0.49
   0   3 -15   -0.58    0.71
   1  -3  15    1.03    0.63
  -1  -3 -15    1.08    0.69
   1  -3  15    1.18    0.53
  -1   3 -15    1.15    0.76
   2  -3  15    6.23    0.90
  -2  -3 -15    6.19    1.03
   2   3  15    5.41    0.84
  -3   4  15    8.84    1.05
   3   4 -15    8.22    1.13
   2  -4 -15   27.74    1.07
  -2  -4  15   28.31    1.44
  -2   4  15   26.95    1.42
   2   4 -15   26.25    1.52
   1  -4 -15    2.32    0.61
  -1  -4  15    1.80    0.60
   1   4 -15    2.26    0.79
   0  -4  15    4.81    0.70
   0  -4 -15    3.73    0.73
   0   4 -15    4.87    0.98
  -1  -4 -15    2.56    0.79
  -2   5  15    0.76    0.71
   2   5 -15    0.25    0.89
  -1   5  15   -0.15    0.68
   1   5 -15    0.82    0.87
   4   0 -16    8.86    0.84
  -4   0  16    8.83    0.95
   4   0 -16   10.96    1.17
   3   0 -16    0.08    0.56
   3   0 -16   -0.14    0.67
   2   0 -16    4.09    0.87
   2   0 -16    3.35    0.68
   1   0 -16   -0.58    0.62
   1   0 -16   -0.30    0.69
   0   0 -16    0.88    0.77
  -1   0 -16    0.72    0.80
  -2   0 -16    1.09    0.92
   2   0  16    3.61    0.76
   2   0  16    4.50    0.85
  -4  -1  16    7.13    0.85
   4  -1 -16    7.31    1.05
   4  -1 -16    8.68    0.78
   4   1 -16   10.94    1.17
   4   1 -16    8.29    0.87
  -4   1  16    8.63    0.95
   3  -1 -16    3.85    0.87
   3  -1 -16    3.34    0.65
   3   1 -16    3.11    0.71
  -3   1  16    2.82    0.71
   3   1 -16    5.04    0.93
   2  -1 -16    2.35    0.64
   2  -1 -16    3.01    0.81
   2   1 -16    3.72    0.88
   2   1 -16    3.41    0.76
   1  -1 -16    1.18    0.63
   1  -1 -16    1.86    0.79
   1   1 -16   -0.65    0.68
   0  -1 -16    4.45    0.87
   0  -1 -16    4.18    0.82
   0   1 -16    4.44    0.93
  -1  -1 -16    6.44    1.08
   1  -1  16    5.00    0.78
  -1   1 -16    4.11    0.99
   2  -1  16    0.42    0.57
   2  -1  16    0.91    0.68
  -2  -1 -16    1.66    0.95
   2   1  16   -0.09    0.71
   4  -2 -16    0.68    0.84
   4   2 -16    3.50    0.73
  -4   2  16    1.67    0.73
   3  -2 -16    0.43    0.51
   3  -2 -16    1.43    0.80
   3   2 -16    1.61    0.82
  -3   2  16    0.43    0.59
   3   2 -16    0.60    0.75
   2  -2 -16    3.87    0.85
   2  -2 -16    1.84    0.59
   2   2 -16    2.52    0.84
   1  -2 -16    4.99    0.76
   1  -2 -16    3.74    0.84
   1   2 -16    3.76    0.89
   0  -2 -16    3.26    0.75
   0  -2  16    7.07    0.85
   0  -2 -16    7.31    1.04
   0   2 -16    6.75    1.01
  -1  -2 -16   -0.49    0.77
   1  -2  16   -0.06    0.53
  -1  -2 -16    0.16    0.77
  -1   2 -16   -1.34    0.74
   3  -3 -16    7.31    1.09
  -3   3  16   10.10    1.06
   2  -3 -16    5.75    0.69
   2   3 -16    3.13    0.93
   1  -3 -16    3.46    0.70
  -1  -3  16    2.71    0.74
   1   3 -16    3.41    0.90
   0  -3  16   26.63    1.37
   0  -3 -16   28.48    1.40
  -1  -3 -16    8.76    1.07
  -2  -4  16   19.45    1.32
  -2   4  16   19.56    1.33
   3   0 -17    4.78    0.77
   2   0 -17    1.01    0.82
   2   0 -17   -0.63    0.64
   1   0 -17    1.16    0.80
   1   0 -17    0.21    0.78
   0   0 -17    8.25    1.07
   3   1 -17    5.65    0.89
   2  -1 -17   14.94    1.34
   2  -1 -17   13.92    1.09
   2   1 -17   13.76    1.18
   1  -1 -17   -0.79    0.77
   1  -1 -17   -0.46    0.68
   1   1 -17    0.88    0.80
   0  -1 -17   13.73    1.31
   0  -1 -17   10.03    1.14
   2  -2 -17    5.82    1.05
   1  -2 -17   16.39    1.39
   0  -2  17    0.77    0.67
   0  -2 -17    1.51    0.94
   0  -2 -17    0.67    0.78
   0   0   0    0.00    0.00
;
_shelx_hkl_checksum              48036
#END Tags that were not found in dictionaries
loop_
_space_group_symop_operation_xyz
'x, y, z'
'-x, y+1/2, -z'
loop_
_atom_site_label
_atom_site_type_symbol
_atom_site_fract_x
_atom_site_fract_y
_atom_site_fract_z
_atom_site_U_iso_or_equiv
_atom_site_adp_type
_atom_site_occupancy
_atom_site_site_symmetry_order
_atom_site_calc_flag
_atom_site_refinement_flags_posn
_atom_site_refinement_flags_adp
S1 S -0.12084(8) 0.96733(8) 0.61236(4) 0.01817(14) Uani 1 1 d . .
C4 C 0.4063(3) 0.4608(4) 0.75427(16) 0.0158(4) Uani 1 1 d . .
H4 H 0.4610 0.5194 0.8265 0.019 Uiso 1 1 calc R U
C1 C 0.2754(3) 0.9598(5) 0.54336(17) 0.0178(4) Uani 1 1 d . .
H1A H 0.4081 0.9973 0.5909 0.027 Uiso 1 1 calc R U
H1B H 0.2098 1.0765 0.5060 0.027 Uiso 1 1 calc R U
H1C H 0.3088 0.8641 0.4902 0.027 Uiso 1 1 calc R U
N1 N 0.1884(3) 0.7095(3) 0.66456(15) 0.0138(4) Uani 1 1 d . .
C6 C 0.0529(3) 0.5997(3) 0.72774(17) 0.0143(4) Uani 1 1 d . .
H6 H -0.0937 0.5801 0.6851 0.017 Uiso 1 1 calc R U
C3 C 0.3996(4) 0.6167(3) 0.66651(19) 0.0174(5) Uani 1 1 d . .
H3A H 0.5172 0.7133 0.6850 0.021 Uiso 1 1 calc R U
H3B H 0.4111 0.5563 0.5960 0.021 Uiso 1 1 calc R U
C2 C 0.1217(3) 0.8700(3) 0.60916(17) 0.0142(4) Uani 1 1 d . .
C5 C 0.1691(4) 0.4031(3) 0.74740(19) 0.0166(4) Uani 1 1 d . .
H5A H 0.1242 0.3109 0.6871 0.020 Uiso 1 1 calc R U
H5B H 0.1419 0.3422 0.8155 0.020 Uiso 1 1 calc R U
O2 O -0.1482(3) 0.6614(3) 0.86581(13) 0.0211(4) Uani 1 1 d . .
O3 O 0.5442(3) 0.3081(3) 0.73149(13) 0.0208(4) Uani 1 1 d . .
O1 O 0.1761(3) 0.8060(3) 0.88260(14) 0.0248(4) Uani 1 1 d . .
C7 C 0.0381(4) 0.7056(3) 0.83270(18) 0.0158(4) Uani 1 1 d . .
C9 C -0.1796(4) 0.7406(4) 0.9689(2) 0.0251(5) Uani 1 1 d . .
H9A H -0.0858 0.6717 1.0268 0.038 Uiso 1 1 calc R U
H9B H -0.3299 0.7229 0.9781 0.038 Uiso 1 1 calc R U
H9C H -0.1443 0.8809 0.9717 0.038 Uiso 1 1 calc R U
C8 C 0.5865(5) 0.1705(4) 0.8175(2) 0.0280(6) Uani 1 1 d . .
H8A H 0.6456 0.2394 0.8842 0.042 Uiso 1 1 calc R U
H8B H 0.6904 0.0729 0.8008 0.042 Uiso 1 1 calc R U
H8C H 0.4526 0.1045 0.8269 0.042 Uiso 1 1 calc R U
loop_
_atom_site_aniso_label
_atom_site_aniso_U_11
_atom_site_aniso_U_22
_atom_site_aniso_U_33
_atom_site_aniso_U_23
_atom_site_aniso_U_13
_atom_site_aniso_U_12
S1 0.0141(2) 0.0167(2) 0.0242(3) 0.0007(3) 0.00441(18) 0.0022(3)
C4 0.0157(9) 0.0153(9) 0.0166(9) -0.0020(11) 0.0037(7) 0.0014(11)
C1 0.0167(9) 0.0185(10) 0.0191(9) 0.0044(11) 0.0054(7) -0.0014(11)
N1 0.0127(9) 0.0154(9) 0.0145(8) 0.0004(7) 0.0054(6) -0.0006(7)
C6 0.0134(10) 0.0169(11) 0.0135(10) 0.0004(8) 0.0046(7) -0.0025(8)
C3 0.0134(10) 0.0184(11) 0.0208(11) 0.0042(9) 0.0043(8) 0.0024(9)
C2 0.0127(10) 0.0156(10) 0.0145(10) -0.0021(8) 0.0026(7) -0.0009(8)
C5 0.0189(11) 0.0137(10) 0.0184(10) -0.0006(8) 0.0067(8) -0.0010(8)
O2 0.0215(8) 0.0251(9) 0.0194(8) -0.0045(7) 0.0115(6) -0.0052(7)
O3 0.0233(9) 0.0196(8) 0.0203(8) 0.0029(7) 0.0064(6) 0.0084(7)
O1 0.0216(9) 0.0310(10) 0.0222(9) -0.0097(8) 0.0047(7) -0.0060(8)
C7 0.0165(10) 0.0153(10) 0.0161(10) 0.0009(8) 0.0036(8) -0.0003(8)
C9 0.0323(14) 0.0259(13) 0.0206(12) -0.0032(10) 0.0146(10) 0.0000(11)
C8 0.0353(15) 0.0253(13) 0.0244(13) 0.0041(11) 0.0077(11) 0.0129(11)
loop_
_atom_type_symbol
_atom_type_description
_atom_type_scat_dispersion_real
_atom_type_scat_dispersion_imag
_atom_type_scat_source
C C 0.0033 0.0016 'International Tables Vol C Tables 4.2.6.8 and 6.1.1.4'
H H 0.0000 0.0000 'International Tables Vol C Tables 4.2.6.8 and 6.1.1.4'
N N 0.0061 0.0033 'International Tables Vol C Tables 4.2.6.8 and 6.1.1.4'
O O 0.0106 0.0060 'International Tables Vol C Tables 4.2.6.8 and 6.1.1.4'
S S 0.1246 0.1234 'International Tables Vol C Tables 4.2.6.8 and 6.1.1.4'
loop_
_geom_angle_atom_site_label_1
_geom_angle_atom_site_label_2
_geom_angle_atom_site_label_3
_geom_angle
O3 C4 C3 108.18(16)
O3 C4 C5 115.2(2)
C3 C4 C5 102.93(18)
C2 N1 C6 122.85(19)
C2 N1 C3 124.93(18)
C6 N1 C3 112.17(17)
N1 C6 C7 110.56(18)
N1 C6 C5 103.27(17)
C7 C6 C5 111.76(18)
N1 C3 C4 103.35(17)
N1 C2 C1 116.5(2)
N1 C2 S1 121.84(17)
C1 C2 S1 121.70(18)
C6 C5 C4 102.85(18)
C7 O2 C9 116.52(19)
C4 O3 C8 112.13(18)
O1 C7 O2 124.2(2)
O1 C7 C6 125.7(2)
O2 C7 C6 109.98(19)
loop_
_geom_bond_atom_site_label_1
_geom_bond_atom_site_label_2
_geom_bond_distance
S1 C2 1.673(2)
C4 O3 1.414(3)
C4 C3 1.526(3)
C4 C5 1.535(3)
C1 C2 1.501(3)
N1 C2 1.327(3)
N1 C6 1.462(3)
N1 C3 1.470(3)
C6 C7 1.519(3)
C6 C5 1.527(3)
O2 C7 1.342(3)
O2 C9 1.446(3)
O3 C8 1.423(3)
O1 C7 1.201(3)
loop_
_geom_torsion_atom_site_label_1
_geom_torsion_atom_site_label_2
_geom_torsion_atom_site_label_3
_geom_torsion_atom_site_label_4
_geom_torsion
C2 N1 C6 C7 -76.4(3)
C3 N1 C6 C7 106.0(2)
C2 N1 C6 C5 163.91(19)
C3 N1 C6 C5 -13.7(2)
C2 N1 C3 C4 171.5(2)
C6 N1 C3 C4 -11.0(2)
O3 C4 C3 N1 153.20(18)
C5 C4 C3 N1 30.9(2)
C6 N1 C2 C1 -176.7(2)
C3 N1 C2 C1 0.6(3)
C6 N1 C2 S1 3.3(3)
C3 N1 C2 S1 -179.42(18)
N1 C6 C5 C4 32.5(2)
C7 C6 C5 C4 -86.4(2)
O3 C4 C5 C6 -156.98(17)
C3 C4 C5 C6 -39.5(2)
C3 C4 O3 C8 171.0(2)
C5 C4 O3 C8 -74.5(3)
C9 O2 C7 O1 -0.5(4)
C9 O2 C7 C6 175.85(19)
N1 C6 C7 O1 -31.3(3)
C5 C6 C7 O1 83.2(3)
N1 C6 C7 O2 152.44(19)
C5 C6 C7 O2 -93.1(2)
