#------------------------------------------------------------------------------
#$Date: 2016-02-14 16:26:36 +0200 (Sun, 14 Feb 2016) $
#$Revision: 176435 $
#$URL: svn://www.crystallography.net/cod/cif/1/51/75/1517554.cif $
#------------------------------------------------------------------------------
#
# This file is available in the Crystallography Open Database (COD),
# http://www.crystallography.net/
#
# All data on this site have been placed in the public domain by the
# contributors.
#
data_1517554
loop_
_publ_author_name
'Purkait, Nibadita'
'Okumura, Sota'
'Souto, Jos\'e A'
'Mu\~niz, Kilian'
_publ_section_title
;
 Hypervalent iodine mediated oxidative amination of allenes.
;
_journal_issue                   18
_journal_name_full               'Organic letters'
_journal_page_first              4750
_journal_page_last               4753
_journal_paper_doi               10.1021/ol502179z
_journal_volume                  16
_journal_year                    2014
_chemical_formula_sum            'C44.75 H43.5 Cl3.5 N2 O8 S4'
_chemical_formula_weight         989.63
_chemical_name_systematic
;
 ?
;
_space_group_IT_number           2
_space_group_name_Hall           '-P 1'
_symmetry_cell_setting           triclinic
_symmetry_space_group_name_Hall  '-P 1'
_symmetry_space_group_name_H-M   'P -1'
_atom_sites_solution_hydrogens   mixed
_audit_creation_method           SHELXL-2014
_cell_angle_alpha                110.3750(13)
_cell_angle_beta                 91.9896(14)
_cell_angle_gamma                94.6382(13)
_cell_formula_units_Z            2
_cell_length_a                   13.3744(6)
_cell_length_b                   13.5682(7)
_cell_length_c                   14.1249(7)
_cell_measurement_reflns_used    9932
_cell_measurement_temperature    100(2)
_cell_measurement_theta_max      31.64
_cell_measurement_theta_min      2.24
_cell_volume                     2389.5(2)
_computing_cell_refinement       'Bruker APEX2 v2011.4-0'
_computing_data_collection       'Bruker APEX2 v2011.4-0'
_computing_data_reduction        'Bruker SAINT V7.60A'
_computing_molecular_graphics    'Bruker SHELXTL'
_computing_publication_material  'Bruker SHELXTL'
_computing_structure_refinement  'SHELXL-2014 (Sheldrick, 2014)'
_computing_structure_solution    Sir2011
_diffrn_ambient_temperature      100(2)
_diffrn_detector_area_resol_mean 512
_diffrn_detector_type            '4K CCD area detector APEX II'
_diffrn_measured_fraction_theta_full 0.976
_diffrn_measured_fraction_theta_max 0.844
_diffrn_measurement_device_type  'APEX DUO Kappa 4-axis goniometer'
_diffrn_measurement_method
;
 Fullsphere data collection, phi and omega scans
;
_diffrn_measurement_specimen_support 'magnetic support with MicroMount'
_diffrn_radiation_monochromator  'Quazar MX Multilayer Optics'
_diffrn_radiation_type           MoK\a
_diffrn_radiation_wavelength     0.71073
_diffrn_reflns_av_R_equivalents  0.0272
_diffrn_reflns_av_unetI/netI     0.0414
_diffrn_reflns_Laue_measured_fraction_full 0.976
_diffrn_reflns_Laue_measured_fraction_max 0.844
_diffrn_reflns_limit_h_max       19
_diffrn_reflns_limit_h_min       -16
_diffrn_reflns_limit_k_max       19
_diffrn_reflns_limit_k_min       -18
_diffrn_reflns_limit_l_max       20
_diffrn_reflns_limit_l_min       -18
_diffrn_reflns_number            25994
_diffrn_reflns_point_group_measured_fraction_full 0.976
_diffrn_reflns_point_group_measured_fraction_max 0.844
_diffrn_reflns_theta_full        25.242
_diffrn_reflns_theta_max         31.946
_diffrn_reflns_theta_min         1.531
_diffrn_source                   'Microfocus source E025 IuS'
_diffrn_source_current           0.6
_diffrn_source_power             50
_diffrn_source_size              '0.2 mm x 0.2 mm fine focus'
_diffrn_source_type              'Bruker APEX DUO'
_exptl_absorpt_coefficient_mu    0.447
_exptl_absorpt_correction_T_max  0.916
_exptl_absorpt_correction_T_min  0.784
_exptl_absorpt_correction_type   empirical
_exptl_absorpt_process_details
; 
 SADABS Version 2008/1 Bruker-Nonius
 Blessing, Acta Cryst. (1995) A51 33-38
;
_exptl_crystal_density_diffrn    1.375
_exptl_crystal_description       Block
_exptl_crystal_F_000             1027
_exptl_crystal_size_max          0.50
_exptl_crystal_size_mid          0.30
_exptl_crystal_size_min          0.20
_refine_diff_density_max         1.338
_refine_diff_density_min         -0.579
_refine_diff_density_rms         0.093
_refine_ls_extinction_method     none
_refine_ls_goodness_of_fit_ref   1.087
_refine_ls_hydrogen_treatment    constr
_refine_ls_matrix_type           full
_refine_ls_number_parameters     1094
_refine_ls_number_reflns         13949
_refine_ls_number_restraints     1153
_refine_ls_restrained_S_all      1.074
_refine_ls_R_factor_all          0.0770
_refine_ls_R_factor_gt           0.0651
_refine_ls_shift/su_max          0.001
_refine_ls_shift/su_mean         0.000
_refine_ls_structure_factor_coef Fsqd
_refine_ls_weighting_details
'w=1/[\s^2^(Fo^2^)+(0.0825P)^2^+3.5535P] where P=(Fo^2^+2Fc^2^)/3'
_refine_ls_weighting_scheme      calc
_refine_ls_wR_factor_gt          0.1787
_refine_ls_wR_factor_ref         0.1872
_reflns_Friedel_coverage         0.000
_reflns_number_gt                11565
_reflns_number_total             13949
_reflns_threshold_expression     'I > 2\s(I)'
_cod_data_source_file            ol502179z_si_005.cif
_cod_data_source_block           mo_NP5971_0m
_cod_depositor_comments
;
The following automatic conversions were performed:

'_symmetry_cell_setting' value 'Triclinic' changed to 'triclinic'
according to
/home/saulius/struct/COD-crude-data--automatic-downloads/rss-feeds/ACS/lib/dictionaries/cif_core.dic
dictionary named 'cif_core.dic' version 2.4.2 from 2011-04-26.

Automatic conversion script
Id: cif_fix_values 2281 2013-09-26 08:29:07Z andrius 

 Adding full bibliography for 1517553--1517556.cif.
;
_cod_original_sg_symbol_H-M      P-1
_cod_original_formula_sum        'C44.75 H43.50 Cl3.50 N2 O8 S4'
_cod_database_code               1517554
#BEGIN Tags that were not found in dictionaries:
_shelx_space_group_comment
;
The symmetry employed for this shelxl refinement is uniquely defined
by the following loop, which should always be used as a source of
symmetry information in preference to the above space-group names.
They are only intended as comments.
;
_shelx_estimated_absorpt_t_min   0.807
_shelx_estimated_absorpt_t_max   0.916
_shelxl_version_number           2014-3
_shelx_res_file
;
TITL mo_NP5971_0m in P-1
CELL 0.71073  13.37440  13.56820  14.12490 110.3750  91.9896  94.6382
ZERR    2.00   0.00060   0.00070   0.00070   0.0013   0.0014   0.0013
LATT 1
SFAC C  H  N  O  S  Cl
UNIT 89.5  87  4  16  8  7
L.S. 20
BOND
FMAP 2
ACTA
CONF
PLAN 48
SIZE 0.20 0.30 0.50
TEMP -173.140
rem damp 50
WGHT    0.082500    3.553500
FVAR       0.12644
MOLE 1
DFIX 1.79 0.01 C1S CL1S C1S CL2S
PART 1 10.90
S1    5    0.713519    0.865700    0.050113    10.90000    0.02091    0.01721 =
         0.01671    0.00613    0.00241   -0.00181
S2    5    0.724282    0.636303   -0.020349    10.90000    0.02118    0.01829 =
         0.01691    0.00379    0.00258    0.00228
S3    5    0.785617    0.874228    0.452213    10.90000    0.02085    0.01773 =
         0.01527    0.00381    0.00330   -0.00156
S4    5    0.733237    0.646077    0.360469    10.90000    0.02335    0.01656 =
         0.01382    0.00543    0.00280    0.00080
N1    3    0.674685    0.745472    0.054590    10.90000    0.01933    0.01711 =
         0.01703    0.00625    0.00511    0.00056
N2    3    0.719063    0.770553    0.362854    10.90000    0.02086    0.01698 =
         0.01432    0.00622    0.00009   -0.00159
O1    4    0.820803    0.870964    0.048586    10.90000    0.02171    0.02966 =
         0.02760    0.01178    0.00255   -0.00430
O2    4    0.667532    0.937971    0.132742    10.90000    0.03033    0.01822 =
         0.01797    0.00485    0.00320    0.00100
O3    4    0.654100    0.550428   -0.023300    10.90000    0.02586    0.01860 =
         0.06601    0.00504    0.00860   -0.00077
O4    4    0.747462    0.654056   -0.110948    10.90000    0.05217    0.03815 =
         0.01515    0.00936    0.01084    0.02091
O5    4    0.794444    0.845573    0.540055    10.90000    0.02791    0.02917 =
         0.01296    0.00509    0.00296   -0.00481
O6    4    0.734791    0.963715    0.454372    10.90000    0.02857    0.01831 =
         0.03108    0.00391    0.00635    0.00272
O7    4    0.837702    0.633322    0.372094    10.90000    0.02604    0.02695 =
         0.02507    0.01073    0.00570    0.00572
O8    4    0.675263    0.581153    0.269382    10.90000    0.03065    0.01948 =
         0.01489    0.00264    0.00198   -0.00259
C1    1    0.487122    0.734470    0.059897    10.90000    0.01789    0.01971 =
         0.01361    0.00727    0.00126   -0.00119
C2    1    0.427921    0.817260    0.103096    10.90000    0.02377    0.02220 =
         0.01718    0.00560    0.00201    0.00157
AFIX  43
H2    2    0.450074    0.870602    0.166124    10.90000   -1.20000
AFIX   0
C3    1    0.337180    0.822307    0.054871    10.90000    0.02098    0.03185 =
         0.02306    0.00946    0.00572    0.00749
AFIX  43
H3    2    0.297941    0.879194    0.084573    10.90000   -1.20000
AFIX   0
C4    1    0.303925    0.744057   -0.036826    10.90000    0.01880    0.03682 =
         0.02418    0.01210    0.00077    0.00147
AFIX  43
H4    2    0.241786    0.747035   -0.069925    10.90000   -1.20000
AFIX   0
C5    1    0.361922    0.661534   -0.079826    10.90000    0.02720    0.02879 =
         0.01871    0.00444   -0.00252   -0.00183
AFIX  43
H5    2    0.338867    0.607771   -0.142306    10.90000   -1.20000
AFIX   0
C6    1    0.453263    0.656498   -0.032710    10.90000    0.02533    0.02150 =
         0.01571    0.00510    0.00215    0.00153
AFIX  43
H6    2    0.492711    0.600077   -0.063415    10.90000   -1.20000
AFIX   0
C7    1    0.587011    0.737587    0.111821    10.90000    0.01767    0.01647 =
         0.01623    0.00695    0.00329   -0.00083
C8    1    0.601596    0.749802    0.209943    10.90000    0.01870    0.01583 =
         0.01719    0.00762    0.00179    0.00001
C9    1    0.706309    0.782558    0.262445    10.90000    0.02082    0.02523 =
         0.01719    0.01090   -0.00081   -0.00404
AFIX  23
H9A   2    0.754247    0.740201    0.217352    10.90000   -1.20000
H9B   2    0.724833    0.857534    0.271342    10.90000   -1.20000
AFIX   0
C10   1    0.514293    0.741722    0.270040    10.90000    0.01847    0.02381 =
         0.01655    0.01044    0.00202    0.00126
C11   1    0.498276    0.824118    0.359276    10.90000    0.02542    0.02473 =
         0.01815    0.00879    0.00265    0.00373
AFIX  43
H11   2    0.544502    0.885838    0.383307    10.90000   -1.20000
AFIX   0
C12   1    0.414554    0.815462    0.412701    10.90000    0.02587    0.03919 =
         0.02022    0.01088    0.00592    0.01054
AFIX  43
H12   2    0.402868    0.872163    0.472296    10.90000   -1.20000
AFIX   0
C13   1    0.348160    0.724659    0.379495    10.90000    0.01999    0.04702 =
         0.02902    0.02030    0.00643    0.00642
AFIX  43
H13   2    0.291828    0.718761    0.417022    10.90000   -1.20000
AFIX   0
C14   1    0.363794    0.642081    0.291308    10.90000    0.01837    0.03778 =
         0.02657    0.01735    0.00076   -0.00410
AFIX  43
H14   2    0.318296    0.579761    0.268718    10.90000   -1.20000
AFIX   0
C15   1    0.446177    0.650877    0.236214    10.90000    0.02017    0.02535 =
         0.01889    0.01046    0.00033   -0.00201
AFIX  43
H15   2    0.456180    0.594944    0.175381    10.90000   -1.20000
AFIX   0
C16   1    0.664236    0.873375   -0.063989    10.90000    0.03119    0.01744 =
         0.01533    0.00762    0.00415   -0.00076
C17   1    0.566206    0.897816   -0.069978    10.90000    0.03262    0.02095 =
         0.01691    0.00818    0.00624    0.00197
AFIX  43
H17   2    0.524839    0.905788   -0.014971    10.90000   -1.20000
AFIX   0
C18   1    0.529329    0.910497   -0.157954    10.90000    0.03479    0.02205 =
         0.01957    0.00809    0.00081    0.00269
AFIX  43
H18   2    0.462052    0.926777   -0.163110    10.90000   -1.20000
AFIX   0
C19   1    0.590202    0.899544   -0.238896    10.90000    0.04312    0.01344 =
         0.01704    0.00637    0.00339    0.00091
C20   1    0.687426    0.874774   -0.231229    10.90000    0.03822    0.01836 =
         0.01821    0.00652    0.00820   -0.00296
AFIX  43
H20   2    0.728629    0.866157   -0.286449    10.90000   -1.20000
AFIX   0
C21   1    0.726037    0.862230   -0.144011    10.90000    0.03066    0.02226 =
         0.02095    0.00719    0.00925    0.00131
AFIX  43
H21   2    0.793445    0.846315   -0.138883    10.90000   -1.20000
AFIX   0
C22   1    0.549533    0.914204   -0.333408    10.90000    0.06211    0.02689 =
         0.01711    0.00760    0.00107    0.00956
AFIX 137
H22A  2    0.478964    0.928514   -0.326760    10.90000   -1.50000
H22B  2    0.554474    0.849822   -0.391885    10.90000   -1.50000
H22C  2    0.588706    0.973812   -0.343060    10.90000   -1.50000
AFIX   0
PART 1 10.60
SIMU 0.005 C23 > C29
DELU 0.005 C23 > C29
SIMU 0.005 C23" > C29"
DELU 0.005 C23" > C29"
DFIX 1.75 0.01 S2 C23
C23   1    0.840159    0.629919    0.039671    10.60000    0.02489    0.02763 =
         0.01978    0.00622    0.00196    0.00666
C24   1    0.927299    0.674159    0.012292    10.60000    0.02418    0.02991 =
         0.03991    0.00866    0.00068    0.00442
AFIX  43
H24   2    0.923456    0.709341   -0.035091    10.60000   -1.20000
AFIX   0
C25   1    1.020180    0.665886    0.055635    10.60000    0.02925    0.03231 =
         0.04875    0.00421   -0.00362    0.00558
AFIX  43
H25   2    1.079931    0.696567    0.038310    10.60000   -1.20000
AFIX   0
C26   1    1.026056    0.613192    0.123891    10.60000    0.03685    0.03354 =
         0.03561   -0.00299   -0.01003    0.01618
C27   1    0.938574    0.568936    0.149131    10.60000    0.04207    0.04363 =
         0.02366    0.00634   -0.00223    0.01980
AFIX  43
H27   2    0.942392    0.532938    0.195839    10.60000   -1.20000
AFIX   0
C28   1    0.844798    0.576577    0.106760    10.60000    0.03374    0.03989 =
         0.02243    0.01000    0.00356    0.01217
AFIX  43
H28   2    0.785139    0.545525    0.123872    10.60000   -1.20000
AFIX   0
C29   1    1.127473    0.602609    0.170799    10.60000    0.04619    0.04564 =
         0.04949   -0.01217   -0.02068    0.02241
AFIX 137
H29A  2    1.181343    0.616317    0.130384    10.60000   -1.50000
H29B  2    1.128403    0.530921    0.172042    10.60000   -1.50000
H29C  2    1.137717    0.653803    0.240058    10.60000   -1.50000
AFIX   0
PART 1 10.90
C30   1    0.904931    0.885364    0.407014    10.90000    0.01991    0.01829 =
         0.01727    0.00435    0.00220   -0.00352
C31   1    0.919611    0.939225    0.339604    10.90000    0.02582    0.02494 =
         0.02901    0.01427    0.00258   -0.00231
AFIX  43
H31   2    0.866930    0.973373    0.321209    10.90000   -1.20000
AFIX   0
C32   1    1.013437    0.941614    0.300025    10.90000    0.02957    0.03238 =
         0.02750    0.01479    0.00523   -0.00608
AFIX  43
H32   2    1.023916    0.976472    0.252852    10.90000   -1.20000
AFIX   0
C33   1    1.091624    0.894426    0.327824    10.90000    0.02610    0.02564 =
         0.02425    0.00337    0.00697   -0.00349
C34   1    1.075839    0.844264    0.397300    10.90000    0.02191    0.03199 =
         0.03085    0.01115    0.00410    0.00122
AFIX  43
H34   2    1.129631    0.813339    0.418315    10.90000   -1.20000
AFIX   0
C35   1    0.982379    0.838546    0.436700    10.90000    0.02268    0.02772 =
         0.02310    0.01127    0.00075   -0.00148
AFIX  43
H35   2    0.971971    0.802983    0.483316    10.90000   -1.20000
AFIX   0
C36   1    1.192366    0.896972    0.283452    10.90000    0.03137    0.03726 =
         0.03748    0.00929    0.01528   -0.00138
AFIX 137
H36A  2    1.199670    0.827722    0.232394    10.90000   -1.50000
H36B  2    1.246052    0.913960    0.337298    10.90000   -1.50000
H36C  2    1.196822    0.950889    0.251837    10.90000   -1.50000
AFIX   0
C37   1    0.672953    0.636612    0.465712    10.90000    0.02669    0.01417 =
         0.01218    0.00704    0.00145    0.00049
C38   1    0.730671    0.623360    0.543825    10.90000    0.02449    0.02775 =
         0.02116    0.01337    0.00007    0.00361
AFIX  43
H38   2    0.801278    0.620699    0.540591    10.90000   -1.20000
AFIX   0
C39   1    0.682677    0.614147    0.626389    10.90000    0.03456    0.02961 =
         0.01659    0.01299   -0.00342    0.00024
AFIX  43
H39   2    0.721179    0.604918    0.679948    10.90000   -1.20000
AFIX   0
C40   1    0.579482    0.618147    0.632303    10.90000    0.03514    0.01624 =
         0.01522    0.00646    0.00344   -0.00255
C41   1    0.524170    0.629346    0.551623    10.90000    0.02351    0.02635 =
         0.02213    0.00973    0.00515    0.00294
AFIX  43
H41   2    0.453466    0.631432    0.554306    10.90000   -1.20000
AFIX   0
C42   1    0.569945    0.637509    0.467555    10.90000    0.02897    0.02103 =
         0.01762    0.00948    0.00390    0.00897
AFIX  43
H42   2    0.531206    0.643575    0.412541    10.90000   -1.20000
AFIX   0
C43   1    0.529372    0.612043    0.723867    10.90000    0.04600    0.02756 =
         0.02168    0.01164    0.01108   -0.00089
AFIX 137
H43A  2    0.541507    0.680499    0.779134    10.90000   -1.50000
H43B  2    0.557033    0.557547    0.744834    10.90000   -1.50000
H43C  2    0.456869    0.594097    0.707395    10.90000   -1.50000
AFIX   6
PART 2 10.10
rem same 0.01 s1 > C43
simu 0.01 s1' > C43'
delu 0.005 s1' > C43'
isor 0.005 s1' > C43'
S1'   5    0.726149    0.873009    0.417625    10.10000    0.02006    0.01823 =
         0.01228    0.00506   -0.00425    0.00022
S2'   5    0.696042    0.641462    0.338985    10.10000    0.02215    0.01704 =
         0.01689    0.00772   -0.00562    0.00343
S3'   5    0.740597    0.858198    0.039355    10.10000    0.02897    0.01839 =
         0.01627    0.00744    0.00103    0.00197
S4'   5    0.765563    0.631854   -0.051179    10.10000    0.02223    0.02080 =
         0.01141    0.00193    0.00670    0.00338
N1'   3    0.668078    0.759723    0.333217    10.10000    0.01841    0.01556 =
         0.01418    0.00469   -0.00341    0.00322
N2'   3    0.713232    0.733663    0.034108    10.10000    0.01847    0.01933 =
         0.01419    0.00689    0.00367    0.00407
O1'   4    0.731598    0.861241    0.515219    10.10000    0.02932    0.02704 =
         0.01135    0.00609    0.00107   -0.00459
O2'   4    0.672760    0.954310    0.403448    10.10000    0.02767    0.01740 =
         0.03349    0.00392   -0.00669    0.00681
O3'   4    0.802999    0.646926    0.349427    10.10000    0.01679    0.02372 =
         0.01797    0.01098   -0.00308    0.00364
O4'   4    0.639668    0.563827    0.254037    10.10000    0.02681    0.01635 =
         0.02339    0.00375   -0.00746    0.00028
O5'   4    0.844672    0.875904    0.029350    10.10000    0.02511    0.02634 =
         0.02100    0.00879    0.00361    0.00176
O6'   4    0.696048    0.919771    0.129618    10.10000    0.01909    0.01980 =
         0.02067    0.00590   -0.00037    0.00228
O7'   4    0.693929    0.540271   -0.074141    10.10000    0.02459    0.02041 =
         0.02297    0.00622    0.00280    0.00376
O8'   4    0.792985    0.672675   -0.128007    10.10000    0.03059    0.02684 =
         0.02114    0.00797    0.00859    0.00336
C1'   1    0.480409    0.749284    0.309392    10.10000    0.01601    0.01524 =
         0.01176    0.00494    0.00142    0.00444
C2'   1    0.455052    0.820997    0.400493    10.10000    0.01486    0.01583 =
         0.01253    0.00496    0.00283    0.00417
AFIX  43
H2'   2    0.498535    0.883437    0.434119    10.10000   -1.20000
AFIX   5
C3'   1    0.367180    0.802215    0.442507    10.10000    0.01916    0.02178 =
         0.01990    0.00673    0.00609    0.00344
AFIX  43
H3'   2    0.348353    0.854191    0.502284    10.10000   -1.20000
AFIX   5
C4'   1    0.305612    0.707683    0.398163    10.10000    0.02070    0.02375 =
         0.02256    0.00643    0.00468    0.00253
AFIX  43
H4'   2    0.246802    0.693977    0.429200    10.10000   -1.20000
AFIX   5
C5'   1    0.330977    0.633927    0.308434    10.10000    0.01975    0.02136 =
         0.02017    0.00799    0.00219    0.00157
AFIX  43
H5'   2    0.290987    0.568261    0.278917    10.10000   -1.20000
AFIX   5
C6'   1    0.414678    0.656505    0.262273    10.10000    0.01623    0.01428 =
         0.01490    0.00580    0.00021    0.00200
AFIX  43
H6'   2    0.428319    0.608859    0.197734    10.10000   -1.20000
AFIX   5
C7'   1    0.580485    0.762720    0.269192    10.10000    0.01560    0.01279 =
         0.01056    0.00582    0.00202    0.00227
C8'   1    0.593040    0.743595    0.170037    10.10000    0.01426    0.01187 =
         0.01001    0.00641    0.00047    0.00117
C9'   1    0.695599    0.719865    0.131620    10.10000    0.01528    0.01618 =
         0.01313    0.00498    0.00332    0.00246
AFIX  23
H9'1  2    0.747167    0.766389    0.183251    10.10000   -1.20000
H9'2  2    0.705101    0.646008    0.124251    10.10000   -1.20000
AFIX   5
C10'  1    0.507425    0.740349    0.099739    10.10000    0.01545    0.01308 =
         0.01162    0.00459    0.00015    0.00135
C11'  1    0.488079    0.658930    0.006923    10.10000    0.01485    0.01732 =
         0.01299    0.00334    0.00049   -0.00040
AFIX  43
H11'  2    0.533967    0.606842   -0.014798    10.10000   -1.20000
AFIX   5
C12'  1    0.403007    0.652421   -0.054482    10.10000    0.01535    0.01723 =
         0.01285    0.00080    0.00026    0.00304
AFIX  43
H12'  2    0.387475    0.591915   -0.113930    10.10000   -1.20000
AFIX   5
C13'  1    0.340002    0.732919   -0.030578    10.10000    0.01739    0.01882 =
         0.01891    0.00599    0.00114    0.00267
AFIX  43
H13'  2    0.283545    0.729892   -0.074565    10.10000   -1.20000
AFIX   5
C14'  1    0.361955    0.818827    0.060264    10.10000    0.01422    0.01506 =
         0.01673    0.00494    0.00453    0.00248
AFIX  43
H14'  2    0.321145    0.875866    0.077382    10.10000   -1.20000
AFIX   5
C15'  1    0.442835    0.820886    0.125110    10.10000    0.01421    0.01653 =
         0.01741    0.00517    0.00249    0.00391
AFIX  43
H15'  2    0.454814    0.877847    0.187907    10.10000   -1.20000
AFIX   5
C16'  1    0.850132    0.884625    0.381719    10.10000    0.02070    0.01926 =
         0.01893    0.00572    0.00097    0.00091
C17'  1    0.868261    0.917228    0.299538    10.10000    0.02457    0.02368 =
         0.02340    0.01056    0.00044   -0.00047
AFIX  43
H17'  2    0.814267    0.928116    0.259963    10.10000   -1.20000
AFIX   5
C18'  1    0.967547    0.933239    0.277438    10.10000    0.02672    0.02805 =
         0.02832    0.01094    0.00337   -0.00075
AFIX  43
H18'  2    0.981431    0.967485    0.230353    10.10000   -1.20000
AFIX   5
C19'  1    1.047375    0.900988    0.321694    10.10000    0.02492    0.02841 =
         0.02787    0.00750    0.00253    0.00141
C20'  1    1.027369    0.861805    0.397151    10.10000    0.02327    0.02628 =
         0.02634    0.00572    0.00165    0.00401
AFIX  43
H20'  2    1.080480    0.838960    0.428259    10.10000   -1.20000
AFIX   5
C21'  1    0.930353    0.854963    0.428928    10.10000    0.02039    0.02032 =
         0.02243    0.00613   -0.00044    0.00463
AFIX  43
H21'  2    0.918524    0.830009    0.482988    10.10000   -1.20000
AFIX   5
C22'  1    1.150199    0.907493    0.283723    10.10000    0.02576    0.03195 =
         0.03119    0.00119    0.00545   -0.00043
AFIX   3
H22D  2    1.144195    0.908399    0.214693    10.10000   -1.50000
H22E  2    1.183990    0.846039    0.283720    10.10000   -1.50000
H22F  2    1.189575    0.972289    0.327956    10.10000   -1.50000
AFIX   5
rem AFIX 66
C23'  1    0.645836    0.632802    0.440222    10.10000    0.02542    0.02362 =
         0.02291    0.01034   -0.00021    0.00262
C24'  1    0.710270    0.635513    0.525684    10.10000    0.02366    0.02522 =
         0.02440    0.01113    0.00076    0.00284
AFIX  43
H24'  2    0.780886    0.649259    0.524292    10.10000   -1.20000
AFIX   5
C25'  1    0.672460    0.618740    0.609477    10.10000    0.02632    0.02620 =
         0.02393    0.01194   -0.00223    0.00215
AFIX  43
H25'  2    0.716655    0.608467    0.658604    10.10000   -1.20000
AFIX   5
C26'  1    0.570003    0.616983    0.621466    10.10000    0.02438    0.02529 =
         0.02525    0.00766    0.00215    0.00149
C27'  1    0.507149    0.625747    0.545428    10.10000    0.02397    0.02518 =
         0.02457    0.00747    0.00038    0.00402
AFIX  43
H27'  2    0.436340    0.613942    0.547024    10.10000   -1.20000
AFIX   5
C28'  1    0.547901    0.652137    0.465636    10.10000    0.02616    0.02702 =
         0.02695    0.00843    0.00157    0.00710
AFIX  43
H28'  2    0.508143    0.683397    0.428897    10.10000   -1.20000
AFIX   5
C29'  1    0.524904    0.616283    0.719128    10.10000    0.02766    0.02310 =
         0.02632    0.01053   -0.00031   -0.00065
AFIX   3
H29D  2    0.493132    0.681570    0.750060    10.10000   -1.50000
H29E  2    0.578224    0.611438    0.766219    10.10000   -1.50000
H29F  2    0.474418    0.555390    0.703769    10.10000   -1.50000
AFIX   5
rem AFIX  66
C30'  1    0.670432    0.866780   -0.065359    10.10000    0.02531    0.02115 =
         0.02150    0.00937    0.00145    0.00269
C31'  1    0.569524    0.885786   -0.062573    10.10000    0.02584    0.02393 =
         0.02232    0.00933    0.00155    0.00159
AFIX  43
H31'  2    0.533604    0.889734   -0.004714    10.10000   -1.20000
AFIX   5
C32'  1    0.522293    0.898903   -0.146438    10.10000    0.02723    0.02360 =
         0.02444    0.00917    0.00212    0.00357
AFIX  43
H32'  2    0.454144    0.914149   -0.144224    10.10000   -1.20000
AFIX   5
C33'  1    0.571674    0.890359   -0.231881    10.10000    0.02859    0.02251 =
         0.02377    0.01018   -0.00006    0.00172
C34'  1    0.667491    0.854779   -0.238671    10.10000    0.02716    0.02385 =
         0.02314    0.00992    0.00183   -0.00260
AFIX  43
H34'  2    0.698719    0.837364   -0.301022    10.10000   -1.20000
AFIX   5
C35'  1    0.717601    0.844657   -0.154519    10.10000    0.02471    0.02128 =
         0.02097    0.00817    0.00271   -0.00015
AFIX  43
H35'  2    0.783504    0.822746   -0.158789    10.10000   -1.20000
AFIX   5
C36'  1    0.529330    0.923936   -0.315095    10.10000    0.04885    0.03913 =
         0.02035    0.00919    0.00231    0.01580
AFIX 137
H36D  2    0.473122    0.872867   -0.352869    10.10000   -1.50000
H36E  2    0.581841    0.926786   -0.361029    10.10000   -1.50000
H36F  2    0.505536    0.993954   -0.285416    10.10000   -1.50000
AFIX   5
rem AFIX  66
C37'  1    0.871784    0.612890    0.014754    10.10000    0.02700    0.02813 =
         0.02702    0.00699    0.00120    0.00730
C38'  1    0.862097    0.533268    0.056377    10.10000    0.03604    0.03453 =
         0.03470    0.01311    0.00104    0.00832
AFIX  43
H38'  2    0.802211    0.486530    0.042519    10.10000   -1.20000
AFIX   5
C39'  1    0.940578    0.522997    0.118074    10.10000    0.03967    0.03719 =
         0.03705    0.01435   -0.00119    0.00824
AFIX  43
H39'  2    0.932292    0.471849    0.149811    10.10000   -1.20000
AFIX   5
C41'  1    1.030327    0.585737    0.134082    10.10000    0.03949    0.03901 =
         0.03781    0.01241   -0.00067    0.00662
C40'  1    1.037915    0.663231    0.089226    10.10000    0.03377    0.03773 =
         0.03507    0.00986   -0.00205    0.00528
AFIX  43
H40'  2    1.098363    0.708925    0.101453    10.10000   -1.20000
AFIX   5
C42'  1    0.960455    0.675637    0.027684    10.10000    0.03139    0.03474 =
         0.03369    0.00926   -0.00154    0.00356
AFIX  43
H42'  2    0.968666    0.726287   -0.004637    10.10000   -1.20000
AFIX   5
C43'  1    1.116238    0.572931    0.198017    10.10000    0.04082    0.04551 =
         0.03945    0.01719   -0.00208    0.00330
AFIX 137
H43D  2    1.115603    0.623925    0.267006    10.10000   -1.50000
H43E  2    1.179683    0.585424    0.169400    10.10000   -1.50000
H43F  2    1.109739    0.501049    0.199553    10.10000   -1.50000
AFIX   0
PART 3 10.30
SAME 0.005 C23 > C29
C23"  1    0.829669    0.619647    0.043784    10.30000    0.02203    0.02815 =
         0.02285    0.00428    0.00472    0.00944
C24"  1    0.921834    0.679142    0.053165    10.30000    0.02635    0.02882 =
         0.03079    0.00330   -0.00076    0.00759
AFIX  43
H24"  2    0.929549    0.732192    0.023649    10.30000   -1.20000
AFIX   0
C25"  1    1.002619    0.659139    0.106869    10.30000    0.02688    0.03405 =
         0.03994    0.00210   -0.00566    0.00705
AFIX  43
H25"  2    1.065857    0.699276    0.114288    10.30000   -1.20000
AFIX   0
C26"  1    0.991482    0.581183    0.149548    10.30000    0.02832    0.04161 =
         0.03765    0.00737   -0.00424    0.01373
C27"  1    0.898995    0.523204    0.139115    10.30000    0.03068    0.04145 =
         0.03003    0.01329    0.00256    0.01482
AFIX  43
H27"  2    0.891019    0.470473    0.168998    10.30000   -1.20000
AFIX   0
C28"  1    0.817389    0.541402    0.085182    10.30000    0.02559    0.03394 =
         0.02455    0.01156    0.00494    0.01367
AFIX  43
H28"  2    0.754424    0.500608    0.077096    10.30000   -1.20000
AFIX   0
C29"  1    1.077614    0.564318    0.214507    10.30000    0.04520    0.05892 =
         0.05924    0.00650   -0.01798    0.02636
AFIX 137
H29G  2    1.119265    0.512791    0.171360    10.30000   -1.50000
H29H  2    1.050028    0.537809    0.265448    10.30000   -1.50000
H29I  2    1.118769    0.631544    0.248359    10.30000   -1.50000
AFIX   0
PART 0
MOLE 2
PART 1 10.600
C1S   1    0.722641    0.221252    0.282424    10.60000    0.07762    0.04701 =
         0.06483    0.02945   -0.00798   -0.00359
AFIX  23
H1S1  2    0.749899    0.183940    0.216562    10.60000   -1.20000
H1S2  2    0.648770    0.217119    0.270635    10.60000   -1.20000
AFIX   0
CL1S  6    0.769706    0.351982    0.322494    10.60000    0.08009    0.04844 =
         0.07960    0.02332   -0.02342   -0.00335
CL2S  6    0.748123    0.154754    0.363323    10.60000    0.07923    0.05508 =
         0.04154    0.02038    0.01371    0.02327
PART 1  10.4000
MOLE 3
SAME 0.005 C1S > CL2S
SIMU 0.005 C1T > CL2T
DELU 0.05 C1T > CL2T
SIMU 0.005 C1T' > CL2'
DELU 0.05 C1T' > CL2'
SIMU 0.005 C1T" > CL2"
DELU 0.05 C1T" > CL2"
SIMU 0.005 C1TX > CL2X
DELU 0.05 C1TX > CL2X
isor 0.005 c1t
C1T   1   -0.014745    0.068594    0.064512    10.40000    0.04919    0.06637 =
         0.07114    0.03594    0.00290   -0.00675
AFIX  23
H1T1  2    0.052809    0.059288    0.038138    10.40000   -1.20000
H1T2  2   -0.039686    0.002290    0.074231    10.40000   -1.20000
AFIX   0
CL1T  6   -0.093203    0.087778   -0.024160    10.40000    0.05588    0.06840 =
         0.08324    0.03811   -0.01150   -0.01824
CL2T  6   -0.003393    0.169706    0.180632    10.40000    0.07519    0.09341 =
         0.07290    0.01714    0.01186    0.00812
PART 2  10.30000
SAME 0.005 C1S > CL2S
C1T'  1    0.011878    0.257703    0.209883    10.30000    0.05892    0.09822 =
         0.10309   -0.00514   -0.00020    0.02758
AFIX  23
H1T3  2   -0.026613    0.319128    0.240406    10.30000   -1.20000
H1T4  2    0.069761    0.281291    0.178542    10.30000   -1.20000
AFIX   0
CL1'  6   -0.063534    0.160927    0.117921    10.30000    0.06262    0.14625 =
         0.12765   -0.03454   -0.02445    0.03958
CL2'  6    0.055841    0.215096    0.303785    10.30000    0.07316    0.06614 =
         0.06307    0.02345    0.01534    0.01042
PART -3 10.25
SAME 0.005 C1S > CL2S
C1T"  1    0.951267    0.411871    0.481596    10.25000    0.09504    0.26395 =
         0.26082    0.16133   -0.01144    0.03373
AFIX  23
H1T5  2    0.999228    0.358837    0.477348    10.25000   -1.20000
H1T6  2    0.894732    0.377410    0.430572    10.25000   -1.20000
AFIX   0
CL1"  6    1.010314    0.514559    0.454023    10.25000    0.09046    0.26103 =
         0.23439    0.14817   -0.01285    0.03686
CL2"  6    0.905996    0.452984    0.600607    10.25000    0.10323    0.25853 =
         0.27095    0.20006   -0.00035    0.03003
PART -4 10.10
SAME 0.005 C1S > CL2S
isor 0.005 c1tx > Cl2x
C1TX  1    0.955408    0.447882    0.420249    10.10000    0.10960    0.11720 =
         0.11636    0.04549    0.00184    0.01566
AFIX  23
H1T7  2    0.905651    0.491854    0.405791    10.10000   -1.20000
H1T8  2    0.992719    0.490191    0.485438    10.10000   -1.20000
AFIX   0
CL1X  6    1.038264    0.419984    0.326823    10.10000    0.10143    0.11271 =
         0.11035    0.05020   -0.00511    0.02102
CL2X  6    0.891919    0.338017    0.433164    10.10000    0.12853    0.13344 =
         0.14314    0.04797    0.00634    0.01364
PART 4 10.10
SAME 0.002 C1S > CL2S
isor 0.005 c1y > Cl2y
rem dfix 2.9 cl1t cl2y
dfix 1.79 0.01 c1y cl1y c1y cl2y
simu 0.005 c1y > Cl2y
delu 0.005 c1y > Cl2y
C1Y   1    0.949960    0.229745    0.209996    10.10000    0.07469    0.08056 =
         0.07901    0.02587    0.00696    0.00813
AFIX  23
H1Y1  2    0.924423    0.207290    0.265024    10.10000   -1.20000
H1Y2  2    0.895004    0.261259    0.185415    10.10000   -1.20000
AFIX   0
CL1Y  6    0.976322    0.118811    0.112274    10.10000    0.04090    0.06742 =
         0.07225    0.03152    0.02190    0.00432
CL2Y  6    1.048530    0.326940    0.260726    10.10000    0.07792    0.08867 =
         0.08233    0.03020    0.00388    0.00348
PART
HKLF 4
REM  mo_NP5971_0m in P-1
REM R1 =  0.0651 for   11565 Fo > 4sig(Fo)  and  0.0770 for all   13949 data
REM   1094 parameters refined using   1153 restraints
END
WGHT      0.0825      3.5581
REM Highest difference peak  1.338,  deepest hole -0.579,  1-sigma level  0.093
Q1    1   0.0000  0.0000  0.0000  10.50000  0.05    1.34
Q2    1  -0.0633  0.1278  0.1818  11.00000  0.05    1.24
Q3    1   0.8076  0.1766  0.3506  11.00000  0.05    1.20
Q4    1  -0.0578  0.0686  0.0017  11.00000  0.05    1.02
Q5    1   0.7388  0.2093  0.3276  11.00000  0.05    0.86
Q6    1   0.7968  0.3162  0.3562  11.00000  0.05    0.86
Q7    1   0.7463  0.2735  0.3262  11.00000  0.05    0.84
Q8    1   1.0452  0.3735  0.2876  11.00000  0.05    0.80
Q9    1   0.7473  0.3718  0.3800  11.00000  0.05    0.76
Q10   1   0.8357  0.2338  0.3782  11.00000  0.05    0.71
Q11   1  -0.1186  0.1296  0.0218  11.00000  0.05    0.70
Q12   1   0.9553  0.4056  0.3960  11.00000  0.05    0.64
Q13   1   1.0582  0.4620  0.3498  11.00000  0.05    0.63
Q14   1  -0.0018  0.2528  0.3050  11.00000  0.05    0.56
Q15   1   0.0113  0.1959  0.2472  11.00000  0.05    0.53
Q16   1   0.6841  0.8655 -0.0102  11.00000  0.05    0.48
Q17   1   0.7086  0.3268  0.3215  11.00000  0.05    0.42
Q18   1   0.6971  0.8596 -0.1880  11.00000  0.05    0.38
Q19   1   0.9217  0.4128  0.5464  11.00000  0.05    0.37
Q20   1   0.9031  0.3957  0.5213  11.00000  0.05    0.36
Q21   1  -0.0039  0.2236  0.1571  11.00000  0.05    0.35
Q22   1   0.8011  0.8555  0.4967  11.00000  0.05    0.34
Q23   1   0.5515  0.9091 -0.1134  11.00000  0.05    0.34
Q24   1   0.4794  0.7034  0.2514  11.00000  0.05    0.32
Q25   1   0.9345  0.2373  0.3363  11.00000  0.05    0.31
Q26   1   0.5743  0.9144 -0.2833  11.00000  0.05    0.31
Q27   1   0.9172  0.9184  0.3783  11.00000  0.05    0.31
Q28   1   0.4628  0.7775  0.0810  11.00000  0.05    0.30
Q29   1   0.9687  0.3938  0.5131  11.00000  0.05    0.30
Q30   1   1.2456  0.8382  0.2965  11.00000  0.05    0.30
Q31   1   0.8826  0.3002  0.3928  11.00000  0.05    0.30
Q32   1   0.6999  0.6448  0.4296  11.00000  0.05    0.30
Q33   1   0.9837  0.6573  0.1401  11.00000  0.05    0.30
Q34   1   0.9145  0.2849  0.2901  11.00000  0.05    0.29
Q35   1   0.5388  0.6222  0.4991  11.00000  0.05    0.29
Q36   1   0.8612  0.5771  0.0565  11.00000  0.05    0.28
Q37   1   0.7167  0.7753  0.3191  11.00000  0.05    0.28
Q38   1   0.6605  0.5744 -0.0585  11.00000  0.05    0.28
Q39   1   0.4803  0.7103  0.0081  11.00000  0.05    0.27
Q40   1   0.3563  0.6823  0.3289  11.00000  0.05    0.27
Q41   1   0.6559  0.7619  0.2330  11.00000  0.05    0.27
Q42   1   0.9632  0.9670  0.3243  11.00000  0.05    0.27
Q43   1   0.8468  0.8872  0.4291  11.00000  0.05    0.27
Q44   1   0.6811  0.8613 -0.1129  11.00000  0.05    0.26
Q45   1   0.9227  0.3416  0.3544  11.00000  0.05    0.26
Q46   1   0.6374  0.8814 -0.2304  11.00000  0.05    0.26
Q47   1   0.3296  0.7760  0.0106  11.00000  0.05    0.25
Q48   1   0.7540  0.9057  0.4098  11.00000  0.05    0.25
;
_shelx_res_checksum              83941
_shelx_hkl_file
;
  -1   0   0   31.83    1.04
   1   0   0   33.33    1.01
  -2   0   0   72.30    2.25
  -2   0   0   72.26    2.09
  -2   0   0   70.77    2.17
   2   0   0   69.06    2.25
   2   0   0   67.72    2.08
   2   0   0   68.33    2.39
   2   0   0   71.16    2.17
  -3   0   0  156.61    4.70
  -3   0   0  159.47    4.51
   3   0   0  149.55    5.15
   3   0   0  144.91    4.66
   3   0   0  148.20    5.37
   3   0   0  152.99    4.51
  -4   0   0  276.77    8.50
  -4   0   0  295.05    8.17
   4   0   0  277.51    8.81
   4   0   0  272.65    8.50
   4   0   0  275.00    8.18
   4   0   0  260.94    9.36
  -5   0   0   83.44    2.55
   5   0   0   80.76    2.44
   5   0   0   84.23    2.62
   5   0   0   77.34    2.80
   5   0   0   82.68    2.55
  -6   0   0    2.35    0.13
   6   0   0    2.36    0.12
   6   0   0    2.18    0.14
   6   0   0    2.32    0.13
   6   0   0    2.60    0.13
  -7   0   0   19.17    0.66
   7   0   0   18.76    0.66
   7   0   0   19.10    0.72
   7   0   0   18.63    0.66
   7   0   0   19.32    0.62
  -8   0   0   11.19    0.43
   8   0   0   11.33    0.43
   8   0   0   11.00    0.40
   8   0   0   11.18    0.43
   8   0   0   11.39    0.47
  -9   0   0    0.65    0.10
   9   0   0    0.49    0.08
   9   0   0    0.59    0.09
   9   0   0    0.49    0.07
 -10   0   0    1.64    0.14
  10   0   0    1.65    0.13
  10   0   0    1.85    0.15
  10   0   0    1.75    0.16
 -11   0   0   15.66    0.61
  11   0   0   15.79    0.61
  11   0   0   16.25    0.67
  11   0   0   15.49    0.57
 -12   0   0    6.93    0.36
  12   0   0    7.36    0.33
  12   0   0    7.21    0.35
  12   0   0    7.25    0.38
  13   0   0    7.92    0.39
  13   0   0    7.93    0.42
  13   0   0    7.28    0.35
  14   0   0   11.00    0.49
  14   0   0   10.85    0.47
  14   0   0   10.08    0.53
  15   0   0    4.94    0.32
  15   0   0    5.26    0.31
  15   0   0    4.46    0.33
  16   0   0    8.52    0.45
  16   0   0    8.41    0.48
  16   0   0    8.09    0.43
  17   0   0    2.17    0.27
  17   0   0    2.47    0.26
  18   0   0    1.51    0.23
  18   0   0    1.71    0.23
  19   0   0    0.31    0.15
  19   0   0    0.54    0.19
  19  -1   0    1.09    0.22
  19  -1   0    0.90    0.19
  18  -1   0    1.58    0.24
  18  -1   0    1.20    0.20
  17  -1   0    5.81    0.39
  17  -1   0    5.65    0.37
  16  -1   0    1.02    0.19
  16  -1   0    0.95    0.17
  15  -1   0    4.05    0.30
  15  -1   0    4.24    0.28
  14  -1   0    2.74    0.22
  14  -1   0    2.23    0.23
  14  -1   0    2.76    0.21
  13  -1   0    0.20    0.08
  13  -1   0    0.08    0.08
  13  -1   0    0.27    0.10
  12  -1   0    0.19    0.08
  12  -1   0    0.06    0.07
  12  -1   0    0.18    0.08
 -12   1   0    0.19    0.08
  11  -1   0    2.09    0.17
  11  -1   0    1.80    0.17
  11  -1   0    1.73    0.15
 -11   1   0    1.96    0.17
  10  -1   0    1.50    0.14
  10  -1   0    1.67    0.13
  10  -1   0    1.71    0.15
 -10   1   0    1.68    0.15
   9  -1   0    2.43    0.17
   9  -1   0    2.48    0.15
   9  -1   0    2.76    0.16
  -9   1   0    2.44    0.17
   8  -1   0   13.73    0.50
   8  -1   0   13.04    0.50
   8  -1   0   13.30    0.55
   8  -1   0   13.35    0.47
  -8   1   0   13.86    0.51
   7  -1   0    1.04    0.10
   7  -1   0    1.48    0.10
   7  -1   0    0.96    0.09
   7  -1   0    1.50    0.10
  -7   1   0    1.26    0.11
   6  -1   0   83.13    2.74
   6  -1   0   84.55    2.55
   6  -1   0   90.33    2.67
   6  -1   0   85.48    2.93
  -6   1   0   82.49    2.67
   5  -1   0   32.17    1.07
   5  -1   0   32.58    1.15
   5  -1   0   33.02    1.00
   5  -1   0   31.10    1.04
  -5   1   0   32.97    1.05
  -5   1   0   32.99    1.14
   4  -1   0   22.94    0.71
   4  -1   0   22.11    0.76
   4  -1   0   22.16    0.74
   4  -1   0   23.60    0.82
  -4   1   0   23.27    0.82
  -4   1   0   24.27    0.70
  -4   1   0   22.58    0.75
   3  -1   0  149.56    4.32
   3  -1   0  134.72    4.47
   3  -1   0  146.19    4.62
   3  -1   0  143.13    4.92
  -3   1   0  141.28    4.48
  -3   1   0  158.72    4.31
  -3   1   0  145.18    4.91
   2  -1   0   39.24    1.17
   2  -1   0   39.07    1.26
   2  -1   0   37.04    1.22
  -2   1   0   38.72    1.23
  -2   1   0   39.12    1.34
  -2   1   0   41.38    1.17
  -2   1   0   39.53    1.26
   1  -1   0  329.88   11.04
   1  -1   0  349.46   10.34
   1  -1   0  312.93   11.15
  -1   1   0  375.07   10.23
  -1   1   0  344.44   11.10
  -1   1   0  330.38   11.00
   0  -1   0    0.93    0.05
  -1  -1   0  247.94    7.26
  -1  -1   0  241.07    6.97
   1   1   0  249.96    7.26
   1   1   0  205.03    7.17
  -2  -1   0   33.25    1.10
  -2  -1   0   36.63    1.15
   2   1   0   37.52    1.18
   2   1   0   38.65    1.10
   2   1   0   38.24    1.15
  -3  -1   0   77.93    2.45
   3   1   0   79.33    2.35
   3   1   0   79.64    2.45
   3   1   0   79.76    2.52
  -4  -1   0    0.41    0.05
   4   1   0    0.43    0.04
   4   1   0    0.44    0.04
   4   1   0    0.33    0.05
  -5  -1   0    7.44    0.28
   5   1   0    7.34    0.26
   5   1   0    7.40    0.29
  -6  -1   0   11.20    0.41
   6   1   0   11.12    0.42
   6   1   0   11.18    0.38
   6   1   0   11.42    0.41
  -7  -1   0   13.57    0.49
   7   1   0   13.99    0.50
   7   1   0   12.83    0.46
   7   1   0   13.62    0.54
   7   1   0   13.74    0.49
  -8  -1   0   63.15    1.97
   8   1   0   64.23    2.02
   8   1   0   59.36    2.16
   8   1   0   60.29    1.88
   8   1   0   60.36    1.98
  -9  -1   0   19.77    0.71
   9   1   0   21.75    0.80
   9   1   0   20.32    0.74
   9   1   0   20.04    0.68
   9   1   0   19.19    0.72
 -10  -1   0   49.31    1.62
  10   1   0   49.74    1.65
  10   1   0   49.32    1.79
  10   1   0   48.63    1.54
 -11  -1   0    1.92    0.18
  11   1   0    2.91    0.19
  11   1   0    2.17    0.20
  11   1   0    2.34    0.16
  12   1   0    0.44    0.10
  12   1   0    0.49    0.11
  12   1   0    0.32    0.09
  13   1   0    0.99    0.14
  13   1   0    1.08    0.15
  13   1   0    0.87    0.15
  14   1   0   13.97    0.57
  14   1   0   12.95    0.64
  14   1   0   14.85    0.61
  15   1   0    4.41    0.31
  15   1   0    4.49    0.29
  15   1   0    4.89    0.34
  16   1   0    4.82    0.35
  16   1   0    4.43    0.32
  16   1   0    4.14    0.30
  17   1   0    3.85    0.31
  17   1   0    3.79    0.33
  18   1   0    1.22    0.21
  18   1   0    0.98    0.20
  19   1   0    6.77    0.47
  19   1   0    6.95    0.44
  19  -2   0    0.22    0.17
  19  -2   0    0.00    0.13
  18  -2   0    1.60    0.23
  18  -2   0    1.14    0.21
  17  -2   0    1.71    0.24
  17  -2   0    1.79    0.23
  16  -2   0    0.24    0.14
  16  -2   0    0.42    0.13
  15  -2   0    0.70    0.15
  15  -2   0    0.43    0.12
  14  -2   0    1.02    0.15
  14  -2   0    1.04    0.16
  13  -2   0    8.12    0.38
  13  -2   0    7.97    0.39
  12  -2   0    0.36    0.09
  12  -2   0    0.52    0.10
 -12   2   0    0.16    0.09
  11  -2   0   36.61    1.20
  11  -2   0   37.44    1.29
 -11   2   0   36.46    1.27
  10  -2   0    3.60    0.20
  10  -2   0    3.99    0.22
 -10   2   0    3.95    0.24
   9  -2   0    2.83    0.19
   9  -2   0    3.26    0.18
   9  -2   0    2.86    0.17
  -9   2   0    3.03    0.19
   8  -2   0   20.53    0.72
   8  -2   0   20.81    0.78
   8  -2   0   19.57    0.67
  -8   2   0   20.21    0.72
   7  -2   0    1.60    0.11
   7  -2   0    1.42    0.11
  -7   2   0    1.55    0.12
   6  -2   0   20.21    0.67
   6  -2   0   21.29    0.72
   6  -2   0   20.55    0.71
  -6   2   0   21.85    0.72
   5  -2   0    1.52    0.09
   5  -2   0    1.31    0.09
   5  -2   0    1.39    0.08
  -5   2   0    1.58    0.10
  -5   2   0    1.65    0.08
  -5   2   0    1.30    0.10
   4  -2   0   94.55    2.86
   4  -2   0   94.58    3.08
   4  -2   0   94.68    2.98
  -4   2   0   93.61    2.99
  -4   2   0  103.21    2.85
  -4   2   0   97.12    3.28
   3  -2   0    7.46    0.25
   3  -2   0    6.83    0.27
   3  -2   0    7.75    0.27
  -3   2   0    7.65    0.28
  -3   2   0    7.40    0.24
  -3   2   0    8.18    0.27
   2  -2   0    4.71    0.17
   2  -2   0    4.42    0.18
   2  -2   0    4.84    0.18
  -2   2   0    4.66    0.19
  -2   2   0    5.24    0.18
  -2   2   0    4.91    0.16
   1  -2   0   56.51    1.86
   1  -2   0   62.50    1.91
  -1   2   0   58.61    1.87
  -1   2   0   62.75    1.91
  -1   2   0   59.26    1.78
   0  -2   0  182.90    5.80
   0  -2   0  175.02    5.63
   0   2   0  187.99    5.80
   0   2   0  181.84    5.65
  -1  -2   0  121.01    3.62
  -1  -2   0  107.16    3.48
   1   2   0  121.56    3.63
   1   2   0  120.28    3.49
  -2  -2   0   37.04    1.17
  -2  -2   0   37.77    1.12
   2   2   0   36.73    1.18
   2   2   0   36.92    1.11
  -3  -2   0    1.46    0.09
  -3  -2   0    1.61    0.08
   3   2   0    1.51    0.10
   3   2   0    1.62    0.08
   3   2   0    1.61    0.07
  -4  -2   0    1.39    0.09
   4   2   0    1.28    0.09
   4   2   0    1.48    0.08
  -5  -2   0    5.57    0.22
   5   2   0    4.86    0.20
   5   2   0    5.13    0.20
   5   2   0    5.11    0.23
  -6  -2   0    3.15    0.15
   6   2   0    2.83    0.16
   6   2   0    2.68    0.14
   6   2   0    3.03    0.14
  -7  -2   0   11.79    0.44
   7   2   0   11.51    0.46
   7   2   0   11.99    0.43
   7   2   0   12.13    0.42
  -8  -2   0   13.60    0.49
   8   2   0   12.57    0.50
   8   2   0   13.08    0.46
   8   2   0   12.56    0.48
  -9  -2   0   16.48    0.60
   9   2   0   16.36    0.57
   9   2   0   15.97    0.67
   9   2   0   16.86    0.63
   9   2   0   16.21    0.60
 -10  -2   0   19.07    0.69
  10   2   0   18.99    0.66
  10   2   0   19.28    0.77
  10   2   0   18.40    0.69
 -11  -2   0   12.74    0.52
  11   2   0   13.18    0.50
  11   2   0   13.24    0.59
  11   2   0   12.94    0.52
  12   2   0    0.36    0.09
  12   2   0    0.59    0.12
  12   2   0    0.41    0.10
  13   2   0   20.79    0.79
  13   2   0   20.44    0.74
  13   2   0   19.81    0.86
  14   2   0   12.36    0.51
  14   2   0   11.05    0.52
  14   2   0   12.05    0.59
  15   2   0    0.70    0.15
  15   2   0    0.78    0.16
  15   2   0    0.60    0.14
  16   2   0    1.12    0.18
  16   2   0    1.06    0.20
  16   2   0    0.72    0.16
  17   2   0    0.09    0.12
  17   2   0    0.16    0.12
  17   2   0    0.02    0.11
  18   2   0    1.78    0.25
  18   2   0    2.97    0.29
  19   2   0    0.65    0.19
  19  -3   0    4.04    0.34
  18  -3   0    1.68    0.26
  18  -3   0    1.83    0.24
  17  -3   0    4.73    0.34
  17  -3   0    4.14    0.33
  16  -3   0    0.49    0.14
  16  -3   0    0.35    0.12
  15  -3   0    4.41    0.30
  15  -3   0    4.09    0.28
  14  -3   0   10.90    0.47
  14  -3   0   10.54    0.50
  13  -3   0    1.66    0.17
  13  -3   0    0.99    0.14
  12  -3   0    2.30    0.18
  12  -3   0    2.12    0.19
 -12   3   0    2.30    0.20
  11  -3   0    2.17    0.17
 -11   3   0    1.36    0.17
  10  -3   0   34.83    1.17
  10  -3   0   37.01    1.27
 -10   3   0   37.91    1.26
   9  -3   0    2.71    0.16
   9  -3   0    2.61    0.17
  -9   3   0    2.63    0.19
   8  -3   0   11.36    0.43
   8  -3   0   10.55    0.40
  -8   3   0   10.65    0.44
   7  -3   0   55.59    1.87
   7  -3   0   57.04    1.74
  -7   3   0   58.45    1.84
   6  -3   0   49.92    1.65
   6  -3   0   50.77    1.53
  -6   3   0   50.02    1.62
   5  -3   0    4.09    0.17
   5  -3   0    4.12    0.19
   5  -3   0    4.65    0.19
  -5   3   0    4.29    0.20
  -5   3   0    4.02    0.20
  -5   3   0    4.83    0.16
   4  -3   0    0.92    0.06
   4  -3   0    1.26    0.08
   4  -3   0    0.93    0.08
  -4   3   0    0.84    0.08
  -4   3   0    0.95    0.06
   3  -3   0   61.98    1.90
   3  -3   0   56.09    1.85
   3  -3   0   58.05    1.77
  -3   3   0   56.74    1.86
  -3   3   0   61.80    1.90
  -3   3   0   59.45    1.76
   2  -3   0  107.51    3.40
   2  -3   0  108.37    3.25
   2  -3   0  112.36    3.50
  -2   3   0  115.74    3.50
  -2   3   0  108.90    3.25
  -2   3   0  106.44    3.41
   1  -3   0  122.86    3.97
   1  -3   0  128.62    4.09
  -1   3   0  127.43    3.98
  -1   3   0  136.67    4.23
   0  -3   0    0.46    0.06
   0  -3   0    0.37    0.03
   0   3   0    0.34    0.05
   0   3   0    0.50    0.03
  -1  -3   0  583.05   17.46
  -1  -3   0  563.76   17.44
   1   3   0  556.52   16.72
   1   3   0  569.64   17.46
  -2  -3   0   71.73    2.27
  -2  -3   0   78.14    2.39
   2   3   0   79.13    2.27
   2   3   0   77.16    2.40
  -3  -3   0   32.52    1.04
   3   3   0   32.76    0.98
   3   3   0   31.35    1.05
   3   3   0   31.86    1.03
  -4  -3   0    3.49    0.17
   4   3   0    4.11    0.15
   4   3   0    3.78    0.15
   4   3   0    3.78    0.19
  -5  -3   0    4.31    0.20
   5   3   0    4.56    0.18
   5   3   0    4.07    0.21
   5   3   0    4.33    0.18
  -6  -3   0   17.86    0.63
   6   3   0   19.53    0.63
   6   3   0   18.03    0.66
   6   3   0   17.67    0.60
  -7  -3   0    3.13    0.18
   7   3   0    3.98    0.17
   7   3   0    3.61    0.21
  -8  -3   0   12.13    0.47
   8   3   0   12.48    0.45
   8   3   0   13.44    0.47
   8   3   0   12.62    0.51
  -9  -3   0    2.33    0.16
   9   3   0    2.32    0.15
   9   3   0    2.33    0.15
   9   3   0    2.31    0.18
 -10  -3   0   12.54    0.49
  10   3   0   12.10    0.55
  10   3   0   12.08    0.48
  10   3   0   12.21    0.46
  11   3   0    9.19    0.42
  11   3   0   10.70    0.49
  11   3   0    9.99    0.41
  12   3   0    0.06    0.08
  12   3   0    0.19    0.09
  12   3   0    0.17    0.08
  13   3   0    0.57    0.14
  13   3   0    0.37    0.10
  13   3   0    0.90    0.14
  14   3   0    0.11    0.10
  14   3   0    0.41    0.11
  14   3   0    0.21    0.09
  15   3   0    0.61    0.14
  15   3   0    0.53    0.15
  15   3   0    0.54    0.13
  16   3   0    0.06    0.09
  16   3   0    0.12    0.12
  16   3   0    0.18    0.12
  17   3   0    0.07    0.11
  17   3   0   -0.04    0.11
  17   3   0   -0.01    0.10
  18   3   0    0.77    0.18
  18   3   0    1.15    0.21
  19   3   0   -0.09    0.14
  18  -4   0    5.38    0.36
  18  -4   0    4.99    0.40
  17  -4   0    4.18    0.32
  17  -4   0    4.51    0.36
  16  -4   0    6.62    0.41
  16  -4   0    6.42    0.37
  15  -4   0    1.18    0.18
  15  -4   0    1.21    0.17
  14  -4   0   11.09    0.50
  14  -4   0   12.45    0.56
  13  -4   0    5.38    0.32
  13  -4   0    4.97    0.29
  12  -4   0    0.31    0.09
  12  -4   0    0.40    0.09
 -12   4   0    0.54    0.13
  11  -4   0   54.24    1.73
  11  -4   0   53.88    1.86
 -11   4   0   56.58    1.85
  10  -4   0    0.18    0.06
  10  -4   0    0.24    0.07
 -10   4   0    0.16    0.08
   9  -4   0    0.29    0.07
   9  -4   0    0.34    0.07
  -9   4   0    0.29    0.08
   8  -4   0    9.39    0.38
   8  -4   0    8.57    0.35
  -8   4   0    9.35    0.40
   7  -4   0   51.04    1.73
   7  -4   0   52.86    1.61
  -7   4   0   53.07    1.71
   6  -4   0    0.44    0.06
   6  -4   0    0.52    0.07
  -6   4   0    0.47    0.08
   5  -4   0   29.82    1.00
   5  -4   0   28.39    0.92
  -5   4   0   29.01    1.00
  -5   4   0   31.68    0.91
   4  -4   0   80.49    2.64
   4  -4   0   82.10    2.46
  -4   4   0   80.27    2.59
  -4   4   0   86.23    2.44
   3  -4   0   28.89    0.92
   3  -4   0   31.19    0.99
   3  -4   0   28.85    0.98
  -3   4   0   29.63    1.00
  -3   4   0   30.71    0.92
  -3   4   0   31.97    0.99
   2  -4   0   70.89    2.24
   2  -4   0   67.17    2.19
  -2   4   0   74.13    2.23
  -2   4   0   69.08    2.08
  -2   4   0   68.42    2.21
   1  -4   0    4.32    0.20
   1  -4   0    4.43    0.17
  -1   4   0    4.45    0.21
  -1   4   0    4.67    0.16
   0  -4   0 1000.00   31.37
   0   4   0  960.76   31.23
   0   4   0  971.11   31.80
  -1  -4   0    1.49    0.12
   1   4   0    1.63    0.08
   1   4   0    1.59    0.07
  -2  -4   0  112.35    3.59
   2   4   0  118.39    3.42
   2   4   0  115.43    3.60
  -3  -4   0    4.93    0.22
   3   4   0    4.81    0.22
   3   4   0    4.76    0.18
   3   4   0    4.61    0.17
  -4  -4   0   39.32    1.26
   4   4   0   39.05    1.28
   4   4   0   37.72    1.25
   4   4   0   39.51    1.19
  -5  -4   0   14.55    0.52
   5   4   0   14.07    0.54
   5   4   0   15.07    0.48
   5   4   0   14.04    0.49
  -6  -4   0   48.10    1.57
   6   4   0   50.00    1.58
   6   4   0   48.70    1.49
   6   4   0   47.61    1.60
  -7  -4   0    0.59    0.08
   7   4   0    0.47    0.09
   7   4   0    0.51    0.07
   7   4   0    0.59    0.07
  -8  -4   0    0.67    0.09
   8   4   0    0.85    0.09
   8   4   0    0.84    0.12
   8   4   0    0.59    0.08
  -9  -4   0    0.22    0.07
   9   4   0    0.30    0.07
   9   4   0    0.14    0.08
   9   4   0    0.21    0.06
 -10  -4   0    2.88    0.19
  10   4   0    3.04    0.19
  10   4   0    3.28    0.19
  11   4   0    1.87    0.16
  11   4   0    1.89    0.16
  12   4   0    2.52    0.19
  12   4   0    2.42    0.20
  12   4   0    2.46    0.23
  13   4   0    0.14    0.09
  13   4   0    0.09    0.09
  13   4   0   -0.01    0.09
  14   4   0    0.21    0.10
  14   4   0    0.06    0.10
  14   4   0    0.03    0.09
  15   4   0    0.00    0.09
  15   4   0    0.11    0.10
  15   4   0    0.01    0.10
  16   4   0    1.65    0.21
  16   4   0    1.35    0.22
  16   4   0    1.28    0.20
  17   4   0    2.36    0.26
  17   4   0    2.96    0.32
  17   4   0    2.87    0.28
  18   4   0   -0.11    0.11
  18   4   0   -0.13    0.12
  18  -5   0    3.43    0.34
  17  -5   0    1.46    0.23
  17  -5   0    1.06    0.18
  16  -5   0   -0.04    0.09
  16  -5   0    0.12    0.09
  15  -5   0    2.29    0.21
  15  -5   0    2.38    0.25
  14  -5   0    0.24    0.10
  14  -5   0    0.34    0.11
  13  -5   0    0.18    0.08
  13  -5   0    0.26    0.11
  12  -5   0    2.16    0.20
  12  -5   0    1.88    0.17
 -12   5   0    2.27    0.22
  11  -5   0   14.86    0.58
  11  -5   0   15.89    0.64
 -11   5   0   16.44    0.66
  10  -5   0    1.09    0.12
  10  -5   0    1.34    0.14
 -10   5   0    1.13    0.16
   9  -5   0    1.51    0.14
   9  -5   0    1.54    0.12
  -9   5   0    1.32    0.16
   8  -5   0    8.79    0.38
   8  -5   0    9.10    0.36
  -8   5   0   10.09    0.42
   7  -5   0   16.21    0.59
   7  -5   0   15.85    0.55
  -7   5   0   16.13    0.62
   6  -5   0   38.00    1.28
   6  -5   0   37.88    1.18
  -6   5   0   38.41    1.28
   5  -5   0   11.20    0.40
   5  -5   0   11.44    0.43
  -5   5   0   11.14    0.46
  -5   5   0   12.62    0.38
   4  -5   0    5.18    0.22
   4  -5   0    5.41    0.20
  -4   5   0    5.35    0.19
  -4   5   0    5.01    0.25
   3  -5   0  225.09    7.18
  -3   5   0  213.06    6.97
  -3   5   0  238.03    7.16
  -3   5   0  226.54    6.65
   2  -5   0   34.51    1.18
  -2   5   0   35.05    1.10
  -2   5   0   39.09    1.16
  -2   5   0   35.53    1.19
   1  -5   0   55.87    1.86
  -1   5   0   56.09    1.86
  -1   5   0   61.26    1.84
   0  -5   0    0.76    0.05
   0   5   0    1.00    0.11
   0   5   0    0.91    0.04
  -1  -5   0   18.92    0.64
   1   5   0   17.46    0.56
   1   5   0   17.86    0.58
   1   5   0   17.23    0.63
  -2  -5   0   12.43    0.46
   2   5   0   12.37    0.40
   2   5   0   11.87    0.42
   2   5   0   12.32    0.47
  -3  -5   0   64.71    2.05
   3   5   0   64.91    1.93
   3   5   0   64.33    2.04
   3   5   0   62.56    2.06
  -4  -5   0    3.45    0.18
   4   5   0    3.44    0.14
   4   5   0    3.59    0.20
   4   5   0    3.38    0.15
  -5  -5   0    7.44    0.32
   5   5   0    7.31    0.34
   5   5   0    8.12    0.28
   5   5   0    7.70    0.29
  -6  -5   0    5.64    0.26
   6   5   0    5.71    0.24
   6   5   0    6.22    0.23
   6   5   0    5.41    0.29
  -7  -5   0   12.33    0.46
   7   5   0   11.29    0.43
   7   5   0   12.03    0.43
   7   5   0   11.38    0.49
  -8  -5   0   30.38    1.07
   8   5   0   30.82    1.12
   8   5   0   32.64    1.07
   8   5   0   32.67    1.02
  -9  -5   0   11.02    0.43
   9   5   0    9.90    0.41
   9   5   0   10.39    0.40
  10   5   0   28.54    0.98
  10   5   0   27.06    0.93
  11   5   0    2.85    0.19
  11   5   0    2.85    0.19
  12   5   0    8.58    0.40
  12   5   0    8.38    0.46
  12   5   0    8.21    0.38
  13   5   0    3.83    0.30
  13   5   0    3.21    0.24
  13   5   0    3.70    0.25
  14   5   0    1.49    0.19
  14   5   0    1.33    0.17
  14   5   0    1.74    0.23
  15   5   0    5.57    0.39
  15   5   0    4.66    0.32
  15   5   0    5.70    0.34
  16   5   0    1.96    0.23
  16   5   0    1.61    0.22
  16   5   0    1.60    0.25
  17   5   0    0.79    0.20
  17   5   0    0.55    0.16
  17   5   0    0.69    0.17
  18   5   0    0.43    0.17
  18  -6   0    0.21    0.14
  17  -6   0    0.19    0.14
  16  -6   0    1.74    0.23
  15  -6   0    0.14    0.09
  15  -6   0    0.22    0.11
  14  -6   0    0.03    0.08
  14  -6   0   -0.01    0.07
  13  -6   0    1.04    0.16
  13  -6   0    0.90    0.14
  12  -6   0    0.04    0.07
  12  -6   0    0.13    0.09
 -12   6   0    0.16    0.10
  11  -6   0    0.43    0.09
  11  -6   0    0.39    0.11
 -11   6   0    0.44    0.13
  10  -6   0   33.24    1.09
  10  -6   0   31.32    1.17
 -10   6   0   34.61    1.20
   9  -6   0    0.99    0.12
   9  -6   0    0.85    0.10
  -9   6   0    0.86    0.14
   8  -6   0   35.34    1.13
   8  -6   0   34.36    1.22
  -8   6   0   36.84    1.25
   7  -6   0    1.93    0.13
  -7   6   0    2.32    0.20
   6  -6   0   82.69    2.61
   6  -6   0   82.33    2.81
  -6   6   0   94.68    2.58
  -6   6   0   87.01    2.79
   5  -6   0   33.06    1.13
   5  -6   0   32.24    1.04
  -5   6   0   35.60    1.02
  -5   6   0   33.07    1.15
   4  -6   0  112.88    3.68
  -4   6   0  114.42    3.62
  -4   6   0  116.55    3.40
   3  -6   0    3.77    0.17
  -3   6   0    4.35    0.17
  -3   6   0    3.63    0.22
  -3   6   0    4.14    0.16
   2  -6   0   23.76    0.81
  -2   6   0   25.90    0.79
  -2   6   0   23.57    0.76
  -2   6   0   23.90    0.85
   1  -6   0   13.16    0.46
  -1   6   0   14.27    0.45
  -1   6   0   12.93    0.52
   0  -6   0    2.86    0.11
   0   6   0    2.67    0.10
   0   6   0    2.56    0.11
   0   6   0    2.65    0.17
  -1  -6   0   12.14    0.47
   1   6   0   12.12    0.39
   1   6   0   11.55    0.47
  -2  -6   0   35.81    1.17
   2   6   0   33.77    1.12
   2   6   0   33.54    1.10
   2   6   0   35.95    1.07
  -3  -6   0    2.09    0.14
   3   6   0    1.67    0.10
   3   6   0    1.77    0.15
   3   6   0    1.54    0.07
  -4  -6   0    6.12    0.28
   4   6   0    6.05    0.23
   4   6   0    5.82    0.30
   4   6   0    5.87    0.22
  -5  -6   0    1.75    0.14
   5   6   0    1.88    0.12
   5   6   0    1.84    0.10
   5   6   0    1.89    0.16
  -6  -6   0    0.94    0.11
   6   6   0    1.00    0.09
   6   6   0    1.03    0.08
   6   6   0    0.78    0.13
  -7  -6   0    6.97    0.32
   7   6   0    7.21    0.28
   7   6   0    7.02    0.29
   7   6   0    6.64    0.35
  -8  -6   0    0.24    0.07
   8   6   0    0.39    0.07
   8   6   0    0.28    0.07
   9   6   0    8.98    0.36
   9   6   0    8.33    0.35
  10   6   0    1.82    0.16
  10   6   0    2.26    0.18
  11   6   0   24.35    0.87
  11   6   0   23.67    0.83
  12   6   0    1.28    0.15
  12   6   0    1.46    0.16
  13   6   0    8.73    0.50
  13   6   0    8.39    0.41
  13   6   0    9.26    0.43
  14   6   0    9.73    0.45
  14   6   0    8.70    0.45
  14   6   0   10.14    0.55
  15   6   0    1.78    0.26
  15   6   0    1.45    0.19
  15   6   0    1.35    0.19
  16   6   0   -0.06    0.11
  16   6   0    0.08    0.12
  16   6   0    0.03    0.13
  17   6   0    1.11    0.21
  17   6   0    0.88    0.21
  18  -7   0    0.01    0.14
  17  -7   0    3.53    0.34
  16  -7   0    0.16    0.12
  15  -7   0    3.04    0.28
  14  -7   0    2.13    0.21
  14  -7   0    2.29    0.24
  13  -7   0    0.05    0.08
  13  -7   0    0.17    0.08
  12  -7   0    0.52    0.12
  12  -7   0    0.13    0.08
 -12   7   0    0.28    0.12
  11  -7   0    7.57    0.35
  11  -7   0    7.68    0.39
 -11   7   0    7.96    0.44
  10  -7   0    4.53    0.27
  10  -7   0    3.85    0.23
 -10   7   0    3.96    0.30
   9  -7   0    6.54    0.29
   9  -7   0    6.47    0.32
  -9   7   0    6.37    0.37
   8  -7   0    7.70    0.35
   8  -7   0    7.43    0.31
  -8   7   0    7.75    0.40
   7  -7   0   32.22    1.03
   7  -7   0   31.76    1.12
  -7   7   0   32.81    1.16
   6  -7   0   30.77    1.01
   6  -7   0   32.06    1.11
  -6   7   0   34.42    0.99
  -6   7   0   31.82    1.14
   5  -7   0    2.69    0.15
  -5   7   0    2.50    0.11
  -5   7   0    2.20    0.19
   4  -7   0    5.92    0.26
  -4   7   0    6.05    0.31
  -4   7   0    6.09    0.22
   3  -7   0    2.82    0.15
  -3   7   0    2.73    0.20
  -3   7   0    3.02    0.13
   2  -7   0   29.55    1.01
  -2   7   0   31.68    0.99
  -2   7   0   30.15    1.06
   1  -7   0   15.34    0.54
  -1   7   0   16.54    0.52
  -1   7   0   15.48    0.61
   0  -7   0   24.81    0.90
   0   7   0   25.42    0.90
   0   7   0   25.46    0.81
   0   7   0   25.50    0.79
  -1  -7   0   86.57    2.74
   1   7   0   84.64    2.55
  -2  -7   0   54.99    1.83
   2   7   0   56.45    1.69
  -3  -7   0    3.30    0.20
   3   7   0    3.18    0.15
   3   7   0    3.09    0.14
   3   7   0    3.13    0.12
  -4  -7   0   33.50    1.16
   4   7   0   33.31    1.20
   4   7   0   36.04    1.11
   4   7   0   33.58    1.07
  -5  -7   0   10.70    0.44
   5   7   0   10.47    0.48
   5   7   0   10.84    0.39
   5   7   0   11.04    0.38
  -6  -7   0    0.81    0.11
   6   7   0    0.69    0.08
   6   7   0    0.76    0.14
   6   7   0    1.04    0.08
  -7  -7   0    5.25    0.27
   7   7   0    5.22    0.22
   7   7   0    5.06    0.24
   8   7   0    0.29    0.06
   8   7   0    0.19    0.06
   9   7   0    0.30    0.07
   9   7   0    0.27    0.08
  10   7   0   14.96    0.58
  10   7   0   15.31    0.57
  11   7   0    5.41    0.29
  11   7   0    5.17    0.28
  12   7   0    2.52    0.21
  12   7   0    2.19    0.19
  13   7   0    0.23    0.10
  13   7   0    0.27    0.10
  14   7   0    0.13    0.12
  14   7   0    0.18    0.10
  14   7   0    0.30    0.12
  15   7   0    0.71    0.19
  15   7   0    0.57    0.15
  16   7   0    0.39    0.18
  16   7   0    0.45    0.15
  17   7   0    0.19    0.17
  17  -8   0    0.37    0.17
  16  -8   0    4.50    0.36
  15  -8   0   -0.10    0.10
  14  -8   0    4.47    0.33
  13  -8   0    1.64    0.21
  12  -8   0    3.35    0.24
  12  -8   0    3.17    0.26
 -12   8   0    3.67    0.31
  11  -8   0    9.39    0.41
  11  -8   0    9.81    0.46
 -11   8   0    9.57    0.51
  10  -8   0   11.56    0.53
  10  -8   0   12.50    0.48
 -10   8   0   13.14    0.60
   9  -8   0   14.36    0.59
   9  -8   0   14.07    0.53
  -9   8   0   15.55    0.66
   8  -8   0    2.20    0.17
   8  -8   0    2.35    0.15
  -8   8   0    2.63    0.24
   7  -8   0   23.41    0.87
  -7   8   0   25.13    0.93
   6  -8   0    0.37    0.07
  -6   8   0    0.44    0.05
  -6   8   0    0.41    0.11
   5  -8   0   21.73    0.81
  -5   8   0   23.04    0.87
  -5   8   0   24.04    0.72
   4  -8   0   10.59    0.41
  -4   8   0   10.82    0.48
  -4   8   0   10.80    0.36
   3  -8   0    2.01    0.13
  -3   8   0    2.26    0.12
  -3   8   0    2.35    0.19
   2  -8   0   58.59    1.96
  -2   8   0   62.63    2.01
   1  -8   0   25.84    0.87
  -1   8   0   27.57    0.96
  -1   8   0   26.02    0.82
   0  -8   0  152.35    4.79
   0   8   0  153.88    4.50
   0   8   0  149.96    4.79
  -1  -8   0    5.96    0.32
   1   8   0    6.45    0.24
  -2  -8   0   83.49    2.75
   2   8   0   87.32    2.56
  -3  -8   0    2.85    0.21
   3   8   0    2.73    0.14
  -4  -8   0   33.87    1.19
   4   8   0   35.37    1.09
   4   8   0   33.02    1.14
   4   8   0   36.17    1.12
  -5  -8   0    0.12    0.07
   5   8   0    0.09    0.03
   5   8   0    0.15    0.05
   5   8   0    0.02    0.07
  -6  -8   0   13.61    0.56
   6   8   0   14.65    0.50
   6   8   0   13.99    0.50
   7   8   0    6.49    0.26
   7   8   0    5.84    0.27
   8   8   0    0.92    0.11
   8   8   0    1.08    0.10
   9   8   0    4.31    0.22
   9   8   0    3.84    0.23
  10   8   0    0.46    0.10
  10   8   0    0.68    0.10
  11   8   0    0.88    0.12
  11   8   0    0.94    0.14
  12   8   0    2.09    0.20
  13   8   0    1.37    0.17
  14   8   0    0.41    0.17
  14   8   0    0.29    0.12
  15   8   0    0.46    0.18
  15   8   0    0.45    0.15
  16   8   0    3.76    0.33
  16   8   0    4.31    0.40
  17   8   0    0.42    0.19
  17  -9   0    2.58    0.31
  16  -9   0    0.00    0.11
  15  -9   0    2.85    0.29
  14  -9   0    4.79    0.35
  13  -9   0    0.36    0.11
  12  -9   0    0.34    0.12
  11  -9   0    5.18    0.32
 -11   9   0    5.82    0.39
  10  -9   0    4.49    0.29
 -10   9   0    5.67    0.37
   9  -9   0    2.28    0.19
  -9   9   0    2.57    0.26
   8  -9   0    8.00    0.38
  -8   9   0    8.62    0.45
   7  -9   0    4.33    0.24
  -7   9   0    3.77    0.29
   6  -9   0   29.51    1.05
  -6   9   0   30.37    1.12
   5  -9   0    5.63    0.27
  -5   9   0    5.63    0.34
  -5   9   0    6.17    0.22
   4  -9   0    0.45    0.08
  -4   9   0    0.50    0.12
  -4   9   0    0.49    0.06
   3  -9   0   33.92    1.21
  -3   9   0   37.52    1.12
  -3   9   0   36.71    1.29
   2  -9   0   18.10    0.64
  -2   9   0   19.70    0.75
  -2   9   0   18.28    0.59
   1  -9   0  116.34    3.76
  -1   9   0  119.32    3.51
  -1   9   0  118.36    3.78
   0  -9   0    1.38    0.17
   0   9   0    1.61    0.10
   0   9   0    1.95    0.19
  -1  -9   0   89.37    2.85
   1   9   0   86.49    2.63
  -2  -9   0    2.99    0.22
   2   9   0    3.14    0.15
  -3  -9   0   28.13    1.00
   3   9   0   26.91    0.87
  -4  -9   0    4.23    0.26
   4   9   0    4.01    0.20
   5   9   0    5.41    0.25
   5   9   0    5.84    0.22
   6   9   0    0.24    0.06
   6   9   0    0.27    0.05
   7   9   0    0.92    0.09
   7   9   0    0.94    0.11
   8   9   0   23.80    0.81
   9   9   0    2.38    0.19
  10   9   0    4.17    0.25
  11   9   0    0.50    0.12
  12   9   0   20.69    0.78
  13   9   0   -0.01    0.10
  14   9   0    9.54    0.48
  15   9   0    7.06    0.43
  15   9   0    8.07    0.53
  16   9   0    2.51    0.34
  17 -10   0    0.13    0.14
  16 -10   0    0.08    0.12
  15 -10   0    0.59    0.16
  14 -10   0    0.70    0.16
  13 -10   0    0.73    0.16
  12 -10   0    1.10    0.17
  11 -10   0    2.50    0.23
 -11  10   0    2.50    0.29
  10 -10   0    3.69    0.26
 -10  10   0    3.79    0.33
   9 -10   0    0.54    0.11
  -9  10   0    0.57    0.16
   8 -10   0    8.48    0.40
  -8  10   0    8.17    0.47
   7 -10   0    1.82    0.16
  -7  10   0    1.79    0.22
   6 -10   0    8.03    0.36
  -6  10   0    8.35    0.45
   5 -10   0    2.59    0.17
  -5  10   0    2.97    0.25
   4 -10   0    7.38    0.32
  -4  10   0    7.66    0.42
   3 -10   0   26.39    0.94
  -3  10   0   28.55    1.05
  -3  10   0   27.37    0.85
   2 -10   0   46.96    1.60
  -2  10   0   50.52    1.48
  -2  10   0   49.11    1.70
   1 -10   0   19.10    0.77
  -1  10   0   18.89    0.61
  -1  10   0   19.28    0.78
   0 -10   0   82.38    2.76
   0  10   0   85.63    2.53
   0  10   0   84.84    2.78
  -1 -10   0    2.76    0.24
   1  10   0    2.92    0.15
  -2 -10   0   28.94    1.08
   2  10   0   30.50    0.94
   3  10   0    2.05    0.13
   4  10   0   35.97    1.14
   5  10   0    2.00    0.14
   6  10   0    0.36    0.08
   7  10   0    1.06    0.13
   8  10   0    0.37    0.09
   9  10   0   12.46    0.50
  10  10   0    0.20    0.09
  11  10   0    6.07    0.33
  12  10   0    0.37    0.12
  13  10   0    6.89    0.39
  14  10   0    1.29    0.20
  15  10   0    5.31    0.45
  16 -11   0    0.61    0.19
  15 -11   0    0.02    0.11
  14 -11   0    0.75    0.18
  13 -11   0    6.56    0.41
  12 -11   0    3.89    0.30
  11 -11   0    0.95    0.16
 -11  11   0    1.02    0.22
  10 -11   0    3.27    0.25
 -10  11   0    3.41    0.33
   9 -11   0    0.36    0.10
  -9  11   0    0.42    0.17
   8 -11   0    0.13    0.07
  -8  11   0    0.14    0.12
   7 -11   0    1.54    0.16
  -7  11   0    1.52    0.23
   6 -11   0    1.04    0.13
  -6  11   0    0.83    0.18
   5 -11   0    2.46    0.17
  -5  11   0    2.81    0.26
   4 -11   0    4.17    0.22
  -4  11   0    4.65    0.33
  -4  11   0    4.62    0.17
   3 -11   0    2.74    0.16
  -3  11   0    2.98    0.26
  -3  11   0    3.29    0.14
  -2  11   0    6.83    0.25
  -2  11   0    7.35    0.41
  -1  11   0    6.72    0.40
  -1  11   0    6.97    0.26
   0  11   0   11.20    0.40
   0  11   0   12.25    0.56
   1  11   0   27.85    0.88
   2  11   0    5.89    0.25
   3  11   0    2.78    0.16
   4  11   0    1.28    0.12
   5  11   0    1.44    0.13
   6  11   0    0.06    0.06
   7  11   0    0.07    0.07
   8  11   0    4.81    0.27
   9  11   0    0.13    0.09
  10  11   0    2.96    0.23
  11  11   0    0.22    0.11
  12  11   0    5.43    0.34
  13  11   0    0.05    0.11
  14  11   0    3.35    0.30
  16 -12   0    5.24    0.42
  15 -12   0   -0.02    0.11
  14 -12   0    3.49    0.32
  13 -12   0    4.62    0.35
  12 -12   0    4.07    0.32
  11 -12   0    4.74    0.33
  10 -12   0    0.53    0.13
 -10  12   0    0.76    0.20
   9 -12   0    9.82    0.48
  -9  12   0   10.15    0.58
   8 -12   0    9.10    0.44
  -8  12   0    9.57    0.55
   7 -12   0    8.17    0.40
  -7  12   0    9.28    0.52
   6 -12   0    0.13    0.07
  -6  12   0    0.29    0.14
  -5  12   0    6.79    0.43
  -4  12   0    1.19    0.20
  -3  12   0    1.72    0.23
  -2  12   0   30.79    0.95
  -2  12   0   30.43    1.18
  -1  12   0    0.28    0.05
  -1  12   0    0.27    0.13
   0  12   0    6.52    0.26
   1  12   0    0.17    0.06
   2  12   0   27.90    0.90
   3  12   0    0.26    0.07
   4  12   0    1.59    0.14
   5  12   0    0.13    0.07
   6  12   0    1.18    0.13
   7  12   0    0.15    0.08
   8  12   0    1.14    0.15
   9  12   0   -0.01    0.08
  10  12   0   -0.13    0.08
  11  12   0    0.00    0.10
  12  12   0    0.65    0.16
  13  12   0   -0.07    0.10
  15 -13   0    1.76    0.29
  14 -13   0    0.05    0.12
  13 -13   0    4.62    0.39
  -9  13   0    0.05    0.13
  -8  13   0    3.08    0.34
  -7  13   0    0.22    0.14
  -6  13   0    7.75    0.49
  -5  13   0    1.65    0.26
  -4  13   0    9.97    0.56
  -3  13   0   13.73    0.67
  -2  13   0    2.89    0.29
  -1  13   0   22.93    0.96
   0  13   0   10.40    0.39
   1  13   0   54.99    1.69
   2  13   0    1.18    0.11
   3  13   0   13.83    0.50
   4  13   0    3.19    0.19
   5  13   0    0.29    0.09
   6  13   0    1.53    0.16
   7  13   0    0.31    0.10
   8  13   0    0.61    0.12
   9  13   0    2.08    0.21
  10  13   0    2.49    0.24
  11  13   0   -0.02    0.10
  12  13   0    0.80    0.17
  -9  14   0    0.00    0.15
  -8  14   0    2.06    0.31
  -7  14   0    9.05    0.57
  -6  14   0    4.22    0.38
  -5  14   0    3.14    0.37
  -4  14   0    1.22    0.22
  -3  14   0   14.27    0.72
  -2  14   0   35.94    1.40
   3  14   0    0.00    0.06
   4  14   0   15.07    0.55
   5  14   0    4.57    0.25
   6  14   0    0.02    0.08
   7  14   0    0.79    0.14
   8  14   0    0.37    0.12
   9  14   0   10.12    0.47
  10  14   0    0.52    0.14
  11  14   0    3.84    0.30
  -8  15   0    3.12    0.39
  -7  15   0    2.06    0.32
  -6  15   0    0.18    0.17
  -5  15   0    1.43    0.27
  -4  15   0    0.48    0.17
  -3  15   0    1.09    0.22
  -2  15   0   -0.01    0.11
   8  15   0    7.41    0.39
   9  15   0    0.29    0.13
  10  15   0    2.41    0.25
  -7  16   0    0.30    0.21
  -6  16   0    4.90    0.45
  -5  16   0    0.27    0.17
  -4  16   0    1.82    0.30
  -3  16   0    1.33    0.26
  -5  17   0    0.12    0.16
  -4  17   0    1.23    0.27
  -4  17  -1    2.39    0.35
  -3  16  -1   10.50    0.64
  -4  16  -1    0.14    0.16
  -5  16  -1    8.17    0.56
  -6  16  -1    0.23    0.19
  10  15  -1    0.82    0.17
   9  15  -1   -0.01    0.10
   8  15  -1    0.40    0.13
   7  15  -1    0.26    0.11
   6  15  -1    0.02    0.08
   5  15  -1    2.15    0.19
   4  15  -1    0.98    0.14
  -3  15  -1    0.01    0.12
  -4  15  -1   -0.04    0.12
  -5  15  -1    0.54    0.19
  -6  15  -1    0.30    0.16
  -7  15  -1    0.74    0.20
  11  14  -1    0.86    0.17
  10  14  -1    1.12    0.17
   9  14  -1    1.41    0.18
   8  14  -1    2.00    0.20
   7  14  -1    3.20    0.22
   6  14  -1    0.43    0.11
   5  14  -1    7.64    0.34
   4  14  -1    5.02    0.26
   3  14  -1    1.43    0.14
   2  14  -1    0.80    0.11
   1  14  -1   10.07    0.39
  -2  14  -1    0.00    0.11
  -3  14  -1    4.02    0.35
  -4  14  -1    1.85    0.27
  -5  14  -1   -0.01    0.10
  -6  14  -1    1.27    0.24
  -7  14  -1    0.40    0.17
  -8  14  -1    0.15    0.14
  12  13  -1    0.23    0.13
  11  13  -1    3.08    0.26
  10  13  -1    3.76    0.27
   9  13  -1    1.33    0.17
   8  13  -1    3.43    0.23
   7  13  -1    0.02    0.08
   6  13  -1    5.60    0.28
   5  13  -1    0.05    0.07
   4  13  -1    7.45    0.32
   3  13  -1    3.57    0.20
   2  13  -1   13.10    0.48
   1  13  -1   15.68    0.55
   0  13  -1   -0.02    0.05
  -1  13  -1    1.11    0.21
  -1  13  -1    1.19    0.11
  -2  13  -1    1.29    0.21
  -3  13  -1    5.31    0.38
  -5  13  -1    0.09    0.12
  -6  13  -1    1.47    0.23
  -7  13  -1    0.29    0.16
  -8  13  -1    1.98    0.29
   8 -13   1    1.68    0.20
  -9  13  -1    1.55    0.27
   9 -13   1    1.00    0.17
  10 -13   1    1.04    0.18
  11 -13   1    0.23    0.12
  12 -13   1    3.56    0.31
  13 -13   1    0.10    0.14
  14 -13   1    1.18    0.23
  15 -13   1    0.49    0.18
  13  12  -1    1.00    0.18
  12  12  -1    0.06    0.11
  11  12  -1    2.35    0.23
  10  12  -1    0.57    0.13
   9  12  -1    6.58    0.34
   8  12  -1    0.05    0.08
   7  12  -1    1.81    0.17
   6  12  -1    4.71    0.25
   5  12  -1    5.51    0.26
   4  12  -1    0.37    0.08
   3  12  -1    0.98    0.11
   2  12  -1    8.42    0.33
   1  12  -1    0.99    0.10
   0  12  -1    0.06    0.05
  -1  12  -1    0.06    0.05
  -1  12  -1    0.04    0.09
  -2  12  -1    0.10    0.10
  -2  12  -1    0.06    0.04
  -3  12  -1    0.81    0.08
  -3  12  -1    0.73    0.15
  -4  12  -1    0.03    0.09
   4 -12   1    0.04    0.06
  -5  12  -1    0.60    0.16
   5 -12   1    0.66    0.11
  -6  12  -1    1.90    0.26
   6 -12   1    1.89    0.17
  -7  12  -1    2.54    0.29
   7 -12   1    2.89    0.21
  -8  12  -1    0.12    0.12
   8 -12   1    0.10    0.09
  -9  12  -1    8.63    0.51
   9 -12   1    7.27    0.41
  10 -12   1    3.93    0.29
  11 -12   1    2.37    0.24
  12 -12   1    1.64    0.22
  13 -12   1    3.55    0.32
  14 -12   1    0.46    0.16
  15 -12   1    0.17    0.14
  16 -12   1   -0.12    0.12
  14  11  -1   -0.08    0.11
  13  11  -1    0.91    0.16
  12  11  -1    0.14    0.11
  11  11  -1    0.86    0.15
  10  11  -1    0.36    0.11
   9  11  -1    0.21    0.10
   8  11  -1    2.45    0.19
   7  11  -1    0.67    0.11
   6  11  -1    0.15    0.07
   5  11  -1    0.48    0.08
   4  11  -1    0.22    0.07
   3  11  -1    2.72    0.16
   2  11  -1    0.03    0.05
   1  11  -1    0.08    0.05
  -1 -11   1    0.07    0.09
   0  11  -1    8.79    0.32
   0 -11   1    7.92    0.44
  -1  11  -1   21.16    0.85
  -1  11  -1   21.39    0.68
   1 -11   1   20.20    0.84
  -2  11  -1    9.50    0.49
   2 -11   1    9.90    0.38
  -3  11  -1    1.76    0.23
   3 -11   1    1.32    0.12
  -4  11  -1   -0.05    0.08
   4 -11   1    0.11    0.06
  -5  11  -1    1.55    0.22
   5 -11   1    1.09    0.13
  -6  11  -1    0.20    0.11
   6 -11   1    0.27    0.08
  -7  11  -1    0.02    0.10
   7 -11   1    0.07    0.07
  -8  11  -1    0.97    0.18
   8 -11   1    1.05    0.15
  -9  11  -1    0.93    0.19
   9 -11   1    0.88    0.15
 -10  11  -1   -0.02    0.11
  10 -11   1   -0.03    0.07
  11 -11   1    0.23    0.11
  12 -11   1    1.64    0.23
  13 -11   1    0.10    0.11
  14 -11   1    0.89    0.19
  15 -11   1    0.30    0.15
  16 -11   1    0.20    0.15
  17 -11   1   -0.07    0.14
  15  10  -1    0.65    0.19
  14  10  -1    1.82    0.22
  13  10  -1   -0.02    0.10
  12  10  -1    1.32    0.18
  11  10  -1    0.04    0.09
  10  10  -1    0.94    0.14
   9  10  -1    0.62    0.12
   8  10  -1    0.35    0.09
   7  10  -1   15.58    0.57
   6  10  -1    0.19    0.07
   5  10  -1   18.57    0.62
   5  10  -1   18.10    0.63
   4  10  -1    7.37    0.25
   4  10  -1    7.27    0.30
  -4 -10   1    6.93    0.38
   3  10  -1   12.45    0.44
  -3 -10   1   11.68    0.53
   2  10  -1    2.42    0.14
  -2 -10   1    2.54    0.22
   1  10  -1   30.81    0.97
  -1 -10   1   30.40    1.12
   0  10  -1    2.34    0.09
   0  10  -1    2.13    0.13
   0  10  -1    2.06    0.21
   0 -10   1    2.49    0.22
  -1  10  -1    7.53    0.40
  -1  10  -1    7.69    0.26
   1 -10   1    7.09    0.29
  -2  10  -1    5.50    0.34
  -2  10  -1    6.39    0.23
   2 -10   1    5.59    0.26
  -3  10  -1    0.13    0.10
   3 -10   1    0.15    0.06
  -4  10  -1    1.22    0.18
   4 -10   1    1.20    0.12
  -5  10  -1    2.05    0.23
   5 -10   1    1.67    0.15
  -6  10  -1    1.88    0.22
   6 -10   1    1.71    0.16
  -7  10  -1    1.53    0.21
   7 -10   1    1.46    0.16
  -8  10  -1    0.62    0.16
   8 -10   1    0.86    0.13
  -9  10  -1    0.31    0.13
   9 -10   1    0.26    0.10
 -10  10  -1    2.28    0.27
  10 -10   1    1.84    0.20
  11 -10   1    2.08    0.22
  12 -10   1    3.21    0.27
  13 -10   1    0.40    0.14
  14 -10   1    0.80    0.17
  15 -10   1    0.63    0.17
  16 -10   1   -0.08    0.11
  17 -10   1   -0.05    0.13
  16   9  -1    2.78    0.35
  15   9  -1    1.55    0.26
  15   9  -1    1.73    0.22
  14   9  -1    0.00    0.10
  13   9  -1    1.27    0.17
  12   9  -1    0.44    0.12
  11   9  -1    0.53    0.12
  10   9  -1    0.71    0.11
  10   9  -1    0.81    0.11
   9   9  -1    2.89    0.19
   9   9  -1    2.42    0.16
   8   9  -1   11.31    0.45
   8   9  -1   11.46    0.43
   7   9  -1    0.25    0.07
   7   9  -1    0.44    0.06
   6   9  -1   13.41    0.49
   6   9  -1   13.30    0.46
   5   9  -1    0.29    0.07
   5   9  -1    0.36    0.05
  -5  -9   1    0.22    0.09
   4   9  -1   13.43    0.44
   4   9  -1   12.33    0.47
   4   9  -1   13.44    0.47
  -4  -9   1   13.76    0.56
   3   9  -1   21.31    0.75
   3   9  -1   23.12    0.74
  -3  -9   1   23.44    0.85
   2   9  -1    1.40    0.07
   2   9  -1    1.57    0.11
  -2  -9   1    1.32    0.16
   1   9  -1    2.17    0.09
   1   9  -1    2.23    0.13
  -1  -9   1    2.19    0.20
   0   9  -1    1.13    0.16
   0   9  -1    1.37    0.07
   0   9  -1    1.12    0.09
   0  -9   1    1.18    0.15
  -1   9  -1    7.38    0.39
  -1   9  -1    8.29    0.27
   1  -9   1    7.39    0.30
  -2   9  -1    0.94    0.14
  -2   9  -1    0.70    0.06
   2  -9   1    0.67    0.08
  -3   9  -1    0.72    0.14
   3  -9   1    0.60    0.08
  -4   9  -1   10.64    0.49
   4  -9   1   10.14    0.42
  -5   9  -1    1.33    0.18
   5  -9   1    1.05    0.12
  -6   9  -1    1.24    0.18
   6  -9   1    1.07    0.13
  -7   9  -1    4.70    0.31
   7  -9   1    4.27    0.25
  -8   9  -1    4.35    0.32
   8  -9   1    4.75    0.27
  -9   9  -1    2.66    0.26
   9  -9   1    2.56    0.18
   9  -9   1    2.69    0.21
 -10   9  -1    7.34    0.44
  10  -9   1    7.16    0.39
  10  -9   1    7.30    0.34
 -11   9  -1    0.56    0.16
  11  -9   1    0.46    0.12
  11  -9   1    0.60    0.11
  12  -9   1   10.20    0.51
  13  -9   1    0.05    0.10
  14  -9   1   -0.02    0.11
  15  -9   1    0.59    0.17
  16  -9   1    0.55    0.16
  17  -9   1    0.32    0.16
  17   8  -1    1.83    0.29
  16   8  -1    0.45    0.18
  16   8  -1   -0.02    0.10
  15   8  -1    0.85    0.17
  15   8  -1    0.86    0.20
  14   8  -1    0.60    0.13
  13   8  -1    0.42    0.11
  13   8  -1    0.66    0.13
  12   8  -1    1.78    0.17
  12   8  -1    1.94    0.18
  11   8  -1    6.36    0.31
  11   8  -1    6.48    0.32
  10   8  -1    7.58    0.34
  10   8  -1    7.21    0.32
   9   8  -1   16.79    0.61
   9   8  -1   16.88    0.61
   8   8  -1    5.38    0.23
   8   8  -1    4.72    0.24
   7   8  -1   46.29    1.48
   7   8  -1   43.78    1.42
  -7  -8   1   45.80    1.53
   6   8  -1    0.59    0.06
   6   8  -1    0.54    0.13
   6   8  -1    0.56    0.09
  -6  -8   1    0.53    0.11
   5   8  -1   17.45    0.59
   5   8  -1   18.46    0.60
   5   8  -1   16.64    0.71
  -5  -8   1   17.97    0.68
   4   8  -1    5.61    0.25
   4   8  -1    6.16    0.25
  -4  -8   1    6.06    0.31
   3   8  -1    1.73    0.11
   3   8  -1    1.40    0.10
  -3  -8   1    1.62    0.16
   2   8  -1   14.38    0.50
   2   8  -1   14.85    0.49
  -2  -8   1   14.47    0.58
   1   8  -1    0.02    0.04
   1   8  -1    0.09    0.03
  -1  -8   1    0.14    0.07
   0   8  -1    3.81    0.14
   0   8  -1    3.44    0.23
   0  -8   1    3.30    0.22
   0  -8   1    3.55    0.16
  -1   8  -1    4.47    0.16
  -1   8  -1    3.94    0.25
   1  -8   1    3.82    0.18
  -2   8  -1   10.42    0.35
  -2   8  -1    9.62    0.44
   2  -8   1    9.62    0.38
  -3   8  -1    1.80    0.17
   3  -8   1    1.82    0.12
  -4   8  -1    0.38    0.10
   4  -8   1    0.51    0.08
  -5   8  -1    2.60    0.21
   5  -8   1    2.57    0.16
  -6   8  -1    3.66    0.25
   6  -8   1    3.55    0.21
  -7   8  -1   14.17    0.60
   7  -8   1   13.71    0.50
   7  -8   1   13.20    0.55
  -8   8  -1    9.98    0.48
   8  -8   1    9.68    0.39
   8  -8   1    9.90    0.44
  -9   8  -1   24.10    0.93
   9  -8   1   21.96    0.88
   9  -8   1   24.15    0.81
 -10   8  -1    0.27    0.13
  10  -8   1    0.16    0.09
  10  -8   1    0.18    0.07
 -11   8  -1    6.71    0.40
  11  -8   1    6.55    0.33
  11  -8   1    6.25    0.36
  12  -8   1    0.32    0.11
  12  -8   1    0.27    0.09
  13  -8   1    0.84    0.17
  13  -8   1    0.86    0.14
  14  -8   1   -0.04    0.10
  15  -8   1   -0.07    0.10
  16  -8   1    0.20    0.14
  17  -8   1    0.95    0.21
  17   7  -1    0.15    0.16
  16   7  -1    0.50    0.17
  16   7  -1    0.39    0.14
  15   7  -1    0.26    0.13
  15   7  -1    0.44    0.17
  15   7  -1    0.32    0.12
  14   7  -1    0.85    0.15
  14   7  -1    1.13    0.21
  14   7  -1    0.89    0.15
  13   7  -1    0.02    0.08
  13   7  -1    0.08    0.10
  12   7  -1    5.26    0.29
  12   7  -1    5.12    0.28
  11   7  -1    2.01    0.16
  11   7  -1    1.33    0.15
  10   7  -1    0.15    0.08
  10   7  -1    0.35    0.08
   9   7  -1    6.73    0.30
   9   7  -1    7.16    0.30
   8   7  -1    8.49    0.35
   8   7  -1    9.09    0.34
  -8  -7   1    7.99    0.38
   7   7  -1    2.14    0.20
   7   7  -1    2.03    0.14
   7   7  -1    2.14    0.12
  -7  -7   1    1.86    0.17
   6   7  -1    0.06    0.07
   6   7  -1    0.10    0.04
   6   7  -1    0.03    0.05
  -6  -7   1    0.17    0.07
   5   7  -1   11.17    0.50
   5   7  -1   11.22    0.41
   5   7  -1   11.61    0.40
  -5  -7   1   11.65    0.47
   4   7  -1    1.01    0.14
   4   7  -1    0.86    0.09
  -4  -7   1    0.86    0.12
   3   7  -1    7.06    0.27
   3   7  -1    6.61    0.27
  -3  -7   1    7.41    0.33
   2   7  -1   32.58    1.01
   2   7  -1   30.70    1.06
  -2  -7   1   34.14    1.12
   1   7  -1    3.21    0.13
   1   7  -1    3.13    0.15
  -1  -7   1    3.21    0.20
   0   7  -1    9.62    0.33
   0   7  -1    9.52    0.41
   0  -7   1    9.31    0.41
   0  -7   1    9.10    0.34
  -1   7  -1    2.23    0.17
  -1   7  -1    2.22    0.10
   1  -7   1    2.11    0.12
  -2   7  -1    2.69    0.11
  -2   7  -1    2.21    0.17
  -2   7  -1    2.05    0.13
   2  -7   1    2.22    0.13
  -3   7  -1   16.75    0.55
  -3   7  -1   16.12    0.63
   3  -7   1   16.42    0.59
  -4   7  -1   10.86    0.37
  -4   7  -1   10.76    0.46
   4  -7   1   10.24    0.41
  -5   7  -1   -0.01    0.06
   5  -7   1    0.10    0.05
  -6   7  -1   15.86    0.63
   6  -7   1   15.65    0.59
   6  -7   1   15.56    0.54
  -7   7  -1    2.63    0.21
   7  -7   1    2.78    0.16
   7  -7   1    2.63    0.18
  -8   7  -1    8.52    0.42
   8  -7   1    8.70    0.35
   8  -7   1    8.07    0.38
  -9   7  -1    8.98    0.43
   9  -7   1    8.18    0.36
   9  -7   1    8.09    0.39
 -10   7  -1    4.35    0.30
  10  -7   1    4.57    0.25
  10  -7   1    3.77    0.26
 -11   7  -1    2.16    0.24
  11  -7   1    2.08    0.20
  11  -7   1    2.32    0.19
  12  -7   1    1.54    0.19
  12  -7   1    1.93    0.18
  13  -7   1    0.15    0.10
  13  -7   1    0.19    0.09
  14  -7   1    0.21    0.10
  14  -7   1    0.16    0.11
  15  -7   1    0.00    0.08
  15  -7   1   -0.02    0.10
  16  -7   1    0.81    0.18
  17  -7   1    2.67    0.32
  18  -7   1   -0.08    0.13
  17   6  -1    2.01    0.25
  17   6  -1    2.06    0.28
  17   6  -1    2.39    0.27
  16   6  -1    1.67    0.25
  16   6  -1    1.20    0.19
  16   6  -1    1.56    0.21
  15   6  -1    0.46    0.15
  15   6  -1    0.30    0.12
  15   6  -1    0.41    0.13
  14   6  -1   -0.12    0.09
  14   6  -1    0.05    0.09
  14   6  -1   -0.04    0.09
  13   6  -1    2.37    0.19
  13   6  -1    2.04    0.20
  12   6  -1    2.09    0.17
  12   6  -1    1.86    0.18
  11   6  -1    0.94    0.12
  11   6  -1    0.97    0.13
  10   6  -1    0.61    0.09
  10   6  -1    0.61    0.11
   9   6  -1    5.64    0.25
   9   6  -1    5.11    0.25
  -9  -6   1    5.14    0.28
   8   6  -1    4.04    0.21
   8   6  -1    4.24    0.20
  -8  -6   1    3.92    0.23
   7   6  -1    2.34    0.19
   7   6  -1    1.98    0.14
   7   6  -1    2.28    0.13
  -7  -6   1    2.44    0.17
   6   6  -1   34.16    1.08
   6   6  -1   32.18    1.03
   6   6  -1   30.91    1.14
  -6  -6   1   32.72    1.11
   5   6  -1    6.94    0.34
   5   6  -1    6.94    0.27
  -5  -6   1    6.85    0.31
   4   6  -1   26.83    0.98
   4   6  -1   28.64    0.88
  -4  -6   1   28.33    0.97
   3   6  -1    3.17    0.21
   3   6  -1    3.79    0.16
  -3  -6   1    3.98    0.21
   2   6  -1   54.51    1.65
   2   6  -1   51.28    1.76
  -2  -6   1   58.33    1.79
   1   6  -1   77.32    2.47
  -1  -6   1   77.28    2.47
   0   6  -1   24.16    0.81
   0   6  -1   24.50    0.86
   0  -6   1   25.27    0.82
  -1   6  -1   13.61    0.53
  -1   6  -1   14.29    0.47
   1  -6   1   13.60    0.49
  -2   6  -1   98.68    2.98
  -2   6  -1  107.57    3.17
  -2   6  -1   97.54    3.15
   2  -6   1   93.81    3.19
  -3   6  -1   24.42    0.86
  -3   6  -1   25.59    0.78
   3  -6   1   23.61    0.84
  -4   6  -1   26.70    0.82
  -4   6  -1   26.03    0.92
   4  -6   1   25.72    0.90
  -5   6  -1    6.24    0.31
   5  -6   1    6.21    0.25
   5  -6   1    6.43    0.28
  -6   6  -1    2.25    0.17
   6  -6   1    2.70    0.16
   6  -6   1    2.39    0.14
  -7   6  -1   37.12    1.28
   7  -6   1   36.13    1.18
   7  -6   1   37.90    1.28
  -8   6  -1    9.99    0.45
   8  -6   1    9.81    0.39
   8  -6   1   10.11    0.43
  -9   6  -1    2.47    0.21
   9  -6   1    3.18    0.21
   9  -6   1    2.35    0.17
 -10   6  -1    0.40    0.13
  10  -6   1    0.63    0.11
  10  -6   1    0.55    0.11
 -11   6  -1   16.31    0.69
  11  -6   1   15.79    0.66
  11  -6   1   16.04    0.61
  12  -6   1    6.41    0.33
  12  -6   1    6.93    0.37
  13  -6   1    0.60    0.14
  13  -6   1    0.47    0.11
  14  -6   1    2.15    0.20
  14  -6   1    1.92    0.23
  15  -6   1    0.08    0.11
  15  -6   1    0.04    0.08
  16  -6   1    0.56    0.16
  16  -6   1    0.47    0.13
  17  -6   1    0.34    0.16
  18  -6   1    0.26    0.15
  18   5  -1    1.82    0.24
  17   5  -1    0.82    0.18
  17   5  -1    0.57    0.16
  17   5  -1    0.98    0.20
  16   5  -1    3.12    0.30
  16   5  -1    2.44    0.25
  16   5  -1    3.12    0.26
  15   5  -1   -0.13    0.09
  15   5  -1   -0.02    0.09
  15   5  -1    0.07    0.10
  14   5  -1    1.68    0.23
  14   5  -1    1.78    0.19
  14   5  -1    1.29    0.16
  13   5  -1    1.25    0.15
  13   5  -1    1.65    0.21
  13   5  -1    1.24    0.15
  12   5  -1    5.16    0.27
  12   5  -1    5.02    0.27
  11   5  -1    5.99    0.29
  11   5  -1    5.69    0.28
  10   5  -1   28.37    1.01
  10   5  -1   29.86    0.96
 -10  -5   1   29.20    1.02
   9   5  -1    0.19    0.06
   9   5  -1    0.14    0.06
  -9  -5   1    0.18    0.07
   8   5  -1   16.64    0.58
   8   5  -1   15.78    0.65
   8   5  -1   16.43    0.56
  -8  -5   1   15.94    0.60
   7   5  -1   22.50    0.76
   7   5  -1   22.12    0.82
   7   5  -1   22.07    0.73
  -7  -5   1   22.36    0.79
   6   5  -1   10.17    0.37
   6   5  -1    9.31    0.42
   6   5  -1    9.93    0.36
  -6  -5   1   10.67    0.41
   5   5  -1   64.97    2.11
   5   5  -1   63.99    1.97
  -5  -5   1   66.60    2.09
   4   5  -1    0.28    0.05
   4   5  -1    0.27    0.07
  -4  -5   1    0.29    0.06
   3   5  -1   71.96    2.16
   3   5  -1   71.97    2.30
  -3  -5   1   71.81    2.29
   2   5  -1   33.13    1.03
   2   5  -1   32.97    1.10
   2   5  -1   32.84    1.12
  -2  -5   1   35.04    1.12
   1   5  -1    3.32    0.14
  -1  -5   1    3.56    0.19
   0   5  -1  243.65    7.53
   0   5  -1  234.85    7.32
   0  -5   1  236.44    7.32
   0  -5   1  234.54    7.53
  -1   5  -1   62.01    1.92
  -1   5  -1   59.07    1.92
   1  -5   1   58.90    1.94
   1  -5   1   59.63    1.91
  -2   5  -1   10.18    0.41
  -2   5  -1   10.78    0.36
  -2   5  -1   11.47    0.37
   2  -5   1   10.03    0.38
   2  -5   1   10.45    0.40
  -3   5  -1    1.58    0.10
   3  -5   1    1.98    0.11
   3  -5   1    1.80    0.12
  -4   5  -1   35.40    1.04
  -4   5  -1   33.15    1.13
   4  -5   1   32.73    1.13
   4  -5   1   33.67    1.05
  -5   5  -1    0.38    0.07
   5  -5   1    0.43    0.07
   5  -5   1    0.25    0.05
  -6   5  -1   13.92    0.54
   6  -5   1   14.00    0.49
   6  -5   1   13.98    0.53
  -7   5  -1   32.82    1.11
   7  -5   1   32.55    1.03
   7  -5   1   30.75    1.10
  -8   5  -1   10.51    0.44
   8  -5   1    9.59    0.38
   8  -5   1    9.43    0.41
  -9   5  -1    0.76    0.13
   9  -5   1    0.62    0.09
   9  -5   1    0.59    0.10
 -10   5  -1    7.75    0.40
  10  -5   1    8.24    0.35
  10  -5   1    7.59    0.38
 -11   5  -1    2.13    0.23
  11  -5   1    2.02    0.18
  11  -5   1    2.38    0.21
 -12   5  -1    5.49    0.34
  12  -5   1    4.99    0.28
  12  -5   1    5.20    0.31
  13  -5   1    0.76    0.13
  13  -5   1    1.13    0.17
  14  -5   1    1.54    0.18
  14  -5   1    1.65    0.21
  15  -5   1    0.84    0.15
  15  -5   1    0.83    0.17
  16  -5   1    0.48    0.15
  16  -5   1    0.47    0.13
  17  -5   1    1.82    0.26
  17  -5   1    1.43    0.21
  18  -5   1   -0.04    0.12
  18  -5   1    0.13    0.12
  18   4  -1    1.59    0.23
  18   4  -1    0.96    0.20
  17   4  -1    2.22    0.25
  17   4  -1    2.05    0.23
  16   4  -1    0.31    0.13
  16   4  -1    0.30    0.13
  16   4  -1    0.14    0.11
  15   4  -1    0.22    0.10
  15   4  -1    0.04    0.10
  15   4  -1    0.18    0.11
  14   4  -1   -0.06    0.08
  14   4  -1    0.28    0.10
  14   4  -1    0.20    0.10
  13   4  -1    1.44    0.20
  13   4  -1    1.22    0.15
  13   4  -1    1.34    0.15
  12   4  -1    2.83    0.20
  12   4  -1    2.69    0.19
  12   4  -1    2.56    0.23
  11   4  -1   44.45    1.42
  11   4  -1   44.39    1.50
  10   4  -1    0.88    0.11
  10   4  -1    1.33    0.13
 -10  -4   1    0.64    0.11
   9   4  -1   42.26    1.37
   9   4  -1   40.25    1.29
  -9  -4   1   39.88    1.36
   8   4  -1    1.91    0.12
   8   4  -1    1.90    0.17
   8   4  -1    2.00    0.12
  -8  -4   1    1.97    0.14
   7   4  -1   51.15    1.59
   7   4  -1   50.93    1.71
   7   4  -1   52.02    1.69
  -7  -4   1   52.64    1.68
   6   4  -1    0.96    0.08
   6   4  -1    0.78    0.08
   6   4  -1    0.70    0.11
  -6  -4   1    0.49    0.08
   5   4  -1    1.64    0.10
   5   4  -1    1.70    0.13
  -5  -4   1    1.70    0.12
   4   4  -1    0.14    0.05
  -4  -4   1    0.28    0.06
   3   4  -1  113.82    3.61
   3   4  -1  116.22    3.44
  -3  -4   1  116.98    3.61
   2   4  -1   85.73    2.72
   2   4  -1   85.26    2.58
  -2  -4   1   88.97    2.72
   1   4  -1   87.43    2.85
  -1  -4   1   91.08    2.80
  -1  -4   1   89.45    2.80
   0   4  -1    4.13    0.16
   0   4  -1    3.84    0.19
   0  -4   1    3.92    0.18
   0  -4   1    3.82    0.16
  -1   4  -1   33.54    1.08
  -1   4  -1   32.24    1.09
   1  -4   1   33.27    1.08
   1  -4   1   34.03    1.09
  -2   4  -1   42.06    1.26
  -2   4  -1   43.93    1.35
  -2   4  -1   41.89    1.34
   2  -4   1   39.21    1.35
   2  -4   1   40.50    1.33
  -3   4  -1    8.34    0.28
  -3   4  -1    8.80    0.29
  -3   4  -1    7.34    0.31
   3  -4   1    7.45    0.31
   3  -4   1    8.32    0.31
   3  -4   1    7.82    0.28
  -4   4  -1   11.74    0.44
  -4   4  -1   12.81    0.39
   4  -4   1   10.94    0.42
   4  -4   1   12.05    0.40
   4  -4   1   11.59    0.43
  -5   4  -1   12.19    0.47
   5  -4   1   12.69    0.43
   5  -4   1   12.39    0.45
   5  -4   1   12.11    0.46
  -6   4  -1    6.87    0.31
   6  -4   1    7.53    0.30
   6  -4   1    7.07    0.30
   6  -4   1    7.33    0.28
  -7   4  -1    7.92    0.35
   7  -4   1    7.86    0.31
   7  -4   1    7.56    0.33
  -8   4  -1    7.45    0.34
   8  -4   1    7.49    0.33
   8  -4   1    7.61    0.31
  -9   4  -1    3.26    0.21
   9  -4   1    3.10    0.18
   9  -4   1    3.08    0.20
 -10   4  -1   17.97    0.68
  10  -4   1   16.98    0.67
  10  -4   1   16.56    0.62
 -11   4  -1   13.72    0.57
  11  -4   1   12.81    0.55
  11  -4   1   12.81    0.51
 -12   4  -1    0.65    0.13
  12  -4   1    0.39    0.10
  12  -4   1    0.57    0.11
  13  -4   1    1.39    0.17
  13  -4   1    1.37    0.17
  14  -4   1    1.15    0.17
  14  -4   1    1.50    0.18
  15  -4   1    0.38    0.13
  15  -4   1    0.28    0.11
  16  -4   1   -0.08    0.09
  16  -4   1   -0.02    0.10
  17  -4   1    0.36    0.16
  17  -4   1    0.33    0.14
  18  -4   1    0.10    0.15
  18  -4   1    0.37    0.14
  19  -4   1    2.21    0.27
  18   3  -1    0.75    0.18
  18   3  -1    0.48    0.16
  17   3  -1   -0.03    0.11
  17   3  -1    0.04    0.12
  16   3  -1    0.04    0.11
  16   3  -1    0.08    0.11
  16   3  -1    0.01    0.10
  15   3  -1    0.10    0.11
  15   3  -1    0.15    0.11
  15   3  -1    0.23    0.11
  14   3  -1    3.65    0.29
  14   3  -1    3.96    0.26
  14   3  -1    3.41    0.24
  13   3  -1    0.80    0.12
  13   3  -1    1.03    0.14
  13   3  -1    0.73    0.15
  12   3  -1    3.26    0.21
  12   3  -1    3.34    0.21
  12   3  -1    2.97    0.24
  11   3  -1    1.32    0.17
  11   3  -1    1.72    0.14
 -11  -3   1    1.20    0.15
  10   3  -1   18.73    0.66
  10   3  -1   19.58    0.70
 -10  -3   1   19.93    0.71
   9   3  -1    0.47    0.08
   9   3  -1    0.37    0.07
  -9  -3   1    0.39    0.08
   8   3  -1    0.45    0.07
   8   3  -1    0.49    0.09
   8   3  -1    0.56    0.07
  -8  -3   1    0.63    0.09
   7   3  -1   12.99    0.45
   7   3  -1   13.63    0.47
   7   3  -1   12.60    0.50
  -7  -3   1   12.29    0.48
   6   3  -1    3.71    0.16
   6   3  -1    3.44    0.20
   6   3  -1    3.68    0.16
  -6  -3   1    3.25    0.18
   5   3  -1   49.09    1.50
   5   3  -1   48.20    1.59
  -5  -3   1   50.54    1.58
   4   3  -1   24.46    0.83
   4   3  -1   25.09    0.77
  -4  -3   1   24.81    0.82
   3   3  -1    3.01    0.16
   3   3  -1    3.50    0.13
  -3  -3   1    3.07    0.16
   2   3  -1   95.11    2.88
   2   3  -1   96.81    3.03
  -2  -3   1   99.75    3.02
   1   3  -1  149.39    4.68
   1   3  -1  149.63    4.82
  -1  -3   1  153.72    4.68
  -1  -3   1  153.99    4.68
   0   3  -1    1.08    0.06
   0  -3   1    1.24    0.09
   0  -3   1    1.09    0.07
  -1   3  -1   71.31    2.15
  -1   3  -1   66.68    2.10
   1  -3   1   64.41    2.15
   1  -3   1   66.04    2.10
  -2   3  -1   61.64    1.94
  -2   3  -1   66.95    1.99
  -2   3  -1   62.41    1.85
   2  -3   1   59.92    1.94
   2  -3   1   61.14    1.85
   2  -3   1   59.06    1.99
  -3   3  -1   63.72    1.87
  -3   3  -1   60.15    1.75
  -3   3  -1   57.30    1.84
   3  -3   1   56.05    1.75
   3  -3   1   54.42    1.82
   3  -3   1   57.26    1.88
  -4   3  -1   73.16    2.23
  -4   3  -1   74.26    2.12
   4  -3   1   69.45    2.13
   4  -3   1   65.48    2.22
   4  -3   1   72.18    2.29
  -5   3  -1    0.75    0.08
   5  -3   1    0.71    0.07
   5  -3   1    0.76    0.07
   5  -3   1    0.67    0.08
  -6   3  -1   37.90    1.25
   6  -3   1   37.38    1.27
   6  -3   1   38.44    1.24
   6  -3   1   38.63    1.19
  -7   3  -1    0.44    0.08
   7  -3   1    0.49    0.07
   7  -3   1    0.37    0.06
   7  -3   1    0.34    0.06
  -8   3  -1   22.93    0.80
   8  -3   1   22.55    0.76
   8  -3   1   22.51    0.81
  -9   3  -1    0.36    0.08
   9  -3   1    0.41    0.08
   9  -3   1    0.28    0.07
 -10   3  -1    0.48    0.10
  10  -3   1    0.37    0.08
  10  -3   1    0.50    0.09
 -11   3  -1   19.79    0.74
  11  -3   1   18.66    0.69
  11  -3   1   18.88    0.74
 -12   3  -1    1.08    0.15
  12  -3   1    0.86    0.14
  12  -3   1    0.89    0.13
  13  -3   1    0.47    0.12
  13  -3   1    0.42    0.11
  14  -3   1    0.09    0.09
  14  -3   1   -0.12    0.07
  15  -3   1   -0.02    0.09
  15  -3   1   -0.10    0.09
  16  -3   1    2.30    0.25
  16  -3   1    3.06    0.29
  17  -3   1   -0.03    0.11
  17  -3   1    0.00    0.10
  18  -3   1    0.27    0.15
  18  -3   1    0.10    0.13
  19  -3   1   -0.03    0.13
  19   2  -1    0.22    0.16
  19   2  -1    0.47    0.19
  18   2  -1   -0.03    0.12
  18   2  -1   -0.02    0.12
  17   2  -1    1.88    0.24
  17   2  -1    1.65    0.21
  16   2  -1    1.21    0.18
  16   2  -1    1.26    0.18
  16   2  -1    1.22    0.20
  15   2  -1    6.85    0.35
  15   2  -1    6.49    0.36
  15   2  -1    6.36    0.40
  14   2  -1    0.11    0.08
  14   2  -1    0.09    0.10
  14   2  -1    0.12    0.10
  13   2  -1    3.81    0.23
  13   2  -1    3.55    0.27
  13   2  -1    3.56    0.24
  12   2  -1    0.09    0.07
  12   2  -1    0.15    0.06
  12   2  -1    0.26    0.08
  11   2  -1   11.09    0.44
  11   2  -1   11.57    0.47
  11   2  -1   12.62    0.53
 -11  -2   1   11.60    0.48
  10   2  -1    4.90    0.28
  10   2  -1    4.88    0.24
  10   2  -1    4.72    0.23
 -10  -2   1    4.74    0.25
   9   2  -1    1.03    0.10
   9   2  -1    0.81    0.10
   9   2  -1    0.82    0.11
  -9  -2   1    0.77    0.10
   8   2  -1    0.72    0.08
   8   2  -1    0.59    0.07
  -8  -2   1    0.56    0.09
   7   2  -1   10.86    0.43
   7   2  -1   10.21    0.37
   7   2  -1   11.05    0.39
  -7  -2   1   10.50    0.40
   6   2  -1   58.49    1.77
   6   2  -1   57.57    1.87
   6   2  -1   59.28    1.89
  -6  -2   1   58.21    1.85
   5   2  -1   28.58    0.98
   5   2  -1   29.61    0.91
  -5  -2   1   30.40    0.97
   4   2  -1   12.18    0.43
   4   2  -1   11.65    0.38
  -4  -2   1   11.68    0.42
   3   2  -1    4.75    0.20
   3   2  -1    4.52    0.17
  -3  -2   1    4.80    0.19
   2   2  -1   72.74    2.23
   2   2  -1   77.58    2.34
  -2  -2   1   75.16    2.34
   1   2  -1   11.82    0.41
  -1  -2   1   12.23    0.41
   0   2  -1    0.03    0.02
   0   2  -1    0.00    0.02
   0  -2   1    0.09    0.02
   0  -2   1   -0.01    0.02
  -1   2  -1   14.74    0.48
  -1   2  -1   13.74    0.45
   1  -2   1   14.31    0.48
   1  -2   1   14.24    0.47
   1  -2   1   14.11    0.45
  -2   2  -1  114.53    3.42
  -2   2  -1  110.49    3.18
  -2   2  -1  105.40    3.32
   2  -2   1  105.68    3.19
   2  -2   1  104.72    3.43
   2  -2   1  104.59    3.31
  -3   2  -1   26.11    0.78
  -3   2  -1   22.98    0.77
  -3   2  -1   23.28    0.84
  -3   2  -1   24.30    0.73
   3  -2   1   22.41    0.76
   3  -2   1   22.44    0.73
   3  -2   1   24.24    0.79
  -4   2  -1    9.38    0.31
  -4   2  -1    8.91    0.33
  -4   2  -1    8.26    0.36
   4  -2   1    8.86    0.33
   4  -2   1    9.68    0.32
   4  -2   1    9.86    0.34
  -5   2  -1    8.94    0.34
   5  -2   1    9.11    0.32
   5  -2   1    9.29    0.34
   5  -2   1    8.27    0.32
  -6   2  -1    2.80    0.16
   6  -2   1    2.85    0.15
   6  -2   1    3.06    0.17
   6  -2   1    2.77    0.14
   6  -2   1    2.90    0.15
  -7   2  -1   56.45    1.80
   7  -2   1   56.80    1.85
   7  -2   1   55.19    1.98
   7  -2   1   56.26    1.79
   7  -2   1   55.94    1.72
  -8   2  -1    4.78    0.24
   8  -2   1    4.90    0.23
   8  -2   1    5.04    0.23
   8  -2   1    4.66    0.24
   8  -2   1    5.36    0.27
  -9   2  -1    0.20    0.07
   9  -2   1    0.25    0.08
   9  -2   1    0.22    0.08
   9  -2   1    0.24    0.06
   9  -2   1    0.36    0.07
 -10   2  -1   16.32    0.62
  10  -2   1   16.54    0.67
  10  -2   1   15.76    0.62
  10  -2   1   15.61    0.58
 -11   2  -1    1.93    0.18
  11  -2   1    1.89    0.16
  11  -2   1    2.23    0.19
  11  -2   1    2.11    0.18
  12  -2   1    0.70    0.13
  12  -2   1    0.66    0.11
  12  -2   1    0.78    0.13
  13  -2   1    0.27    0.10
  13  -2   1    0.25    0.09
  14  -2   1    0.71    0.13
  14  -2   1    0.96    0.16
  15  -2   1    0.95    0.17
  15  -2   1    0.87    0.15
  16  -2   1   -0.01    0.09
  16  -2   1    0.07    0.10
  17  -2   1    1.09    0.19
  17  -2   1    0.95    0.19
  18  -2   1    0.19    0.15
  18  -2   1    0.24    0.14
  19  -2   1    0.58    0.17
  19   1  -1    0.07    0.13
  19   1  -1    0.17    0.15
  18   1  -1    5.47    0.36
  18   1  -1    4.95    0.38
  17   1  -1    5.05    0.34
  17   1  -1    5.42    0.37
  16   1  -1    6.88    0.39
  16   1  -1    6.62    0.42
  16   1  -1    6.10    0.36
  15   1  -1    0.41    0.11
  15   1  -1    0.46    0.13
  15   1  -1    0.27    0.11
  14   1  -1    2.87    0.23
  14   1  -1    2.72    0.21
  14   1  -1    2.37    0.23
  13   1  -1    2.33    0.19
  13   1  -1    1.86    0.17
  13   1  -1    1.98    0.20
  12   1  -1    0.07    0.07
  12   1  -1    0.02    0.06
  12   1  -1    0.18    0.08
 -12  -1   1    0.10    0.08
  11   1  -1    0.09    0.07
  11   1  -1    0.09    0.07
  11   1  -1    0.16    0.07
 -11  -1   1    0.08    0.07
  10   1  -1    0.53    0.08
  10   1  -1    0.44    0.09
  10   1  -1    0.51    0.08
 -10  -1   1    0.68    0.10
   9   1  -1    2.23    0.14
   9   1  -1    1.95    0.12
   9   1  -1    1.78    0.15
  -9  -1   1    1.88    0.14
   8   1  -1   18.78    0.67
   8   1  -1   20.14    0.74
   8   1  -1   18.03    0.62
  -8  -1   1   19.46    0.67
   7   1  -1   37.56    1.30
   7   1  -1   36.23    1.13
   7   1  -1   36.16    1.21
   7   1  -1   36.86    1.21
  -7  -1   1   35.40    1.19
   6   1  -1    4.73    0.22
   6   1  -1    4.33    0.19
   6   1  -1    4.70    0.18
  -6  -1   1    4.86    0.21
   5   1  -1    2.24    0.10
   5   1  -1    2.15    0.12
  -5  -1   1    2.29    0.12
   4   1  -1    5.13    0.19
   4   1  -1    5.30    0.21
  -4  -1   1    5.24    0.21
   3   1  -1   56.13    1.67
   3   1  -1   55.99    1.75
  -3  -1   1   54.90    1.75
  -3  -1   1   57.43    1.68
   2   1  -1    4.81    0.17
   2   1  -1    5.32    0.19
   1   1  -1    8.72    0.30
  -1  -1   1    9.10    0.30
  -1   1  -1    0.85    0.07
  -1   1  -1    1.02    0.07
   1  -1   1    0.79    0.07
   1  -1   1    0.92    0.07
   1  -1   1    0.98    0.07
  -2   1  -1    5.92    0.19
  -2   1  -1    5.88    0.20
  -2   1  -1    5.45    0.22
   2  -1   1    5.67    0.20
   2  -1   1    5.77    0.20
   2  -1   1    5.35    0.22
   2  -1   1    5.91    0.21
  -3   1  -1    2.22    0.09
  -3   1  -1    1.66    0.09
  -3   1  -1    1.99    0.08
  -3   1  -1    1.90    0.10
   3  -1   1    1.82    0.09
   3  -1   1    2.14    0.10
   3  -1   1    1.55    0.10
   3  -1   1    1.71    0.09
  -4   1  -1   94.01    3.47
  -4   1  -1  103.36    3.15
  -4   1  -1  111.12    3.02
   4  -1   1   97.48    3.14
   4  -1   1  101.62    3.47
   4  -1   1  102.83    3.03
   4  -1   1  102.43    3.26
  -5   1  -1    3.29    0.15
   5  -1   1    3.43    0.15
   5  -1   1    3.04    0.15
   5  -1   1    3.15    0.14
   5  -1   1    3.48    0.17
  -6   1  -1    1.89    0.12
   6  -1   1    2.08    0.12
   6  -1   1    2.24    0.12
   6  -1   1    2.12    0.14
   6  -1   1    1.88    0.12
  -7   1  -1    2.09    0.13
   7  -1   1    2.10    0.15
   7  -1   1    2.13    0.13
   7  -1   1    2.08    0.13
   7  -1   1    2.08    0.13
  -8   1  -1    0.54    0.08
   8  -1   1    0.55    0.08
   8  -1   1    0.88    0.10
   8  -1   1    0.55    0.09
   8  -1   1    0.54    0.07
  -9   1  -1    3.42    0.19
   9  -1   1    3.26    0.19
   9  -1   1    3.26    0.21
   9  -1   1    3.17    0.18
   9  -1   1    3.39    0.19
 -10   1  -1   14.29    0.55
  10  -1   1   14.37    0.53
  10  -1   1   13.85    0.56
  10  -1   1   14.17    0.61
 -11   1  -1    4.57    0.26
  11  -1   1    4.35    0.28
  11  -1   1    4.75    0.26
  11  -1   1    4.47    0.25
  12  -1   1    0.02    0.07
  12  -1   1    0.01    0.07
  12  -1   1    0.08    0.08
  13  -1   1    0.20    0.09
  13  -1   1    0.17    0.08
  13  -1   1    0.17    0.09
  14  -1   1    5.39    0.34
  14  -1   1    5.71    0.36
  14  -1   1    5.89    0.32
  15  -1   1    0.03    0.09
  15  -1   1    0.00    0.10
  15  -1   1    0.01    0.08
  16  -1   1    0.25    0.12
  16  -1   1    0.28    0.14
  17  -1   1    0.25    0.15
  17  -1   1    0.27    0.13
  18  -1   1    3.09    0.30
  18  -1   1    3.25    0.33
  19  -1   1   -0.09    0.13
  19  -1   1   -0.10    0.13
  19   0  -1    7.01    0.47
  19   0  -1    6.54    0.42
  18   0  -1    1.66    0.22
  18   0  -1    1.40    0.22
  17   0  -1   10.33    0.52
  17   0  -1    9.57    0.48
  16   0  -1    0.40    0.12
  16   0  -1    0.61    0.15
  15   0  -1    1.31    0.18
  15   0  -1    1.02    0.15
  15   0  -1    1.29    0.18
  14   0  -1    0.10    0.09
  14   0  -1    0.16    0.08
  14   0  -1    0.13    0.09
  13   0  -1    0.67    0.12
  13   0  -1    0.79    0.14
  13   0  -1    0.68    0.11
  12   0  -1    1.97    0.15
  12   0  -1    1.62    0.17
  12   0  -1    2.03    0.17
 -12   0   1    1.67    0.17
  11   0  -1    3.23    0.22
  11   0  -1    3.17    0.19
  11   0  -1    3.36    0.21
 -11   0   1    3.35    0.22
  10   0  -1    0.45    0.08
  10   0  -1    0.56    0.09
  10   0  -1    0.56    0.09
 -10   0   1    0.34    0.08
   9   0  -1    3.28    0.16
   9   0  -1    2.96    0.17
   9   0  -1    2.99    0.19
  -9   0   1    3.21    0.19
   8   0  -1   24.36    0.79
   8   0  -1   25.28    0.85
   8   0  -1   24.39    0.91
  -8   0   1   24.49    0.84
   7   0  -1   42.27    1.45
   7   0  -1   40.60    1.35
   7   0  -1   39.38    1.25
   7   0  -1   41.17    1.34
  -7   0   1   41.28    1.33
   6   0  -1   33.28    1.11
   6   0  -1   33.91    1.10
   6   0  -1   33.67    1.03
   6   0  -1   33.88    1.19
  -6   0   1   34.05    1.10
   5   0  -1   11.97    0.44
   5   0  -1   11.58    0.41
   5   0  -1   11.27    0.40
   5   0  -1   11.16    0.37
  -5   0   1   11.62    0.41
   4   0  -1  112.11    3.80
   4   0  -1  109.89    3.32
   4   0  -1  112.90    3.47
  -4   0   1  111.67    3.47
  -4   0   1  115.13    3.32
   3   0  -1  399.54   11.92
   3   0  -1  406.36   12.42
  -3   0   1  400.37   12.44
  -3   0   1  413.01   11.94
   2   0  -1    3.34    0.13
   2   0  -1    3.89    0.12
  -2   0   1    3.46    0.12
  -2   0   1    3.44    0.13
   1   0  -1  103.99    3.32
  -1   0   1  111.98    3.33
   0   0  -1   15.92    0.54
   0   0  -1   15.64    0.47
   0   0  -1   14.79    0.51
  -1   0  -1   23.90    0.77
  -1   0  -1   24.65    0.75
  -1   0  -1   26.18    0.81
   1   0   1   25.12    0.75
   1   0   1   24.45    0.77
   1   0   1   24.52    0.86
   1   0   1   25.22    0.81
  -2   0  -1   29.74    0.95
  -2   0  -1   32.58    0.99
   2   0   1   29.27    0.92
   2   0   1   29.06    0.95
   2   0   1   30.32    0.99
   2   0   1   32.46    1.06
  -3   0  -1   29.37    0.87
  -3   0  -1   25.75    0.84
   3   0   1   28.83    0.88
   3   0   1   24.86    0.81
   3   0   1   25.91    0.94
   3   0   1   24.87    0.84
  -4   0  -1    0.13    0.03
  -4   0  -1    0.21    0.03
   4   0   1    0.23    0.04
   4   0   1    0.32    0.04
   4   0   1    0.15    0.04
  -5   0  -1   44.41    1.43
   5   0   1   44.66    1.58
   5   0   1   44.48    1.37
   5   0   1   46.30    1.47
   5   0   1   45.48    1.43
  -6   0  -1   26.16    0.85
   6   0   1   25.65    0.95
   6   0   1   26.09    0.86
   6   0   1   25.39    0.88
   6   0   1   26.20    0.82
  -7   0  -1    0.82    0.09
   7   0   1    1.00    0.11
   7   0   1    0.72    0.09
   7   0   1    0.95    0.09
   7   0   1    0.95    0.08
  -8   0  -1    0.18    0.06
   8   0   1    0.31    0.06
   8   0   1    0.29    0.08
   8   0   1    0.41    0.07
   8   0   1    0.31    0.07
  -9   0  -1    4.85    0.24
   9   0   1    4.64    0.24
   9   0   1    5.03    0.28
   9   0   1    4.87    0.23
   9   0   1    5.06    0.25
 -10   0  -1    4.95    0.26
  10   0   1    4.98    0.24
  10   0   1    4.59    0.26
  10   0   1    5.07    0.26
  10   0   1    4.54    0.28
 -11   0  -1    1.28    0.15
  11   0   1    1.60    0.18
  11   0   1    1.50    0.15
  11   0   1    1.67    0.15
  12   0   1    0.13    0.09
  12   0   1    0.41    0.09
  12   0   1    0.40    0.11
  13   0   1    0.06    0.08
  13   0   1    0.06    0.09
  13   0   1   -0.06    0.06
  14   0   1    0.25    0.11
  14   0   1    0.10    0.09
  14   0   1    0.24    0.11
  15   0   1    0.14    0.10
  15   0   1    0.22    0.10
  15   0   1    0.27    0.11
  16   0   1    0.08    0.10
  16   0   1   -0.02    0.09
  16   0   1    0.05    0.11
  17   0   1    0.88    0.19
  17   0   1    0.57    0.17
  17   0   1    0.70    0.16
  18   0   1    0.58    0.18
  18   0   1    0.41    0.15
  19   0   1    1.99    0.28
  19   0   1    2.05    0.26
  19  -1  -1    0.47    0.20
  19  -1  -1    0.21    0.14
  18  -1  -1    3.06    0.32
  18  -1  -1    3.13    0.29
  17  -1  -1    0.56    0.16
  17  -1  -1    0.21    0.12
  16  -1  -1    0.17    0.10
  16  -1  -1    0.57    0.13
  15  -1  -1    0.95    0.14
  15  -1  -1    1.00    0.16
  14  -1  -1    0.51    0.12
  14  -1  -1    0.41    0.11
  13  -1  -1    0.19    0.09
  13  -1  -1    0.17    0.09
  13  -1  -1    0.13    0.08
  12  -1  -1    2.91    0.22
  12  -1  -1    2.79    0.18
  12  -1  -1    3.11    0.20
 -12   1   1    3.04    0.22
  11  -1  -1    3.94    0.21
  11  -1  -1    3.70    0.22
  11  -1  -1    4.11    0.25
 -11   1   1    4.10    0.25
  10  -1  -1    0.21    0.06
  10  -1  -1    0.23    0.07
  10  -1  -1    0.21    0.07
 -10   1   1    0.36    0.08
   9  -1  -1   13.11    0.54
   9  -1  -1   12.89    0.46
   9  -1  -1   13.08    0.50
  -9   1   1   13.69    0.51
   8  -1  -1    0.42    0.07
   8  -1  -1    0.23    0.06
   8  -1  -1    0.22    0.05
  -8   1   1    0.24    0.06
   7  -1  -1    4.95    0.20
   7  -1  -1    4.97    0.24
   7  -1  -1    5.30    0.22
  -7   1   1    5.43    0.24
   6  -1  -1   17.40    0.61
   6  -1  -1   17.13    0.65
   6  -1  -1   18.36    0.61
   6  -1  -1   17.62    0.56
  -6   1   1   18.11    0.62
   5  -1  -1   70.91    2.14
   5  -1  -1   71.35    2.46
   5  -1  -1   71.24    2.25
   5  -1  -1   70.28    2.31
  -5   1   1   71.01    2.26
  -5   1   1   77.20    2.16
   4  -1  -1   54.26    1.79
   4  -1  -1   57.41    1.84
   4  -1  -1   55.73    1.71
   4  -1  -1   55.88    1.96
  -4   1   1   57.28    1.80
  -4   1   1   61.59    1.96
  -4   1   1   59.18    1.71
   3  -1  -1    0.87    0.06
   3  -1  -1    1.14    0.05
  -3   1   1    0.82    0.05
   2  -1  -1    3.96    0.13
   2  -1  -1    3.69    0.15
  -2   1   1    4.08    0.15
  -2   1   1    4.53    0.13
   1  -1  -1    9.59    0.34
  -1   1   1   11.48    0.35
   0  -1  -1   55.79    1.56
   0  -1  -1   46.80    1.61
   0  -1  -1   51.46    1.67
   0   1   1   52.60    1.62
   0   1   1   55.89    1.55
  -1  -1  -1  145.18    4.35
  -1  -1  -1  154.40    4.68
  -1  -1  -1  141.73    4.51
   1   1   1  145.65    4.51
   1   1   1  146.88    4.36
   1   1   1  147.50    4.68
  -2  -1  -1   17.59    0.57
  -2  -1  -1   18.61    0.58
  -2  -1  -1   18.41    0.55
   2   1   1   18.53    0.58
   2   1   1   17.74    0.59
   2   1   1   16.82    0.55
  -3  -1  -1   37.23    1.22
  -3  -1  -1   42.26    1.26
  -3  -1  -1   39.74    1.18
   3   1   1   37.21    1.23
   3   1   1   41.13    1.27
   3   1   1   37.01    1.18
  -4  -1  -1   33.08    1.07
  -4  -1  -1   35.88    1.10
   4   1   1   33.92    1.11
   4   1   1   32.35    1.03
   4   1   1   34.01    1.08
  -5  -1  -1    4.97    0.21
   5   1   1    5.05    0.20
   5   1   1    5.04    0.22
   5   1   1    6.04    0.22
  -6  -1  -1   30.89    0.97
   6   1   1   30.31    1.08
   6   1   1   29.43    0.99
   6   1   1   29.55    0.98
   6   1   1   28.29    0.93
  -7  -1  -1   34.92    1.12
   7   1   1   31.94    1.24
   7   1   1   34.61    1.08
   7   1   1   33.88    1.13
   7   1   1   35.54    1.15
  -8  -1  -1   39.49    1.25
   8   1   1   38.99    1.27
   8   1   1   36.29    1.39
   8   1   1   38.16    1.29
   8   1   1   38.19    1.21
  -9  -1  -1    0.12    0.06
   9   1   1    0.21    0.06
   9   1   1    0.07    0.05
   9   1   1    0.17    0.07
   9   1   1    0.35    0.07
 -10  -1  -1   15.24    0.57
  10   1   1   15.84    0.60
  10   1   1   14.69    0.58
  10   1   1   15.03    0.55
  10   1   1   14.97    0.64
 -11  -1  -1   10.24    0.43
  11   1   1    9.89    0.44
  11   1   1    9.53    0.41
  11   1   1   10.66    0.49
  12   1   1    3.14    0.24
  12   1   1    2.29    0.20
  12   1   1    2.99    0.21
  13   1   1    5.31    0.34
  13   1   1    5.14    0.31
  13   1   1    5.20    0.30
  14   1   1    0.41    0.13
  14   1   1    0.27    0.11
  14   1   1    0.35    0.11
  15   1   1   -0.03    0.09
  15   1   1    0.09    0.11
  15   1   1    0.04    0.09
  16   1   1    0.07    0.10
  16   1   1    0.07    0.12
  16   1   1    0.08    0.10
  17   1   1    0.68    0.18
  17   1   1    0.68    0.16
  17   1   1    0.34    0.15
  18   1   1    0.77    0.18
  18   1   1    1.20    0.20
  19   1   1    0.33    0.18
  19  -2  -1    1.09    0.20
  18  -2  -1    0.07    0.11
  18  -2  -1    0.11    0.15
  17  -2  -1    2.81    0.26
  17  -2  -1    3.28    0.30
  16  -2  -1    5.32    0.35
  16  -2  -1    5.16    0.32
  15  -2  -1    3.24    0.24
  15  -2  -1    3.76    0.28
  14  -2  -1    0.36    0.10
  14  -2  -1    0.24    0.10
  13  -2  -1    2.05    0.19
  13  -2  -1    1.90    0.17
 -13   2   1    1.66    0.21
  12  -2  -1    0.66    0.11
  12  -2  -1    0.60    0.10
 -12   2   1    0.46    0.12
  11  -2  -1    0.83    0.12
  11  -2  -1    0.73    0.11
 -11   2   1    0.91    0.14
  10  -2  -1    0.54    0.08
  10  -2  -1    0.67    0.10
 -10   2   1    0.71    0.11
   9  -2  -1    2.35    0.15
   9  -2  -1    1.88    0.13
  -9   2   1    2.19    0.16
   8  -2  -1   34.18    1.14
   8  -2  -1   33.52    1.06
  -8   2   1   33.73    1.14
   7  -2  -1    7.70    0.28
   7  -2  -1    7.41    0.30
  -7   2   1    7.29    0.31
   6  -2  -1   84.66    2.74
   6  -2  -1   82.02    2.54
  -6   2   1   82.46    2.67
  -6   2   1   90.98    2.91
   5  -2  -1    5.76    0.22
   5  -2  -1    5.30    0.22
   5  -2  -1    5.49    0.20
  -5   2   1    5.37    0.23
  -5   2   1    5.73    0.23
  -5   2   1    5.67    0.19
   4  -2  -1   14.72    0.46
   4  -2  -1   14.67    0.50
   4  -2  -1   13.90    0.49
  -4   2   1   14.31    0.50
  -4   2   1   15.01    0.53
  -4   2   1   15.44    0.45
   3  -2  -1   41.49    1.20
   3  -2  -1   38.02    1.27
   3  -2  -1   40.59    1.31
  -3   2   1   40.75    1.28
  -3   2   1   41.57    1.20
   2  -2  -1  271.02    7.48
   2  -2  -1  257.62    7.83
  -2   2   1  229.91    7.54
  -2   2   1  259.82    8.76
   1  -2  -1   49.20    1.56
  -1   2   1   51.24    1.57
   0  -2  -1   16.73    0.51
   0  -2  -1   17.14    0.55
   0   2   1   17.22    0.56
   0   2   1   16.57    0.51
  -1  -2  -1    7.92    0.27
  -1  -2  -1    8.31    0.26
  -1  -2  -1    7.61    0.25
   1   2   1    7.80    0.26
   1   2   1    7.38    0.25
   1   2   1    7.92    0.28
  -2  -2  -1  107.43    3.29
  -2  -2  -1  100.76    3.18
  -2  -2  -1  105.60    3.05
   2   2   1  105.70    3.28
   2   2   1   99.96    3.05
   2   2   1   99.86    3.19
  -3  -2  -1   19.65    0.60
  -3  -2  -1   17.50    0.61
  -3  -2  -1   19.14    0.61
   3   2   1   18.42    0.62
   3   2   1   19.85    0.62
   3   2   1   17.59    0.58
  -4  -2  -1    3.23    0.14
  -4  -2  -1    3.34    0.13
   4   2   1    3.21    0.14
   4   2   1    3.31    0.14
   4   2   1    3.15    0.15
  -5  -2  -1    0.38    0.05
   5   2   1    0.39    0.05
   5   2   1    0.46    0.07
   5   2   1    0.52    0.06
  -6  -2  -1   53.75    1.68
   6   2   1   52.45    1.70
   6   2   1   50.91    1.72
   6   2   1   54.21    1.61
  -7  -2  -1   49.31    1.55
   7   2   1   49.94    1.58
   7   2   1   46.27    1.59
   7   2   1   47.88    1.49
  -8  -2  -1   32.79    1.08
   8   2   1   33.02    1.22
   8   2   1   32.51    1.11
   8   2   1   32.74    1.11
   8   2   1   31.99    1.04
  -9  -2  -1    1.08    0.12
   9   2   1    0.99    0.14
   9   2   1    0.96    0.12
   9   2   1    0.75    0.10
   9   2   1    1.05    0.11
 -10  -2  -1   13.79    0.54
  10   2   1   13.89    0.53
  10   2   1   15.77    0.64
  10   2   1   14.38    0.56
  11   2   1    1.01    0.13
  11   2   1    1.05    0.16
  11   2   1    0.97    0.13
  12   2   1    1.03    0.14
  12   2   1    1.34    0.15
  12   2   1    1.30    0.18
  13   2   1    4.06    0.26
  13   2   1    4.42    0.28
  13   2   1    4.82    0.33
  14   2   1    3.18    0.25
  14   2   1    2.72    0.23
  14   2   1    2.66    0.25
  15   2   1   -0.10    0.08
  15   2   1    0.03    0.09
  15   2   1   -0.11    0.08
  16   2   1   -0.11    0.11
  16   2   1   -0.01    0.10
  16   2   1    0.06    0.11
  17   2   1   -0.08    0.11
  17   2   1    0.03    0.13
  17   2   1   -0.07    0.10
  18   2   1    0.53    0.17
  18   2   1    0.26    0.14
  19   2   1    0.54    0.21
  19  -3  -1    0.53    0.16
  18  -3  -1    3.24    0.30
  18  -3  -1    2.77    0.31
  17  -3  -1    3.78    0.33
  17  -3  -1    3.82    0.29
  16  -3  -1    3.09    0.27
  16  -3  -1    3.33    0.25
  15  -3  -1    0.10    0.08
  15  -3  -1    0.06    0.10
  14  -3  -1    3.12    0.22
  14  -3  -1    3.51    0.25
  13  -3  -1    0.28    0.09
  13  -3  -1    0.53    0.10
 -13   3   1    0.37    0.12
  12  -3  -1   -0.03    0.06
  12  -3  -1   -0.02    0.07
 -12   3   1   -0.05    0.07
  11  -3  -1    5.35    0.28
  11  -3  -1    5.02    0.26
 -11   3   1    5.33    0.30
  10  -3  -1    0.74    0.11
  10  -3  -1    0.92    0.10
 -10   3   1    0.89    0.13
   9  -3  -1   16.38    0.60
   9  -3  -1   16.26    0.56
  -9   3   1   16.47    0.63
   8  -3  -1   14.65    0.55
   8  -3  -1   15.11    0.51
  -8   3   1   14.96    0.57
   7  -3  -1    7.25    0.29
   7  -3  -1    6.86    0.27
  -7   3   1    7.62    0.32
   6  -3  -1    4.09    0.19
   6  -3  -1    4.43    0.18
  -6   3   1    4.74    0.21
  -6   3   1    4.44    0.22
   5  -3  -1   15.42    0.53
   5  -3  -1   15.01    0.48
  -5   3   1   14.68    0.54
  -5   3   1   15.45    0.47
   4  -3  -1   10.37    0.34
   4  -3  -1   10.59    0.37
  -4   3   1   10.12    0.39
  -4   3   1   10.81    0.33
   3  -3  -1   19.36    0.67
   3  -3  -1   20.12    0.62
   3  -3  -1   20.69    0.68
  -3   3   1   20.18    0.69
  -3   3   1   22.16    0.61
   2  -3  -1    0.29    0.04
   2  -3  -1    0.53    0.04
  -2   3   1    0.43    0.02
  -2   3   1    0.28    0.05
   1  -3  -1  383.63   11.18
   1  -3  -1  340.52   11.75
  -1   3   1  322.39   10.83
  -1   3   1  407.08   11.23
   0  -3  -1    0.29    0.05
   0   3   1    0.40    0.06
   0   3   1    0.45    0.03
  -1  -3  -1  516.59   15.39
  -1  -3  -1  441.90   15.34
  -1  -3  -1  517.51   14.74
   1   3   1  515.31   15.38
   1   3   1  512.24   15.38
  -2  -3  -1    3.14    0.12
  -2  -3  -1    3.02    0.14
   2   3   1    2.97    0.11
   2   3   1    3.00    0.12
   2   3   1    3.11    0.15
  -3  -3  -1    6.69    0.26
   3   3   1    7.07    0.24
   3   3   1    6.53    0.27
   3   3   1    6.45    0.23
  -4  -3  -1    5.86    0.22
   4   3   1    4.74    0.20
   4   3   1    5.41    0.20
   4   3   1    5.33    0.23
  -5  -3  -1   16.89    0.59
   5   3   1   17.32    0.62
   5   3   1   16.78    0.56
   5   3   1   18.40    0.60
  -6  -3  -1    2.71    0.15
   6   3   1    2.93    0.15
   6   3   1    3.09    0.15
   6   3   1    2.57    0.17
  -7  -3  -1   46.63    1.47
   7   3   1   45.96    1.41
   7   3   1   44.43    1.50
   7   3   1   45.31    1.50
  -8  -3  -1    3.87    0.20
   8   3   1    4.25    0.24
   8   3   1    4.23    0.21
   8   3   1    3.87    0.20
  -9  -3  -1    0.12    0.06
   9   3   1    0.30    0.07
   9   3   1    0.10    0.06
   9   3   1    0.14    0.07
 -10  -3  -1   11.18    0.46
  10   3   1   11.55    0.54
  10   3   1   12.34    0.48
  10   3   1   11.99    0.46
  11   3   1    0.22    0.10
  11   3   1    0.03    0.07
  11   3   1    0.05    0.06
  12   3   1    3.66    0.28
  12   3   1    3.73    0.24
  12   3   1    3.44    0.23
  13   3   1   11.02    0.50
  13   3   1   11.04    0.57
  13   3   1   11.31    0.48
  14   3   1    0.19    0.12
  14   3   1    0.07    0.09
  14   3   1    0.19    0.10
  15   3   1   -0.03    0.09
  15   3   1   -0.05    0.09
  15   3   1   -0.03    0.09
  16   3   1    2.87    0.29
  16   3   1    2.41    0.25
  16   3   1    2.55    0.26
  17   3   1    2.25    0.30
  17   3   1    2.67    0.26
  17   3   1    1.94    0.26
  18   3   1    3.43    0.36
  18   3   1    3.43    0.32
  18   3   1    2.46    0.30
  19   3   1    0.02    0.16
  18  -4  -1    1.65    0.25
  17  -4  -1    7.26    0.45
  17  -4  -1    7.08    0.40
  16  -4  -1    0.94    0.16
  16  -4  -1    0.73    0.16
  15  -4  -1    1.38    0.20
  15  -4  -1    1.49    0.18
  14  -4  -1    0.65    0.12
  14  -4  -1    0.59    0.14
  13  -4  -1    0.18    0.08
  13  -4  -1    0.27    0.11
 -13   4   1    0.13    0.10
  12  -4  -1    2.72    0.21
  12  -4  -1    2.28    0.18
 -12   4   1    2.61    0.23
  11  -4  -1   12.21    0.49
  11  -4  -1   13.25    0.53
 -11   4   1   13.77    0.57
  10  -4  -1    6.90    0.29
  10  -4  -1    6.56    0.31
 -10   4   1    6.56    0.34
   9  -4  -1   19.91    0.71
   9  -4  -1   18.84    0.65
  -9   4   1   19.47    0.73
   8  -4  -1    2.35    0.14
   8  -4  -1    1.72    0.12
  -8   4   1    1.62    0.16
   7  -4  -1   22.01    0.79
   7  -4  -1   23.34    0.74
  -7   4   1   23.83    0.82
   6  -4  -1   22.66    0.73
   6  -4  -1   23.55    0.79
  -6   4   1   24.39    0.71
  -6   4   1   21.76    0.81
   5  -4  -1    1.32    0.08
   5  -4  -1    1.22    0.08
  -5   4   1    1.36    0.06
  -5   4   1    1.14    0.11
   4  -4  -1    4.52    0.18
   4  -4  -1    4.14    0.16
  -4   4   1    4.29    0.14
  -4   4   1    4.24    0.21
   3  -4  -1   56.56    1.81
  -3   4   1   59.96    1.66
  -3   4   1   52.19    1.79
   2  -4  -1   30.63    0.97
  -2   4   1   28.78    0.99
  -2   4   1   30.34    0.89
   1  -4  -1    9.26    0.30
  -1   4   1    9.35    0.28
  -1   4   1    8.28    0.34
   0   4   1   13.19    0.47
   0   4   1   12.62    0.40
  -1  -4  -1   34.28    1.08
  -1  -4  -1   30.87    1.00
   1   4   1   33.81    1.09
   1   4   1   33.10    1.00
  -2  -4  -1   35.20    1.17
   2   4   1   35.75    1.10
   2   4   1   37.55    1.16
   2   4   1   36.12    1.19
  -3  -4  -1   28.39    0.93
   3   4   1   28.03    0.95
   3   4   1   30.06    0.92
   3   4   1   27.14    0.87
  -4  -4  -1    0.43    0.07
   4   4   1    0.59    0.08
   4   4   1    0.59    0.06
  -5  -4  -1   19.37    0.67
   5   4   1   20.48    0.63
   5   4   1   19.34    0.69
   5   4   1   18.71    0.66
  -6  -4  -1   17.87    0.63
   6   4   1   18.49    0.60
   6   4   1   17.82    0.62
   6   4   1   17.95    0.66
  -7  -4  -1   31.07    1.01
   7   4   1   30.02    1.05
   7   4   1   30.68    0.97
   7   4   1   29.88    1.03
  -8  -4  -1    0.66    0.09
   8   4   1    1.16    0.11
   8   4   1    0.89    0.10
   8   4   1    0.75    0.12
  -9  -4  -1    8.86    0.37
   9   4   1    9.05    0.36
   9   4   1    8.30    0.37
   9   4   1    8.84    0.42
  10   4   1    0.86    0.12
  10   4   1    1.04    0.13
  11   4   1    2.87    0.20
  11   4   1    3.19    0.25
  11   4   1    2.85    0.20
  12   4   1    3.00    0.23
  12   4   1    3.34    0.23
  12   4   1    2.84    0.25
  13   4   1    2.76    0.26
  13   4   1    2.56    0.22
  13   4   1    2.54    0.21
  14   4   1    0.76    0.17
  14   4   1    0.97    0.16
  14   4   1    0.60    0.14
  15   4   1    1.41    0.19
  15   4   1    1.36    0.22
  15   4   1    1.00    0.17
  16   4   1    0.06    0.11
  16   4   1    0.18    0.12
  16   4   1    0.05    0.11
  17   4   1    2.20    0.25
  17   4   1    1.89    0.28
  17   4   1    2.24    0.27
  18   4   1    0.53    0.17
  18   4   1    0.55    0.20
  18  -5  -1    0.40    0.16
  17  -5  -1    0.13    0.13
  16  -5  -1    0.02    0.11
  16  -5  -1   -0.05    0.08
  15  -5  -1    1.41    0.18
  15  -5  -1    1.49    0.20
  14  -5  -1    0.46    0.10
  14  -5  -1    0.53    0.13
  13  -5  -1    1.18    0.15
  13  -5  -1    1.37    0.16
 -13   5   1    1.51    0.21
  12  -5  -1    0.15    0.07
  12  -5  -1    0.30    0.10
 -12   5   1    0.21    0.10
  11  -5  -1    3.62    0.21
  11  -5  -1    3.47    0.23
 -11   5   1    3.63    0.26
  10  -5  -1   32.53    1.13
  10  -5  -1   31.29    1.05
 -10   5   1   32.98    1.16
   9  -5  -1   10.77    0.42
   9  -5  -1   11.91    0.46
  -9   5   1   11.45    0.50
   8  -5  -1    5.60    0.26
   8  -5  -1    5.49    0.24
  -8   5   1    5.40    0.30
   7  -5  -1    1.40    0.11
   7  -5  -1    0.90    0.08
  -7   5   1    0.90    0.13
   6  -5  -1   28.34    0.97
   6  -5  -1   27.73    0.90
  -6   5   1   27.18    1.00
  -6   5   1   31.69    0.88
   5  -5  -1    0.99    0.07
   5  -5  -1    1.33    0.09
  -5   5   1    1.28    0.06
  -5   5   1    0.88    0.11
   4  -5  -1   11.38    0.42
  -4   5   1   12.82    0.36
  -4   5   1   10.92    0.45
   3  -5  -1  102.96    3.23
  -3   5   1   98.55    3.18
  -3   5   1  101.58    2.98
   2  -5  -1   23.69    0.76
  -2   5   1   22.96    0.80
  -2   5   1   23.01    0.71
   1  -5  -1    0.47    0.04
  -1   5   1    0.44    0.08
  -1   5   1    0.52    0.04
   0  -5  -1    0.24    0.06
   0   5   1    0.25    0.06
   0   5   1    0.22    0.03
  -1  -5  -1   25.77    0.86
   1   5   1   24.69    0.77
   1   5   1   25.58    0.87
  -2  -5  -1    0.77    0.09
   2   5   1    0.77    0.10
   2   5   1    0.91    0.06
  -3  -5  -1   33.10    1.09
   3   5   1   32.24    1.01
   3   5   1   32.39    1.11
   3   5   1   34.26    1.07
  -4  -5  -1   18.11    0.63
   4   5   1   17.63    0.65
   4   5   1   17.82    0.58
   4   5   1   17.50    0.59
  -5  -5  -1   22.63    0.78
   5   5   1   21.94    0.73
   5   5   1   22.83    0.82
   5   5   1   24.10    0.77
  -6  -5  -1   24.96    0.82
   6   5   1   23.72    0.81
   6   5   1   22.59    0.85
   6   5   1   24.44    0.78
  -7  -5  -1   32.91    1.10
   7   5   1   32.82    1.06
   7   5   1   32.45    1.15
   7   5   1   34.21    1.11
  -8  -5  -1   36.52    1.22
   8   5   1   36.96    1.17
   8   5   1   35.99    1.27
   8   5   1   37.09    1.24
   9   5   1    4.26    0.22
   9   5   1    3.67    0.21
  10   5   1   16.00    0.58
  10   5   1   15.39    0.60
  11   5   1    4.18    0.25
  11   5   1    4.12    0.25
  12   5   1    0.62    0.13
  12   5   1    0.47    0.11
  12   5   1    0.49    0.14
  13   5   1    0.25    0.11
  13   5   1    0.24    0.11
  13   5   1    0.23    0.12
  14   5   1    0.33    0.12
  14   5   1    0.25    0.10
  14   5   1    0.33    0.14
  15   5   1    0.18    0.12
  15   5   1    0.31    0.12
  15   5   1    0.34    0.15
  16   5   1    2.59    0.28
  16   5   1    2.77    0.29
  16   5   1    2.15    0.29
  17   5   1   -0.02    0.11
  17   5   1   -0.02    0.12
  17   5   1   -0.05    0.11
  18   5   1    2.54    0.33
  18  -6  -1   -0.13    0.12
  17  -6  -1    0.94    0.19
  16  -6  -1    0.02    0.11
  15  -6  -1    0.35    0.13
  14  -6  -1    1.35    0.18
  14  -6  -1    1.43    0.17
  13  -6  -1    1.88    0.17
  13  -6  -1    2.06    0.21
 -13   6   1    1.87    0.24
  12  -6  -1   10.09    0.44
  12  -6  -1   10.82    0.49
 -12   6   1   11.32    0.54
  11  -6  -1   17.59    0.64
  11  -6  -1   17.48    0.69
 -11   6   1   18.28    0.75
  10  -6  -1    1.15    0.14
  10  -6  -1    0.74    0.10
 -10   6   1    0.85    0.15
   9  -6  -1    7.59    0.31
   9  -6  -1    7.53    0.34
  -9   6   1    7.64    0.39
   8  -6  -1    4.76    0.21
   8  -6  -1    4.43    0.23
  -8   6   1    4.46    0.27
   7  -6  -1    3.88    0.18
   7  -6  -1    3.65    0.20
  -7   6   1    4.84    0.16
  -7   6   1    3.66    0.24
   6  -6  -1   17.94    0.63
   6  -6  -1   16.97    0.57
  -6   6   1   18.63    0.55
  -6   6   1   17.59    0.68
   5  -6  -1   11.30    0.43
  -5   6   1   11.94    0.36
  -5   6   1   11.98    0.48
   4  -6  -1    7.44    0.29
  -4   6   1    7.35    0.23
  -4   6   1    7.39    0.34
   3  -6  -1   13.34    0.46
  -3   6   1   12.94    0.52
  -3   6   1   13.53    0.41
   2  -6  -1    0.89    0.06
  -2   6   1    0.52    0.09
  -2   6   1    0.62    0.04
   1  -6  -1   29.55    0.96
  -1   6   1   30.40    1.02
  -1   6   1   28.68    0.89
   0  -6  -1    5.43    0.26
   0   6   1    5.50    0.19
   0   6   1    5.42    0.27
  -1  -6  -1   23.78    0.81
   1   6   1   22.51    0.81
   1   6   1   22.69    0.71
  -2  -6  -1    7.76    0.33
   2   6   1    7.77    0.27
  -3  -6  -1   21.77    0.76
   3   6   1   21.95    0.69
   3   6   1   21.39    0.71
   3   6   1   21.77    0.79
  -4  -6  -1    0.35    0.07
   4   6   1    0.43    0.09
   4   6   1    0.41    0.06
  -5  -6  -1    1.25    0.11
   5   6   1    1.20    0.10
   5   6   1    1.22    0.08
   5   6   1    1.34    0.15
  -6  -6  -1   11.45    0.45
   6   6   1   12.68    0.43
   6   6   1   11.10    0.49
   6   6   1   11.59    0.42
  -7  -6  -1   21.90    0.77
   7   6   1   21.62    0.72
   7   6   1   21.17    0.75
   7   6   1   22.10    0.82
   8   6   1    5.39    0.26
   8   6   1    5.76    0.26
   9   6   1    0.02    0.06
   9   6   1    0.11    0.07
  10   6   1   17.80    0.68
  10   6   1   18.32    0.66
  11   6   1    0.08    0.08
  11   6   1    0.32    0.11
  12   6   1    2.70    0.22
  12   6   1    2.93    0.23
  13   6   1    0.49    0.16
  13   6   1    0.28    0.11
  13   6   1    0.24    0.10
  14   6   1    0.02    0.11
  14   6   1   -0.07    0.08
  14   6   1   -0.10    0.09
  15   6   1    0.37    0.14
  15   6   1    0.41    0.14
  15   6   1    0.45    0.17
  16   6   1   -0.03    0.12
  16   6   1    0.18    0.15
  17   6   1    0.36    0.17
  18  -7  -1    0.65    0.19
  17  -7  -1    0.39    0.17
  16  -7  -1    0.95    0.19
  15  -7  -1    0.10    0.11
  14  -7  -1   -0.12    0.08
  13  -7  -1    0.16    0.10
  12  -7  -1    0.10    0.09
  12  -7  -1    0.12    0.07
 -12   7   1    0.21    0.13
  11  -7  -1    0.65    0.13
  11  -7  -1    0.40    0.09
 -11   7   1    0.48    0.15
  10  -7  -1    0.69    0.12
  10  -7  -1    0.74    0.10
 -10   7   1    0.84    0.16
   9  -7  -1    7.33    0.35
   9  -7  -1    7.65    0.31
  -9   7   1    8.35    0.42
   8  -7  -1   19.19    0.70
   8  -7  -1   18.03    0.62
  -8   7   1   19.33    0.76
   7  -7  -1    6.54    0.30
   7  -7  -1    6.82    0.26
  -7   7   1    6.85    0.36
  -7   7   1    7.19    0.23
   6  -7  -1    0.44    0.07
  -6   7   1    0.41    0.11
  -6   7   1    0.62    0.04
   5  -7  -1   17.84    0.63
  -5   7   1   17.17    0.69
  -5   7   1   18.08    0.54
   4  -7  -1    4.62    0.20
  -4   7   1    4.36    0.26
  -4   7   1    4.63    0.16
   3  -7  -1    0.52    0.06
  -3   7   1    0.47    0.11
  -3   7   1    0.47    0.05
   2  -7  -1   23.33    0.78
  -2   7   1   23.17    0.71
  -2   7   1   23.59    0.85
   1  -7  -1    7.25    0.26
  -1   7   1    7.78    0.35
  -1   7   1    7.43    0.25
   0  -7  -1    3.39    0.21
   0   7   1    3.30    0.21
   0   7   1    3.42    0.13
  -1  -7  -1   44.76    1.50
   1   7   1   45.85    1.51
   1   7   1   44.73    1.36
  -2  -7  -1    0.04    0.05
   2   7   1    0.14    0.04
  -3  -7  -1   26.57    0.93
   3   7   1   26.65    0.84
  -4  -7  -1    5.41    0.27
   4   7   1    5.28    0.30
   4   7   1    5.44    0.23
   4   7   1    5.73    0.21
  -5  -7  -1    6.52    0.30
   5   7   1    6.44    0.26
   5   7   1    6.69    0.25
   5   7   1    5.89    0.33
  -6  -7  -1    1.98    0.15
   6   7   1    1.99    0.14
   6   7   1    2.19    0.12
   6   7   1    2.06    0.19
   7   7   1   31.09    0.99
   7   7   1   29.43    1.02
   8   7   1    0.51    0.10
   8   7   1    0.55    0.08
   9   7   1    0.72    0.10
   9   7   1    0.74    0.11
  10   7   1    1.35    0.14
  10   7   1    1.08    0.14
  11   7   1   -0.05    0.07
  11   7   1    0.00    0.07
  12   7   1    5.80    0.33
  12   7   1    6.72    0.34
  13   7   1    0.30    0.11
  13   7   1    0.45    0.13
  13   7   1    0.26    0.14
  14   7   1    0.01    0.13
  14   7   1    0.08    0.11
  15   7   1    0.90    0.17
  15   7   1    0.67    0.19
  16   7   1    0.64    0.18
  16   7   1    0.92    0.22
  17   7   1    0.67    0.20
  17  -8  -1    2.16    0.28
  16  -8  -1    0.13    0.13
  15  -8  -1    1.58    0.22
  14  -8  -1    0.26    0.12
  13  -8  -1    0.19    0.11
  12  -8  -1   -0.04    0.07
 -12   8   1   -0.05    0.10
  11  -8  -1    4.15    0.28
 -11   8   1    4.81    0.34
  10  -8  -1    0.23    0.09
  10  -8  -1    0.25    0.07
 -10   8   1    0.15    0.12
   9  -8  -1    6.86    0.29
   9  -8  -1    6.83    0.34
  -9   8   1    7.16    0.40
  -8   8   1    0.28    0.13
   7  -8  -1   15.08    0.57
  -7   8   1   14.46    0.63
   6  -8  -1    0.99    0.11
  -6   8   1    0.92    0.16
  -6   8   1    0.97    0.05
   5  -8  -1    8.55    0.35
  -5   8   1    8.58    0.42
  -5   8   1    8.72    0.27
   4  -8  -1   14.41    0.54
  -4   8   1   15.01    0.62
  -4   8   1   15.85    0.47
   3  -8  -1    7.32    0.29
  -3   8   1    7.35    0.25
  -3   8   1    6.98    0.36
  -3   8   1    7.35    0.24
   2  -8  -1    0.68    0.06
  -2   8   1    0.55    0.11
  -2   8   1    0.58    0.05
  -1   8   1    7.95    0.38
  -1   8   1    7.68    0.26
   0  -8  -1    0.56    0.11
   0   8   1    0.60    0.11
   0   8   1    0.60    0.06
  -1  -8  -1    1.29    0.15
   1   8   1    1.45    0.17
   1   8   1    1.35    0.09
  -2  -8  -1    6.32    0.32
   2   8   1    6.22    0.24
  -3  -8  -1    1.47    0.15
   3   8   1    1.52    0.10
  -4  -8  -1    5.05    0.27
   4   8   1    4.85    0.21
  -5  -8  -1    0.21    0.07
   5   8   1    0.24    0.04
   5   8   1    0.18    0.06
   5   8   1    0.40    0.11
   6   8   1    5.72    0.25
   6   8   1    5.27    0.22
   7   8   1    2.31    0.16
   7   8   1    2.08    0.13
   8   8   1    0.74    0.09
   8   8   1    0.50    0.10
   9   8   1    6.89    0.32
   9   8   1    6.36    0.30
  10   8   1    1.29    0.14
  10   8   1    1.45    0.16
  11   8   1    0.03    0.08
  12   8   1   -0.03    0.09
  13   8   1   -0.12    0.09
  14   8   1    0.53    0.15
  14   8   1    0.53    0.17
  15   8   1    0.09    0.12
  15   8   1    0.08    0.15
  16   8   1   -0.09    0.13
  17  -9  -1    0.06    0.13
  16  -9  -1    0.10    0.13
  15  -9  -1    0.09    0.12
  14  -9  -1    0.07    0.11
  13  -9  -1    0.37    0.12
  12  -9  -1    1.10    0.17
 -12   9   1    1.40    0.23
  11  -9  -1    0.42    0.11
 -11   9   1    0.55    0.16
  10  -9  -1    3.34    0.24
 -10   9   1    3.77    0.31
   9  -9  -1    5.52    0.30
  -9   9   1    5.83    0.38
   8  -9  -1    2.37    0.18
  -8   9   1    2.71    0.26
   7  -9  -1    0.27    0.07
  -7   9   1    0.45    0.14
   6  -9  -1    0.60    0.09
  -6   9   1    0.63    0.15
   5  -9  -1    0.14    0.06
  -5   9   1    0.02    0.09
   4  -9  -1   11.53    0.44
  -4   9   1   11.80    0.53
  -4   9   1   11.93    0.37
  -4   9   1   11.74    0.36
   3  -9  -1    0.79    0.08
  -3   9   1    0.69    0.07
  -3   9   1    0.75    0.05
  -3   9   1    0.77    0.14
   2  -9  -1    4.54    0.19
  -2   9   1    4.61    0.17
  -2   9   1    4.76    0.30
   1  -9  -1    4.05    0.26
  -1   9   1    4.11    0.16
  -1   9   1    4.12    0.27
   0  -9  -1   16.50    0.66
   0   9   1   16.88    0.68
   0   9   1   16.51    0.53
  -1  -9  -1    5.65    0.31
   1   9   1    5.02    0.21
  -2  -9  -1    7.10    0.36
   2   9   1    7.39    0.28
  -3  -9  -1    0.58    0.11
   3   9   1    0.43    0.07
   4   9   1    5.02    0.22
   5   9   1    3.84    0.19
   6   9   1    1.03    0.11
   7   9   1    3.97    0.22
   8   9   1    1.81    0.16
   9   9   1    0.36    0.10
  10   9   1    0.01    0.07
  11   9   1   10.26    0.46
  12   9   1    0.06    0.10
  13   9   1    0.96    0.17
  14   9   1   -0.12    0.10
  14   9   1   -0.08    0.13
  15   9   1    0.88    0.20
  15   9   1    1.13    0.25
  17 -10  -1   -0.07    0.13
  16 -10  -1   -0.04    0.11
  15 -10  -1    0.01    0.11
  14 -10  -1    1.01    0.18
  13 -10  -1    6.56    0.40
  12 -10  -1    0.95    0.16
 -12  10   1    1.16    0.22
  11 -10  -1    0.42    0.12
 -11  10   1    0.35    0.15
  10 -10  -1    1.14    0.16
 -10  10   1    1.30    0.22
   9 -10  -1    0.27    0.09
  -9  10   1    0.29    0.14
   8 -10  -1    2.80    0.20
  -8  10   1    2.89    0.28
   7 -10  -1    1.83    0.16
  -7  10   1    1.58    0.22
   6 -10  -1   16.62    0.65
  -6  10   1   18.73    0.76
   5 -10  -1    6.71    0.30
  -5  10   1    6.87    0.40
   4 -10  -1    5.76    0.27
  -4  10   1    6.16    0.37
  -4  10   1    6.30    0.20
   3 -10  -1    0.23    0.06
  -3  10   1    0.29    0.04
  -3  10   1    0.33    0.12
   2 -10  -1    3.14    0.14
  -2  10   1    3.30    0.13
  -2  10   1    3.41    0.27
   1 -10  -1   26.38    0.99
  -1  10   1   25.53    1.00
  -1  10   1   27.01    0.82
   0 -10  -1    0.60    0.13
   0  10   1    0.50    0.06
   0  10   1    0.46    0.13
   1  10   1    2.68    0.14
   2  10   1    1.81    0.12
   3  10   1   17.24    0.58
   4  10   1    2.85    0.16
   5  10   1    0.16    0.06
   6  10   1    0.30    0.08
   7  10   1    1.01    0.13
   8  10   1    1.45    0.15
   9  10   1    2.50    0.20
  10  10   1    1.11    0.15
  11  10   1    1.80    0.20
  12  10   1    0.11    0.11
  13  10   1    1.32    0.20
  14  10   1    0.88    0.18
  16 -11  -1    1.43    0.24
  15 -11  -1    0.02    0.11
  14 -11  -1    0.99    0.19
  13 -11  -1    1.20    0.20
  12 -11  -1    0.17    0.11
  11 -11  -1    1.54    0.20
 -11  11   1    1.89    0.28
  10 -11  -1    0.84    0.15
 -10  11   1    1.14    0.23
   9 -11  -1    0.57    0.12
  -9  11   1    0.80    0.19
   8 -11  -1    1.30    0.15
  -8  11   1    0.91    0.19
   7 -11  -1    0.02    0.06
  -7  11   1    0.01    0.09
   6 -11  -1    6.61    0.32
  -6  11   1    7.00    0.42
   5 -11  -1    2.37    0.16
  -5  11   1    2.53    0.26
   4 -11  -1    0.66    0.09
  -4  11   1    0.47    0.14
  -3  11   1   -0.03    0.09
  -2  11   1   16.05    0.50
  -2  11   1   15.17    0.69
  -1  11   1    6.27    0.23
  -1  11   1    5.71    0.37
   0  11   1    3.13    0.15
   0  11   1    2.86    0.26
   1  11   1    4.92    0.21
   2  11   1    0.37    0.06
   3  11   1   12.18    0.44
   4  11   1    1.51    0.13
   5  11   1    3.57    0.20
   6  11   1    0.19    0.07
   7  11   1    9.14    0.39
   8  11   1    0.35    0.10
   9  11   1    3.24    0.23
  10  11   1    1.96    0.20
  11  11   1    0.05    0.10
  12  11   1    8.37    0.44
  13  11   1    0.96    0.18
  16 -12  -1   -0.09    0.12
  15 -12  -1    0.96    0.20
  14 -12  -1   -0.05    0.11
  13 -12  -1    1.33    0.21
  12 -12  -1    1.54    0.21
  11 -12  -1   -0.04    0.08
 -11  12   1   -0.04    0.13
  10 -12  -1    0.26    0.11
 -10  12   1    0.41    0.16
   9 -12  -1    0.53    0.12
  -9  12   1    0.60    0.19
   8 -12  -1    0.06    0.07
  -8  12   1   -0.06    0.12
  -7  12   1    3.98    0.35
  -6  12   1    0.04    0.11
  -5  12   1    0.66    0.17
  -4  12   1    5.12    0.37
  -3  12   1    2.47    0.28
  -2  12   1    6.73    0.43
  -1  12   1    6.03    0.40
   0  12   1   10.02    0.36
   1  12   1    0.69    0.08
   2  12   1    0.96    0.10
   3  12   1    1.64    0.13
   4  12   1    2.91    0.18
   5  12   1    0.05    0.07
   6  12   1    2.62    0.19
   7  12   1    1.04    0.14
   8  12   1    0.04    0.08
   9  12   1    4.10    0.27
  10  12   1    0.05    0.10
  11  12   1    0.84    0.16
  12  12   1    0.23    0.13
  13  12   1    1.36    0.21
 -10  13   1    2.62    0.34
  -9  13   1    0.11    0.15
  -8  13   1    1.31    0.23
  -7  13   1    2.62    0.33
  -6  13   1    0.33    0.15
  -5  13   1    1.30    0.24
  -4  13   1    8.74    0.51
  -3  13   1    1.02    0.21
  -2  13   1    0.63    0.17
  -1  13   1    0.55    0.16
   2  13   1    3.30    0.20
   3  13   1    2.34    0.16
   4  13   1    3.95    0.22
   5  13   1    1.94    0.17
   6  13   1    4.06    0.24
   7  13   1    1.31    0.15
   8  13   1    8.68    0.41
   9  13   1    0.68    0.14
  10  13   1    0.55    0.14
  11  13   1    0.36    0.14
  12  13   1    5.27    0.36
  -9  14   1    2.14    0.34
  -8  14   1    1.46    0.27
  -7  14   1    0.00    0.12
  -6  14   1    3.35    0.38
  -5  14   1    1.81    0.28
  -4  14   1    0.95    0.21
  -3  14   1    0.38    0.15
  -2  14   1    0.37    0.15
   6  14   1    3.03    0.22
   7  14   1    2.14    0.20
   8  14   1    5.83    0.34
   9  14   1    7.27    0.40
  10  14   1    0.00    0.11
  11  14   1    0.21    0.14
  -8  15   1   -0.04    0.14
  -7  15   1    1.62    0.28
  -6  15   1    0.67    0.21
  -5  15   1    2.07    0.31
  -4  15   1    0.82    0.21
  -3  15   1    0.08    0.15
  -2  15   1   -0.10    0.12
  -7  16   1    0.23    0.20
  -6  16   1    0.49    0.20
  -5  16   1    0.40    0.19
  -4  16   1    3.05    0.39
  -3  16   1   -0.08    0.14
  -6  17   1    0.78    0.24
  -5  17   1    0.20    0.17
  -4  17   1   -0.07    0.16
   9  16  -2    1.55    0.20
   8  16  -2    7.60    0.39
   7  16  -2    0.87    0.15
   6  16  -2    1.85    0.19
  -3  16  -2    2.66    0.35
  -4  16  -2    0.56    0.19
  11  15  -2   -0.12    0.11
  10  15  -2    0.31    0.13
   9  15  -2    1.01    0.16
   8  15  -2    9.00    0.42
   7  15  -2    0.97    0.15
   6  15  -2    2.35    0.20
   5  15  -2    0.15    0.09
   4  15  -2    0.08    0.07
   3  15  -2    2.04    0.17
   2  15  -2    1.51    0.14
  -3  15  -2    0.12    0.13
  -4  15  -2    0.15    0.13
  -5  15  -2    0.58    0.19
  -6  15  -2    2.29    0.31
  12  14  -2    0.33    0.16
  11  14  -2    0.40    0.14
  10  14  -2    1.32    0.19
   9  14  -2   11.44    0.50
   8  14  -2    0.45    0.12
   7  14  -2    0.06    0.09
   6  14  -2    0.21    0.09
   5  14  -2    1.05    0.13
   4  14  -2    0.04    0.07
   3  14  -2    6.02    0.28
   2  14  -2    2.19    0.16
   1  14  -2    1.62    0.14
   0  14  -2   -0.09    0.05
  -1  14  -2    5.71    0.26
  -2  14  -2    0.02    0.12
  -3  14  -2    1.74    0.26
  -4  14  -2    1.47    0.24
  -5  14  -2    4.14    0.36
  -6  14  -2    0.93    0.21
  -7  14  -2   16.24    0.80
  12  13  -2    0.35    0.13
  11  13  -2    1.78    0.21
  10  13  -2    0.12    0.11
   9  13  -2    0.16    0.10
   8  13  -2    0.84    0.14
   7  13  -2   -0.01    0.08
   6  13  -2    0.38    0.09
   5  13  -2    0.96    0.13
   4  13  -2    0.30    0.08
   3  13  -2    0.29    0.07
   2  13  -2    0.36    0.08
   1  13  -2    6.12    0.27
   0  13  -2    3.65    0.19
  -1  13  -2    3.12    0.17
  -2  13  -2   11.56    0.58
  -2  13  -2   10.66    0.40
  -3  13  -2    0.09    0.11
  -4  13  -2    0.10    0.11
  -5  13  -2   -0.14    0.09
   5 -13   2   -0.10    0.06
  -6  13  -2    1.57    0.25
   6 -13   2    1.37    0.17
  -7  13  -2    0.97    0.20
   7 -13   2    0.99    0.15
  -8  13  -2    2.79    0.32
   8 -13   2    2.66    0.24
   9 -13   2    1.58    0.21
  10 -13   2    1.05    0.18
  11 -13   2    1.59    0.23
  12 -13   2    0.12    0.13
  13 -13   2    0.70    0.18
  14 -13   2   -0.03    0.14
  15 -13   2    5.80    0.45
  16 -13   2    1.88    0.30
  13  12  -2    0.41    0.14
  12  12  -2    0.17    0.12
  11  12  -2    3.77    0.27
  10  12  -2    1.24    0.17
   9  12  -2    0.52    0.12
   8  12  -2    1.56    0.17
   7  12  -2    0.76    0.12
   6  12  -2    0.27    0.09
   5  12  -2    1.60    0.15
   4  12  -2    1.02    0.12
   3  12  -2    1.81    0.14
   2  12  -2    1.34    0.12
   1  12  -2    1.38    0.12
   0  12  -2   -0.04    0.05
  -1  12  -2    4.24    0.20
  -1  12  -2    4.71    0.33
   1 -12   2    4.33    0.32
  -2  12  -2    0.21    0.11
   2 -12   2    0.24    0.06
  -3  12  -2    2.37    0.27
   3 -12   2    1.81    0.15
  -4  12  -2    0.26    0.11
   4 -12   2    0.30    0.08
  -5  12  -2    2.88    0.28
   5 -12   2    2.45    0.19
  -6  12  -2   -0.06    0.10
   6 -12   2    0.04    0.06
  -7  12  -2    0.09    0.11
   7 -12   2    0.08    0.08
  -8  12  -2    0.24    0.14
   8 -12   2    0.28    0.10
  -9  12  -2    0.02    0.12
   9 -12   2    0.02    0.09
  10 -12   2    0.77    0.16
  11 -12   2    0.43    0.15
  12 -12   2    0.59    0.16
  13 -12   2    1.34    0.22
  14 -12   2    0.62    0.18
  15 -12   2    0.07    0.13
  16 -12   2    4.26    0.39
  14  11  -2    0.19    0.13
  13  11  -2    0.08    0.11
  12  11  -2    3.34    0.25
  11  11  -2    4.15    0.28
  10  11  -2    0.07    0.09
   9  11  -2    7.61    0.36
   8  11  -2    0.75    0.12
   7  11  -2    0.02    0.07
   6  11  -2    0.06    0.07
   5  11  -2    0.32    0.08
   4  11  -2    2.20    0.15
   3  11  -2    0.18    0.07
  -3 -11   2    0.23    0.10
   2  11  -2    0.43    0.08
  -2 -11   2    0.62    0.14
   1  11  -2    3.53    0.18
  -1 -11   2    3.15    0.26
   0  11  -2    0.66    0.08
   0 -11   2    0.75    0.15
  -1  11  -2    0.70    0.15
   1 -11   2    0.60    0.08
   1 -11   2    0.52    0.12
  -2  11  -2   -0.03    0.08
   2 -11   2    0.12    0.05
  -3  11  -2    4.15    0.31
   3 -11   2    4.47    0.24
  -4  11  -2    4.77    0.34
   4 -11   2    5.26    0.27
  -5  11  -2    3.27    0.28
   5 -11   2    3.01    0.21
  -6  11  -2    2.97    0.27
   6 -11   2    2.47    0.20
  -7  11  -2    0.32    0.13
   7 -11   2    0.35    0.10
  -8  11  -2    4.67    0.35
   8 -11   2    4.18    0.28
  -9  11  -2    0.94    0.20
   9 -11   2    0.59    0.14
  10 -11   2    0.04    0.09
  11 -11   2   -0.15    0.07
  12 -11   2    0.76    0.16
  13 -11   2    0.55    0.15
  14 -11   2    0.90    0.19
  15 -11   2    0.35    0.15
  16 -11   2    0.30    0.15
  16  10  -2    0.07    0.16
  15  10  -2    1.57    0.22
  14  10  -2   -0.03    0.10
  13  10  -2    0.06    0.11
  12  10  -2    0.09    0.11
  11  10  -2    1.63    0.18
  10  10  -2    1.38    0.16
   9  10  -2    6.17    0.31
   8  10  -2    1.22    0.11
   8  10  -2    1.54    0.15
   7  10  -2    0.36    0.06
   7  10  -2    0.39    0.09
   6  10  -2    3.26    0.15
   6  10  -2    3.22    0.19
   5  10  -2    1.91    0.14
  -5 -10   2    1.68    0.19
   4  10  -2    0.93    0.11
  -4 -10   2    0.96    0.15
   3  10  -2    6.44    0.27
  -3 -10   2    5.66    0.34
   2  10  -2    1.52    0.12
   2  10  -2    1.33    0.09
  -2 -10   2    1.51    0.19
   1  10  -2   21.70    0.71
   1  10  -2   21.14    0.70
  -1 -10   2   19.99    0.82
   0  10  -2    4.29    0.18
   0 -10   2    4.05    0.28
  -1  10  -2    6.13    0.35
   1 -10   2    5.74    0.26
  -2  10  -2    9.70    0.47
   2 -10   2    9.67    0.40
  -3  10  -2   31.10    1.11
   3 -10   2   28.52    1.04
  -4  10  -2    3.99    0.29
   4 -10   2    3.72    0.22
  -5  10  -2   31.28    1.13
   5 -10   2   28.96    1.07
  -6  10  -2    4.97    0.33
   6 -10   2    4.13    0.26
  -7  10  -2   19.06    0.80
   7 -10   2   18.84    0.75
  -8  10  -2    0.57    0.15
   8 -10   2    0.95    0.14
  -9  10  -2   12.13    0.59
   9 -10   2   10.89    0.52
 -10  10  -2    1.88    0.24
  10 -10   2    1.82    0.17
  10 -10   2    2.12    0.22
  11 -10   2    4.73    0.33
  12 -10   2    0.94    0.18
  13 -10   2   -0.01    0.10
  14 -10   2    1.74    0.25
  15 -10   2   -0.15    0.08
  16 -10   2    0.46    0.17
  17 -10   2    0.79    0.20
  16   9  -2    0.17    0.17
  15   9  -2   -0.02    0.11
  14   9  -2    0.43    0.14
  13   9  -2    0.90    0.16
  12   9  -2    3.31    0.24
  11   9  -2    3.34    0.23
  11   9  -2    3.06    0.20
  10   9  -2    0.37    0.08
  10   9  -2    0.34    0.10
   9   9  -2    1.19    0.12
   9   9  -2    1.10    0.13
   8   9  -2    0.46    0.07
   8   9  -2    0.56    0.10
   7   9  -2    1.15    0.12
   7   9  -2    1.01    0.09
   6   9  -2    0.31    0.05
   6   9  -2    0.30    0.07
  -6  -9   2    0.28    0.10
   5   9  -2    1.95    0.14
  -5  -9   2    2.11    0.19
   4   9  -2    0.82    0.10
  -4  -9   2    1.09    0.15
   3   9  -2    7.88    0.31
   3   9  -2    7.74    0.31
  -3  -9   2    8.11    0.39
   2   9  -2    6.61    0.27
   2   9  -2    6.96    0.28
  -2  -9   2    6.67    0.35
   1   9  -2    5.36    0.23
  -1  -9   2    6.10    0.33
   0   9  -2    4.30    0.18
   0   9  -2    4.18    0.27
   0  -9   2    4.24    0.20
   0  -9   2    4.38    0.28
  -1   9  -2   41.12    1.49
  -1   9  -2   46.23    1.43
   1  -9   2   42.86    1.45
  -2   9  -2    0.17    0.09
   2  -9   2    0.04    0.04
  -3   9  -2    0.36    0.10
   3  -9   2    0.38    0.08
  -4   9  -2    1.03    0.15
   4  -9   2    1.26    0.12
  -5   9  -2    0.70    0.14
   5  -9   2    0.79    0.11
  -6   9  -2    0.09    0.08
   6  -9   2   -0.01    0.06
  -7   9  -2    0.22    0.11
   7  -9   2    0.20    0.08
  -8   9  -2    2.72    0.25
   8  -9   2    2.89    0.19
   8  -9   2    2.95    0.22
  -9   9  -2    4.14    0.31
   9  -9   2    3.91    0.27
   9  -9   2    3.90    0.24
 -10   9  -2   12.28    0.58
  10  -9   2   10.95    0.52
  10  -9   2   10.48    0.47
  11  -9   2    1.63    0.20
  11  -9   2    2.30    0.19
  12  -9   2    2.10    0.20
  12  -9   2    1.76    0.23
  13  -9   2    2.26    0.25
  13  -9   2    1.80    0.24
  14  -9   2    1.08    0.20
  15  -9   2    1.04    0.20
  16  -9   2   -0.02    0.11
  17  -9   2    4.81    0.41
  16   8  -2   -0.04    0.13
  16   8  -2   -0.05    0.11
  15   8  -2    0.04    0.09
  15   8  -2   -0.03    0.12
  14   8  -2    0.63    0.14
  14   8  -2    0.68    0.14
  13   8  -2    0.77    0.14
  13   8  -2    0.63    0.12
  12   8  -2    0.64    0.11
  12   8  -2    0.84    0.13
  11   8  -2    3.80    0.22
  11   8  -2    4.05    0.24
  10   8  -2    4.63    0.23
  10   8  -2    4.32    0.25
   9   8  -2    7.51    0.33
   9   8  -2    7.20    0.31
   8   8  -2   11.89    0.45
   8   8  -2   11.94    0.44
  -8  -8   2   11.65    0.51
   7   8  -2    0.17    0.05
   7   8  -2    0.03    0.06
  -7  -8   2   -0.03    0.06
   6   8  -2    5.44    0.25
  -6  -8   2    5.65    0.30
   5   8  -2    0.29    0.07
  -5  -8   2    0.31    0.09
   4   8  -2    6.09    0.26
  -4  -8   2    6.49    0.32
   3   8  -2    2.38    0.14
   3   8  -2    2.27    0.13
  -3  -8   2    2.01    0.18
   2   8  -2    1.10    0.09
   2   8  -2    1.10    0.09
  -2  -8   2    1.27    0.15
   1   8  -2   32.31    1.08
  -1  -8   2   32.73    1.15
   0   8  -2    0.17    0.07
   0   8  -2    0.29    0.05
   0  -8   2    0.16    0.07
   0  -8   2    0.12    0.04
  -1   8  -2    2.21    0.18
  -1   8  -2    2.19    0.12
   1  -8   2    1.94    0.13
  -2   8  -2    1.54    0.15
   2  -8   2    1.65    0.12
  -3   8  -2    7.30    0.36
   3  -8   2    6.91    0.31
  -4   8  -2    6.76    0.34
   4  -8   2    6.19    0.29
  -5   8  -2    0.47    0.10
   5  -8   2    0.46    0.08
  -6   8  -2    6.08    0.33
   6  -8   2    5.72    0.29
  -7   8  -2    1.18    0.16
   7  -8   2    1.13    0.12
   7  -8   2    1.35    0.14
  -8   8  -2    0.14    0.09
   8  -8   2    0.12    0.06
   8  -8   2    0.06    0.07
  -9   8  -2    1.64    0.21
   9  -8   2    1.64    0.18
   9  -8   2    1.01    0.13
 -10   8  -2    2.36    0.24
  10  -8   2    2.36    0.19
  10  -8   2    1.84    0.20
  11  -8   2    2.05    0.20
  11  -8   2    2.31    0.23
  12  -8   2    1.00    0.17
  12  -8   2    1.00    0.15
  13  -8   2    1.29    0.20
  13  -8   2    1.19    0.17
  14  -8   2    4.80    0.35
  14  -8   2    4.58    0.30
  15  -8   2   -0.12    0.11
  16  -8   2    1.55    0.25
  17  -8   2    0.03    0.14
  16   7  -2    0.01    0.10
  16   7  -2    0.03    0.10
  16   7  -2    0.10    0.12
  15   7  -2    0.10    0.10
  15   7  -2   -0.11    0.10
  15   7  -2    0.02    0.12
  14   7  -2    2.14    0.21
  14   7  -2    1.83    0.19
  13   7  -2    0.86    0.13
  13   7  -2    0.48    0.12
  12   7  -2    0.31    0.10
  12   7  -2    0.33    0.09
  11   7  -2    0.16    0.07
  11   7  -2    0.22    0.08
  10   7  -2   17.28    0.62
  10   7  -2   16.64    0.62
   9   7  -2    3.34    0.20
   9   7  -2    3.12    0.18
  -9  -7   2    2.96    0.22
   8   7  -2    9.02    0.35
   8   7  -2    9.36    0.36
  -8  -7   2    8.57    0.40
   7   7  -2    3.15    0.17
   7   7  -2    3.35    0.16
  -7  -7   2    3.08    0.21
   6   7  -2    8.46    0.33
  -6  -7   2    8.22    0.38
   5   7  -2    2.50    0.14
  -5  -7   2    2.26    0.18
   4   7  -2    0.15    0.07
   4   7  -2    0.09    0.04
  -4  -7   2    0.09    0.06
   3   7  -2    2.17    0.13
   3   7  -2    2.23    0.13
  -3  -7   2    2.53    0.18
   2   7  -2    0.32    0.05
  -2  -7   2    0.33    0.08
   1   7  -2   11.97    0.43
  -1  -7   2   11.77    0.49
   0   7  -2   23.01    0.77
   0   7  -2   23.12    0.82
   0  -7   2   22.03    0.78
  -1   7  -2    8.12    0.30
  -1   7  -2    7.82    0.36
   1  -7   2    7.71    0.32
  -2   7  -2    0.45    0.09
   2  -7   2    0.46    0.07
  -3   7  -2    2.02    0.16
   3  -7   2    1.97    0.13
  -4   7  -2   12.66    0.51
   4  -7   2   12.38    0.48
  -5   7  -2   33.10    1.15
   5  -7   2   32.31    1.13
  -6   7  -2    2.32    0.18
   6  -7   2    2.31    0.16
   6  -7   2    2.19    0.15
  -7   7  -2    3.33    0.24
   7  -7   2    3.50    0.22
   7  -7   2    3.38    0.19
  -8   7  -2   14.04    0.58
   8  -7   2   12.70    0.55
   8  -7   2   13.49    0.51
  -9   7  -2    2.65    0.23
   9  -7   2    2.29    0.17
   9  -7   2    2.34    0.20
 -10   7  -2    1.81    0.22
  10  -7   2    2.04    0.20
  10  -7   2    1.89    0.18
 -11   7  -2    2.38    0.23
  11  -7   2    2.03    0.19
  11  -7   2    1.44    0.18
  12  -7   2    1.48    0.19
  12  -7   2    1.72    0.19
  13  -7   2    1.12    0.16
  13  -7   2    1.20    0.19
  14  -7   2    0.43    0.14
  14  -7   2    0.53    0.12
  15  -7   2   -0.10    0.08
  15  -7   2    0.14    0.11
  16  -7   2   -0.10    0.10
  16  -7   2   -0.01    0.12
  17  -7   2    2.45    0.31
  18  -7   2    0.02    0.15
  18   6  -2   -0.09    0.12
  17   6  -2    0.03    0.12
  17   6  -2    0.07    0.13
  16   6  -2   -0.12    0.10
  16   6  -2    0.01    0.12
  16   6  -2    0.22    0.13
  15   6  -2    3.66    0.26
  15   6  -2    3.63    0.31
  15   6  -2    3.28    0.26
  14   6  -2    0.01    0.08
  14   6  -2   -0.05    0.09
  14   6  -2    0.10    0.09
  13   6  -2    0.94    0.13
  13   6  -2    0.83    0.13
  12   6  -2    0.21    0.09
  12   6  -2    0.28    0.09
  11   6  -2    5.12    0.27
  11   6  -2    5.34    0.26
  10   6  -2    9.31    0.38
  10   6  -2    9.32    0.38
   9   6  -2   43.82    1.38
   9   6  -2   42.69    1.45
  -9  -6   2   44.71    1.47
   8   6  -2    0.94    0.11
   8   6  -2    0.83    0.09
  -8  -6   2    0.88    0.12
   7   6  -2   30.23    0.98
  -7  -6   2   30.96    1.06
   6   6  -2    2.82    0.15
  -6  -6   2    2.88    0.19
   5   6  -2    0.26    0.06
   5   6  -2    0.23    0.08
  -5  -6   2    0.11    0.06
   4   6  -2    9.40    0.35
   4   6  -2    9.65    0.42
  -4  -6   2   10.19    0.41
   3   6  -2   15.11    0.56
   3   6  -2   15.40    0.60
   3   6  -2   15.86    0.52
  -3  -6   2   16.09    0.59
   2   6  -2    6.40    0.27
  -2  -6   2    6.96    0.31
   1   6  -2   44.16    1.47
  -1  -6   2   45.60    1.49
   0   6  -2   52.62    1.67
   0   6  -2   50.64    1.67
   0  -6   2   50.39    1.68
  -1   6  -2   72.96    2.34
  -1   6  -2   73.06    2.32
   1  -6   2   72.24    2.32
   1  -6   2   71.91    2.36
  -2   6  -2    5.99    0.29
   2  -6   2    6.04    0.26
   2  -6   2    6.45    0.28
  -3   6  -2   21.58    0.76
   3  -6   2   21.42    0.75
   3  -6   2   21.02    0.75
  -4   6  -2   19.96    0.72
   4  -6   2   18.82    0.65
   4  -6   2   19.48    0.70
  -5   6  -2    0.97    0.12
   5  -6   2    0.95    0.10
   5  -6   2    1.19    0.11
  -6   6  -2   19.37    0.70
   6  -6   2   17.43    0.68
   6  -6   2   18.47    0.64
  -7   6  -2   11.22    0.47
   7  -6   2   10.20    0.44
   7  -6   2   10.56    0.41
  -8   6  -2    2.10    0.19
   8  -6   2    2.39    0.18
   8  -6   2    2.20    0.16
  -9   6  -2   19.86    0.77
   9  -6   2   20.86    0.71
   9  -6   2   17.90    0.74
 -10   6  -2    4.11    0.29
  10  -6   2    4.39    0.25
  10  -6   2    4.55    0.28
 -11   6  -2   13.45    0.58
  11  -6   2   12.32    0.51
  11  -6   2   12.15    0.56
  12  -6   2    0.15    0.09
  12  -6   2    0.10    0.08
  13  -6   2    1.45    0.18
  13  -6   2    1.22    0.19
  14  -6   2    0.49    0.12
  14  -6   2    0.30    0.13
  15  -6   2    1.70    0.23
  15  -6   2    1.65    0.21
  16  -6   2    1.07    0.18
  16  -6   2    1.35    0.22
  17  -6   2    1.38    0.23
  17  -6   2    1.15    0.20
  18  -6   2    0.08    0.15
  18   5  -2   -0.09    0.13
  17   5  -2   -0.11    0.10
  17   5  -2    0.12    0.12
  16   5  -2   -0.19    0.09
  16   5  -2    0.00    0.09
  16   5  -2    0.04    0.11
  15   5  -2    1.58    0.18
  15   5  -2    1.40    0.17
  15   5  -2    1.77    0.24
  14   5  -2    0.33    0.11
  14   5  -2    0.52    0.12
  14   5  -2    0.44    0.13
  13   5  -2    3.00    0.21
  13   5  -2    2.90    0.21
  13   5  -2    3.01    0.25
  12   5  -2    2.09    0.17
  12   5  -2    1.85    0.16
  11   5  -2    4.11    0.23
  11   5  -2    3.97    0.23
  10   5  -2    7.41    0.31
  10   5  -2    6.67    0.30
 -10  -5   2    6.47    0.33
   9   5  -2    1.69    0.13
   9   5  -2    2.07    0.15
  -9  -5   2    1.90    0.16
   8   5  -2    9.18    0.35
   8   5  -2    8.48    0.34
  -8  -5   2    8.77    0.38
   7   5  -2    5.25    0.23
  -7  -5   2    4.98    0.26
   6   5  -2    1.49    0.18
   6   5  -2    1.37    0.10
  -6  -5   2    1.44    0.13
   5   5  -2   16.45    0.63
   5   5  -2   17.05    0.56
  -5  -5   2   16.92    0.62
   4   5  -2    2.14    0.12
   4   5  -2    1.93    0.15
  -4  -5   2    2.12    0.15
   3   5  -2   55.35    1.73
   3   5  -2   57.92    1.85
  -3  -5   2   57.77    1.84
   2   5  -2    0.11    0.05
   2   5  -2    0.14    0.04
  -2  -5   2    0.12    0.05
   1   5  -2   96.81    3.13
  -1  -5   2   96.86    3.07
  -1  -5   2   99.18    3.08
   0   5  -2   93.28    2.96
   0   5  -2   91.28    2.90
   0  -5   2   94.21    2.91
   0  -5   2   90.42    2.97
  -1   5  -2  209.79    6.45
  -1   5  -2  202.84    6.28
   1  -5   2  199.35    6.27
   1  -5   2  199.80    6.46
  -2   5  -2    1.17    0.11
  -2   5  -2    1.15    0.09
  -2   5  -2    1.05    0.08
   2  -5   2    1.04    0.09
   2  -5   2    1.15    0.10
  -3   5  -2   10.32    0.36
  -3   5  -2   10.12    0.40
   3  -5   2    9.91    0.38
   3  -5   2    9.82    0.36
   3  -5   2    9.73    0.38
  -4   5  -2    0.52    0.08
   4  -5   2    0.27    0.06
   4  -5   2    0.40    0.07
   4  -5   2    0.35    0.06
  -5   5  -2    1.50    0.13
   5  -5   2    1.80    0.13
   5  -5   2    1.42    0.11
   5  -5   2    1.55    0.12
  -6   5  -2    1.32    0.14
   6  -5   2    1.12    0.11
   6  -5   2    1.16    0.10
   6  -5   2    1.16    0.11
  -7   5  -2    3.99    0.23
   7  -5   2    3.34    0.20
   7  -5   2    3.51    0.19
  -8   5  -2    2.78    0.20
   8  -5   2    2.57    0.18
   8  -5   2    2.82    0.17
  -9   5  -2    1.67    0.16
   9  -5   2    1.38    0.14
   9  -5   2    1.74    0.15
 -10   5  -2    1.41    0.18
  10  -5   2    1.61    0.15
  10  -5   2    1.63    0.18
 -11   5  -2    1.45    0.18
  11  -5   2    1.42    0.17
  11  -5   2    1.68    0.18
  12  -5   2    3.87    0.28
  12  -5   2    4.21    0.26
  13  -5   2    1.47    0.19
  13  -5   2    1.70    0.19
  14  -5   2    1.10    0.18
  14  -5   2    0.96    0.16
  15  -5   2    4.95    0.33
  15  -5   2    4.91    0.35
  16  -5   2    0.17    0.12
  16  -5   2    0.22    0.11
  17  -5   2    3.71    0.35
  17  -5   2    3.76    0.31
  18  -5   2    1.67    0.24
  18  -5   2    2.12    0.30
  19  -5   2    3.44    0.33
  18   4  -2    0.40    0.16
  18   4  -2    0.69    0.17
  17   4  -2    0.53    0.15
  17   4  -2    0.32    0.14
  16   4  -2    0.84    0.16
  16   4  -2    0.63    0.16
  16   4  -2    0.44    0.13
  15   4  -2    0.02    0.09
  15   4  -2    0.17    0.10
  15   4  -2    0.13    0.10
  14   4  -2    2.28    0.19
  14   4  -2    2.60    0.21
  14   4  -2    1.99    0.22
  13   4  -2    0.32    0.11
  13   4  -2    0.19    0.08
  13   4  -2    0.14    0.08
  12   4  -2    1.22    0.14
  12   4  -2    1.42    0.18
  12   4  -2    1.19    0.13
  11   4  -2    7.08    0.33
  11   4  -2    6.87    0.31
 -11  -4   2    7.77    0.36
  10   4  -2   35.10    1.14
  10   4  -2   35.15    1.21
 -10  -4   2   36.27    1.22
   9   4  -2    0.52    0.08
   9   4  -2    0.45    0.07
  -9  -4   2    0.48    0.09
   8   4  -2    0.19    0.05
   8   4  -2    0.28    0.06
  -8  -4   2    0.13    0.06
   7   4  -2    5.14    0.22
  -7  -4   2    5.60    0.26
   6   4  -2    0.33    0.08
   6   4  -2    0.34    0.06
  -6  -4   2    0.28    0.06
   5   4  -2    9.44    0.40
   5   4  -2    9.66    0.35
  -5  -4   2   10.17    0.39
   4   4  -2    8.47    0.35
   4   4  -2    8.33    0.30
  -4  -4   2    8.99    0.35
   3   4  -2   25.30    0.85
   3   4  -2   23.63    0.78
  -3  -4   2   26.12    0.85
   2   4  -2    5.43    0.23
   2   4  -2    5.31    0.24
  -2  -4   2    5.41    0.24
   1   4  -2  107.03    3.58
  -1  -4   2  113.21    3.49
  -1  -4   2  115.35    3.49
   0   4  -2   15.57    0.53
   0   4  -2   15.11    0.53
   0  -4   2   14.95    0.53
   0  -4   2   14.67    0.53
  -1   4  -2   75.47    2.32
  -1   4  -2   68.20    2.26
   1  -4   2   70.56    2.26
   1  -4   2   73.65    2.33
  -2   4  -2    7.10    0.26
  -2   4  -2    6.70    0.25
   2  -4   2    6.61    0.27
   2  -4   2    6.18    0.26
  -3   4  -2   13.62    0.49
  -3   4  -2   14.44    0.46
   3  -4   2   13.28    0.46
   3  -4   2   13.21    0.49
   3  -4   2   13.01    0.48
  -4   4  -2    2.04    0.13
   4  -4   2    1.96    0.12
   4  -4   2    1.88    0.12
   4  -4   2    2.10    0.12
  -5   4  -2   22.74    0.78
   5  -4   2   21.72    0.76
   5  -4   2   22.59    0.79
   5  -4   2   22.43    0.74
  -6   4  -2    0.41    0.08
   6  -4   2    0.36    0.07
   6  -4   2    0.34    0.06
   6  -4   2    0.44    0.07
  -7   4  -2    7.50    0.33
   7  -4   2    7.55    0.31
   7  -4   2    7.47    0.31
   7  -4   2    7.39    0.33
  -8   4  -2    2.46    0.17
   8  -4   2    2.31    0.15
   8  -4   2    2.20    0.16
   8  -4   2    2.36    0.16
  -9   4  -2    6.26    0.31
   9  -4   2    5.83    0.28
   9  -4   2    5.86    0.30
 -10   4  -2    1.74    0.17
  10  -4   2    1.79    0.16
  10  -4   2    1.99    0.18
 -11   4  -2    6.83    0.35
  11  -4   2    5.94    0.31
  11  -4   2    5.98    0.33
  12  -4   2    2.58    0.21
  12  -4   2    2.16    0.19
  13  -4   2    1.81    0.21
  13  -4   2    1.39    0.17
  14  -4   2   10.63    0.52
  14  -4   2   10.22    0.49
  15  -4   2    0.55    0.14
  15  -4   2    0.33    0.12
  16  -4   2   13.99    0.63
  16  -4   2   14.10    0.69
  17  -4   2    1.20    0.23
  17  -4   2    1.05    0.19
  18  -4   2    9.41    0.56
  18  -4   2   10.13    0.54
  19  -4   2    1.99    0.27
  18   3  -2    0.17    0.14
  18   3  -2   -0.12    0.11
  17   3  -2    0.32    0.14
  17   3  -2    0.54    0.15
  16   3  -2    1.16    0.16
  16   3  -2    1.47    0.20
  15   3  -2    1.07    0.15
  15   3  -2    1.01    0.17
  15   3  -2    0.97    0.16
  14   3  -2    0.08    0.09
  14   3  -2    0.10    0.10
  14   3  -2    0.30    0.11
  13   3  -2    3.53    0.22
  13   3  -2    3.36    0.23
  13   3  -2    3.22    0.25
  12   3  -2    1.98    0.17
  12   3  -2    1.79    0.15
  12   3  -2    2.36    0.20
  11   3  -2    0.48    0.11
  11   3  -2    0.36    0.09
  11   3  -2    0.64    0.10
 -11  -3   2    0.46    0.10
  10   3  -2    1.73    0.14
  10   3  -2    1.76    0.14
 -10  -3   2    2.01    0.16
   9   3  -2    6.66    0.29
   9   3  -2    7.02    0.28
  -9  -3   2    6.78    0.31
   8   3  -2    9.36    0.36
   8   3  -2    9.85    0.38
  -8  -3   2   10.67    0.41
   7   3  -2    1.32    0.10
  -7  -3   2    1.18    0.11
   6   3  -2   25.26    0.88
   6   3  -2   24.88    0.81
  -6  -3   2   26.35    0.87
   5   3  -2    3.32    0.18
   5   3  -2    3.36    0.15
  -5  -3   2    3.06    0.17
   4   3  -2   20.37    0.72
   4   3  -2   21.36    0.66
  -4  -3   2   20.67    0.71
   3   3  -2   16.84    0.56
   3   3  -2   17.96    0.61
  -3  -3   2   18.45    0.61
   2   3  -2  155.35    4.79
  -2  -3   2  154.47    4.79
   1   3  -2   54.97    1.73
   1   3  -2   53.63    1.78
  -1  -3   2   55.69    1.73
   0   3  -2    6.19    0.24
   0  -3   2    6.25    0.24
   0  -3   2    6.15    0.24
  -1   3  -2   48.79    1.55
  -1   3  -2   50.11    1.60
  -1   3  -2   50.52    1.49
   1  -3   2   48.08    1.60
   1  -3   2   47.97    1.55
  -2   3  -2   59.94    1.83
  -2   3  -2   56.30    1.78
  -2   3  -2   57.16    1.71
   2  -3   2   53.96    1.83
   2  -3   2   54.68    1.71
   2  -3   2   56.25    1.77
  -3   3  -2    5.79    0.23
  -3   3  -2    5.81    0.22
   3  -3   2    6.09    0.23
   3  -3   2    5.35    0.23
  -4   3  -2    3.74    0.18
   4  -3   2    3.75    0.17
   4  -3   2    3.96    0.18
   4  -3   2    3.88    0.17
  -5   3  -2   61.10    1.98
   5  -3   2   64.62    1.98
   5  -3   2   61.82    1.91
  -6   3  -2   24.36    0.84
   6  -3   2   25.51    0.83
   6  -3   2   25.16    0.81
   6  -3   2   24.17    0.87
  -7   3  -2    9.92    0.41
   7  -3   2   10.22    0.41
   7  -3   2   10.54    0.39
   7  -3   2   10.06    0.39
  -8   3  -2    0.95    0.12
   8  -3   2    0.71    0.10
   8  -3   2    0.97    0.11
   8  -3   2    0.67    0.09
  -9   3  -2    5.03    0.26
   9  -3   2    4.49    0.24
   9  -3   2    4.52    0.23
   9  -3   2    4.70    0.26
 -10   3  -2    0.87    0.12
  10  -3   2    0.93    0.13
  10  -3   2    0.85    0.12
 -11   3  -2    7.12    0.36
  11  -3   2    7.17    0.34
  11  -3   2    6.75    0.36
  12  -3   2    7.83    0.38
  12  -3   2    8.54    0.42
  13  -3   2    3.44    0.26
  13  -3   2    3.28    0.24
  14  -3   2    1.07    0.16
  14  -3   2    1.09    0.18
  15  -3   2    9.49    0.47
  15  -3   2    9.54    0.51
  16  -3   2    0.69    0.16
  16  -3   2    0.80    0.18
  17  -3   2    3.31    0.30
  17  -3   2    3.91    0.35
  18  -3   2    0.13    0.13
  18  -3   2    0.03    0.12
  19  -3   2    2.29    0.29
  19   2  -2    0.56    0.17
  18   2  -2   -0.06    0.11
  18   2  -2    0.13    0.12
  17   2  -2    0.03    0.11
  17   2  -2   -0.01    0.13
  16   2  -2    1.54    0.20
  16   2  -2    1.23    0.18
  15   2  -2    0.32    0.10
  15   2  -2    0.43    0.13
  15   2  -2    0.57    0.13
  14   2  -2    0.39    0.11
  14   2  -2    0.24    0.10
  14   2  -2    0.56    0.12
  13   2  -2    3.54    0.22
  13   2  -2    3.64    0.26
  13   2  -2    3.52    0.23
  12   2  -2    1.23    0.13
  12   2  -2    1.31    0.14
  12   2  -2    1.38    0.17
 -12  -2   2    1.14    0.15
  11   2  -2   24.26    0.83
  11   2  -2   24.80    0.89
  11   2  -2   26.38    0.98
 -11  -2   2   25.16    0.90
  10   2  -2    4.48    0.22
  10   2  -2    4.87    0.23
  10   2  -2    4.79    0.26
 -10  -2   2    4.14    0.24
   9   2  -2    0.59    0.07
   9   2  -2    0.83    0.11
  -9  -2   2    0.61    0.09
   8   2  -2    3.38    0.16
   8   2  -2    3.42    0.17
  -8  -2   2    3.40    0.19
   7   2  -2   23.00    0.75
  -7  -2   2   24.32    0.81
   6   2  -2   17.43    0.63
   6   2  -2   17.30    0.56
  -6  -2   2   17.67    0.61
   5   2  -2    0.77    0.06
  -5  -2   2    0.46    0.07
   4   2  -2   53.63    1.63
   4   2  -2   53.88    1.72
  -4  -2   2   54.77    1.71
   3   2  -2   61.28    1.96
   3   2  -2   62.14    1.87
  -3  -2   2   63.89    1.96
   2   2  -2   38.19    1.20
  -2  -2   2   37.31    1.20
   1   2  -2   79.32    2.55
   1   2  -2   78.26    2.47
  -1  -2   2   80.93    2.47
   0   2  -2   58.34    1.88
   0  -2   2   58.36    1.81
   0  -2   2   58.00    1.88
  -1   2  -2  151.16    4.67
  -1   2  -2  153.24    4.81
  -1   2  -2  153.75    4.47
   1  -2   2  149.45    4.47
   1  -2   2  151.19    4.64
   1  -2   2  148.21    4.81
  -2   2  -2  507.38   15.82
  -2   2  -2  547.25   15.23
   2  -2   2  511.16   15.81
   2  -2   2  513.33   15.24
   2  -2   2  498.92   16.40
  -3   2  -2  134.13    4.28
  -3   2  -2  149.95    4.12
  -3   2  -2  137.03    4.72
   3  -2   2  137.59    4.28
   3  -2   2  135.12    4.44
   3  -2   2  139.76    4.13
  -4   2  -2    0.15    0.04
   4  -2   2    0.15    0.03
   4  -2   2    0.16    0.04
   4  -2   2    0.14    0.04
  -5   2  -2   35.94    1.15
   5  -2   2   34.83    1.19
   5  -2   2   36.50    1.28
   5  -2   2   34.93    1.14
   5  -2   2   35.40    1.11
  -6   2  -2    1.46    0.11
   6  -2   2    1.35    0.11
   6  -2   2    1.40    0.10
   6  -2   2    1.50    0.12
   6  -2   2    1.66    0.10
  -7   2  -2    3.50    0.18
   7  -2   2    3.00    0.17
   7  -2   2    3.28    0.17
   7  -2   2    2.98    0.20
   7  -2   2    3.85    0.20
  -8   2  -2    2.19    0.15
   8  -2   2    2.17    0.17
   8  -2   2    2.19    0.15
   8  -2   2    2.43    0.16
   8  -2   2    1.87    0.13
  -9   2  -2    3.56    0.21
   9  -2   2    3.73    0.21
   9  -2   2    3.61    0.23
   9  -2   2    3.54    0.22
   9  -2   2    3.64    0.20
 -10   2  -2   11.92    0.47
  10  -2   2   11.21    0.52
  10  -2   2   10.94    0.48
  10  -2   2   10.78    0.45
  10  -2   2   11.06    0.45
 -11   2  -2    2.03    0.18
  11  -2   2    1.84    0.19
  11  -2   2    2.54    0.19
  11  -2   2    2.12    0.18
  12  -2   2    1.98    0.20
  12  -2   2    1.94    0.19
  12  -2   2    1.97    0.18
  13  -2   2    1.40    0.19
  13  -2   2    1.75    0.22
  13  -2   2    1.48    0.17
  14  -2   2    2.33    0.22
  14  -2   2    2.17    0.24
  15  -2   2    0.03    0.09
  15  -2   2    0.29    0.13
  16  -2   2   -0.09    0.10
  16  -2   2    0.03    0.11
  17  -2   2   -0.05    0.12
  17  -2   2    0.02    0.11
  18  -2   2    0.53    0.19
  18  -2   2    0.44    0.16
  19  -2   2   -0.01    0.14
  19   1  -2    0.12    0.17
  19   1  -2    0.31    0.15
  18   1  -2   -0.13    0.11
  18   1  -2   -0.23    0.11
  17   1  -2   -0.01    0.11
  17   1  -2   -0.08    0.13
  16   1  -2    4.96    0.31
  16   1  -2    5.02    0.33
  15   1  -2    0.71    0.14
  15   1  -2    0.53    0.12
  15   1  -2    0.55    0.13
  14   1  -2    4.02    0.28
  14   1  -2    4.17    0.26
  14   1  -2    3.55    0.24
  13   1  -2    1.81    0.16
  13   1  -2    2.02    0.19
  13   1  -2    1.92    0.18
  12   1  -2   17.57    0.63
  12   1  -2   17.20    0.67
  12   1  -2   18.16    0.73
 -12  -1   2   18.57    0.69
  11   1  -2    4.98    0.28
  11   1  -2    5.32    0.25
  11   1  -2    5.41    0.26
 -11  -1   2    5.16    0.28
  10   1  -2    1.39    0.13
  10   1  -2    1.31    0.11
  10   1  -2    1.30    0.11
 -10  -1   2    1.55    0.14
   9   1  -2    0.03    0.04
   9   1  -2    0.09    0.04
   9   1  -2    0.04    0.04
  -9  -1   2    0.08    0.05
   8   1  -2    1.30    0.11
   8   1  -2    1.41    0.10
   8   1  -2    1.57    0.10
  -8  -1   2    1.38    0.12
   7   1  -2   12.04    0.41
   7   1  -2   12.16    0.47
  -7  -1   2   12.05    0.45
   6   1  -2   13.93    0.46
  -6  -1   2   14.05    0.50
   5   1  -2   13.45    0.49
   5   1  -2   14.52    0.45
  -5  -1   2   13.83    0.49
   4   1  -2    9.07    0.34
   4   1  -2    9.04    0.31
  -4  -1   2    9.80    0.34
   3   1  -2  208.31    6.18
   3   1  -2  199.22    5.96
  -3  -1   2  196.40    6.18
   2   1  -2  126.30    3.93
  -2  -1   2  129.02    3.93
   1   1  -2   61.89    2.03
  -1  -1   2   69.60    2.03
   0   1  -2   18.76    0.58
   0  -1   2   18.49    0.63
  -1   1  -2  166.07    5.35
  -1   1  -2  159.10    4.85
  -1   1  -2  158.82    5.02
   1  -1   2  157.11    4.84
   1  -1   2  152.72    5.03
   1  -1   2  153.32    4.67
  -2   1  -2    0.76    0.06
  -2   1  -2    0.65    0.05
   2  -1   2    0.51    0.06
   2  -1   2    0.75    0.05
   2  -1   2    0.62    0.06
  -3   1  -2  126.39    4.19
  -3   1  -2  111.61    3.65
  -3   1  -2  137.30    3.93
  -3   1  -2  122.78    3.79
   3  -1   2  121.21    4.19
   3  -1   2  122.88    3.79
   3  -1   2  122.84    3.93
   3  -1   2  120.31    3.66
  -4   1  -2    0.53    0.06
   4  -1   2    0.55    0.05
   4  -1   2    0.61    0.06
   4  -1   2    0.46    0.07
   4  -1   2    0.76    0.07
  -5   1  -2    4.07    0.17
   5  -1   2    3.70    0.17
   5  -1   2    3.46    0.18
   5  -1   2    4.08    0.20
   5  -1   2    4.10    0.17
  -6   1  -2    1.13    0.09
   6  -1   2    1.13    0.10
   6  -1   2    0.99    0.08
   6  -1   2    0.98    0.10
   6  -1   2    0.99    0.09
  -7   1  -2    6.85    0.28
   7  -1   2    6.42    0.27
   7  -1   2    6.74    0.29
   7  -1   2    6.58    0.32
   7  -1   2    6.48    0.27
  -8   1  -2   11.43    0.44
   8  -1   2   11.40    0.43
   8  -1   2   11.26    0.46
   8  -1   2   11.67    0.44
   8  -1   2   11.81    0.50
  -9   1  -2    0.39    0.07
   9  -1   2    0.46    0.08
   9  -1   2    0.37    0.08
   9  -1   2    0.16    0.06
   9  -1   2    0.48    0.10
 -10   1  -2    0.34    0.08
  10  -1   2    0.42    0.10
  10  -1   2    0.35    0.08
  10  -1   2    0.32    0.09
  10  -1   2    0.31    0.10
 -11   1  -2    2.36    0.19
  11  -1   2    2.77    0.20
  11  -1   2    2.56    0.20
  11  -1   2    2.78    0.22
  12  -1   2    4.40    0.30
  12  -1   2    3.72    0.24
  12  -1   2    4.35    0.28
  13  -1   2    4.87    0.33
  13  -1   2    4.69    0.29
  13  -1   2    4.76    0.31
  14  -1   2    1.29    0.18
  14  -1   2    1.39    0.20
  14  -1   2    1.45    0.21
  15  -1   2    0.75    0.15
  15  -1   2    0.91    0.18
  15  -1   2    0.63    0.15
  16  -1   2    0.18    0.13
  16  -1   2    0.54    0.15
  16  -1   2    0.53    0.16
  17  -1   2    6.64    0.44
  17  -1   2    6.60    0.41
  18  -1   2    0.38    0.15
  18  -1   2    0.39    0.16
  19  -1   2    3.73    0.34
  19   0  -2    1.37    0.22
  19   0  -2    1.14    0.26
  18   0  -2    0.03    0.12
  18   0  -2    0.02    0.12
  17   0  -2    2.07    0.25
  17   0  -2    2.04    0.22
  16   0  -2    0.47    0.13
  16   0  -2    0.59    0.15
  15   0  -2    0.86    0.14
  15   0  -2    0.60    0.14
  14   0  -2    2.80    0.22
  14   0  -2    2.61    0.20
  14   0  -2    2.46    0.19
  13   0  -2    3.01    0.20
  13   0  -2    3.11    0.23
  13   0  -2    3.58    0.23
 -13   0   2    3.23    0.24
  12   0  -2    2.45    0.20
  12   0  -2    2.73    0.19
  12   0  -2    2.62    0.17
 -12   0   2    2.29    0.19
  11   0  -2    2.26    0.15
  11   0  -2    2.58    0.18
  11   0  -2    2.38    0.18
 -11   0   2    2.35    0.19
  10   0  -2    0.33    0.07
  10   0  -2    0.24    0.07
  10   0  -2    0.42    0.08
 -10   0   2    0.36    0.08
   9   0  -2   13.61    0.50
   9   0  -2   13.36    0.46
   9   0  -2   13.20    0.54
  -9   0   2   13.51    0.52
   8   0  -2    1.95    0.11
   8   0  -2    2.30    0.13
   8   0  -2    1.61    0.12
  -8   0   2    1.97    0.14
   7   0  -2   20.49    0.75
   7   0  -2   19.53    0.70
   7   0  -2   20.31    0.65
  -7   0   2   21.18    0.71
   6   0  -2   22.59    0.82
   6   0  -2   23.54    0.72
  -6   0   2   23.22    0.78
   5   0  -2   22.89    0.82
   5   0  -2   23.31    0.72
   5   0  -2   22.70    0.77
  -5   0   2   24.33    0.77
   4   0  -2    0.87    0.06
   4   0  -2    1.06    0.07
  -4   0   2    0.84    0.07
   3   0  -2  149.81    4.45
   3   0  -2  148.93    4.64
  -3   0   2  154.03    4.65
   2   0  -2   42.04    1.32
  -2   0   2   42.46    1.31
   1   0  -2   78.33    2.57
  -1   0   2   73.68    2.34
   0   0  -2  147.43    5.01
   0   0  -2  145.59    4.72
   0   0  -2  147.64    4.37
   0   0   2  152.23    5.03
   0   0   2  150.53    4.38
   0   0   2  146.18    4.71
  -1   0  -2   33.33    0.99
  -1   0  -2   31.58    1.13
  -1   0  -2   32.83    1.06
   1   0   2   32.34    1.13
   1   0   2   33.54    1.00
   1   0   2   32.08    1.07
  -2   0  -2  163.58    4.94
  -2   0  -2  150.57    4.75
  -2   0  -2  163.10    4.58
   2   0   2  156.95    4.75
   2   0   2  145.06    5.24
   2   0   2  149.76    4.93
  -3   0  -2  251.87    6.97
  -3   0  -2  233.02    7.26
  -3   0  -2  253.86    7.51
   3   0   2  224.77    8.00
   3   0   2  232.50    6.97
   3   0   2  229.45    7.54
   3   0   2  226.32    7.25
  -4   0  -2   14.50    0.48
   4   0   2   14.97    0.51
   4   0   2   14.42    0.48
   4   0   2   14.74    0.48
   4   0   2   13.62    0.55
  -5   0  -2   80.25    2.47
   5   0   2   79.16    2.48
   5   0   2   76.52    2.57
   5   0   2   80.84    2.75
   5   0   2   80.65    2.40
  -6   0  -2   14.20    0.48
   6   0   2   13.12    0.47
   6   0   2   13.52    0.55
   6   0   2   13.62    0.48
   6   0   2   13.04    0.50
  -7   0  -2   28.70    0.92
   7   0   2   28.56    0.92
   7   0   2   26.40    0.89
   7   0   2   26.33    0.95
   7   0   2   27.95    1.03
  -8   0  -2    3.01    0.17
   8   0   2    2.87    0.17
   8   0   2    2.63    0.18
   8   0   2    3.50    0.18
   8   0   2    3.25    0.21
  -9   0  -2   17.15    0.61
   9   0   2   16.36    0.69
   9   0   2   16.74    0.61
   9   0   2   16.18    0.60
   9   0   2   17.04    0.64
 -10   0  -2    0.55    0.09
  10   0   2    0.73    0.11
  10   0   2    0.68    0.11
  10   0   2    1.07    0.13
  10   0   2    0.89    0.13
  11   0   2    8.61    0.38
  11   0   2    8.10    0.43
  11   0   2    9.01    0.41
  12   0   2    5.52    0.32
  12   0   2    5.93    0.35
  12   0   2    5.56    0.31
  13   0   2    5.23    0.32
  13   0   2    4.59    0.33
  13   0   2    4.94    0.29
  14   0   2    6.70    0.37
  14   0   2    6.84    0.40
  14   0   2    7.64    0.44
  15   0   2    0.04    0.10
  15   0   2    0.05    0.08
  15   0   2   -0.01    0.09
  16   0   2   13.51    0.61
  16   0   2   12.97    0.64
  16   0   2   12.93    0.67
  17   0   2   -0.05    0.12
  17   0   2    0.01    0.13
  17   0   2    0.06    0.12
  18   0   2   10.07    0.54
  18   0   2    9.22    0.55
  19  -1  -2    0.40    0.15
  18  -1  -2    1.33    0.21
  18  -1  -2    0.92    0.17
  17  -1  -2    0.10    0.11
  17  -1  -2    0.23    0.13
  16  -1  -2    1.52    0.20
  16  -1  -2    1.47    0.19
  15  -1  -2    0.43    0.11
  15  -1  -2    0.59    0.14
  14  -1  -2    0.66    0.12
  14  -1  -2    0.91    0.15
  13  -1  -2    1.90    0.16
  13  -1  -2    2.42    0.19
 -13   1   2    1.96    0.21
  12  -1  -2    0.45    0.09
  12  -1  -2    0.39    0.08
  12  -1  -2    0.30    0.09
 -12   1   2    0.30    0.10
  11  -1  -2   14.62    0.56
  11  -1  -2   14.21    0.59
  11  -1  -2   13.88    0.51
 -11   1   2   14.60    0.58
  10  -1  -2    0.41    0.08
  10  -1  -2    0.30    0.07
  10  -1  -2    0.32    0.06
 -10   1   2    0.42    0.09
   9  -1  -2    1.43    0.12
   9  -1  -2    1.58    0.11
   9  -1  -2    1.72    0.12
  -9   1   2    1.63    0.14
   8  -1  -2   27.32    0.86
   8  -1  -2   27.51    0.99
   8  -1  -2   26.09    0.92
  -8   1   2   27.98    0.93
   7  -1  -2    7.89    0.30
   7  -1  -2    7.57    0.27
   7  -1  -2    7.55    0.32
  -7   1   2    7.99    0.32
   6  -1  -2    1.04    0.08
   6  -1  -2    1.21    0.07
  -6   1   2    1.23    0.10
   5  -1  -2   22.66    0.68
  -5   1   2   21.60    0.69
  -5   1   2   22.58    0.74
   4  -1  -2   25.18    0.86
   4  -1  -2   27.75    0.81
  -4   1   2   25.98    0.81
  -4   1   2   27.75    0.87
   3  -1  -2   99.98    3.06
   3  -1  -2   99.88    3.07
  -3   1   2  100.48    3.35
  -3   1   2   97.54    3.07
   2  -1  -2    2.28    0.10
  -2   1   2    2.26    0.10
   1  -1  -2   64.24    2.13
   1  -1  -2   71.02    2.05
  -1   1   2   72.55    2.13
   0  -1  -2   24.90    0.78
   0  -1  -2   24.57    0.82
   0  -1  -2   26.05    0.76
   0  -1  -2   23.56    0.77
   0   1   2   24.90    0.82
   0   1   2   26.04    0.76
   0   1   2   25.49    0.78
  -1  -1  -2  104.11    3.05
  -1  -1  -2   99.95    3.16
  -1  -1  -2  107.45    3.28
  -1  -1  -2  103.68    3.16
   1   1   2  101.69    3.05
   1   1   2  103.40    3.16
   1   1   2  102.93    3.16
   1   1   2  101.78    3.29
  -2  -1  -2   26.81    0.86
  -2  -1  -2   30.17    0.91
  -2  -1  -2   28.28    0.84
   2   1   2   27.16    0.87
   2   1   2   27.28    0.85
   2   1   2   27.01    0.91
  -3  -1  -2    0.69    0.05
   3   1   2    0.61    0.05
   3   1   2    0.94    0.06
  -4  -1  -2    2.21    0.10
   4   1   2    2.07    0.12
   4   1   2    2.24    0.11
   4   1   2    2.43    0.11
  -5  -1  -2    2.50    0.12
   5   1   2    2.49    0.15
   5   1   2    2.58    0.13
   5   1   2    1.75    0.12
   5   1   2    2.02    0.12
  -6  -1  -2    3.37    0.16
   6   1   2    3.25    0.16
   6   1   2    3.76    0.18
   6   1   2    3.29    0.20
   6   1   2    3.49    0.17
  -7  -1  -2    0.12    0.04
   7   1   2    0.05    0.04
   7   1   2    0.13    0.04
   7   1   2    0.12    0.06
   7   1   2    0.19    0.05
  -8  -1  -2    1.16    0.10
   8   1   2    1.15    0.11
   8   1   2    0.77    0.12
   8   1   2    1.51    0.12
  -9  -1  -2   10.68    0.41
   9   1   2   10.23    0.41
   9   1   2   10.97    0.44
   9   1   2   11.12    0.49
   9   1   2    9.53    0.43
 -10  -1  -2    4.33    0.23
  10   1   2    3.89    0.24
  10   1   2    4.83    0.25
  10   1   2    4.71    0.25
  10   1   2    3.63    0.26
  11   1   2    8.94    0.40
  11   1   2    8.70    0.42
  11   1   2    9.25    0.46
  12   1   2    7.79    0.43
  12   1   2    7.89    0.37
  12   1   2    7.23    0.38
  13   1   2    7.54    0.43
  13   1   2    7.24    0.37
  13   1   2    7.14    0.39
  14   1   2    1.07    0.17
  14   1   2    1.03    0.18
  14   1   2    0.97    0.16
  15   1   2    5.53    0.36
  15   1   2    5.31    0.38
  15   1   2    5.97    0.35
  16   1   2    0.12    0.12
  16   1   2   -0.12    0.08
  16   1   2    0.10    0.11
  17   1   2    2.84    0.30
  17   1   2    1.89    0.24
  17   1   2    1.68    0.24
  18   1   2    1.20    0.23
  18   1   2    1.17    0.22
  18   1   2    1.07    0.22
  19  -2  -2    1.75    0.24
  18  -2  -2    1.21    0.21
  18  -2  -2    1.44    0.20
  17  -2  -2    0.27    0.12
  17  -2  -2    0.24    0.12
  16  -2  -2    0.23    0.10
  16  -2  -2    0.16    0.12
  15  -2  -2    0.01    0.08
  15  -2  -2    0.05    0.10
  14  -2  -2    0.39    0.10
  14  -2  -2    0.46    0.12
  13  -2  -2    9.70    0.41
  13  -2  -2   10.23    0.45
 -13   2   2    9.99    0.48
  12  -2  -2    1.75    0.16
  12  -2  -2    1.41    0.13
  11  -2  -2   32.34    1.14
  11  -2  -2   31.74    1.05
 -11   2   2   34.17    1.16
  10  -2  -2    6.80    0.28
  10  -2  -2    6.77    0.30
 -10   2   2    6.82    0.33
   9  -2  -2   39.64    1.32
   9  -2  -2   39.59    1.22
  -9   2   2   38.57    1.32
   8  -2  -2    3.59    0.18
   8  -2  -2    3.33    0.16
  -8   2   2    3.49    0.20
   7  -2  -2   24.35    0.86
   7  -2  -2   25.89    0.79
  -7   2   2   25.82    0.87
   6  -2  -2   13.31    0.43
   6  -2  -2   12.87    0.47
  -6   2   2   13.80    0.49
  -6   2   2   13.40    0.49
   5  -2  -2    4.43    0.16
  -5   2   2    4.62    0.18
  -5   2   2    4.33    0.20
  -5   2   2    4.13    0.16
   4  -2  -2    5.33    0.16
  -4   2   2    4.39    0.17
  -4   2   2    4.67    0.20
   3  -2  -2    2.43    0.08
  -3   2   2    2.14    0.12
   2  -2  -2  170.18    4.86
   2  -2  -2  158.27    5.07
  -2   2   2  167.91    5.09
   1  -2  -2  118.01    3.34
  -1   2   2  106.98    3.49
  -1   2   2  115.06    3.34
   0  -2  -2   82.31    2.29
   0  -2  -2   76.10    2.47
   0  -2  -2   75.85    2.39
   0  -2  -2   74.47    2.38
   0   2   2   76.23    2.39
   0   2   2   79.52    2.29
  -1  -2  -2   32.38    0.89
  -1  -2  -2   29.31    0.93
  -1  -2  -2   28.85    0.93
  -1  -2  -2   30.70    0.96
   1   2   2   28.41    0.96
   1   2   2   30.13    0.90
   1   2   2   28.94    0.94
   1   2   2   28.70    0.94
  -2  -2  -2  269.02    8.94
  -2  -2  -2  272.18    8.29
  -2  -2  -2  285.53    8.00
   2   2   2  262.51    8.28
   2   2   2  270.64    7.99
   2   2   2  262.56    8.59
  -3  -2  -2    3.60    0.15
  -3  -2  -2    4.42    0.15
   3   2   2    3.70    0.16
   3   2   2    3.53    0.15
   3   2   2    3.54    0.16
  -4  -2  -2    8.64    0.28
  -4  -2  -2    7.50    0.27
   4   2   2    7.84    0.29
   4   2   2    6.94    0.29
   4   2   2    7.36    0.28
  -5  -2  -2    0.86    0.07
   5   2   2    0.92    0.09
  -6  -2  -2   37.86    1.19
   6   2   2   36.50    1.16
   6   2   2   35.86    1.23
   6   2   2   37.28    1.21
  -7  -2  -2    0.72    0.08
   7   2   2    0.90    0.09
   7   2   2    0.49    0.09
   7   2   2    0.66    0.09
   7   2   2    0.78    0.09
  -8  -2  -2   19.07    0.66
   8   2   2   19.89    0.69
   8   2   2   17.68    0.69
   8   2   2   19.78    0.66
   8   2   2   18.45    0.76
  -9  -2  -2    3.44    0.19
   9   2   2    3.57    0.24
   9   2   2    3.57    0.21
   9   2   2    3.79    0.22
   9   2   2    3.58    0.20
 -10  -2  -2   15.44    0.58
  10   2   2   16.19    0.68
  10   2   2   15.76    0.57
  10   2   2   13.93    0.60
  11   2   2    0.49    0.11
  11   2   2    0.60    0.13
  11   2   2    0.44    0.10
  12   2   2    0.47    0.11
  12   2   2    0.55    0.13
  12   2   2    0.37    0.11
  13   2   2    1.99    0.22
  13   2   2    1.68    0.20
  13   2   2    1.78    0.20
  14   2   2    0.25    0.12
  14   2   2    0.39    0.12
  14   2   2    0.48    0.13
  15   2   2    0.00    0.10
  15   2   2    0.15    0.11
  15   2   2   -0.02    0.09
  16   2   2    0.03    0.11
  16   2   2   -0.06    0.08
  16   2   2   -0.14    0.10
  17   2   2    0.15    0.15
  17   2   2    0.48    0.16
  17   2   2    0.25    0.13
  18   2   2    0.11    0.14
  18   2   2    0.06    0.13
  18   2   2    0.08    0.12
  18  -3  -2   -0.10    0.10
  18  -3  -2   -0.14    0.13
  17  -3  -2    0.23    0.13
  17  -3  -2    0.13    0.10
  16  -3  -2    1.07    0.16
  16  -3  -2    0.85    0.17
  15  -3  -2    1.76    0.21
  15  -3  -2    1.92    0.18
  14  -3  -2    4.24    0.25
  14  -3  -2    4.38    0.29
  13  -3  -2    1.21    0.15
  13  -3  -2    1.23    0.14
 -13   3   2    1.79    0.21
  12  -3  -2    2.64    0.20
  12  -3  -2    2.60    0.17
 -12   3   2    2.42    0.22
  11  -3  -2    3.23    0.21
  11  -3  -2    3.11    0.19
 -11   3   2    2.56    0.22
  10  -3  -2   32.78    1.12
  10  -3  -2   31.86    1.04
 -10   3   2   32.73    1.14
   9  -3  -2    8.76    0.33
   9  -3  -2    9.10    0.37
  -9   3   2    9.46    0.41
   8  -3  -2   25.52    0.89
   8  -3  -2   25.46    0.82
  -8   3   2   26.36    0.91
   7  -3  -2    7.92    0.29
   7  -3  -2    8.16    0.32
  -7   3   2    8.63    0.33
  -7   3   2    8.06    0.35
   6  -3  -2    1.02    0.07
  -6   3   2    0.86    0.08
  -6   3   2    1.01    0.06
  -6   3   2    1.06    0.11
   5  -3  -2    1.15    0.06
   5  -3  -2    1.55    0.09
  -5   3   2    1.30    0.07
   4  -3  -2    0.51    0.04
   4  -3  -2    0.58    0.05
  -4   3   2    0.60    0.04
  -4   3   2    0.52    0.07
  -3   3   2   18.09    0.61
  -2   3   2   77.43    2.42
   1  -3  -2  127.52    3.84
  -1   3   2  131.41    4.03
  -1   3   2  132.84    3.84
   0  -3  -2   10.22    0.35
   0  -3  -2   10.24    0.32
   0  -3  -2   10.28    0.36
   0   3   2   10.61    0.37
   0   3   2   10.25    0.32
  -1  -3  -2  183.43    5.58
  -1  -3  -2  178.29    5.21
  -1  -3  -2  177.98    5.42
   1   3   2  170.13    5.43
   1   3   2  173.18    5.58
   1   3   2  174.96    5.21
  -2  -3  -2   58.16    1.71
  -2  -3  -2   51.89    1.68
  -2  -3  -2   54.68    1.61
   2   3   2   53.70    1.61
   2   3   2   51.93    1.73
   2   3   2   52.00    1.70
  -3  -3  -2   94.48    2.96
  -3  -3  -2  102.60    3.04
   3   3   2   95.33    2.98
   3   3   2   93.11    3.06
   3   3   2   92.93    2.85
  -4  -3  -2   12.43    0.46
  -4  -3  -2   14.46    0.45
   4   3   2   13.41    0.47
   4   3   2   13.41    0.45
   4   3   2   13.14    0.48
  -5  -3  -2  103.45    3.20
   5   3   2  104.69    3.23
   5   3   2  102.31    3.08
   5   3   2  101.54    3.31
  -6  -3  -2    4.09    0.19
   6   3   2    4.08    0.19
   6   3   2    4.03    0.21
   6   3   2    4.43    0.20
  -7  -3  -2   32.03    1.02
   7   3   2   29.96    1.06
   7   3   2   31.69    1.06
   7   3   2   30.30    0.99
  -8  -3  -2   15.20    0.54
   8   3   2   14.76    0.54
   8   3   2   15.37    0.58
   8   3   2   14.46    0.56
  -9  -3  -2    9.39    0.37
   9   3   2    8.40    0.38
   9   3   2    9.00    0.40
   9   3   2    8.87    0.44
   9   3   2    8.71    0.37
  10   3   2    8.15    0.35
  10   3   2    7.39    0.36
  10   3   2    7.70    0.41
  11   3   2    0.57    0.11
  11   3   2    0.93    0.16
  11   3   2    1.08    0.14
  12   3   2    2.39    0.23
  12   3   2    2.00    0.19
  12   3   2    1.85    0.19
  13   3   2    1.38    0.18
  13   3   2    1.40    0.18
  13   3   2    1.65    0.22
  14   3   2    0.05    0.09
  14   3   2    0.30    0.13
  14   3   2    0.19    0.10
  15   3   2    2.98    0.27
  15   3   2    2.78    0.28
  15   3   2    2.97    0.27
  16   3   2    1.14    0.20
  16   3   2    0.72    0.17
  16   3   2    0.79    0.19
  17   3   2    2.08    0.27
  17   3   2    1.88    0.24
  17   3   2    1.85    0.27
  18   3   2    0.01    0.13
  18   3   2   -0.09    0.14
  18   3   2   -0.14    0.12
  18  -4  -2    0.17    0.15
  17  -4  -2    1.64    0.22
  16  -4  -2    0.99    0.16
  16  -4  -2    1.31    0.20
  15  -4  -2    0.63    0.12
  15  -4  -2    0.45    0.13
  14  -4  -2    2.13    0.18
  14  -4  -2    2.17    0.21
  13  -4  -2    0.38    0.10
  13  -4  -2    0.37    0.09
 -13   4   2    0.48    0.13
  12  -4  -2    0.79    0.11
  12  -4  -2    0.98    0.14
 -12   4   2    0.81    0.15
  11  -4  -2   10.52    0.42
  11  -4  -2   11.47    0.47
 -11   4   2   11.04    0.50
  10  -4  -2    1.56    0.13
  10  -4  -2    1.71    0.14
 -10   4   2    1.64    0.18
   9  -4  -2    1.99    0.15
   9  -4  -2    1.72    0.12
  -9   4   2    1.75    0.17
   8  -4  -2    0.58    0.08
   8  -4  -2    0.57    0.07
  -8   4   2    0.69    0.11
   7  -4  -2    1.36    0.10
   7  -4  -2    1.05    0.08
  -7   4   2    0.82    0.11
   6  -4  -2   16.79    0.53
   6  -4  -2   16.43    0.58
  -6   4   2   16.07    0.51
  -6   4   2   16.96    0.61
   5  -4  -2    3.45    0.15
   5  -4  -2    3.58    0.13
  -5   4   2    3.38    0.19
  -5   4   2    3.35    0.12
   4  -4  -2    4.67    0.19
   4  -4  -2    4.77    0.16
  -4   4   2    4.91    0.23
   3  -4  -2   34.07    1.11
  -3   4   2   34.57    1.13
   2  -4  -2   40.88    1.29
  -2   4   2   39.73    1.30
  -1   4   2   58.06    1.86
  -1   4   2   59.07    1.73
   0  -4  -2  183.97    5.59
   0  -4  -2  179.53    5.73
   0  -4  -2  178.61    5.34
   0   4   2  183.33    5.35
   0   4   2  180.66    5.60
  -1  -4  -2    8.03    0.27
  -1  -4  -2    8.47    0.31
   1   4   2    7.69    0.27
   1   4   2    7.95    0.32
  -2  -4  -2   65.95    2.06
  -2  -4  -2   67.23    2.08
   2   4   2   65.24    2.08
   2   4   2   64.66    1.96
   2   4   2   64.96    2.10
  -3  -4  -2    0.51    0.06
   3   4   2    0.44    0.05
   3   4   2    0.36    0.05
   3   4   2    0.42    0.07
  -4  -4  -2   33.00    1.09
   4   4   2   34.25    1.13
   4   4   2   33.73    1.05
   4   4   2   34.54    1.12
  -5  -4  -2    1.35    0.10
   5   4   2    1.54    0.10
   5   4   2    1.46    0.12
   5   4   2    1.64    0.11
  -6  -4  -2   27.16    0.93
   6   4   2   27.31    0.90
   6   4   2   28.48    0.97
   6   4   2   29.49    0.96
  -7  -4  -2   20.21    0.68
   7   4   2   19.19    0.70
   7   4   2   20.01    0.67
   7   4   2   19.52    0.72
  -8  -4  -2    0.83    0.10
   8   4   2    1.15    0.12
   8   4   2    0.89    0.11
   8   4   2    1.13    0.14
   9   4   2   23.81    0.79
   9   4   2   21.98    0.83
  10   4   2    4.09    0.29
  10   4   2    4.44    0.25
  10   4   2    3.80    0.24
  11   4   2   12.34    0.58
  11   4   2   11.95    0.49
  11   4   2   11.10    0.50
  12   4   2    5.56    0.31
  12   4   2    5.83    0.36
  12   4   2    5.12    0.31
  13   4   2    8.48    0.43
  13   4   2    9.35    0.43
  13   4   2    8.21    0.48
  14   4   2    5.07    0.34
  14   4   2    5.80    0.40
  14   4   2    6.15    0.35
  15   4   2    0.14    0.11
  15   4   2    0.05    0.10
  15   4   2    0.07    0.13
  16   4   2   11.32    0.56
  16   4   2   12.15    0.65
  16   4   2   10.54    0.57
  17   4   2    0.11    0.13
  17   4   2    0.30    0.15
  17   4   2    0.17    0.13
  18   4   2    2.19    0.29
  18   4   2    2.21    0.31
  18  -5  -2    1.78    0.25
  17  -5  -2    0.90    0.19
  16  -5  -2    0.20    0.12
  15  -5  -2    0.14    0.08
  15  -5  -2    0.17    0.10
  14  -5  -2    0.05    0.10
  14  -5  -2    0.22    0.09
  13  -5  -2    0.66    0.13
  13  -5  -2    0.32    0.09
 -13   5   2    0.40    0.13
  12  -5  -2   15.59    0.59
  12  -5  -2   16.74    0.65
 -12   5   2   15.81    0.69
  11  -5  -2    4.24    0.23
  11  -5  -2    4.96    0.27
 -11   5   2    4.33    0.30
  10  -5  -2    0.02    0.05
  10  -5  -2    0.10    0.08
 -10   5   2    0.12    0.09
   9  -5  -2    0.36    0.07
   9  -5  -2    0.51    0.09
  -9   5   2    0.40    0.11
   8  -5  -2    2.55    0.16
   8  -5  -2    2.61    0.14
  -8   5   2    2.71    0.20
   7  -5  -2    0.86    0.09
   7  -5  -2    0.73    0.07
  -7   5   2    0.62    0.11
  -7   5   2    0.68    0.06
   6  -5  -2    1.18    0.09
   6  -5  -2    1.32    0.08
  -6   5   2    1.21    0.06
  -6   5   2    1.29    0.12
   5  -5  -2   20.73    0.69
   5  -5  -2   20.17    0.62
  -5   5   2   19.78    0.61
  -5   5   2   20.89    0.74
   4  -5  -2    2.19    0.11
  -4   5   2    2.06    0.15
   3  -5  -2    0.47    0.05
  -3   5   2    0.32    0.07
   2  -5  -2    0.51    0.04
  -2   5   2    0.42    0.07
   1  -5  -2   89.55    2.72
  -1   5   2   85.86    2.52
  -1   5   2   81.18    2.70
   0  -5  -2    4.69    0.22
   0   5   2    4.90    0.16
   0   5   2    4.42    0.23
  -1  -5  -2   17.79    0.57
  -1  -5  -2   17.92    0.63
   1   5   2   18.89    0.65
   1   5   2   17.92    0.56
  -2  -5  -2    5.58    0.24
   2   5   2    5.50    0.21
  -3  -5  -2    3.04    0.17
   3   5   2    2.91    0.19
   3   5   2    3.58    0.15
   3   5   2    3.30    0.14
  -4  -5  -2   18.33    0.64
   4   5   2   18.20    0.68
   4   5   2   19.05    0.61
   4   5   2   19.03    0.63
  -5  -5  -2   28.74    1.00
   5   5   2   30.64    1.05
   5   5   2   31.40    1.01
   5   5   2   30.41    0.96
  -6  -5  -2    1.36    0.11
   6   5   2    1.34    0.15
   6   5   2    1.47    0.11
   6   5   2    1.56    0.11
  -7  -5  -2    0.45    0.07
   7   5   2    0.37    0.09
   7   5   2    0.39    0.08
   7   5   2    0.28    0.06
  -8  -5  -2    0.80    0.10
   8   5   2    0.65    0.12
   8   5   2    1.02    0.11
   8   5   2    0.89    0.11
   9   5   2   17.20    0.60
   9   5   2   15.30    0.61
  10   5   2    7.19    0.34
  10   5   2    6.88    0.34
  11   5   2    4.86    0.30
  11   5   2    5.49    0.30
  11   5   2    5.98    0.37
  12   5   2    0.66    0.13
  12   5   2    0.63    0.13
  12   5   2    0.41    0.14
  13   5   2    7.29    0.39
  13   5   2    7.29    0.38
  13   5   2    7.38    0.45
  14   5   2    1.71    0.21
  14   5   2    1.80    0.25
  14   5   2    1.71    0.21
  15   5   2   11.46    0.58
  15   5   2   12.15    0.57
  15   5   2   11.93    0.65
  16   5   2    0.15    0.13
  16   5   2    0.40    0.16
  16   5   2    0.12    0.13
  17   5   2    3.76    0.33
  17   5   2    3.62    0.36
  18   5   2    0.52    0.19
  18  -6  -2    1.61    0.25
  17  -6  -2    0.00    0.13
  16  -6  -2    0.12    0.12
  15  -6  -2    0.02    0.10
  14  -6  -2    0.70    0.14
  13  -6  -2    8.83    0.39
  13  -6  -2    9.45    0.45
 -13   6   2    8.93    0.49
  12  -6  -2    1.07    0.13
  12  -6  -2    1.59    0.17
 -12   6   2    1.42    0.20
  11  -6  -2   16.07    0.59
  11  -6  -2   16.87    0.65
 -11   6   2   16.85    0.71
  10  -6  -2    4.26    0.23
  10  -6  -2    3.60    0.20
 -10   6   2    4.05    0.29
   9  -6  -2   52.39    1.64
   9  -6  -2   52.62    1.78
  -9   6   2   54.63    1.81
   8  -6  -2    3.30    0.18
   8  -6  -2    2.91    0.15
  -8   6   2    2.90    0.23
   7  -6  -2   25.47    0.88
   7  -6  -2   25.20    0.79
  -7   6   2   25.19    0.93
  -7   6   2   25.53    0.77
   6  -6  -2    3.36    0.14
   6  -6  -2    3.87    0.18
  -6   6   2    3.54    0.12
  -6   6   2    3.46    0.23
   5  -6  -2   16.96    0.60
  -5   6   2   17.33    0.65
   4  -6  -2    0.64    0.06
  -4   6   2    0.58    0.10
   3  -6  -2   12.32    0.42
  -3   6   2   11.96    0.48
   2  -6  -2    0.35    0.04
  -2   6   2    0.33    0.07
  -2   6   2    0.34    0.02
   1  -6  -2    8.32    0.28
  -1   6   2    8.59    0.27
  -1   6   2    8.13    0.36
   0  -6  -2   49.79    1.60
   0   6   2   47.92    1.46
   0   6   2   48.62    1.60
  -1  -6  -2   24.05    0.84
   1   6   2   23.94    0.85
   1   6   2   24.79    0.75
  -2  -6  -2   56.73    1.81
   2   6   2   55.86    1.70
  -3  -6  -2   29.08    0.97
   3   6   2   27.83    0.90
   3   6   2   29.46    1.01
  -4  -6  -2    3.91    0.20
   4   6   2    4.02    0.17
   4   6   2    3.62    0.23
   4   6   2    3.38    0.16
  -5  -6  -2    0.38    0.07
   5   6   2    0.31    0.08
   5   6   2    0.42    0.06
   5   6   2    0.49    0.07
  -6  -6  -2   11.64    0.43
   6   6   2   10.02    0.41
   6   6   2   11.49    0.41
   6   6   2   10.81    0.47
  -7  -6  -2    0.58    0.09
   7   6   2    0.68    0.13
   7   6   2    1.07    0.10
   8   6   2   29.07    0.95
   8   6   2   27.84    0.99
   9   6   2    0.38    0.08
   9   6   2    0.40    0.09
  10   6   2    0.40    0.10
  10   6   2    0.42    0.10
  11   6   2    0.70    0.13
  11   6   2    0.72    0.13
  12   6   2    1.25    0.16
  12   6   2    1.24    0.17
  12   6   2    1.16    0.21
  13   6   2    4.54    0.37
  13   6   2    5.57    0.32
  13   6   2    5.07    0.31
  14   6   2    1.13    0.17
  14   6   2    0.95    0.20
  14   6   2    0.96    0.18
  15   6   2    4.18    0.37
  15   6   2    4.51    0.34
  16   6   2    5.65    0.38
  16   6   2    4.90    0.42
  17   6   2    0.29    0.17
  18  -7  -2    0.09    0.14
  17  -7  -2    1.78    0.25
  16  -7  -2    1.65    0.22
  15  -7  -2    2.37    0.25
  14  -7  -2    2.29    0.24
  13  -7  -2    4.32    0.29
 -13   7   2    4.00    0.34
  12  -7  -2   17.43    0.70
 -12   7   2   16.92    0.76
  11  -7  -2    2.36    0.20
 -11   7   2    2.47    0.27
  10  -7  -2    8.71    0.39
  10  -7  -2    8.12    0.33
 -10   7   2    8.46    0.45
   9  -7  -2   12.18    0.49
   9  -7  -2   11.54    0.43
  -9   7   2   12.99    0.57
   8  -7  -2   23.12    0.76
   8  -7  -2   25.24    0.86
  -8   7   2   24.03    0.92
   7  -7  -2    5.88    0.27
  -7   7   2    5.60    0.33
  -7   7   2    6.28    0.20
   6  -7  -2    2.76    0.15
  -6   7   2    2.56    0.21
   5  -7  -2    0.76    0.08
  -5   7   2    0.46    0.10
   4  -7  -2    0.06    0.03
  -4   7   2    0.04    0.06
   3  -7  -2    3.98    0.17
  -3   7   2    3.87    0.24
   2  -7  -2   50.75    1.70
  -2   7   2   56.28    1.57
  -2   7   2   51.53    1.75
  -1   7   2    9.96    0.44
  -1   7   2   10.95    0.34
   0  -7  -2    1.94    0.15
   0   7   2    1.85    0.16
   0   7   2    1.91    0.09
  -1  -7  -2   49.83    1.65
   1   7   2   50.19    1.67
   1   7   2   51.05    1.52
  -2  -7  -2    1.16    0.13
   2   7   2    0.95    0.08
  -3  -7  -2   33.63    1.10
   3   7   2   31.08    1.01
  -4  -7  -2    0.53    0.09
   4   7   2    0.47    0.10
   4   7   2    0.54    0.05
   4   7   2    0.60    0.07
  -5  -7  -2   13.65    0.51
   5   7   2   12.59    0.47
   5   7   2   13.65    0.47
   5   7   2   13.28    0.56
   6   7   2    4.22    0.21
   6   7   2    4.08    0.27
   6   7   2    4.02    0.19
   7   7   2   15.33    0.53
   7   7   2   13.68    0.53
   8   7   2    1.18    0.12
   8   7   2    1.45    0.14
   9   7   2    0.61    0.11
   9   7   2    0.59    0.10
  10   7   2    2.10    0.19
  10   7   2    1.97    0.17
  11   7   2    0.32    0.10
  11   7   2    0.22    0.10
  12   7   2    0.17    0.10
  13   7   2    1.44    0.24
  13   7   2    1.28    0.19
  14   7   2    1.54    0.26
  14   7   2    1.38    0.20
  15   7   2   -0.12    0.12
  15   7   2   -0.12    0.11
  16   7   2    0.30    0.17
  16   7   2    0.55    0.16
  17  -8  -2    3.32    0.32
  16  -8  -2    0.21    0.13
  15  -8  -2    0.36    0.14
  14  -8  -2    0.64    0.15
  13  -8  -2    4.67    0.31
 -13   8   2    4.67    0.37
  12  -8  -2    0.47    0.12
 -12   8   2    0.28    0.13
  11  -8  -2    6.84    0.36
 -11   8   2    7.01    0.43
  10  -8  -2    0.21    0.08
 -10   8   2    0.06    0.11
   9  -8  -2    0.15    0.07
  -9   8   2    0.07    0.10
   8  -8  -2    1.94    0.15
  -8   8   2    1.72    0.21
   7  -8  -2    9.72    0.40
  -7   8   2    9.97    0.48
   6  -8  -2    1.01    0.10
  -6   8   2    1.05    0.16
   5  -8  -2    0.38    0.06
  -5   8   2    0.29    0.10
   4  -8  -2   22.78    0.76
  -4   8   2   21.56    0.84
   3  -8  -2    6.70    0.25
  -3   8   2    6.06    0.34
   2  -8  -2   25.34    0.87
  -2   8   2   26.20    0.97
  -2   8   2   27.55    0.79
   1  -8  -2   -0.01    0.06
  -1   8   2    0.13    0.03
  -1   8   2    0.11    0.08
   0  -8  -2   91.54    2.95
   0   8   2   90.36    2.96
   0   8   2   94.05    2.74
  -1  -8  -2   10.72    0.46
   1   8   2   11.43    0.37
   1   8   2   10.06    0.47
  -2  -8  -2   92.05    2.89
   2   8   2   89.14    2.71
  -3  -8  -2    5.77    0.29
   3   8   2    6.06    0.24
  -4  -8  -2   18.24    0.68
   4   8   2   18.66    0.62
   5   8   2   14.27    0.49
   5   8   2   14.52    0.51
   6   8   2    2.11    0.15
   6   8   2    1.79    0.11
   7   8   2   17.91    0.65
   7   8   2   19.02    0.65
   8   8   2    1.75    0.16
   9   8   2    8.22    0.37
  10   8   2    0.78    0.13
  11   8   2    0.49    0.12
  12   8   2    2.99    0.25
  13   8   2    1.03    0.22
  13   8   2    1.07    0.18
  14   8   2    1.59    0.27
  14   8   2    1.21    0.20
  15   8   2   -0.15    0.11
  15   8   2    0.00    0.13
  16   8   2    5.09    0.45
  17  -9  -2    0.36    0.16
  16  -9  -2    0.52    0.16
  15  -9  -2    0.92    0.17
  14  -9  -2    3.42    0.28
  13  -9  -2   -0.03    0.09
  12  -9  -2    1.17    0.16
 -12   9   2    1.53    0.23
  11  -9  -2    2.11    0.20
 -11   9   2    2.06    0.27
  10  -9  -2    3.96    0.25
 -10   9   2    3.87    0.33
   9  -9  -2    0.61    0.11
  -9   9   2    0.65    0.15
   8  -9  -2    0.01    0.06
  -8   9   2    0.21    0.11
   7  -9  -2    1.61    0.14
  -7   9   2    1.35    0.20
   6  -9  -2    0.58    0.09
  -6   9   2    0.65    0.15
   5  -9  -2   17.67    0.63
  -5   9   2   16.98    0.72
   4  -9  -2    0.09    0.04
  -4   9   2    0.15    0.09
   3  -9  -2   37.80    1.27
  -3   9   2   39.50    1.37
   2  -9  -2    0.27    0.04
  -2   9   2    0.26    0.11
  -2   9   2    0.23    0.03
   1  -9  -2   80.48    2.68
  -1   9   2   81.14    2.70
  -1   9   2   85.38    2.45
   0  -9  -2    7.60    0.38
   0   9   2    7.05    0.39
   0   9   2    7.94    0.27
  -1  -9  -2   97.37    3.15
   1   9   2   98.94    2.93
   2   9   2   49.94    1.53
   3   9   2    4.70    0.21
   4   9   2    3.86    0.19
   5   9   2    0.24    0.07
   6   9   2    9.63    0.38
   7   9   2    3.34    0.21
   8   9   2    0.68    0.12
   9   9   2    6.19    0.32
  10   9   2    0.35    0.11
  11   9   2    0.75    0.15
  12   9   2    2.60    0.25
  13   9   2    3.68    0.29
  14   9   2    1.33    0.25
  14   9   2    1.23    0.20
  15   9   2    5.38    0.46
  17 -10  -2    0.14    0.15
  16 -10  -2   -0.02    0.12
  15 -10  -2   -0.05    0.10
  14 -10  -2    0.23    0.12
  13 -10  -2    0.15    0.11
  12 -10  -2    0.26    0.11
 -12  10   2    0.43    0.16
  11 -10  -2    2.77    0.23
 -11  10   2    3.40    0.32
  10 -10  -2    0.95    0.14
 -10  10   2    1.00    0.21
   9 -10  -2   15.85    0.65
  -9  10   2   17.06    0.76
   8 -10  -2    1.81    0.16
  -8  10   2    1.74    0.24
   7 -10  -2    2.06    0.16
  -7  10   2    2.34    0.27
   6 -10  -2    4.69    0.24
  -6  10   2    4.48    0.33
   5 -10  -2    0.20    0.06
  -5  10   2    0.04    0.09
   4 -10  -2    6.02    0.26
  -4  10   2    6.38    0.38
   3 -10  -2    7.65    0.30
  -3  10   2    8.50    0.44
  -2  10   2   22.44    0.67
  -2  10   2   20.71    0.86
  -1  10   2    1.55    0.09
  -1  10   2    1.19    0.18
   0  10   2   25.78    1.00
   0  10   2   26.60    0.82
   1  10   2   19.80    0.64
   2  10   2    5.08    0.22
   3  10   2   16.54    0.56
   4  10   2    1.45    0.12
   5  10   2    5.67    0.26
   6  10   2    2.24    0.16
   7  10   2    1.10    0.13
   8  10   2   15.56    0.60
   9  10   2    0.74    0.13
  10  10   2    1.18    0.17
  11  10   2    0.65    0.15
  12  10   2    2.79    0.26
  13  10   2    3.37    0.29
  14  10   2    0.60    0.21
  14  10   2    0.34    0.14
  16 -11  -2    0.56    0.18
  15 -11  -2    0.08    0.12
  14 -11  -2    0.07    0.12
  13 -11  -2    0.57    0.15
  12 -11  -2    2.26    0.25
 -12  11   2    2.25    0.31
  11 -11  -2    0.57    0.13
 -11  11   2    0.93    0.22
  10 -11  -2    6.94    0.38
 -10  11   2    8.44    0.51
   9 -11  -2    0.91    0.14
  -9  11   2    1.09    0.22
   8 -11  -2    1.22    0.15
  -8  11   2    1.05    0.21
   7 -11  -2    4.50    0.25
  -7  11   2    5.09    0.37
   6 -11  -2    0.57    0.09
  -6  11   2    0.52    0.16
  -5  11   2    4.33    0.33
  -4  11   2    0.09    0.11
  -3  11   2    1.40    0.20
  -2  11   2    1.20    0.19
  -1  11   2    2.50    0.25
   0  11   2    0.29    0.12
   0  11   2    0.16    0.05
   1  11   2   13.63    0.47
   2  11   2    0.70    0.08
   3  11   2   13.97    0.50
   4  11   2    0.11    0.06
   5  11   2   14.04    0.52
   6  11   2    3.64    0.22
   7  11   2    5.08    0.27
   8  11   2    0.24    0.10
   9  11   2    3.27    0.25
  10  11   2    0.22    0.11
  11  11   2    0.77    0.15
  12  11   2    0.36    0.14
  13  11   2    0.36    0.15
  15 -12  -2    1.31    0.25
  14 -12  -2   -0.17    0.10
  13 -12  -2    5.53    0.39
 -11  12   2    4.39    0.41
 -10  12   2    0.36    0.15
  -9  12   2    3.42    0.34
  -8  12   2    0.58    0.18
  -7  12   2    3.09    0.34
  -6  12   2   -0.02    0.11
  -5  12   2    4.14    0.34
  -4  12   2    3.61    0.32
  -3  12   2    0.37    0.14
  -2  12   2   22.38    0.93
  -1  12   2    3.39    0.31
   2  12   2   25.71    0.84
   3  12   2    0.01    0.05
   4  12   2    6.30    0.29
   5  12   2    0.49    0.10
   6  12   2    3.67    0.23
   7  12   2    1.92    0.19
   8  12   2    0.75    0.14
   9  12   2    0.40    0.12
  10  12   2    0.58    0.14
  11  12   2    0.33    0.14
  12  12   2    0.38    0.14
 -11  13   2   -0.07    0.15
 -10  13   2   -0.09    0.12
  -9  13   2    0.07    0.14
  -8  13   2    0.14    0.13
  -7  13   2    0.09    0.13
  -6  13   2    1.36    0.25
  -5  13   2    3.33    0.33
  -4  13   2    0.15    0.13
  -3  13   2   11.35    0.60
  -2  13   2    0.61    0.17
  -1  13   2   18.27    0.82
   5  13   2    7.60    0.35
   6  13   2    2.56    0.20
   7  13   2    0.20    0.10
   8  13   2   -0.01    0.08
   9  13   2    0.07    0.11
  10  13   2    0.60    0.15
  11  13   2    0.00    0.11
 -10  14   2    0.66    0.22
  -9  14   2    0.32    0.18
  -8  14   2    3.19    0.38
  -7  14   2    0.50    0.19
  -6  14   2    6.05    0.47
  -5  14   2    1.24    0.24
  -4  14   2    4.06    0.37
  -3  14   2    5.15    0.40
  -2  14   2    4.47    0.38
  10  14   2    1.34    0.21
  -9  15   2    1.45    0.29
  -8  15   2    0.61    0.21
  -7  15   2    6.43    0.51
  -6  15   2    2.02    0.32
  -5  15   2    1.40    0.27
  -4  15   2    3.03    0.37
  -3  15   2    0.19    0.15
  -2  15   2    0.99    0.23
  -8  16   2    3.13    0.42
  -7  16   2    3.57    0.43
  -6  16   2    0.39    0.20
  -5  16   2    9.39    0.62
  -4  16   2    3.46    0.41
  -3  16   2    0.96    0.24
  -7  17   2    0.15    0.19
  -6  17   2    2.49    0.37
  -5  17   2    3.91    0.45
  -4  17   2    0.09    0.19
  10  16  -3    2.36    0.24
   9  16  -3    1.45    0.19
   8  16  -3    5.40    0.33
   7  16  -3    1.65    0.20
   6  16  -3    0.00    0.09
   5  16  -3    1.38    0.16
   4  16  -3    1.30    0.16
   3  16  -3    0.03    0.08
  11  15  -3    2.86    0.27
  10  15  -3    0.70    0.16
   9  15  -3    5.17    0.32
   8  15  -3    6.13    0.35
   7  15  -3   -0.02    0.09
   6  15  -3    4.17    0.26
   5  15  -3    2.18    0.19
   4  15  -3    1.07    0.14
   3  15  -3    4.01    0.23
   2  15  -3    5.51    0.27
   1  15  -3    5.90    0.28
   0  15  -3    0.17    0.07
  -3  15  -3    7.78    0.51
  -4  15  -3    0.32    0.16
  -5  15  -3    2.85    0.39
  12  14  -3    2.12    0.24
  11  14  -3    2.94    0.26
  10  14  -3    0.14    0.11
   9  14  -3    8.28    0.41
   8  14  -3    0.16    0.10
   7  14  -3    2.32    0.20
   6  14  -3    8.10    0.37
   5  14  -3    0.41    0.10
   4  14  -3   23.08    0.80
   3  14  -3    0.33    0.09
   2  14  -3    7.96    0.34
   1  14  -3    2.28    0.17
   0  14  -3   19.24    0.67
  -1  14  -3    1.73    0.15
  -2  14  -3   41.37    1.55
  -3  14  -3    1.07    0.22
  -4  14  -3    4.27    0.36
  -5  14  -3   -0.07    0.10
  -6  14  -3    8.69    0.54
   8 -14   3    5.35    0.35
   9 -14   3    2.96    0.27
  10 -14   3    2.63    0.26
  11 -14   3    0.54    0.17
  12 -14   3    0.74    0.18
  13 -14   3    4.33    0.37
  14 -14   3    1.72    0.27
  15 -14   3    2.43    0.33
  12  13  -3    0.47    0.14
  11  13  -3    0.01    0.11
  10  13  -3    4.63    0.30
   9  13  -3    2.20    0.21
   8  13  -3    0.29    0.10
   7  13  -3    2.03    0.19
   6  13  -3    4.86    0.27
   5  13  -3    5.76    0.29
   4  13  -3    0.77    0.11
   3  13  -3    4.59    0.24
   2  13  -3    1.93    0.16
   1  13  -3   21.69    0.74
   0  13  -3    1.42    0.14
  -2  13  -3    6.57    0.42
  -3  13  -3    0.07    0.10
   3 -13   3    0.08    0.06
  -4  13  -3    1.87    0.24
   4 -13   3    1.71    0.16
  -5  13  -3    0.44    0.15
   5 -13   3    0.58    0.12
  -6  13  -3    0.66    0.17
   6 -13   3    0.61    0.13
  -7  13  -3    2.84    0.33
   7 -13   3    2.50    0.23
   8 -13   3   16.58    0.72
   9 -13   3    1.33    0.19
  10 -13   3    8.78    0.49
  11 -13   3    2.14    0.27
  12 -13   3    4.18    0.34
  13 -13   3    2.81    0.32
  14 -13   3    0.46    0.18
  15 -13   3    2.01    0.30
  16 -13   3    0.19    0.17
  13  12  -3    0.72    0.16
  12  12  -3    9.92    0.47
  11  12  -3    2.80    0.24
  10  12  -3    0.23    0.11
   9  12  -3    0.88    0.14
   8  12  -3    7.25    0.35
   7  12  -3    2.38    0.19
   6  12  -3    0.95    0.13
   5  12  -3    1.61    0.15
   4  12  -3    0.04    0.06
   3  12  -3    0.84    0.11
   2  12  -3    3.90    0.21
  -2 -12   3    3.25    0.28
   1  12  -3    1.95    0.15
  -1 -12   3    2.22    0.25
   0 -12   3    0.59    0.14
   1 -12   3    2.45    0.24
   1 -12   3    2.08    0.15
  -2  12  -3    1.85    0.23
   2 -12   3    2.10    0.16
  -3  12  -3    5.05    0.35
   3 -12   3    4.70    0.26
  -4  12  -3    8.42    0.47
   4 -12   3    8.53    0.40
  -5  12  -3    2.23    0.26
   5 -12   3    2.17    0.19
  -6  12  -3    1.73    0.24
   6 -12   3    1.12    0.16
  -7  12  -3   13.62    0.67
   7 -12   3   13.51    0.60
  -8  12  -3    2.44    0.29
   8 -12   3    1.69    0.21
   9 -12   3    9.74    0.50
  10 -12   3    0.90    0.17
  11 -12   3    0.67    0.16
  12 -12   3   -0.03    0.10
  13 -12   3    1.15    0.22
  14 -12   3    0.42    0.17
  15 -12   3    0.52    0.19
  16 -12   3    1.85    0.29
  14  11  -3    0.36    0.14
  13  11  -3    8.49    0.43
  12  11  -3    5.93    0.34
  11  11  -3    2.42    0.23
  10  11  -3    8.51    0.40
   9  11  -3    0.21    0.09
   8  11  -3    0.30    0.09
   7  11  -3    1.84    0.16
   6  11  -3    2.28    0.17
   5  11  -3    0.76    0.11
   4  11  -3    5.08    0.25
  -4 -11   3    5.07    0.32
   3  11  -3    2.93    0.18
  -3 -11   3    2.97    0.25
   2  11  -3    2.21    0.16
  -2 -11   3    2.09    0.21
  -1 -11   3    2.89    0.25
   0 -11   3    2.40    0.23
  -1  11  -3    1.01    0.17
   1 -11   3    1.03    0.12
   1 -11   3    0.82    0.14
  -2  11  -3    5.08    0.33
   2 -11   3    5.05    0.26
  -3  11  -3    9.99    0.50
   3 -11   3    9.98    0.43
  -4  11  -3    0.30    0.11
   4 -11   3    0.22    0.08
  -5  11  -3   10.58    0.53
   5 -11   3   10.66    0.47
  -6  11  -3    4.28    0.32
   6 -11   3    4.13    0.26
  -7  11  -3    2.66    0.27
   7 -11   3    2.80    0.22
  -8  11  -3    6.28    0.40
   8 -11   3    5.27    0.34
   9 -11   3    0.32    0.12
  10 -11   3    1.38    0.20
  11 -11   3    0.11    0.11
  12 -11   3    0.04    0.10
  13 -11   3    0.05    0.11
  14 -11   3    3.80    0.34
  15 -11   3    0.40    0.17
  16 -11   3    0.18    0.14
  16  10  -3    3.47    0.37
  15  10  -3    0.60    0.16
  14  10  -3    0.67    0.16
  13  10  -3    1.50    0.19
  12  10  -3   16.41    0.65
  11  10  -3   11.30    0.48
  10  10  -3    0.48    0.11
  10  10  -3    0.44    0.09
   9  10  -3   10.01    0.40
   9  10  -3   10.65    0.43
   8  10  -3    0.04    0.05
   8  10  -3    0.12    0.08
   7  10  -3    3.80    0.22
   6  10  -3    0.26    0.07
  -6 -10   3    0.25    0.10
   5  10  -3   12.20    0.46
  -5 -10   3   12.26    0.55
   4  10  -3   49.63    1.58
  -4 -10   3   51.40    1.73
   3  10  -3    6.15    0.27
  -3 -10   3    6.13    0.35
   2  10  -3   21.51    0.73
  -2 -10   3   21.86    0.85
  -1 -10   3    1.48    0.18
   0 -10   3   17.72    0.74
   0 -10   3   18.43    0.66
  -1  10  -3   22.92    0.88
   1 -10   3   22.20    0.81
  -2  10  -3   61.32    2.01
   2 -10   3   57.22    1.98
  -3  10  -3    2.91    0.24
   3 -10   3    2.91    0.19
  -4  10  -3   31.37    1.15
   4 -10   3   30.99    1.11
  -5  10  -3    1.01    0.16
   5 -10   3    0.80    0.12
  -6  10  -3   19.57    0.79
   6 -10   3   18.78    0.75
  -7  10  -3    3.86    0.29
   7 -10   3    3.61    0.25
  -8  10  -3   24.45    0.95
   8 -10   3   22.47    0.91
  -9  10  -3   10.01    0.51
   9 -10   3    8.23    0.45
  10 -10   3    0.66    0.15
  10 -10   3    0.69    0.13
  11 -10   3    1.93    0.23
  11 -10   3    1.52    0.18
  12 -10   3    1.19    0.20
  12 -10   3    1.44    0.18
  13 -10   3    1.36    0.21
  14 -10   3    5.58    0.41
  15 -10   3    0.12    0.12
  16 -10   3   -0.14    0.12
  17 -10   3    0.07    0.15
  16   9  -3   -0.05    0.13
  15   9  -3    0.55    0.14
  14   9  -3    1.17    0.17
  13   9  -3   -0.02    0.08
  13   9  -3    0.13    0.11
  12   9  -3    3.70    0.22
  12   9  -3    3.54    0.25
  11   9  -3    1.09    0.14
  11   9  -3    1.03    0.12
  10   9  -3    7.07    0.33
  10   9  -3    6.54    0.30
   9   9  -3    1.84    0.17
   9   9  -3    1.68    0.13
   8   9  -3    1.00    0.10
   8   9  -3    0.94    0.12
   7   9  -3   -0.09    0.06
  -7  -9   3    0.00    0.07
   6   9  -3    1.10    0.12
  -6  -9   3    0.91    0.14
   5   9  -3    0.00    0.05
  -5  -9   3    0.06    0.07
   4   9  -3    9.70    0.38
  -4  -9   3    9.92    0.46
   3   9  -3    4.29    0.21
  -3  -9   3    4.36    0.28
  -2  -9   3    1.72    0.18
  -1  -9   3   24.67    0.93
   0  -9   3    0.12    0.05
   0  -9   3    0.08    0.07
  -1   9  -3    5.93    0.32
   1  -9   3    5.28    0.26
  -2   9  -3   14.82    0.61
   2  -9   3   14.14    0.56
  -3   9  -3    1.12    0.15
   3  -9   3    0.89    0.11
  -4   9  -3    0.14    0.08
   4  -9   3    0.31    0.08
  -5   9  -3    0.03    0.08
   5  -9   3    0.14    0.07
  -6   9  -3   17.21    0.69
   6  -9   3   16.02    0.66
  -7   9  -3    1.03    0.16
   7  -9   3    0.96    0.14
  -8   9  -3   13.47    0.60
   8  -9   3   12.54    0.51
   8  -9   3   11.90    0.55
  -9   9  -3    1.95    0.23
   9  -9   3    1.54    0.17
   9  -9   3    1.64    0.19
  10  -9   3   24.62    0.98
  10  -9   3   24.92    0.89
  11  -9   3    2.69    0.25
  11  -9   3    2.38    0.21
  12  -9   3    2.91    0.23
  12  -9   3    2.42    0.24
  13  -9   3    2.89    0.28
  13  -9   3    2.55    0.23
  14  -9   3    4.10    0.35
  14  -9   3    4.19    0.30
  15  -9   3    3.81    0.35
  16  -9   3    0.06    0.13
  17  -9   3    0.73    0.21
  16   8  -3    1.45    0.20
  16   8  -3    1.36    0.24
  15   8  -3    0.27    0.13
  15   8  -3    0.21    0.11
  14   8  -3   11.71    0.51
  14   8  -3   11.15    0.50
  13   8  -3    0.50    0.11
  12   8  -3    3.10    0.21
  12   8  -3    3.30    0.23
  11   8  -3    0.93    0.11
  11   8  -3    0.73    0.12
  10   8  -3    3.91    0.22
  10   8  -3    4.01    0.24
   9   8  -3    1.20    0.13
   9   8  -3    1.29    0.11
   8   8  -3    5.37    0.26
  -8  -8   3    5.22    0.31
   7   8  -3    1.43    0.13
  -7  -8   3    1.76    0.19
   6   8  -3    0.10    0.06
  -6  -8   3    0.01    0.06
   5   8  -3    0.01    0.04
  -5  -8   3    0.06    0.06
   4   8  -3    7.95    0.33
  -4  -8   3    9.24    0.41
   3   8  -3    4.31    0.21
  -3  -8   3    4.67    0.27
  -2  -8   3   37.46    1.30
  -1  -8   3    1.90    0.17
   0  -8   3    1.09    0.14
   0  -8   3    0.94    0.10
  -1   8  -3   21.88    0.80
   1  -8   3   20.58    0.76
  -2   8  -3   30.95    1.08
   2  -8   3   29.66    1.05
  -3   8  -3   10.57    0.45
   3  -8   3    9.51    0.41
  -4   8  -3    2.73    0.20
   4  -8   3    2.31    0.17
  -5   8  -3   25.64    0.92
   5  -8   3   23.89    0.90
  -6   8  -3    0.38    0.11
   6  -8   3    0.47    0.09
  -7   8  -3   21.66    0.82
   7  -8   3   20.08    0.80
   7  -8   3   21.14    0.74
  -8   8  -3    7.61    0.40
   8  -8   3    7.24    0.34
   8  -8   3    7.12    0.37
  -9   8  -3   31.19    1.15
   9  -8   3   31.25    1.06
   9  -8   3   30.77    1.15
 -10   8  -3    7.67    0.43
  10  -8   3    7.05    0.40
  10  -8   3    7.60    0.37
  11  -8   3    4.18    0.27
  11  -8   3    3.90    0.29
  12  -8   3    0.06    0.08
  12  -8   3    0.18    0.10
  13  -8   3    0.68    0.15
  13  -8   3    0.94    0.16
  14  -8   3    0.93    0.16
  14  -8   3    1.18    0.21
  15  -8   3    0.04    0.09
  15  -8   3    0.12    0.11
  16  -8   3    2.42    0.31
  17  -8   3    0.35    0.17
  17   7  -3    2.94    0.28
  17   7  -3    2.77    0.28
  16   7  -3    0.58    0.13
  16   7  -3    0.74    0.19
  16   7  -3    0.54    0.15
  15   7  -3    7.10    0.37
  15   7  -3    6.68    0.43
  15   7  -3    6.40    0.36
  14   7  -3    2.52    0.22
  14   7  -3    2.13    0.21
  13   7  -3    4.45    0.26
  13   7  -3    3.58    0.24
  12   7  -3    0.88    0.13
  12   7  -3    1.08    0.13
  11   7  -3   17.62    0.64
  11   7  -3   17.58    0.65
  10   7  -3    0.73    0.11
   9   7  -3   20.26    0.73
   9   7  -3   21.00    0.72
  -9  -7   3   20.56    0.78
   8   7  -3    1.96    0.15
  -8  -7   3    1.92    0.18
   7   7  -3    0.85    0.10
  -7  -7   3    0.97    0.14
   6   7  -3   13.95    0.49
  -6  -7   3   12.72    0.54
   5   7  -3   13.38    0.48
  -5  -7   3   13.24    0.54
   4   7  -3   14.17    0.49
  -4  -7   3   13.50    0.55
  -3  -7   3    2.19    0.17
  -2  -7   3   11.05    0.47
  -1  -7   3    4.35    0.25
   0  -7   3   43.07    1.44
  -1   7  -3   13.41    0.53
   1  -7   3   13.68    0.52
  -2   7  -3    8.00    0.36
   2  -7   3    7.46    0.33
  -3   7  -3    6.26    0.31
   3  -7   3    6.36    0.29
  -4   7  -3   14.61    0.58
   4  -7   3   14.67    0.57
  -5   7  -3    8.42    0.39
   5  -7   3    8.51    0.37
   5  -7   3    7.84    0.34
  -6   7  -3   23.55    0.85
   6  -7   3   22.53    0.78
   6  -7   3   21.92    0.84
  -7   7  -3   31.29    1.12
   7  -7   3   31.48    1.13
   7  -7   3   31.21    1.04
  -8   7  -3    0.21    0.09
   8  -7   3    0.18    0.07
   8  -7   3    0.22    0.08
  -9   7  -3    0.69    0.14
   9  -7   3    0.96    0.15
   9  -7   3    0.74    0.12
 -10   7  -3    0.94    0.16
  10  -7   3    1.50    0.19
  10  -7   3    1.26    0.16
  11  -7   3    1.44    0.20
  11  -7   3    1.34    0.16
  12  -7   3    2.48    0.24
  12  -7   3    2.51    0.21
  13  -7   3    0.13    0.11
  13  -7   3    0.06    0.09
  14  -7   3    0.50    0.14
  14  -7   3    0.61    0.14
  15  -7   3   -0.06    0.09
  15  -7   3   -0.18    0.08
  16  -7   3    0.84    0.20
  16  -7   3    0.76    0.17
  17  -7   3    1.18    0.21
  17  -7   3    1.10    0.22
  18  -7   3    0.03    0.13
  18   6  -3    3.02    0.30
  17   6  -3    2.02    0.23
  17   6  -3    1.62    0.22
  16   6  -3    3.55    0.28
  16   6  -3    3.45    0.27
  15   6  -3    0.23    0.11
  15   6  -3    0.30    0.12
  15   6  -3    0.25    0.13
  14   6  -3    2.55    0.24
  14   6  -3    2.61    0.22
  14   6  -3    2.41    0.21
  13   6  -3    2.36    0.19
  13   6  -3    1.93    0.17
  12   6  -3    8.34    0.37
  12   6  -3    8.64    0.38
  11   6  -3    0.21    0.08
  11   6  -3    0.34    0.08
  10   6  -3   17.38    0.62
  10   6  -3   17.33    0.63
 -10  -6   3   16.81    0.67
   9   6  -3   14.41    0.52
   9   6  -3   14.24    0.53
  -9  -6   3   14.44    0.58
   8   6  -3    0.28    0.07
  -8  -6   3    0.39    0.10
   7   6  -3    6.79    0.29
  -7  -6   3    6.98    0.33
   6   6  -3    1.63    0.12
  -6  -6   3    1.95    0.16
   5   6  -3   14.66    0.52
  -5  -6   3   15.58    0.59
   4   6  -3    8.26    0.32
  -4  -6   3    9.13    0.38
  -3  -6   3    1.00    0.12
  -2  -6   3   45.64    1.51
   1   6  -3   21.14    0.74
  -1  -6   3   21.70    0.76
  -1  -6   3   20.91    0.74
  -1  -6   3   20.73    0.76
   0   6  -3   17.25    0.60
   0  -6   3   16.35    0.62
   0  -6   3   16.77    0.61
  -1   6  -3    6.42    0.29
   1  -6   3    6.34    0.28
   1  -6   3    6.66    0.29
  -2   6  -3    6.27    0.29
   2  -6   3    6.09    0.28
   2  -6   3    6.15    0.28
  -3   6  -3    4.00    0.22
   3  -6   3    3.60    0.20
   3  -6   3    3.85    0.20
   4  -6   3   14.18    0.52
   4  -6   3   13.72    0.50
   4  -6   3   13.59    0.53
  -5   6  -3    4.64    0.25
   5  -6   3    4.61    0.23
   5  -6   3    4.71    0.23
   5  -6   3    4.35    0.24
  -6   6  -3   32.34    1.09
   6  -6   3   29.48    1.09
   6  -6   3   32.44    1.03
   6  -6   3   29.91    1.05
  -7   6  -3    1.06    0.14
   7  -6   3    0.83    0.11
   7  -6   3    0.88    0.11
   7  -6   3    1.04    0.12
  -8   6  -3    9.42    0.43
   8  -6   3    9.15    0.43
   8  -6   3    9.66    0.40
  -9   6  -3    6.13    0.33
   9  -6   3    6.07    0.30
   9  -6   3    5.79    0.32
 -10   6  -3    1.29    0.17
  10  -6   3    1.39    0.16
  10  -6   3    1.17    0.16
  11  -6   3    2.18    0.22
  11  -6   3    2.59    0.21
  12  -6   3    1.49    0.18
  12  -6   3    1.34    0.18
  13  -6   3    0.85    0.15
  13  -6   3    1.05    0.18
  14  -6   3    0.92    0.18
  14  -6   3    0.85    0.16
  15  -6   3    0.64    0.15
  15  -6   3    0.60    0.17
  16  -6   3    0.83    0.17
  16  -6   3    0.70    0.18
  17  -6   3   -0.06    0.11
  17  -6   3    0.11    0.12
  18  -6   3    0.64    0.19
  18  -6   3    0.84    0.19
  18   5  -3    0.82    0.19
  18   5  -3    0.91    0.20
  17   5  -3    0.31    0.13
  17   5  -3    0.16    0.13
  16   5  -3    1.35    0.19
  16   5  -3    0.98    0.15
  15   5  -3    0.92    0.15
  15   5  -3    0.94    0.15
  15   5  -3    0.68    0.16
  14   5  -3    0.05    0.08
  14   5  -3    0.04    0.08
  14   5  -3    0.11    0.09
  13   5  -3    1.42    0.16
  13   5  -3    1.16    0.14
  13   5  -3    1.32    0.18
  12   5  -3    0.72    0.11
  12   5  -3    0.74    0.12
  11   5  -3    0.78    0.11
  11   5  -3    0.88    0.12
 -11  -5   3    0.80    0.13
  10   5  -3   -0.08    0.06
  10   5  -3   -0.13    0.05
 -10  -5   3    0.03    0.07
   9   5  -3   24.59    0.82
  -9  -5   3   24.74    0.88
   8   5  -3   32.47    1.03
  -8  -5   3   31.93    1.11
   7   5  -3    1.85    0.12
  -7  -5   3    2.07    0.16
  -6  -5   3    1.54    0.14
   5   5  -3    2.32    0.14
  -5  -5   3    2.73    0.17
   4   5  -3   31.10    1.02
  -4  -5   3   34.09    1.10
  -3  -5   3    0.08    0.05
   2   5  -3   23.51    0.82
   2   5  -3   23.62    0.82
  -2  -5   3   23.76    0.82
   1   5  -3   50.76    1.70
  -1  -5   3   52.31    1.68
  -1  -5   3   51.23    1.71
  -1  -5   3   52.94    1.68
   0   5  -3    2.93    0.16
   0  -5   3    3.23    0.17
   0  -5   3    3.12    0.16
  -1   5  -3   59.54    1.91
  -1   5  -3   59.33    1.87
   1  -5   3   57.53    1.87
   1  -5   3   56.70    1.92
  -2   5  -3    0.46    0.07
   2  -5   3    0.35    0.06
   2  -5   3    0.38    0.06
  -3   5  -3    5.42    0.26
   3  -5   3    6.10    0.26
   3  -5   3    5.70    0.25
   3  -5   3    5.89    0.27
  -4   5  -3    0.67    0.10
   4  -5   3    0.99    0.11
   4  -5   3    0.67    0.08
  -5   5  -3    2.31    0.16
   5  -5   3    2.29    0.15
   5  -5   3    2.27    0.15
   5  -5   3    2.32    0.16
  -6   5  -3   52.95    1.68
   6  -5   3   50.48    1.73
   6  -5   3   49.82    1.61
   6  -5   3   51.77    1.66
  -7   5  -3    5.90    0.29
   7  -5   3    5.45    0.27
   7  -5   3    5.74    0.29
   7  -5   3    5.84    0.27
  -8   5  -3   61.24    1.96
   8  -5   3   60.47    1.92
   8  -5   3   58.16    1.87
   8  -5   3   57.28    2.01
  -9   5  -3    4.29    0.26
   9  -5   3    4.01    0.26
   9  -5   3    4.14    0.24
 -10   5  -3   22.89    0.84
  10  -5   3   21.48    0.85
  10  -5   3   21.36    0.79
  11  -5   3   11.74    0.54
  11  -5   3   11.45    0.49
  12  -5   3    4.48    0.31
  12  -5   3    4.46    0.28
  13  -5   3    0.60    0.14
  13  -5   3    0.52    0.13
  14  -5   3    5.40    0.34
  14  -5   3    5.59    0.37
  15  -5   3    2.33    0.28
  15  -5   3    2.04    0.24
  16  -5   3    1.83    0.23
  16  -5   3    1.42    0.24
  17  -5   3    0.66    0.18
  17  -5   3    1.05    0.20
  18  -5   3    0.31    0.16
  18  -5   3    0.27    0.18
  19  -5   3   -0.12    0.13
  18   4  -3   -0.20    0.12
  18   4  -3   -0.11    0.10
  17   4  -3    0.11    0.12
  17   4  -3    0.06    0.11
  16   4  -3    0.64    0.15
  16   4  -3    0.28    0.11
  15   4  -3    0.56    0.13
  15   4  -3    0.48    0.13
  15   4  -3    0.52    0.12
  14   4  -3    5.34    0.35
  14   4  -3    5.77    0.31
  14   4  -3    6.19    0.31
  13   4  -3    0.45    0.11
  13   4  -3    0.41    0.10
  13   4  -3    0.43    0.12
  12   4  -3    3.16    0.20
  12   4  -3    2.61    0.22
  12   4  -3    2.63    0.18
  11   4  -3    0.62    0.10
  11   4  -3    0.49    0.09
 -11  -4   3    0.36    0.09
  10   4  -3    0.22    0.08
  10   4  -3    0.14    0.07
 -10  -4   3    0.33    0.09
   9   4  -3   19.64    0.67
  -9  -4   3   20.37    0.74
   8   4  -3    3.01    0.16
  -8  -4   3    3.19    0.19
   7   4  -3    1.27    0.10
  -7  -4   3    1.32    0.12
   6   4  -3   17.15    0.58
  -6  -4   3   18.02    0.64
   5   4  -3    5.01    0.21
  -5  -4   3    4.72    0.24
   4   4  -3    1.78    0.11
  -4  -4   3    2.06    0.14
   3   4  -3    2.06    0.14
  -3  -4   3    1.89    0.13
   2   4  -3   66.96    2.09
   2   4  -3   64.78    2.14
  -2  -4   3   64.78    2.08
   1   4  -3   56.68    1.88
  -1  -4   3   56.79    1.88
  -1  -4   3   58.43    1.83
   0   4  -3   12.98    0.49
   0  -4   3   13.50    0.50
   0  -4   3   14.24    0.49
  -1   4  -3   70.72    2.19
  -1   4  -3   69.82    2.26
  -1   4  -3   70.52    2.11
   1  -4   3   69.42    2.19
   1  -4   3   66.37    2.26
  -2   4  -3  152.12    4.54
   2  -4   3  144.14    4.37
   2  -4   3  143.50    4.53
   2  -4   3  146.04    4.70
  -3   4  -3   22.77    0.77
   3  -4   3   21.92    0.79
   3  -4   3   22.54    0.76
   3  -4   3   23.45    0.75
  -4   4  -3    8.41    0.33
   4  -4   3    8.14    0.32
   4  -4   3    7.86    0.32
   4  -4   3    7.84    0.34
  -5   4  -3   50.41    1.65
   5  -4   3   51.01    1.59
   5  -4   3   51.16    1.63
   5  -4   3   51.18    1.71
  -6   4  -3   13.22    0.49
   6  -4   3   12.61    0.47
   6  -4   3   12.05    0.50
   6  -4   3   12.68    0.47
  -7   4  -3   21.13    0.74
   7  -4   3   21.31    0.72
   7  -4   3   19.74    0.76
   7  -4   3   20.28    0.71
  -8   4  -3    0.62    0.10
   8  -4   3    0.47    0.08
   8  -4   3    0.67    0.09
   8  -4   3    0.85    0.12
  -9   4  -3    8.14    0.37
   9  -4   3    7.62    0.35
   9  -4   3    7.78    0.38
   9  -4   3    7.88    0.34
 -10   4  -3    1.13    0.15
  10  -4   3    0.92    0.13
  10  -4   3    0.71    0.12
  11  -4   3   14.31    0.62
  11  -4   3   14.63    0.58
  12  -4   3    3.83    0.26
  12  -4   3    3.95    0.28
  13  -4   3    2.16    0.23
  13  -4   3    2.66    0.22
  14  -4   3    0.38    0.12
  14  -4   3    0.54    0.15
  15  -4   3    3.08    0.28
  15  -4   3    3.35    0.27
  16  -4   3    5.75    0.39
  16  -4   3    5.91    0.42
  17  -4   3    1.44    0.24
  17  -4   3    1.55    0.23
  18  -4   3    0.90    0.20
  18  -4   3    0.68    0.20
  19  -4   3    0.07    0.13
  18   3  -3   -0.18    0.12
  18   3  -3    0.01    0.11
  17   3  -3    1.29    0.20
  17   3  -3    1.21    0.18
  16   3  -3    0.19    0.11
  16   3  -3    0.30    0.13
  15   3  -3    6.23    0.37
  15   3  -3    5.62    0.33
  15   3  -3    5.70    0.32
  14   3  -3    2.46    0.22
  14   3  -3    2.72    0.20
  14   3  -3    2.18    0.20
  13   3  -3    1.07    0.13
  13   3  -3    1.05    0.14
  13   3  -3    1.13    0.16
  12   3  -3    1.87    0.15
  12   3  -3    1.74    0.18
  12   3  -3    2.11    0.17
 -12  -3   3    1.54    0.18
  11   3  -3   22.38    0.86
  11   3  -3   21.82    0.74
  11   3  -3   21.50    0.79
 -11  -3   3   21.79    0.81
  10   3  -3    0.62    0.09
  10   3  -3    0.56    0.08
 -10  -3   3    0.81    0.12
   9   3  -3    2.12    0.13
  -9  -3   3    2.52    0.18
   8   3  -3    1.22    0.10
  -8  -3   3    1.61    0.13
   7   3  -3    1.33    0.10
  -7  -3   3    1.28    0.11
   6   3  -3   14.77    0.49
  -6  -3   3   14.26    0.53
   5   3  -3   86.83    2.61
  -5  -3   3   87.20    2.74
   4   3  -3   37.04    1.18
  -4  -3   3   39.87    1.25
   3   3  -3   20.68    0.70
  -3  -3   3   20.21    0.70
   2   3  -3  146.21    4.63
  -2  -3   3  153.19    4.63
   1   3  -3    3.33    0.16
  -1  -3   3    3.29    0.16
   0   3  -3   64.01    2.05
   0  -3   3   60.79    2.05
   0  -3   3   63.77    1.97
  -1   3  -3   10.11    0.38
  -1   3  -3    9.80    0.35
  -1   3  -3   10.51    0.36
   1  -3   3   10.02    0.36
   1  -3   3    9.62    0.38
  -2   3  -3   58.63    1.77
  -2   3  -3   59.34    1.90
  -2   3  -3   57.77    1.83
   2  -3   3   58.29    1.83
   2  -3   3   57.75    1.90
   2  -3   3   56.52    1.77
  -3   3  -3  230.92    7.03
   3  -3   3  227.06    6.77
   3  -3   3  227.25    7.29
   3  -3   3  229.26    7.02
  -4   3  -3    0.93    0.08
   4  -3   3    1.00    0.09
   4  -3   3    1.00    0.08
   4  -3   3    0.94    0.09
  -5   3  -3    3.03    0.16
   5  -3   3    2.95    0.17
   5  -3   3    2.79    0.16
   5  -3   3    2.85    0.15
  -6   3  -3   12.03    0.44
   6  -3   3   11.34    0.46
   6  -3   3   11.43    0.43
   6  -3   3   11.39    0.43
  -7   3  -3    4.61    0.23
   7  -3   3    4.49    0.22
   7  -3   3    5.05    0.25
   7  -3   3    4.67    0.23
  -8   3  -3    7.05    0.31
   8  -3   3    6.60    0.29
   8  -3   3    7.01    0.31
   8  -3   3    6.55    0.32
  -9   3  -3    4.82    0.25
   9  -3   3    5.01    0.24
   9  -3   3    4.59    0.25
   9  -3   3    4.80    0.27
 -10   3  -3    2.82    0.20
  10  -3   3    2.54    0.17
  10  -3   3    2.60    0.19
  10  -3   3    2.40    0.20
  11  -3   3    8.58    0.39
  11  -3   3    8.12    0.41
  12  -3   3    1.62    0.18
  12  -3   3    1.76    0.21
  13  -3   3    0.70    0.15
  13  -3   3    0.77    0.14
  14  -3   3    0.39    0.12
  14  -3   3    0.66    0.14
  15  -3   3    1.08    0.19
  15  -3   3    0.73    0.16
  16  -3   3    0.45    0.16
  16  -3   3    0.39    0.14
  17  -3   3    0.12    0.12
  17  -3   3    0.33    0.14
  18  -3   3    0.12    0.13
  18  -3   3    0.24    0.16
  19  -3   3    0.16    0.15
  19   2  -3    0.36    0.16
  18   2  -3    5.17    0.34
  18   2  -3    4.43    0.34
  17   2  -3    1.11    0.18
  17   2  -3    1.70    0.22
  16   2  -3   11.40    0.51
  16   2  -3   11.96    0.55
  15   2  -3    0.74    0.14
  15   2  -3    0.42    0.11
  14   2  -3    6.60    0.38
  14   2  -3    7.57    0.37
  14   2  -3    7.05    0.34
  13   2  -3    0.87    0.14
  13   2  -3    1.13    0.13
  13   2  -3    1.19    0.15
  12   2  -3    7.13    0.33
  12   2  -3    7.13    0.31
  12   2  -3    7.51    0.37
 -12  -2   3    7.40    0.36
  11   2  -3    0.90    0.12
  11   2  -3    1.30    0.13
  11   2  -3    0.89    0.10
 -11  -2   3    0.95    0.14
  10   2  -3    1.79    0.13
  10   2  -3    2.08    0.16
  10   2  -3    1.95    0.13
 -10  -2   3    2.07    0.16
   9   2  -3    0.69    0.08
   9   2  -3    0.61    0.08
  -9  -2   3    0.60    0.10
   8   2  -3    1.18    0.09
  -8  -2   3    0.74    0.09
   7   2  -3    0.24    0.05
  -7  -2   3    0.29    0.06
   6   2  -3    1.75    0.10
  -6  -2   3    1.66    0.12
   5   2  -3   89.06    2.65
  -5  -2   3   88.00    2.77
   4   2  -3    6.37    0.24
  -4  -2   3    6.97    0.27
   3   2  -3  111.32    3.52
  -3  -2   3  115.99    3.52
   2   2  -3  188.58    5.91
  -2  -2   3  196.10    5.92
   1   2  -3  290.86    8.80
   1   2  -3  283.03    9.12
  -1  -2   3  285.11    8.82
  -1   2  -3    2.90    0.12
   1  -2   3    3.04    0.13
   1  -2   3    2.79    0.15
   1  -2   3    2.83    0.14
  -2   2  -3   51.51    1.57
  -2   2  -3   50.65    1.75
   2  -2   3   51.36    1.58
   2  -2   3   48.08    1.65
   2  -2   3   50.05    1.54
  -3   2  -3    4.66    0.19
   3  -2   3    4.85    0.19
   3  -2   3    4.66    0.21
   3  -2   3    4.80    0.20
  -4   2  -3   84.14    2.65
   4  -2   3   85.02    2.94
   4  -2   3   84.86    2.76
   4  -2   3   86.01    2.57
   4  -2   3   84.93    2.64
  -5   2  -3  100.56    3.10
   5  -2   3  100.04    3.09
   5  -2   3  100.00    3.43
   5  -2   3   96.33    3.22
   5  -2   3   99.92    3.00
  -6   2  -3   10.94    0.40
   6  -2   3   10.42    0.39
   6  -2   3    9.95    0.42
   6  -2   3   10.88    0.46
   6  -2   3   10.89    0.40
  -7   2  -3    0.83    0.09
   7  -2   3    0.60    0.09
   7  -2   3    0.49    0.07
   7  -2   3    0.69    0.09
   7  -2   3    0.68    0.11
  -8   2  -3    0.08    0.05
   8  -2   3    0.14    0.06
   8  -2   3    0.21    0.07
   8  -2   3    0.12    0.06
   8  -2   3    0.08    0.07
  -9   2  -3    2.48    0.16
   9  -2   3    2.38    0.18
   9  -2   3    2.09    0.16
   9  -2   3    2.15    0.18
   9  -2   3    2.08    0.15
 -10   2  -3    1.33    0.13
  10  -2   3    1.31    0.14
  10  -2   3    1.31    0.16
  10  -2   3    1.04    0.13
  10  -2   3    1.18    0.16
  11  -2   3    0.92    0.14
  11  -2   3    1.15    0.16
  11  -2   3    0.70    0.14
  12  -2   3    0.03    0.07
  12  -2   3    0.04    0.09
  12  -2   3    0.18    0.10
  13  -2   3    0.65    0.13
  13  -2   3    0.58    0.14
  13  -2   3    0.45    0.13
  14  -2   3    0.85    0.17
  14  -2   3    0.81    0.15
  15  -2   3    0.14    0.10
  15  -2   3    0.24    0.11
  16  -2   3    1.32    0.21
  16  -2   3    1.19    0.19
  17  -2   3    0.46    0.16
  17  -2   3    0.57    0.18
  18  -2   3    0.26    0.16
  18  -2   3    0.17    0.14
  19  -2   3    0.03    0.13
  19   1  -3    7.93    0.45
  18   1  -3    1.56    0.22
  18   1  -3    1.41    0.20
  17   1  -3    2.16    0.25
  17   1  -3    2.30    0.23
  16   1  -3    3.65    0.27
  16   1  -3    4.03    0.27
  15   1  -3    5.62    0.31
  15   1  -3    5.93    0.33
  14   1  -3    0.20    0.08
  14   1  -3    0.27    0.10
  14   1  -3    0.48    0.11
  13   1  -3    3.14    0.21
  13   1  -3    2.89    0.21
  13   1  -3    2.52    0.18
 -13  -1   3    2.62    0.22
  12   1  -3    7.51    0.32
  12   1  -3    7.56    0.34
  12   1  -3    7.49    0.36
 -12  -1   3    7.20    0.36
  11   1  -3    0.68    0.09
  11   1  -3    0.88    0.11
  11   1  -3    0.45    0.09
 -11  -1   3    0.61    0.11
  10   1  -3    5.73    0.25
  10   1  -3    6.08    0.29
  10   1  -3    6.30    0.28
 -10  -1   3    5.97    0.30
   9   1  -3    3.52    0.19
   9   1  -3    3.12    0.16
   9   1  -3    3.30    0.18
  -9  -1   3    3.34    0.20
   8   1  -3   26.45    0.98
   8   1  -3   27.11    0.86
  -8  -1   3   28.10    0.93
   7   1  -3    8.61    0.30
  -7  -1   3    8.28    0.34
   6   1  -3    3.36    0.14
  -6  -1   3    2.65    0.16
   5   1  -3    7.45    0.27
  -5  -1   3    7.72    0.30
   4   1  -3  140.04    4.16
  -4  -1   3  141.22    4.34
   3   1  -3    6.22    0.24
  -3  -1   3    6.47    0.24
   2   1  -3   29.31    0.94
  -2  -1   3   29.62    0.94
   1   1  -3    4.26    0.19
  -1  -1   3    4.36    0.16
   0   1  -3  126.56    4.33
   0   1  -3  133.31    4.10
   0   1  -3  128.18    3.80
   0  -1   3  124.03    4.09
  -1   1  -3   49.72    1.51
  -1   1  -3   49.07    1.71
  -1   1  -3   47.46    1.62
   1  -1   3   50.65    1.51
   1  -1   3   48.82    1.63
   1  -1   3   52.53    1.54
   1  -1   3   49.73    1.72
  -2   1  -3   62.39    2.19
  -2   1  -3   67.12    2.07
  -2   1  -3   64.13    1.97
   2  -1   3   61.34    2.19
   2  -1   3   65.21    1.97
   2  -1   3   64.39    1.93
   2  -1   3   61.72    2.07
  -3   1  -3  109.88    3.32
   3  -1   3  104.11    3.68
   3  -1   3  106.20    3.22
   3  -1   3  111.58    3.32
   3  -1   3  106.95    3.47
  -4   1  -3   44.70    1.43
   4  -1   3   44.47    1.41
   4  -1   3   45.65    1.61
   4  -1   3   46.22    1.51
   4  -1   3   46.69    1.43
  -5   1  -3    1.18    0.08
   5  -1   3    1.07    0.08
   5  -1   3    1.21    0.10
   5  -1   3    1.60    0.12
   5  -1   3    0.98    0.11
  -6   1  -3   37.57    1.23
   6  -1   3   38.14    1.30
   6  -1   3   38.24    1.39
   6  -1   3   38.89    1.23
   6  -1   3   38.43    1.21
  -7   1  -3    0.15    0.05
   7  -1   3    0.06    0.04
   7  -1   3    0.14    0.05
   7  -1   3    0.09    0.05
   7  -1   3    0.09    0.04
  -8   1  -3   54.19    1.71
   8  -1   3   53.04    1.91
   8  -1   3   53.89    1.67
   8  -1   3   49.26    1.78
   8  -1   3   54.20    1.70
  -9   1  -3    0.00    0.05
   9  -1   3    0.01    0.05
   9  -1   3    0.06    0.07
   9  -1   3    0.04    0.05
   9  -1   3    0.10    0.06
 -10   1  -3    6.23    0.30
  10  -1   3    6.14    0.31
  10  -1   3    6.15    0.29
  10  -1   3    5.73    0.32
  10  -1   3    6.54    0.36
  11  -1   3    3.65    0.26
  11  -1   3    3.08    0.23
  11  -1   3    2.72    0.21
  12  -1   3    1.16    0.18
  12  -1   3    0.84    0.14
  12  -1   3    1.05    0.15
  13  -1   3    0.55    0.12
  13  -1   3    0.42    0.13
  13  -1   3    0.39    0.12
  14  -1   3    6.82    0.39
  14  -1   3    6.23    0.37
  14  -1   3    6.32    0.42
  15  -1   3   -0.09    0.09
  15  -1   3    0.05    0.09
  15  -1   3   -0.06    0.09
  16  -1   3    7.31    0.44
  16  -1   3    7.12    0.45
  16  -1   3    8.39    0.50
  17  -1   3    0.21    0.12
  17  -1   3    0.12    0.14
  18  -1   3    0.68    0.18
  18  -1   3    0.48    0.18
  19   0  -3    0.56    0.16
  18   0  -3    0.18    0.13
  18   0  -3    0.09    0.14
  17   0  -3    0.74    0.16
  17   0  -3    0.43    0.12
  16   0  -3    2.79    0.25
  16   0  -3    2.27    0.21
  15   0  -3   -0.01    0.08
  15   0  -3    0.08    0.08
  14   0  -3    0.44    0.11
  14   0  -3    0.52    0.10
  13   0  -3   -0.02    0.06
  13   0  -3    0.07    0.06
  13   0  -3    0.12    0.08
 -13   0   3    0.08    0.08
  12   0  -3    0.86    0.12
  12   0  -3    0.41    0.09
  12   0  -3    0.67    0.10
 -12   0   3    0.57    0.11
  11   0  -3    9.75    0.42
  11   0  -3    9.30    0.36
  11   0  -3    9.64    0.40
 -11   0   3    9.28    0.42
  10   0  -3   -0.03    0.05
  10   0  -3    0.03    0.04
  10   0  -3    0.05    0.05
 -10   0   3   -0.03    0.05
   9   0  -3   17.61    0.65
   9   0  -3   18.17    0.68
   9   0  -3   17.68    0.59
  -9   0   3   18.73    0.66
   8   0  -3    8.34    0.30
   8   0  -3    8.26    0.34
  -8   0   3    8.19    0.34
   7   0  -3    1.51    0.10
   7   0  -3    1.74    0.09
  -7   0   3    1.69    0.12
   6   0  -3    1.99    0.11
   6   0  -3    2.16    0.10
  -6   0   3    2.05    0.13
   5   0  -3  104.16    3.54
   5   0  -3  107.19    3.11
  -5   0   3  102.91    3.26
   4   0  -3    7.10    0.26
   4   0  -3    8.23    0.27
  -4   0   3    7.54    0.28
   3   0  -3   13.15    0.45
  -3   0   3   13.63    0.45
   2   0  -3  214.14    7.14
  -2   0   3  210.17    6.54
   1   0  -3  106.54    3.42
   1   0  -3  109.01    3.17
   1   0  -3  109.33    3.60
   1   0  -3  108.73    3.27
  -1   0   3  103.76    3.60
  -1   0   3  102.86    3.28
   0   0  -3  363.92   10.49
   0   0  -3  365.86   12.03
   0   0  -3  351.75   11.32
   0   0   3  350.24   12.01
   0   0   3  351.44   11.35
   0   0   3  351.31   10.51
  -1   0  -3   39.32    1.32
  -1   0  -3   41.99    1.22
  -1   0  -3   41.70    1.40
   1   0   3   38.39    1.32
   1   0   3   40.18    1.40
   1   0   3   39.92    1.23
  -2   0  -3    5.26    0.19
  -2   0  -3    5.39    0.17
  -2   0  -3    5.47    0.21
   2   0   3    4.65    0.17
   2   0   3    4.92    0.21
  -3   0  -3    0.32    0.04
  -3   0  -3    0.35    0.05
   3   0   3    0.36    0.06
   3   0   3    0.41    0.07
   3   0   3    0.36    0.04
   3   0   3    0.68    0.07
  -4   0  -3    1.24    0.07
   4   0   3    1.07    0.07
   4   0   3    0.98    0.10
   4   0   3    1.25    0.10
   4   0   3    1.23    0.09
  -5   0  -3   87.27    2.73
   5   0   3   88.55    3.04
   5   0   3   87.32    2.85
   5   0   3   86.79    2.65
   5   0   3   89.08    2.73
  -6   0  -3    0.39    0.06
   6   0   3    0.47    0.07
   6   0   3    0.41    0.07
   6   0   3    0.36    0.06
   6   0   3    0.47    0.09
  -7   0  -3    6.26    0.26
   7   0   3    6.24    0.32
   7   0   3    6.16    0.29
   7   0   3    6.33    0.28
   7   0   3    6.75    0.27
  -8   0  -3    6.19    0.26
   8   0   3    5.93    0.29
   8   0   3    5.70    0.27
   8   0   3    5.90    0.32
   8   0   3    5.82    0.26
  -9   0  -3   22.67    0.77
   9   0   3   21.17    0.88
   9   0   3   21.77    0.82
   9   0   3   22.69    0.78
   9   0   3   21.97    0.77
 -10   0  -3    7.64    0.35
  10   0   3    8.34    0.37
  10   0   3    7.58    0.41
  10   0   3    7.41    0.36
  10   0   3    8.39    0.39
  11   0   3   17.21    0.72
  11   0   3   16.49    0.63
  11   0   3   14.41    0.64
  12   0   3    5.39    0.34
  12   0   3    4.71    0.30
  12   0   3    4.64    0.29
  13   0   3    6.31    0.39
  13   0   3    5.83    0.36
  13   0   3    6.11    0.35
  14   0   3    4.80    0.35
  14   0   3    3.88    0.29
  14   0   3    3.81    0.29
  15   0   3    1.01    0.19
  15   0   3    0.74    0.16
  15   0   3    0.92    0.17
  16   0   3   -0.06    0.10
  16   0   3   -0.07    0.11
  16   0   3    0.09    0.13
  17   0   3    1.06    0.22
  17   0   3    1.21    0.23
  17   0   3    0.95    0.19
  18   0   3    0.14    0.14
  18   0   3    0.14    0.15
  19  -1  -3    0.06    0.12
  18  -1  -3   -0.04    0.14
  18  -1  -3    0.16    0.12
  17  -1  -3    0.09    0.12
  17  -1  -3    0.01    0.09
  16  -1  -3    0.49    0.13
  16  -1  -3    0.36    0.11
  15  -1  -3    4.84    0.30
  15  -1  -3    4.36    0.26
  14  -1  -3    0.36    0.09
  14  -1  -3    0.51    0.11
  13  -1  -3    1.46    0.16
  13  -1  -3    1.08    0.13
 -13   1   3    1.24    0.18
  12  -1  -3   12.49    0.49
  12  -1  -3   11.71    0.45
 -12   1   3   11.81    0.52
  11  -1  -3   11.87    0.47
  11  -1  -3   11.62    0.43
 -11   1   3   11.95    0.50
  10  -1  -3    1.57    0.13
  10  -1  -3    1.51    0.11
 -10   1   3    1.56    0.15
   9  -1  -3    0.20    0.06
   9  -1  -3    0.10    0.04
  -9   1   3    0.18    0.07
   8  -1  -3    7.36    0.27
   8  -1  -3    7.08    0.30
  -8   1   3    7.83    0.33
   7  -1  -3    9.34    0.32
  -7   1   3    9.56    0.37
   6  -1  -3   36.57    1.13
  -6   1   3   38.08    1.22
   5  -1  -3   16.05    0.50
  -5   1   3   16.15    0.56
   4  -1  -3   11.73    0.37
  -4   1   3   11.95    0.41
  -3   1   3   51.33    1.61
   1  -1  -3    8.27    0.27
   1  -1  -3    7.93    0.26
  -1   1   3    8.03    0.27
   0  -1  -3   45.40    1.49
   0  -1  -3   47.74    1.38
   0   1   3   44.41    1.49
   0   1   3   46.29    1.38
   0   1   3   45.12    1.41
  -1  -1  -3  326.75    9.32
  -1  -1  -3  318.95   10.02
   1   1   3  316.11    9.66
   1   1   3  311.17   10.03
   1   1   3  313.76    9.65
   1   1   3  307.89    9.35
  -2  -1  -3   63.01    1.94
  -2  -1  -3   65.69    1.89
  -2  -1  -3   61.08    1.94
  -2  -1  -3   65.59    2.04
   2   1   3   63.10    1.90
   2   1   3   61.06    2.05
   2   1   3   62.68    1.95
  -3  -1  -3   74.17    2.39
  -3  -1  -3   84.59    2.50
   3   1   3   71.51    2.68
   3   1   3   77.53    2.51
   3   1   3   78.73    2.40
   3   1   3   80.06    2.34
  -4  -1  -3    4.43    0.17
   4   1   3    4.08    0.19
   4   1   3    4.58    0.18
   4   1   3    4.76    0.23
   4   1   3    4.10    0.20
  -5  -1  -3    0.61    0.06
   5   1   3    0.62    0.08
   5   1   3    0.46    0.07
   5   1   3    0.73    0.09
   5   1   3    0.68    0.07
  -6  -1  -3   26.31    0.83
   6   1   3   25.84    0.84
   6   1   3   24.93    0.83
   6   1   3   25.27    0.89
   6   1   3   24.23    0.95
  -7  -1  -3    0.54    0.07
   7   1   3    0.66    0.09
   7   1   3    0.39    0.08
   7   1   3    0.81    0.10
   7   1   3    0.47    0.07
  -8  -1  -3   36.82    1.15
   8   1   3   34.52    1.13
   8   1   3   34.38    1.30
   8   1   3   35.06    1.16
   8   1   3   33.46    1.21
  -9  -1  -3    1.24    0.12
   9   1   3    0.98    0.12
   9   1   3    0.84    0.13
   9   1   3    1.08    0.12
   9   1   3    1.06    0.13
  10   1   3   41.29    1.55
  10   1   3   40.12    1.44
  10   1   3   42.08    1.35
  11   1   3   12.68    0.53
  11   1   3   11.42    0.49
  11   1   3   11.56    0.57
  12   1   3    0.68    0.15
  12   1   3    0.42    0.12
  12   1   3    0.51    0.11
  13   1   3    3.39    0.27
  13   1   3    3.86    0.30
  13   1   3    3.36    0.26
  14   1   3    1.85    0.22
  14   1   3    1.16    0.20
  14   1   3    1.52    0.20
  15   1   3    0.17    0.12
  15   1   3    0.06    0.10
  15   1   3   -0.06    0.10
  16   1   3    0.00    0.11
  16   1   3    0.29    0.14
  16   1   3    0.08    0.11
  17   1   3    0.14    0.14
  17   1   3    0.20    0.12
  17   1   3    0.32    0.15
  18   1   3   -0.02    0.12
  18   1   3    0.00    0.12
  18   1   3    0.09    0.14
  18  -2  -3    1.60    0.21
  18  -2  -3    1.40    0.21
  17  -2  -3    1.24    0.20
  17  -2  -3    0.96    0.16
  16  -2  -3    7.47    0.41
  16  -2  -3    7.25    0.38
  15  -2  -3    6.93    0.37
  15  -2  -3    6.66    0.34
  14  -2  -3   14.71    0.56
  14  -2  -3   14.98    0.61
  13  -2  -3    1.37    0.16
  13  -2  -3    0.99    0.12
 -13   2   3    1.25    0.18
  12  -2  -3    4.22    0.22
  12  -2  -3    4.67    0.25
 -12   2   3    4.29    0.28
  11  -2  -3    0.98    0.11
  11  -2  -3    1.49    0.15
 -11   2   3    1.36    0.17
  10  -2  -3   18.72    0.72
  10  -2  -3   19.99    0.66
 -10   2   3   21.48    0.76
   9  -2  -3    3.94    0.20
   9  -2  -3    3.69    0.17
  -9   2   3    4.03    0.23
   8  -2  -3    3.10    0.14
   8  -2  -3    3.22    0.17
  -8   2   3    3.14    0.19
   7  -2  -3    4.92    0.19
   7  -2  -3    4.72    0.21
  -7   2   3    5.24    0.24
   6  -2  -3    8.81    0.29
  -6   2   3    8.29    0.34
   5  -2  -3    0.06    0.02
  -5   2   3    0.04    0.04
  -5   2   3    0.05    0.02
   4  -2  -3   18.71    0.56
  -4   2   3   18.50    0.63
   3  -2  -3   68.64    2.05
  -3   2   3   70.05    2.17
   2  -2  -3   12.77    0.39
  -2   2   3   12.55    0.43
   1  -2  -3  234.16    6.74
  -1   2   3  222.70    7.03
  -1   2   3  229.89    6.74
   0  -2  -3   27.40    0.94
   0  -2  -3   29.48    0.86
   0  -2  -3   27.82    0.90
   0   2   3   29.05    0.87
   0   2   3   29.17    0.90
  -1  -2  -3   30.85    0.96
  -1  -2  -3   34.07    0.94
  -1  -2  -3   31.08    1.02
   1   2   3   30.87    0.98
   1   2   3   30.51    0.95
   1   2   3   29.70    1.03
   1   2   3   30.68    0.98
  -2  -2  -3   12.83    0.44
  -2  -2  -3   13.56    0.41
  -2  -2  -3   12.97    0.41
   2   2   3   12.77    0.43
   2   2   3   12.36    0.42
   2   2   3   11.64    0.45
  -3  -2  -3    1.80    0.09
  -3  -2  -3    1.32    0.07
   3   2   3    1.64    0.10
   3   2   3    1.59    0.09
   3   2   3    1.52    0.09
  -4  -2  -3   10.89    0.37
   4   2   3   11.01    0.41
   4   2   3   11.24    0.39
   4   2   3   10.77    0.39
  -5  -2  -3   10.39    0.36
   5   2   3   10.28    0.38
   5   2   3   10.57    0.40
   5   2   3   10.00    0.38
  -6  -2  -3   11.93    0.43
   6   2   3   13.40    0.53
   6   2   3   12.09    0.44
   6   2   3   12.21    0.45
   6   2   3   11.92    0.47
  -7  -2  -3    3.88    0.18
   7   2   3    3.90    0.24
   7   2   3    3.51    0.20
   7   2   3    3.92    0.20
   7   2   3    3.92    0.20
  -8  -2  -3    0.41    0.07
   8   2   3    0.43    0.08
   8   2   3    0.55    0.09
   8   2   3    0.40    0.08
   8   2   3    0.48    0.11
  -9  -2  -3   10.54    0.40
   9   2   3    9.45    0.43
   9   2   3    9.49    0.48
   9   2   3   10.51    0.42
   9   2   3   10.30    0.43
  10   2   3    2.36    0.19
  10   2   3    2.25    0.19
  10   2   3    1.78    0.19
  11   2   3    1.53    0.17
  11   2   3    1.80    0.22
  11   2   3    1.54    0.18
  12   2   3    0.58    0.12
  12   2   3    0.47    0.12
  12   2   3    0.21    0.12
  13   2   3    3.12    0.25
  13   2   3    3.43    0.29
  13   2   3    2.94    0.24
  14   2   3    0.77    0.15
  14   2   3    1.11    0.20
  14   2   3    0.85    0.16
  15   2   3    1.97    0.26
  15   2   3    1.98    0.24
  15   2   3    1.37    0.21
  16   2   3    0.27    0.13
  16   2   3    0.13    0.12
  16   2   3    0.22    0.15
  17   2   3    0.14    0.13
  17   2   3   -0.05    0.12
  17   2   3    0.11    0.13
  18   2   3    1.59    0.27
  18   2   3    1.50    0.25
  18   2   3    1.72    0.27
  18  -3  -3    3.56    0.32
  17  -3  -3    0.99    0.19
  17  -3  -3    1.36    0.18
  16  -3  -3    7.32    0.37
  16  -3  -3    8.01    0.43
  15  -3  -3    1.56    0.19
  15  -3  -3    1.83    0.18
  14  -3  -3    1.85    0.17
  14  -3  -3    2.06    0.20
 -14   3   3    2.12    0.25
  13  -3  -3    3.60    0.22
  13  -3  -3    4.01    0.25
 -13   3   3    3.59    0.28
  12  -3  -3    3.45    0.20
  12  -3  -3    3.93    0.23
 -12   3   3    3.89    0.27
  11  -3  -3   17.12    0.58
  11  -3  -3   16.63    0.63
 -11   3   3   16.53    0.67
  10  -3  -3    1.69    0.14
  10  -3  -3    1.41    0.11
 -10   3   3    1.22    0.16
   9  -3  -3    3.32    0.16
   9  -3  -3    3.25    0.18
  -9   3   3    3.44    0.22
   8  -3  -3   21.86    0.80
   8  -3  -3   23.91    0.73
  -8   3   3   23.94    0.83
   7  -3  -3    0.83    0.08
   7  -3  -3    0.65    0.06
  -7   3   3    0.92    0.11
  -7   3   3    0.61    0.06
   6  -3  -3   15.63    0.49
  -6   3   3   15.77    0.56
  -6   3   3   15.57    0.57
   5  -3  -3   18.97    0.57
  -5   3   3   18.53    0.66
   4  -3  -3   15.48    0.46
  -4   3   3   14.73    0.53
  -3   3   3   86.78    2.71
  -2   3   3    0.18    0.04
   1  -3  -3   87.20    2.45
  -1   3   3   84.07    2.46
  -1   3   3   78.10    2.58
   0  -3  -3   35.54    1.02
   0  -3  -3   35.21    1.09
   0  -3  -3   33.20    1.12
   0   3   3   33.31    1.10
   0   3   3   33.87    1.04
  -1  -3  -3   38.62    1.18
  -1  -3  -3   36.58    1.22
  -1  -3  -3   40.48    1.13
   1   3   3   37.08    1.14
   1   3   3   36.90    1.22
   1   3   3   35.20    1.19
  -2  -3  -3   28.87    1.00
  -2  -3  -3   36.58    1.04
   2   3   3   30.19    1.03
   2   3   3   31.38    1.05
   2   3   3   31.81    0.98
  -3  -3  -3    0.96    0.06
   3   3   3    0.60    0.07
   3   3   3    0.85    0.08
   3   3   3    0.94    0.08
  -4  -3  -3    8.46    0.27
  -4  -3  -3    6.66    0.26
   4   3   3    7.05    0.29
   4   3   3    6.95    0.28
   4   3   3    7.13    0.29
  -5  -3  -3    4.30    0.17
   5   3   3    3.93    0.18
   5   3   3    3.17    0.18
   5   3   3    3.92    0.19
  -6  -3  -3    2.12    0.12
   6   3   3    2.38    0.14
   6   3   3    2.36    0.14
   6   3   3    2.33    0.15
  -7  -3  -3    1.51    0.11
   7   3   3    2.21    0.15
   7   3   3    1.67    0.14
   7   3   3    1.86    0.13
  -8  -3  -3   14.39    0.52
   8   3   3   14.77    0.54
   8   3   3   14.05    0.63
   8   3   3   14.54    0.56
   8   3   3   14.22    0.56
   9   3   3    2.36    0.19
   9   3   3    2.54    0.18
   9   3   3    2.13    0.18
   9   3   3    2.36    0.20
  10   3   3    8.19    0.45
  10   3   3    8.84    0.39
  10   3   3    9.15    0.41
  11   3   3    0.69    0.12
  11   3   3    0.69    0.13
  11   3   3    0.70    0.15
  12   3   3    2.83    0.24
  12   3   3    3.54    0.29
  12   3   3    3.11    0.24
  13   3   3    2.82    0.24
  13   3   3    2.98    0.27
  13   3   3    2.83    0.25
  14   3   3    1.95    0.25
  14   3   3    1.66    0.21
  14   3   3    1.52    0.19
  15   3   3    0.34    0.13
  15   3   3    0.08    0.12
  15   3   3    0.36    0.12
  16   3   3    0.36    0.14
  16   3   3    0.55    0.15
  16   3   3    0.52    0.17
  17   3   3   -0.32    0.11
  17   3   3   -0.11    0.11
  17   3   3   -0.01    0.11
  18   3   3    0.26    0.17
  18   3   3    0.24    0.17
  18  -4  -3    0.50    0.16
  17  -4  -3    0.50    0.15
  16  -4  -3    0.24    0.12
  15  -4  -3    3.38    0.26
  15  -4  -3    3.04    0.22
  14  -4  -3    0.25    0.08
  14  -4  -3    0.36    0.11
 -14   4   3    0.10    0.11
  13  -4  -3    0.43    0.09
  13  -4  -3    0.63    0.11
 -13   4   3    0.70    0.15
  12  -4  -3    0.52    0.10
  12  -4  -3    0.42    0.08
 -12   4   3    0.62    0.14
  11  -4  -3    7.31    0.30
  11  -4  -3    6.79    0.33
 -11   4   3    7.55    0.39
  10  -4  -3    7.63    0.34
  10  -4  -3    8.20    0.31
 -10   4   3    7.80    0.39
   9  -4  -3   12.70    0.44
   9  -4  -3   12.46    0.48
  -9   4   3   12.68    0.53
   8  -4  -3    0.38    0.07
   8  -4  -3    0.34    0.05
  -8   4   3    0.19    0.05
  -8   4   3    0.29    0.09
   7  -4  -3   37.55    1.28
   7  -4  -3   39.05    1.17
  -7   4   3   38.55    1.34
  -7   4   3   38.87    1.30
   6  -4  -3   16.79    0.52
   6  -4  -3   16.44    0.58
  -6   4   3   16.32    0.61
   5  -4  -3    0.93    0.05
   5  -4  -3    0.94    0.07
  -5   4   3    0.79    0.10
  -4   4   3   25.79    0.88
  -3   4   3    6.17    0.27
  -2   4   3   19.09    0.66
   1  -4  -3    4.70    0.15
  -1   4   3    4.05    0.20
  -1   4   3    4.52    0.16
   0  -4  -3   34.46    1.16
   0  -4  -3   35.19    1.15
   0  -4  -3   36.01    1.07
   0   4   3   37.02    1.08
   0   4   3   35.33    1.16
  -1  -4  -3    5.87    0.24
  -1  -4  -3    6.21    0.21
  -1  -4  -3    6.66    0.22
   1   4   3    6.06    0.26
   1   4   3    5.89    0.22
  -2  -4  -3   21.25    0.71
  -2  -4  -3   23.19    0.70
   2   4   3   22.09    0.68
   2   4   3   20.30    0.73
   2   4   3   20.53    0.72
  -3  -4  -3   16.80    0.51
  -3  -4  -3   14.51    0.52
   3   4   3   14.67    0.51
   3   4   3   15.89    0.54
   3   4   3   15.39    0.56
  -4  -4  -3   11.51    0.40
  -4  -4  -3   12.27    0.39
   4   4   3   11.04    0.43
   4   4   3   11.06    0.40
   4   4   3   10.76    0.42
  -5  -4  -3    4.93    0.21
   5   4   3    4.92    0.22
   5   4   3    5.08    0.24
   5   4   3    5.33    0.23
  -6  -4  -3   14.61    0.53
   6   4   3   14.90    0.57
   6   4   3   16.07    0.56
   6   4   3   15.26    0.54
  -7  -4  -3   13.97    0.50
   7   4   3   14.46    0.55
   7   4   3   13.51    0.51
   7   4   3   13.71    0.53
  -8  -4  -3   10.54    0.41
   8   4   3   10.63    0.43
   8   4   3   11.19    0.45
   8   4   3   10.14    0.45
   9   4   3   12.19    0.52
   9   4   3   13.18    0.50
  10   4   3   18.91    0.75
  10   4   3   20.17    0.85
  10   4   3   19.77    0.72
  11   4   3   20.42    0.82
  11   4   3   22.06    0.79
  11   4   3   21.64    0.92
  12   4   3    1.11    0.17
  12   4   3    1.05    0.18
  12   4   3    1.02    0.16
  13   4   3    5.22    0.38
  13   4   3    5.12    0.33
  13   4   3    5.27    0.33
  14   4   3    0.56    0.14
  14   4   3    0.74    0.17
  14   4   3    0.44    0.13
  15   4   3    0.06    0.11
  15   4   3    0.10    0.11
  15   4   3   -0.09    0.11
  16   4   3   -0.09    0.11
  16   4   3    0.25    0.15
  16   4   3   -0.05    0.11
  17   4   3    0.04    0.13
  17   4   3   -0.05    0.12
  17   4   3    0.07    0.13
  18   4   3   -0.18    0.14
  18  -5  -3   -0.15    0.13
  17  -5  -3    0.03    0.12
  16  -5  -3   -0.05    0.11
  15  -5  -3    2.52    0.24
  14  -5  -3    0.26    0.11
 -14   5   3    0.07    0.12
  13  -5  -3    3.91    0.26
  13  -5  -3    3.66    0.22
 -13   5   3    4.36    0.32
  12  -5  -3    1.12    0.13
  12  -5  -3    1.44    0.16
 -12   5   3    0.87    0.17
  11  -5  -3    0.26    0.07
  11  -5  -3    0.35    0.09
 -11   5   3    0.14    0.10
  10  -5  -3    3.37    0.18
  10  -5  -3    3.81    0.21
 -10   5   3    3.02    0.25
   9  -5  -3    8.55    0.35
   9  -5  -3    7.84    0.31
  -9   5   3    7.86    0.40
   8  -5  -3   17.97    0.65
   8  -5  -3   18.48    0.59
  -8   5   3   17.40    0.69
   7  -5  -3    1.08    0.10
   7  -5  -3    1.14    0.07
  -7   5   3    1.25    0.15
   6  -5  -3    5.46    0.19
   6  -5  -3    5.69    0.23
  -6   5   3    5.35    0.28
   5  -5  -3    0.59    0.06
  -5   5   3    0.46    0.09
   4  -5  -3    1.09    0.07
  -4   5   3    0.94    0.11
   3  -5  -3    1.15    0.07
  -3   5   3    1.10    0.11
  -2   5   3   44.65    1.46
   1  -5  -3    4.62    0.19
  -1   5   3    4.70    0.16
  -1   5   3    4.33    0.22
   0  -5  -3    3.77    0.15
   0  -5  -3    3.72    0.19
   0  -5  -3    3.65    0.14
   0   5   3    4.04    0.15
   0   5   3    3.74    0.20
  -1  -5  -3  106.10    3.29
   1   5   3  104.28    3.31
   1   5   3  105.84    3.13
  -2  -5  -3    3.67    0.18
  -2  -5  -3    4.35    0.14
   2   5   3    3.86    0.15
   2   5   3    4.12    0.17
  -3  -5  -3    0.09    0.04
   3   5   3    0.12    0.04
   3   5   3    0.12    0.05
   3   5   3    0.10    0.03
  -4  -5  -3    6.89    0.27
   4   5   3    6.78    0.27
   4   5   3    6.64    0.31
   4   5   3    6.64    0.27
  -5  -5  -3    0.27    0.06
   5   5   3    0.47    0.07
   5   5   3    0.32    0.08
   5   5   3    0.31    0.06
  -6  -5  -3   17.85    0.62
   6   5   3   18.19    0.62
   6   5   3   17.82    0.64
   6   5   3   17.45    0.67
  -7  -5  -3    3.74    0.19
   7   5   3    4.50    0.22
   7   5   3    4.35    0.25
   7   5   3    4.01    0.22
   8   5   3   37.86    1.22
   8   5   3   36.81    1.29
   9   5   3    6.26    0.30
   9   5   3    5.49    0.29
  10   5   3   36.51    1.17
  10   5   3   32.21    1.21
  11   5   3    4.94    0.30
  11   5   3    5.05    0.30
  11   5   3    4.95    0.35
  12   5   3    0.89    0.19
  12   5   3    0.73    0.14
  12   5   3    0.53    0.12
  13   5   3    0.36    0.13
  13   5   3    0.32    0.11
  13   5   3    0.08    0.11
  14   5   3    1.25    0.19
  14   5   3    1.18    0.19
  14   5   3    1.52    0.24
  15   5   3   -0.12    0.10
  15   5   3    0.04    0.12
  15   5   3   -0.10    0.10
  16   5   3    0.05    0.11
  16   5   3    0.25    0.15
  17   5   3    0.35    0.17
  18  -6  -3    0.20    0.16
  17  -6  -3    1.33    0.21
  16  -6  -3    1.84    0.23
  15  -6  -3    6.90    0.40
  14  -6  -3    5.83    0.35
 -14   6   3    6.15    0.43
  13  -6  -3    2.28    0.20
 -13   6   3    2.80    0.27
  12  -6  -3    3.85    0.25
 -12   6   3    4.04    0.31
  11  -6  -3    0.54    0.09
  11  -6  -3    1.01    0.13
 -11   6   3    0.73    0.15
  10  -6  -3   13.72    0.50
  10  -6  -3   14.70    0.56
 -10   6   3   14.42    0.63
   9  -6  -3   19.02    0.65
   9  -6  -3   19.87    0.72
  -9   6   3   20.98    0.79
   8  -6  -3   18.00    0.64
   8  -6  -3   17.05    0.56
  -8   6   3   17.19    0.70
   7  -6  -3    0.87    0.06
   7  -6  -3    1.06    0.10
  -7   6   3    1.07    0.15
   6  -6  -3    0.19    0.05
  -6   6   3    0.20    0.08
   5  -6  -3    7.98    0.30
  -5   6   3    7.66    0.36
   4  -6  -3    2.21    0.11
  -4   6   3    2.32    0.17
   3  -6  -3    3.77    0.15
  -3   6   3    3.82    0.22
   2  -6  -3   15.96    0.50
  -2   6   3   13.58    0.56
   1  -6  -3    1.75    0.07
   1  -6  -3    1.48    0.09
  -1   6   3    1.27    0.13
  -1   6   3    1.56    0.08
   0  -6  -3    7.04    0.31
   0   6   3    6.93    0.32
   0   6   3    6.86    0.24
  -1  -6  -3   23.22    0.78
   1   6   3   21.56    0.79
   1   6   3   22.28    0.70
  -2  -6  -3   19.94    0.67
   2   6   3   18.70    0.62
  -3  -6  -3    1.24    0.11
   3   6   3    1.18    0.07
   3   6   3    1.37    0.10
  -4  -6  -3    0.96    0.10
   4   6   3    0.76    0.08
   4   6   3    0.87    0.07
   4   6   3    0.80    0.12
  -5  -6  -3    1.47    0.11
   5   6   3    1.68    0.11
   5   6   3    1.70    0.12
   5   6   3    1.62    0.16
  -6  -6  -3    0.76    0.09
   6   6   3    0.68    0.09
   6   6   3    0.82    0.09
   6   6   3    0.95    0.14
   7   6   3    2.90    0.19
   7   6   3    2.95    0.18
   8   6   3    0.88    0.11
   8   6   3    0.77    0.11
   9   6   3    0.34    0.09
   9   6   3    0.43    0.10
  10   6   3   15.73    0.63
  10   6   3   15.85    0.62
  11   6   3    0.80    0.13
  11   6   3    0.67    0.13
  12   6   3    3.71    0.26
  12   6   3    3.48    0.26
  12   6   3    3.50    0.32
  13   6   3    0.72    0.15
  13   6   3    0.80    0.15
  13   6   3    0.97    0.21
  14   6   3    0.55    0.15
  14   6   3    0.28    0.15
  15   6   3    0.19    0.15
  15   6   3    0.06    0.11
  16   6   3    0.29    0.14
  16   6   3    0.35    0.17
  17  -7  -3    1.32    0.22
  16  -7  -3    5.16    0.36
  15  -7  -3    1.01    0.17
  14  -7  -3    4.65    0.31
  13  -7  -3   -0.06    0.09
 -13   7   3    0.07    0.11
  12  -7  -3    3.12    0.23
 -12   7   3    2.69    0.30
  11  -7  -3   12.29    0.52
 -11   7   3   12.40    0.60
  10  -7  -3    0.20    0.08
 -10   7   3    0.03    0.10
   9  -7  -3    2.66    0.18
  -9   7   3    2.64    0.24
   8  -7  -3   15.73    0.59
  -8   7   3   15.88    0.67
   7  -7  -3    0.76    0.09
  -7   7   3    0.75    0.14
   6  -7  -3   30.13    0.99
  -6   7   3   28.30    1.05
   5  -7  -3   23.39    0.76
  -5   7   3   20.79    0.82
   4  -7  -3    7.06    0.27
  -4   7   3    6.85    0.35
   3  -7  -3   60.12    1.86
  -3   7   3   54.94    1.90
   2  -7  -3    9.56    0.32
  -2   7   3    8.83    0.41
   1  -7  -3   46.62    1.55
   1  -7  -3   49.12    1.60
   1  -7  -3   47.39    1.54
  -1   7   3   48.83    1.61
  -1   7   3   49.20    1.44
   0  -7  -3   26.50    0.93
   0   7   3   27.05    0.82
   0   7   3   26.41    0.95
  -1  -7  -3    0.81    0.11
   1   7   3    0.77    0.07
   1   7   3    0.61    0.11
  -2  -7  -3   26.43    0.91
   2   7   3   26.66    0.84
  -3  -7  -3    7.62    0.32
   3   7   3    7.42    0.29
  -4  -7  -3    5.97    0.27
   4   7   3    6.21    0.32
   4   7   3    5.51    0.25
   5   7   3    2.47    0.16
   5   7   3    2.80    0.21
   5   7   3    2.68    0.14
   6   7   3    0.84    0.09
   6   7   3    0.78    0.11
   7   7   3    0.23    0.07
   7   7   3    0.23    0.06
   8   7   3    7.63    0.34
   8   7   3    6.97    0.32
   9   7   3    1.10    0.13
   9   7   3    1.00    0.14
  10   7   3    0.72    0.13
  10   7   3    0.70    0.12
  11   7   3    0.09    0.09
  12   7   3    6.33    0.44
  12   7   3    6.48    0.37
  13   7   3    1.27    0.20
  13   7   3    1.23    0.23
  14   7   3    0.80    0.17
  14   7   3    1.14    0.23
  15   7   3    0.34    0.15
  15   7   3    0.26    0.17
  16   7   3    1.18    0.26
  17  -8  -3    3.27    0.32
  16  -8  -3    0.76    0.18
  15  -8  -3    2.83    0.27
  14  -8  -3    2.68    0.25
  13  -8  -3    0.53    0.12
 -13   8   3    0.42    0.15
  12  -8  -3    5.28    0.31
 -12   8   3    5.58    0.39
  11  -8  -3   12.85    0.55
 -11   8   3   12.99    0.64
  10  -8  -3    0.06    0.07
 -10   8   3    0.14    0.12
   9  -8  -3    2.63    0.18
  -9   8   3    1.86    0.24
   8  -8  -3    5.75    0.28
  -8   8   3    5.88    0.36
   7  -8  -3   18.57    0.66
  -7   8   3   17.40    0.74
   6  -8  -3    3.27    0.17
  -6   8   3    3.36    0.25
   5  -8  -3   12.88    0.46
  -5   8   3   12.17    0.55
   4  -8  -3    1.70    0.10
  -4   8   3    1.45    0.18
   3  -8  -3   28.18    0.92
  -3   8   3   27.33    1.01
   2  -8  -3    4.15    0.16
  -2   8   3    3.68    0.26
   1  -8  -3   72.93    2.33
  -1   8   3   72.19    2.13
  -1   8   3   69.58    2.34
   0  -8  -3   17.12    0.66
   0   8   3   17.02    0.68
   0   8   3   17.48    0.55
  -1  -8  -3   13.27    0.53
   1   8   3   13.61    0.45
   1   8   3   13.09    0.56
  -2  -8  -3   13.15    0.51
   2   8   3   12.90    0.45
   3   8   3    7.95    0.31
   4   8   3    4.27    0.21
   5   8   3    2.44    0.16
   6   8   3    0.00    0.06
   7   8   3   10.60    0.43
   8   8   3    5.43    0.29
   9   8   3   12.46    0.52
  10   8   3    3.42    0.25
  11   8   3    4.43    0.29
  12   8   3    0.91    0.17
  13   8   3    5.18    0.41
  13   8   3    3.80    0.31
  14   8   3   -0.07    0.13
  14   8   3   -0.16    0.10
  15   8   3   -0.06    0.12
  15   8   3   -0.06    0.14
  17  -9  -3    0.87    0.20
  16  -9  -3   -0.07    0.11
  15  -9  -3   -0.04    0.09
  14  -9  -3   -0.11    0.09
  13  -9  -3    0.23    0.11
 -13   9   3    0.22    0.15
  12  -9  -3   -0.02    0.08
 -12   9   3    0.02    0.11
  11  -9  -3    0.69    0.13
 -11   9   3    0.53    0.16
  10  -9  -3    2.70    0.20
 -10   9   3    2.03    0.27
   9  -9  -3    2.27    0.18
  -9   9   3    2.41    0.27
   8  -9  -3    4.20    0.24
  -8   9   3    4.59    0.33
   7  -9  -3    4.92    0.24
  -7   9   3    4.83    0.34
   6  -9  -3    4.20    0.21
  -6   9   3    4.20    0.30
   5  -9  -3    6.46    0.28
  -5   9   3    6.82    0.38
   4  -9  -3   18.52    0.65
  -4   9   3   18.60    0.76
   3  -9  -3    0.72    0.07
  -3   9   3    0.89    0.15
  -2   9   3   12.57    0.56
  -1   9   3    2.94    0.24
  -1   9   3    3.02    0.13
   0   9   3   13.37    0.59
   0   9   3   13.99    0.45
   1   9   3    6.75    0.37
   1   9   3    7.40    0.27
   2   9   3    9.95    0.36
   3   9   3   15.29    0.53
   4   9   3    5.04    0.24
   5   9   3   -0.04    0.05
   6   9   3   11.67    0.46
   7   9   3    1.15    0.14
   8   9   3   18.47    0.69
   9   9   3    3.63    0.25
  10   9   3    4.77    0.30
  11   9   3    3.16    0.26
  12   9   3    3.64    0.29
  13   9   3    3.21    0.35
  13   9   3    2.90    0.28
  14   9   3   -0.08    0.16
  14   9   3    0.01    0.11
  16 -10  -3    0.06    0.12
  15 -10  -3    0.32    0.14
  14 -10  -3    0.34    0.13
  13 -10  -3    1.63    0.21
 -13  10   3    1.88    0.29
  12 -10  -3    0.70    0.14
 -12  10   3    0.89    0.20
  11 -10  -3    2.74    0.23
 -11  10   3    2.58    0.31
  10 -10  -3    7.83    0.39
 -10  10   3    8.54    0.50
   9 -10  -3    0.55    0.11
  -9  10   3    0.61    0.17
   8 -10  -3    1.41    0.15
  -8  10   3    1.79    0.24
   7 -10  -3    0.48    0.09
  -7  10   3    0.41    0.15
   6 -10  -3    9.81    0.41
  -6  10   3   10.53    0.53
   5 -10  -3    0.14    0.05
  -5  10   3    0.00    0.09
   4 -10  -3    8.34    0.33
  -4  10   3    8.34    0.45
  -3  10   3    0.81    0.16
  -2  10   3   11.00    0.53
  -1  10   3   12.36    0.56
  -1  10   3   11.73    0.39
   0  10   3    3.23    0.15
   0  10   3    3.12    0.25
   1  10   3    0.34    0.06
   2  10   3    8.52    0.33
   3  10   3    6.72    0.28
   4  10   3    6.40    0.28
   5  10   3    4.17    0.23
   6  10   3    0.12    0.07
   7  10   3    4.89    0.27
   8  10   3    3.21    0.23
   9  10   3    0.35    0.11
  10  10   3    3.03    0.25
  11  10   3    0.22    0.12
  12  10   3    6.06    0.39
  13  10   3    0.29    0.17
  13  10   3    0.04    0.12
  16 -11  -3    3.54    0.34
  15 -11  -3    1.13    0.20
  14 -11  -3    0.05    0.12
  13 -11  -3    1.07    0.19
  12 -11  -3    1.27    0.18
 -12  11   3    1.66    0.28
  11 -11  -3    2.70    0.24
 -11  11   3    3.44    0.34
  10 -11  -3    0.16    0.09
 -10  11   3    0.06    0.13
   9 -11  -3    0.03    0.08
  -9  11   3    0.05    0.11
   8 -11  -3    3.99    0.25
  -8  11   3    4.01    0.36
  -7  11   3    0.66    0.17
  -6  11   3    2.16    0.27
  -5  11   3    5.18    0.37
  -4  11   3    0.71    0.16
  -3  11   3    4.01    0.31
  -2  11   3   18.40    0.79
  -1  11   3    4.55    0.33
   0  11   3   18.70    0.79
   1  11   3    8.37    0.32
   2  11   3    7.16    0.29
   3  11   3    1.70    0.14
   4  11   3    2.14    0.16
   5  11   3    0.54    0.10
   6  11   3    0.17    0.09
   7  11   3    3.16    0.23
   8  11   3    1.20    0.16
   9  11   3    0.00    0.09
  10  11   3   -0.03    0.09
  11  11   3    0.14    0.12
  12  11   3    0.68    0.17
  13  11   3   -0.03    0.11
 -12  12   3    6.35    0.50
 -11  12   3    3.64    0.41
 -10  12   3    0.66    0.20
  -9  12   3    3.61    0.35
  -8  12   3    1.35    0.24
  -7  12   3    3.83    0.35
  -6  12   3    0.67    0.18
  -5  12   3    1.86    0.26
  -4  12   3   -0.04    0.12
  -3  12   3   17.99    0.80
  -2  12   3    1.76    0.24
  -1  12   3    2.48    0.28
   4  12   3    0.08    0.07
   5  12   3    0.00    0.07
   6  12   3    0.25    0.09
   7  12   3    1.36    0.16
   8  12   3   -0.01    0.09
   9  12   3    1.86    0.21
  10  12   3    0.67    0.15
  11  12   3    4.77    0.34
  12  12   3    0.21    0.14
 -11  13   3    0.28    0.17
 -10  13   3    3.05    0.37
  -9  13   3    0.13    0.16
  -8  13   3    2.62    0.33
  -7  13   3    0.37    0.17
  -6  13   3    0.54    0.18
  -5  13   3    0.24    0.15
  -4  13   3    3.38    0.34
  -3  13   3    1.90    0.27
  -2  13   3    7.07    0.45
  -1  13   3    0.10    0.12
   8  13   3    4.39    0.30
   9  13   3    2.01    0.23
  10  13   3    4.54    0.33
  11  13   3    0.00    0.13
 -10  14   3    1.27    0.27
  -9  14   3    2.85    0.37
  -8  14   3    0.59    0.21
  -7  14   3    4.54    0.41
  -6  14   3    0.09    0.16
  -5  14   3    0.53    0.17
  -4  14   3    0.03    0.12
  -3  14   3    0.28    0.15
  -2  14   3   -0.04    0.11
 -10  15   3    0.81    0.25
  -9  15   3    0.13    0.18
  -8  15   3    1.42    0.29
  -7  15   3    0.19    0.19
  -6  15   3    0.30    0.18
  -5  15   3    0.14    0.16
  -4  15   3    0.03    0.13
  -3  15   3    0.05    0.13
  -2  15   3    6.04    0.46
  -9  16   3    0.10    0.21
  -8  16   3    0.50    0.23
  -7  16   3    0.51    0.22
  -6  16   3    1.64    0.31
  -5  16   3    0.75    0.23
  -4  16   3    0.25    0.17
  -3  16   3    6.57    0.51
  -7  17   3    0.01    0.19
  -6  17   3    2.38    0.38
  -5  17   3    0.32    0.20
  -4  17   3    1.90    0.33
   8  17  -4    1.97    0.22
   7  17  -4    0.65    0.15
   6  17  -4    0.65    0.13
   5  17  -4    2.50    0.22
  10  16  -4    1.81    0.22
   9  16  -4    0.78    0.16
   8  16  -4   -0.14    0.10
   7  16  -4    2.73    0.23
   6  16  -4    3.47    0.26
   5  16  -4    0.32    0.11
   4  16  -4    1.50    0.16
   3  16  -4    0.35    0.10
   2  16  -4    4.01    0.24
   1  16  -4    0.54    0.11
  11  15  -4    0.21    0.13
  10  15  -4    0.19    0.12
   9  15  -4    3.05    0.26
   8  15  -4    3.04    0.25
   7  15  -4    0.08    0.10
   6  15  -4    2.95    0.22
   5  15  -4    0.17    0.09
   4  15  -4    2.31    0.19
   3  15  -4    1.34    0.15
   2  15  -4    5.91    0.30
   1  15  -4   -0.10    0.06
   0  15  -4   -0.01    0.07
  -1  15  -4    2.38    0.17
  -3  15  -4    1.76    0.27
  12  14  -4    0.96    0.17
  11  14  -4    0.07    0.11
  10  14  -4    6.47    0.37
   9  14  -4    1.08    0.16
   8  14  -4    3.86    0.27
   7  14  -4   17.37    0.66
   6  14  -4    3.93    0.26
   5  14  -4   13.37    0.53
   4  14  -4    0.15    0.09
   3  14  -4    7.89    0.36
   2  14  -4    4.42    0.24
   1  14  -4    9.00    0.38
  -3  14  -4    0.28    0.14
  -4  14  -4    0.20    0.13
  -5  14  -4    0.66    0.19
   5 -14   4    0.75    0.16
   6 -14   4    0.65    0.14
   7 -14   4    0.51    0.14
   8 -14   4    0.12    0.11
   9 -14   4    0.25    0.12
  10 -14   4    0.09    0.11
  11 -14   4    0.25    0.13
  12 -14   4    1.24    0.23
  13 -14   4   -0.06    0.13
  14 -14   4    0.18    0.16
  15 -14   4    0.68    0.22
  13  13  -4    0.56    0.17
  12  13  -4    0.02    0.12
  11  13  -4    8.76    0.44
  10  13  -4    0.35    0.13
   9  13  -4    8.57    0.41
   8  13  -4    5.34    0.30
   7  13  -4   14.90    0.58
   6  13  -4    5.98    0.31
   5  13  -4    1.19    0.14
   4  13  -4    0.60    0.11
   3  13  -4    0.72    0.11
   2  13  -4    2.48    0.18
   0 -13   4    1.09    0.21
   1 -13   4    0.78    0.12
   1 -13   4    0.60    0.15
  -2  13  -4    1.55    0.22
   2 -13   4    1.79    0.16
  -3  13  -4    0.20    0.13
   3 -13   4    0.29    0.09
  -4  13  -4    0.13    0.11
   4 -13   4    0.27    0.09
  -5  13  -4    0.23    0.12
   5 -13   4    0.02    0.07
  -6  13  -4   -0.12    0.09
   6 -13   4    0.01    0.07
   7 -13   4    3.10    0.25
   8 -13   4    1.77    0.22
   9 -13   4    8.74    0.48
  10 -13   4    0.03    0.09
  11 -13   4    1.35    0.22
  12 -13   4    0.54    0.17
  13 -13   4    0.08    0.14
  14 -13   4    0.33    0.17
  15 -13   4   -0.06    0.14
  13  12  -4    0.98    0.18
  12  12  -4    0.42    0.14
  11  12  -4    0.81    0.16
  10  12  -4    5.80    0.33
   9  12  -4    2.47    0.22
   8  12  -4    3.36    0.24
   7  12  -4    0.69    0.12
   6  12  -4    8.67    0.38
   5  12  -4    2.25    0.18
   4  12  -4    5.03    0.26
   3  12  -4    0.18    0.07
  -3 -12   4    0.24    0.11
   2  12  -4    4.83    0.25
  -2 -12   4    5.53    0.35
  -1 -12   4    0.39    0.13
   0 -12   4    0.06    0.08
   1 -12   4    4.41    0.25
   1 -12   4    4.94    0.34
  -2  12  -4    5.60    0.37
   2 -12   4    5.69    0.30
  -3  12  -4    1.78    0.23
   3 -12   4    1.43    0.15
  -4  12  -4    0.16    0.11
   4 -12   4    0.11    0.08
  -5  12  -4    0.73    0.17
   5 -12   4    0.49    0.11
  -6  12  -4   -0.09    0.09
   6 -12   4    0.26    0.10
  -7  12  -4    1.97    0.26
   7 -12   4    1.52    0.19
   8 -12   4   21.43    0.88
   9 -12   4    0.58    0.14
  10 -12   4    8.68    0.49
  11 -12   4    0.37    0.14
  12 -12   4    0.24    0.13
  13 -12   4    0.07    0.12
  14 -12   4    0.89    0.21
  15 -12   4    0.13    0.16
  16 -12   4   -0.03    0.15
  14  11  -4    0.91    0.17
  13  11  -4    1.20    0.17
  12  11  -4    0.90    0.16
  11  11  -4   -0.10    0.10
  10  11  -4    1.26    0.17
   9  11  -4    0.19    0.10
   8  11  -4    1.51    0.17
   7  11  -4    1.67    0.17
   6  11  -4    0.75    0.12
   5  11  -4    7.05    0.32
  -5 -11   4    6.76    0.40
   4  11  -4    3.88    0.22
  -4 -11   4    4.00    0.29
   3  11  -4    4.09    0.22
  -3 -11   4    3.67    0.28
  -2 -11   4    0.39    0.12
  -1 -11   4    0.46    0.13
   0 -11   4    0.12    0.09
   0 -11   4    0.03    0.05
   1 -11   4    0.08    0.06
  -2  11  -4    2.28    0.22
   2 -11   4    2.18    0.18
  -3  11  -4    0.14    0.10
   3 -11   4    0.14    0.07
  -4  11  -4    3.05    0.25
   4 -11   4    2.66    0.21
  -5  11  -4    1.00    0.18
   5 -11   4    0.67    0.12
  -6  11  -4    2.74    0.26
   6 -11   4    3.08    0.23
  -7  11  -4    0.58    0.16
   7 -11   4    0.49    0.12
  -8  11  -4    0.87    0.18
   8 -11   4    0.65    0.14
   9 -11   4    6.03    0.37
  10 -11   4    1.14    0.19
  11 -11   4    0.24    0.13
  12 -11   4    1.63    0.24
  13 -11   4    0.27    0.13
  14 -11   4    0.11    0.14
  15 -11   4    0.85    0.21
  16 -11   4    0.06    0.15
  15  10  -4    2.31    0.25
  14  10  -4    0.14    0.11
  13  10  -4    1.79    0.20
  12  10  -4    9.01    0.43
  11  10  -4    0.42    0.09
  11  10  -4    0.33    0.12
  10  10  -4    7.05    0.32
  10  10  -4    7.32    0.35
   9  10  -4    0.30    0.08
   9  10  -4    0.32    0.10
   8  10  -4    3.61    0.23
   7  10  -4   21.67    0.75
  -7 -10   4   20.76    0.84
   6  10  -4   10.15    0.42
  -6 -10   4   10.64    0.50
   5  10  -4   18.90    0.66
  -5 -10   4   17.74    0.75
   4  10  -4    0.15    0.08
  -4 -10   4    0.33    0.11
  -3 -10   4    8.68    0.44
  -2 -10   4    0.19    0.09
  -1 -10   4   12.86    0.58
   0 -10   4    3.67    0.27
   0 -10   4    3.48    0.21
  -1  10  -4   -0.04    0.07
   1 -10   4    0.11    0.06
  -2  10  -4    9.87    0.46
   2 -10   4    8.61    0.40
  -3  10  -4    0.15    0.09
   3 -10   4    0.11    0.06
  -4  10  -4    5.30    0.32
   4 -10   4    4.67    0.28
  -5  10  -4    6.78    0.38
   5 -10   4    6.17    0.34
  -6  10  -4    0.48    0.12
   6 -10   4    0.49    0.11
  -7  10  -4    9.29    0.47
   7 -10   4    8.32    0.43
  -8  10  -4    5.11    0.35
   8 -10   4    4.87    0.31
   9 -10   4    0.12    0.09
   9 -10   4    0.20    0.11
  10 -10   4    0.59    0.12
  10 -10   4    0.57    0.14
  11 -10   4    0.12    0.09
  11 -10   4    0.26    0.12
  12 -10   4    0.24    0.13
  12 -10   4    0.30    0.11
  13 -10   4    0.60    0.15
  13 -10   4    0.46    0.16
  14 -10   4    0.11    0.13
  15 -10   4    1.34    0.25
  16 -10   4   -0.06    0.11
  17 -10   4   -0.02    0.14
  15   9  -4   -0.12    0.10
  14   9  -4    0.26    0.11
  14   9  -4    0.29    0.12
  13   9  -4    0.35    0.11
  13   9  -4    0.36    0.11
  12   9  -4    2.11    0.21
  12   9  -4    2.04    0.18
  11   9  -4   17.27    0.64
  11   9  -4   16.40    0.63
  10   9  -4    1.44    0.14
  10   9  -4    1.27    0.16
   9   9  -4    6.37    0.31
   8   9  -4    7.89    0.35
  -8  -9   4    7.72    0.40
   7   9  -4   14.78    0.55
  -7  -9   4   15.14    0.63
   6   9  -4    0.09    0.07
  -6  -9   4    0.00    0.07
   5   9  -4    4.37    0.23
  -5  -9   4    4.45    0.29
   4   9  -4   16.47    0.59
  -4  -9   4   16.90    0.68
  -3  -9   4   15.03    0.63
  -2  -9   4    1.87    0.18
  -1  -9   4    2.53    0.22
   0  -9   4   20.17    0.78
   0  -9   4   19.34    0.73
  -1   9  -4    1.98    0.18
   1  -9   4    1.81    0.15
  -2   9  -4    1.71    0.16
   2  -9   4    1.48    0.14
  -3   9  -4    0.20    0.09
   3  -9   4    0.21    0.07
  -4   9  -4    1.99    0.19
   4  -9   4    1.80    0.16
  -5   9  -4    5.85    0.34
   5  -9   4    6.05    0.32
  -6   9  -4    7.57    0.40
   6  -9   4    7.56    0.38
  -7   9  -4    4.05    0.28
   7  -9   4    3.67    0.26
  -8   9  -4    3.44    0.28
   8  -9   4    3.21    0.25
   8  -9   4    3.35    0.23
  -9   9  -4   31.78    1.17
   9  -9   4   31.30    1.08
   9  -9   4   29.95    1.17
  10  -9   4    3.21    0.28
  10  -9   4    3.90    0.26
  11  -9   4    3.22    0.24
  11  -9   4    2.97    0.27
  12  -9   4    1.63    0.23
  12  -9   4    2.04    0.22
  13  -9   4    0.49    0.13
  13  -9   4    0.37    0.15
  14  -9   4    0.16    0.14
  14  -9   4    0.15    0.11
  15  -9   4    0.27    0.12
  15  -9   4    0.26    0.14
  16  -9   4   -0.03    0.13
  17  -9   4    0.24    0.17
  16   8  -4   -0.12    0.10
  16   8  -4    0.09    0.11
  15   8  -4    2.30    0.23
  15   8  -4    2.15    0.23
  14   8  -4    0.04    0.10
  14   8  -4   -0.12    0.09
  13   8  -4    0.27    0.11
  13   8  -4    0.12    0.09
  12   8  -4    6.89    0.33
  12   8  -4    7.22    0.35
  11   8  -4    0.29    0.10
  11   8  -4    0.46    0.09
  10   8  -4   18.86    0.70
  10   8  -4   19.78    0.70
   9   8  -4    9.83    0.42
  -9  -8   4   10.53    0.48
   8   8  -4    3.66    0.21
  -8  -8   4    3.06    0.24
   7   8  -4    5.22    0.25
  -7  -8   4    4.72    0.29
   6   8  -4   19.89    0.70
  -6  -8   4   20.86    0.79
   5   8  -4   10.24    0.40
  -5  -8   4   10.87    0.48
  -4  -8   4    2.51    0.19
  -3  -8   4   10.10    0.46
  -2  -8   4    1.10    0.15
  -1  -8   4   32.12    1.14
   0  -8   4    0.39    0.08
   0  -8   4    0.44    0.09
  -1   8  -4   32.74    1.14
   1  -8   4   32.16    1.13
  -2   8  -4    0.39    0.09
   2  -8   4    0.17    0.06
  -3   8  -4   38.64    1.30
   3  -8   4   36.14    1.30
  -4   8  -4    8.10    0.38
   4  -8   4    7.41    0.36
  -5   8  -4    2.78    0.21
   5  -8   4    2.51    0.19
  -6   8  -4   14.73    0.60
   6  -8   4   13.88    0.59
   6  -8   4   14.45    0.55
  -7   8  -4    3.56    0.25
   7  -8   4    3.21    0.21
   7  -8   4    3.15    0.23
  -8   8  -4    5.10    0.31
   8  -8   4    4.99    0.28
   8  -8   4    4.20    0.29
  -9   8  -4    3.92    0.28
   9  -8   4    3.75    0.25
   9  -8   4    3.61    0.27
  10  -8   4    0.85    0.16
  10  -8   4    1.06    0.15
  11  -8   4    0.14    0.11
  11  -8   4    0.23    0.10
  12  -8   4    1.78    0.21
  12  -8   4    1.75    0.23
  13  -8   4    1.56    0.20
  13  -8   4    1.25    0.21
  14  -8   4   -0.03    0.08
  14  -8   4   -0.04    0.10
  15  -8   4    0.14    0.12
  15  -8   4    0.21    0.12
  16  -8   4    0.06    0.11
  16  -8   4    0.22    0.14
  17  -8   4    0.07    0.13
  18   7  -4    0.59    0.18
  17   7  -4    0.67    0.17
  17   7  -4    0.52    0.15
  16   7  -4    1.49    0.20
  16   7  -4    1.39    0.19
  15   7  -4    0.42    0.13
  15   7  -4    0.44    0.15
  15   7  -4    0.36    0.13
  14   7  -4    2.52    0.23
  14   7  -4    2.76    0.22
  13   7  -4   -0.08    0.08
  13   7  -4    0.13    0.08
  12   7  -4    0.35    0.11
  12   7  -4    0.35    0.09
  11   7  -4    1.97    0.18
  11   7  -4    1.89    0.16
  10   7  -4    0.45    0.09
 -10  -7   4    0.58    0.12
   9   7  -4    1.17    0.13
  -9  -7   4    1.62    0.18
   8   7  -4    6.61    0.31
  -8  -7   4    7.30    0.36
   7   7  -4    0.43    0.08
  -7  -7   4    0.40    0.10
   6   7  -4   23.87    0.82
  -6  -7   4   25.48    0.90
   5   7  -4    7.49    0.31
  -5  -7   4    6.92    0.35
  -4  -7   4    2.96    0.20
  -3  -7   4    1.81    0.16
  -2  -7   4   26.87    0.96
  -1  -7   4   17.11    0.66
  -1  -7   4   17.01    0.69
  -1  -7   4   17.21    0.64
   0  -7   4    6.06    0.30
   0  -7   4    7.06    0.32
  -1   7  -4    0.15    0.06
   1  -7   4    0.16    0.06
   1  -7   4    0.18    0.06
  -2   7  -4   43.66    1.45
   2  -7   4   42.94    1.44
   2  -7   4   43.04    1.48
  -3   7  -4    5.00    0.27
   3  -7   4    5.08    0.26
   3  -7   4    4.90    0.26
  -4   7  -4    7.73    0.36
   4  -7   4    7.67    0.34
   4  -7   4    7.55    0.35
  -5   7  -4    9.58    0.42
   5  -7   4    9.29    0.39
   5  -7   4    9.46    0.42
   5  -7   4    9.45    0.40
  -6   7  -4    0.22    0.08
   6  -7   4    0.25    0.08
   6  -7   4    0.26    0.08
   6  -7   4    0.21    0.07
  -7   7  -4    1.63    0.18
   7  -7   4    1.41    0.14
   7  -7   4    1.31    0.16
   7  -7   4    1.34    0.15
  -8   7  -4    6.65    0.35
   8  -7   4    6.89    0.33
   8  -7   4    6.57    0.35
  -9   7  -4   20.59    0.79
   9  -7   4   20.49    0.75
   9  -7   4   18.97    0.80
  10  -7   4    1.45    0.17
  10  -7   4    1.31    0.19
  11  -7   4    1.13    0.16
  11  -7   4    1.57    0.20
  12  -7   4    7.29    0.40
  12  -7   4    7.63    0.44
  13  -7   4    1.40    0.20
  13  -7   4    1.15    0.20
  14  -7   4    1.84    0.25
  14  -7   4    1.37    0.20
  15  -7   4    0.02    0.09
  15  -7   4    0.20    0.13
  16  -7   4    0.82    0.21
  16  -7   4    0.63    0.17
  17  -7   4    0.58    0.19
  17  -7   4    0.29    0.15
  18  -7   4    0.09    0.12
  18   6  -4    0.05    0.14
  17   6  -4    2.14    0.24
  17   6  -4    2.55    0.26
  16   6  -4    0.09    0.10
  16   6  -4   -0.05    0.10
  15   6  -4    0.01    0.10
  15   6  -4    0.06    0.10
  15   6  -4    0.03    0.09
  14   6  -4   -0.01    0.09
  14   6  -4    0.14    0.09
  14   6  -4    0.04    0.08
  13   6  -4    0.97    0.13
  13   6  -4    1.02    0.14
  12   6  -4    4.43    0.25
  12   6  -4    4.33    0.24
  11   6  -4    0.21    0.08
  11   6  -4    0.23    0.08
 -11  -6   4    0.03    0.08
  10   6  -4    5.92    0.28
 -10  -6   4    5.98    0.32
  -9  -6   4    2.17    0.19
   8   6  -4   12.52    0.47
  -8  -6   4   13.45    0.54
   7   6  -4   38.07    1.22
  -7  -6   4   38.43    1.31
   6   6  -4    0.25    0.07
  -6  -6   4    0.36    0.08
   5   6  -4   38.83    1.24
  -5  -6   4   39.75    1.33
  -4  -6   4   21.82    0.79
  -3  -6   4    3.79    0.22
  -2  -6   4   12.99    0.51
  -1  -6   4    2.11    0.16
  -1  -6   4    2.07    0.15
  -1  -6   4    2.01    0.14
   0  -6   4    0.88    0.11
   0  -6   4    1.08    0.11
  -1   6  -4   14.84    0.56
   1  -6   4   14.92    0.57
   1  -6   4   15.47    0.57
  -2   6  -4   15.89    0.57
   2  -6   4   14.87    0.58
   2  -6   4   14.85    0.56
  -3   6  -4    3.76    0.21
   3  -6   4    3.28    0.19
   3  -6   4    3.56    0.21
  -4   6  -4   23.94    0.84
   4  -6   4   24.39    0.84
   4  -6   4   23.26    0.86
   4  -6   4   23.71    0.81
  -5   6  -4   15.16    0.58
   5  -6   4   14.78    0.55
   5  -6   4   15.54    0.57
   5  -6   4   14.67    0.59
  -6   6  -4    0.15    0.06
   6  -6   4    0.13    0.06
   6  -6   4    0.12    0.06
   6  -6   4    0.14    0.06
  -7   6  -4    1.87    0.17
   7  -6   4    1.98    0.17
   7  -6   4    2.12    0.16
   7  -6   4    1.89    0.16
  -8   6  -4    3.54    0.23
   8  -6   4    3.07    0.21
   8  -6   4    3.17    0.22
   8  -6   4    3.25    0.20
  -9   6  -4    5.45    0.31
   9  -6   4    4.96    0.29
   9  -6   4    5.63    0.33
 -10   6  -4    5.69    0.35
  10  -6   4    6.04    0.32
  10  -6   4    5.44    0.34
  11  -6   4    7.14    0.37
  11  -6   4    6.98    0.40
  12  -6   4    2.25    0.21
  12  -6   4    1.83    0.22
  13  -6   4    2.06    0.23
  13  -6   4    1.99    0.24
  14  -6   4    0.05    0.12
  14  -6   4    0.04    0.09
  15  -6   4    0.01    0.10
  15  -6   4    0.02    0.11
  16  -6   4    1.66    0.26
  16  -6   4    1.11    0.20
  17  -6   4    0.46    0.16
  17  -6   4    0.47    0.17
  18  -6   4    0.24    0.15
  18  -6   4    0.41    0.17
  19  -6   4    1.86    0.28
  18   5  -4    1.42    0.21
  18   5  -4    1.44    0.20
  17   5  -4    1.97    0.23
  17   5  -4    2.60    0.27
  16   5  -4    1.08    0.17
  16   5  -4    0.95    0.17
  15   5  -4    1.17    0.16
  15   5  -4    1.30    0.16
  14   5  -4    0.77    0.13
  14   5  -4    0.79    0.13
  14   5  -4    1.02    0.17
  13   5  -4    2.99    0.21
  13   5  -4    2.85    0.21
  12   5  -4    3.85    0.23
  12   5  -4    3.80    0.23
  11   5  -4   17.75    0.63
  11   5  -4   17.87    0.66
 -11  -5   4   17.65    0.70
  10   5  -4    1.94    0.16
 -10  -5   4    1.94    0.18
   9   5  -4   21.12    0.72
  -9  -5   4   21.71    0.79
   8   5  -4   13.25    0.48
  -8  -5   4   13.10    0.53
   7   5  -4   17.99    0.62
  -7  -5   4   18.20    0.68
   6   5  -4    4.29    0.21
  -6  -5   4    4.75    0.25
   5   5  -4    2.94    0.16
  -5  -5   4    3.08    0.19
  -4  -5   4   23.93    0.84
  -3  -5   4   15.04    0.56
  -2  -5   4   21.73    0.77
  -1  -5   4    0.46    0.07
  -1  -5   4    0.64    0.09
  -1  -5   4    0.43    0.07
   0  -5   4    0.61    0.08
   0  -5   4    0.93    0.10
  -1   5  -4    3.62    0.18
   1  -5   4    3.12    0.18
   1  -5   4    3.21    0.18
  -2   5  -4   11.71    0.44
   2  -5   4   11.66    0.44
   2  -5   4   11.76    0.47
  -3   5  -4   27.49    0.93
   3  -5   4   27.85    0.90
   3  -5   4   27.57    0.97
   3  -5   4   26.53    0.92
  -4   5  -4   23.35    0.82
   4  -5   4   23.37    0.86
   4  -5   4   24.24    0.80
   4  -5   4   24.27    0.82
  -5   5  -4   55.43    1.79
   5  -5   4   53.39    1.85
   5  -5   4   56.12    1.73
   5  -5   4   55.31    1.77
  -6   5  -4    0.15    0.06
   6  -5   4    0.10    0.05
   6  -5   4    0.10    0.06
   6  -5   4    0.12    0.05
  -7   5  -4    0.06    0.05
   7  -5   4    0.07    0.05
   7  -5   4   -0.02    0.04
   7  -5   4    0.06    0.05
  -8   5  -4    5.30    0.28
   8  -5   4    5.05    0.29
   8  -5   4    5.57    0.26
   8  -5   4    4.86    0.27
  -9   5  -4    3.02    0.21
   9  -5   4    2.56    0.21
   9  -5   4    2.37    0.19
   9  -5   4    2.52    0.17
 -10   5  -4    0.39    0.11
  10  -5   4    0.23    0.10
  10  -5   4    0.41    0.10
  11  -5   4    9.85    0.45
  11  -5   4    9.63    0.48
  12  -5   4    0.44    0.13
  12  -5   4    0.42    0.11
  13  -5   4    0.04    0.10
  13  -5   4    0.04    0.08
  14  -5   4    0.18    0.12
  14  -5   4    0.51    0.14
  15  -5   4    0.01    0.09
  15  -5   4   -0.03    0.11
  16  -5   4    0.02    0.12
  16  -5   4   -0.17    0.09
  17  -5   4    0.19    0.14
  17  -5   4    0.08    0.15
  18  -5   4    1.84    0.27
  18  -5   4    2.39    0.32
  19  -5   4    0.85    0.21
  18   4  -4    1.25    0.20
  18   4  -4    1.19    0.19
  17   4  -4    0.24    0.11
  17   4  -4    0.28    0.12
  16   4  -4    1.00    0.16
  16   4  -4    1.20    0.18
  15   4  -4    1.96    0.20
  15   4  -4    2.01    0.20
  14   4  -4    2.61    0.19
  14   4  -4    2.51    0.23
  14   4  -4    2.52    0.21
  13   4  -4    0.78    0.12
  13   4  -4    0.74    0.13
  13   4  -4    0.76    0.11
  12   4  -4    2.80    0.19
  12   4  -4    2.76    0.18
 -12  -4   4    2.53    0.21
  11   4  -4    0.45    0.09
  11   4  -4    0.61    0.10
 -11  -4   4    0.46    0.11
  10   4  -4   29.11    0.97
 -10  -4   4   30.46    1.05
   9   4  -4    1.01    0.11
  -9  -4   4    1.05    0.13
   8   4  -4   16.29    0.56
  -8  -4   4   16.04    0.61
   7   4  -4    6.50    0.27
  -7  -4   4    6.86    0.31
   6   4  -4    6.97    0.28
  -6  -4   4    6.95    0.31
   5   4  -4    8.38    0.31
  -5  -4   4    7.70    0.34
  -4  -4   4    5.50    0.26
  -3  -4   4    0.09    0.05
  -2  -4   4   36.64    1.21
  -1  -4   4   13.57    0.50
  -1  -4   4   13.56    0.52
   0  -4   4    0.65    0.09
   0  -4   4    0.78    0.08
  -1   4  -4   90.51    2.70
   1  -4   4   83.37    2.81
   1  -4   4   84.49    2.70
  -2   4  -4   25.54    0.83
   2  -4   4   24.85    0.83
   2  -4   4   24.58    0.87
   2  -4   4   23.97    0.81
  -3   4  -4    6.11    0.26
   3  -4   4    6.07    0.25
   3  -4   4    5.70    0.28
   3  -4   4    6.05    0.26
  -4   4  -4   53.19    1.68
   4  -4   4   52.42    1.64
   4  -4   4   50.59    1.75
   4  -4   4   53.45    1.68
  -5   4  -4    4.21    0.21
   5  -4   4    4.12    0.23
   5  -4   4    4.51    0.21
   5  -4   4    4.18    0.21
  -6   4  -4   16.68    0.60
   6  -4   4   16.97    0.59
   6  -4   4   16.02    0.63
   6  -4   4   15.98    0.59
  -7   4  -4    4.71    0.24
   7  -4   4    3.86    0.24
   7  -4   4    4.77    0.24
   7  -4   4    4.46    0.22
  -8   4  -4    0.17    0.07
   8  -4   4    0.19    0.07
   8  -4   4    0.23    0.06
   8  -4   4    0.25    0.09
  -9   4  -4    1.36    0.14
   9  -4   4    1.47    0.16
   9  -4   4    1.65    0.13
   9  -4   4    1.15    0.15
 -10   4  -4    1.83    0.18
  10  -4   4    1.98    0.18
  10  -4   4    1.82    0.20
  11  -4   4   -0.03    0.07
  11  -4   4   -0.04    0.07
  12  -4   4    1.98    0.23
  12  -4   4    1.83    0.20
  13  -4   4    0.48    0.13
  13  -4   4    0.53    0.13
  14  -4   4   -0.01    0.08
  14  -4   4   -0.16    0.07
  15  -4   4    0.00    0.10
  15  -4   4    0.11    0.11
  16  -4   4    1.61    0.25
  16  -4   4    1.54    0.23
  17  -4   4    1.30    0.21
  17  -4   4    1.20    0.23
  18  -4   4    0.43    0.16
  18  -4   4    0.32    0.18
  19  -4   4    0.29    0.16
  18   3  -4    4.00    0.33
  18   3  -4    3.47    0.29
  17   3  -4   -0.16    0.11
  17   3  -4    0.25    0.12
  16   3  -4    0.21    0.11
  16   3  -4    0.46    0.14
  15   3  -4    0.35    0.11
  15   3  -4    0.19    0.10
  14   3  -4    2.19    0.21
  14   3  -4    2.16    0.20
  14   3  -4    2.12    0.18
  13   3  -4    0.24    0.09
  13   3  -4    0.15    0.08
  13   3  -4    0.10    0.08
  12   3  -4    2.01    0.16
  12   3  -4    1.60    0.16
  12   3  -4    1.76    0.15
 -12  -3   4    1.33    0.17
  11   3  -4    0.66    0.10
  11   3  -4    0.80    0.10
  11   3  -4    0.82    0.12
 -11  -3   4    0.69    0.11
  10   3  -4   19.41    0.67
 -10  -3   4   20.38    0.74
   9   3  -4    4.04    0.19
  -9  -3   4    3.45    0.22
   8   3  -4   12.38    0.44
  -8  -3   4   12.60    0.49
   7   3  -4    2.25    0.13
  -7  -3   4    2.44    0.16
   6   3  -4   34.29    1.09
  -6  -3   4   35.08    1.15
   5   3  -4    8.24    0.31
  -5  -3   4    8.18    0.33
  -4  -3   4   17.45    0.61
  -3  -3   4    2.82    0.15
  -2  -3   4  168.75    5.22
  -1  -3   4   26.11    0.86
  -1  -3   4   25.90    0.91
   0  -3   4   12.92    0.49
   1  -3   4   45.46    1.54
   1  -3   4   46.49    1.46
  -2   3  -4  110.12    3.40
   2  -3   4  111.53    3.30
   2  -3   4  110.25    3.41
   2  -3   4  107.44    3.55
  -3   3  -4   20.83    0.71
   3  -3   4   21.81    0.71
   3  -3   4   21.08    0.76
   3  -3   4   21.52    0.71
  -4   3  -4   11.28    0.41
   4  -3   4   11.65    0.41
   4  -3   4   11.31    0.43
   4  -3   4   11.44    0.45
  -5   3  -4   11.44    0.42
   5  -3   4   11.13    0.43
   5  -3   4   11.13    0.46
   5  -3   4   11.87    0.42
  -6   3  -4    0.60    0.08
   6  -3   4    0.50    0.09
   6  -3   4    0.73    0.08
   6  -3   4    0.52    0.09
  -7   3  -4    2.66    0.16
   7  -3   4    2.67    0.18
   7  -3   4    2.74    0.15
   7  -3   4    2.50    0.17
  -8   3  -4    6.24    0.30
   8  -3   4    6.54    0.28
   8  -3   4    6.75    0.33
   8  -3   4    6.29    0.30
  -9   3  -4   12.51    0.48
   9  -3   4   11.32    0.45
   9  -3   4   11.04    0.51
   9  -3   4   11.79    0.48
 -10   3  -4    0.71    0.11
  10  -3   4    0.59    0.12
  10  -3   4    0.64    0.11
  11  -3   4    0.18    0.09
  11  -3   4    0.16    0.10
  12  -3   4    0.38    0.12
  12  -3   4    0.44    0.12
  13  -3   4    2.08    0.22
  13  -3   4    2.12    0.23
  14  -3   4    2.37    0.25
  14  -3   4    1.81    0.23
  15  -3   4    0.40    0.13
  15  -3   4    0.27    0.13
  16  -3   4    0.87    0.20
  16  -3   4    1.35    0.21
  17  -3   4    3.78    0.33
  17  -3   4    3.84    0.36
  18  -3   4    0.90    0.23
  18  -3   4    1.00    0.21
  19  -3   4    0.15    0.16
  19   2  -4    4.23    0.33
  18   2  -4    0.04    0.11
  18   2  -4   -0.05    0.13
  17   2  -4    3.46    0.27
  17   2  -4    4.38    0.31
  16   2  -4    0.04    0.12
  16   2  -4    0.05    0.09
  15   2  -4    2.01    0.19
  15   2  -4    2.10    0.21
  14   2  -4    0.31    0.10
  14   2  -4    0.26    0.09
  13   2  -4    2.57    0.20
  13   2  -4    2.70    0.20
  13   2  -4    2.67    0.18
 -13  -2   4    2.37    0.21
  12   2  -4    9.38    0.43
  12   2  -4    9.65    0.38
  12   2  -4    9.49    0.40
 -12  -2   4    8.56    0.42
  11   2  -4    0.87    0.11
  11   2  -4    0.51    0.10
  11   2  -4    0.49    0.08
 -11  -2   4    0.76    0.13
  10   2  -4    8.21    0.34
  10   2  -4    9.30    0.39
 -10  -2   4    8.79    0.39
   9   2  -4    0.61    0.08
  -9  -2   4    0.60    0.10
   8   2  -4    1.04    0.09
  -8  -2   4    0.63    0.09
   7   2  -4    0.48    0.06
  -7  -2   4    0.42    0.07
   6   2  -4   18.21    0.59
  -6  -2   4   18.14    0.64
   5   2  -4    2.43    0.13
  -5  -2   4    3.09    0.16
  -4  -2   4   36.00    1.17
  -3  -2   4    1.29    0.09
  -2  -2   4   12.80    0.45
  -1  -2   4    1.22    0.10
  -1  -2   4    1.14    0.08
   0   2  -4   18.23    0.59
   0  -2   4   17.00    0.63
  -1   2  -4    8.56    0.33
   1  -2   4    8.14    0.33
   1  -2   4    7.78    0.31
   1  -2   4    8.07    0.29
  -2   2  -4   21.57    0.71
   2  -2   4   22.91    0.71
   2  -2   4   22.06    0.72
   2  -2   4   21.51    0.78
  -3   2  -4    6.77    0.25
   3  -2   4    6.72    0.25
   3  -2   4    6.48    0.29
   3  -2   4    6.29    0.27
  -4   2  -4   45.64    1.45
   4  -2   4   46.51    1.64
   4  -2   4   45.82    1.43
   4  -2   4   46.39    1.45
   4  -2   4   44.76    1.54
  -5   2  -4   49.83    1.64
   5  -2   4   52.81    1.62
   5  -2   4   50.74    1.74
   5  -2   4   52.59    1.64
   5  -2   4   53.14    1.85
  -6   2  -4    4.19    0.19
   6  -2   4    4.70    0.23
   6  -2   4    3.87    0.23
   6  -2   4    3.92    0.21
   6  -2   4    3.64    0.18
  -7   2  -4    5.91    0.26
   7  -2   4    5.95    0.25
   7  -2   4    6.02    0.30
   7  -2   4    6.06    0.32
   7  -2   4    5.75    0.28
  -8   2  -4   27.95    0.97
   8  -2   4   28.29    0.97
   8  -2   4   27.35    1.03
   8  -2   4   28.77    1.11
   8  -2   4   30.39    0.96
  -9   2  -4    1.28    0.13
   9  -2   4    1.00    0.13
   9  -2   4    1.29    0.12
   9  -2   4    1.50    0.17
   9  -2   4    0.95    0.13
 -10   2  -4    1.94    0.17
  10  -2   4    2.00    0.19
  10  -2   4    1.89    0.18
  10  -2   4    2.15    0.21
  11  -2   4    3.85    0.27
  11  -2   4    4.02    0.26
  11  -2   4    3.74    0.28
  12  -2   4    0.20    0.09
  12  -2   4    0.30    0.11
  12  -2   4    0.43    0.13
  13  -2   4    1.09    0.19
  13  -2   4    1.07    0.18
  13  -2   4    1.04    0.16
  14  -2   4    0.35    0.12
  14  -2   4    0.05    0.12
  14  -2   4    0.44    0.14
  15  -2   4   -0.13    0.09
  15  -2   4   -0.07    0.09
  16  -2   4    0.09    0.13
  16  -2   4    0.24    0.14
  17  -2   4    0.15    0.13
  17  -2   4    0.14    0.14
  18  -2   4    0.41    0.16
  18  -2   4    0.23    0.16
  19   1  -4    0.02    0.13
  18   1  -4    4.03    0.33
  18   1  -4    3.21    0.28
  17   1  -4    0.23    0.12
  17   1  -4    0.16    0.11
  16   1  -4    3.00    0.25
  16   1  -4    3.10    0.23
  15   1  -4    2.24    0.20
  15   1  -4    2.30    0.19
  14   1  -4    0.55    0.10
  14   1  -4    0.58    0.12
  13   1  -4    4.78    0.27
  13   1  -4    4.75    0.24
  13   1  -4    4.58    0.27
 -13  -1   4    4.72    0.29
  12   1  -4    0.48    0.08
  12   1  -4    0.37    0.08
  12   1  -4    0.55    0.10
 -12  -1   4    0.57    0.12
  11   1  -4   14.32    0.55
  11   1  -4   14.24    0.57
  11   1  -4   14.52    0.51
 -11  -1   4   14.14    0.57
  10   1  -4    1.61    0.12
  10   1  -4    1.69    0.13
  10   1  -4    1.23    0.12
   9   1  -4    4.21    0.19
   9   1  -4    4.60    0.22
  -9  -1   4    4.42    0.24
   8   1  -4    2.18    0.13
   8   1  -4    2.68    0.13
  -8  -1   4    2.41    0.16
   7   1  -4    2.03    0.11
  -7  -1   4    1.69    0.13
   6   1  -4   71.35    2.15
  -6  -1   4   71.99    2.27
   5   1  -4   71.89    2.16
  -5  -1   4   71.77    2.26
  -4  -1   4   23.95    0.79
  -3  -1   4    2.63    0.13
  -2  -1   4    2.07    0.10
   1   1  -4   45.38    1.43
   1   1  -4   47.06    1.58
   1   1  -4   45.68    1.53
  -1  -1   4   45.92    1.44
   0   1  -4    3.34    0.15
   0   1  -4    3.21    0.17
   0   1  -4    3.29    0.15
   0  -1   4    3.15    0.17
   0  -1   4    3.11    0.15
  -1   1  -4   27.08    0.83
  -1   1  -4   26.85    0.94
  -1   1  -4   26.37    0.90
   1  -1   4   26.05    0.84
   1  -1   4   26.25    0.94
   1  -1   4   25.61    0.90
   1  -1   4   25.83    0.82
   2  -1   4   63.33    2.28
   2  -1   4   68.14    2.01
   2  -1   4   64.79    2.16
   2  -1   4   68.10    2.04
  -3   1  -4    2.13    0.09
   3  -1   4    2.30    0.14
   3  -1   4    2.03    0.10
   3  -1   4    2.03    0.12
   3  -1   4    1.78    0.13
  -4   1  -4   12.95    0.44
   4  -1   4   12.33    0.46
   4  -1   4   13.85    0.44
   4  -1   4   12.76    0.50
   4  -1   4   13.53    0.53
  -5   1  -4   74.66    2.33
   5  -1   4   73.39    2.61
   5  -1   4   76.28    2.33
   5  -1   4   75.47    2.29
   5  -1   4   73.73    2.46
  -6   1  -4   19.07    0.64
   6  -1   4   18.47    0.74
   6  -1   4   19.00    0.70
   6  -1   4   18.27    0.63
   6  -1   4   19.30    0.66
  -7   1  -4    2.59    0.15
   7  -1   4    3.31    0.16
   7  -1   4    2.96    0.21
   7  -1   4    3.23    0.19
   7  -1   4    2.56    0.18
  -8   1  -4    9.88    0.38
   8  -1   4    9.43    0.42
   8  -1   4    9.65    0.40
   8  -1   4    9.05    0.45
   8  -1   4    9.74    0.38
  -9   1  -4    1.10    0.11
   9  -1   4    1.27    0.15
   9  -1   4    0.91    0.11
   9  -1   4    1.26    0.15
   9  -1   4    0.98    0.15
  10  -1   4    3.42    0.26
  10  -1   4    3.20    0.23
  10  -1   4    3.37    0.24
  11  -1   4    1.62    0.19
  11  -1   4    1.70    0.21
  11  -1   4    1.68    0.20
  12  -1   4    4.60    0.31
  12  -1   4    4.14    0.29
  12  -1   4    4.78    0.33
  13  -1   4    0.29    0.12
  13  -1   4    0.32    0.12
  13  -1   4    0.11    0.10
  14  -1   4    1.32    0.20
  14  -1   4    1.47    0.23
  14  -1   4    1.29    0.19
  15  -1   4    0.62    0.17
  15  -1   4    0.64    0.17
  15  -1   4    0.64    0.15
  16  -1   4    1.86    0.27
  16  -1   4    1.68    0.24
  16  -1   4    2.55    0.31
  17  -1   4   -0.10    0.13
  17  -1   4    0.10    0.14
  18  -1   4    1.30    0.25
  18  -1   4    1.34    0.24
  19   0  -4   -0.05    0.11
  18   0  -4    0.12    0.14
  18   0  -4    0.09    0.12
  17   0  -4    0.11    0.13
  17   0  -4   -0.03    0.10
  16   0  -4    0.29    0.10
  16   0  -4    0.37    0.12
  15   0  -4    0.79    0.12
  15   0  -4    0.77    0.13
  14   0  -4    0.14    0.08
  14   0  -4    0.37    0.10
  13   0  -4    1.05    0.13
  13   0  -4    1.18    0.12
 -13   0   4    0.89    0.15
  12   0  -4    5.73    0.28
  12   0  -4    5.28    0.25
  12   0  -4    5.80    0.28
 -12   0   4    5.14    0.31
  11   0  -4    0.95    0.10
  11   0  -4    0.90    0.11
  11   0  -4    1.00    0.12
 -11   0   4    1.03    0.15
  10   0  -4   35.13    1.10
  10   0  -4   34.39    1.20
  10   0  -4   34.81    1.25
 -10   0   4   36.36    1.21
   9   0  -4    5.14    0.24
   9   0  -4    5.66    0.22
  -9   0   4    5.17    0.26
   8   0  -4   33.96    1.07
   8   0  -4   33.70    1.21
  -8   0   4   35.86    1.16
   7   0  -4    3.05    0.14
   7   0  -4    3.09    0.14
  -7   0   4    2.87    0.17
   6   0  -4   79.95    2.71
   6   0  -4   80.77    2.39
  -6   0   4   79.46    2.52
   5   0  -4    2.55    0.12
  -5   0   4    2.65    0.14
  -4   0   4    0.86    0.07
  -3   0   4   48.56    1.52
   2   0  -4    5.68    0.20
  -2   0   4    5.17    0.20
   1   0  -4   66.91    2.21
   1   0  -4   69.62    2.04
   1   0  -4   68.18    2.31
   1   0  -4   66.31    2.08
  -1   0   4   67.62    2.09
  -1   0   4   68.10    2.31
   0   0  -4    8.51    0.33
   0   0  -4    8.45    0.34
   0   0  -4    8.97    0.30
   0   0   4    8.76    0.31
   0   0   4    8.22    0.33
   0   0   4    8.56    0.27
   0   0   4    8.68    0.34
  -1   0  -4    2.42    0.12
  -1   0  -4    2.00    0.12
  -1   0  -4    2.14    0.13
   1   0   4    2.00    0.12
   1   0   4    2.24    0.13
   1   0   4    2.30    0.12
  -2   0  -4    1.45    0.10
   2   0   4    1.48    0.11
   2   0   4    1.29    0.06
   2   0   4    1.44    0.10
  -3   0  -4   27.86    0.86
   3   0   4   26.63    1.01
   3   0   4   27.61    0.87
   3   0   4   27.72    0.95
   3   0   4   28.25    0.89
  -4   0  -4    1.31    0.07
   4   0   4    1.23    0.10
   4   0   4    1.25    0.07
   4   0   4    1.35    0.11
   4   0   4    1.22    0.11
  -5   0  -4    2.88    0.13
   5   0   4    3.21    0.19
   5   0   4    2.61    0.17
   5   0   4    2.73    0.16
   5   0   4    3.18    0.14
  -6   0  -4    3.43    0.15
   6   0   4    3.53    0.19
   6   0   4    3.29    0.18
   6   0   4    2.89    0.15
   6   0   4    2.83    0.20
  -7   0  -4    0.61    0.07
   7   0   4    0.53    0.09
   7   0   4    0.36    0.06
   7   0   4    0.39    0.09
   7   0   4    0.40    0.08
  -8   0  -4    1.48    0.11
   8   0   4    1.41    0.14
   8   0   4    1.12    0.13
   8   0   4    1.02    0.14
   8   0   4    1.32    0.11
  -9   0  -4    0.13    0.06
   9   0   4    0.14    0.08
   9   0   4    0.17    0.08
   9   0   4    0.12    0.09
   9   0   4    0.12    0.06
  10   0   4    0.97    0.14
  10   0   4    1.08    0.17
  10   0   4    1.04    0.14
  11   0   4    0.44    0.13
  11   0   4    0.49    0.13
  11   0   4    0.64    0.13
  12   0   4   14.51    0.66
  12   0   4   16.26    0.64
  12   0   4   15.76    0.72
  13   0   4    0.00    0.09
  13   0   4   -0.05    0.09
  13   0   4    0.15    0.10
  14   0   4    0.45    0.14
  14   0   4    0.64    0.16
  14   0   4    0.53    0.14
  15   0   4    0.35    0.15
  15   0   4    0.47    0.15
  15   0   4    0.52    0.16
  16   0   4    1.44    0.24
  16   0   4    1.65    0.24
  16   0   4    1.79    0.26
  17   0   4    0.57    0.16
  17   0   4    0.80    0.21
  17   0   4    0.52    0.18
  18   0   4    3.78    0.37
  18   0   4    3.55    0.34
  18   0   4    3.25    0.35
  18  -1  -4    1.68    0.24
  18  -1  -4    1.47    0.20
  17  -1  -4   -0.04    0.10
  17  -1  -4    0.00    0.11
  16  -1  -4    0.88    0.14
  16  -1  -4    1.50    0.19
  15  -1  -4    0.34    0.10
  15  -1  -4    0.42    0.11
  14  -1  -4    0.07    0.07
  14  -1  -4    0.25    0.09
 -14   1   4    0.07    0.09
  13  -1  -4    1.05    0.12
  13  -1  -4    0.94    0.13
 -13   1   4    0.49    0.12
  12  -1  -4    0.12    0.06
  12  -1  -4    0.22    0.08
 -12   1   4    0.16    0.09
  11  -1  -4    1.25    0.13
  11  -1  -4    1.22    0.12
 -11   1   4    1.49    0.17
  10  -1  -4   33.63    1.16
  10  -1  -4   33.99    1.07
 -10   1   4   34.55    1.18
   9  -1  -4   14.94    0.50
  -9   1   4   14.94    0.57
   8  -1  -4    7.57    0.28
  -8   1   4    7.82    0.33
   7  -1  -4   10.62    0.35
  -7   1   4   10.31    0.41
   6  -1  -4   67.13    2.02
  -6   1   4   67.92    2.14
   5  -1  -4    6.55    0.22
  -5   1   4    6.23    0.26
  -4   1   4    1.65    0.10
  -3   1   4    1.26    0.08
   2  -1  -4    7.67    0.27
  -2   1   4    7.74    0.27
  -2   1   4    8.12    0.29
   1  -1  -4  157.27    4.98
   1  -1  -4  156.91    4.60
  -1   1   4  151.04    5.25
  -1   1   4  156.82    4.78
   0  -1  -4    1.09    0.08
   0  -1  -4    1.14    0.07
   0   1   4    1.07    0.09
   0   1   4    0.91    0.07
   0   1   4    1.06    0.05
   0   1   4    1.07    0.08
  -1  -1  -4    3.27    0.13
  -1  -1  -4    3.23    0.15
   1   1   4    3.10    0.14
   1   1   4    3.04    0.10
   1   1   4    2.55    0.15
   1   1   4    2.76    0.10
   1   1   4    2.86    0.15
  -2  -1  -4   32.97    1.09
   2   1   4   32.18    1.02
   2   1   4   32.34    1.10
   2   1   4   32.53    1.01
   2   1   4   32.81    1.17
  -3  -1  -4   12.64    0.40
   3   1   4   12.58    0.51
   3   1   4   12.29    0.44
   3   1   4   13.02    0.48
   3   1   4   12.96    0.42
  -4  -1  -4    2.51    0.11
   4   1   4    2.61    0.14
   4   1   4    2.26    0.14
   4   1   4    2.57    0.12
   4   1   4    2.71    0.17
  -5  -1  -4    1.98    0.10
   5   1   4    2.45    0.15
   5   1   4    2.39    0.14
   5   1   4    2.35    0.17
   5   1   4    2.13    0.12
  -6  -1  -4    1.69    0.10
   6   1   4    1.23    0.13
   6   1   4    1.40    0.10
   6   1   4    1.44    0.12
   6   1   4    1.39    0.12
  -7  -1  -4    4.28    0.19
   7   1   4    4.25    0.22
   7   1   4    4.30    0.26
   7   1   4    4.63    0.21
   7   1   4    4.61    0.24
  -8  -1  -4   16.66    0.59
   8   1   4   17.28    0.61
   8   1   4   16.52    0.71
   8   1   4   17.21    0.62
   8   1   4   16.62    0.65
  -9  -1  -4   15.24    0.54
   9   1   4   13.83    0.59
   9   1   4   14.35    0.56
   9   1   4   14.42    0.55
   9   1   4   14.41    0.64
  10   1   4    1.53    0.17
  10   1   4    1.41    0.17
  10   1   4    1.33    0.19
  11   1   4    0.70    0.14
  11   1   4    0.75    0.14
  11   1   4    0.89    0.15
  12   1   4    1.35    0.18
  12   1   4    1.73    0.22
  12   1   4    1.33    0.17
  13   1   4    0.69    0.16
  13   1   4    0.41    0.12
  13   1   4    0.43    0.13
  14   1   4    0.01    0.09
  14   1   4   -0.08    0.09
  14   1   4    0.00    0.09
  15   1   4    1.82    0.23
  15   1   4    1.87    0.26
  15   1   4    2.06    0.26
  16   1   4   -0.12    0.10
  16   1   4    0.04    0.11
  16   1   4   -0.06    0.10
  17   1   4    0.19    0.14
  17   1   4    0.37    0.17
  17   1   4    0.18    0.13
  18   1   4   -0.10    0.11
  18   1   4    0.02    0.13
  18   1   4    0.12    0.15
  18  -2  -4    0.21    0.15
  17  -2  -4    5.23    0.34
  17  -2  -4    4.29    0.30
  16  -2  -4   -0.08    0.11
  16  -2  -4   -0.05    0.08
  15  -2  -4    0.37    0.12
  15  -2  -4    0.28    0.10
  14  -2  -4    2.93    0.20
  14  -2  -4    2.73    0.23
 -14   2   4    2.62    0.25
  13  -2  -4    5.97    0.28
  13  -2  -4    6.23    0.32
 -13   2   4    5.95    0.35
  12  -2  -4    0.35    0.08
  12  -2  -4    0.37    0.10
 -12   2   4    0.27    0.11
  11  -2  -4    1.15    0.13
  11  -2  -4    1.09    0.11
 -11   2   4    1.00    0.14
  10  -2  -4    0.37    0.06
  10  -2  -4    0.36    0.08
 -10   2   4    0.28    0.09
   9  -2  -4    8.19    0.35
   9  -2  -4    8.86    0.31
  -9   2   4    8.39    0.38
   8  -2  -4   13.92    0.45
  -8   2   4   13.06    0.52
   7  -2  -4    0.78    0.06
  -7   2   4    1.03    0.11
   6  -2  -4    5.42    0.19
  -6   2   4    5.30    0.24
   5  -2  -4   22.15    0.67
  -5   2   4   21.59    0.74
   4  -2  -4    1.09    0.06
  -4   2   4    1.12    0.09
  -3   2   4   10.87    0.38
   2  -2  -4   36.69    1.10
  -2   2   4   36.40    1.16
   1  -2  -4   59.71    1.94
   1  -2  -4   61.54    1.77
  -1   2   4   58.56    1.78
  -1   2   4   57.31    1.84
   0  -2  -4   34.99    1.02
   0  -2  -4   33.14    1.12
   0   2   4   32.56    1.05
   0   2   4   33.65    1.03
  -1  -2  -4   96.31    3.09
  -1  -2  -4  100.53    2.86
   1   2   4   93.37    3.10
   1   2   4   96.59    2.97
   1   2   4   95.72    2.97
   1   2   4   94.74    2.87
  -2  -2  -4    5.58    0.23
   2   2   4    5.59    0.24
   2   2   4    5.82    0.21
   2   2   4    5.61    0.22
  -3  -2  -4   46.00    1.45
   3   2   4   42.85    1.47
   3   2   4   44.46    1.39
   3   2   4   43.42    1.37
  -4  -2  -4   12.46    0.42
   4   2   4   13.26    0.45
   4   2   4   12.91    0.45
   4   2   4   12.49    0.48
  -5  -2  -4   25.12    0.78
   5   2   4   25.03    0.80
   5   2   4   23.68    0.80
   5   2   4   22.82    0.84
   5   2   4   23.50    0.92
  -6  -2  -4    0.92    0.07
   6   2   4    1.31    0.12
   6   2   4    0.71    0.11
   6   2   4    0.95    0.10
   6   2   4    1.01    0.09
  -7  -2  -4    9.51    0.35
   7   2   4    9.12    0.40
   7   2   4    9.28    0.39
   7   2   4    9.65    0.45
   7   2   4    9.76    0.38
  -8  -2  -4    3.65    0.19
   8   2   4    4.01    0.27
   8   2   4    3.79    0.23
   8   2   4    3.79    0.23
   8   2   4    4.23    0.22
   9   2   4    0.42    0.12
   9   2   4    0.33    0.08
   9   2   4    0.47    0.10
   9   2   4    0.35    0.10
  10   2   4    0.29    0.09
  10   2   4    0.12    0.09
  10   2   4    0.28    0.10
  11   2   4    9.03    0.48
  11   2   4    9.16    0.42
  11   2   4    8.46    0.43
  12   2   4    0.26    0.11
  12   2   4    0.07    0.08
  12   2   4    0.19    0.11
  13   2   4    0.17    0.11
  13   2   4    0.40    0.13
  13   2   4    0.17    0.12
  14   2   4    0.04    0.10
  14   2   4    0.10    0.11
  14   2   4   -0.05    0.09
  15   2   4    0.20    0.12
  15   2   4    0.24    0.14
  15   2   4    0.01    0.11
  16   2   4    0.01    0.13
  16   2   4    0.04    0.12
  16   2   4    0.14    0.12
  17   2   4    0.54    0.18
  17   2   4    0.47    0.17
  17   2   4    0.71    0.18
  18   2   4    0.20    0.17
  18   2   4    0.25    0.16
  18  -3  -4    0.00    0.13
  17  -3  -4    0.27    0.13
  16  -3  -4   -0.04    0.11
  15  -3  -4    0.03    0.10
  15  -3  -4   -0.01    0.07
  14  -3  -4    1.30    0.15
  14  -3  -4    1.75    0.17
 -14   3   4    1.38    0.21
  13  -3  -4    0.04    0.06
  13  -3  -4    0.15    0.09
 -13   3   4    0.06    0.10
  12  -3  -4    0.98    0.11
  12  -3  -4    1.01    0.12
 -12   3   4    0.95    0.16
  11  -3  -4   19.94    0.74
  11  -3  -4   20.53    0.68
 -11   3   4   20.08    0.79
  10  -3  -4    1.57    0.14
  10  -3  -4    1.23    0.10
 -10   3   4    1.12    0.15
   9  -3  -4   25.80    0.79
   9  -3  -4   24.09    0.87
  -9   3   4   25.40    0.91
   8  -3  -4   20.81    0.63
   8  -3  -4   19.21    0.70
  -8   3   4   19.65    0.73
   7  -3  -4    0.52    0.05
  -7   3   4    0.34    0.08
   6  -3  -4   34.29    1.03
  -6   3   4   33.95    1.17
  -6   3   4   34.15    1.14
   5  -3  -4    0.97    0.05
  -5   3   4    0.99    0.10
   4  -3  -4    1.56    0.06
  -4   3   4    1.38    0.11
   3  -3  -4   73.10    2.15
  -3   3   4   72.27    2.28
   2  -3  -4    2.78    0.10
  -2   3   4    2.60    0.14
   1  -3  -4   18.57    0.64
   1  -3  -4   18.45    0.56
  -1   3   4   18.47    0.58
  -1   3   4   17.80    0.61
   0  -3  -4    0.39    0.04
   0  -3  -4    0.48    0.05
   0  -3  -4    0.32    0.05
   0   3   4    0.31    0.05
   0   3   4    0.32    0.05
  -1  -3  -4    1.58    0.08
  -1  -3  -4    1.50    0.08
  -1  -3  -4    1.82    0.10
   1   3   4    1.74    0.10
   1   3   4    1.61    0.10
   1   3   4    1.56    0.10
  -2  -3  -4   72.46    2.25
   2   3   4   70.14    2.19
   2   3   4   68.54    2.11
   2   3   4   68.34    2.27
  -3  -3  -4   23.59    0.77
   3   3   4   21.92    0.79
   3   3   4   24.50    0.77
   3   3   4   21.78    0.74
  -4  -3  -4    6.62    0.23
   4   3   4    6.26    0.26
   4   3   4    5.91    0.27
   4   3   4    6.67    0.27
  -5  -3  -4   12.75    0.43
   5   3   4   12.68    0.49
   5   3   4   12.49    0.46
   5   3   4   12.98    0.47
  -6  -3  -4    0.15    0.04
   6   3   4    0.19    0.06
   6   3   4    0.09    0.05
   6   3   4    0.08    0.05
  -7  -3  -4    9.53    0.35
   7   3   4    8.88    0.44
   7   3   4    9.34    0.40
   7   3   4    9.51    0.39
   7   3   4    9.06    0.38
  -8  -3  -4   35.72    1.15
   8   3   4   34.48    1.34
   8   3   4   35.29    1.20
   8   3   4   35.85    1.17
   8   3   4   34.97    1.24
   9   3   4   10.42    0.52
   9   3   4   11.11    0.46
   9   3   4   11.36    0.48
  10   3   4    3.76    0.28
  10   3   4    2.91    0.23
  10   3   4    3.44    0.24
  11   3   4    0.26    0.10
  11   3   4    0.33    0.11
  11   3   4    0.46    0.13
  12   3   4    1.19    0.17
  12   3   4    1.41    0.19
  12   3   4    1.66    0.22
  13   3   4    3.14    0.27
  13   3   4    2.81    0.25
  13   3   4    3.46    0.31
  14   3   4    0.77    0.16
  14   3   4    0.35    0.13
  14   3   4    0.73    0.18
  15   3   4    0.47    0.15
  15   3   4    0.94    0.20
  15   3   4    0.76    0.17
  16   3   4    0.70    0.18
  16   3   4    0.46    0.16
  16   3   4    1.02    0.22
  17   3   4    0.56    0.17
  17   3   4    0.44    0.17
  17   3   4    0.62    0.20
  18   3   4    0.94    0.22
  18   3   4    1.42    0.27
  18  -4  -4    0.34    0.16
  17  -4  -4    0.15    0.14
  16  -4  -4    0.22    0.12
  15  -4  -4   -0.03    0.09
  14  -4  -4    3.17    0.24
  14  -4  -4    3.28    0.21
 -14   4   4    3.51    0.29
  13  -4  -4    0.57    0.12
  13  -4  -4    0.57    0.10
 -13   4   4    0.50    0.14
  12  -4  -4    2.98    0.21
  12  -4  -4    3.39    0.19
 -12   4   4    3.42    0.26
  11  -4  -4    1.50    0.15
  11  -4  -4    1.27    0.11
 -11   4   4    1.38    0.18
  10  -4  -4   25.73    0.82
  10  -4  -4   24.21    0.89
 -10   4   4   26.15    0.94
   9  -4  -4    2.19    0.15
   9  -4  -4    1.59    0.11
  -9   4   4    1.32    0.16
   8  -4  -4   60.76    2.06
   8  -4  -4   62.45    1.89
  -8   4   4   61.16    2.06
  -8   4   4   67.42    2.16
   7  -4  -4    8.29    0.28
   7  -4  -4    8.32    0.33
  -7   4   4    8.20    0.37
  -7   4   4    8.51    0.32
   6  -4  -4    5.17    0.18
  -6   4   4    5.06    0.26
   5  -4  -4    3.48    0.12
  -5   4   4    3.27    0.19
  -4   4   4    0.25    0.06
  -3   4   4    3.70    0.19
  -2   4   4   83.21    2.62
   1  -4  -4    6.84    0.27
   1  -4  -4    6.88    0.22
  -1   4   4    6.22    0.27
  -1   4   4    6.89    0.23
   0  -4  -4    0.85    0.05
   0  -4  -4    0.99    0.08
   0  -4  -4    0.89    0.07
   0   4   4    0.92    0.09
   0   4   4    0.92    0.07
  -1  -4  -4  120.98    3.77
  -1  -4  -4  124.65    3.90
   1   4   4  121.31    3.80
   1   4   4  122.73    3.64
  -2  -4  -4   10.40    0.35
   2   4   4    9.84    0.36
   2   4   4    9.94    0.37
   2   4   4    9.84    0.38
  -3  -4  -4   14.22    0.46
   3   4   4   13.46    0.49
   3   4   4   12.91    0.49
   3   4   4   13.10    0.47
   4   4   4    4.24    0.20
   4   4   4    4.45    0.21
   4   4   4    4.47    0.22
   5   4   4    0.79    0.10
   5   4   4    0.78    0.09
   5   4   4    0.48    0.08
  -6  -4  -4    0.04    0.03
   6   4   4    0.01    0.05
   6   4   4    0.13    0.06
   6   4   4    0.08    0.05
  -7  -4  -4    0.30    0.06
   7   4   4    0.30    0.07
   7   4   4    0.23    0.08
   7   4   4    0.30    0.08
   8   4   4    4.81    0.27
   8   4   4    4.22    0.25
   8   4   4    5.02    0.27
   9   4   4    7.80    0.43
   9   4   4    7.54    0.37
   9   4   4    7.99    0.37
  10   4   4   10.90    0.50
  10   4   4   11.38    0.57
  10   4   4   11.20    0.48
  11   4   4    1.62    0.19
  11   4   4    1.37    0.17
  11   4   4    1.41    0.21
  12   4   4    8.06    0.44
  12   4   4    8.60    0.44
  12   4   4   10.15    0.53
  13   4   4    2.16    0.27
  13   4   4    2.04    0.23
  13   4   4    1.82    0.22
  14   4   4    0.41    0.15
  14   4   4    0.19    0.12
  14   4   4    0.36    0.12
  15   4   4    0.25    0.15
  15   4   4    0.06    0.12
  15   4   4    0.21    0.12
  16   4   4    3.47    0.35
  16   4   4    2.85    0.30
  16   4   4    3.23    0.30
  17   4   4    0.18    0.15
  18  -5  -4    0.61    0.17
  17  -5  -4    0.47    0.17
  16  -5  -4    1.24    0.19
  15  -5  -4    1.23    0.18
  14  -5  -4    0.86    0.14
 -14   5   4    1.24    0.21
  13  -5  -4    2.12    0.20
 -13   5   4    2.14    0.25
  12  -5  -4    1.24    0.13
  12  -5  -4    1.40    0.16
 -12   5   4    0.98    0.17
  11  -5  -4    2.14    0.14
  11  -5  -4    2.47    0.18
 -11   5   4    1.95    0.22
  10  -5  -4    6.90    0.27
  10  -5  -4    6.69    0.31
 -10   5   4    6.87    0.38
   9  -5  -4   53.40    1.66
   9  -5  -4   55.63    1.82
  -9   5   4   55.47    1.84
   8  -5  -4    7.54    0.31
   8  -5  -4    7.26    0.26
  -8   5   4    7.48    0.30
  -8   5   4    7.27    0.37
   7  -5  -4    7.54    0.31
   7  -5  -4    7.66    0.26
  -7   5   4    7.96    0.37
   6  -5  -4    1.14    0.09
  -6   5   4    0.96    0.12
   5  -5  -4   10.92    0.39
  -5   5   4   10.55    0.44
  -4   5   4    0.58    0.09
  -3   5   4    1.31    0.12
  -2   5   4    9.94    0.40
   1  -5  -4   29.14    0.87
   1  -5  -4   29.17    0.98
  -1   5   4   28.70    0.98
  -1   5   4   29.50    0.89
   0  -5  -4    1.71    0.08
   0  -5  -4    1.82    0.12
   0  -5  -4    1.53    0.09
   0   5   4    1.58    0.13
   0   5   4    1.54    0.09
  -1  -5  -4    2.65    0.11
  -1  -5  -4    2.36    0.13
   1   5   4    2.47    0.13
   1   5   4    2.44    0.16
  -2  -5  -4   22.62    0.75
  -2  -5  -4   22.87    0.73
   2   5   4   22.15    0.72
   2   5   4   21.40    0.74
  -3  -5  -4    0.28    0.03
   3   5   4    0.21    0.05
   3   5   4    0.28    0.07
   3   5   4    0.23    0.06
  -4  -5  -4    0.35    0.04
   4   5   4    0.15    0.05
   4   5   4    0.22    0.07
   4   5   4    0.19    0.05
   5   5   4    0.91    0.10
   5   5   4    0.74    0.09
   5   5   4    0.74    0.11
   6   5   4    0.89    0.12
   6   5   4    0.74    0.10
   6   5   4    1.04    0.12
   7   5   4    9.94    0.42
   7   5   4   11.01    0.46
   7   5   4   10.85    0.44
   8   5   4    0.98    0.13
   8   5   4    1.08    0.13
   9   5   4    0.89    0.13
   9   5   4    0.80    0.13
  10   5   4    0.29    0.10
  10   5   4    0.05    0.10
  10   5   4    0.16    0.09
  11   5   4    0.14    0.10
  11   5   4    0.31    0.10
  11   5   4    0.20    0.13
  12   5   4    0.32    0.12
  12   5   4    0.28    0.11
  12   5   4    0.59    0.16
  13   5   4    0.02    0.10
  13   5   4   -0.04    0.11
  13   5   4    0.00    0.09
  14   5   4    0.15    0.13
  14   5   4   -0.06    0.09
  14   5   4    0.01    0.10
  15   5   4    3.26    0.34
  15   5   4    2.57    0.28
  16   5   4   -0.04    0.12
  16   5   4    0.18    0.14
  17   5   4    1.02    0.25
  17  -6  -4    0.10    0.13
  16  -6  -4    2.41    0.26
  15  -6  -4    0.10    0.11
  14  -6  -4    0.23    0.11
 -14   6   4    0.17    0.13
  13  -6  -4    3.36    0.25
 -13   6   4    3.18    0.29
  12  -6  -4    1.00    0.14
 -12   6   4    0.94    0.17
  11  -6  -4    0.23    0.09
 -11   6   4    0.39    0.13
  10  -6  -4    0.23    0.08
 -10   6   4    0.22    0.10
   9  -6  -4   21.04    0.77
   9  -6  -4   21.99    0.70
  -9   6   4   21.40    0.84
   8  -6  -4    0.15    0.03
   8  -6  -4    0.27    0.07
  -8   6   4    0.26    0.11
   7  -6  -4    1.74    0.12
  -7   6   4    1.34    0.16
   6  -6  -4    1.47    0.10
  -6   6   4    1.34    0.15
   5  -6  -4    2.46    0.13
  -5   6   4    2.24    0.18
   4  -6  -4    1.78    0.10
  -4   6   4    1.64    0.15
   3  -6  -4    0.53    0.05
  -3   6   4    0.50    0.09
  -2   6   4   13.59    0.53
   1  -6  -4   10.25    0.41
   1  -6  -4   10.07    0.37
  -1   6   4   10.08    0.33
  -1   6   4   10.06    0.42
   0  -6  -4   11.64    0.38
   0  -6  -4   12.42    0.41
   0  -6  -4   11.79    0.45
   0   6   4   11.77    0.47
   0   6   4   11.90    0.40
  -1  -6  -4   28.71    0.93
   1   6   4   27.70    0.87
   1   6   4   27.02    0.96
   2   6   4   11.35    0.40
   3   6   4    0.44    0.05
   3   6   4    0.45    0.07
   4   6   4   14.15    0.57
   4   6   4   14.14    0.51
   4   6   4   14.44    0.51
   5   6   4   11.09    0.43
   5   6   4   11.25    0.43
   5   6   4   11.30    0.48
   6   6   4   12.31    0.51
   6   6   4   12.10    0.47
   6   6   4   11.85    0.46
   7   6   4    5.91    0.29
   7   6   4    5.57    0.28
   8   6   4    6.72    0.33
   8   6   4    6.54    0.32
   9   6   4    5.24    0.29
   9   6   4    5.72    0.31
  10   6   4    2.12    0.20
  10   6   4    1.58    0.18
  11   6   4    0.89    0.15
  11   6   4    0.74    0.14
  11   6   4    0.91    0.18
  12   6   4    0.54    0.16
  12   6   4    0.70    0.15
  13   6   4    0.09    0.11
  13   6   4    0.08    0.12
  14   6   4    0.71    0.17
  14   6   4    0.82    0.21
  15   6   4   -0.06    0.13
  15   6   4   -0.08    0.11
  16   6   4    0.04    0.15
  17  -7  -4    0.12    0.14
  16  -7  -4    0.03    0.11
  15  -7  -4    0.23    0.12
  14  -7  -4   -0.03    0.09
 -14   7   4    0.09    0.13
  13  -7  -4    0.28    0.11
 -13   7   4   -0.03    0.11
  12  -7  -4    1.51    0.17
 -12   7   4    1.84    0.25
  11  -7  -4    6.55    0.33
 -11   7   4    6.53    0.41
  10  -7  -4    2.48    0.19
 -10   7   4    2.37    0.24
   9  -7  -4    9.07    0.38
  -9   7   4    8.95    0.46
   8  -7  -4    6.31    0.28
  -8   7   4    5.56    0.35
   7  -7  -4    5.28    0.24
  -7   7   4    5.42    0.32
   6  -7  -4    8.70    0.34
  -6   7   4    8.46    0.42
   5  -7  -4    6.39    0.25
  -5   7   4    6.06    0.33
   4  -7  -4    4.69    0.19
  -4   7   4    4.31    0.27
   3  -7  -4    2.93    0.13
  -3   7   4    2.74    0.21
   2  -7  -4    1.13    0.07
   2  -7  -4    0.99    0.09
  -2   7   4    0.95    0.13
   1  -7  -4    2.16    0.08
   1  -7  -4    1.85    0.10
   1  -7  -4    1.73    0.15
  -1   7   4    2.01    0.10
  -1   7   4    1.93    0.17
   0  -7  -4    0.16    0.07
   0   7   4    0.10    0.06
   0   7   4    0.23    0.04
  -1  -7  -4    2.69    0.17
   1   7   4    2.75    0.14
   1   7   4    2.52    0.19
   2   7   4   11.00    0.40
   3   7   4    1.77    0.13
   4   7   4    5.68    0.26
   5   7   4    4.17    0.27
   5   7   4    4.54    0.23
   5   7   4    4.28    0.19
   6   7   4    0.89    0.11
   6   7   4    0.93    0.10
   7   7   4    0.21    0.08
   7   7   4    0.09    0.06
   8   7   4    3.94    0.25
   9   7   4    5.13    0.30
  10   7   4    0.14    0.10
  11   7   4    0.21    0.11
  11   7   4    0.39    0.15
  12   7   4    0.31    0.11
  12   7   4    0.30    0.16
  13   7   4    0.16    0.12
  13   7   4   -0.08    0.12
  14   7   4   -0.09    0.12
  14   7   4   -0.07    0.10
  15   7   4   -0.10    0.13
  15   7   4   -0.01    0.11
  17  -8  -4   -0.21    0.12
  16  -8  -4    1.97    0.25
  15  -8  -4    0.43    0.14
  14  -8  -4    1.61    0.20
 -14   8   4    1.43    0.24
  13  -8  -4    0.11    0.10
 -13   8   4    0.17    0.13
  12  -8  -4    0.92    0.15
 -12   8   4    0.83    0.18
  11  -8  -4    2.02    0.18
 -11   8   4    1.81    0.25
  10  -8  -4    0.29    0.09
 -10   8   4    0.28    0.14
   9  -8  -4    1.63    0.15
  -9   8   4    1.38    0.20
   8  -8  -4   25.95    0.91
  -8   8   4   25.59    1.00
   7  -8  -4    4.23    0.21
  -7   8   4    3.90    0.29
   6  -8  -4    4.68    0.21
  -6   8   4    3.99    0.29
   5  -8  -4    9.78    0.36
  -5   8   4    9.32    0.46
   4  -8  -4    0.20    0.04
  -4   8   4    0.08    0.08
   3  -8  -4    0.70    0.06
  -3   8   4    0.50    0.11
   2  -8  -4    0.34    0.06
   2  -8  -4    0.44    0.05
  -2   8   4    0.34    0.10
   1  -8  -4    1.98    0.17
  -1   8   4    1.67    0.19
  -1   8   4    2.08    0.10
   0  -8  -4   16.22    0.62
   0   8   4   16.21    0.52
   0   8   4   15.19    0.64
   1   8   4   34.08    1.22
   1   8   4   35.80    1.09
   2   8   4    8.37    0.32
   3   8   4    0.83    0.10
   4   8   4   14.15    0.51
   5   8   4    5.97    0.28
   6   8   4    0.17    0.07
   7   8   4    1.60    0.16
   8   8   4    3.65    0.24
   9   8   4   -0.01    0.08
  10   8   4    0.91    0.16
  11   8   4    0.03    0.10
  12   8   4    1.30    0.19
  12   8   4    1.91    0.27
  13   8   4   -0.09    0.11
  13   8   4   -0.05    0.10
  14   8   4    2.45    0.28
  14   8   4    3.27    0.36
  17  -9  -4   -0.02    0.13
  16  -9  -4    1.06    0.21
  15  -9  -4    0.08    0.11
  14  -9  -4    0.03    0.10
  13  -9  -4    1.24    0.18
 -13   9   4    1.60    0.27
  12  -9  -4    0.11    0.09
 -12   9   4    0.14    0.13
  11  -9  -4    0.20    0.09
 -11   9   4    0.24    0.13
  10  -9  -4    0.30    0.10
 -10   9   4    0.32    0.15
   9  -9  -4    3.85    0.24
  -9   9   4    3.98    0.32
   8  -9  -4   21.58    0.78
  -8   9   4   21.23    0.89
   7  -9  -4    1.66    0.13
  -7   9   4    1.10    0.19
   6  -9  -4   11.29    0.43
  -6   9   4   10.62    0.53
   5  -9  -4    0.24    0.06
  -5   9   4    0.17    0.10
   4  -9  -4    1.95    0.12
  -4   9   4    1.72    0.20
   3  -9  -4    0.07    0.03
  -3   9   4    0.14    0.09
  -2   9   4   14.32    0.62
  -1   9   4    0.17    0.04
  -1   9   4    0.23    0.09
   0   9   4    2.91    0.15
   0   9   4    3.37    0.25
   1   9   4   12.37    0.43
   1   9   4   11.57    0.53
   2   9   4    2.31    0.14
   3   9   4    1.49    0.13
   4   9   4    1.97    0.15
   5   9   4    1.34    0.14
   6   9   4    0.02    0.06
   7   9   4    1.62    0.17
   8   9   4    0.12    0.08
   9   9   4    0.02    0.09
  10   9   4   -0.04    0.09
  11   9   4    1.25    0.19
  12   9   4    0.58    0.20
  12   9   4    0.63    0.16
  13   9   4   -0.08    0.10
  13   9   4    0.03    0.14
  14   9   4    0.46    0.16
  16 -10  -4   -0.05    0.13
  15 -10  -4    0.11    0.12
  14 -10  -4   -0.03    0.10
  13 -10  -4   -0.01    0.10
 -13  10   4    0.13    0.16
  12 -10  -4   -0.03    0.09
 -12  10   4    0.05    0.14
  11 -10  -4    0.57    0.13
 -11  10   4    0.88    0.21
  10 -10  -4   -0.05    0.07
 -10  10   4   -0.08    0.12
   9 -10  -4   23.38    0.88
  -9  10   4   24.94    1.02
   8 -10  -4    2.23    0.17
  -8  10   4    2.09    0.27
   7 -10  -4   14.85    0.57
  -7  10   4   15.40    0.70
   6 -10  -4    4.40    0.22
  -6  10   4    4.74    0.35
  -5  10   4    2.09    0.24
  -4  10   4    1.27    0.19
  -3  10   4    2.25    0.23
  -2  10   4    4.74    0.32
  -1  10   4   13.75    0.61
   0  10   4    0.88    0.15
   1  10   4    1.68    0.12
   2  10   4    6.67    0.28
   3  10   4    4.49    0.23
   4  10   4    0.09    0.06
   5  10   4    1.40    0.15
   6  10   4    0.98    0.13
   7  10   4    2.74    0.22
   8  10   4    1.56    0.18
   9  10   4    0.10    0.10
  10  10   4   -0.11    0.09
  11  10   4    0.66    0.15
  12  10   4    1.28    0.22
  13  10   4    0.15    0.13
  14 -11  -4    0.01    0.13
 -13  11   4    0.67    0.22
 -12  11   4    1.93    0.30
 -11  11   4    2.39    0.33
 -10  11   4    3.51    0.34
  -9  11   4    1.72    0.26
  -8  11   4    4.32    0.38
  -7  11   4    1.54    0.23
  -6  11   4    8.54    0.50
  -5  11   4    0.58    0.16
  -4  11   4    0.21    0.12
  -3  11   4    0.53    0.16
  -2  11   4    1.56    0.23
  -1  11   4    5.65    0.37
   0  11   4    4.06    0.31
   3  11   4    1.58    0.14
   4  11   4   10.62    0.43
   5  11   4    1.22    0.14
   6  11   4    6.58    0.33
   7  11   4    0.22    0.10
   8  11   4    1.81    0.20
   9  11   4    0.26    0.12
  10  11   4    0.21    0.12
  11  11   4    1.39    0.21
  12  11   4    3.66    0.33
 -12  12   4    2.81    0.36
 -11  12   4    0.78    0.23
 -10  12   4   -0.04    0.13
  -9  12   4    0.29    0.16
  -8  12   4    4.89    0.41
  -7  12   4    0.92    0.21
  -6  12   4    0.66    0.18
  -5  12   4    1.48    0.24
  -4  12   4    3.40    0.32
  -3  12   4    0.37    0.15
  -2  12   4    2.43    0.28
  -1  12   4    1.74    0.24
   6  12   4    5.40    0.32
   7  12   4    2.51    0.23
   8  12   4    3.84    0.28
   9  12   4    1.02    0.17
  10  12   4    0.01    0.11
  11  12   4    1.97    0.25
  12  12   4    0.44    0.17
 -12  13   4    0.54    0.22
 -11  13   4    3.22    0.39
 -10  13   4    0.36    0.18
  -9  13   4    2.50    0.35
  -8  13   4    2.02    0.30
  -7  13   4    5.12    0.42
  -6  13   4    0.14    0.14
  -5  13   4   -0.18    0.11
  -4  13   4   -0.03    0.11
  -3  13   4    2.09    0.28
  -2  13   4    0.83    0.19
  -1  13   4    0.89    0.19
 -11  14   4    2.70    0.39
 -10  14   4    1.46    0.29
  -9  14   4    6.35    0.52
  -8  14   4    0.47    0.21
  -7  14   4    1.69    0.29
  -6  14   4    0.08    0.16
  -5  14   4    1.10    0.24
  -4  14   4   -0.03    0.13
  -3  14   4    0.70    0.19
  -2  14   4    0.11    0.13
 -10  15   4    3.89    0.48
  -9  15   4    0.74    0.24
  -8  15   4    1.83    0.32
  -7  15   4   -0.13    0.15
  -6  15   4    3.28    0.41
  -5  15   4    1.89    0.31
  -4  15   4   -0.04    0.12
  -3  15   4    0.74    0.21
  -2  15   4    0.03    0.15
  -8  16   4    0.32    0.20
  -7  16   4    0.05    0.20
  -6  16   4    0.31    0.20
  -5  16   4    1.10    0.27
  -4  16   4    3.10    0.40
  -3  16   4    0.28    0.18
   9  17  -5    1.75    0.23
   8  17  -5    2.24    0.23
   7  17  -5    1.09    0.17
   6  17  -5    1.63    0.19
   5  17  -5    1.00    0.15
   4  17  -5   10.15    0.45
   3  17  -5    0.87    0.13
   2  17  -5    0.06    0.09
  10  16  -5    4.16    0.31
   9  16  -5    9.08    0.45
   8  16  -5    0.25    0.13
   7  16  -5    2.75    0.24
   6  16  -5    0.19    0.10
   5  16  -5    5.09    0.30
   4  16  -5    0.98    0.14
   3  16  -5    1.19    0.15
   2  16  -5    0.14    0.09
   1  16  -5    0.07    0.08
   0  16  -5    5.79    0.30
  11  15  -5    3.45    0.30
  10  15  -5    4.79    0.32
   9  15  -5    0.12    0.11
   8  15  -5    5.72    0.34
   7  15  -5    0.23    0.11
   6  15  -5    0.24    0.11
   5  15  -5    0.04    0.09
   4  15  -5    0.00    0.08
   3  15  -5   14.47    0.57
   2  15  -5    1.44    0.16
   1  15  -5    4.95    0.28
   9 -15   5    0.45    0.16
  10 -15   5    4.00    0.35
  11 -15   5    0.86    0.20
  12 -15   5    0.00    0.13
  13 -15   5    4.20    0.39
  14 -15   5    1.04    0.25
  12  14  -5    1.80    0.22
  11  14  -5    0.66    0.15
  10  14  -5    0.08    0.11
   9  14  -5    1.32    0.19
   8  14  -5    0.34    0.12
   7  14  -5    1.37    0.17
   6  14  -5    0.50    0.12
   5  14  -5    0.74    0.13
   4  14  -5   19.60    0.72
   3  14  -5    8.47    0.39
   2  14  -5    0.69    0.12
  -3  14  -5    1.17    0.22
   3 -14   5    1.08    0.16
   4 -14   5    6.02    0.35
   5 -14   5    4.09    0.29
   6 -14   5    0.48    0.13
   7 -14   5    2.65    0.25
   8 -14   5    0.53    0.15
   9 -14   5    7.74    0.46
  10 -14   5    3.23    0.31
  11 -14   5    1.44    0.24
  12 -14   5    2.23    0.30
  13 -14   5    4.44    0.41
  14 -14   5    1.75    0.30
  15 -14   5    0.47    0.20
  13  13  -5    0.23    0.13
  12  13  -5    0.26    0.14
  11  13  -5    0.08    0.12
  10  13  -5    0.53    0.13
   9  13  -5    0.71    0.14
   8  13  -5    4.94    0.30
   7  13  -5   -0.03    0.09
   6  13  -5    2.29    0.20
   5  13  -5    3.94    0.25
   4  13  -5    0.24    0.09
   3  13  -5   11.84    0.48
  -2 -13   5    0.11    0.11
  -1 -13   5    3.33    0.29
   0 -13   5    1.03    0.20
   1 -13   5    4.25    0.26
   1 -13   5    3.93    0.33
   2 -13   5    1.99    0.18
  -3  13  -5    3.20    0.29
   3 -13   5    3.42    0.25
  -4  13  -5    0.34    0.13
   4 -13   5    0.26    0.10
   5 -13   5    4.24    0.29
   6 -13   5    0.37    0.11
   7 -13   5    1.08    0.18
   8 -13   5    0.22    0.12
   9 -13   5    0.15    0.11
  10 -13   5    4.53    0.35
  11 -13   5    3.69    0.34
  12 -13   5    1.33    0.24
  13 -13   5    0.60    0.19
  14 -13   5    3.49    0.37
  15 -13   5    5.63    0.47
  13  12  -5    1.77    0.21
  12  12  -5    0.21    0.13
  11  12  -5    4.72    0.31
  10  12  -5    6.77    0.37
   9  12  -5   19.65    0.73
   8  12  -5    3.79    0.25
   7  12  -5    3.54    0.24
   6  12  -5    2.82    0.21
   5  12  -5    0.24    0.09
   4  12  -5    0.09    0.08
  -4 -12   5    0.04    0.09
  -3 -12   5    0.21    0.11
  -2 -12   5    0.10    0.10
  -1 -12   5    0.95    0.17
   0 -12   5    1.26    0.18
   1 -12   5    0.57    0.11
   1 -12   5    0.64    0.14
  -2  12  -5    3.17    0.27
   2 -12   5    2.58    0.21
  -3  12  -5    4.16    0.31
   3 -12   5    3.80    0.26
  -4  12  -5   14.82    0.68
   4 -12   5   15.50    0.65
  -5  12  -5    0.93    0.18
   5 -12   5    0.73    0.14
  -6  12  -5   16.03    0.73
   6 -12   5   16.09    0.69
   7 -12   5    5.57    0.35
   8 -12   5    1.16    0.19
   9 -12   5    0.39    0.13
  10 -12   5    1.80    0.25
  11 -12   5    0.83    0.18
  12 -12   5    0.66    0.18
  13 -12   5    0.52    0.17
  14 -12   5   -0.03    0.12
  15 -12   5    0.14    0.15
  16 -12   5    0.45    0.20
  14  11  -5    4.09    0.29
  13  11  -5    3.40    0.28
  12  11  -5    6.65    0.37
  11  11  -5    4.27    0.28
  10  11  -5   11.57    0.48
  10  11  -5   11.97    0.50
   9  11  -5    1.40    0.16
   8  11  -5   21.66    0.78
   7  11  -5    0.89    0.13
   6  11  -5    0.97    0.14
  -6 -11   5    0.79    0.16
   5  11  -5    1.21    0.13
  -5 -11   5    1.25    0.18
   4  11  -5    0.70    0.11
  -4 -11   5    1.03    0.18
  -3 -11   5   11.04    0.54
  -2 -11   5    0.43    0.12
  -1 -11   5   21.41    0.87
   0 -11   5    0.72    0.16
   0 -11   5    1.08    0.14
   1 -11   5   24.07    0.90
  -2  11  -5    5.16    0.33
   2 -11   5    4.87    0.29
  -3  11  -5   39.46    1.40
   3 -11   5   37.89    1.38
  -4  11  -5    0.19    0.10
   4 -11   5    0.31    0.10
  -5  11  -5   15.23    0.68
   5 -11   5   16.00    0.67
  -6  11  -5    1.58    0.22
   6 -11   5    1.19    0.17
  -7  11  -5   13.32    0.65
   7 -11   5   12.22    0.58
   8 -11   5    0.65    0.15
   9 -11   5    0.50    0.14
  10 -11   5    2.43    0.26
  11 -11   5    1.22    0.18
  11 -11   5    1.28    0.21
  12 -11   5    0.25    0.11
  12 -11   5    0.21    0.13
  13 -11   5    2.17    0.29
  13 -11   5    2.48    0.29
  14 -11   5    0.46    0.17
  15 -11   5    1.68    0.29
  16 -11   5    0.70    0.22
  15  10  -5    1.83    0.23
  14  10  -5    0.72    0.14
  13  10  -5    0.13    0.10
  13  10  -5   -0.04    0.10
  12  10  -5    4.45    0.25
  12  10  -5    4.47    0.29
  11  10  -5    2.48    0.22
  11  10  -5    2.60    0.19
  10  10  -5    0.22    0.10
   9  10  -5    9.73    0.42
   8  10  -5    8.06    0.36
   7  10  -5    0.25    0.09
  -7 -10   5    0.28    0.11
   6  10  -5    3.77    0.23
  -6 -10   5    3.48    0.27
   5  10  -5    0.51    0.10
  -5 -10   5    0.62    0.14
  -4 -10   5   25.41    0.97
  -3 -10   5    0.48    0.12
  -2 -10   5   16.95    0.71
  -1 -10   5    7.53    0.41
   0 -10   5   23.43    0.88
   0 -10   5   23.95    0.93
   1 -10   5    0.10    0.07
  -2  10  -5   35.41    1.24
   2 -10   5   33.49    1.23
  -3  10  -5    0.29    0.10
   3 -10   5    0.48    0.11
  -4  10  -5   10.79    0.50
   4 -10   5   10.62    0.49
  -5  10  -5    9.37    0.47
   5 -10   5    9.44    0.45
  -6  10  -5    4.99    0.33
   6 -10   5    4.86    0.31
  -7  10  -5    8.04    0.44
   7 -10   5    7.81    0.42
   8 -10   5    3.03    0.26
   9 -10   5   15.26    0.69
   9 -10   5   15.51    0.63
  10 -10   5    3.00    0.24
  10 -10   5    2.41    0.25
  11 -10   5    8.63    0.43
  11 -10   5    7.36    0.46
  12 -10   5    4.82    0.33
  12 -10   5    4.65    0.37
  13 -10   5    2.36    0.30
  13 -10   5    2.56    0.27
  14 -10   5    3.77    0.35
  14 -10   5    4.27    0.32
  15 -10   5    0.60    0.18
  16 -10   5    3.67    0.39
  15   9  -5    0.05    0.10
  15   9  -5    0.14    0.12
  14   9  -5    2.44    0.22
  14   9  -5    2.59    0.24
  13   9  -5    0.48    0.13
  13   9  -5    0.50    0.12
  12   9  -5    1.13    0.14
  12   9  -5    1.08    0.16
  11   9  -5   -0.07    0.08
  11   9  -5   -0.04    0.07
  10   9  -5    2.80    0.20
   9   9  -5    0.08    0.08
  -9  -9   5    0.01    0.09
   8   9  -5    3.42    0.21
  -8  -9   5    3.19    0.26
   7   9  -5    2.17    0.18
  -7  -9   5    2.17    0.21
   6   9  -5    0.15    0.08
  -6  -9   5    0.23    0.10
   5   9  -5   10.45    0.42
  -5  -9   5   10.11    0.48
  -4  -9   5    2.62    0.22
  -3  -9   5    6.19    0.35
  -2  -9   5    0.51    0.12
  -1  -9   5   29.04    1.07
   0  -9   5    7.79    0.40
   0  -9   5    8.02    0.37
   1  -9   5    9.36    0.42
  -2   9  -5   14.78    0.60
   2  -9   5   14.08    0.59
  -3   9  -5    4.92    0.29
   3  -9   5    4.92    0.28
  -4   9  -5    2.00    0.19
   4  -9   5    1.86    0.17
  -5   9  -5    8.78    0.42
   5  -9   5    8.36    0.41
  -6   9  -5    0.16    0.09
   6  -9   5    0.16    0.08
  -7   9  -5    1.00    0.16
   7  -9   5    0.91    0.15
   7  -9   5    0.83    0.14
  -8   9  -5    0.84    0.15
   8  -9   5    0.75    0.13
   8  -9   5    0.95    0.17
   9  -9   5    0.07    0.10
   9  -9   5    0.15    0.09
  10  -9   5    9.63    0.47
  10  -9   5    9.87    0.52
  11  -9   5    9.00    0.50
  11  -9   5    8.85    0.45
  12  -9   5    0.52    0.14
  12  -9   5    0.46    0.14
  13  -9   5    1.06    0.20
  13  -9   5    1.11    0.18
  14  -9   5    3.16    0.29
  14  -9   5    3.00    0.34
  15  -9   5    5.83    0.45
  15  -9   5    6.22    0.41
  16  -9   5    0.49    0.19
  16  -9   5    0.82    0.19
  17  -9   5    3.10    0.37
  17   8  -5    0.21    0.14
  16   8  -5    0.77    0.16
  16   8  -5    0.77    0.17
  15   8  -5    0.62    0.15
  15   8  -5    0.39    0.13
  14   8  -5    3.61    0.25
  14   8  -5    4.06    0.27
  13   8  -5    7.99    0.38
  13   8  -5    8.10    0.39
  12   8  -5    0.10    0.08
  12   8  -5    0.28    0.09
  11   8  -5    2.03    0.17
  11   8  -5    2.33    0.20
  10   8  -5    7.78    0.36
 -10  -8   5    8.07    0.42
   9   8  -5   28.59    0.95
  -9  -8   5   27.22    1.03
   8   8  -5    0.34    0.09
  -8  -8   5    0.28    0.10
   7   8  -5    9.09    0.38
  -7  -8   5    8.85    0.43
   6   8  -5    0.38    0.09
  -6  -8   5    0.40    0.11
   5   8  -5    8.47    0.35
  -5  -8   5    8.34    0.41
  -4  -8   5    6.86    0.35
  -3  -8   5   20.33    0.78
  -2  -8   5    2.46    0.20
  -1  -8   5    5.73    0.31
  -1  -8   5    5.14    0.28
   0  -8   5    8.02    0.39
   0  -8   5    8.32    0.38
   0  -8   5    8.42    0.40
   1  -8   5    2.80    0.20
   1  -8   5    2.69    0.19
  -2   8  -5   11.26    0.48
   2  -8   5   11.74    0.49
   2  -8   5   10.80    0.47
  -3   8  -5    0.04    0.06
   3  -8   5    0.09    0.07
   3  -8   5    0.10    0.06
  -4   8  -5    8.90    0.41
   4  -8   5    8.53    0.39
   4  -8   5    8.51    0.40
  -5   8  -5    0.65    0.11
   5  -8   5    0.92    0.13
   5  -8   5    0.67    0.12
  -6   8  -5   10.16    0.46
   6  -8   5   10.00    0.46
   6  -8   5    9.47    0.42
   6  -8   5    9.76    0.43
  -7   8  -5    6.40    0.35
   7  -8   5    6.39    0.36
   7  -8   5    6.73    0.34
  -8   8  -5   12.12    0.54
   8  -8   5   11.80    0.51
   8  -8   5   11.13    0.54
   9  -8   5    5.21    0.34
   9  -8   5    5.74    0.32
  10  -8   5   10.63    0.54
  10  -8   5   11.59    0.51
  11  -8   5    0.13    0.10
  11  -8   5    0.14    0.09
  12  -8   5    4.10    0.30
  12  -8   5    4.63    0.35
  13  -8   5    0.61    0.14
  13  -8   5    0.50    0.15
  14  -8   5    1.64    0.22
  14  -8   5    1.30    0.23
  15  -8   5    1.14    0.22
  15  -8   5    1.12    0.20
  16  -8   5    0.06    0.14
  16  -8   5    0.12    0.12
  17  -8   5   -0.10    0.13
  17  -8   5    0.07    0.12
  18   7  -5   -0.04    0.13
  17   7  -5    1.01    0.18
  17   7  -5    1.09    0.19
  16   7  -5    0.22    0.13
  16   7  -5    0.27    0.12
  15   7  -5   10.49    0.47
  15   7  -5    9.90    0.47
  14   7  -5    3.45    0.25
  14   7  -5    3.48    0.25
  13   7  -5    6.72    0.34
  13   7  -5    6.54    0.33
  12   7  -5    6.80    0.32
  12   7  -5    6.09    0.31
  11   7  -5    2.80    0.21
  10   7  -5    9.54    0.39
 -10  -7   5    8.69    0.44
   9   7  -5    2.90    0.19
   8   7  -5    5.18    0.25
  -8  -7   5    4.96    0.30
   7   7  -5   24.71    0.85
  -7  -7   5   25.55    0.93
   6   7  -5   21.21    0.74
  -6  -7   5   22.51    0.82
  -5  -7   5    2.56    0.20
  -4  -7   5   13.82    0.56
  -3  -7   5   26.03    0.94
  -2  -7   5    5.27    0.28
  -1  -7   5   31.84    1.10
  -1  -7   5   31.12    1.11
  -1  -7   5   31.95    1.12
   0  -7   5    8.97    0.40
   0  -7   5    9.22    0.40
   1  -7   5   28.08    0.97
   1  -7   5   27.23    1.00
  -2   7  -5    0.79    0.11
   2  -7   5    0.58    0.10
   2  -7   5    0.79    0.11
  -3   7  -5   22.28    0.82
   3  -7   5   22.72    0.85
   3  -7   5   23.23    0.82
  -4   7  -5    3.13    0.21
   4  -7   5    3.40    0.22
   4  -7   5    3.29    0.20
  -5   7  -5    4.68    0.26
   5  -7   5    4.43    0.27
   5  -7   5    4.50    0.25
   5  -7   5    4.53    0.24
  -6   7  -5    0.42    0.10
   6  -7   5    0.59    0.11
   6  -7   5    0.42    0.09
   6  -7   5    0.44    0.09
  -7   7  -5   29.69    1.07
   7  -7   5   31.06    1.04
   7  -7   5   29.50    1.11
   7  -7   5   29.26    1.04
  -8   7  -5    0.39    0.11
   8  -7   5    0.29    0.10
   8  -7   5    0.41    0.11
   8  -7   5    0.45    0.10
  -9   7  -5   13.18    0.57
   9  -7   5   12.17    0.58
   9  -7   5   12.44    0.53
  10  -7   5    0.97    0.15
  10  -7   5    1.07    0.18
  11  -7   5    0.13    0.09
  11  -7   5    0.05    0.09
  12  -7   5    2.98    0.27
  12  -7   5    3.25    0.27
  13  -7   5    0.64    0.17
  13  -7   5    0.61    0.15
  14  -7   5    0.42    0.15
  14  -7   5    0.26    0.12
  15  -7   5    1.09    0.21
  15  -7   5    0.87    0.18
  16  -7   5    1.65    0.27
  16  -7   5    1.39    0.22
  17  -7   5    0.43    0.18
  17  -7   5    0.31    0.16
  18  -7   5    0.37    0.16
  18   6  -5    0.31    0.16
  17   6  -5    0.38    0.14
  17   6  -5    0.77    0.16
  16   6  -5    1.45    0.19
  16   6  -5    1.04    0.17
  15   6  -5    0.13    0.10
  15   6  -5    0.45    0.13
  14   6  -5    1.74    0.22
  14   6  -5    2.08    0.18
  14   6  -5    1.87    0.19
  13   6  -5    0.54    0.11
  13   6  -5    0.30    0.10
  12   6  -5    7.48    0.35
  12   6  -5    7.19    0.34
  11   6  -5   11.57    0.46
 -11  -6   5   11.15    0.51
  10   6  -5    9.05    0.39
 -10  -6   5    9.68    0.44
   9   6  -5   17.49    0.62
  -9  -6   5   17.33    0.68
   8   6  -5    1.22    0.13
  -8  -6   5    1.44    0.17
   7   6  -5   18.71    0.65
  -7  -6   5   18.74    0.71
   6   6  -5    0.31    0.08
  -6  -6   5    0.24    0.07
  -5  -6   5   11.59    0.48
  -4  -6   5  127.87    4.03
  -3  -6   5   25.42    0.90
  -2  -6   5    5.94    0.29
  -1  -6   5   11.34    0.48
  -1  -6   5   12.18    0.49
  -1  -6   5   12.67    0.50
   0  -6   5   77.02    2.59
   0  -6   5   79.94    2.51
   1  -6   5    4.06    0.22
   1  -6   5    4.10    0.23
  -2   6  -5    3.34    0.19
   2  -6   5    3.27    0.21
   2  -6   5    3.57    0.20
  -3   6  -5   10.03    0.41
   3  -6   5    9.73    0.40
   3  -6   5   10.04    0.43
  -4   6  -5   96.40    3.04
   4  -6   5   95.69    2.93
   4  -6   5   95.11    3.15
   4  -6   5   95.48    3.03
  -5   6  -5   20.62    0.73
   5  -6   5   19.63    0.71
   5  -6   5   20.35    0.72
   5  -6   5   18.72    0.75
  -6   6  -5    0.32    0.08
   6  -6   5    0.33    0.07
   6  -6   5    0.29    0.08
   6  -6   5    0.25    0.08
  -7   6  -5    1.82    0.16
   7  -6   5    1.53    0.16
   7  -6   5    1.72    0.16
   7  -6   5    1.56    0.14
  -8   6  -5   10.76    0.47
   8  -6   5   10.80    0.47
   8  -6   5   10.37    0.50
   8  -6   5   11.52    0.45
  -9   6  -5   39.21    1.34
   9  -6   5   38.98    1.30
   9  -6   5   36.55    1.39
  10  -6   5    0.06    0.08
  10  -6   5    0.10    0.09
  11  -6   5    7.25    0.38
  11  -6   5    6.58    0.40
  12  -6   5    0.07    0.09
  12  -6   5    0.14    0.11
  13  -6   5    4.34    0.34
  13  -6   5    4.60    0.32
  14  -6   5    4.10    0.34
  14  -6   5    4.18    0.32
  15  -6   5   11.92    0.64
  15  -6   5   11.83    0.59
  16  -6   5    5.27    0.42
  16  -6   5    4.78    0.37
  17  -6   5    1.37    0.24
  17  -6   5    1.31    0.23
  18  -6   5    1.94    0.28
  18   5  -5    0.26    0.15
  18   5  -5    0.16    0.13
  17   5  -5    0.01    0.10
  17   5  -5    0.03    0.12
  16   5  -5    1.55    0.19
  16   5  -5    1.13    0.16
  15   5  -5    1.26    0.17
  15   5  -5    1.16    0.15
  14   5  -5    1.76    0.19
  14   5  -5    1.91    0.19
  13   5  -5    2.05    0.17
  13   5  -5    2.25    0.19
  12   5  -5    0.84    0.13
  12   5  -5    0.90    0.13
 -12  -5   5    0.76    0.14
  11   5  -5    0.81    0.11
 -11  -5   5    0.76    0.14
  10   5  -5    6.69    0.30
 -10  -5   5    6.50    0.34
   9   5  -5   10.89    0.42
  -9  -5   5   10.66    0.46
   8   5  -5    1.47    0.13
  -8  -5   5    1.69    0.16
   7   5  -5    1.67    0.13
  -7  -5   5    2.20    0.17
   6   5  -5    1.61    0.13
  -6  -5   5    1.73    0.15
  -5  -5   5   44.47    1.48
  -4  -5   5    0.32    0.07
  -3  -5   5    0.16    0.06
  -2  -5   5    0.83    0.10
  -1  -5   5  107.06    3.37
  -1  -5   5  107.05    3.49
   0  -5   5   13.08    0.51
   0  -5   5   12.10    0.47
   1  -5   5   10.33    0.43
   1  -5   5   10.22    0.40
  -2   5  -5   44.77    1.40
   2  -5   5   41.56    1.40
   2  -5   5   42.68    1.47
  -3   5  -5   41.71    1.33
   3  -5   5   38.91    1.39
   3  -5   5   39.82    1.30
   3  -5   5   40.99    1.32
  -4   5  -5    1.97    0.14
   4  -5   5    2.15    0.16
   4  -5   5    2.06    0.14
   4  -5   5    2.18    0.15
  -5   5  -5   20.39    0.72
   5  -5   5   19.26    0.76
   5  -5   5   20.31    0.70
   5  -5   5   20.10    0.71
  -6   5  -5    0.03    0.05
   6  -5   5    0.01    0.04
   6  -5   5    0.08    0.06
   6  -5   5    0.03    0.06
  -7   5  -5    2.83    0.19
   7  -5   5    2.83    0.20
   7  -5   5    2.80    0.17
   7  -5   5    2.92    0.22
  -8   5  -5    1.62    0.15
   8  -5   5    1.84    0.15
   8  -5   5    1.25    0.16
   8  -5   5    1.73    0.16
  -9   5  -5    2.27    0.19
   9  -5   5    2.50    0.18
   9  -5   5    2.49    0.21
   9  -5   5    2.61    0.21
  10  -5   5   29.71    1.13
  10  -5   5   29.08    1.04
  11  -5   5    1.95    0.21
  11  -5   5    1.91    0.23
  12  -5   5    0.91    0.17
  12  -5   5    1.06    0.17
  13  -5   5    7.21    0.40
  13  -5   5    6.75    0.43
  14  -5   5    6.62    0.40
  14  -5   5    6.82    0.44
  15  -5   5    7.75    0.46
  15  -5   5    8.12    0.50
  16  -5   5    0.19    0.13
  16  -5   5    0.10    0.13
  17  -5   5    5.69    0.46
  17  -5   5    6.34    0.44
  18  -5   5    0.68    0.19
  18  -5   5    0.44    0.19
  18   4  -5   -0.06    0.12
  18   4  -5   -0.03    0.11
  17   4  -5    0.17    0.12
  17   4  -5    0.19    0.13
  16   4  -5    1.39    0.17
  16   4  -5    1.87    0.21
  15   4  -5    1.44    0.17
  15   4  -5    1.15    0.15
  14   4  -5    1.09    0.13
  14   4  -5    1.06    0.14
  13   4  -5    3.41    0.22
  13   4  -5    3.41    0.22
  13   4  -5    3.19    0.24
  12   4  -5   -0.03    0.06
  12   4  -5    0.06    0.08
 -12  -4   5    0.11    0.08
  11   4  -5    0.43    0.08
 -11  -4   5    0.59    0.12
  10   4  -5    2.59    0.17
 -10  -4   5    3.13    0.22
   9   4  -5    0.26    0.07
  -9  -4   5    0.19    0.08
   8   4  -5    4.60    0.22
  -8  -4   5    4.66    0.25
   7   4  -5    1.65    0.12
  -7  -4   5    1.65    0.14
   6   4  -5    2.64    0.15
  -6  -4   5    2.80    0.18
  -5  -4   5    1.78    0.14
  -4  -4   5   31.76    1.07
  -3  -4   5  138.38    4.31
  -2  -4   5   32.51    1.08
  -1  -4   5   24.90    0.90
  -1  -4   5   25.46    0.86
   0  -4   5    2.03    0.13
   0  -4   5    2.04    0.15
   1  -4   5   13.82    0.50
   1  -4   5   13.68    0.54
  -2   4  -5   20.36    0.70
   2  -4   5   20.45    0.76
   2  -4   5   20.31    0.71
   2  -4   5   20.88    0.70
  -3   4  -5   35.79    1.15
   3  -4   5   34.89    1.15
   3  -4   5   34.71    1.22
   3  -4   5   35.31    1.14
  -4   4  -5    0.24    0.05
   4  -4   5    0.16    0.05
   4  -4   5    0.53    0.09
   4  -4   5    0.18    0.06
  -5   4  -5   28.55    0.95
   5  -4   5   27.63    0.95
   5  -4   5   28.03    1.02
   5  -4   5   29.13    0.95
  -6   4  -5    2.62    0.16
   6  -4   5    2.84    0.20
   6  -4   5    2.83    0.16
   6  -4   5    2.90    0.19
  -7   4  -5    8.61    0.36
   7  -4   5    8.39    0.37
   7  -4   5    7.84    0.39
   7  -4   5    8.45    0.34
  -8   4  -5    0.73    0.11
   8  -4   5    1.16    0.11
   8  -4   5    0.84    0.13
   8  -4   5    0.83    0.13
  -9   4  -5   19.14    0.69
   9  -4   5   16.56    0.73
   9  -4   5   18.71    0.66
   9  -4   5   18.14    0.69
  10  -4   5   11.56    0.54
  10  -4   5   11.71    0.51
  11  -4   5    3.00    0.25
  11  -4   5    2.73    0.22
  12  -4   5    0.17    0.10
  12  -4   5    0.08    0.09
  13  -4   5    3.46    0.29
  13  -4   5    3.79    0.28
  14  -4   5    2.12    0.24
  14  -4   5    2.47    0.29
  15  -4   5    0.75    0.16
  15  -4   5    0.47    0.16
  16  -4   5    0.87    0.18
  16  -4   5    0.89    0.20
  17  -4   5    1.73    0.26
  17  -4   5    1.35    0.25
  18  -4   5    1.22    0.26
  18  -4   5    0.83    0.21
  18   3  -5    0.41    0.16
  18   3  -5    0.38    0.14
  17   3  -5    4.63    0.30
  17   3  -5    4.48    0.31
  16   3  -5    0.49    0.13
  16   3  -5    0.73    0.16
  15   3  -5    4.62    0.28
  15   3  -5    4.90    0.29
  14   3  -5    0.23    0.09
  14   3  -5    0.10    0.09
  13   3  -5    8.87    0.38
  13   3  -5    8.97    0.40
  13   3  -5    8.72    0.42
 -13  -3   5    9.01    0.44
  12   3  -5    1.06    0.13
  12   3  -5    0.84    0.11
  12   3  -5    0.74    0.11
 -12  -3   5    0.95    0.15
  11   3  -5    6.99    0.30
  11   3  -5    6.37    0.32
 -11  -3   5    6.63    0.34
  10   3  -5   22.13    0.75
 -10  -3   5   22.57    0.82
   9   3  -5    4.51    0.21
  -9  -3   5    4.48    0.25
   8   3  -5    0.42    0.07
  -8  -3   5    0.60    0.09
  -7  -3   5    0.39    0.07
   6   3  -5   11.44    0.41
  -6  -3   5   11.30    0.44
  -5  -3   5    3.50    0.19
  -4  -3   5    4.93    0.23
  -3  -3   5   50.72    1.63
  -2  -3   5   58.62    1.86
  -1  -3   5    0.37    0.07
  -1  -3   5    0.35    0.06
   0  -3   5    8.20    0.35
   1  -3   5   13.64    0.47
   1  -3   5   13.51    0.53
   2  -3   5    1.13    0.12
   2  -3   5    1.15    0.08
   2  -3   5    1.13    0.11
  -3   3  -5   26.15    0.85
   3  -3   5   25.58    0.86
   3  -3   5   27.03    0.85
   3  -3   5   25.01    0.93
  -4   3  -5    0.56    0.07
   4  -3   5    0.38    0.07
   4  -3   5    0.57    0.09
   4  -3   5    0.43    0.06
  -5   3  -5   75.36    2.36
   5  -3   5   73.05    2.48
   5  -3   5   76.31    2.35
   5  -3   5   74.50    2.31
  -6   3  -5   24.39    0.83
   6  -3   5   24.21    0.84
   6  -3   5   25.02    0.82
   6  -3   5   23.86    0.90
  -7   3  -5    9.49    0.38
   7  -3   5    9.94    0.37
   7  -3   5    9.15    0.40
   7  -3   5    8.56    0.42
  -8   3  -5    8.96    0.37
   8  -3   5    8.64    0.35
   8  -3   5    8.36    0.41
   8  -3   5    8.88    0.39
  -9   3  -5    8.01    0.36
   9  -3   5    7.96    0.34
   9  -3   5    7.78    0.38
   9  -3   5    7.82    0.40
  10  -3   5    3.21    0.25
  10  -3   5    3.42    0.24
  11  -3   5    3.84    0.26
  11  -3   5    3.81    0.29
  12  -3   5    0.07    0.10
  12  -3   5    0.14    0.10
  13  -3   5    0.19    0.11
  13  -3   5   -0.02    0.08
  14  -3   5    0.17    0.11
  14  -3   5    0.27    0.12
  15  -3   5    0.65    0.17
  15  -3   5    0.65    0.16
  16  -3   5    0.51    0.16
  16  -3   5    0.33    0.14
  17  -3   5    0.02    0.13
  17  -3   5    0.06    0.12
  18  -3   5    0.87    0.22
  18  -3   5    0.90    0.21
  19   2  -5   -0.08    0.11
  18   2  -5    0.32    0.15
  18   2  -5    0.56    0.14
  17   2  -5    0.19    0.12
  17   2  -5    0.09    0.13
  16   2  -5    6.69    0.35
  16   2  -5    6.54    0.37
  15   2  -5    1.74    0.19
  15   2  -5    1.27    0.15
  14   2  -5    0.91    0.14
  14   2  -5    0.81    0.12
  13   2  -5    0.53    0.10
  13   2  -5    0.43    0.10
 -13  -2   5    0.44    0.12
  12   2  -5    9.36    0.41
  12   2  -5    9.78    0.38
  12   2  -5    9.24    0.42
 -12  -2   5    9.12    0.43
  11   2  -5   44.57    1.59
  11   2  -5   43.50    1.40
 -11  -2   5   45.95    1.52
  10   2  -5    1.44    0.12
  10   2  -5    1.66    0.13
 -10  -2   5    1.44    0.16
   9   2  -5   14.61    0.52
  -9  -2   5   15.52    0.58
   8   2  -5   19.64    0.65
  -8  -2   5   20.11    0.72
   7   2  -5   23.15    0.75
  -7  -2   5   23.07    0.80
   6   2  -5    6.01    0.25
  -6  -2   5    6.77    0.28
  -5  -2   5    2.52    0.15
  -4  -2   5   30.36    1.00
  -3  -2   5    4.02    0.18
  -2  -2   5   28.27    0.92
  -1  -2   5    0.25    0.04
  -1  -2   5    0.24    0.07
   0   2  -5  159.23    5.41
   1  -2   5   57.77    1.78
   1  -2   5   58.51    1.80
   1  -2   5   56.71    1.92
   2  -2   5   98.44    3.05
   2  -2   5   98.07    3.21
   2  -2   5   99.06    2.98
  -3   2  -5    0.88    0.06
   3  -2   5    0.54    0.08
   3  -2   5    0.58    0.09
   3  -2   5    0.78    0.07
   3  -2   5    0.69    0.10
  -4   2  -5  219.16    6.83
   4  -2   5  218.98    7.58
   4  -2   5  221.94    7.13
   4  -2   5  226.16    6.63
   4  -2   5  226.88    6.83
  -5   2  -5   13.02    0.46
   5  -2   5   13.58    0.55
   5  -2   5   13.38    0.45
   5  -2   5   11.94    0.51
   5  -2   5   12.64    0.48
  -6   2  -5    0.28    0.05
   6  -2   5    0.19    0.06
   6  -2   5    0.09    0.06
   6  -2   5    0.22    0.05
   6  -2   5    0.21    0.07
  -7   2  -5   25.15    0.88
   7  -2   5   26.79    0.87
   7  -2   5   25.90    1.02
   7  -2   5   26.72    0.97
   7  -2   5   26.22    0.90
  -8   2  -5    6.87    0.31
   8  -2   5    6.94    0.38
   8  -2   5    7.52    0.34
   8  -2   5    6.95    0.36
   8  -2   5    7.02    0.30
  -9   2  -5   31.84    1.09
   9  -2   5   33.09    1.25
   9  -2   5   32.43    1.07
   9  -2   5   31.40    1.10
   9  -2   5   30.79    1.17
  10  -2   5    0.22    0.12
  10  -2   5    0.12    0.09
  10  -2   5    0.24    0.10
  11  -2   5   20.94    0.85
  11  -2   5   20.14    0.79
  11  -2   5   21.14    0.90
  12  -2   5    8.87    0.49
  12  -2   5    8.09    0.42
  12  -2   5    8.04    0.45
  13  -2   5    3.87    0.29
  13  -2   5    3.70    0.30
  13  -2   5    3.70    0.31
  14  -2   5    1.63    0.23
  14  -2   5    1.85    0.23
  14  -2   5    1.73    0.25
  15  -2   5   12.04    0.64
  15  -2   5   12.76    0.61
  16  -2   5    6.99    0.48
  16  -2   5    7.73    0.46
  17  -2   5   -0.10    0.11
  17  -2   5   -0.02    0.12
  18  -2   5    2.12    0.29
  18  -2   5    2.15    0.30
  19   1  -5    0.23    0.14
  18   1  -5    0.40    0.13
  18   1  -5    0.46    0.16
  17   1  -5    3.57    0.29
  17   1  -5    3.16    0.25
  16   1  -5    0.10    0.11
  16   1  -5   -0.05    0.08
  15   1  -5    6.11    0.34
  15   1  -5    5.68    0.30
  14   1  -5    0.62    0.12
  14   1  -5    0.74    0.11
 -14  -1   5    0.46    0.13
  13   1  -5    4.07    0.22
  13   1  -5    4.08    0.24
 -13  -1   5    4.15    0.28
  12   1  -5    6.27    0.28
  12   1  -5    6.59    0.31
  12   1  -5    6.46    0.31
 -12  -1   5    6.75    0.35
  11   1  -5    8.32    0.33
  11   1  -5    8.42    0.36
 -11  -1   5    8.74    0.40
  10   1  -5   23.45    0.79
  10   1  -5   24.06    0.88
 -10  -1   5   25.15    0.87
   9   1  -5   18.69    0.63
   9   1  -5   18.58    0.69
  -9  -1   5   19.64    0.70
   8   1  -5    5.43    0.22
   8   1  -5    5.43    0.23
  -8  -1   5    5.00    0.26
   7   1  -5    6.50    0.25
   7   1  -5    6.62    0.25
  -7  -1   5    6.21    0.28
   6   1  -5    0.22    0.05
  -6  -1   5    0.15    0.05
  -5  -1   5   53.70    1.71
  -4  -1   5    2.98    0.15
  -3  -1   5   67.13    2.10
   2   1  -5    1.12    0.07
  -2  -1   5    1.07    0.07
   1   1  -5   41.26    1.42
  -1  -1   5   40.53    1.28
   0   1  -5   43.31    1.45
   0  -1   5   40.19    1.40
   0  -1   5   40.22    1.30
   0  -1   5   42.24    1.30
   1  -1   5   17.75    0.65
   1  -1   5   17.24    0.66
   1  -1   5   17.96    0.60
   2  -1   5   21.28    0.68
   2  -1   5   21.31    0.72
   2  -1   5   19.99    0.77
   2  -1   5   23.15    0.81
   3  -1   5   75.46    2.28
   3  -1   5   72.67    2.57
   3  -1   5   75.16    2.44
   3  -1   5   72.13    2.26
  -4   1  -5    1.99    0.10
   4  -1   5    2.30    0.11
   4  -1   5    2.05    0.15
   4  -1   5    2.15    0.14
  -5   1  -5   21.55    0.69
   5  -1   5   20.37    0.72
   5  -1   5   20.57    0.68
   5  -1   5   20.50    0.81
   5  -1   5   21.18    0.77
  -6   1  -5    3.41    0.16
   6  -1   5    3.90    0.17
   6  -1   5    3.52    0.23
   6  -1   5    3.32    0.21
   6  -1   5    3.71    0.20
  -7   1  -5   11.25    0.42
   7  -1   5   11.93    0.42
   7  -1   5   12.21    0.53
   7  -1   5   10.65    0.48
   7  -1   5   10.86    0.45
  -8   1  -5   46.18    1.48
   8  -1   5   44.95    1.69
   8  -1   5   44.65    1.59
   8  -1   5   45.83    1.48
   8  -1   5   46.15    1.48
  -9   1  -5    3.92    0.21
   9  -1   5    3.15    0.25
   9  -1   5    3.66    0.25
   9  -1   5    3.27    0.20
   9  -1   5    3.74    0.24
  10  -1   5   33.36    1.30
  10  -1   5   34.24    1.15
  10  -1   5   31.74    1.22
  11  -1   5   11.78    0.59
  11  -1   5   11.94    0.52
  11  -1   5   11.42    0.55
  12  -1   5   10.91    0.56
  12  -1   5   10.53    0.50
  12  -1   5    9.87    0.52
  13  -1   5    3.13    0.28
  13  -1   5    3.15    0.26
  13  -1   5    2.92    0.28
  14  -1   5    1.38    0.20
  14  -1   5    1.57    0.23
  14  -1   5    1.54    0.22
  15  -1   5    5.28    0.41
  15  -1   5    5.03    0.37
  15  -1   5    4.98    0.38
  16  -1   5    0.74    0.18
  16  -1   5    0.69    0.19
  16  -1   5    0.80    0.19
  17  -1   5    2.13    0.27
  17  -1   5    1.69    0.27
  18  -1   5    1.18    0.24
  18  -1   5    1.23    0.25
  18   0  -5   -0.11    0.11
  18   0  -5   -0.04    0.10
  17   0  -5    0.05    0.11
  17   0  -5    0.08    0.09
  16   0  -5    0.09    0.09
  16   0  -5    0.03    0.09
  15   0  -5    0.59    0.11
  15   0  -5    0.94    0.15
  14   0  -5    4.68    0.25
  14   0  -5    4.83    0.28
 -14   0   5    4.56    0.31
  13   0  -5    3.54    0.22
  13   0  -5    3.65    0.21
 -13   0   5    3.34    0.25
  12   0  -5    2.53    0.18
  12   0  -5    2.80    0.17
 -12   0   5    2.95    0.23
  11   0  -5    0.24    0.06
  11   0  -5    0.11    0.06
 -11   0   5    0.12    0.09
  10   0  -5    1.50    0.12
 -10   0   5    1.62    0.16
   9   0  -5    0.39    0.06
  -9   0   5    0.35    0.09
   8   0  -5    1.68    0.10
  -8   0   5    1.27    0.12
   7   0  -5    0.16    0.04
  -7   0   5    0.16    0.06
   6   0  -5    2.66    0.13
  -6   0   5    2.85    0.16
  -5   0   5    4.47    0.20
  -4   0   5    3.37    0.16
  -3   0   5    0.26    0.04
   2   0  -5    0.28    0.05
  -2   0   5    0.26    0.04
   1   0  -5    3.78    0.17
  -1   0   5    3.82    0.14
  -1   0   5    3.84    0.17
   0   0  -5    5.24    0.21
   0   0   5    4.50    0.16
   0   0   5    5.08    0.24
   0   0   5    4.98    0.21
   0   0   5    4.25    0.21
   1   0   5    1.09    0.09
   1   0   5    0.88    0.09
   2   0   5    0.32    0.06
   2   0   5    0.37    0.07
   2   0   5    0.36    0.07
   2   0   5    0.38    0.03
   3   0   5    0.27    0.03
   3   0   5    0.27    0.06
   3   0   5    0.13    0.05
   3   0   5    0.20    0.05
   4   0   5   10.78    0.44
   4   0   5   11.21    0.37
   4   0   5   11.15    0.42
   4   0   5   10.93    0.47
   5   0   5   31.73    1.00
   5   0   5   29.81    1.09
   5   0   5   32.47    1.16
   5   0   5   30.04    1.01
  -6   0  -5   10.11    0.37
   6   0   5   11.18    0.38
   6   0   5    9.79    0.44
   6   0   5   10.86    0.48
   6   0   5   10.30    0.42
  -7   0  -5   30.62    1.00
   7   0   5   30.65    1.10
   7   0   5   30.34    1.00
   7   0   5   31.14    1.03
   7   0   5   29.86    1.16
  -8   0  -5    1.44    0.11
   8   0   5    1.44    0.16
   8   0   5    1.78    0.17
   8   0   5    1.20    0.11
   8   0   5    1.09    0.16
   9   0   5   13.32    0.59
   9   0   5   14.21    0.64
   9   0   5   13.54    0.56
   9   0   5   14.66    0.53
  10   0   5    5.67    0.32
  10   0   5    5.57    0.33
  10   0   5    5.51    0.35
  11   0   5   21.77    0.86
  11   0   5   21.25    0.92
  11   0   5   20.85    0.81
  12   0   5    0.32    0.12
  12   0   5    0.38    0.12
  12   0   5    0.51    0.15
  13   0   5    2.67    0.26
  13   0   5    2.76    0.26
  13   0   5    2.94    0.28
  14   0   5    2.99    0.29
  14   0   5    3.07    0.27
  14   0   5    3.84    0.32
  15   0   5    1.67    0.26
  15   0   5    2.16    0.26
  15   0   5    1.73    0.25
  16   0   5    3.75    0.33
  16   0   5    3.39    0.33
  16   0   5    4.64    0.38
  17   0   5    0.23    0.16
  17   0   5    0.15    0.14
  17   0   5    0.20    0.14
  18   0   5    1.33    0.26
  18   0   5    1.52    0.26
  18  -1  -5    0.50    0.16
  17  -1  -5    2.83    0.26
  17  -1  -5    2.11    0.22
  16  -1  -5    0.41    0.13
  16  -1  -5    0.61    0.12
  15  -1  -5    6.82    0.37
  15  -1  -5    6.93    0.33
  14  -1  -5    0.45    0.10
  14  -1  -5    0.80    0.13
 -14   1   5    0.51    0.14
  13  -1  -5   12.59    0.48
  13  -1  -5   13.33    0.54
 -13   1   5   13.22    0.58
  12  -1  -5    0.57    0.09
  12  -1  -5    0.78    0.11
 -12   1   5    0.43    0.12
  11  -1  -5   14.70    0.59
  11  -1  -5   16.08    0.54
 -11   1   5   16.27    0.63
  10  -1  -5   19.04    0.63
 -10   1   5   19.29    0.72
   9  -1  -5    0.26    0.05
  -9   1   5    0.28    0.08
   8  -1  -5    0.13    0.04
  -8   1   5    0.08    0.05
   7  -1  -5    4.36    0.17
  -7   1   5    4.32    0.22
   6  -1  -5   14.57    0.46
  -6   1   5   14.21    0.52
   5  -1  -5   16.55    0.54
  -5   1   5   17.35    0.59
  -4   1   5    9.14    0.34
  -3   1   5   21.44    0.71
  -3   1   5   22.18    0.75
   2  -1  -5    6.62    0.24
  -2   1   5    6.11    0.24
  -2   1   5    5.75    0.22
   1  -1  -5    0.61    0.06
  -1   1   5    0.62    0.04
  -1   1   5    0.60    0.06
   0  -1  -5   14.83    0.47
   0   1   5   14.69    0.53
   0   1   5   13.05    0.53
   0   1   5   13.51    0.44
   0   1   5   14.42    0.48
   1   1   5   10.53    0.37
   1   1   5    9.35    0.41
   1   1   5   10.56    0.41
   2   1   5    6.08    0.28
   2   1   5    6.35    0.21
   2   1   5    5.92    0.25
   3   1   5   29.43    1.08
   3   1   5   29.11    0.95
   3   1   5   29.31    0.92
   3   1   5   29.56    1.02
   4   1   5    0.09    0.05
   4   1   5    0.10    0.05
   4   1   5    0.19    0.04
   4   1   5    0.15    0.06
   5   1   5   63.14    1.96
   5   1   5   61.38    2.10
   5   1   5   65.27    2.25
   5   1   5   63.30    1.98
   6   1   5    3.42    0.21
   6   1   5    3.11    0.16
   6   1   5    3.64    0.20
   7   1   5    6.18    0.32
   7   1   5    6.73    0.28
   7   1   5    6.83    0.36
   7   1   5    6.52    0.31
   8   1   5    0.33    0.11
   8   1   5    0.28    0.09
   8   1   5    0.30    0.07
   8   1   5    0.38    0.10
   9   1   5   12.05    0.47
   9   1   5   12.01    0.57
   9   1   5   11.51    0.52
   9   1   5   11.66    0.49
  10   1   5    0.63    0.12
  10   1   5    0.34    0.12
  10   1   5    0.48    0.11
  11   1   5    0.07    0.09
  11   1   5    0.11    0.09
  11   1   5    0.17    0.12
  12   1   5    0.16    0.10
  12   1   5    0.23    0.10
  12   1   5    0.17    0.11
  13   1   5    0.62    0.17
  13   1   5    0.53    0.13
  13   1   5    0.70    0.15
  14   1   5    0.66    0.16
  14   1   5    0.72    0.18
  14   1   5    0.51    0.14
  15   1   5    0.54    0.17
  15   1   5    0.61    0.17
  15   1   5    0.44    0.15
  16   1   5    0.10    0.13
  16   1   5    0.05    0.12
  16   1   5   -0.07    0.11
  17   1   5    0.02    0.12
  17   1   5   -0.03    0.12
  17   1   5   -0.01    0.12
  18   1   5   -0.12    0.12
  18   1   5    0.11    0.15
  18  -2  -5    1.49    0.21
  17  -2  -5    2.58    0.26
  16  -2  -5    7.75    0.38
  16  -2  -5    8.38    0.43
  15  -2  -5    0.31    0.11
  15  -2  -5    0.37    0.10
  14  -2  -5   11.91    0.51
  14  -2  -5   11.48    0.46
 -14   2   5   12.19    0.57
  13  -2  -5    0.90    0.12
  13  -2  -5    1.06    0.12
 -13   2   5    0.78    0.15
  12  -2  -5   22.77    0.75
  12  -2  -5   21.66    0.82
 -12   2   5   23.21    0.87
  11  -2  -5   20.91    0.69
  11  -2  -5   21.34    0.77
 -11   2   5   20.77    0.80
  10  -2  -5    2.96    0.15
  10  -2  -5    3.31    0.20
 -10   2   5    3.25    0.23
   9  -2  -5   44.24    1.35
  -9   2   5   44.24    1.48
   8  -2  -5    0.57    0.06
  -8   2   5    0.66    0.10
   7  -2  -5   17.45    0.56
  -7   2   5   18.27    0.65
   6  -2  -5   18.68    0.57
  -6   2   5   18.11    0.65
   5  -2  -5   24.08    0.74
  -5   2   5   23.95    0.81
  -4   2   5   97.76    3.05
  -4   2   5   98.17    3.30
   3  -2  -5    2.64    0.12
  -3   2   5    2.91    0.14
   2  -2  -5   37.95    1.16
  -2   2   5   37.86    1.20
   1  -2  -5    2.52    0.11
  -1   2   5    2.41    0.11
  -1   2   5    2.53    0.13
   0  -2  -5   69.33    2.03
   0   2   5   67.32    2.05
   0   2   5   66.42    2.10
  -1  -2  -5   15.92    0.57
   1   2   5   15.72    0.52
   1   2   5   16.13    0.54
   1   2   5   15.43    0.58
   2   2   5   37.83    1.20
   2   2   5   39.16    1.20
   2   2   5   37.44    1.29
   3   2   5   47.47    1.70
   3   2   5   48.69    1.50
   3   2   5   47.40    1.59
   3   2   5   46.53    1.48
   4   2   5   45.95    1.66
   4   2   5   48.12    1.46
   4   2   5   44.85    1.45
   4   2   5   45.64    1.55
   5   2   5    0.11    0.04
   5   2   5    0.07    0.05
   5   2   5    0.15    0.06
   5   2   5    0.22    0.08
   6   2   5    4.27    0.27
   6   2   5    4.95    0.25
   6   2   5    4.58    0.21
   6   2   5    4.81    0.24
   7   2   5    2.88    0.20
   7   2   5    2.93    0.17
   7   2   5    3.00    0.20
   8   2   5   22.68    0.78
   8   2   5   22.29    0.79
   8   2   5   21.51    0.90
   8   2   5   21.72    0.83
   9   2   5    5.13    0.29
   9   2   5    4.95    0.33
   9   2   5    5.16    0.30
  10   2   5    3.75    0.29
  10   2   5    4.10    0.27
  10   2   5    3.53    0.25
  11   2   5    8.26    0.43
  11   2   5    8.23    0.42
  11   2   5    8.52    0.47
  12   2   5    3.00    0.27
  12   2   5    3.08    0.26
  12   2   5    3.11    0.26
  13   2   5    5.88    0.38
  13   2   5    6.37    0.38
  13   2   5    7.12    0.44
  14   2   5    0.05    0.10
  14   2   5    0.00    0.10
  14   2   5    0.01    0.09
  15   2   5    2.79    0.27
  15   2   5    2.19    0.27
  15   2   5    2.86    0.32
  16   2   5    2.96    0.35
  16   2   5    1.87    0.27
  16   2   5    1.85    0.27
  17   2   5    0.15    0.13
  17   2   5   -0.08    0.11
  17   2   5    0.00    0.13
  18   2   5   -0.21    0.12
  18   2   5   -0.10    0.14
  18  -3  -5    0.87    0.17
  17  -3  -5    0.85    0.18
  16  -3  -5    0.86    0.15
  15  -3  -5    7.98    0.41
  14  -3  -5    0.22    0.08
  14  -3  -5    0.28    0.09
 -14   3   5    0.30    0.14
  13  -3  -5    2.95    0.19
  13  -3  -5    3.16    0.22
 -13   3   5    3.38    0.27
  12  -3  -5    0.70    0.11
  12  -3  -5    0.76    0.10
 -12   3   5    0.72    0.15
  11  -3  -5   20.16    0.67
  11  -3  -5   20.15    0.74
 -11   3   5   19.83    0.78
  10  -3  -5   10.78    0.37
  10  -3  -5    9.91    0.42
 -10   3   5   10.53    0.47
   9  -3  -5    1.24    0.12
   9  -3  -5    1.26    0.09
  -9   3   5    1.31    0.15
   8  -3  -5    0.34    0.05
  -8   3   5    0.39    0.09
   7  -3  -5    5.83    0.20
  -7   3   5    5.49    0.28
   6  -3  -5    9.39    0.30
  -6   3   5    9.15    0.38
   5  -3  -5   15.30    0.48
  -5   3   5   15.84    0.56
   4  -3  -5    6.01    0.20
   4  -3  -5    5.99    0.21
  -4   3   5    5.89    0.26
   3  -3  -5   75.04    2.22
  -3   3   5   74.39    2.35
   2  -3  -5   12.63    0.39
  -2   3   5   12.04    0.44
   1  -3  -5   20.91    0.64
  -1   3   5   20.06    0.68
  -1   3   5   20.69    0.66
   0  -3  -5    1.56    0.08
   0  -3  -5    1.46    0.11
   0   3   5    1.58    0.10
   0   3   5    1.59    0.10
  -1  -3  -5   21.15    0.73
   1   3   5   20.90    0.68
   1   3   5   20.87    0.69
   1   3   5   20.28    0.73
  -2  -3  -5   55.59    1.76
   2   3   5   52.14    1.78
   2   3   5   54.19    1.66
   2   3   5   53.28    1.70
   3   3   5   11.33    0.45
   3   3   5   11.97    0.43
   3   3   5   11.58    0.42
   4   3   5    0.12    0.05
   4   3   5    0.05    0.04
   4   3   5    0.02    0.04
   5   3   5   11.85    0.44
   5   3   5   11.99    0.47
   5   3   5   11.85    0.45
   6   3   5    0.05    0.06
   6   3   5    0.12    0.05
   6   3   5    0.15    0.06
   6   3   5    0.06    0.06
   7   3   5    8.29    0.39
   7   3   5    8.84    0.44
   7   3   5    9.04    0.37
   7   3   5    9.38    0.39
   8   3   5   47.68    1.73
   8   3   5   44.42    1.50
   8   3   5   46.46    1.60
   8   3   5   46.49    1.54
   9   3   5    2.56    0.24
   9   3   5    2.99    0.22
   9   3   5    2.96    0.22
  10   3   5   12.43    0.59
  10   3   5   11.27    0.53
  10   3   5   11.47    0.51
  11   3   5    3.74    0.31
  11   3   5    3.43    0.26
  11   3   5    3.51    0.27
  12   3   5   17.43    0.81
  12   3   5   17.11    0.74
  12   3   5   16.76    0.70
  13   3   5    0.34    0.12
  13   3   5    0.14    0.12
  13   3   5    0.16    0.10
  14   3   5    0.64    0.16
  14   3   5    0.81    0.17
  14   3   5    0.94    0.21
  15   3   5    5.54    0.38
  15   3   5    5.89    0.44
  15   3   5    5.86    0.41
  16   3   5    0.26    0.14
  16   3   5    0.22    0.15
  16   3   5    0.21    0.14
  17   3   5    0.12    0.15
  17   3   5    0.12    0.15
  18  -4  -5   -0.10    0.13
  17  -4  -5    0.13    0.13
  16  -4  -5    0.01    0.10
  15  -4  -5    0.46    0.13
  14  -4  -5    1.43    0.18
 -14   4   5    1.27    0.21
  13  -4  -5    0.80    0.12
 -13   4   5    0.92    0.17
  12  -4  -5    4.36    0.22
  12  -4  -5    4.49    0.26
 -12   4   5    4.29    0.30
  11  -4  -5    2.02    0.17
  11  -4  -5    1.90    0.13
 -11   4   5    2.44    0.22
  10  -4  -5    0.11    0.05
  10  -4  -5   -0.04    0.06
 -10   4   5    0.05    0.08
   9  -4  -5    0.07    0.04
   9  -4  -5   -0.06    0.06
  -9   4   5    0.06    0.08
   8  -4  -5    0.83    0.07
   8  -4  -5    0.76    0.09
  -8   4   5    0.78    0.12
   7  -4  -5   11.57    0.36
  -7   4   5   11.06    0.47
   6  -4  -5   14.60    0.44
  -6   4   5   13.63    0.54
  -5   4   5    7.18    0.32
  -4   4   5    1.85    0.13
  -3   4   5    1.82    0.13
   2  -4  -5   50.15    1.43
  -2   4   5   45.89    1.54
   1  -4  -5    1.06    0.10
   1  -4  -5    0.97    0.05
  -1   4   5    1.04    0.08
  -1   4   5    0.92    0.09
   0  -4  -5   12.76    0.41
   0  -4  -5   13.02    0.48
   0   4   5   13.06    0.47
   0   4   5   13.02    0.44
  -1  -4  -5    1.22    0.09
   1   4   5    1.14    0.10
   1   4   5    1.19    0.09
  -2  -4  -5    4.76    0.20
   2   4   5    4.51    0.21
   2   4   5    4.71    0.21
  -3  -4  -5   21.52    0.69
   3   4   5   19.72    0.71
   3   4   5   19.61    0.70
   3   4   5   19.14    0.67
   4   4   5    1.12    0.11
   4   4   5    1.13    0.11
   4   4   5    1.00    0.10
   5   4   5   16.72    0.63
   5   4   5   17.24    0.60
   5   4   5   16.46    0.61
   6   4   5    0.35    0.08
   6   4   5    0.29    0.07
   6   4   5    0.31    0.08
   7   4   5   25.00    0.88
   7   4   5   24.78    0.86
   7   4   5   24.66    0.90
   8   4   5    0.34    0.11
   8   4   5    0.42    0.10
   8   4   5    0.61    0.11
   9   4   5   14.23    0.61
   9   4   5   14.94    0.68
   9   4   5   14.72    0.59
  10   4   5    0.02    0.10
  10   4   5    0.22    0.10
  10   4   5    0.36    0.10
  11   4   5   15.21    0.61
  11   4   5   12.82    0.66
  11   4   5   13.26    0.60
  12   4   5    0.62    0.18
  12   4   5    0.81    0.15
  12   4   5    0.94    0.16
  13   4   5    3.16    0.28
  13   4   5    3.88    0.29
  13   4   5    3.60    0.33
  14   4   5    1.39    0.25
  14   4   5    1.63    0.22
  14   4   5    1.60    0.23
  15   4   5    5.99    0.44
  15   4   5    4.87    0.38
  15   4   5    6.30    0.41
  16   4   5    0.93    0.21
  16   4   5    1.51    0.27
  17   4   5    0.31    0.19
  17  -5  -5    5.46    0.37
  16  -5  -5    1.98    0.23
  15  -5  -5    3.53    0.27
  14  -5  -5    2.39    0.22
 -14   5   5    2.27    0.27
  13  -5  -5    6.27    0.34
 -13   5   5    6.63    0.41
  12  -5  -5    0.51    0.10
 -12   5   5    0.49    0.15
  11  -5  -5    6.28    0.31
 -11   5   5    6.36    0.37
  10  -5  -5    2.43    0.17
  10  -5  -5    2.04    0.14
 -10   5   5    2.30    0.22
   9  -5  -5    0.94    0.08
   9  -5  -5    1.22    0.13
  -9   5   5    0.84    0.15
   8  -5  -5    0.29    0.07
   8  -5  -5    0.33    0.04
  -8   5   5    0.40    0.11
   7  -5  -5    0.27    0.06
  -7   5   5    0.37    0.09
  -6   5   5    3.59    0.22
  -5   5   5    2.79    0.19
  -4   5   5    0.78    0.11
  -3   5   5   36.61    1.22
   2  -5  -5    5.75    0.18
  -2   5   5    5.38    0.26
   1  -5  -5   15.95    0.48
   1  -5  -5   15.35    0.56
  -1   5   5   15.46    0.57
  -1   5   5   15.61    0.51
   0  -5  -5    3.28    0.16
   0  -5  -5    3.58    0.13
   0   5   5    2.91    0.18
   0   5   5    3.20    0.15
  -1  -5  -5    4.05    0.17
   1   5   5    3.78    0.18
   1   5   5    3.87    0.20
  -2  -5  -5    0.53    0.05
   2   5   5    0.55    0.07
  -3  -5  -5    0.42    0.05
   3   5   5    0.28    0.06
   3   5   5    0.41    0.07
   4   5   5   17.70    0.66
   4   5   5   18.33    0.67
   4   5   5   18.88    0.64
   5   5   5   12.23    0.49
   5   5   5   12.48    0.47
   5   5   5   11.54    0.47
   6   5   5    0.02    0.05
   6   5   5    0.19    0.07
   6   5   5    0.09    0.06
   7   5   5    1.90    0.18
   7   5   5    2.04    0.17
   7   5   5    2.25    0.17
   8   5   5   17.81    0.67
   8   5   5   17.69    0.69
   9   5   5    9.72    0.44
   9   5   5    8.75    0.43
   9   5   5   10.04    0.51
  10   5   5    0.98    0.16
  10   5   5    1.00    0.15
  10   5   5    1.17    0.20
  11   5   5    1.22    0.17
  11   5   5    0.75    0.18
  11   5   5    1.29    0.17
  12   5   5    0.93    0.20
  12   5   5    0.86    0.17
  12   5   5    0.83    0.16
  13   5   5    0.07    0.12
  13   5   5   -0.04    0.12
  13   5   5    0.14    0.12
  14   5   5    0.71    0.19
  14   5   5    0.82    0.17
  15   5   5    1.02    0.20
  15   5   5    0.88    0.22
  16   5   5   -0.02    0.12
  16   5   5    0.13    0.16
  17  -6  -5    0.42    0.15
  16  -6  -5    4.11    0.32
  15  -6  -5    0.20    0.12
  14  -6  -5    4.29    0.29
 -14   6   5    5.09    0.38
  13  -6  -5    0.76    0.13
 -13   6   5    1.03    0.20
  12  -6  -5   14.06    0.57
 -12   6   5   13.95    0.65
  11  -6  -5    3.38    0.22
 -11   6   5    3.27    0.28
  10  -6  -5    1.71    0.15
 -10   6   5    1.67    0.20
   9  -6  -5   20.82    0.75
  -9   6   5   20.61    0.82
   8  -6  -5    1.05    0.11
  -8   6   5    1.02    0.16
   7  -6  -5    0.18    0.06
  -7   6   5    0.18    0.09
   6  -6  -5    1.25    0.10
  -6   6   5    1.73    0.17
   5  -6  -5    2.62    0.14
  -5   6   5    2.59    0.20
  -4   6   5   16.00    0.62
  -3   6   5    8.86    0.39
  -2   6   5   19.93    0.73
   1  -6  -5    9.34    0.30
   1  -6  -5    9.15    0.36
  -1   6   5   10.04    0.33
  -1   6   5    9.64    0.40
   0  -6  -5   10.32    0.38
   0   6   5   10.38    0.44
   0   6   5   11.27    0.38
  -1  -6  -5   31.39    1.00
   1   6   5   30.12    1.05
   1   6   5   30.90    0.98
  -2  -6  -5   49.75    1.52
   2   6   5   44.93    1.47
  -3  -6  -5   32.58    1.01
   3   6   5   29.51    1.00
  -4  -6  -5   15.39    0.50
   4   6   5   14.71    0.54
   4   6   5   14.41    0.58
   4   6   5   14.80    0.54
   5   6   5    0.09    0.07
   5   6   5    0.06    0.05
   5   6   5    0.03    0.06
   6   6   5    4.89    0.25
   6   6   5    5.06    0.27
   6   6   5    4.90    0.29
   7   6   5    0.38    0.08
   7   6   5    0.43    0.10
   8   6   5    7.55    0.36
   8   6   5    7.81    0.37
   9   6   5    0.78    0.13
   9   6   5    0.66    0.13
  10   6   5    2.44    0.27
  10   6   5    2.65    0.23
  11   6   5    2.88    0.25
  11   6   5    2.81    0.30
  12   6   5    3.83    0.33
  12   6   5    2.92    0.27
  13   6   5    0.21    0.12
  13   6   5    0.39    0.16
  14   6   5    0.11    0.11
  14   6   5    0.16    0.15
  15   6   5    0.12    0.16
  15   6   5    0.25    0.14
  17  -7  -5    7.81    0.46
  16  -7  -5   -0.26    0.11
  15  -7  -5    3.47    0.28
  14  -7  -5   -0.04    0.09
 -14   7   5   -0.01    0.12
  13  -7  -5    0.54    0.12
 -13   7   5    0.80    0.19
  12  -7  -5    0.85    0.13
 -12   7   5    0.72    0.17
  11  -7  -5    3.07    0.22
 -11   7   5    3.02    0.29
  10  -7  -5    2.32    0.18
 -10   7   5    2.55    0.25
   9  -7  -5    5.83    0.28
  -9   7   5    6.10    0.37
   8  -7  -5    3.37    0.19
  -8   7   5    2.91    0.26
   7  -7  -5    8.58    0.34
  -7   7   5    8.18    0.42
   6  -7  -5    0.56    0.07
  -6   7   5    0.59    0.12
   5  -7  -5    2.66    0.14
  -5   7   5    2.31    0.20
   4  -7  -5    3.40    0.15
  -4   7   5    2.95    0.22
   3  -7  -5   90.50    2.81
  -3   7   5   85.03    2.83
   2  -7  -5    0.46    0.05
   2  -7  -5    0.44    0.07
  -2   7   5    0.34    0.10
   1  -7  -5   19.37    0.70
   1  -7  -5   21.24    0.68
  -1   7   5   21.46    0.66
  -1   7   5   20.80    0.78
   0  -7  -5    0.59    0.04
   0   7   5    0.51    0.07
   0   7   5    0.50    0.11
   1   7   5   80.65    2.41
   1   7   5   78.30    2.56
   2   7   5   11.64    0.43
   3   7   5    2.42    0.16
   4   7   5    3.11    0.19
   5   7   5   15.41    0.57
   6   7   5    7.54    0.35
   7   7   5    2.18    0.19
   8   7   5   15.05    0.60
   9   7   5    0.25    0.10
  10   7   5   17.57    0.81
  10   7   5   15.46    0.67
  11   7   5    3.45    0.32
  11   7   5    3.40    0.28
  12   7   5    4.76    0.34
  12   7   5    5.51    0.42
  13   7   5    0.10    0.13
  13   7   5    0.11    0.14
  14   7   5    0.38    0.15
  14   7   5    0.57    0.20
  17  -8  -5   -0.13    0.12
  16  -8  -5    0.59    0.16
  15  -8  -5    0.75    0.16
  14  -8  -5    0.00    0.10
 -14   8   5    0.14    0.14
  13  -8  -5    0.24    0.11
 -13   8   5    0.41    0.16
  12  -8  -5    0.37    0.11
 -12   8   5    0.88    0.19
  11  -8  -5    4.40    0.26
 -11   8   5    4.49    0.35
  10  -8  -5    0.79    0.12
 -10   8   5    1.06    0.19
   9  -8  -5    1.94    0.16
  -9   8   5    2.01    0.24
   8  -8  -5    5.31    0.26
  -8   8   5    5.23    0.35
   7  -8  -5   19.63    0.69
  -7   8   5   18.92    0.79
   6  -8  -5   17.20    0.60
  -6   8   5   16.30    0.70
   5  -8  -5    1.44    0.10
  -5   8   5    1.12    0.17
   4  -8  -5    0.89    0.08
  -4   8   5    0.95    0.15
   3  -8  -5   19.63    0.65
  -3   8   5   19.00    0.76
   2  -8  -5   33.26    1.04
  -2   8   5   30.33    1.14
  -1   8   5   25.58    0.97
  -1   8   5   27.02    0.82
   0   8   5   26.23    0.82
   0   8   5   25.09    0.94
   1   8   5   19.17    0.73
   1   8   5   18.52    0.63
   2   8   5   22.86    0.76
   3   8   5    4.87    0.24
   4   8   5    7.63    0.33
   5   8   5   16.31    0.61
   6   8   5    0.48    0.10
   7   8   5   17.77    0.68
   8   8   5    0.10    0.08
   9   8   5   20.04    0.78
  10   8   5    0.22    0.11
  11   8   5    7.77    0.51
  11   8   5    6.83    0.41
  12   8   5    0.52    0.15
  12   8   5    0.29    0.17
  13   8   5    3.39    0.32
  13   8   5    4.10    0.39
  14   8   5   -0.04    0.11
  14   8   5    0.15    0.17
  16  -9  -5   -0.05    0.12
  15  -9  -5    0.10    0.12
  14  -9  -5    0.54    0.14
 -14   9   5    0.39    0.19
  13  -9  -5   -0.05    0.09
 -13   9   5    0.10    0.14
  12  -9  -5    1.72    0.19
 -12   9   5    1.73    0.27
  11  -9  -5    2.85    0.22
 -11   9   5    2.61    0.30
  10  -9  -5    1.45    0.16
 -10   9   5    1.07    0.21
   9  -9  -5    2.03    0.18
  -9   9   5    2.13    0.27
   8  -9  -5    9.94    0.42
  -8   9   5   10.25    0.53
   7  -9  -5    0.45    0.08
  -7   9   5    0.37    0.14
   6  -9  -5    2.64    0.16
  -6   9   5    2.56    0.25
   5  -9  -5    0.09    0.05
  -5   9   5    0.00    0.09
   4  -9  -5    4.75    0.20
  -4   9   5    4.69    0.31
  -3   9   5    0.60    0.14
  -2   9   5    0.53    0.13
  -1   9   5    0.43    0.12
   0   9   5    0.39    0.06
   0   9   5    0.48    0.12
   1   9   5    1.45    0.11
   2   9   5    6.45    0.28
   3   9   5    1.07    0.12
   4   9   5    1.33    0.14
   5   9   5    1.79    0.16
   6   9   5    1.00    0.14
   7   9   5    0.24    0.10
   8   9   5   10.06    0.47
   9   9   5    0.54    0.13
  10   9   5    1.23    0.19
  11   9   5    0.30    0.17
  11   9   5    0.05    0.10
  12   9   5    1.08    0.19
  12   9   5    1.55    0.26
  13   9   5    0.00    0.16
  13   9   5    0.26    0.14
  16 -10  -5    1.78    0.24
  15 -10  -5    0.16    0.14
  14 -10  -5    2.73    0.27
  13 -10  -5   -0.05    0.10
 -13  10   5    0.01    0.15
  12 -10  -5    3.24    0.26
 -12  10   5    3.66    0.40
  11 -10  -5    0.24    0.10
 -11  10   5    0.41    0.18
  10 -10  -5    7.64    0.37
 -10  10   5    7.89    0.50
   9 -10  -5    5.27    0.29
  -9  10   5    5.61    0.41
   8 -10  -5   -0.02    0.07
  -8  10   5   -0.07    0.11
  -7  10   5    0.04    0.11
  -6  10   5    0.21    0.13
  -5  10   5    2.00    0.24
  -4  10   5    2.07    0.24
  -3  10   5    2.71    0.26
  -2  10   5   18.64    0.78
  -1  10   5    1.27    0.19
   0  10   5    6.49    0.38
   2  10   5    6.35    0.29
   3  10   5    6.66    0.30
   4  10   5    5.63    0.28
   5  10   5    1.57    0.17
   6  10   5    0.50    0.11
   7  10   5    1.36    0.17
   8  10   5    0.98    0.16
   9  10   5    0.45    0.13
  10  10   5    1.23    0.19
  11  10   5    0.45    0.15
  12  10   5   -0.01    0.15
  12  10   5    0.06    0.12
  13  10   5   -0.03    0.13
 -13  11   5    1.00    0.24
 -12  11   5    0.04    0.14
 -11  11   5    3.07    0.36
 -10  11   5    1.11    0.24
  -9  11   5    6.06    0.45
  -8  11   5    2.02    0.29
  -7  11   5    0.41    0.16
  -6  11   5    2.99    0.30
  -5  11   5    5.54    0.38
  -4  11   5    2.92    0.29
  -3  11   5    4.95    0.36
  -2  11   5    8.49    0.48
  -1  11   5   32.08    1.22
   0  11   5    2.35    0.26
   5  11   5    4.75    0.28
   6  11   5    1.76    0.19
   7  11   5    1.37    0.18
   8  11   5    1.22    0.18
   9  11   5    0.02    0.10
  10  11   5    1.94    0.24
  11  11   5    0.56    0.17
  12  11   5    2.19    0.28
 -13  12   5    0.15    0.18
 -12  12   5    1.27    0.27
 -11  12   5    0.77    0.23
 -10  12   5    0.31    0.18
  -9  12   5    1.39    0.26
  -8  12   5    0.14    0.14
  -7  12   5   17.94    0.84
  -6  12   5    6.64    0.46
  -5  12   5    4.52    0.37
  -4  12   5    2.62    0.30
  -3  12   5    9.90    0.55
  -2  12   5   22.90    0.96
  -1  12   5   11.39    0.59
  11  12   5    2.39    0.29
 -12  13   5    1.07    0.26
 -11  13   5    0.10    0.17
 -10  13   5    0.46    0.20
  -9  13   5    0.33    0.18
  -8  13   5    2.68    0.35
  -7  13   5    0.18    0.16
  -6  13   5    6.65    0.48
  -5  13   5    1.62    0.27
  -4  13   5    0.15    0.14
  -3  13   5    2.00    0.28
  -2  13   5    0.94    0.20
  -1  13   5    0.12    0.14
 -11  14   5    0.25    0.21
 -10  14   5    4.72    0.47
  -9  14   5    1.05    0.25
  -8  14   5    0.02    0.16
  -7  14   5    0.12    0.16
  -6  14   5    0.27    0.19
  -5  14   5   -0.10    0.14
  -4  14   5    0.03    0.14
  -3  14   5    0.49    0.17
  -2  14   5    2.16    0.29
 -10  15   5    0.14    0.20
  -9  15   5    2.83    0.39
  -8  15   5    2.39    0.36
  -7  15   5    0.00    0.17
  -6  15   5    1.22    0.27
  -5  15   5    2.59    0.35
  -4  15   5    0.98    0.24
  -3  15   5    1.22    0.26
  -6  16   5    1.69    0.34
  -5  16   5    6.02    0.51
  -4  16   5    6.10    0.51
  -3  16   5    1.84    0.31
   7  18  -6    4.39    0.33
   6  18  -6    2.76    0.25
   5  18  -6    0.30    0.12
   4  18  -6    0.12    0.12
   8  17  -6    1.72    0.22
   7  17  -6    0.09    0.11
   6  17  -6    0.54    0.13
   5  17  -6    2.61    0.24
   4  17  -6    2.17    0.21
   3  17  -6    0.75    0.14
   2  17  -6    0.26    0.10
   1  17  -6    0.24    0.10
   0  17  -6    0.23    0.10
  10  16  -6    0.09    0.13
   9  16  -6   -0.08    0.11
   8  16  -6    0.09    0.12
   7  16  -6    0.18    0.12
   6  16  -6    0.05    0.10
   5  16  -6    3.32    0.25
   4  16  -6    1.31    0.17
   3  16  -6    6.71    0.35
   2  16  -6    0.10    0.09
   1  16  -6    4.19    0.26
  11  15  -6    0.42    0.15
  10  15  -6    0.91    0.16
   9  15  -6    0.08    0.12
   8  15  -6    3.78    0.28
   7  15  -6    0.04    0.10
   6  15  -6   11.34    0.50
   5  15  -6    1.35    0.17
   4  15  -6   18.19    0.69
   3  15  -6    0.08    0.09
   2  15  -6   15.40    0.60
   6 -15   6    3.21    0.28
   7 -15   6    0.15    0.11
   8 -15   6    1.83    0.25
   9 -15   6    0.03    0.11
  10 -15   6    4.92    0.39
  11 -15   6   -0.05    0.12
  12 -15   6    4.60    0.41
  13 -15   6    0.49    0.19
  14 -15   6    0.95    0.25
  12  14  -6    0.14    0.14
  11  14  -6    1.55    0.20
  10  14  -6    0.03    0.12
   9  14  -6    6.50    0.36
   8  14  -6    0.42    0.13
   7  14  -6    8.13    0.40
   6  14  -6    0.35    0.11
   5  14  -6    4.92    0.29
   4  14  -6    0.28    0.10
   3  14  -6   16.79    0.64
   0 -14   6    4.69    0.37
   1 -14   6    2.14    0.20
   1 -14   6    1.76    0.25
   2 -14   6    4.59    0.37
   2 -14   6    4.21    0.29
   3 -14   6    0.67    0.14
   4 -14   6    4.19    0.30
   5 -14   6    0.26    0.11
   6 -14   6   16.70    0.74
   7 -14   6    4.17    0.32
   8 -14   6    3.20    0.30
   9 -14   6    0.42    0.15
  10 -14   6    6.20    0.44
  11 -14   6    1.29    0.24
  12 -14   6    2.88    0.35
  13 -14   6    4.65    0.42
  14 -14   6    1.25    0.26
  15 -14   6    0.11    0.17
  13  13  -6    0.11    0.15
  12  13  -6    2.96    0.28
  11  13  -6   -0.07    0.11
  10  13  -6    0.69    0.14
   9  13  -6    5.96    0.33
   8  13  -6    0.78    0.14
   7  13  -6    1.82    0.19
   6  13  -6    3.76    0.25
   5  13  -6    0.72    0.12
   4  13  -6    4.95    0.28
  -3 -13   6    0.05    0.11
  -2 -13   6    0.15    0.11
  -1 -13   6    1.33    0.22
   0 -13   6    4.54    0.35
   1 -13   6    0.55    0.12
   1 -13   6    0.47    0.14
   2 -13   6    0.31    0.10
  -3  13  -6    5.48    0.37
   3 -13   6    4.69    0.31
   4 -13   6    3.45    0.27
   5 -13   6    0.25    0.11
   6 -13   6    0.98    0.17
   7 -13   6   15.56    0.71
   8 -13   6    3.26    0.28
   9 -13   6    0.77    0.17
  10 -13   6    0.15    0.13
  11 -13   6    4.78    0.38
  12 -13   6    1.25    0.24
  13 -13   6    0.70    0.20
  14 -13   6   -0.05    0.12
  15 -13   6    0.01    0.15
  13  12  -6    4.53    0.31
  12  12  -6    6.15    0.36
  11  12  -6    0.65    0.16
  10  12  -6    0.04    0.11
   9  12  -6    0.58    0.13
   8  12  -6    2.26    0.21
   7  12  -6    0.13    0.09
   6  12  -6    2.68    0.20
   5  12  -6    3.20    0.22
  -5 -12   6    3.17    0.28
   4  12  -6    0.69    0.11
  -4 -12   6    0.64    0.16
  -3 -12   6    4.25    0.32
  -2 -12   6    7.18    0.42
  -1 -12   6   11.32    0.56
   0 -12   6    1.99    0.19
   0 -12   6    1.50    0.21
   1 -12   6    4.42    0.33
   1 -12   6    4.51    0.29
   2 -12   6   14.48    0.62
  -3  12  -6   16.42    0.71
   3 -12   6   16.03    0.69
  -4  12  -6    0.08    0.10
   4 -12   6    0.10    0.08
   5 -12   6    0.34    0.12
   6 -12   6    1.23    0.18
   7 -12   6    0.32    0.12
   8 -12   6    5.47    0.37
   9 -12   6    0.61    0.15
  10 -12   6    8.41    0.50
  11 -12   6    1.75    0.25
  12 -12   6    2.37    0.30
  13 -12   6    0.91    0.22
  14 -12   6   -0.09    0.10
  15 -12   6    0.14    0.17
  14  11  -6    0.36    0.14
  13  11  -6    2.02    0.23
  12  11  -6    1.30    0.18
  11  11  -6    0.06    0.11
  11  11  -6    0.11    0.08
  10  11  -6    0.40    0.12
   9  11  -6    3.20    0.24
   8  11  -6    0.16    0.10
   7  11  -6    1.86    0.19
  -7 -11   6    1.89    0.23
   6  11  -6   18.97    0.69
  -6 -11   6   17.98    0.78
   5  11  -6    0.03    0.08
  -5 -11   6    0.00    0.09
  -4 -11   6   21.73    0.88
  -3 -11   6    8.55    0.46
  -2 -11   6   47.21    1.67
  -1 -11   6    4.19    0.31
   0 -11   6   15.76    0.65
   0 -11   6   16.07    0.70
   1 -11   6    4.52    0.28
   2 -11   6   14.72    0.63
  -3  11  -6    1.39    0.19
   3 -11   6    1.41    0.18
  -4  11  -6    0.17    0.11
   4 -11   6    0.18    0.10
  -5  11  -6    8.24    0.45
   5 -11   6    8.56    0.44
   6 -11   6    0.08    0.09
   7 -11   6    0.05    0.09
   8 -11   6    0.69    0.15
   9 -11   6    2.85    0.27
  10 -11   6    6.30    0.41
  11 -11   6    0.20    0.13
  11 -11   6    0.12    0.11
  12 -11   6    8.61    0.53
  12 -11   6    8.25    0.47
  13 -11   6    0.29    0.13
  13 -11   6    0.33    0.15
  14 -11   6    0.76    0.20
  14 -11   6    1.00    0.19
  15 -11   6    0.23    0.15
  16 -11   6    0.33    0.19
  15  10  -6   -0.03    0.11
  14  10  -6    0.26    0.12
  14  10  -6    0.31    0.11
  13  10  -6    1.34    0.16
  13  10  -6    1.23    0.18
  12  10  -6    0.55    0.13
  12  10  -6    0.57    0.11
  11  10  -6    1.97    0.20
  10  10  -6    1.32    0.17
   9  10  -6    0.25    0.11
   8  10  -6    6.18    0.32
  -8 -10   6    5.95    0.37
   7  10  -6   41.86    1.35
  -7 -10   6   40.08    1.46
   6  10  -6   -0.07    0.06
  -6 -10   6    0.00    0.09
  -5 -10   6    1.61    0.19
  -4 -10   6    0.44    0.13
  -3 -10   6   62.70    2.12
  -2 -10   6    0.27    0.11
  -1 -10   6   45.27    1.59
   0 -10   6    5.13    0.30
   0 -10   6    5.64    0.35
   1 -10   6   44.57    1.57
   2 -10   6   34.70    1.26
  -3  10  -6    3.87    0.27
   3 -10   6    3.49    0.25
  -4  10  -6    8.47    0.42
   4 -10   6    8.01    0.42
  -5  10  -6    0.29    0.10
   5 -10   6    0.36    0.11
  -6  10  -6   51.43    1.72
   6 -10   6   46.81    1.74
   7 -10   6   13.91    0.63
   8 -10   6    1.78    0.22
   9 -10   6    9.29    0.50
   9 -10   6    8.71    0.45
  10 -10   6    0.48    0.14
  10 -10   6    0.39    0.13
  11 -10   6    1.31    0.19
  11 -10   6    1.55    0.23
  12 -10   6    1.01    0.20
  12 -10   6    1.03    0.18
  13 -10   6    3.07    0.33
  13 -10   6    3.26    0.29
  14 -10   6    0.10    0.11
  14 -10   6    0.09    0.14
  15 -10   6    0.05    0.15
  15 -10   6   -0.01    0.11
  16 -10   6    0.16    0.17
  16   9  -6    0.26    0.13
  15   9  -6    0.30    0.12
  15   9  -6    0.32    0.13
  14   9  -6    2.70    0.23
  14   9  -6    2.98    0.26
  13   9  -6    0.12    0.09
  13   9  -6    0.18    0.12
  12   9  -6    3.65    0.26
  12   9  -6    3.40    0.23
  11   9  -6    0.05    0.09
  10   9  -6    4.25    0.26
   9   9  -6    8.96    0.39
  -9  -9   6    8.46    0.45
   8   9  -6    4.05    0.25
  -8  -9   6    3.73    0.28
   7   9  -6    5.03    0.27
  -7  -9   6    4.27    0.30
   6   9  -6    4.30    0.25
  -6  -9   6    4.38    0.30
  -5  -9   6    0.48    0.14
  -4  -9   6   15.57    0.65
  -3  -9   6    0.65    0.14
  -2  -9   6   24.13    0.92
  -1  -9   6    2.41    0.19
  -1  -9   6    2.67    0.22
   0  -9   6   12.03    0.53
   0  -9   6   12.62    0.55
   1  -9   6    0.07    0.07
  -2   9  -6    5.36    0.30
   2  -9   6    5.48    0.30
   2  -9   6    4.97    0.30
  -3   9  -6    0.50    0.11
   3  -9   6    0.42    0.11
   3  -9   6    0.48    0.11
  -4   9  -6   13.39    0.55
   4  -9   6   12.45    0.53
   4  -9   6   12.22    0.56
  -5   9  -6    0.46    0.11
   5  -9   6    0.30    0.10
   5  -9   6    0.56    0.12
  -6   9  -6   14.53    0.61
   6  -9   6   13.65    0.62
  -7   9  -6   29.68    1.11
   7  -9   6   31.07    1.07
   7  -9   6   29.56    1.15
   8  -9   6    8.04    0.45
   8  -9   6    8.56    0.42
   9  -9   6    4.16    0.29
   9  -9   6    4.26    0.31
  10  -9   6    8.60    0.49
  10  -9   6    8.59    0.45
  11  -9   6    7.96    0.48
  11  -9   6    8.24    0.44
  12  -9   6    3.96    0.35
  12  -9   6    4.39    0.31
  13  -9   6    0.08    0.10
  13  -9   6   -0.11    0.11
  14  -9   6    1.52    0.26
  14  -9   6    1.62    0.23
  15  -9   6    0.05    0.11
  15  -9   6   -0.06    0.13
  16  -9   6    0.34    0.16
  16  -9   6    0.32    0.16
  17  -9   6    0.17    0.19
  17  -9   6    0.07    0.14
  17   8  -6   -0.17    0.11
  16   8  -6    1.53    0.20
  16   8  -6    1.22    0.18
  15   8  -6    1.46    0.18
  15   8  -6    1.43    0.19
  14   8  -6    3.12    0.25
  14   8  -6    3.37    0.26
  13   8  -6    2.93    0.23
  13   8  -6    3.33    0.23
  12   8  -6    1.62    0.18
  12   8  -6    1.30    0.15
  11   8  -6    0.65    0.12
  10   8  -6    2.32    0.20
 -10  -8   6    2.25    0.22
   9   8  -6    1.19    0.15
  -9  -8   6    0.83    0.14
   8   8  -6    0.46    0.10
  -8  -8   6    0.50    0.12
   7   8  -6   18.49    0.67
  -7  -8   6   19.18    0.75
   6   8  -6    4.50    0.25
  -6  -8   6    5.37    0.31
  -5  -8   6    6.23    0.35
  -4  -8   6    0.16    0.08
  -3  -8   6    3.59    0.25
  -2  -8   6   32.91    1.16
  -2  -8   6   32.51    1.16
  -1  -8   6    0.14    0.07
  -1  -8   6    0.20    0.08
  -1  -8   6    0.17    0.08
   0  -8   6    0.06    0.06
   0  -8   6    0.10    0.07
   0  -8   6    0.18    0.07
   1  -8   6   27.87    1.04
   1  -8   6   28.83    1.01
  -2   8  -6    3.34    0.22
   2  -8   6    3.40    0.23
   2  -8   6    3.46    0.22
  -3   8  -6    1.24    0.14
   3  -8   6    1.24    0.14
   3  -8   6    1.19    0.15
  -4   8  -6   21.76    0.81
   4  -8   6   21.66    0.85
   4  -8   6   21.68    0.80
  -5   8  -6    4.33    0.27
   5  -8   6    4.56    0.26
   5  -8   6    4.46    0.28
  -6   8  -6   23.20    0.86
   6  -8   6   21.64    0.89
   6  -8   6   23.24    0.84
   6  -8   6   23.30    0.84
  -7   8  -6   15.35    0.63
   7  -8   6   15.90    0.62
   7  -8   6   14.89    0.66
   8  -8   6   17.96    0.78
   8  -8   6   18.97    0.73
   9  -8   6    2.52    0.25
   9  -8   6    2.99    0.24
  10  -8   6   16.50    0.69
  10  -8   6   17.41    0.76
  11  -8   6    0.24    0.13
  11  -8   6    0.14    0.10
  12  -8   6    0.83    0.16
  12  -8   6    0.54    0.16
  13  -8   6    0.71    0.19
  13  -8   6    0.73    0.16
  14  -8   6    0.39    0.14
  14  -8   6    0.51    0.18
  15  -8   6   -0.07    0.09
  15  -8   6    0.02    0.14
  16  -8   6    0.72    0.19
  16  -8   6    0.81    0.23
  17  -8   6    1.57    0.29
  17  -8   6    1.73    0.26
  18  -8   6    0.20    0.15
  17   7  -6    3.78    0.31
  17   7  -6    4.19    0.31
  16   7  -6    1.30    0.18
  16   7  -6    1.33    0.19
  15   7  -6    0.70    0.15
  15   7  -6    1.14    0.17
  14   7  -6    2.93    0.23
  14   7  -6    2.31    0.22
  13   7  -6    1.06    0.15
  13   7  -6    0.81    0.13
  12   7  -6    1.00    0.14
  11   7  -6    4.75    0.27
 -11  -7   6    4.83    0.30
  10   7  -6    7.10    0.33
 -10  -7   6    7.11    0.38
   9   7  -6   14.42    0.55
  -9  -7   6   14.62    0.61
   8   7  -6    7.54    0.33
  -8  -7   6    7.49    0.39
   7   7  -6   14.06    0.53
  -7  -7   6   14.19    0.59
  -6  -7   6   20.99    0.80
  -5  -7   6    4.34    0.26
  -4  -7   6   10.02    0.45
  -3  -7   6    4.46    0.26
  -2  -7   6   29.76    1.04
  -2  -7   6   28.63    1.03
  -1  -7   6   10.69    0.47
  -1  -7   6   11.28    0.46
  -1  -7   6   10.69    0.47
   0  -7   6   33.68    1.22
   0  -7   6   34.75    1.18
   1  -7   6   13.88    0.55
   1  -7   6   13.82    0.57
  -2   7  -6    0.25    0.07
   2  -7   6    0.48    0.10
   2  -7   6    0.39    0.09
  -3   7  -6    3.98    0.22
   3  -7   6    3.76    0.24
   3  -7   6    3.30    0.21
  -4   7  -6    0.71    0.11
   4  -7   6    0.67    0.10
   4  -7   6    0.49    0.11
  -5   7  -6    3.94    0.23
   5  -7   6    4.01    0.23
   5  -7   6    3.72    0.25
   5  -7   6    3.78    0.24
  -6   7  -6    3.34    0.22
   6  -7   6    3.40    0.23
   6  -7   6    3.46    0.25
   6  -7   6    3.71    0.22
  -7   7  -6    0.41    0.10
   7  -7   6    0.56    0.13
   7  -7   6    0.47    0.10
   7  -7   6    0.50    0.10
  -8   7  -6    8.91    0.42
   8  -7   6    8.80    0.42
   8  -7   6    8.12    0.44
   9  -7   6   26.82    0.98
   9  -7   6   27.27    1.06
  10  -7   6    0.14    0.10
  10  -7   6    0.20    0.11
  11  -7   6    2.80    0.24
  11  -7   6    2.59    0.27
  12  -7   6    0.77    0.15
  12  -7   6    1.02    0.19
  13  -7   6    0.06    0.10
  13  -7   6    0.04    0.11
  14  -7   6    1.36    0.24
  14  -7   6    1.83    0.24
  15  -7   6    0.34    0.16
  15  -7   6   -0.02    0.11
  16  -7   6    0.09    0.15
  16  -7   6    0.10    0.14
  17  -7   6    1.53    0.29
  17  -7   6    0.93    0.22
  18  -7   6   -0.16    0.12
  17   6  -6    0.38    0.13
  17   6  -6    0.37    0.14
  16   6  -6    0.13    0.12
  16   6  -6    0.23    0.12
  15   6  -6    2.17    0.22
  15   6  -6    2.14    0.21
  14   6  -6    3.16    0.23
  14   6  -6    2.85    0.23
  13   6  -6    1.60    0.17
  13   6  -6    1.91    0.19
  12   6  -6    3.07    0.21
 -12  -6   6    2.95    0.24
  11   6  -6    6.83    0.32
 -11  -6   6    6.47    0.35
  10   6  -6    8.56    0.36
 -10  -6   6    8.53    0.42
   9   6  -6    0.49    0.09
  -9  -6   6    0.38    0.11
   8   6  -6    1.09    0.13
  -8  -6   6    1.33    0.15
   7   6  -6   40.24    1.31
  -7  -6   6   41.83    1.40
  -6  -6   6    9.55    0.43
  -5  -6   6   18.87    0.71
  -4  -6   6    4.07    0.24
  -3  -6   6   24.51    0.88
  -2  -6   6    1.76    0.15
  -1  -6   6  128.98    4.12
  -1  -6   6  131.26    4.11
  -1  -6   6  132.68    4.27
   0  -6   6    0.24    0.07
   0  -6   6    0.18    0.08
   1  -6   6   44.80    1.57
   1  -6   6   45.84    1.50
   2  -6   6   38.12    1.24
   2  -6   6   35.78    1.30
  -3   6  -6   10.04    0.40
   3  -6   6    9.53    0.44
   3  -6   6   10.01    0.41
  -4   6  -6    1.29    0.12
   4  -6   6    0.88    0.12
   4  -6   6    1.26    0.15
   4  -6   6    1.17    0.12
  -5   6  -6    0.35    0.08
   5  -6   6    0.38    0.10
   5  -6   6    0.24    0.07
   5  -6   6    0.24    0.08
  -6   6  -6    5.26    0.27
   6  -6   6    5.81    0.27
   6  -6   6    5.38    0.31
   6  -6   6    5.38    0.29
  -7   6  -6    2.58    0.19
   7  -6   6    2.42    0.17
   7  -6   6    2.48    0.20
   7  -6   6    2.75    0.22
  -8   6  -6    4.20    0.25
   8  -6   6    4.14    0.28
   8  -6   6    3.97    0.26
   8  -6   6    4.16    0.23
   9  -6   6    9.36    0.48
   9  -6   6    9.15    0.44
  10  -6   6    0.31    0.12
  10  -6   6    0.22    0.10
  11  -6   6    0.50    0.13
  11  -6   6    0.60    0.16
  12  -6   6    7.73    0.43
  12  -6   6    8.68    0.48
  13  -6   6    2.78    0.32
  13  -6   6    2.91    0.27
  14  -6   6    1.13    0.20
  14  -6   6    0.85    0.20
  15  -6   6    0.06    0.15
  15  -6   6    0.14    0.12
  16  -6   6    0.18    0.15
  16  -6   6    0.33    0.16
  17  -6   6    0.51    0.19
  17  -6   6    0.12    0.15
  18  -6   6    1.14    0.23
  18   5  -6    0.39    0.15
  18   5  -6    0.33    0.14
  17   5  -6    0.51    0.14
  17   5  -6    0.40    0.15
  16   5  -6    0.35    0.13
  16   5  -6    0.30    0.12
  15   5  -6    0.25    0.10
  15   5  -6    0.36    0.12
  14   5  -6    0.05    0.08
  14   5  -6    0.10    0.09
  13   5  -6    5.03    0.29
  13   5  -6    4.96    0.27
  12   5  -6    7.44    0.34
 -12  -5   6    7.80    0.40
  11   5  -6    1.27    0.14
 -11  -5   6    1.23    0.17
  10   5  -6    1.89    0.16
 -10  -5   6    2.17    0.19
   9   5  -6   35.31    1.17
  -9  -5   6   37.01    1.26
   8   5  -6   30.46    1.01
  -8  -5   6   31.78    1.09
   7   5  -6   10.01    0.39
  -7  -5   6    9.46    0.42
  -6  -5   6    3.48    0.22
  -5  -5   6    4.35    0.24
  -4  -5   6   41.93    1.40
  -3  -5   6    2.50    0.17
  -2  -5   6   79.59    2.54
  -1  -5   6   23.27    0.84
  -1  -5   6   24.74    0.89
   0  -5   6   49.51    1.59
   0  -5   6   48.44    1.68
   1  -5   6    6.52    0.28
   1  -5   6    6.06    0.32
   2  -5   6    2.24    0.18
   2  -5   6    2.20    0.14
  -3   5  -6    1.20    0.11
   3  -5   6    1.01    0.12
   3  -5   6    1.22    0.11
   3  -5   6    1.15    0.14
  -4   5  -6    3.98    0.20
   4  -5   6    3.43    0.23
   4  -5   6    4.21    0.21
   4  -5   6    3.55    0.22
  -5   5  -6    0.26    0.06
   5  -5   6    0.18    0.07
   5  -5   6    0.22    0.06
   5  -5   6    0.27    0.09
  -6   5  -6   28.60    1.00
   6  -5   6   29.12    1.00
   6  -5   6   30.55    0.99
   6  -5   6   27.95    1.07
  -7   5  -6    8.21    0.37
   7  -5   6    7.88    0.41
   7  -5   6    9.00    0.36
   7  -5   6    8.12    0.39
  -8   5  -6   12.93    0.51
   8  -5   6   12.16    0.52
   8  -5   6   12.44    0.49
   8  -5   6   12.43    0.56
   9  -5   6    7.05    0.37
   9  -5   6    7.36    0.40
  10  -5   6    3.74    0.27
  10  -5   6    3.92    0.30
  11  -5   6    4.26    0.30
  11  -5   6    4.29    0.32
  12  -5   6    1.11    0.18
  12  -5   6    0.90    0.19
  13  -5   6    1.20    0.20
  13  -5   6    1.23    0.19
  14  -5   6    2.13    0.26
  14  -5   6    1.73    0.25
  15  -5   6    0.75    0.18
  15  -5   6    0.81    0.21
  16  -5   6    0.29    0.15
  16  -5   6    0.31    0.15
  17  -5   6   -0.01    0.14
  17  -5   6   -0.03    0.14
  18  -5   6    0.21    0.15
  18   4  -6    0.06    0.12
  18   4  -6   -0.02    0.13
  17   4  -6    0.58    0.14
  17   4  -6    0.45    0.15
  16   4  -6    4.15    0.29
  16   4  -6    3.97    0.27
  15   4  -6    0.27    0.11
  15   4  -6    0.16    0.10
  14   4  -6    1.68    0.17
  14   4  -6    1.53    0.16
  13   4  -6    1.80    0.18
  13   4  -6    1.82    0.17
 -13  -4   6    1.73    0.20
  12   4  -6    0.70    0.11
 -12  -4   6    0.44    0.12
  11   4  -6    3.10    0.19
 -11  -4   6    3.57    0.24
  10   4  -6   21.28    0.72
 -10  -4   6   20.40    0.78
   9   4  -6   13.08    0.48
  -9  -4   6   12.54    0.52
   8   4  -6    0.45    0.08
  -8  -4   6    0.33    0.08
   7   4  -6   13.05    0.48
  -7  -4   6   13.81    0.53
  -6  -4   6    1.65    0.14
  -5  -4   6   19.57    0.70
  -4  -4   6   40.25    1.33
  -3  -4   6    0.18    0.06
  -2  -4   6   41.91    1.37
  -1  -4   6    1.89    0.13
  -1  -4   6    1.50    0.14
   0  -4   6    0.41    0.09
   1  -4   6   15.50    0.55
   1  -4   6   15.44    0.61
   2  -4   6    5.07    0.23
   2  -4   6    5.41    0.26
   2  -4   6    5.51    0.28
  -3   4  -6   12.60    0.45
   3  -4   6   12.27    0.45
   3  -4   6   11.92    0.48
   3  -4   6   12.54    0.52
  -4   4  -6    0.31    0.06
   4  -4   6    0.21    0.07
   4  -4   6    0.30    0.06
   4  -4   6    0.18    0.07
  -5   4  -6    0.69    0.09
   5  -4   6    0.62    0.08
   5  -4   6    0.63    0.11
   5  -4   6    0.68    0.11
  -6   4  -6    8.22    0.34
   6  -4   6    7.28    0.38
   6  -4   6    8.23    0.33
   6  -4   6    8.41    0.37
  -7   4  -6    2.81    0.17
   7  -4   6    2.79    0.21
   7  -4   6    3.14    0.17
   7  -4   6    2.82    0.21
  -8   4  -6   28.71    0.98
   8  -4   6   27.31    1.06
   8  -4   6   27.19    0.99
   8  -4   6   29.24    0.96
   9  -4   6    3.05    0.19
   9  -4   6    3.16    0.24
   9  -4   6    3.27    0.25
  10  -4   6   34.64    1.19
  10  -4   6   33.06    1.27
  11  -4   6    0.34    0.13
  11  -4   6    0.33    0.11
  12  -4   6    6.57    0.38
  12  -4   6    6.69    0.42
  13  -4   6    0.87    0.17
  13  -4   6    0.84    0.17
  14  -4   6    3.64    0.32
  14  -4   6    3.96    0.32
  15  -4   6    0.23    0.13
  15  -4   6    0.28    0.16
  16  -4   6    3.35    0.32
  16  -4   6    2.49    0.32
  17  -4   6   -0.06    0.14
  17  -4   6   -0.09    0.13
  18  -4   6    0.06    0.14
  18   3  -6    1.44    0.21
  18   3  -6    1.41    0.20
  17   3  -6    2.48    0.26
  17   3  -6    2.79    0.24
  16   3  -6    3.83    0.26
  16   3  -6    4.11    0.29
  15   3  -6    2.68    0.24
  15   3  -6    2.53    0.21
  14   3  -6    1.47    0.17
  14   3  -6    1.28    0.14
  13   3  -6    3.43    0.21
  13   3  -6    3.56    0.23
 -13  -3   6    3.54    0.26
  12   3  -6    2.97    0.19
  12   3  -6    3.34    0.22
 -12  -3   6    3.24    0.24
  11   3  -6    2.83    0.19
  11   3  -6    3.35    0.19
 -11  -3   6    2.66    0.22
  10   3  -6    2.00    0.15
 -10  -3   6    1.83    0.17
   9   3  -6    0.15    0.06
  -9  -3   6    0.20    0.08
   8   3  -6    2.27    0.14
  -8  -3   6    1.92    0.16
   7   3  -6    3.51    0.18
  -7  -3   6    3.51    0.20
  -6  -3   6    6.91    0.31
  -5  -3   6    3.10    0.18
  -4  -3   6    6.64    0.29
  -3  -3   6   52.49    1.68
  -2  -3   6   65.66    2.08
  -1  -3   6    2.11    0.16
  -1  -3   6    2.14    0.13
   0  -3   6  146.04    4.73
   1  -3   6   30.10    1.08
   1  -3   6   30.29    0.98
   2  -3   6   25.55    0.85
   2  -3   6   24.59    0.82
   2  -3   6   25.22    0.92
  -3   3  -6  120.36    3.73
   3  -3   6  124.12    3.75
   3  -3   6  118.78    3.66
   3  -3   6  120.33    3.95
  -4   3  -6    0.28    0.05
   4  -3   6    0.20    0.07
   4  -3   6    0.16    0.07
   4  -3   6    0.22    0.05
  -5   3  -6    1.36    0.10
   5  -3   6    1.42    0.15
   5  -3   6    1.41    0.14
   5  -3   6    1.57    0.10
  -6   3  -6    2.81    0.15
   6  -3   6    2.57    0.19
   6  -3   6    2.87    0.15
   6  -3   6    2.58    0.20
  -7   3  -6    4.24    0.21
   7  -3   6    4.11    0.26
   7  -3   6    4.04    0.20
   7  -3   6    3.55    0.23
  -8   3  -6   19.05    0.68
   8  -3   6   19.20    0.67
   8  -3   6   18.46    0.71
   8  -3   6   18.78    0.76
   9  -3   6   24.76    0.99
   9  -3   6   24.58    0.92
   9  -3   6   26.92    0.88
  10  -3   6    1.83    0.22
  10  -3   6    1.49    0.18
  11  -3   6    5.19    0.35
  11  -3   6    5.60    0.34
  12  -3   6    0.28    0.11
  12  -3   6    0.23    0.10
  13  -3   6    0.94    0.19
  13  -3   6    0.79    0.16
  14  -3   6    1.51    0.24
  14  -3   6    1.42    0.22
  15  -3   6    3.56    0.32
  15  -3   6    3.26    0.33
  16  -3   6    0.47    0.18
  16  -3   6    0.37    0.15
  17  -3   6    0.82    0.22
  17  -3   6    1.28    0.23
  18  -3   6    0.16    0.16
  18  -3   6    0.68    0.21
  19   2  -6    2.78    0.27
  18   2  -6    2.81    0.25
  18   2  -6    2.69    0.28
  17   2  -6    4.71    0.33
  17   2  -6    4.60    0.30
  16   2  -6    1.07    0.17
  16   2  -6    0.94    0.14
  15   2  -6    0.53    0.11
  15   2  -6    0.40    0.12
  14   2  -6    0.79    0.13
  14   2  -6    0.72    0.11
 -14  -2   6    0.69    0.14
  13   2  -6    0.25    0.08
  13   2  -6    0.32    0.09
 -13  -2   6    0.22    0.10
  12   2  -6   17.86    0.63
 -12  -2   6   18.08    0.71
  11   2  -6    4.41    0.22
  11   2  -6    4.14    0.22
 -11  -2   6    4.51    0.27
  10   2  -6    8.07    0.33
  10   2  -6    7.39    0.31
 -10  -2   6    8.14    0.37
   9   2  -6    0.45    0.07
  -9  -2   6    0.38    0.09
   8   2  -6   30.85    1.00
  -8  -2   6   31.79    1.07
   7   2  -6   21.01    0.69
  -7  -2   6   20.47    0.73
  -6  -2   6    7.31    0.31
  -5  -2   6   18.65    0.65
  -4  -2   6   93.88    2.94
  -3  -2   6   54.05    1.72
  -2  -2   6    1.24    0.09
   1   2  -6  122.31    4.06
  -1  -2   6  117.92    3.88
  -1  -2   6  117.47    3.69
   0  -2   6   18.43    0.71
   0  -2   6   19.48    0.63
   1  -2   6  120.19    3.58
   1  -2   6  118.20    3.65
   1  -2   6  117.19    3.86
   2  -2   6   18.93    0.65
   2  -2   6   17.90    0.70
   2  -2   6   18.59    0.61
   3  -2   6    5.10    0.27
   3  -2   6    4.43    0.26
   3  -2   6    5.55    0.20
   3  -2   6    5.30    0.25
   4  -2   6   15.69    0.59
   4  -2   6   15.86    0.64
   4  -2   6   17.34    0.55
   4  -2   6   16.46    0.67
   5  -2   6    2.08    0.11
   5  -2   6    2.18    0.16
   5  -2   6    1.78    0.16
   5  -2   6    1.98    0.17
  -6   2  -6    3.28    0.16
   6  -2   6    3.27    0.20
   6  -2   6    3.35    0.22
   6  -2   6    3.39    0.23
   6  -2   6    3.26    0.16
  -7   2  -6    0.92    0.10
   7  -2   6    0.72    0.12
   7  -2   6    0.72    0.11
   7  -2   6    0.95    0.09
   7  -2   6    1.02    0.15
  -8   2  -6    0.16    0.06
   8  -2   6    0.18    0.10
   8  -2   6    0.25    0.10
   8  -2   6    0.15    0.05
   8  -2   6    0.17    0.08
   9  -2   6   19.81    0.71
   9  -2   6   20.12    0.76
   9  -2   6   20.90    0.82
   9  -2   6   19.46    0.85
  10  -2   6    0.11    0.10
  10  -2   6    0.05    0.08
  10  -2   6    0.11    0.09
  11  -2   6    0.61    0.13
  11  -2   6    0.86    0.16
  11  -2   6    0.64    0.16
  12  -2   6    3.23    0.27
  12  -2   6    2.81    0.28
  12  -2   6    3.06    0.27
  13  -2   6    1.69    0.22
  13  -2   6    1.88    0.25
  13  -2   6    2.08    0.26
  14  -2   6    0.15    0.12
  14  -2   6    0.16    0.14
  14  -2   6    0.12    0.11
  15  -2   6    0.43    0.17
  15  -2   6    0.56    0.17
  16  -2   6    1.03    0.23
  16  -2   6    1.14    0.21
  17  -2   6    0.62    0.19
  17  -2   6    0.65    0.20
  18  -2   6    0.21    0.17
  18  -2   6    0.07    0.16
  19   1  -6    0.08    0.13
  18   1  -6    4.44    0.30
  18   1  -6    4.74    0.35
  17   1  -6   -0.01    0.09
  17   1  -6    0.07    0.10
  16   1  -6    2.52    0.24
  16   1  -6    2.45    0.21
  15   1  -6    2.24    0.22
  15   1  -6    2.22    0.19
  14   1  -6    0.30    0.11
  14   1  -6    0.30    0.08
 -14  -1   6    0.14    0.10
  13   1  -6   15.08    0.55
  13   1  -6   15.47    0.61
 -13  -1   6   15.44    0.64
  12   1  -6    6.19    0.27
  12   1  -6    6.19    0.31
 -12  -1   6    6.39    0.34
  11   1  -6    3.09    0.17
 -11  -1   6    2.63    0.21
  10   1  -6    5.33    0.23
  10   1  -6    4.95    0.22
 -10  -1   6    5.28    0.28
   9   1  -6   53.64    1.64
   9   1  -6   52.70    1.83
  -9  -1   6   53.57    1.75
   8   1  -6   11.31    0.41
   8   1  -6   11.67    0.41
  -8  -1   6   11.34    0.45
   7   1  -6    2.81    0.15
   7   1  -6    3.13    0.12
  -7  -1   6    2.47    0.16
  -6  -1   6   10.89    0.42
  -5  -1   6    7.52    0.30
   4   1  -6    9.18    0.33
  -4  -1   6    8.68    0.33
   3   1  -6    1.18    0.07
  -3  -1   6    1.27    0.09
   2   1  -6   80.73    2.72
  -2  -1   6   78.86    2.48
   1   1  -6   10.32    0.40
  -1  -1   6   10.46    0.36
   0  -1   6   29.11    0.93
   0  -1   6   29.76    1.04
   1  -1   6    8.52    0.35
   1  -1   6    8.70    0.37
   1  -1   6    8.78    0.38
   2  -1   6   19.83    0.76
   2  -1   6   21.81    0.66
   2  -1   6   20.35    0.71
   2  -1   6   20.64    0.79
   3  -1   6    3.82    0.22
   3  -1   6    3.77    0.22
   3  -1   6    3.89    0.15
   3  -1   6    3.72    0.20
   4  -1   6    0.33    0.08
   4  -1   6    0.57    0.10
   4  -1   6    0.53    0.05
   4  -1   6    0.45    0.08
   5  -1   6   12.08    0.41
   5  -1   6   11.81    0.52
   5  -1   6   12.07    0.50
   5  -1   6   11.90    0.47
   6  -1   6    0.80    0.07
   6  -1   6    1.09    0.13
   6  -1   6    0.86    0.12
   6  -1   6    0.79    0.12
   7  -1   6    1.15    0.16
   7  -1   6    0.92    0.12
   7  -1   6    1.17    0.09
   7  -1   6    1.03    0.14
   8  -1   6    7.21    0.40
   8  -1   6    8.07    0.39
   8  -1   6    7.07    0.36
   8  -1   6    7.05    0.30
   9  -1   6   16.25    0.59
   9  -1   6   16.14    0.68
   9  -1   6   15.65    0.64
   9  -1   6   15.85    0.72
  10  -1   6    1.80    0.21
  10  -1   6    1.86    0.23
  10  -1   6    1.77    0.21
  11  -1   6    5.99    0.35
  11  -1   6    6.66    0.39
  11  -1   6    6.27    0.40
  12  -1   6    4.59    0.35
  12  -1   6    4.39    0.30
  12  -1   6    4.32    0.33
  13  -1   6    0.23    0.12
  13  -1   6    0.25    0.12
  13  -1   6    0.17    0.12
  14  -1   6    2.54    0.28
  14  -1   6    2.21    0.29
  14  -1   6    1.95    0.27
  15  -1   6    0.79    0.20
  15  -1   6    0.85    0.19
  15  -1   6    1.00    0.19
  16  -1   6    0.95    0.21
  16  -1   6    1.32    0.22
  16  -1   6    1.33    0.24
  17  -1   6   -0.11    0.13
  17  -1   6    0.00    0.11
  18  -1   6    0.15    0.16
  18   0  -6   -0.01    0.13
  17   0  -6    0.79    0.17
  17   0  -6    0.64    0.14
  16   0  -6   -0.02    0.08
  16   0  -6   -0.09    0.10
  15   0  -6    8.83    0.42
  15   0  -6    8.06    0.37
  14   0  -6    0.15    0.08
  14   0  -6    0.15    0.10
 -14   0   6    0.18    0.11
  13   0  -6    0.07    0.09
  13   0  -6    0.07    0.06
 -13   0   6    0.09    0.09
  12   0  -6    3.40    0.19
  12   0  -6    3.65    0.23
 -12   0   6    3.34    0.25
  11   0  -6    1.78    0.13
 -11   0   6    1.58    0.17
  10   0  -6   28.68    0.90
 -10   0   6   27.37    0.99
   9   0  -6   10.98    0.40
  -9   0   6   11.71    0.47
   8   0  -6   11.06    0.38
  -8   0   6   10.21    0.43
   7   0  -6    1.64    0.10
  -7   0   6    1.81    0.13
   6   0  -6    0.41    0.05
  -6   0   6    0.37    0.07
  -5   0   6   31.05    1.02
  -4   0   6   36.11    1.16
  -3   0   6   22.35    0.73
  -2   0   6   41.69    1.31
  -1   0   6    4.18    0.20
  -1   0   6    4.23    0.16
   0   0   6    2.13    0.14
   0   0   6    2.09    0.09
   0   0   6    2.37    0.16
   0   0   6    2.26    0.14
   1   0   6   52.87    1.80
   1   0   6   54.14    1.67
   1   0   6   53.75    1.88
   2   0   6    9.54    0.38
   2   0   6   10.13    0.42
   2   0   6    9.39    0.41
   3   0   6   38.91    1.33
   3   0   6   37.43    1.39
   3   0   6   37.97    1.23
   3   0   6   38.54    1.19
   4   0   6    0.78    0.05
   4   0   6    0.66    0.10
   4   0   6    0.57    0.09
   4   0   6    0.54    0.09
   5   0   6    0.20    0.07
   5   0   6    0.17    0.06
   5   0   6    0.22    0.04
   5   0   6    0.42    0.09
   6   0   6   23.89    0.75
   6   0   6   21.41    0.84
   6   0   6   22.77    0.90
   6   0   6   22.49    0.80
   7   0   6    0.53    0.10
   7   0   6    0.87    0.14
   7   0   6    0.51    0.10
   7   0   6    0.93    0.09
   8   0   6   53.10    1.88
   8   0   6   51.81    2.00
   8   0   6   55.70    1.77
   8   0   6   57.70    1.76
   9   0   6    0.53    0.13
   9   0   6    0.61    0.09
   9   0   6    0.49    0.12
   9   0   6    0.74    0.13
  10   0   6   41.60    1.52
  10   0   6   43.78    1.63
  10   0   6   40.82    1.42
  11   0   6    8.92    0.49
  11   0   6    8.32    0.46
  11   0   6    8.40    0.43
  12   0   6    1.41    0.22
  12   0   6    1.35    0.19
  12   0   6    1.21    0.19
  13   0   6   -0.10    0.09
  13   0   6    0.02    0.10
  13   0   6    0.07    0.11
  14   0   6    0.32    0.15
  14   0   6    0.13    0.12
  14   0   6    0.12    0.12
  15   0   6    0.09    0.12
  15   0   6    0.02    0.11
  15   0   6    0.11    0.13
  16   0   6   -0.12    0.09
  16   0   6   -0.02    0.13
  16   0   6    0.06    0.15
  17   0   6    0.13    0.14
  17   0   6    0.30    0.16
  17   0   6    0.12    0.14
  18   0   6    1.72    0.30
  18   0   6    1.04    0.24
  18  -1  -6    0.43    0.14
  17  -1  -6    0.18    0.12
  16  -1  -6    1.09    0.15
  16  -1  -6    1.19    0.17
  15  -1  -6    0.74    0.12
  15  -1  -6    0.83    0.14
 -15   1   6    0.68    0.18
  14  -1  -6    8.11    0.39
  14  -1  -6    7.51    0.33
 -14   1   6    7.53    0.43
  13  -1  -6    0.04    0.07
  13  -1  -6    0.11    0.07
 -13   1   6    0.17    0.10
  12  -1  -6    1.71    0.13
  12  -1  -6    1.62    0.16
 -12   1   6    1.56    0.19
  11  -1  -6    0.73    0.09
 -11   1   6    0.62    0.12
  10  -1  -6    9.33    0.34
 -10   1   6    9.13    0.42
   9  -1  -6    3.82    0.17
  -9   1   6    3.57    0.22
   8  -1  -6    4.32    0.18
  -8   1   6    3.98    0.22
   7  -1  -6   11.03    0.37
  -7   1   6   10.62    0.42
   6  -1  -6    4.20    0.17
  -6   1   6    4.13    0.20
  -5   1   6   11.08    0.41
  -4   1   6    2.43    0.13
   3  -1  -6   19.00    0.62
  -3   1   6   18.71    0.62
  -3   1   6   18.73    0.66
   2  -1  -6    0.68    0.07
  -2   1   6    0.69    0.06
  -2   1   6    0.55    0.06
  -1   1   6    1.22    0.06
  -1   1   6    1.20    0.09
   0   1   6    1.11    0.05
   0   1   6    1.17    0.11
   0   1   6    1.17    0.10
   0   1   6    1.10    0.10
   1   1   6    4.74    0.24
   1   1   6    4.13    0.23
   1   1   6    5.15    0.22
   2   1   6    2.80    0.10
   2   1   6    2.60    0.17
   2   1   6    2.66    0.16
   2   1   6    2.95    0.18
   3   1   6   36.05    1.13
   3   1   6   35.04    1.22
   3   1   6   35.07    1.10
   3   1   6   34.04    1.28
   4   1   6    2.46    0.16
   4   1   6    2.30    0.17
   4   1   6    2.20    0.16
   4   1   6    2.17    0.11
   5   1   6   36.67    1.23
   5   1   6   38.50    1.20
   5   1   6   37.85    1.40
   5   1   6   37.78    1.32
   6   1   6    0.22    0.08
   6   1   6    0.24    0.05
   6   1   6    0.23    0.08
   6   1   6    0.26    0.08
   7   1   6    3.20    0.21
   7   1   6    2.67    0.16
   7   1   6    2.98    0.21
   7   1   6    2.43    0.22
   8   1   6    0.97    0.14
   8   1   6    1.13    0.16
   8   1   6    1.15    0.12
   8   1   6    0.80    0.14
   9   1   6   36.35    1.37
   9   1   6   34.38    1.20
   9   1   6   35.21    1.19
   9   1   6   34.31    1.28
  10   1   6    0.69    0.15
  10   1   6    0.84    0.15
  10   1   6    0.73    0.14
  11   1   6   13.02    0.57
  11   1   6   11.84    0.58
  11   1   6   12.82    0.63
  12   1   6    0.01    0.09
  12   1   6    0.02    0.09
  12   1   6    0.05    0.10
  13   1   6    1.46    0.22
  13   1   6    1.47    0.21
  13   1   6    1.72    0.25
  14   1   6   -0.10    0.10
  14   1   6   -0.07    0.10
  14   1   6    0.10    0.13
  15   1   6    0.08    0.12
  15   1   6    0.13    0.12
  15   1   6    0.15    0.14
  16   1   6    2.10    0.28
  16   1   6    2.44    0.33
  16   1   6    2.18    0.29
  17   1   6   -0.08    0.13
  17   1   6   -0.04    0.13
  17   1   6    0.01    0.14
  18   1   6    1.11    0.24
  18  -2  -6    0.01    0.12
  17  -2  -6    1.98    0.23
  16  -2  -6   -0.11    0.10
  15  -2  -6    9.81    0.46
 -15   2   6    9.06    0.50
  14  -2  -6    1.17    0.15
  14  -2  -6    1.15    0.13
 -14   2   6    1.24    0.19
  13  -2  -6    0.14    0.08
  13  -2  -6    0.16    0.06
 -13   2   6    0.11    0.10
  12  -2  -6    8.21    0.38
  12  -2  -6    8.56    0.33
 -12   2   6    7.63    0.41
  11  -2  -6    0.93    0.09
  11  -2  -6    1.00    0.13
 -11   2   6    1.28    0.17
  10  -2  -6    4.47    0.20
 -10   2   6    4.56    0.27
   9  -2  -6    1.67    0.10
  -9   2   6    1.08    0.14
   8  -2  -6   21.55    0.68
  -8   2   6   21.36    0.77
   7  -2  -6    1.51    0.09
  -7   2   6    1.48    0.13
   6  -2  -6    1.14    0.07
  -6   2   6    1.08    0.11
  -5   2   6   24.08    0.82
   4  -2  -6   30.74    1.00
  -4   2   6   31.85    1.04
  -4   2   6   33.16    1.10
   3  -2  -6    6.30    0.24
  -3   2   6    6.58    0.26
  -3   2   6    6.55    0.26
   2  -2  -6   19.98    0.63
  -2   2   6   19.79    0.71
  -2   2   6   18.90    0.64
   1  -2  -6    3.24    0.14
  -1   2   6    3.04    0.15
  -1   2   6    2.89    0.13
  -1   2   6    3.12    0.16
   0   2   6    8.07    0.29
   0   2   6    8.70    0.33
   0   2   6    8.52    0.36
   1   2   6   20.40    0.68
   1   2   6   20.04    0.65
   1   2   6   20.20    0.76
   1   2   6   19.55    0.73
   2   2   6   20.15    0.71
   2   2   6   21.09    0.76
   2   2   6   20.78    0.80
   2   2   6   21.78    0.68
   3   2   6   23.35    0.81
   3   2   6   24.91    0.78
   3   2   6   24.40    0.92
   3   2   6   23.89    0.87
   4   2   6    8.09    0.29
   4   2   6    7.50    0.33
   4   2   6    7.98    0.36
   4   2   6    7.53    0.37
   5   2   6    9.20    0.39
   5   2   6    9.26    0.41
   5   2   6    9.77    0.45
   5   2   6    9.09    0.35
   6   2   6    0.58    0.08
   6   2   6    0.45    0.10
   6   2   6    0.54    0.10
   6   2   6    0.46    0.10
   7   2   6    0.14    0.08
   7   2   6    0.23    0.06
   7   2   6    0.09    0.08
   7   2   6    0.22    0.08
   8   2   6    0.83    0.11
   8   2   6    0.73    0.14
   8   2   6    0.73    0.13
   8   2   6    0.72    0.13
   9   2   6    1.27    0.19
   9   2   6    1.96    0.19
   9   2   6    1.64    0.19
  10   2   6    0.61    0.15
  10   2   6    0.59    0.13
  10   2   6    0.66    0.13
  11   2   6    3.83    0.31
  11   2   6    4.13    0.30
  11   2   6    4.06    0.30
  12   2   6    4.13    0.32
  12   2   6    4.78    0.33
  12   2   6    5.08    0.37
  13   2   6    0.60    0.15
  13   2   6    0.64    0.18
  13   2   6    0.52    0.15
  14   2   6    0.96    0.19
  14   2   6    1.07    0.22
  14   2   6    0.89    0.18
  15   2   6    0.27    0.15
  15   2   6    0.54    0.18
  15   2   6    0.31    0.15
  16   2   6    0.17    0.15
  16   2   6    0.09    0.13
  16   2   6    0.24    0.15
  17   2   6    1.72    0.29
  17   2   6    1.22    0.25
  17  -3  -6    0.79    0.17
  16  -3  -6    1.72    0.20
  15  -3  -6    0.60    0.13
 -15   3   6    0.48    0.16
  14  -3  -6    0.80    0.14
 -14   3   6    0.47    0.14
  13  -3  -6    1.74    0.18
  13  -3  -6    1.27    0.13
 -13   3   6    1.72    0.21
  12  -3  -6    1.59    0.16
  12  -3  -6    1.18    0.11
 -12   3   6    1.10    0.17
  11  -3  -6    9.26    0.40
  11  -3  -6    8.94    0.34
 -11   3   6    9.80    0.45
  10  -3  -6    0.40    0.06
  10  -3  -6    0.43    0.08
 -10   3   6    0.47    0.12
   9  -3  -6   24.92    0.76
  -9   3   6   23.08    0.88
   8  -3  -6    4.12    0.16
  -8   3   6    3.93    0.24
   7  -3  -6   15.63    0.49
  -7   3   6   15.38    0.59
   6  -3  -6   37.85    1.13
  -6   3   6   37.13    1.25
   5  -3  -6    0.86    0.07
   5  -3  -6    0.90    0.06
  -5   3   6    1.04    0.11
   4  -3  -6    1.93    0.10
  -4   3   6    1.82    0.13
   3  -3  -6   64.83    1.88
  -3   3   6   60.84    1.99
   2  -3  -6   20.29    0.62
  -2   3   6   18.98    0.66
   1  -3  -6    1.20    0.07
  -1   3   6    0.94    0.08
  -1   3   6    0.87    0.08
   0   3   6    0.50    0.06
   0   3   6    0.40    0.06
   1   3   6    2.87    0.14
   1   3   6    3.13    0.18
   1   3   6    3.02    0.16
   2   3   6    0.42    0.07
   2   3   6    0.60    0.09
   3   3   6    0.81    0.10
   3   3   6    0.86    0.08
   3   3   6    0.55    0.09
   4   3   6    0.93    0.11
   4   3   6    1.02    0.12
   4   3   6    0.88    0.09
   4   3   6    0.82    0.13
   5   3   6   17.12    0.63
   5   3   6   17.76    0.67
   5   3   6   18.23    0.62
   5   3   6   16.34    0.72
   6   3   6    0.72    0.12
   6   3   6    0.87    0.13
   6   3   6    0.86    0.12
   6   3   6    0.93    0.11
   7   3   6   10.10    0.44
   7   3   6    9.95    0.41
   7   3   6   10.26    0.45
   7   3   6   10.31    0.51
   8   3   6   13.96    0.64
   8   3   6   13.39    0.54
   8   3   6   13.90    0.56
   8   3   6   13.76    0.58
   9   3   6    6.65    0.41
   9   3   6    7.14    0.37
   9   3   6    6.79    0.36
  10   3   6    4.62    0.30
  10   3   6    4.53    0.30
  10   3   6    4.50    0.34
  11   3   6    2.36    0.22
  11   3   6    2.47    0.25
  11   3   6    2.18    0.22
  12   3   6    1.83    0.22
  12   3   6    1.79    0.23
  12   3   6    2.70    0.27
  13   3   6    1.02    0.20
  13   3   6    1.24    0.20
  13   3   6    1.37    0.22
  14   3   6    1.01    0.19
  14   3   6    1.28    0.23
  14   3   6    1.14    0.21
  15   3   6    0.18    0.14
  15   3   6    0.22    0.15
  15   3   6    0.43    0.15
  16   3   6    0.06    0.12
  16   3   6   -0.01    0.13
  16   3   6   -0.02    0.14
  17  -4  -6    0.54    0.17
  16  -4  -6    0.07    0.10
  15  -4  -6    1.37    0.19
 -15   4   6    1.42    0.22
  14  -4  -6    1.82    0.18
 -14   4   6    1.66    0.22
  13  -4  -6    5.84    0.32
 -13   4   6    6.12    0.38
  12  -4  -6    9.99    0.43
 -12   4   6    9.66    0.49
  11  -4  -6    0.24    0.08
 -11   4   6    0.20    0.11
  10  -4  -6   59.61    1.95
  10  -4  -6   58.29    1.77
 -10   4   6   57.57    1.96
   9  -4  -6   43.93    1.34
   9  -4  -6   44.32    1.49
  -9   4   6   44.53    1.51
   8  -4  -6    5.10    0.18
  -8   4   6    4.54    0.27
   7  -4  -6    0.26    0.03
  -7   4   6    0.27    0.08
   6  -4  -6   11.04    0.37
   6  -4  -6   11.76    0.35
  -6   4   6   10.98    0.46
   5  -4  -6    7.49    0.25
   5  -4  -6    7.55    0.23
  -5   4   6    7.72    0.33
  -4   4   6   11.40    0.44
   3  -4  -6    9.33    0.29
  -3   4   6    8.60    0.36
   2  -4  -6   13.65    0.40
  -2   4   6   11.87    0.47
   1  -4  -6   23.11    0.66
  -1   4   6   20.40    0.69
  -1   4   6   20.11    0.72
   0   4   6    3.42    0.16
   0   4   6    3.06    0.16
   1   4   6    2.11    0.13
   1   4   6    1.78    0.12
   2   4   6    0.12    0.05
   2   4   6    0.10    0.05
   3   4   6   21.32    0.76
   3   4   6   20.87    0.72
   3   4   6   20.90    0.73
   4   4   6    3.74    0.21
   4   4   6    3.59    0.21
   4   4   6    3.96    0.20
   5   4   6    2.54    0.18
   5   4   6    2.74    0.17
   5   4   6    2.59    0.18
   6   4   6   19.28    0.81
   6   4   6   19.65    0.71
   6   4   6   19.43    0.70
   6   4   6   18.94    0.73
   7   4   6    2.18    0.18
   7   4   6    1.88    0.16
   7   4   6    2.19    0.18
   7   4   6    1.77    0.19
   8   4   6   14.49    0.59
   8   4   6   13.74    0.65
   8   4   6   14.05    0.58
   9   4   6    3.08    0.27
   9   4   6    3.03    0.23
   9   4   6    3.19    0.23
  10   4   6   26.37    1.12
  10   4   6   26.53    1.02
  10   4   6   27.09    0.99
  11   4   6    1.11    0.18
  11   4   6    0.99    0.19
  11   4   6    1.09    0.17
  12   4   6    2.59    0.25
  12   4   6    2.98    0.29
  12   4   6    2.05    0.24
  13   4   6    0.16    0.13
  13   4   6    0.50    0.15
  13   4   6    0.44    0.15
  14   4   6    0.01    0.11
  14   4   6   -0.03    0.12
  14   4   6   -0.08    0.11
  15   4   6    0.80    0.20
  15   4   6    0.93    0.23
  16   4   6    0.32    0.16
  16   4   6    0.44    0.19
  17  -5  -6    0.29    0.15
  16  -5  -6    0.08    0.12
  15  -5  -6    1.09    0.17
 -15   5   6    0.98    0.21
  14  -5  -6    2.53    0.22
 -14   5   6    2.45    0.28
  13  -5  -6    0.08    0.09
 -13   5   6    0.16    0.11
  12  -5  -6    2.85    0.21
 -12   5   6    3.06    0.27
  11  -5  -6    3.35    0.22
 -11   5   6    3.44    0.27
  10  -5  -6    1.16    0.12
 -10   5   6    1.26    0.19
   9  -5  -6    5.59    0.26
  -9   5   6    5.23    0.32
   8  -5  -6    0.95    0.11
  -8   5   6    1.14    0.16
  -7   5   6    0.16    0.07
  -6   5   6    1.37    0.15
  -5   5   6    8.07    0.37
  -4   5   6    0.05    0.06
  -3   5   6    0.64    0.10
   2  -5  -6    2.81    0.10
  -2   5   6    2.76    0.17
   1  -5  -6    1.72    0.08
  -1   5   6    1.69    0.13
  -1   5   6    1.61    0.10
   0   5   6    6.80    0.30
   0   5   6    7.09    0.28
  -1  -5  -6    0.39    0.06
   1   5   6    0.37    0.07
   1   5   6    0.40    0.07
  -2  -5  -6    0.25    0.05
   2   5   6    0.03    0.04
   3   5   6    3.54    0.20
   3   5   6    3.75    0.20
   4   5   6    8.38    0.36
   4   5   6    8.12    0.36
   4   5   6    8.53    0.36
   5   5   6   10.35    0.44
   5   5   6   11.15    0.44
   5   5   6   10.74    0.44
   6   5   6    0.26    0.08
   6   5   6    0.35    0.09
   6   5   6    0.32    0.09
   7   5   6    1.18    0.15
   7   5   6    1.28    0.18
   7   5   6    1.41    0.15
   8   5   6    1.02    0.15
   8   5   6    1.25    0.15
   8   5   6    1.26    0.18
   9   5   6    7.44    0.39
   9   5   6    7.62    0.39
   9   5   6    8.18    0.46
  10   5   6    0.54    0.13
  10   5   6    0.51    0.15
  10   5   6    0.68    0.13
  11   5   6    2.06    0.23
  11   5   6    2.58    0.29
  11   5   6    2.29    0.23
  12   5   6    0.06    0.13
  12   5   6    0.10    0.10
  13   5   6    0.69    0.19
  13   5   6    0.45    0.16
  14   5   6   -0.04    0.13
  14   5   6   -0.05    0.11
  15   5   6    0.11    0.15
  15   5   6    0.25    0.17
  17  -6  -6    3.97    0.33
  16  -6  -6    0.44    0.15
  15  -6  -6    1.59    0.20
 -15   6   6    1.81    0.26
  14  -6  -6    0.03    0.10
 -14   6   6   -0.04    0.11
  13  -6  -6    0.29    0.11
 -13   6   6    0.06    0.11
  12  -6  -6    3.27    0.23
 -12   6   6    2.99    0.28
  11  -6  -6    2.14    0.18
 -11   6   6    1.57    0.21
  10  -6  -6    0.04    0.07
 -10   6   6    0.10    0.09
   9  -6  -6    7.33    0.32
  -9   6   6    7.12    0.39
   8  -6  -6    7.04    0.30
  -8   6   6    6.61    0.37
   7  -6  -6    3.44    0.18
  -7   6   6    3.00    0.24
  -6   6   6    0.12    0.08
  -5   6   6    2.26    0.19
  -4   6   6   14.03    0.56
  -3   6   6    4.39    0.25
  -2   6   6    8.49    0.38
   1  -6  -6    0.41    0.04
  -1   6   6    0.24    0.05
  -1   6   6    0.15    0.06
   0  -6  -6    0.30    0.06
   0   6   6    0.22    0.05
   0   6   6    0.28    0.08
  -1  -6  -6    2.40    0.12
   1   6   6    2.43    0.17
   1   6   6    2.30    0.15
  -2  -6  -6    4.88    0.20
   2   6   6    4.72    0.23
   3   6   6   19.76    0.69
   4   6   6    0.42    0.09
   4   6   6    0.45    0.08
   5   6   6    1.00    0.14
   5   6   6    1.02    0.12
   5   6   6    0.91    0.13
   6   6   6    1.09    0.12
   6   6   6    0.89    0.13
   7   6   6    4.88    0.27
   7   6   6    5.43    0.30
   8   6   6    0.14    0.08
   9   6   6    2.84    0.27
   9   6   6    3.21    0.25
  10   6   6   -0.06    0.08
  10   6   6   -0.05    0.11
  11   6   6    5.33    0.35
  11   6   6    5.56    0.42
  12   6   6    0.01    0.11
  12   6   6    0.04    0.12
  13   6   6   -0.06    0.13
  13   6   6   -0.06    0.09
  14   6   6    0.58    0.17
  14   6   6    0.39    0.18
  15   6   6    0.32    0.16
  15   6   6    0.21    0.18
  17  -7  -6    0.27    0.16
  16  -7  -6    2.54    0.26
  15  -7  -6   -0.06    0.10
 -15   7   6    0.17    0.15
  14  -7  -6    0.00    0.10
 -14   7   6    0.16    0.14
  13  -7  -6    1.41    0.17
 -13   7   6    1.79    0.25
  12  -7  -6    2.28    0.20
 -12   7   6    2.29    0.28
  11  -7  -6   19.05    0.72
 -11   7   6   18.77    0.82
  10  -7  -6    1.84    0.16
 -10   7   6    1.61    0.22
   9  -7  -6    6.49    0.30
  -9   7   6    6.62    0.39
   8  -7  -6   11.97    0.46
  -8   7   6   11.90    0.55
   7  -7  -6    3.14    0.17
  -7   7   6    3.07    0.25
   6  -7  -6    3.09    0.16
  -6   7   6    3.11    0.24
   5  -7  -6    8.75    0.33
  -5   7   6    8.33    0.41
   4  -7  -6    3.33    0.16
  -4   7   6    3.32    0.23
  -3   7   6   12.85    0.54
  -2   7   6    4.31    0.26
  -1   7   6    5.41    0.21
  -1   7   6    4.84    0.28
   0   7   6   14.97    0.60
   0   7   6   15.31    0.52
   1   7   6    2.79    0.20
   1   7   6    2.63    0.16
   2   7   6    1.27    0.12
   3   7   6   26.74    0.90
   4   7   6    0.94    0.12
   5   7   6   13.47    0.53
   6   7   6    3.67    0.24
   7   7   6    4.52    0.28
   8   7   6    2.27    0.21
   9   7   6    1.83    0.21
   9   7   6    1.66    0.24
  10   7   6    0.14    0.10
  10   7   6    0.01    0.11
  11   7   6    1.57    0.22
  11   7   6    1.87    0.28
  12   7   6   -0.01    0.09
  12   7   6    0.09    0.14
  13   7   6    0.85    0.22
  13   7   6    0.31    0.15
  14   7   6    0.61    0.18
  14   7   6    0.47    0.19
  16  -8  -6    1.26    0.21
  15  -8  -6    0.11    0.12
  14  -8  -6    4.44    0.30
 -14   8   6    4.17    0.39
  13  -8  -6    3.68    0.27
 -13   8   6    4.08    0.36
  12  -8  -6    8.05    0.39
 -12   8   6    7.70    0.49
  11  -8  -6    0.78    0.12
 -11   8   6    1.04    0.21
  10  -8  -6   18.16    0.70
 -10   8   6   18.80    0.81
   9  -8  -6   10.17    0.42
  -9   8   6    9.72    0.52
   8  -8  -6   16.58    0.61
  -8   8   6   16.00    0.71
   7  -8  -6    0.62    0.09
  -7   8   6    0.87    0.17
   6  -8  -6   10.74    0.41
  -6   8   6   10.84    0.52
   5  -8  -6    2.76    0.14
  -5   8   6    2.57    0.23
   4  -8  -6   26.19    0.88
  -4   8   6   26.47    0.99
   3  -8  -6    4.54    0.18
  -3   8   6    4.19    0.28
  -2   8   6    0.06    0.08
  -1   8   6   20.70    0.80
   0   8   6    1.51    0.17
   0   8   6    1.33    0.11
   1   8   6    3.80    0.20
   1   8   6    3.91    0.25
   2   8   6    6.47    0.29
   3   8   6    2.00    0.16
   4   8   6    2.15    0.17
   5   8   6    0.83    0.13
   6   8   6    7.40    0.36
   7   8   6    4.75    0.29
   8   8   6    3.65    0.27
   9   8   6    3.30    0.27
  10   8   6   10.00    0.60
  10   8   6    9.97    0.50
  11   8   6    0.30    0.13
  11   8   6    0.39    0.17
  12   8   6    0.28    0.17
  12   8   6    0.08    0.12
  13   8   6   -0.19    0.13
  13   8   6   -0.01    0.12
  16  -9  -6   -0.08    0.11
  15  -9  -6    0.72    0.16
  14  -9  -6    0.02    0.11
 -14   9   6   -0.15    0.13
  13  -9  -6    0.68    0.15
 -13   9   6    0.59    0.20
  12  -9  -6    1.71    0.19
 -12   9   6    2.02    0.28
  11  -9  -6    2.57    0.21
 -11   9   6    2.67    0.32
  10  -9  -6   -0.04    0.07
 -10   9   6   -0.12    0.10
   9  -9  -6    5.45    0.29
  -9   9   6    6.08    0.40
   8  -9  -6    0.72    0.11
  -8   9   6    0.79    0.17
   7  -9  -6    0.31    0.08
  -7   9   6    0.30    0.13
   6  -9  -6    0.92    0.10
  -6   9   6    0.88    0.17
  -5   9   6    1.93    0.23
  -4   9   6    0.07    0.09
  -3   9   6    4.02    0.29
  -2   9   6    0.21    0.10
  -1   9   6    0.23    0.10
   0   9   6    0.02    0.07
   2   9   6    1.67    0.14
   3   9   6    0.62    0.10
   4   9   6    1.53    0.16
   5   9   6    1.45    0.16
   6   9   6    0.09    0.08
   7   9   6    3.31    0.25
   8   9   6    0.14    0.10
   9   9   6    6.11    0.37
  10   9   6    0.93    0.23
  10   9   6    0.91    0.17
  11   9   6    0.14    0.12
  11   9   6   -0.06    0.12
  12   9   6    0.04    0.15
  12   9   6    0.00    0.12
  13   9   6    0.31    0.15
 -14  10   6   -0.13    0.15
 -13  10   6    0.29    0.18
 -12  10   6    0.51    0.19
 -11  10   6    0.49    0.18
 -10  10   6    0.37    0.15
  -9  10   6    0.23    0.15
  -8  10   6    1.24    0.21
  -7  10   6    0.26    0.13
  -6  10   6    0.28    0.13
  -5  10   6    0.25    0.12
  -4  10   6    0.61    0.14
  -3  10   6    0.04    0.10
  -2  10   6    5.72    0.36
  -1  10   6    0.06    0.09
   0  10   6    0.68    0.15
   4  10   6    0.17    0.09
   5  10   6    0.36    0.10
   6  10   6    0.35    0.11
   7  10   6    8.41    0.42
   8  10   6    2.11    0.23
   9  10   6    1.85    0.22
  10  10   6    0.90    0.18
  11  10   6    0.21    0.17
  11  10   6    0.01    0.11
  12  10   6   -0.13    0.11
 -13  11   6    0.14    0.17
 -12  11   6    0.16    0.17
 -11  11   6    3.82    0.38
 -10  11   6    0.46    0.18
  -9  11   6    0.85    0.21
  -8  11   6    3.65    0.36
  -7  11   6    1.26    0.23
  -6  11   6    0.97    0.20
  -5  11   6    4.43    0.35
  -4  11   6    2.14    0.27
  -3  11   6    0.40    0.15
  -2  11   6    2.67    0.27
  -1  11   6    0.70    0.16
   0  11   6    0.31    0.13
   9  11   6    0.21    0.12
  10  11   6    0.06    0.11
  11  11   6    0.41    0.16
 -13  12   6    0.52    0.22
 -12  12   6    1.42    0.28
 -11  12   6   -0.03    0.16
 -10  12   6    6.70    0.51
  -9  12   6    5.55    0.46
  -8  12   6   13.13    0.70
  -7  12   6   -0.12    0.12
  -6  12   6    0.96    0.21
  -5  12   6    0.37    0.15
  -4  12   6    2.88    0.32
  -3  12   6    0.30    0.14
  -2  12   6    0.04    0.12
  -1  12   6    0.06    0.12
 -12  13   6    0.02    0.18
 -11  13   6    3.94    0.45
 -10  13   6    0.14    0.16
  -9  13   6    5.91    0.49
  -8  13   6    0.58    0.19
  -7  13   6    3.74    0.41
  -6  13   6    0.69    0.20
  -5  13   6   -0.11    0.12
  -4  13   6    1.30    0.24
  -3  13   6    2.04    0.28
  -2  13   6   -0.03    0.12
 -10  14   6    1.60    0.31
  -9  14   6    0.40    0.20
  -8  14   6    4.71    0.46
  -7  14   6    0.74    0.23
  -6  14   6    0.07    0.15
  -5  14   6   -0.03    0.14
  -4  14   6    0.83    0.21
  -3  14   6    0.08    0.13
  -2  14   6    0.38    0.17
  -7  15   6    0.17    0.18
  -6  15   6    0.08    0.17
  -5  15   6    1.27    0.27
  -4  15   6    1.63    0.29
  -3  15   6   -0.04    0.14
   7  18  -7    1.23    0.19
   6  18  -7    1.59    0.20
   5  18  -7    0.16    0.11
   4  18  -7    2.05    0.22
   3  18  -7    0.68    0.14
   2  18  -7    0.06    0.09
   8  17  -7    3.16    0.27
   7  17  -7    0.22    0.12
   6  17  -7    0.19    0.12
   5  17  -7    0.15    0.12
   4  17  -7    3.97    0.28
   3  17  -7    0.14    0.10
   2  17  -7    0.44    0.12
   1  17  -7    0.09    0.08
   9  16  -7    3.13    0.27
   8  16  -7    1.26    0.18
   7  16  -7    1.93    0.22
   6  16  -7    0.85    0.16
   5  16  -7    1.21    0.17
   4  16  -7    0.53    0.13
   3  16  -7    0.15    0.10
   2  16  -7    0.66    0.13
  10  15  -7    0.03    0.12
   9  15  -7    6.45    0.37
   8  15  -7    1.60    0.20
   7  15  -7    2.53    0.23
   6  15  -7   -0.05    0.09
   5  15  -7    1.14    0.17
   4  15  -7   -0.04    0.09
   3  15  -7   -0.03    0.09
   2 -15   7    0.59    0.20
   3 -15   7    6.51    0.40
   4 -15   7    2.25    0.24
   5 -15   7    3.25    0.28
   6 -15   7    1.19    0.20
   7 -15   7   -0.06    0.09
   8 -15   7    0.04    0.11
   9 -15   7    0.04    0.12
  10 -15   7    0.66    0.19
  11 -15   7    0.08    0.14
  12 -15   7   -0.14    0.13
  13 -15   7    0.13    0.17
  14 -15   7    0.90    0.25
  12  14  -7    3.90    0.34
  11  14  -7    0.28    0.13
  10  14  -7    4.24    0.31
   9  14  -7    0.64    0.15
   8  14  -7   -0.09    0.10
   7  14  -7    1.56    0.18
   6  14  -7    2.61    0.23
   5  14  -7   -0.17    0.08
   4  14  -7   -0.04    0.08
  -2 -14   7    2.23    0.28
  -1 -14   7    0.30    0.15
   0 -14   7    4.25    0.36
   1 -14   7    0.08    0.12
   1 -14   7    0.33    0.11
   2 -14   7    0.33    0.15
   2 -14   7    0.43    0.12
   3 -14   7   -0.02    0.08
   4 -14   7    3.54    0.28
   5 -14   7    0.52    0.14
   6 -14   7    0.28    0.14
   7 -14   7    2.03    0.27
   8 -14   7    1.04    0.20
   9 -14   7    0.12    0.13
  10 -14   7    0.56    0.17
  11 -14   7    0.12    0.13
  12 -14   7    1.05    0.24
  13 -14   7    0.08    0.16
  14 -14   7    1.20    0.27
  12  13  -7    0.21    0.13
  11  13  -7    0.14    0.13
  10  13  -7    4.03    0.30
   9  13  -7    0.45    0.14
   8  13  -7    2.68    0.24
   7  13  -7    0.18    0.11
   6  13  -7    3.27    0.25
   5  13  -7    2.19    0.21
  -4 -13   7    1.69    0.24
  -3 -13   7    4.15    0.34
  -2 -13   7   -0.05    0.09
  -1 -13   7    0.81    0.19
   0 -13   7    1.70    0.25
   1 -13   7    7.70    0.42
   1 -13   7    8.31    0.49
   2 -13   7    4.27    0.30
   3 -13   7    0.92    0.17
   4 -13   7    9.60    0.50
   5 -13   7    2.97    0.26
   6 -13   7    0.18    0.11
   7 -13   7    1.58    0.22
   8 -13   7    0.00    0.10
   9 -13   7    1.36    0.23
  10 -13   7    0.60    0.18
  11 -13   7   -0.11    0.11
  12 -13   7    0.22    0.14
  13 -13   7    3.10    0.37
  14 -13   7    1.51    0.27
  15 -13   7   -0.03    0.14
  13  12  -7   -0.24    0.11
  12  12  -7    0.09    0.12
  11  12  -7    0.53    0.15
  10  12  -7    1.30    0.17
   9  12  -7    0.66    0.15
   8  12  -7    2.53    0.23
   7  12  -7    6.90    0.36
   6  12  -7    2.04    0.21
  -6 -12   7    2.20    0.26
   5  12  -7    0.29    0.10
  -5 -12   7    0.70    0.16
  -4 -12   7    5.19    0.35
  -3 -12   7    2.83    0.27
  -2 -12   7    0.18    0.11
  -1 -12   7    4.95    0.35
   0 -12   7    3.14    0.25
   0 -12   7    3.40    0.29
   1 -12   7    7.68    0.40
   1 -12   7    7.28    0.44
   2 -12   7    0.07    0.08
   3 -12   7    0.84    0.15
   4 -12   7    6.36    0.38
   5 -12   7    0.37    0.12
   6 -12   7    0.27    0.12
   7 -12   7    4.06    0.32
   8 -12   7    1.00    0.19
   9 -12   7   -0.02    0.09
  10 -12   7    1.79    0.25
  11 -12   7    0.32    0.15
  12 -12   7    0.21    0.14
  13 -12   7    0.49    0.15
  13 -12   7    0.08    0.14
  14 -12   7    0.37    0.17
  15 -12   7    0.02    0.14
  14  11  -7    0.85    0.18
  13  11  -7    0.31    0.13
  12  11  -7    0.06    0.11
  12  11  -7    0.26    0.10
  11  11  -7    5.61    0.33
  10  11  -7    2.29    0.22
   9  11  -7    3.83    0.25
   8  11  -7    2.21    0.20
  -8 -11   7    2.43    0.27
   7  11  -7    1.87    0.20
  -7 -11   7    2.03    0.24
   6  11  -7    0.72    0.13
  -6 -11   7    0.53    0.15
  -5 -11   7    3.26    0.27
  -4 -11   7    0.37    0.12
  -3 -11   7    0.08    0.10
  -2 -11   7    0.60    0.14
  -1 -11   7   15.27    0.68
   0 -11   7   17.18    0.74
   0 -11   7   17.02    0.71
   1 -11   7    4.70    0.31
   2 -11   7    0.81    0.15
  -3  11  -7   14.00    0.61
   3 -11   7   12.89    0.60
  -4  11  -7    2.63    0.25
   4 -11   7    2.85    0.24
   5 -11   7    8.64    0.46
   6 -11   7    0.15    0.10
   7 -11   7    0.71    0.16
   8 -11   7    0.61    0.15
   9 -11   7    5.80    0.40
  10 -11   7    3.33    0.31
  11 -11   7    0.44    0.16
  11 -11   7    0.37    0.13
  12 -11   7    1.16    0.20
  12 -11   7    1.43    0.26
  13 -11   7    0.08    0.11
  13 -11   7    0.06    0.13
  14 -11   7    0.21    0.13
  14 -11   7    0.02    0.14
  15 -11   7    1.32    0.27
  15 -11   7    1.69    0.26
  16 -11   7   -0.22    0.13
  15  10  -7    0.08    0.12
  15  10  -7    0.06    0.13
  14  10  -7    2.55    0.23
  14  10  -7    2.70    0.26
  13  10  -7    1.35    0.19
  13  10  -7    1.16    0.16
  12  10  -7    2.68    0.24
  11  10  -7    0.53    0.13
  10  10  -7    3.83    0.26
   9  10  -7   -0.12    0.08
  -9 -10   7    0.11    0.10
   8  10  -7    0.28    0.11
  -8 -10   7    0.35    0.12
   7  10  -7    1.72    0.18
  -7 -10   7    1.99    0.24
   6  10  -7   10.10    0.45
  -6 -10   7   11.03    0.52
  -5 -10   7    0.68    0.13
  -4 -10   7    0.17    0.11
  -3 -10   7    0.47    0.13
  -2 -10   7    0.07    0.09
  -1 -10   7    6.68    0.39
   0 -10   7    3.30    0.25
   0 -10   7    3.73    0.28
   1 -10   7    1.45    0.18
   2 -10   7    1.90    0.19
  -3  10  -7    3.09    0.24
   3 -10   7    3.17    0.25
  -4  10  -7   20.60    0.80
   4 -10   7   20.15    0.83
  -5  10  -7    9.71    0.47
   5 -10   7    9.32    0.48
   6 -10   7   18.55    0.79
   7 -10   7    0.41    0.13
   8 -10   7    1.43    0.21
   9 -10   7    0.27    0.12
   9 -10   7    0.36    0.14
  10 -10   7    0.20    0.10
  10 -10   7    0.04    0.09
  11 -10   7    1.33    0.20
  11 -10   7    0.90    0.19
  12 -10   7    0.89    0.17
  12 -10   7    0.83    0.19
  13 -10   7    0.56    0.20
  13 -10   7    0.53    0.16
  14 -10   7    6.54    0.49
  14 -10   7    6.76    0.44
  15 -10   7    0.52    0.17
  15 -10   7    0.26    0.16
  16 -10   7    0.75    0.21
  16 -10   7    0.47    0.17
  16   9  -7    0.04    0.12
  15   9  -7    0.40    0.13
  15   9  -7    0.43    0.13
  14   9  -7    1.08    0.16
  14   9  -7    1.02    0.16
  13   9  -7    2.63    0.24
  13   9  -7    2.07    0.21
  12   9  -7    1.45    0.18
  11   9  -7    2.69    0.22
  10   9  -7    0.20    0.10
 -10  -9   7    0.26    0.11
   9   9  -7    0.72    0.12
  -9  -9   7    0.72    0.14
   8   9  -7    5.45    0.29
  -8  -9   7    5.49    0.34
   7   9  -7    3.96    0.24
  -7  -9   7    3.77    0.28
  -6  -9   7   12.43    0.57
  -5  -9   7   17.66    0.73
  -4  -9   7   19.29    0.77
  -3  -9   7    0.21    0.09
  -2  -9   7    0.87    0.15
  -1  -9   7   11.24    0.52
  -1  -9   7   11.22    0.51
  -1  -9   7   11.18    0.51
   0  -9   7    3.61    0.25
   0  -9   7    3.56    0.25
   0  -9   7    3.58    0.26
   1  -9   7    2.08    0.19
   1  -9   7    2.10    0.19
   2  -9   7    9.50    0.45
   2  -9   7    9.95    0.47
  -3   9  -7   23.91    0.86
   3  -9   7   22.80    0.86
   3  -9   7   21.90    0.89
  -4   9  -7   31.59    1.08
   4  -9   7   28.37    1.12
   4  -9   7   28.91    1.06
  -5   9  -7   10.12    0.46
   5  -9   7    9.28    0.47
  -6   9  -7    1.30    0.17
   6  -9   7    0.90    0.16
   7  -9   7   30.06    1.19
   7  -9   7   31.85    1.11
   8  -9   7    0.06    0.11
   8  -9   7    0.24    0.10
   9  -9   7    0.05    0.08
   9  -9   7    0.00    0.08
  10  -9   7    0.77    0.15
  10  -9   7    0.94    0.18
  11  -9   7    1.46    0.23
  11  -9   7    1.58    0.21
  12  -9   7    0.13    0.11
  12  -9   7    0.07    0.10
  13  -9   7    0.88    0.18
  13  -9   7    0.98    0.22
  14  -9   7    0.45    0.17
  14  -9   7    0.27    0.14
  15  -9   7    0.14    0.15
  15  -9   7    0.14    0.13
  16  -9   7   -0.19    0.11
  16  -9   7   -0.17    0.13
  17  -9   7    0.04    0.14
  17   8  -7    0.04    0.13
  16   8  -7    0.26    0.13
  16   8  -7    0.30    0.13
  15   8  -7    0.07    0.10
  15   8  -7   -0.04    0.09
  14   8  -7    1.95    0.20
  14   8  -7    1.92    0.21
  13   8  -7    0.17    0.11
  13   8  -7    0.15    0.10
  12   8  -7    0.13    0.10
  11   8  -7    0.20    0.10
 -11  -8   7    0.27    0.11
  10   8  -7    0.29    0.10
 -10  -8   7    0.24    0.11
   9   8  -7    3.32    0.22
  -9  -8   7    2.98    0.25
   8   8  -7    4.89    0.28
  -8  -8   7    5.01    0.31
   7   8  -7   47.96    1.52
  -7  -8   7   46.14    1.62
  -6  -8   7    1.34    0.18
  -5  -8   7   13.50    0.58
  -4  -8   7    1.90    0.19
  -3  -8   7    2.77    0.22
  -2  -8   7   33.86    1.20
  -2  -8   7   33.41    1.19
  -1  -8   7   19.73    0.76
  -1  -8   7   19.84    0.77
  -1  -8   7   20.30    0.79
   0  -8   7   23.83    0.88
   0  -8   7   23.64    0.87
   0  -8   7   22.72    0.90
   1  -8   7   97.17    3.23
   1  -8   7   96.36    3.11
   2  -8   7    1.63    0.17
   2  -8   7    1.34    0.15
  -3   8  -7   42.81    1.45
   3  -8   7   41.92    1.52
   3  -8   7   43.29    1.45
  -4   8  -7    1.87    0.17
   4  -8   7    1.51    0.19
   4  -8   7    1.75    0.16
  -5   8  -7    0.86    0.13
   5  -8   7    1.22    0.17
   5  -8   7    1.00    0.13
  -6   8  -7    0.99    0.14
   6  -8   7    0.84    0.13
   6  -8   7    0.80    0.13
   6  -8   7    0.80    0.14
   7  -8   7    3.95    0.30
   7  -8   7    3.80    0.27
   8  -8   7    0.38    0.12
   8  -8   7    0.47    0.13
   9  -8   7    0.32    0.12
   9  -8   7    0.39    0.12
  10  -8   7   10.40    0.51
  10  -8   7   10.42    0.55
  11  -8   7    0.61    0.16
  11  -8   7    0.75    0.15
  12  -8   7    0.14    0.11
  12  -8   7    0.26    0.14
  13  -8   7    0.29    0.15
  13  -8   7    0.18    0.11
  14  -8   7    1.11    0.20
  14  -8   7    1.22    0.24
  15  -8   7    0.87    0.20
  15  -8   7    1.29    0.26
  16  -8   7    0.17    0.17
  16  -8   7    0.11    0.13
  17  -8   7    0.87    0.21
  18  -8   7    2.22    0.31
  17   7  -7    0.37    0.16
  17   7  -7    0.30    0.14
  16   7  -7    0.27    0.12
  16   7  -7   -0.10    0.09
  15   7  -7    0.50    0.13
  15   7  -7    0.56    0.14
  14   7  -7    0.23    0.10
  14   7  -7    0.19    0.10
  13   7  -7    3.51    0.25
  12   7  -7    3.02    0.23
  11   7  -7    2.14    0.19
 -11  -7   7    2.24    0.22
  10   7  -7    5.07    0.28
 -10  -7   7    5.42    0.33
   9   7  -7   14.16    0.55
  -9  -7   7   14.97    0.62
   8   7  -7   29.30    0.97
  -8  -7   7   27.79    1.04
   7   7  -7    1.09    0.13
  -7  -7   7    1.03    0.15
  -6  -7   7    1.34    0.17
  -5  -7   7   25.45    0.94
  -4  -7   7   35.59    1.24
  -3  -7   7    0.61    0.11
  -2  -7   7    2.30    0.19
  -1  -7   7   23.67    0.87
  -1  -7   7   24.30    0.88
  -1  -7   7   24.34    0.92
   0  -7   7    4.88    0.29
   0  -7   7    4.80    0.28
   0  -7   7    5.04    0.27
   1  -7   7   48.18    1.60
   1  -7   7   47.80    1.68
   2  -7   7    4.54    0.25
   2  -7   7    4.39    0.28
  -3   7  -7   25.67    0.89
   3  -7   7   25.42    0.90
   3  -7   7   24.48    0.96
  -4   7  -7    7.75    0.36
   4  -7   7    8.51    0.36
   4  -7   7    7.50    0.40
  -5   7  -7    9.55    0.42
   5  -7   7   10.93    0.44
   5  -7   7    9.26    0.47
   5  -7   7   10.22    0.45
  -6   7  -7    4.45    0.25
   6  -7   7    4.40    0.29
   6  -7   7    3.70    0.23
   6  -7   7    4.16    0.27
  -7   7  -7    1.17    0.15
   7  -7   7    1.31    0.19
   7  -7   7    1.14    0.13
   7  -7   7    1.07    0.15
   8  -7   7    0.62    0.13
   8  -7   7    0.51    0.14
   9  -7   7    2.19    0.25
   9  -7   7    2.50    0.23
  10  -7   7    0.13    0.10
  10  -7   7    0.05    0.10
  11  -7   7    0.03    0.08
  11  -7   7    0.07    0.09
  12  -7   7    5.22    0.40
  12  -7   7    5.92    0.37
  13  -7   7    0.42    0.16
  13  -7   7    0.72    0.16
  14  -7   7    0.46    0.17
  14  -7   7    0.57    0.16
  15  -7   7    0.78    0.18
  15  -7   7    0.77    0.22
  16  -7   7    0.46    0.18
  16  -7   7    0.32    0.15
  17  -7   7    3.78    0.36
  17  -7   7    4.11    0.43
  18  -7   7    1.85    0.28
  17   6  -7    0.06    0.13
  17   6  -7    0.19    0.13
  16   6  -7    0.90    0.17
  16   6  -7    0.88    0.16
  15   6  -7   -0.03    0.09
  15   6  -7   -0.06    0.09
  14   6  -7    2.37    0.21
  14   6  -7    2.44    0.22
  13   6  -7    0.53    0.11
  12   6  -7    8.18    0.37
 -12  -6   7    7.94    0.42
  11   6  -7    0.11    0.08
 -11  -6   7    0.30    0.11
  10   6  -7    9.29    0.41
 -10  -6   7   10.74    0.47
   9   6  -7    0.84    0.11
  -9  -6   7    0.65    0.14
   8   6  -7    0.67    0.10
  -8  -6   7    0.81    0.13
   7   6  -7    0.20    0.08
  -7  -6   7    0.25    0.09
  -6  -6   7    0.33    0.09
  -5  -6   7    0.03    0.06
  -4  -6   7   10.41    0.45
  -3  -6   7   20.70    0.76
  -2  -6   7    0.44    0.09
  -1  -6   7    0.09    0.07
  -1  -6   7    0.27    0.08
  -1  -6   7    0.16    0.07
   0  -6   7    1.15    0.15
   0  -6   7    1.57    0.14
   0  -6   7    1.56    0.14
   1  -6   7    3.04    0.18
   1  -6   7    2.21    0.19
   2  -6   7    5.34    0.31
   2  -6   7    5.45    0.27
  -3   6  -7    4.92    0.24
   3  -6   7    5.08    0.25
   3  -6   7    4.86    0.29
  -4   6  -7    6.46    0.29
   4  -6   7    6.40    0.30
   4  -6   7    6.44    0.32
   4  -6   7    5.89    0.34
  -5   6  -7   19.59    0.72
   5  -6   7   19.82    0.80
   5  -6   7   20.78    0.75
   5  -6   7   20.09    0.72
  -6   6  -7   49.66    1.67
   6  -6   7   52.29    1.66
   6  -6   7   51.45    1.66
   6  -6   7   49.02    1.78
  -7   6  -7   19.43    0.73
   7  -6   7   19.06    0.80
   7  -6   7   19.11    0.75
   7  -6   7   20.53    0.72
   8  -6   7    2.75    0.23
   8  -6   7    3.14    0.26
   9  -6   7    4.52    0.29
   9  -6   7    4.06    0.31
  10  -6   7    5.67    0.34
  10  -6   7    5.19    0.36
  11  -6   7    0.26    0.13
  11  -6   7    0.31    0.12
  12  -6   7    6.49    0.43
  12  -6   7    6.77    0.40
  13  -6   7    0.25    0.13
  13  -6   7    0.52    0.16
  14  -6   7    4.09    0.38
  14  -6   7    5.20    0.37
  15  -6   7    0.20    0.15
  15  -6   7    0.22    0.14
  16  -6   7    4.74    0.39
  16  -6   7    4.13    0.41
  17  -6   7    0.25    0.18
  17  -6   7    0.28    0.17
  18  -6   7    2.88    0.36
  17   5  -7    0.29    0.13
  17   5  -7   -0.02    0.11
  16   5  -7    1.41    0.19
  16   5  -7    0.93    0.15
  15   5  -7    0.24    0.11
  15   5  -7    0.20    0.11
  14   5  -7    0.20    0.09
  14   5  -7    0.26    0.12
  13   5  -7    7.60    0.35
 -13  -5   7    7.12    0.40
  12   5  -7    1.24    0.14
 -12  -5   7    1.29    0.17
  11   5  -7    0.38    0.09
 -11  -5   7    0.25    0.10
  10   5  -7    0.64    0.10
 -10  -5   7    0.69    0.12
   9   5  -7    0.30    0.08
  -9  -5   7    0.11    0.08
   8   5  -7    3.19    0.20
  -8  -5   7    3.22    0.22
   7   5  -7    0.50    0.09
  -7  -5   7    0.46    0.10
  -6  -5   7   28.76    1.01
  -5  -5   7    0.87    0.11
  -4  -5   7    5.51    0.28
  -3  -5   7    0.44    0.09
  -2  -5   7    0.29    0.07
  -1  -5   7    1.37    0.13
  -1  -5   7    1.14    0.15
   0  -5   7   17.19    0.62
   0  -5   7   16.87    0.68
   0  -5   7   17.32    0.63
   1  -5   7   40.64    1.34
   1  -5   7   41.13    1.44
   2  -5   7    8.13    0.39
   2  -5   7    7.70    0.33
   3  -5   7  118.82    3.68
   3  -5   7  123.81    3.77
   3  -5   7  118.47    3.96
  -4   5  -7    7.79    0.32
   4  -5   7    7.68    0.36
   4  -5   7    7.29    0.38
   4  -5   7    7.88    0.32
  -5   5  -7    5.54    0.26
   5  -5   7    6.00    0.33
   5  -5   7    5.88    0.27
   5  -5   7    5.92    0.30
  -6   5  -7    0.76    0.10
   6  -5   7    0.89    0.15
   6  -5   7    0.76    0.13
   6  -5   7    0.82    0.10
  -7   5  -7    3.19    0.20
   7  -5   7    3.45    0.25
   7  -5   7    3.49    0.20
   7  -5   7    3.48    0.24
   8  -5   7    9.55    0.49
   8  -5   7   10.62    0.47
   8  -5   7   10.30    0.42
   9  -5   7   -0.02    0.06
   9  -5   7    0.01    0.08
  10  -5   7    0.27    0.12
  10  -5   7    0.25    0.10
  11  -5   7    8.91    0.50
  11  -5   7    9.74    0.48
  12  -5   7    0.11    0.12
  12  -5   7   -0.01    0.09
  13  -5   7    4.46    0.37
  13  -5   7    4.00    0.33
  14  -5   7    0.72    0.18
  14  -5   7    0.32    0.16
  15  -5   7    3.29    0.32
  15  -5   7    2.86    0.35
  16  -5   7    1.04    0.22
  16  -5   7    1.20    0.24
  17  -5   7    6.21    0.47
  17  -5   7    6.99    0.53
  18  -5   7    2.57    0.38
  18   4  -7    0.90    0.17
  17   4  -7    1.49    0.20
  17   4  -7    1.14    0.17
  16   4  -7    0.25    0.13
  16   4  -7    0.14    0.10
  15   4  -7    0.60    0.13
  15   4  -7    0.62    0.13
  14   4  -7    0.14    0.09
  14   4  -7    0.27    0.11
  13   4  -7    2.12    0.18
 -13  -4   7    1.77    0.21
  12   4  -7    0.31    0.09
 -12  -4   7    0.18    0.09
  11   4  -7    0.09    0.07
 -11  -4   7    0.06    0.08
  10   4  -7    0.72    0.10
 -10  -4   7    0.66    0.12
   9   4  -7    7.04    0.30
  -9  -4   7    6.70    0.34
   8   4  -7    0.48    0.08
  -8  -4   7    0.46    0.10
   7   4  -7   27.78    0.93
  -7  -4   7   29.05    1.00
  -6  -4   7    5.95    0.29
  -5  -4   7    4.31    0.23
  -4  -4   7   10.33    0.42
  -3  -4   7    0.27    0.07
  -2  -4   7    5.11    0.25
  -1  -4   7    1.13    0.11
  -1  -4   7    1.00    0.13
   0  -4   7    7.71    0.37
   0  -4   7    7.44    0.31
   1  -4   7   54.83    1.77
   1  -4   7   55.96    1.90
   2  -4   7    4.73    0.26
   2  -4   7    5.33    0.23
   2  -4   7    5.19    0.29
   3  -4   7    0.50    0.10
   3  -4   7    0.48    0.07
   3  -4   7    0.67    0.12
  -4   4  -7   17.77    0.61
   4  -4   7   17.85    0.71
   4  -4   7   18.20    0.62
   4  -4   7   16.50    0.65
  -5   4  -7   13.85    0.50
   5  -4   7   13.27    0.58
   5  -4   7   13.70    0.55
   5  -4   7   14.29    0.50
  -6   4  -7    3.46    0.18
   6  -4   7    3.27    0.22
   6  -4   7    3.12    0.17
   6  -4   7    3.23    0.24
  -7   4  -7    4.76    0.24
   7  -4   7    4.79    0.31
   7  -4   7    4.89    0.29
   7  -4   7    5.09    0.24
  -8   4  -7    0.24    0.08
   8  -4   7    0.09    0.07
   8  -4   7    0.13    0.09
   8  -4   7    0.07    0.06
   9  -4   7    2.03    0.23
   9  -4   7    1.93    0.21
  10  -4   7   16.72    0.69
  10  -4   7   16.71    0.74
  11  -4   7    0.18    0.12
  11  -4   7    0.01    0.08
  12  -4   7    1.64    0.21
  12  -4   7    1.37    0.21
  13  -4   7    0.08    0.11
  13  -4   7    0.12    0.11
  14  -4   7    3.37    0.33
  14  -4   7    3.79    0.33
  15  -4   7    0.63    0.18
  15  -4   7    1.07    0.22
  16  -4   7    1.46    0.27
  16  -4   7    0.93    0.21
  17  -4   7    0.11    0.16
  17  -4   7   -0.11    0.12
  18   3  -7    1.54    0.20
  17   3  -7    1.21    0.19
  17   3  -7    1.46    0.18
  16   3  -7    1.61    0.21
  16   3  -7    1.54    0.18
  15   3  -7    6.63    0.33
  15   3  -7    7.12    0.38
  14   3  -7    1.53    0.18
  14   3  -7    1.81    0.17
 -14  -3   7    1.56    0.20
  13   3  -7    2.36    0.18
 -13  -3   7    2.41    0.22
  12   3  -7    1.55    0.15
 -12  -3   7    1.66    0.19
  11   3  -7    3.71    0.21
 -11  -3   7    4.06    0.26
  10   3  -7   15.82    0.57
 -10  -3   7   16.27    0.64
   9   3  -7    5.81    0.27
  -9  -3   7    6.28    0.31
   8   3  -7   31.31    1.00
  -8  -3   7   30.42    1.07
   7   3  -7    0.89    0.10
  -7  -3   7    0.86    0.11
  -6  -3   7   12.10    0.47
  -5  -3   7   18.80    0.67
  -4  -3   7    0.96    0.10
  -3  -3   7    1.76    0.12
  -2  -3   7    3.76    0.19
  -1  -3   7   32.91    1.16
  -1  -3   7   31.67    1.06
   0  -3   7   13.42    0.56
   0  -3   7   13.83    0.49
   1  -3   7    6.65    0.34
   1  -3   7    6.80    0.26
   2  -3   7    2.24    0.16
   2  -3   7    2.28    0.12
   2  -3   7    1.91    0.17
   3  -3   7    0.37    0.09
   3  -3   7    0.70    0.10
   3  -3   7    0.50    0.06
   4  -3   7   13.50    0.57
   4  -3   7   13.52    0.53
   4  -3   7   13.80    0.48
   5  -3   7    9.08    0.33
   5  -3   7    7.80    0.37
   5  -3   7    8.24    0.41
   6  -3   7   20.31    0.75
   6  -3   7   19.47    0.80
   6  -3   7   21.40    0.70
   7  -3   7    1.54    0.12
   7  -3   7    1.86    0.17
   8  -3   7    8.28    0.33
   8  -3   7    7.22    0.40
   8  -3   7    7.11    0.37
   9  -3   7    0.46    0.11
   9  -3   7    0.54    0.13
  10  -3   7    0.32    0.12
  10  -3   7    0.15    0.10
  11  -3   7    0.59    0.15
  11  -3   7    0.51    0.14
  12  -3   7    1.12    0.19
  12  -3   7    0.95    0.19
  13  -3   7    0.19    0.12
  13  -3   7    0.15    0.11
  14  -3   7    0.96    0.19
  14  -3   7    1.37    0.24
  15  -3   7    0.83    0.20
  15  -3   7    0.97    0.21
  16  -3   7    1.59    0.28
  16  -3   7    2.03    0.29
  17  -3   7    0.71    0.20
  17  -3   7    0.85    0.24
  18   2  -7    1.55    0.20
  17   2  -7    0.42    0.14
  17   2  -7    0.16    0.11
  16   2  -7    2.33    0.21
  16   2  -7    2.64    0.25
  15   2  -7    0.08    0.09
  15   2  -7    0.26    0.12
  14   2  -7    0.30    0.09
  14   2  -7    0.44    0.11
 -14  -2   7    0.49    0.14
  13   2  -7    0.67    0.10
  13   2  -7    0.63    0.11
 -13  -2   7    0.69    0.14
  12   2  -7    7.57    0.33
 -12  -2   7    8.06    0.40
  11   2  -7    1.47    0.14
 -11  -2   7    1.92    0.18
  10   2  -7    0.42    0.06
  10   2  -7    0.27    0.07
 -10  -2   7    0.42    0.10
   9   2  -7    0.18    0.06
   9   2  -7    0.21    0.05
  -9  -2   7    0.10    0.08
   8   2  -7    1.10    0.11
  -8  -2   7    0.95    0.12
   7   2  -7    5.03    0.23
  -7  -2   7    5.05    0.25
  -6  -2   7    3.20    0.18
  -5  -2   7    5.21    0.24
  -4  -2   7    1.52    0.11
   3   2  -7   52.70    1.85
  -3  -2   7   54.71    1.71
   2   2  -7    0.71    0.08
  -2  -2   7    0.83    0.08
  -1  -2   7    7.11    0.34
  -1  -2   7    6.62    0.26
   0  -2   7    0.98    0.13
   0  -2   7    1.13    0.08
   1  -2   7    9.95    0.43
   1  -2   7    9.12    0.39
   2  -2   7   54.18    1.69
   2  -2   7   54.19    1.71
   2  -2   7   53.69    1.85
   3  -2   7    8.58    0.30
   3  -2   7    7.95    0.39
   3  -2   7    8.18    0.39
   3  -2   7    8.57    0.37
   4  -2   7   22.68    0.74
   4  -2   7   22.72    0.86
   4  -2   7   22.88    0.89
   4  -2   7   22.62    0.80
   5  -2   7    1.86    0.17
   5  -2   7    1.71    0.16
   5  -2   7    1.62    0.10
   5  -2   7    1.64    0.17
   6  -2   7   23.01    0.90
   6  -2   7   24.16    0.78
   6  -2   7   22.89    0.94
   6  -2   7   23.24    0.84
   7  -2   7   16.41    0.70
   7  -2   7   15.73    0.65
   7  -2   7   17.53    0.59
   7  -2   7   17.70    0.74
   8  -2   7    2.78    0.24
   8  -2   7    2.50    0.16
   8  -2   7    2.98    0.24
   8  -2   7    2.76    0.22
   9  -2   7   15.67    0.72
   9  -2   7   16.01    0.58
   9  -2   7   15.48    0.64
   9  -2   7   15.36    0.68
  10  -2   7    2.33    0.24
  10  -2   7    2.30    0.21
  10  -2   7    2.29    0.23
  11  -2   7    1.23    0.21
  11  -2   7    1.37    0.21
  11  -2   7    0.86    0.15
  12  -2   7    3.20    0.28
  12  -2   7    3.45    0.30
  12  -2   7    3.53    0.32
  13  -2   7    0.53    0.17
  13  -2   7    0.33    0.13
  13  -2   7    0.47    0.15
  14  -2   7    4.98    0.39
  14  -2   7    4.73    0.39
  14  -2   7    5.13    0.37
  15  -2   7    0.49    0.18
  15  -2   7    0.62    0.17
  16  -2   7    4.72    0.38
  16  -2   7    4.16    0.37
  17  -2   7   -0.06    0.13
  17  -2   7   -0.08    0.12
  17   1  -7   -0.07    0.11
  17   1  -7   -0.16    0.09
  16   1  -7    0.06    0.09
  16   1  -7   -0.03    0.10
  15   1  -7    3.18    0.24
  15   1  -7    2.38    0.20
  14   1  -7    3.45    0.21
  14   1  -7    3.85    0.26
 -14  -1   7    3.53    0.28
  13   1  -7    0.79    0.10
  13   1  -7    0.95    0.14
 -13  -1   7    0.63    0.13
  12   1  -7    0.06    0.06
 -12  -1   7    0.12    0.09
  11   1  -7    0.29    0.07
 -11  -1   7    0.25    0.09
  10   1  -7    2.66    0.15
 -10  -1   7    2.29    0.19
   9   1  -7    6.26    0.26
  -9  -1   7    6.27    0.31
   8   1  -7    0.75    0.09
  -8  -1   7    0.69    0.10
   7   1  -7    4.90    0.21
  -7  -1   7    4.86    0.24
  -6  -1   7    3.88    0.20
  -5  -1   7    0.66    0.08
   4   1  -7    1.81    0.09
  -4  -1   7    1.75    0.11
   3   1  -7    7.13    0.28
  -3  -1   7    7.00    0.27
   2   1  -7    0.59    0.06
  -2  -1   7    0.46    0.06
  -1  -1   7    2.26    0.11
   0  -1   7    5.79    0.21
   0  -1   7    5.83    0.30
   1  -1   7    2.22    0.15
   1  -1   7    2.25    0.17
   1  -1   7    2.43    0.16
   2  -1   7    2.74    0.11
   2  -1   7    2.80    0.19
   2  -1   7    2.81    0.18
   2  -1   7    2.69    0.17
   3  -1   7   35.04    1.23
   3  -1   7   32.92    1.13
   3  -1   7   34.84    1.28
   3  -1   7   35.07    1.08
   4  -1   7   10.65    0.36
   4  -1   7   10.19    0.47
   4  -1   7   10.46    0.46
   4  -1   7   10.53    0.43
   5  -1   7    7.47    0.27
   5  -1   7    6.85    0.33
   5  -1   7    7.68    0.38
   5  -1   7    6.93    0.36
   6  -1   7    0.03    0.06
   6  -1   7    0.08    0.06
   6  -1   7    0.05    0.07
   6  -1   7    0.08    0.04
   7  -1   7    2.22    0.21
   7  -1   7    2.09    0.18
   7  -1   7    1.86    0.19
   7  -1   7    2.36    0.13
   8  -1   7    0.14    0.05
   8  -1   7    0.02    0.09
   8  -1   7    0.20    0.10
   8  -1   7    0.06    0.08
   9  -1   7    4.93    0.32
   9  -1   7    4.41    0.29
   9  -1   7    4.48    0.23
   9  -1   7    5.07    0.33
  10  -1   7    3.96    0.29
  10  -1   7    3.44    0.26
  10  -1   7    3.44    0.29
  11  -1   7    6.36    0.40
  11  -1   7    6.57    0.38
  11  -1   7    6.66    0.42
  12  -1   7    0.13    0.10
  12  -1   7    0.20    0.11
  12  -1   7    0.15    0.13
  13  -1   7    2.34    0.28
  13  -1   7    2.21    0.28
  13  -1   7    2.03    0.25
  14  -1   7    1.90    0.28
  14  -1   7    1.77    0.25
  14  -1   7    1.79    0.25
  15  -1   7    6.63    0.48
  15  -1   7    7.52    0.51
  15  -1   7    7.62    0.47
  16  -1   7    0.07    0.13
  16  -1   7    0.16    0.15
  16  -1   7    0.47    0.17
  17  -1   7   -0.04    0.12
  17  -1   7    0.03    0.14
  17   0  -7    0.17    0.12
  16   0  -7    0.78    0.13
  16   0  -7    0.77    0.15
  15   0  -7    2.99    0.24
  15   0  -7    2.74    0.20
 -15   0   7    3.37    0.29
  14   0  -7    0.98    0.13
  14   0  -7    1.09    0.16
 -14   0   7    1.14    0.18
  13   0  -7    4.82    0.24
  13   0  -7    4.73    0.28
 -13   0   7    5.48    0.33
  12   0  -7    1.06    0.11
 -12   0   7    1.32    0.17
  11   0  -7    0.06    0.05
 -11   0   7    0.12    0.08
  10   0  -7    2.81    0.16
 -10   0   7    2.95    0.21
   9   0  -7   20.87    0.68
  -9   0   7   20.88    0.76
   8   0  -7    0.46    0.07
  -8   0   7    0.64    0.10
   7   0  -7   11.93    0.43
  -7   0   7   13.01    0.48
  -6   0   7    0.29    0.06
  -5   0   7    3.91    0.19
  -4   0   7   13.96    0.49
  -3   0   7    0.74    0.07
  -2   0   7   26.66    0.85
  -1   0   7    0.69    0.05
  -1   0   7    0.59    0.08
   0   0   7    1.04    0.05
   0   0   7    1.26    0.11
   0   0   7    0.95    0.12
   0   0   7    1.08    0.10
   1   0   7   39.77    1.44
   1   0   7   40.21    1.40
   1   0   7   40.52    1.29
   2   0   7    3.17    0.18
   2   0   7    2.59    0.18
   2   0   7    2.97    0.20
   3   0   7    2.98    0.20
   3   0   7    2.63    0.19
   3   0   7    2.64    0.10
   3   0   7    2.71    0.18
   4   0   7    3.18    0.13
   4   0   7    3.16    0.20
   4   0   7    2.82    0.20
   4   0   7    3.30    0.22
   5   0   7    4.44    0.25
   5   0   7    4.78    0.28
   5   0   7    4.16    0.26
   5   0   7    4.74    0.19
   6   0   7    4.08    0.25
   6   0   7    4.36    0.18
   6   0   7    4.49    0.28
   6   0   7    3.62    0.25
   7   0   7    3.48    0.26
   7   0   7    3.98    0.18
   7   0   7    3.66    0.25
   7   0   7    3.50    0.24
   8   0   7    0.56    0.12
   8   0   7    0.21    0.09
   8   0   7    0.48    0.12
   8   0   7    0.39    0.07
   9   0   7    1.37    0.18
   9   0   7    1.10    0.16
   9   0   7    1.08    0.17
  10   0   7   12.72    0.56
  10   0   7   12.40    0.61
  10   0   7   11.56    0.57
  11   0   7    0.51    0.15
  11   0   7    0.50    0.14
  11   0   7    0.47    0.13
  12   0   7    8.95    0.47
  12   0   7    8.53    0.49
  12   0   7    8.95    0.52
  13   0   7    0.58    0.16
  13   0   7    0.49    0.15
  13   0   7    0.31    0.13
  14   0   7    4.42    0.38
  14   0   7    4.60    0.35
  14   0   7    3.97    0.35
  15   0   7    0.19    0.14
  15   0   7    0.07    0.12
  15   0   7   -0.06    0.11
  16   0   7    0.38    0.17
  16   0   7    0.05    0.13
  16   0   7    0.43    0.18
  17   0   7    0.13    0.16
  17   0   7    0.51    0.20
  17   0   7    0.44    0.17
  17  -1  -7    0.19    0.12
  16  -1  -7   -0.06    0.09
  15  -1  -7    0.25    0.09
  15  -1  -7    0.51    0.14
 -15   1   7    0.17    0.12
  14  -1  -7    0.15    0.09
  14  -1  -7   -0.15    0.06
 -14   1   7   -0.17    0.09
  13  -1  -7    2.46    0.17
  13  -1  -7    2.65    0.21
 -13   1   7    2.62    0.24
  12  -1  -7    0.77    0.10
  12  -1  -7    0.68    0.12
 -12   1   7    0.80    0.15
  11  -1  -7    1.10    0.10
 -11   1   7    1.20    0.16
  10  -1  -7    4.82    0.21
 -10   1   7    4.66    0.27
   9  -1  -7    8.49    0.31
  -9   1   7    8.57    0.38
   8  -1  -7   29.91    0.92
  -8   1   7   28.85    1.01
   7  -1  -7   -0.02    0.03
  -7   1   7   -0.02    0.04
  -6   1   7    3.35    0.18
  -5   1   7   20.11    0.69
  -4   1   7    0.99    0.09
  -3   1   7    6.73    0.26
  -2   1   7    2.70    0.12
  -2   1   7    2.67    0.14
  -1   1   7    0.32    0.06
  -1   1   7    0.40    0.04
   0   1   7    3.35    0.21
   0   1   7    3.74    0.20
   0   1   7    3.53    0.13
   0   1   7    3.30    0.19
   1   1   7   66.20    2.20
   1   1   7   65.49    2.30
   1   1   7   65.14    2.03
   2   1   7   17.02    0.58
   2   1   7   16.07    0.62
   2   1   7   14.29    0.63
   3   1   7   15.73    0.62
   3   1   7   15.67    0.51
   3   1   7   15.86    0.65
   3   1   7   15.81    0.58
   4   1   7    1.25    0.08
   4   1   7    1.32    0.14
   4   1   7    1.09    0.13
   4   1   7    1.37    0.14
   5   1   7    0.71    0.12
   5   1   7    0.53    0.11
   5   1   7    0.51    0.10
   5   1   7    0.49    0.06
   6   1   7    1.28    0.16
   6   1   7    1.19    0.15
   6   1   7    1.50    0.10
   6   1   7    1.57    0.19
   7   1   7    9.77    0.43
   7   1   7    8.91    0.36
   7   1   7    8.98    0.44
   7   1   7    9.19    0.47
   8   1   7   28.88    1.13
   8   1   7   27.49    1.00
   8   1   7   28.98    0.96
   8   1   7   26.69    1.06
   9   1   7    1.01    0.16
   9   1   7    0.65    0.14
   9   1   7    1.33    0.18
  10   1   7    0.70    0.15
  10   1   7    0.46    0.13
  10   1   7    0.55    0.13
  11   1   7    1.11    0.20
  11   1   7    1.65    0.22
  11   1   7    1.38    0.20
  12   1   7    2.15    0.27
  12   1   7    1.44    0.22
  12   1   7    1.43    0.20
  13   1   7    0.48    0.15
  13   1   7    0.29    0.13
  13   1   7    0.35    0.15
  14   1   7    2.64    0.33
  14   1   7    1.89    0.26
  14   1   7    3.16    0.30
  15   1   7    0.35    0.16
  15   1   7    0.21    0.13
  15   1   7    0.21    0.13
  16   1   7    0.22    0.17
  16   1   7    0.08    0.13
  16   1   7    0.52    0.18
  17   1   7    1.62    0.28
  17   1   7    0.95    0.23
  17  -2  -7    1.01    0.18
  16  -2  -7    2.01    0.22
  15  -2  -7    0.31    0.12
 -15   2   7    0.35    0.13
  14  -2  -7    2.21    0.19
 -14   2   7    2.22    0.25
  13  -2  -7   -0.09    0.05
  13  -2  -7    0.07    0.09
 -13   2   7    0.03    0.09
  12  -2  -7    0.20    0.09
  12  -2  -7    0.27    0.07
 -12   2   7    0.25    0.11
  11  -2  -7    0.20    0.05
 -11   2   7    0.19    0.09
  10  -2  -7    6.00    0.24
 -10   2   7    5.78    0.32
   9  -2  -7    0.32    0.06
  -9   2   7    0.31    0.09
   8  -2  -7    1.06    0.08
  -8   2   7    0.79    0.12
   7  -2  -7    0.20    0.04
  -7   2   7    0.07    0.06
   6  -2  -7    2.64    0.12
  -6   2   7    2.80    0.17
  -5   2   7    8.54    0.34
  -4   2   7   16.84    0.59
  -4   2   7   16.85    0.60
  -3   2   7    0.39    0.06
  -3   2   7    0.38    0.06
  -2   2   7   54.23    1.69
  -2   2   7   53.41    1.87
  -1   2   7    6.41    0.22
  -1   2   7    5.31    0.27
   0   2   7   81.89    2.46
   0   2   7   81.79    2.79
   0   2   7   77.74    2.49
   1   2   7   14.57    0.62
   1   2   7   16.56    0.57
   1   2   7   16.00    0.52
   1   2   7   16.15    0.62
   2   2   7   47.69    1.65
   2   2   7   47.40    1.53
   2   2   7   48.94    1.52
   2   2   7   49.37    1.74
   3   2   7   14.44    0.64
   3   2   7   16.01    0.53
   3   2   7   16.09    0.62
   3   2   7   16.19    0.58
   4   2   7   16.04    0.64
   4   2   7   16.81    0.55
   4   2   7   15.68    0.60
   4   2   7   16.03    0.68
   5   2   7    1.11    0.14
   5   2   7    0.91    0.14
   5   2   7    1.16    0.09
   5   2   7    1.23    0.15
   6   2   7    1.02    0.14
   6   2   7    0.96    0.09
   6   2   7    0.73    0.13
   6   2   7    0.84    0.13
   7   2   7    0.63    0.14
   7   2   7    0.60    0.12
   7   2   7    0.54    0.11
   7   2   7    0.53    0.08
   8   2   7    8.91    0.44
   8   2   7    9.06    0.48
   8   2   7    8.95    0.43
   8   2   7    8.65    0.37
   9   2   7    4.24    0.29
   9   2   7    4.18    0.28
   9   2   7    4.28    0.31
  10   2   7    3.69    0.28
  10   2   7    4.03    0.29
  10   2   7    3.87    0.30
  11   2   7    5.93    0.38
  11   2   7    6.19    0.41
  11   2   7    6.16    0.38
  12   2   7    0.71    0.17
  12   2   7    0.59    0.15
  12   2   7    0.69    0.18
  13   2   7    3.32    0.30
  13   2   7    3.55    0.32
  13   2   7    3.03    0.30
  14   2   7    0.26    0.13
  14   2   7    0.10    0.13
  14   2   7   -0.04    0.13
  15   2   7    2.35    0.29
  15   2   7    2.52    0.33
  15   2   7    1.87    0.28
  16   2   7    8.49    0.53
  16   2   7    8.89    0.58
  16   2   7    8.14    0.54
  17   2   7   -0.01    0.14
  17  -3  -7    0.07    0.11
  16  -3  -7    1.03    0.17
  15  -3  -7    0.62    0.14
 -15   3   7    0.85    0.19
  14  -3  -7    0.10    0.10
 -14   3   7   -0.13    0.10
  13  -3  -7    0.34    0.10
 -13   3   7    0.47    0.14
  12  -3  -7    0.40    0.10
 -12   3   7    0.37    0.13
  11  -3  -7    3.17    0.16
  11  -3  -7    3.13    0.20
 -11   3   7    3.25    0.25
  10  -3  -7    0.86    0.08
 -10   3   7    0.94    0.14
   9  -3  -7    0.55    0.06
  -9   3   7    0.44    0.11
   8  -3  -7    0.52    0.05
  -8   3   7    0.47    0.10
   7  -3  -7    0.29    0.04
  -7   3   7    0.32    0.08
   6  -3  -7    2.96    0.12
   6  -3  -7    2.87    0.15
  -6   3   7    2.89    0.18
   5  -3  -7    0.74    0.07
  -5   3   7    0.63    0.09
   4  -3  -7    4.66    0.20
  -4   3   7    4.73    0.23
  -4   3   7    5.39    0.21
   3  -3  -7    7.16    0.25
  -3   3   7    6.30    0.28
  -3   3   7    6.55    0.27
   2  -3  -7    3.54    0.15
  -2   3   7    3.24    0.16
  -2   3   7    3.41    0.18
  -1   3   7    0.63    0.07
  -1   3   7    0.37    0.07
  -1   3   7    0.61    0.08
   0   3   7    6.23    0.27
   0   3   7    5.65    0.24
   0   3   7    6.48    0.30
   1   3   7    1.81    0.11
   1   3   7    1.78    0.13
   1   3   7    1.98    0.15
   2   3   7    0.19    0.07
   2   3   7    0.14    0.06
   2   3   7    0.22    0.07
   3   3   7   15.14    0.53
   3   3   7   15.18    0.56
   3   3   7   15.15    0.59
   3   3   7   15.15    0.64
   4   3   7    1.98    0.16
   4   3   7    1.76    0.18
   4   3   7    1.98    0.17
   4   3   7    2.03    0.13
   5   3   7    2.95    0.16
   5   3   7    2.81    0.22
   5   3   7    2.95    0.20
   5   3   7    2.86    0.20
   6   3   7    0.40    0.12
   6   3   7    0.74    0.12
   6   3   7    0.52    0.08
   6   3   7    0.58    0.11
   7   3   7    4.55    0.28
   7   3   7    4.52    0.24
   7   3   7    4.83    0.28
   7   3   7    4.72    0.32
   8   3   7    4.53    0.29
   8   3   7    4.55    0.29
   8   3   7    4.26    0.31
   9   3   7    0.83    0.15
   9   3   7    0.90    0.15
   9   3   7    0.51    0.14
  10   3   7   12.36    0.63
  10   3   7   11.74    0.57
  10   3   7   13.51    0.58
  11   3   7    8.32    0.46
  11   3   7    7.81    0.44
  11   3   7    8.93    0.51
  12   3   7    0.40    0.13
  12   3   7    0.59    0.14
  12   3   7    0.50    0.16
  13   3   7    0.49    0.15
  13   3   7    0.48    0.15
  13   3   7    0.41    0.15
  14   3   7    4.46    0.37
  14   3   7    4.90    0.41
  14   3   7    4.83    0.38
  15   3   7    4.76    0.42
  15   3   7    5.39    0.45
  15   3   7    5.19    0.40
  16   3   7    0.73    0.23
  16   3   7    0.58    0.22
  17  -4  -7    0.14    0.12
  16  -4  -7    0.08    0.12
  15  -4  -7    0.39    0.13
 -15   4   7    0.31    0.14
  14  -4  -7    0.97    0.14
 -14   4   7    1.04    0.20
  13  -4  -7    3.17    0.23
 -13   4   7    2.93    0.27
  12  -4  -7    0.90    0.13
 -12   4   7    1.01    0.18
  11  -4  -7    1.08    0.13
 -11   4   7    1.12    0.17
  10  -4  -7    1.75    0.16
 -10   4   7    1.70    0.20
  -9   4   7    8.43    0.41
   8  -4  -7    0.32    0.04
  -8   4   7    0.40    0.10
   7  -4  -7   16.69    0.50
  -7   4   7   15.47    0.62
   6  -4  -7    0.53    0.04
  -6   4   7    0.58    0.10
   5  -4  -7    0.67    0.05
   5  -4  -7    0.68    0.04
  -5   4   7    0.64    0.06
  -5   4   7    0.59    0.10
   4  -4  -7   21.35    0.63
  -4   4   7   19.64    0.72
   3  -4  -7    5.35    0.18
  -3   4   7    4.93    0.24
   2  -4  -7    8.30    0.27
  -2   4   7    7.69    0.33
  -1   4   7    1.72    0.12
  -1   4   7    1.60    0.12
   0   4   7    5.03    0.23
   0   4   7    5.34    0.23
   1   4   7    0.04    0.05
   1   4   7    0.07    0.04
   2   4   7    0.16    0.06
   2   4   7    0.13    0.06
   3   4   7    2.24    0.16
   3   4   7    2.11    0.16
   4   4   7    2.77    0.19
   4   4   7    2.91    0.19
   4   4   7    3.01    0.18
   4   4   7    2.85    0.23
   5   4   7    0.13    0.07
   5   4   7    0.18    0.06
   5   4   7    0.17    0.09
   5   4   7    0.01    0.06
   6   4   7    5.09    0.29
   6   4   7    5.03    0.33
   6   4   7    5.71    0.27
   6   4   7    5.45    0.29
   7   4   7    0.07    0.06
   7   4   7    0.14    0.08
   7   4   7    0.08    0.08
   7   4   7    0.04    0.09
   8   4   7    1.48    0.18
   8   4   7    1.38    0.17
   8   4   7    1.40    0.19
   9   4   7    0.77    0.15
   9   4   7    0.91    0.15
   9   4   7    0.87    0.18
  10   4   7    4.37    0.30
  10   4   7    3.63    0.31
  10   4   7    3.55    0.28
  11   4   7    1.41    0.20
  11   4   7    1.19    0.22
  11   4   7    1.30    0.20
  12   4   7   14.08    0.65
  12   4   7   14.21    0.73
  12   4   7   13.88    0.66
  13   4   7    0.45    0.17
  13   4   7    0.82    0.19
  14   4   7   -0.02    0.13
  14   4   7   -0.07    0.10
  15   4   7    2.70    0.35
  15   4   7    2.57    0.32
  17  -5  -7    0.89    0.19
  16  -5  -7    0.39    0.14
  15  -5  -7    2.44    0.24
 -15   5   7    2.43    0.30
  14  -5  -7    1.86    0.20
 -14   5   7    1.96    0.27
  13  -5  -7    2.02    0.19
 -13   5   7    1.89    0.25
  12  -5  -7    0.42    0.10
 -12   5   7    0.37    0.13
  11  -5  -7    2.41    0.19
 -11   5   7    2.57    0.24
  10  -5  -7    3.58    0.21
 -10   5   7    3.53    0.28
   9  -5  -7    2.01    0.15
  -9   5   7    1.93    0.20
  -8   5   7    3.84    0.26
  -7   5   7   10.92    0.48
  -6   5   7    8.43    0.39
  -5   5   7    6.10    0.31
  -4   5   7   11.17    0.46
   3  -5  -7    8.46    0.26
  -3   5   7    7.98    0.36
   2  -5  -7    4.25    0.15
  -2   5   7    4.07    0.22
  -1   5   7   17.76    0.65
  -1   5   7   18.38    0.61
   0   5   7    0.53    0.09
   0   5   7    0.49    0.08
   1   5   7    7.18    0.31
   1   5   7    7.09    0.30
   2   5   7   13.08    0.49
   3   5   7   13.95    0.53
   3   5   7   14.25    0.55
   4   5   7    0.20    0.07
   4   5   7    0.22    0.07
   5   5   7    1.95    0.16
   5   5   7    1.85    0.16
   5   5   7    2.08    0.18
   6   5   7    1.01    0.17
   6   5   7    1.30    0.15
   6   5   7    1.19    0.14
   6   5   7    0.94    0.13
   7   5   7    0.78    0.12
   7   5   7    0.47    0.14
   7   5   7    0.74    0.13
   8   5   7    0.05    0.10
   8   5   7    0.23    0.09
   8   5   7    0.28    0.10
   9   5   7    0.05    0.09
   9   5   7    0.13    0.10
   9   5   7    0.05    0.08
  10   5   7    0.14    0.13
  10   5   7    0.05    0.09
  11   5   7    4.83    0.34
  11   5   7    4.76    0.39
  12   5   7    0.60    0.19
  12   5   7    0.45    0.15
  13   5   7    1.43    0.26
  13   5   7    0.63    0.18
  14   5   7    0.96    0.22
  14   5   7    0.67    0.17
  15   5   7    0.85    0.23
  15   5   7    0.30    0.16
  16  -6  -7    0.55    0.16
  15  -6  -7    1.36    0.19
 -15   6   7    1.68    0.27
  14  -6  -7    3.35    0.25
 -14   6   7    3.43    0.33
  13  -6  -7    0.17    0.10
 -13   6   7    0.21    0.13
  12  -6  -7    3.07    0.22
 -12   6   7    3.91    0.32
  11  -6  -7    0.44    0.10
 -11   6   7    0.22    0.13
  10  -6  -7    1.42    0.15
 -10   6   7    1.52    0.21
   9  -6  -7    1.40    0.13
  -9   6   7    1.42    0.19
   8  -6  -7    0.12    0.06
  -8   6   7    0.02    0.08
  -7   6   7    0.60    0.13
  -6   6   7    0.17    0.09
  -5   6   7    2.45    0.20
  -4   6   7   10.87    0.47
  -3   6   7    2.11    0.18
  -2   6   7    7.20    0.34
  -1   6   7    4.68    0.26
  -1   6   7    4.89    0.21
   0   6   7   26.32    0.94
   0   6   7   27.71    0.88
   1   6   7    4.67    0.22
   1   6   7    4.25    0.24
   2   6   7   24.89    0.84
   3   6   7    4.85    0.26
   4   6   7   37.32    1.21
   4   6   7   35.71    1.24
   5   6   7   12.76    0.52
   5   6   7   13.19    0.53
   6   6   7    0.16    0.08
   7   6   7    3.82    0.31
   7   6   7    3.53    0.25
   8   6   7    2.53    0.27
   8   6   7    2.63    0.23
   9   6   7    2.43    0.27
   9   6   7    2.41    0.24
  10   6   7    0.05    0.10
  10   6   7    0.11    0.11
  11   6   7    1.98    0.25
  11   6   7    1.94    0.27
  12   6   7    1.91    0.28
  12   6   7    1.78    0.24
  13   6   7    0.88    0.19
  13   6   7    1.11    0.23
  14   6   7   -0.02    0.12
  14   6   7    0.03    0.15
  16  -7  -7    0.28    0.14
  15  -7  -7    2.42    0.24
 -15   7   7    1.85    0.28
  14  -7  -7    0.19    0.12
 -14   7   7    0.12    0.15
  13  -7  -7    2.41    0.21
 -13   7   7    2.30    0.30
  12  -7  -7    0.67    0.13
 -12   7   7    0.63    0.17
  11  -7  -7    4.18    0.25
 -11   7   7    4.38    0.34
  10  -7  -7    4.27    0.24
 -10   7   7    3.90    0.32
   9  -7  -7    3.47    0.21
  -9   7   7    3.36    0.28
   8  -7  -7    1.06    0.12
  -8   7   7    1.19    0.18
   7  -7  -7    1.47    0.12
  -7   7   7    1.42    0.19
   6  -7  -7    0.14    0.06
  -6   7   7    0.13    0.09
  -5   7   7    6.42    0.35
  -4   7   7    0.17    0.09
  -3   7   7   10.33    0.47
  -2   7   7    3.90    0.25
  -1   7   7    1.59    0.17
  -1   7   7    1.83    0.12
   0   7   7    1.61    0.17
   0   7   7    1.63    0.13
   1   7   7    1.57    0.13
   1   7   7    1.72    0.16
   2   7   7    3.11    0.19
   3   7   7    7.11    0.33
   4   7   7    6.68    0.33
   5   7   7    4.12    0.26
   6   7   7    8.67    0.41
   7   7   7   -0.04    0.08
   8   7   7    3.01    0.25
   8   7   7    3.45    0.31
   9   7   7    0.09    0.10
   9   7   7    0.23    0.13
  10   7   7   18.57    0.87
  10   7   7   16.90    0.75
  11   7   7    9.62    0.52
  11   7   7    9.85    0.59
  12   7   7    0.83    0.21
  12   7   7    0.96    0.20
  13   7   7    1.87    0.30
  13   7   7    1.38    0.23
  14   7   7    0.51    0.19
  16  -8  -7   -0.18    0.11
  15  -8  -7    0.25    0.13
 -15   8   7    0.39    0.18
  14  -8  -7    0.70    0.15
 -14   8   7    0.85    0.21
  13  -8  -7    0.69    0.14
 -13   8   7    0.65    0.18
  12  -8  -7    1.21    0.16
 -12   8   7    1.13    0.21
  11  -8  -7    0.80    0.13
 -11   8   7    0.64    0.18
  10  -8  -7    6.65    0.32
 -10   8   7    6.21    0.42
   9  -8  -7    0.60    0.10
  -9   8   7    0.34    0.15
   8  -8  -7   12.60    0.48
  -8   8   7   11.79    0.59
   7  -8  -7   11.72    0.45
  -7   8   7   11.05    0.55
   6  -8  -7    7.60    0.31
  -6   8   7    7.71    0.42
   5  -8  -7    3.00    0.16
  -5   8   7    2.88    0.24
   4  -8  -7    5.09    0.21
  -4   8   7    4.49    0.31
  -3   8   7    8.80    0.43
  -2   8   7    0.33    0.10
  -1   8   7    0.25    0.10
   0   8   7    0.27    0.10
   1   8   7    0.26    0.09
   1   8   7    0.13    0.06
   2   8   7    0.27    0.07
   3   8   7    5.40    0.28
   4   8   7   13.61    0.54
   5   8   7   10.48    0.46
   6   8   7    0.13    0.08
   7   8   7    5.00    0.31
   8   8   7    0.01    0.09
   9   8   7    4.29    0.33
   9   8   7    4.73    0.39
  10   8   7    2.45    0.28
  10   8   7    2.82    0.35
  11   8   7    5.43    0.40
  11   8   7    7.01    0.50
  12   8   7   10.98    0.66
  12   8   7    9.33    0.55
  13   8   7    1.23    0.22
  15  -9  -7   -0.17    0.12
 -15   9   7    0.12    0.19
  14  -9  -7    0.58    0.15
 -14   9   7    0.76    0.22
  13  -9  -7    0.50    0.13
 -13   9   7    0.65    0.21
  12  -9  -7    1.96    0.20
 -12   9   7    2.55    0.32
  11  -9  -7    3.72    0.25
 -11   9   7    3.95    0.35
  10  -9  -7    0.06    0.08
 -10   9   7    0.08    0.13
   9  -9  -7    2.30    0.18
  -9   9   7    2.21    0.28
  -8   9   7    1.93    0.25
  -7   9   7    5.80    0.39
  -6   9   7    1.41    0.21
  -5   9   7    1.02    0.18
  -4   9   7    0.05    0.09
  -3   9   7    0.99    0.17
  -2   9   7    0.09    0.09
  -1   9   7    7.56    0.40
   0   9   7    0.20    0.10
   4   9   7    0.11    0.08
   5   9   7   -0.02    0.07
   6   9   7    1.33    0.17
   7   9   7    0.48    0.13
   8   9   7    0.76    0.16
   9   9   7    0.47    0.18
   9   9   7    0.24    0.13
  10   9   7    1.41    0.27
  10   9   7    1.04    0.20
  11   9   7    1.94    0.30
  11   9   7    1.55    0.24
  12   9   7    0.48    0.17
 -14  10   7    5.11    0.46
 -13  10   7    1.37    0.27
 -12  10   7    2.87    0.35
 -11  10   7   -0.03    0.14
 -10  10   7    3.14    0.35
  -9  10   7    7.01    0.47
  -8  10   7    0.10    0.12
  -7  10   7   -0.04    0.11
  -6  10   7    1.53    0.23
  -5  10   7    0.56    0.16
  -4  10   7   12.42    0.60
  -3  10   7    0.19    0.11
  -2  10   7    2.64    0.26
  -1  10   7    0.23    0.12
   0  10   7   18.89    0.78
   7  10   7    1.30    0.19
   8  10   7    2.42    0.26
   9  10   7   -0.05    0.11
   9  10   7    0.20    0.17
  10  10   7    0.10    0.16
  10  10   7    0.25    0.13
  11  10   7    1.90    0.26
 -14  11   7    0.27    0.20
 -13  11   7    0.25    0.19
 -12  11   7    1.22    0.27
 -11  11   7    4.58    0.42
 -10  11   7    5.87    0.45
  -9  11   7    0.25    0.17
  -8  11   7    0.86    0.21
  -7  11   7    1.29    0.23
  -6  11   7    0.38    0.15
  -5  11   7    5.46    0.40
  -4  11   7    0.37    0.14
  -3  11   7    7.90    0.47
  -2  11   7    0.37    0.15
  -1  11   7    0.78    0.18
 -12  12   7    0.09    0.17
 -11  12   7    0.25    0.19
 -10  12   7    0.14    0.16
  -9  12   7    0.20    0.17
  -8  12   7    4.30    0.40
  -7  12   7    0.33    0.15
  -6  12   7    1.66    0.27
  -5  12   7   -0.09    0.11
  -4  12   7    2.39    0.30
  -3  12   7   -0.01    0.11
  -2  12   7    1.05    0.20
  -1  12   7    2.41    0.29
 -11  13   7    0.93    0.27
 -10  13   7    2.05    0.33
  -9  13   7    0.24    0.17
  -8  13   7    0.84    0.23
  -7  13   7    0.05    0.15
  -6  13   7   -0.11    0.13
  -5  13   7    0.21    0.15
  -4  13   7    0.13    0.14
  -3  13   7    0.10    0.13
  -2  13   7   -0.02    0.11
  -8  14   7    0.31    0.18
  -7  14   7   -0.08    0.15
  -6  14   7    0.02    0.15
  -5  14   7    0.78    0.21
  -4  14   7    2.38    0.33
  -3  14   7    0.14    0.15
  -2  14   7    1.80    0.28
   5  19  -8    2.41    0.24
   4  19  -8    0.03    0.12
   7  18  -8    0.39    0.14
   6  18  -8    0.28    0.13
   5  18  -8    0.38    0.14
   4  18  -8    0.63    0.15
   3  18  -8    0.04    0.11
   2  18  -8   -0.03    0.09
   1  18  -8    3.87    0.28
   8  17  -8    0.61    0.16
   7  17  -8    0.36    0.13
   6  17  -8    0.54    0.15
   5  17  -8    0.09    0.11
   4  17  -8    2.02    0.21
   3  17  -8    3.92    0.28
   2  17  -8    2.56    0.23
   9  16  -8    0.64    0.16
   8  16  -8    0.10    0.12
   7  16  -8    4.47    0.31
   6  16  -8    2.57    0.25
   5  16  -8    6.10    0.36
   4  16  -8    4.92    0.32
   3  16  -8    4.29    0.29
   7 -16   8    0.30    0.15
   8 -16   8    0.84    0.20
   9 -16   8    2.49    0.32
  10 -16   8    0.21    0.16
  11 -16   8    1.63    0.27
  12 -16   8    0.07    0.16
  13 -16   8    1.78    0.30
  10  15  -8    0.37    0.14
   9  15  -8    0.32    0.14
   8  15  -8    2.85    0.26
   7  15  -8    1.88    0.22
   6  15  -8    4.82    0.31
   5  15  -8    1.34    0.18
   4  15  -8    5.11    0.32
   0 -15   8    3.33    0.34
   1 -15   8   10.87    0.62
   2 -15   8    0.94    0.17
   2 -15   8    0.79    0.21
   3 -15   8   12.49    0.61
   4 -15   8    1.68    0.23
   5 -15   8    0.64    0.16
   6 -15   8    3.13    0.30
   7 -15   8    0.16    0.12
   8 -15   8    2.55    0.30
   9 -15   8    1.32    0.24
  10 -15   8    7.11    0.49
  11 -15   8    0.38    0.17
  12 -15   8    4.73    0.43
  13 -15   8    0.36    0.19
  11  14  -8    0.28    0.14
  10  14  -8    1.36    0.19
   9  14  -8   -0.02    0.10
   8  14  -8    0.50    0.14
   7  14  -8    0.00    0.11
   6  14  -8    0.57    0.14
   5  14  -8    1.75    0.19
  -3 -14   8   13.78    0.69
  -2 -14   8    4.02    0.35
  -1 -14   8    0.87    0.20
   0 -14   8    2.13    0.27
   1 -14   8    1.67    0.22
   1 -14   8    1.70    0.26
   2 -14   8    7.38    0.48
   2 -14   8    7.24    0.42
   3 -14   8    5.55    0.37
   4 -14   8    0.69    0.16
   5 -14   8   18.92    0.84
   6 -14   8    3.54    0.31
   7 -14   8    9.69    0.54
   8 -14   8    0.96    0.20
   9 -14   8    5.71    0.42
  10 -14   8    0.39    0.16
  11 -14   8    5.27    0.43
  12 -14   8    0.31    0.17
  13 -14   8    6.50    0.51
  14 -14   8    0.72    0.23
  12  13  -8    0.03    0.13
  11  13  -8    3.79    0.30
  10  13  -8    0.66    0.16
   9  13  -8   -0.05    0.09
   8  13  -8    0.05    0.11
   7  13  -8   -0.07    0.09
   6  13  -8    0.42    0.12
  -5 -13   8    0.21    0.13
  -4 -13   8    0.81    0.18
  -3 -13   8    3.31    0.31
  -2 -13   8    0.15    0.12
  -1 -13   8    1.98    0.26
   0 -13   8    0.09    0.10
   1 -13   8    0.11    0.12
   1 -13   8    0.43    0.13
   2 -13   8    0.09    0.09
   3 -13   8    2.63    0.25
   4 -13   8    3.72    0.30
   5 -13   8    0.03    0.10
   6 -13   8    9.17    0.51
   7 -13   8    1.89    0.25
   8 -13   8    0.02    0.10
   9 -13   8   -0.02    0.11
  10 -13   8    1.31    0.24
  11 -13   8    0.04    0.13
  12 -13   8    0.72    0.21
  13 -13   8   -0.11    0.12
  14 -13   8    1.63    0.29
  13  12  -8    0.14    0.13
  12  12  -8    1.05    0.18
  11  12  -8    0.30    0.13
  10  12  -8    0.43    0.13
   9  12  -8    2.85    0.25
   8  12  -8    0.03    0.10
   7  12  -8    3.00    0.24
  -7 -12   8    2.73    0.28
   6  12  -8    7.00    0.37
  -6 -12   8    7.55    0.44
  -5 -12   8   11.85    0.59
  -4 -12   8    8.95    0.50
  -3 -12   8    5.32    0.37
  -2 -12   8   13.54    0.65
  -1 -12   8   13.34    0.64
   0 -12   8   14.84    0.67
   0 -12   8   15.85    0.71
   1 -12   8    7.20    0.41
   1 -12   8    6.66    0.43
   2 -12   8   11.04    0.55
   3 -12   8   11.50    0.57
   4 -12   8    8.12    0.46
   5 -12   8    1.06    0.18
   6 -12   8    1.44    0.22
   7 -12   8   -0.01    0.09
   8 -12   8    0.06    0.10
   9 -12   8    0.15    0.12
  10 -12   8    0.48    0.17
  11 -12   8    0.36    0.16
  12 -12   8   -0.02    0.13
  13 -12   8    1.39    0.27
  13 -12   8    1.71    0.25
  14 -12   8   -0.02    0.14
  14 -12   8    0.07    0.13
  15 -12   8    1.61    0.31
  14  11  -8    0.00    0.12
  13  11  -8    0.86    0.17
  13  11  -8    0.72    0.14
  12  11  -8    1.28    0.18
  11  11  -8    0.20    0.12
  10  11  -8    2.43    0.23
   9  11  -8    0.62    0.14
   8  11  -8    2.76    0.23
  -8 -11   8    2.63    0.29
   7  11  -8    1.58    0.17
  -7 -11   8    1.18    0.20
  -6 -11   8    2.02    0.24
  -5 -11   8    1.56    0.22
  -4 -11   8   23.80    0.95
  -3 -11   8   12.57    0.60
  -2 -11   8   17.63    0.76
  -1 -11   8   45.20    1.62
   0 -11   8    7.18    0.42
   0 -11   8    6.82    0.39
   1 -11   8   17.23    0.74
   1 -11   8   17.24    0.75
   2 -11   8    0.31    0.12
   3 -11   8   10.30    0.52
   4 -11   8    0.48    0.13
   5 -11   8    0.03    0.09
   6 -11   8   -0.01    0.08
   7 -11   8    2.23    0.27
   8 -11   8    0.01    0.08
   9 -11   8    1.70    0.25
  10 -11   8    2.08    0.29
  11 -11   8    0.19    0.12
  11 -11   8    0.24    0.15
  12 -11   8    4.69    0.36
  12 -11   8    4.73    0.41
  13 -11   8    1.61    0.24
  13 -11   8    1.25    0.26
  14 -11   8    8.58    0.51
  14 -11   8    7.58    0.56
  15 -11   8    0.29    0.15
  15 -11   8    0.19    0.18
  15  10  -8    0.02    0.10
  15  10  -8   -0.01    0.13
  14  10  -8    0.11    0.11
  14  10  -8    0.13    0.12
  13  10  -8    0.82    0.16
  12  10  -8    5.33    0.33
  11  10  -8    0.09    0.11
  10  10  -8    4.20    0.28
   9  10  -8    2.11    0.21
  -9 -10   8    1.69    0.22
   8  10  -8    0.20    0.09
  -8 -10   8    0.16    0.12
   7  10  -8    0.79    0.13
  -7 -10   8    0.84    0.16
  -6 -10   8    3.14    0.27
  -5 -10   8    7.25    0.41
  -4 -10   8    9.28    0.48
  -3 -10   8    4.25    0.31
  -2 -10   8    3.89    0.29
  -1 -10   8    1.49    0.19
   0 -10   8    2.26    0.21
   0 -10   8    2.15    0.24
   1 -10   8    2.37    0.22
   2 -10   8    0.11    0.09
   3 -10   8    0.30    0.11
   4 -10   8    1.43    0.20
   5 -10   8   14.56    0.67
   6 -10   8    4.91    0.35
   7 -10   8   22.38    0.94
   8 -10   8    1.16    0.21
   9 -10   8   10.19    0.55
   9 -10   8   10.12    0.51
  10 -10   8    0.85    0.18
  10 -10   8    0.62    0.17
  11 -10   8   14.34    0.65
  11 -10   8   12.56    0.69
  12 -10   8    0.06    0.11
  12 -10   8   -0.08    0.11
  13 -10   8    3.67    0.34
  13 -10   8    3.83    0.38
  14 -10   8    0.30    0.17
  14 -10   8    0.32    0.15
  15 -10   8    0.35    0.18
  15 -10   8    0.44    0.17
  16 -10   8    0.02    0.14
  16 -10   8   -0.07    0.14
  17 -10   8    0.89    0.23
  16   9  -8    0.00    0.12
  15   9  -8    5.60    0.34
  15   9  -8    5.62    0.36
  14   9  -8    1.00    0.17
  14   9  -8    1.20    0.18
  13   9  -8    2.04    0.22
  12   9  -8    0.68    0.14
  11   9  -8    7.55    0.38
  10   9  -8    6.84    0.35
 -10  -9   8    6.44    0.39
   9   9  -8    0.46    0.12
  -9  -9   8    0.45    0.13
   8   9  -8    0.60    0.12
  -8  -9   8    0.75    0.16
   7   9  -8   32.91    1.14
  -7  -9   8   34.99    1.25
  -6  -9   8    3.72    0.28
  -5  -9   8    9.14    0.46
  -4  -9   8    3.61    0.27
  -3  -9   8    0.24    0.11
  -2  -9   8    1.88    0.21
  -2  -9   8    1.74    0.20
  -1  -9   8    1.65    0.19
  -1  -9   8    1.92    0.21
  -1  -9   8    1.87    0.19
   0  -9   8    2.46    0.22
   0  -9   8    2.58    0.22
   0  -9   8    2.27    0.21
   1  -9   8    2.73    0.22
   1  -9   8    2.82    0.24
   2  -9   8    0.12    0.09
   2  -9   8    0.01    0.07
   3  -9   8   24.54    0.95
   3  -9   8   23.08    0.88
  -4   9  -8    5.57    0.31
   4  -9   8    5.16    0.34
   4  -9   8    4.97    0.32
   5  -9   8    8.28    0.45
   6  -9   8   16.49    0.73
   7  -9   8    3.33    0.26
   7  -9   8    3.06    0.28
   8  -9   8    4.44    0.34
   8  -9   8    4.31    0.31
   9  -9   8    0.10    0.09
   9  -9   8    0.07    0.09
  10  -9   8    2.43    0.29
  10  -9   8    2.10    0.25
  11  -9   8    0.34    0.15
  11  -9   8    0.17    0.11
  12  -9   8    0.02    0.12
  12  -9   8    0.10    0.10
  13  -9   8    0.25    0.12
  13  -9   8   -0.13    0.10
  14  -9   8   -0.05    0.11
  14  -9   8   -0.05    0.12
  15  -9   8    2.67    0.32
  15  -9   8    2.23    0.34
  16  -9   8    0.12    0.15
  16  -9   8    0.21    0.18
  17  -9   8   -0.23    0.13
  17   8  -8    0.53    0.17
  16   8  -8    5.33    0.34
  16   8  -8    5.26    0.34
  15   8  -8    0.32    0.12
  15   8  -8    0.13    0.11
  14   8  -8    4.85    0.30
  14   8  -8    4.06    0.28
  13   8  -8    2.21    0.22
  12   8  -8    8.99    0.41
  11   8  -8    0.65    0.13
 -11  -8   8    0.39    0.13
  10   8  -8    0.93    0.13
 -10  -8   8    1.22    0.18
   9   8  -8    1.32    0.15
  -9  -8   8    1.37    0.19
   8   8  -8   16.08    0.62
  -8  -8   8   16.48    0.69
  -7  -8   8    1.40    0.18
  -6  -8   8    0.47    0.13
  -5  -8   8   33.62    1.21
  -4  -8   8    3.58    0.25
  -3  -8   8   36.47    1.29
  -2  -8   8    9.33    0.44
  -2  -8   8    9.18    0.44
  -1  -8   8   52.43    1.91
  -1  -8   8   56.69    1.85
  -1  -8   8   54.80    1.83
   0  -8   8   29.39    1.07
   0  -8   8   29.47    1.11
   0  -8   8   28.98    1.05
   1  -8   8   14.83    0.65
   1  -8   8   15.03    0.60
   2  -8   8   28.47    1.03
   2  -8   8   29.46    1.11
   3  -8   8   26.95    1.04
   3  -8   8   26.28    0.96
  -4   8  -8   15.52    0.61
   4  -8   8   14.46    0.67
   4  -8   8   16.15    0.62
  -5   8  -8    4.25    0.25
   5  -8   8    3.79    0.29
   5  -8   8    4.08    0.25
   6  -8   8    9.35    0.49
   6  -8   8    9.54    0.46
   7  -8   8   20.22    0.77
   7  -8   8   18.24    0.81
   8  -8   8    0.44    0.13
   8  -8   8    0.57    0.15
   9  -8   8    5.01    0.33
   9  -8   8    4.75    0.35
  10  -8   8    0.21    0.11
  10  -8   8    0.26    0.11
  11  -8   8    0.15    0.11
  11  -8   8    0.44    0.15
  12  -8   8    0.31    0.13
  12  -8   8    0.41    0.16
  13  -8   8    1.24    0.23
  13  -8   8    1.98    0.26
  14  -8   8    0.29    0.14
  14  -8   8    0.25    0.14
  15  -8   8    4.45    0.38
  15  -8   8    4.73    0.43
  16  -8   8    1.59    0.26
  16  -8   8    1.80    0.31
  17  -8   8    0.80    0.22
  17   7  -8    1.19    0.19
  16   7  -8    1.37    0.19
  16   7  -8    1.29    0.19
  15   7  -8    2.73    0.24
  15   7  -8    2.54    0.24
  14   7  -8    0.04    0.09
  14   7  -8    0.20    0.11
  13   7  -8    0.50    0.11
  12   7  -8    0.04    0.08
 -12  -7   8    0.02    0.09
  11   7  -8    0.50    0.12
 -11  -7   8    0.69    0.14
  10   7  -8    0.17    0.09
 -10  -7   8    0.29    0.11
   9   7  -8    2.21    0.18
  -9  -7   8    2.18    0.21
   8   7  -8    0.22    0.10
  -8  -7   8    0.15    0.10
  -7  -7   8    4.11    0.28
  -6  -7   8    1.63    0.18
  -5  -7   8    1.99    0.19
  -4  -7   8   48.79    1.65
  -3  -7   8    4.54    0.28
  -2  -7   8   45.29    1.54
  -1  -7   8   25.25    0.92
  -1  -7   8   24.92    0.91
  -1  -7   8   25.09    0.97
   0  -7   8    9.87    0.47
   0  -7   8    9.96    0.43
   0  -7   8    9.94    0.45
   1  -7   8   29.22    1.09
   1  -7   8   28.57    1.01
   2  -7   8   16.11    0.68
   2  -7   8   15.83    0.61
   3  -7   8   11.50    0.55
   3  -7   8   12.29    0.49
  -4   7  -8    5.53    0.28
   4  -7   8    5.98    0.35
   4  -7   8    5.73    0.29
  -5   7  -8    0.13    0.07
   5  -7   8    0.16    0.09
   5  -7   8    0.14    0.07
   5  -7   8    0.15    0.09
  -6   7  -8    7.33    0.35
   6  -7   8    7.55    0.35
   6  -7   8    6.89    0.40
   6  -7   8    7.36    0.38
   7  -7   8    1.10    0.18
   7  -7   8    1.04    0.17
   8  -7   8    1.76    0.23
   8  -7   8    1.01    0.16
   9  -7   8    2.08    0.23
   9  -7   8    2.10    0.26
  10  -7   8    6.99    0.44
  10  -7   8    7.30    0.42
  11  -7   8   -0.04    0.10
  11  -7   8    0.03    0.10
  12  -7   8   13.00    0.68
  12  -7   8   13.08    0.63
  13  -7   8    0.07    0.14
  13  -7   8    0.15    0.11
  14  -7   8    3.19    0.37
  14  -7   8    2.81    0.32
  15  -7   8    0.67    0.17
  15  -7   8    0.21    0.16
  16  -7   8    5.49    0.48
  16  -7   8    5.38    0.42
  17  -7   8    0.30    0.16
  17   6  -8    0.24    0.13
  17   6  -8    0.30    0.13
  16   6  -8    0.39    0.12
  16   6  -8    0.19    0.11
  15   6  -8    0.61    0.14
  15   6  -8    0.60    0.14
  14   6  -8    0.63    0.13
  13   6  -8    0.15    0.10
 -13  -6   8    0.00    0.09
  12   6  -8    0.39    0.11
 -12  -6   8    0.58    0.14
  11   6  -8    2.27    0.19
 -11  -6   8    2.42    0.22
  10   6  -8    0.38    0.10
 -10  -6   8    0.46    0.12
   9   6  -8    7.52    0.35
  -9  -6   8    7.71    0.39
   8   6  -8    1.08    0.14
  -8  -6   8    1.01    0.15
  -7  -6   8    6.79    0.35
  -6  -6   8   23.67    0.87
  -5  -6   8   32.39    1.14
  -4  -6   8   55.12    1.83
  -3  -6   8    1.12    0.14
  -2  -6   8    4.37    0.25
  -1  -6   8   27.17    0.98
  -1  -6   8   28.59    1.06
   0  -6   8   26.79    0.94
   0  -6   8   27.42    1.03
   0  -6   8   26.91    0.96
   1  -6   8   16.76    0.63
   1  -6   8   17.29    0.71
   2  -6   8    0.76    0.10
   2  -6   8    0.75    0.14
   3  -6   8   17.99    0.75
   3  -6   8   18.46    0.67
  -4   6  -8    7.05    0.31
   4  -6   8    7.10    0.36
   4  -6   8    6.38    0.37
   4  -6   8    7.00    0.31
  -5   6  -8   32.74    1.11
   5  -6   8   34.18    1.12
   5  -6   8   33.03    1.14
   5  -6   8   31.41    1.22
  -6   6  -8   24.95    0.87
   6  -6   8   24.71    0.91
   6  -6   8   24.21    0.86
   6  -6   8   24.14    0.97
   7  -6   8   12.13    0.47
   7  -6   8   11.22    0.52
   7  -6   8   11.73    0.56
   8  -6   8    0.12    0.08
   8  -6   8    0.11    0.09
   9  -6   8   19.62    0.86
   9  -6   8   21.27    0.82
  10  -6   8    1.32    0.21
  10  -6   8    1.15    0.18
  11  -6   8   17.03    0.75
  11  -6   8   18.12    0.81
  12  -6   8    2.97    0.28
  12  -6   8    2.49    0.30
  13  -6   8    6.45    0.42
  13  -6   8    5.62    0.43
  14  -6   8    0.23    0.15
  14  -6   8    0.09    0.12
  15  -6   8    3.82    0.39
  15  -6   8    4.07    0.36
  16  -6   8    2.79    0.34
  16  -6   8    2.68    0.36
  17  -6   8    9.82    0.60
  17  -6   8    9.08    0.64
  17   5  -8    0.08    0.13
  17   5  -8   -0.03    0.11
  16   5  -8    0.10    0.10
  16   5  -8    0.45    0.14
  15   5  -8    8.40    0.43
  15   5  -8    8.24    0.40
  14   5  -8    0.12    0.09
  13   5  -8    1.93    0.18
 -13  -5   8    1.79    0.21
  12   5  -8    1.30    0.15
 -12  -5   8    1.33    0.17
  11   5  -8    6.19    0.30
 -11  -5   8    5.61    0.33
  10   5  -8    1.01    0.13
 -10  -5   8    0.85    0.14
   9   5  -8    0.30    0.09
  -9  -5   8    0.18    0.09
   8   5  -8    1.72    0.15
  -8  -5   8    2.07    0.18
  -7  -5   8   11.72    0.50
  -6  -5   8    8.59    0.39
  -5  -5   8    0.36    0.09
  -4  -5   8    3.26    0.21
  -3  -5   8    0.11    0.06
  -2  -5   8   27.47    0.96
  -1  -5   8    4.70    0.25
  -1  -5   8    5.17    0.30
   0  -5   8   27.33    0.95
   0  -5   8   27.29    0.94
   0  -5   8   27.59    1.03
   1  -5   8    0.21    0.09
   1  -5   8    0.28    0.07
   2  -5   8    6.93    0.37
   2  -5   8    6.56    0.29
   3  -5   8    0.50    0.12
   3  -5   8    0.51    0.10
   3  -5   8    0.54    0.08
   4  -5   8    5.15    0.31
   4  -5   8    5.25    0.29
   4  -5   8    5.26    0.25
   5  -5   8    1.10    0.11
   5  -5   8    0.72    0.13
   5  -5   8    0.95    0.14
   6  -5   8    3.00    0.18
   6  -5   8    3.10    0.24
   6  -5   8    2.76    0.24
   7  -5   8    7.13    0.41
   7  -5   8    6.96    0.38
   7  -5   8    7.82    0.33
   8  -5   8   11.05    0.55
   8  -5   8   11.34    0.52
   9  -5   8    9.23    0.47
   9  -5   8    9.21    0.49
  10  -5   8    5.45    0.35
  10  -5   8    5.07    0.37
  11  -5   8    8.45    0.49
  11  -5   8    7.87    0.44
  12  -5   8    2.31    0.29
  12  -5   8    2.42    0.28
  13  -5   8    0.05    0.12
  13  -5   8    0.17    0.13
  14  -5   8    1.97    0.29
  14  -5   8    1.69    0.25
  15  -5   8    0.10    0.13
  15  -5   8    0.01    0.14
  16  -5   8    1.45    0.25
  16  -5   8    1.68    0.30
  17  -5   8    1.62    0.30
  17  -5   8    1.48    0.26
  18   4  -8    1.20    0.18
  17   4  -8    0.10    0.13
  17   4  -8    0.12    0.11
  16   4  -8    7.68    0.39
  16   4  -8    8.05    0.43
  15   4  -8    1.42    0.17
  15   4  -8    1.18    0.18
  14   4  -8    6.28    0.35
  14   4  -8    6.76    0.33
 -14  -4   8    6.51    0.39
  13   4  -8    1.01    0.13
 -13  -4   8    1.02    0.16
  12   4  -8    8.27    0.36
 -12  -4   8    8.24    0.42
  11   4  -8    0.34    0.09
 -11  -4   8    0.48    0.12
  10   4  -8    5.47    0.28
 -10  -4   8    6.09    0.32
   9   4  -8    0.23    0.08
  -9  -4   8    0.43    0.10
   8   4  -8    4.04    0.23
  -8  -4   8    4.57    0.26
  -7  -4   8    0.68    0.11
  -6  -4   8    7.43    0.34
  -5  -4   8    8.58    0.37
  -4  -4   8    0.39    0.08
  -3  -4   8   15.56    0.58
  -2  -4   8   10.03    0.40
  -1  -4   8    8.46    0.35
  -1  -4   8    8.59    0.42
   0  -4   8    2.82    0.16
   0  -4   8    2.74    0.21
   1  -4   8   15.45    0.64
   1  -4   8   15.39    0.55
   2  -4   8    3.64    0.25
   2  -4   8    3.74    0.23
   2  -4   8    3.90    0.19
   3  -4   8   23.37    0.80
   3  -4   8   23.76    0.91
   3  -4   8   23.59    0.85
   4  -4   8    7.08    0.29
   4  -4   8    6.61    0.36
   4  -4   8    7.04    0.35
   5  -4   8   14.72    0.64
   5  -4   8   15.43    0.54
   5  -4   8   15.12    0.61
   6  -4   8    0.52    0.13
   6  -4   8    0.82    0.14
   6  -4   8    0.82    0.09
   7  -4   8    3.35    0.24
   7  -4   8    3.84    0.20
   7  -4   8    3.28    0.26
   8  -4   8    3.52    0.20
   8  -4   8    3.51    0.26
   8  -4   8    3.45    0.28
   9  -4   8    8.87    0.45
   9  -4   8    9.28    0.49
  10  -4   8    1.91    0.24
  10  -4   8    1.37    0.19
  11  -4   8    1.48    0.22
  11  -4   8    1.50    0.21
  12  -4   8    4.48    0.34
  12  -4   8    4.37    0.36
  13  -4   8    0.09    0.11
  13  -4   8   -0.12    0.08
  14  -4   8    0.56    0.18
  14  -4   8    0.66    0.18
  15  -4   8    1.53    0.24
  15  -4   8    1.58    0.27
  16  -4   8    0.42    0.18
  16  -4   8    0.53    0.20
  17  -4   8    4.08    0.39
  17  -4   8    3.98    0.42
  18   3  -8    0.80    0.16
  17   3  -8    0.34    0.13
  17   3  -8    0.25    0.12
  16   3  -8   10.93    0.48
  16   3  -8   11.20    0.52
  15   3  -8   11.39    0.47
  15   3  -8   11.54    0.52
  14   3  -8    1.73    0.17
  14   3  -8    1.80    0.20
 -14  -3   8    1.61    0.21
  13   3  -8    8.79    0.38
 -13  -3   8    9.48    0.46
  12   3  -8    1.44    0.15
 -12  -3   8    1.66    0.19
  11   3  -8   18.70    0.65
 -11  -3   8   18.13    0.73
  10   3  -8   11.92    0.45
 -10  -3   8   12.03    0.51
   9   3  -8    0.88    0.11
  -9  -3   8    0.94    0.13
   8   3  -8    5.49    0.26
  -8  -3   8    5.90    0.29
  -7  -3   8    0.67    0.10
  -6  -3   8    5.11    0.26
  -5  -3   8   10.18    0.41
  -4  -3   8   12.23    0.47
  -3  -3   8   20.13    0.70
  -2  -3   8    8.95    0.35
  -1  -3   8   11.47    0.43
  -1  -3   8   11.57    0.51
   0  -3   8    5.41    0.30
   0  -3   8    5.25    0.23
   1  -3   8   13.62    0.47
   1  -3   8   13.35    0.58
   2  -3   8    5.02    0.29
   2  -3   8    4.89    0.21
   2  -3   8    4.88    0.27
   3  -3   8   18.33    0.75
   3  -3   8   17.72    0.69
   3  -3   8   19.58    0.63
   4  -3   8    8.34    0.38
   4  -3   8    8.25    0.31
   4  -3   8    7.61    0.40
   5  -3   8   10.17    0.45
   5  -3   8    9.93    0.48
   5  -3   8   10.31    0.38
   6  -3   8   10.87    0.49
   6  -3   8   11.30    0.41
   6  -3   8   11.28    0.53
   7  -3   8    4.22    0.27
   7  -3   8    4.61    0.21
   7  -3   8    4.60    0.31
   8  -3   8    8.66    0.43
   8  -3   8    9.27    0.36
   8  -3   8    8.48    0.46
   9  -3   8    0.11    0.10
   9  -3   8    0.09    0.09
  10  -3   8    4.10    0.32
  10  -3   8    4.60    0.32
  11  -3   8    0.89    0.17
  11  -3   8    0.59    0.15
  12  -3   8    6.48    0.44
  12  -3   8    6.95    0.42
  13  -3   8    0.20    0.13
  13  -3   8    0.24    0.14
  14  -3   8    2.36    0.29
  14  -3   8    2.53    0.32
  15  -3   8    0.27    0.15
  15  -3   8    0.14    0.14
  16  -3   8    0.10    0.15
  16  -3   8    0.11    0.15
  17  -3   8    1.26    0.27
  17  -3   8    1.04    0.24
  18   2  -8    0.73    0.15
  17   2  -8    0.28    0.13
  17   2  -8    0.05    0.10
  16   2  -8    0.72    0.14
  16   2  -8    0.47    0.12
  15   2  -8    0.40    0.12
  15   2  -8    0.47    0.11
  14   2  -8    0.05    0.07
  14   2  -8    0.06    0.08
 -14  -2   8    0.01    0.09
  13   2  -8    0.41    0.09
 -13  -2   8    0.29    0.11
  12   2  -8    3.28    0.19
 -12  -2   8    2.97    0.24
  11   2  -8   12.17    0.46
 -11  -2   8   12.15    0.53
  10   2  -8    1.65    0.14
 -10  -2   8    1.99    0.18
   9   2  -8    7.85    0.31
  -9  -2   8    7.15    0.35
   8   2  -8    4.25    0.21
  -8  -2   8    4.27    0.24
  -7  -2   8   32.97    1.12
  -6  -2   8    6.44    0.29
   5   2  -8   31.64    1.13
  -5  -2   8   33.46    1.09
   4   2  -8   14.88    0.55
  -4  -2   8   14.88    0.53
   3   2  -8   23.75    0.85
  -3  -2   8   23.57    0.80
  -2  -2   8   29.43    0.96
  -1  -2   8  113.03    3.50
   0  -2   8   34.42    1.25
   0  -2   8   34.78    1.11
   1  -2   8   56.63    1.82
   1  -2   8   57.91    1.97
   2  -2   8    1.72    0.09
   2  -2   8    1.37    0.17
   2  -2   8    1.52    0.15
   3  -2   8   32.72    1.00
   3  -2   8   30.00    1.14
   3  -2   8   30.14    1.05
   4  -2   8    5.84    0.22
   4  -2   8    5.30    0.31
   4  -2   8    5.54    0.30
   4  -2   8    5.81    0.32
   5  -2   8    0.62    0.13
   5  -2   8    0.41    0.10
   5  -2   8    0.51    0.11
   5  -2   8    0.56    0.06
   6  -2   8   23.24    0.95
   6  -2   8   25.45    0.82
   6  -2   8   24.72    0.89
   6  -2   8   25.15    1.00
   7  -2   8   30.07    1.07
   7  -2   8   29.96    1.19
   7  -2   8   30.75    0.99
   7  -2   8   29.64    1.14
   8  -2   8    1.14    0.17
   8  -2   8    1.14    0.11
   8  -2   8    1.10    0.17
   8  -2   8    1.03    0.15
   9  -2   8    6.86    0.41
   9  -2   8    6.26    0.37
   9  -2   8    6.35    0.39
  10  -2   8    2.99    0.26
  10  -2   8    2.92    0.28
  10  -2   8    2.77    0.26
  11  -2   8   16.72    0.79
  11  -2   8   16.27    0.71
  11  -2   8   16.52    0.76
  12  -2   8    0.61    0.16
  12  -2   8    0.77    0.19
  12  -2   8    0.45    0.14
  13  -2   8   10.80    0.61
  13  -2   8   12.53    0.66
  13  -2   8   11.99    0.60
  14  -2   8    0.09    0.12
  14  -2   8    0.13    0.14
  15  -2   8    3.01    0.34
  15  -2   8    2.74    0.34
  16  -2   8    0.05    0.14
  16  -2   8   -0.05    0.13
  17  -2   8   -0.11    0.14
  17  -2   8    0.03    0.15
  17   1  -8    0.12    0.11
  16   1  -8    2.13    0.23
  16   1  -8    1.88    0.19
  15   1  -8    0.08    0.08
  15   1  -8    0.19    0.11
 -15  -1   8    0.16    0.12
  14   1  -8    0.53    0.10
  14   1  -8    0.54    0.13
 -14  -1   8    0.33    0.13
  13   1  -8    0.01    0.06
 -13  -1   8   -0.06    0.09
  12   1  -8    5.21    0.25
 -12  -1   8    4.83    0.31
  11   1  -8    0.69    0.09
 -11  -1   8    0.46    0.11
  10   1  -8    2.09    0.15
 -10  -1   8    2.16    0.19
   9   1  -8    0.43    0.08
  -9  -1   8    0.57    0.11
   8   1  -8    5.40    0.24
  -8  -1   8    5.40    0.27
  -7  -1   8    1.98    0.15
  -6  -1   8    7.36    0.31
  -5  -1   8    2.03    0.13
   4   1  -8    3.15    0.14
  -4  -1   8    3.03    0.16
   3   1  -8    0.66    0.07
  -3  -1   8    0.70    0.08
  -2  -1   8   57.81    1.81
  -1  -1   8   47.47    1.49
   0  -1   8   47.10    1.63
   0  -1   8   46.69    1.46
   1  -1   8    0.55    0.09
   1  -1   8    0.77    0.12
   1  -1   8    0.63    0.10
   2  -1   8    5.85    0.31
   2  -1   8    6.62    0.22
   2  -1   8    5.98    0.33
   2  -1   8    6.47    0.30
   3  -1   8    9.13    0.30
   3  -1   8    9.01    0.39
   3  -1   8    8.79    0.42
   3  -1   8    8.31    0.41
   4  -1   8    2.34    0.11
   4  -1   8    2.49    0.20
   4  -1   8    2.19    0.18
   4  -1   8    2.11    0.18
   5  -1   8    5.21    0.21
   5  -1   8    5.89    0.30
   5  -1   8    5.23    0.31
   5  -1   8    5.24    0.31
   6  -1   8   24.44    0.97
   6  -1   8   24.68    0.79
   6  -1   8   22.87    0.86
   6  -1   8   23.17    0.92
   7  -1   8    3.82    0.28
   7  -1   8    4.07    0.19
   7  -1   8    3.90    0.26
   7  -1   8    4.21    0.29
   8  -1   8   15.98    0.70
   8  -1   8   15.39    0.72
   8  -1   8   16.21    0.66
   8  -1   8   16.31    0.57
   9  -1   8    0.91    0.16
   9  -1   8    1.06    0.17
   9  -1   8    0.92    0.16
  10  -1   8    3.82    0.31
  10  -1   8    3.63    0.29
  10  -1   8    3.62    0.29
  11  -1   8    2.66    0.28
  11  -1   8    2.56    0.26
  11  -1   8    2.57    0.27
  12  -1   8    1.21    0.21
  12  -1   8    0.98    0.18
  12  -1   8    0.99    0.20
  13  -1   8    0.45    0.14
  13  -1   8    0.47    0.17
  13  -1   8    0.34    0.14
  14  -1   8    3.62    0.33
  14  -1   8    3.67    0.36
  14  -1   8    3.46    0.34
  15  -1   8    0.44    0.17
  15  -1   8    0.58    0.18
  15  -1   8    0.25    0.15
  16  -1   8    0.38    0.18
  16  -1   8    0.17    0.15
  17  -1   8   -0.12    0.14
  17   0  -8    1.13    0.19
  16   0  -8    2.65    0.24
  15   0  -8    4.50    0.29
  15   0  -8    3.99    0.24
 -15   0   8    4.55    0.33
  14   0  -8    9.77    0.40
  14   0  -8    9.83    0.46
 -14   0   8    9.36    0.50
  13   0  -8    3.45    0.20
 -13   0   8    3.57    0.27
  12   0  -8    9.51    0.37
 -12   0   8    9.84    0.47
  11   0  -8    0.18    0.06
 -11   0   8    0.11    0.08
  10   0  -8   13.09    0.46
 -10   0   8   13.08    0.54
   9   0  -8    0.39    0.07
  -9   0   8    0.26    0.08
   8   0  -8    0.27    0.06
  -8   0   8    0.23    0.07
   7   0  -8    1.92    0.12
  -7   0   8    1.52    0.14
  -6   0   8    0.00    0.04
  -5   0   8    1.68    0.12
  -4   0   8    1.10    0.09
  -3   0   8    0.45    0.06
  -2   0   8    3.01    0.13
  -1   0   8    0.44    0.07
  -1   0   8    0.50    0.04
   0   0   8    0.89    0.05
   0   0   8    0.67    0.10
   0   0   8    0.85    0.12
   0   0   8    0.94    0.12
   1   0   8   23.42    0.90
   1   0   8   23.98    0.82
   1   0   8   23.59    0.89
   2   0   8    1.49    0.16
   2   0   8    1.61    0.15
   2   0   8    1.56    0.15
   3   0   8    8.63    0.39
   3   0   8    8.93    0.43
   3   0   8    9.35    0.43
   3   0   8    9.59    0.30
   4   0   8    0.95    0.06
   4   0   8    0.96    0.14
   4   0   8    1.03    0.15
   4   0   8    1.08    0.14
   5   0   8   18.62    0.60
   5   0   8   17.47    0.68
   5   0   8   18.39    0.76
   5   0   8   17.45    0.73
   6   0   8   17.66    0.75
   6   0   8   17.65    0.59
   6   0   8   17.41    0.67
   6   0   8   16.28    0.71
   7   0   8   29.23    1.12
   7   0   8   29.65    1.18
   7   0   8   30.15    0.98
   7   0   8   29.85    1.06
   8   0   8    0.02    0.07
   8   0   8    0.11    0.05
   8   0   8    0.06    0.09
   8   0   8    0.00    0.08
   9   0   8   16.46    0.73
   9   0   8   18.10    0.79
   9   0   8   16.58    0.70
  10   0   8    0.58    0.15
  10   0   8    0.49    0.14
  10   0   8    0.69    0.14
  11   0   8    0.56    0.15
  11   0   8    0.42    0.14
  11   0   8    0.36    0.13
  12   0   8    0.76    0.17
  12   0   8    1.27    0.22
  12   0   8    1.10    0.20
  13   0   8    1.15    0.22
  13   0   8    0.86    0.19
  13   0   8    0.95    0.20
  14   0   8    1.12    0.21
  14   0   8    1.10    0.22
  14   0   8    1.05    0.21
  15   0   8    0.47    0.18
  15   0   8    0.45    0.17
  15   0   8    0.80    0.20
  16   0   8    0.28    0.18
  16   0   8    0.23    0.16
  16   0   8    0.42    0.20
  17   0   8   -0.19    0.12
  17  -1  -8    5.53    0.36
  16  -1  -8    4.22    0.30
  15  -1  -8    1.60    0.19
 -15   1   8    1.60    0.23
  14  -1  -8    4.40    0.28
 -14   1   8    4.21    0.33
  13  -1  -8    7.12    0.30
  13  -1  -8    7.61    0.37
 -13   1   8    7.00    0.40
  12  -1  -8    0.22    0.06
 -12   1   8    0.15    0.10
  11  -1  -8    4.27    0.20
 -11   1   8    4.42    0.28
  10  -1  -8    0.98    0.09
 -10   1   8    0.98    0.14
   9  -1  -8    1.22    0.10
  -9   1   8    1.01    0.13
   8  -1  -8    1.43    0.11
  -8   1   8    1.41    0.14
   7  -1  -8   23.54    0.73
  -7   1   8   22.08    0.80
  -6   1   8    3.67    0.20
  -5   1   8    1.00    0.10
  -4   1   8    9.90    0.37
  -3   1   8    0.47    0.06
  -2   1   8    8.16    0.34
  -2   1   8    8.11    0.29
  -1   1   8    0.61    0.05
  -1   1   8    0.56    0.08
   0   1   8   23.00    0.80
   0   1   8   23.55    0.88
   0   1   8   23.20    0.73
   1   1   8    2.70    0.18
   1   1   8    2.33    0.18
   1   1   8    3.05    0.21
   2   1   8    0.78    0.11
   2   1   8    0.51    0.09
   2   1   8    0.52    0.11
   3   1   8    2.03    0.09
   3   1   8    2.05    0.16
   3   1   8    1.74    0.16
   3   1   8    1.88    0.18
   4   1   8   15.19    0.61
   4   1   8   16.49    0.69
   4   1   8   16.42    0.53
   4   1   8   16.22    0.66
   5   1   8    1.77    0.10
   5   1   8    1.51    0.18
   5   1   8    1.69    0.17
   5   1   8    1.50    0.17
   6   1   8    2.06    0.21
   6   1   8    2.52    0.14
   6   1   8    2.44    0.21
   6   1   8    2.55    0.23
   7   1   8    5.48    0.32
   7   1   8    6.08    0.26
   7   1   8    5.34    0.33
   7   1   8    5.81    0.36
   8   1   8    0.20    0.11
   8   1   8    0.29    0.07
   8   1   8    0.29    0.10
   8   1   8    0.23    0.10
   9   1   8    0.19    0.10
   9   1   8    0.38    0.12
   9   1   8    0.24    0.12
  10   1   8    0.08    0.09
  10   1   8    0.17    0.11
  10   1   8    0.08    0.10
  11   1   8    2.30    0.27
  11   1   8    1.98    0.24
  11   1   8    2.07    0.27
  12   1   8    4.62    0.37
  12   1   8    4.13    0.33
  12   1   8    3.75    0.33
  13   1   8   -0.14    0.10
  13   1   8    0.07    0.12
  13   1   8    0.04    0.11
  14   1   8    0.36    0.16
  14   1   8    0.59    0.19
  14   1   8    0.32    0.15
  15   1   8    2.28    0.33
  15   1   8    1.73    0.27
  15   1   8    2.21    0.30
  16   1   8    0.91    0.23
  16   1   8    0.62    0.20
  16   1   8    0.54    0.19
  17   1   8    0.62    0.20
  17  -2  -8    0.53    0.14
  16  -2  -8    1.44    0.19
  15  -2  -8   -0.12    0.09
 -15   2   8   -0.01    0.10
  14  -2  -8    0.05    0.09
 -14   2   8    0.03    0.09
  13  -2  -8    0.41    0.11
 -13   2   8    0.31    0.12
 -12   2   8    1.08    0.17
  11  -2  -8    3.56    0.17
 -11   2   8    3.60    0.26
  10  -2  -8    1.00    0.09
 -10   2   8    0.81    0.13
   9  -2  -8    0.15    0.05
  -9   2   8    0.11    0.07
   8  -2  -8   23.94    0.75
  -8   2   8   23.98    0.86
   7  -2  -8   21.49    0.66
  -7   2   8   20.12    0.75
  -6   2   8    0.80    0.10
  -5   2   8   24.11    0.82
  -4   2   8    0.73    0.09
  -3   2   8   34.02    1.20
  -3   2   8   33.81    1.10
  -2   2   8    1.27    0.11
  -2   2   8    1.55    0.10
  -1   2   8   74.27    2.35
  -1   2   8   77.42    2.64
   0   2   8   20.96    0.84
   0   2   8   22.49    0.76
   0   2   8   22.70    0.71
   1   2   8   46.80    1.57
   1   2   8   43.86    1.41
   1   2   8   44.66    1.63
   1   2   8   45.94    1.45
   2   2   8    4.17    0.22
   2   2   8    3.67    0.24
   2   2   8    3.60    0.23
   3   2   8    0.12    0.08
   3   2   8    0.09    0.07
   3   2   8    0.08    0.07
   3   2   8    0.14    0.04
   4   2   8    0.43    0.06
   4   2   8    0.35    0.11
   4   2   8    0.38    0.10
   4   2   8    0.39    0.10
   5   2   8    2.34    0.13
   5   2   8    2.02    0.20
   5   2   8    2.14    0.19
   5   2   8    2.10    0.18
   6   2   8    2.26    0.14
   6   2   8    2.17    0.20
   6   2   8    1.70    0.19
   6   2   8    2.34    0.22
   7   2   8    0.17    0.09
   7   2   8    0.08    0.09
   7   2   8    0.19    0.09
   7   2   8    0.28    0.07
   8   2   8    0.22    0.11
   8   2   8    0.05    0.08
   8   2   8    0.13    0.09
   8   2   8    0.16    0.06
   9   2   8    0.16    0.10
   9   2   8    0.14    0.10
   9   2   8    0.13    0.10
  10   2   8    0.08    0.10
  10   2   8    0.21    0.12
  10   2   8    0.18    0.10
  11   2   8    0.65    0.18
  11   2   8    0.53    0.14
  11   2   8    0.66    0.15
  12   2   8    2.30    0.29
  12   2   8    1.34    0.21
  12   2   8    2.19    0.27
  13   2   8    3.01    0.32
  13   2   8    3.11    0.31
  13   2   8    3.16    0.31
  14   2   8    5.29    0.40
  14   2   8    4.67    0.42
  14   2   8    5.26    0.40
  15   2   8    3.44    0.37
  15   2   8    2.90    0.34
  15   2   8    2.93    0.36
  16   2   8    0.18    0.18
  17  -3  -8   -0.13    0.11
  16  -3  -8    0.33    0.13
  15  -3  -8    0.15    0.10
 -15   3   8   -0.01    0.12
  14  -3  -8    0.21    0.11
 -14   3   8    0.16    0.12
  13  -3  -8    0.05    0.09
 -13   3   8   -0.12    0.08
  12  -3  -8    3.43    0.23
 -12   3   8    3.77    0.29
 -11   3   8    0.32    0.11
 -10   3   8    0.42    0.11
   9  -3  -8    0.35    0.05
  -9   3   8    0.45    0.11
   8  -3  -8    0.06    0.04
  -8   3   8    0.20    0.08
   7  -3  -8    5.79    0.20
  -7   3   8    5.28    0.29
   6  -3  -8    1.82    0.09
  -6   3   8    1.61    0.15
  -5   3   8    0.85    0.11
  -4   3   8   14.26    0.52
  -4   3   8   13.41    0.51
  -3   3   8    6.03    0.26
  -3   3   8    5.70    0.25
  -2   3   8   24.96    0.82
  -2   3   8   23.79    0.90
  -1   3   8   22.01    0.73
  -1   3   8   21.78    0.83
   0   3   8   28.10    1.07
   0   3   8   30.01    0.96
   0   3   8   28.38    0.94
   1   3   8    3.95    0.18
   1   3   8    3.81    0.21
   1   3   8    3.89    0.24
   2   3   8    0.08    0.06
   2   3   8    0.09    0.07
   2   3   8   -0.02    0.05
   3   3   8    8.36    0.43
   3   3   8    9.62    0.40
   3   3   8    9.16    0.41
   4   3   8   20.71    0.70
   4   3   8   20.64    0.85
   4   3   8   20.04    0.74
   4   3   8   20.52    0.79
   5   3   8    4.85    0.33
   5   3   8    5.57    0.25
   5   3   8    6.05    0.32
   5   3   8    6.37    0.32
   6   3   8    2.73    0.21
   6   3   8    2.66    0.21
   6   3   8    2.70    0.17
   6   3   8    2.56    0.24
   7   3   8   16.81    0.62
   7   3   8   17.32    0.76
   7   3   8   17.19    0.67
   7   3   8   15.51    0.68
   8   3   8   14.01    0.67
   8   3   8   13.70    0.60
   8   3   8   13.95    0.61
   9   3   8    0.06    0.10
   9   3   8    0.22    0.10
   9   3   8    0.16    0.09
  10   3   8    2.50    0.24
  10   3   8    2.78    0.29
  10   3   8    2.87    0.25
  11   3   8    3.98    0.32
  11   3   8    3.70    0.31
  11   3   8    4.61    0.36
  12   3   8    2.36    0.30
  12   3   8    2.32    0.28
  12   3   8    2.00    0.25
  13   3   8    2.62    0.30
  13   3   8    2.49    0.31
  13   3   8    2.49    0.29
  14   3   8    0.53    0.19
  14   3   8    0.47    0.17
  15   3   8    0.48    0.17
  15   3   8    0.71    0.22
  17  -4  -8    2.93    0.28
  16  -4  -8    1.54    0.20
  15  -4  -8    5.85    0.35
 -15   4   8    6.44    0.43
  14  -4  -8    8.35    0.41
 -14   4   8    8.20    0.48
  13  -4  -8    3.14    0.23
 -13   4   8    3.02    0.28
  12  -4  -8    2.19    0.19
 -12   4   8    2.49    0.26
  11  -4  -8    0.25    0.08
 -11   4   8    0.32    0.11
 -10   4   8    1.39    0.19
  -9   4   8    3.87    0.26
  -8   4   8    3.24    0.23
  -7   4   8   11.78    0.49
   6  -4  -8   12.91    0.40
  -6   4   8   12.87    0.52
   5  -4  -8   14.23    0.44
  -5   4   8   13.59    0.54
  -5   4   8   14.20    0.52
  -4   4   8    2.92    0.15
  -4   4   8    2.32    0.16
   3  -4  -8    0.01    0.03
  -3   4   8    0.04    0.05
  -3   4   8    0.03    0.04
  -2   4   8    4.59    0.23
  -2   4   8    4.77    0.25
  -1   4   8    0.31    0.07
  -1   4   8    0.23    0.07
   0   4   8    0.62    0.10
   0   4   8    0.58    0.08
   0   4   8    0.50    0.08
   1   4   8    0.02    0.06
   1   4   8    0.02    0.05
   1   4   8   -0.02    0.04
   2   4   8    0.00    0.06
   2   4   8    0.03    0.06
   3   4   8    6.42    0.36
   3   4   8    6.91    0.33
   3   4   8    6.59    0.32
   4   4   8    1.44    0.15
   4   4   8    1.43    0.12
   4   4   8    1.32    0.15
   4   4   8    1.32    0.18
   5   4   8    2.98    0.24
   5   4   8    3.23    0.19
   5   4   8    3.06    0.22
   5   4   8    3.48    0.23
   6   4   8    1.97    0.16
   6   4   8    2.02    0.18
   6   4   8    2.07    0.19
   6   4   8    2.45    0.23
   7   4   8    6.10    0.34
   7   4   8    5.87    0.33
   7   4   8    5.86    0.38
   8   4   8    2.64    0.25
   8   4   8    2.43    0.22
   8   4   8    2.27    0.21
   9   4   8    6.47    0.38
   9   4   8    6.68    0.39
   9   4   8    6.54    0.43
  10   4   8    2.01    0.24
  10   4   8    2.34    0.29
  10   4   8    2.16    0.22
  11   4   8   -0.07    0.11
  11   4   8   -0.07    0.10
  12   4   8    2.86    0.32
  12   4   8    2.88    0.32
  13   4   8    0.82    0.20
  13   4   8    0.79    0.20
  14   4   8    1.44    0.25
  14   4   8    1.56    0.28
  15   4   8    2.82    0.37
  16  -5  -8    1.14    0.18
  15  -5  -8    1.41    0.19
 -15   5   8    1.60    0.26
  14  -5  -8    3.35    0.25
 -14   5   8    4.27    0.36
  13  -5  -8    1.25    0.16
 -13   5   8    1.18    0.21
  12  -5  -8    2.39    0.20
 -12   5   8    2.30    0.26
  11  -5  -8    2.33    0.19
 -11   5   8    2.57    0.25
  10  -5  -8    1.10    0.13
 -10   5   8    1.11    0.17
  -9   5   8   -0.04    0.08
  -8   5   8    1.93    0.19
  -7   5   8   10.04    0.45
  -6   5   8    2.37    0.19
  -5   5   8    0.32    0.09
  -5   5   8    0.27    0.06
  -4   5   8   14.51    0.57
  -3   5   8    0.49    0.09
  -2   5   8    1.23    0.12
  -1   5   8    0.17    0.06
   0   5   8    6.41    0.29
   0   5   8    6.35    0.28
   1   5   8    5.94    0.28
   1   5   8    6.11    0.28
   2   5   8    0.16    0.07
   3   5   8    2.06    0.20
   3   5   8    1.98    0.17
   3   5   8    1.87    0.16
   4   5   8    6.52    0.38
   4   5   8    6.49    0.33
   4   5   8    6.57    0.32
   5   5   8    4.56    0.26
   5   5   8    4.62    0.27
   5   5   8    4.12    0.31
   5   5   8    4.45    0.25
   6   5   8    3.17    0.24
   6   5   8    3.19    0.22
   6   5   8    3.29    0.28
   7   5   8    0.05    0.10
   7   5   8    0.20    0.09
   7   5   8    0.21    0.09
   8   5   8    1.74    0.21
   8   5   8    1.56    0.23
   9   5   8    3.91    0.32
   9   5   8    3.37    0.28
  10   5   8    0.26    0.12
  10   5   8    0.25    0.15
  11   5   8    0.54    0.16
  11   5   8    1.10    0.22
  12   5   8    0.76    0.21
  12   5   8    0.62    0.18
  13   5   8    0.18    0.15
  13   5   8    0.13    0.15
  14   5   8    0.10    0.14
  14   5   8    0.05    0.13
  16  -6  -8    1.54    0.21
  15  -6  -8    1.10    0.17
 -15   6   8    1.06    0.22
  14  -6  -8    1.41    0.18
 -14   6   8    1.58    0.25
  13  -6  -8    0.17    0.10
 -13   6   8   -0.11    0.10
  12  -6  -8    4.81    0.28
 -12   6   8    5.04    0.37
  11  -6  -8    3.15    0.21
 -11   6   8    2.98    0.28
  10  -6  -8    0.48    0.10
 -10   6   8    0.59    0.14
   9  -6  -8    0.09    0.07
  -9   6   8    0.04    0.09
  -8   6   8    6.93    0.38
  -7   6   8    7.95    0.41
  -6   6   8    2.91    0.23
  -5   6   8    3.80    0.25
  -4   6   8    6.98    0.35
  -3   6   8   58.75    1.93
  -2   6   8    1.36    0.15
  -1   6   8   46.30    1.54
   0   6   8   11.03    0.45
   0   6   8   10.75    0.42
   1   6   8   32.71    1.13
   1   6   8   33.28    1.08
   2   6   8   14.56    0.55
   3   6   8    1.97    0.17
   4   6   8   11.90    0.49
   5   6   8    1.28    0.20
   5   6   8    1.23    0.16
   6   6   8    0.94    0.15
   6   6   8    1.00    0.18
   7   6   8    2.76    0.24
   7   6   8    2.54    0.27
   8   6   8   -0.11    0.08
   8   6   8   -0.04    0.09
   9   6   8    1.66    0.25
   9   6   8    1.87    0.23
  10   6   8    0.39    0.15
  10   6   8    0.28    0.15
  11   6   8    1.13    0.24
  11   6   8    1.15    0.21
  12   6   8    1.40    0.26
  12   6   8    1.19    0.22
  13   6   8    2.54    0.34
  13   6   8    2.67    0.31
  14   6   8    0.06    0.14
  16  -7  -8   -0.16    0.11
  15  -7  -8    0.10    0.12
 -15   7   8    0.13    0.15
  14  -7  -8   -0.08    0.09
 -14   7   8   -0.02    0.14
  13  -7  -8    2.93    0.24
 -13   7   8    3.20    0.35
  12  -7  -8    0.24    0.10
 -12   7   8    0.24    0.14
  11  -7  -8    6.82    0.33
 -11   7   8    6.18    0.42
  10  -7  -8    2.86    0.20
 -10   7   8    2.78    0.28
   9  -7  -8    7.57    0.35
  -9   7   8    8.12    0.45
   8  -7  -8    5.23    0.26
  -8   7   8    5.02    0.34
   7  -7  -8    4.20    0.22
  -7   7   8    4.63    0.31
  -6   7   8    7.48    0.40
  -5   7   8    0.28    0.10
  -4   7   8   17.75    0.71
  -3   7   8    0.50    0.11
  -2   7   8   10.77    0.48
  -1   7   8    2.58    0.21
   0   7   8   10.45    0.46
   1   7   8    5.96    0.28
   1   7   8    6.01    0.31
   2   7   8    3.28    0.21
   3   7   8    0.44    0.10
   4   7   8    0.65    0.12
   5   7   8   10.49    0.47
   6   7   8    7.08    0.45
   6   7   8    7.73    0.39
   7   7   8   15.46    0.74
   7   7   8   14.50    0.63
   8   7   8    7.65    0.48
   8   7   8    6.55    0.39
   9   7   8    0.39    0.15
   9   7   8    0.91    0.21
  10   7   8    5.62    0.39
  10   7   8    6.43    0.45
  11   7   8    1.79    0.28
  11   7   8    1.79    0.26
  12   7   8    0.36    0.16
  12   7   8    0.54    0.20
  13   7   8    4.30    0.38
  15  -8  -8    0.13    0.13
 -15   8   8    0.67    0.21
  14  -8  -8    0.48    0.14
 -14   8   8    1.06    0.24
  13  -8  -8    3.26    0.25
 -13   8   8    2.97    0.34
  12  -8  -8    0.70    0.13
 -12   8   8    0.73    0.20
  11  -8  -8    3.53    0.24
 -11   8   8    3.84    0.34
  10  -8  -8    1.36    0.15
 -10   8   8    1.05    0.21
   9  -8  -8    3.14    0.20
  -9   8   8    3.36    0.30
   8  -8  -8    1.30    0.14
  -8   8   8    1.46    0.21
   7  -8  -8   18.32    0.66
  -7   8   8   18.35    0.78
   6  -8  -8    0.23    0.07
  -6   8   8    0.21    0.11
  -5   8   8    1.51    0.20
  -4   8   8    0.82    0.15
  -3   8   8   11.05    0.51
  -2   8   8    0.68    0.14
  -1   8   8    3.16    0.24
   0   8   8    0.81    0.14
   3   8   8    0.02    0.07
   4   8   8   12.87    0.53
   5   8   8    0.45    0.11
   6   8   8    2.68    0.23
   7   8   8    4.75    0.32
   7   8   8    5.19    0.39
   8   8   8    4.07    0.36
   8   8   8    3.39    0.29
   9   8   8    0.51    0.17
   9   8   8    0.45    0.16
  10   8   8    7.87    0.53
  10   8   8    7.29    0.46
  11   8   8    3.08    0.38
  11   8   8    2.12    0.28
  12   8   8    1.97    0.28
 -15   9   8    0.15    0.18
 -14   9   8    2.33    0.33
 -13   9   8    0.27    0.17
 -12   9   8    1.56    0.26
 -11   9   8    0.14    0.14
 -10   9   8    0.82    0.20
  -9   9   8    0.07    0.12
  -8   9   8    7.13    0.44
  -7   9   8    0.30    0.14
  -6   9   8    5.34    0.36
  -5   9   8    0.48    0.14
  -4   9   8    1.64    0.21
  -3   9   8    4.30    0.31
  -2   9   8    2.86    0.26
  -1   9   8    0.05    0.08
   0   9   8    9.84    0.48
   6   9   8    0.64    0.14
   7   9   8    0.26    0.12
   7   9   8    0.38    0.15
   8   9   8    0.22    0.13
   8   9   8    0.41    0.17
   9   9   8    5.55    0.39
   9   9   8    5.61    0.45
  10   9   8    0.06    0.14
  10   9   8    0.26    0.17
  11   9   8    0.45    0.17
  12   9   8   -0.19    0.12
 -14  10   8    1.56    0.30
 -13  10   8    0.64    0.21
 -12  10   8    3.35    0.39
 -11  10   8    0.22    0.15
 -10  10   8    5.72    0.44
  -9  10   8    0.21    0.15
  -8  10   8    4.91    0.39
  -7  10   8    8.51    0.51
  -6  10   8    3.34    0.31
  -5  10   8    2.99    0.29
  -4  10   8    1.15    0.20
  -3  10   8   13.02    0.62
  -2  10   8    2.82    0.28
  -1  10   8   16.28    0.71
   0  10   8    1.05    0.18
   8  10   8    0.15    0.16
   9  10   8    0.53    0.20
 -13  11   8    0.80    0.27
 -12  11   8   -0.16    0.15
 -11  11   8    1.44    0.27
 -10  11   8    0.18    0.15
  -9  11   8    9.95    0.60
  -8  11   8    0.80    0.21
  -7  11   8    8.50    0.53
  -6  11   8    9.22    0.53
  -5  11   8    0.75    0.19
  -4  11   8    4.18    0.35
  -3  11   8    0.02    0.11
  -2  11   8    6.94    0.43
  -1  11   8    0.58    0.16
   8  11   8    1.78    0.31
 -11  12   8    0.21    0.18
 -10  12   8    3.65    0.41
  -9  12   8    0.17    0.15
  -8  12   8    2.79    0.34
  -7  12   8   14.43    0.75
  -6  12   8    0.32    0.16
  -5  12   8    1.36    0.25
  -4  12   8    0.33    0.15
  -3  12   8    3.26    0.32
  -2  12   8    0.72    0.18
  -1  12   8    1.57    0.24
  -8  13   8    3.43    0.39
  -7  13   8    0.23    0.17
  -6  13   8    0.61    0.21
  -5  13   8    0.01    0.14
  -4  13   8    0.23    0.16
  -3  13   8    1.97    0.27
  -2  13   8    0.78    0.20
   5  19  -9   -0.08    0.11
   4  19  -9    0.14    0.12
   3  19  -9    0.25    0.12
   2  19  -9    0.16    0.12
   6  18  -9    0.17    0.13
   5  18  -9    0.16    0.12
   4  18  -9    1.63    0.20
   3  18  -9    0.78    0.16
   2  18  -9    0.03    0.09
   8  17  -9    1.35    0.21
   7  17  -9    1.02    0.18
   6  17  -9    1.12    0.19
   5  17  -9    4.13    0.30
   4  17  -9    5.96    0.36
   3  17  -9    0.17    0.11
   9  16  -9    1.17    0.20
   8  16  -9    2.73    0.27
   7  16  -9    2.17    0.24
   6  16  -9    7.94    0.43
   5  16  -9    3.08    0.27
   4  16  -9    5.85    0.36
   3 -16   9    3.14    0.38
   4 -16   9    2.78    0.29
   5 -16   9    1.44    0.23
   6 -16   9    3.65    0.34
   7 -16   9    0.18    0.14
   8 -16   9    5.32    0.42
   9 -16   9    0.09    0.14
  10 -16   9    2.76    0.36
  11 -16   9    1.36    0.27
  12 -16   9    0.68    0.22
  10  15  -9    0.32    0.14
   9  15  -9    2.80    0.27
   8  15  -9    0.09    0.13
   7  15  -9   13.55    0.59
   6  15  -9    0.64    0.15
   5  15  -9    5.33    0.33
  -2 -15   9    0.66    0.20
  -1 -15   9    2.67    0.33
   0 -15   9   12.86    0.69
   1 -15   9    1.58    0.22
   1 -15   9    1.27    0.25
   2 -15   9    0.85    0.21
   2 -15   9    0.78    0.17
   3 -15   9    3.68    0.31
   3 -15   9    3.95    0.35
   4 -15   9    0.63    0.17
   5 -15   9    7.98    0.48
   6 -15   9    0.07    0.12
   7 -15   9    4.74    0.39
   8 -15   9   -0.05    0.10
   9 -15   9    1.69    0.27
  10 -15   9    0.98    0.23
  11 -15   9    0.38    0.18
  12 -15   9    0.02    0.14
  13 -15   9    2.87    0.39
  11  14  -9    0.05    0.13
  10  14  -9    0.06    0.13
   9  14  -9    2.04    0.24
   8  14  -9    3.23    0.26
   7  14  -9    5.55    0.34
   6  14  -9    3.29    0.27
  -4 -14   9    1.64    0.24
  -3 -14   9    0.06    0.14
  -2 -14   9    0.13    0.12
  -1 -14   9    8.76    0.52
   0 -14   9    4.45    0.37
   1 -14   9    0.68    0.18
   1 -14   9    0.90    0.18
   2 -14   9    8.91    0.53
   2 -14   9    8.49    0.49
   3 -14   9    0.50    0.15
   4 -14   9   11.21    0.59
   5 -14   9    0.38    0.14
   6 -14   9    1.46    0.24
   7 -14   9    1.53    0.24
   8 -14   9    1.99    0.28
   9 -14   9    2.51    0.32
  10 -14   9    1.32    0.24
  11 -14   9    0.83    0.22
  12 -14   9    1.58    0.29
  13 -14   9    0.22    0.17
  12  13  -9    0.28    0.15
  11  13  -9    0.49    0.15
  10  13  -9    1.06    0.18
   9  13  -9    0.29    0.13
   8  13  -9   15.50    0.65
   7  13  -9    0.09    0.11
   6  13  -9    4.32    0.29
  -6 -13   9    3.87    0.34
  -5 -13   9    1.46    0.22
  -4 -13   9    4.56    0.36
  -3 -13   9    0.12    0.13
  -2 -13   9    0.38    0.15
  -1 -13   9    0.10    0.11
   0 -13   9    0.23    0.11
   0 -13   9    0.08    0.12
   1 -13   9    2.01    0.24
   1 -13   9    2.44    0.29
   2 -13   9    0.41    0.15
   2 -13   9    0.61    0.15
   3 -13   9    0.05    0.10
   4 -13   9    1.65    0.23
   5 -13   9    0.44    0.15
   6 -13   9    3.38    0.31
   7 -13   9    2.28    0.28
   8 -13   9    0.03    0.11
   9 -13   9    0.19    0.13
  10 -13   9    0.95    0.21
  11 -13   9    1.18    0.25
  12 -13   9   -0.01    0.12
  13 -13   9   -0.04    0.14
  14 -13   9   -0.05    0.14
  13  12  -9    0.20    0.14
  12  12  -9    2.27    0.25
  11  12  -9    0.63    0.14
  10  12  -9    7.26    0.40
   9  12  -9    4.27    0.30
   8  12  -9    8.55    0.42
  -8 -12   9    7.53    0.48
   7  12  -9    4.86    0.31
  -7 -12   9    4.67    0.36
  -6 -12   9    5.70    0.39
  -5 -12   9    1.19    0.21
  -4 -12   9   19.08    0.83
  -3 -12   9    7.93    0.47
  -2 -12   9   17.01    0.76
  -1 -12   9    1.60    0.23
   0 -12   9    0.64    0.17
   0 -12   9    0.60    0.14
   1 -12   9    2.98    0.26
   1 -12   9    2.10    0.26
   2 -12   9    5.80    0.38
   3 -12   9    2.14    0.25
   4 -12   9    0.75    0.17
   5 -12   9    0.12    0.12
   6 -12   9    7.26    0.45
   7 -12   9    3.22    0.29
   8 -12   9    1.20    0.22
   9 -12   9    1.60    0.25
  10 -12   9    0.35    0.15
  11 -12   9    1.46    0.26
  12 -12   9    0.17    0.16
  13 -12   9    0.38    0.18
  14 -12   9    1.96    0.29
  14 -12   9    1.85    0.32
  15 -12   9    0.45    0.19
  14  11  -9    0.10    0.11
  14  11  -9    0.17    0.14
  13  11  -9    1.57    0.21
  12  11  -9    2.87    0.27
  11  11  -9    5.68    0.33
  10  11  -9    0.46    0.13
   9  11  -9    4.22    0.28
  -9 -11   9    4.44    0.34
   8  11  -9   -0.02    0.09
  -8 -11   9    0.03    0.11
   7  11  -9   13.13    0.55
  -7 -11   9   13.29    0.63
  -6 -11   9    6.00    0.39
  -5 -11   9    5.63    0.38
  -4 -11   9    5.57    0.37
  -3 -11   9   14.51    0.67
  -2 -11   9    0.93    0.17
  -1 -11   9    0.13    0.10
   0 -11   9    5.43    0.37
   0 -11   9    5.48    0.36
   1 -11   9   12.76    0.61
   1 -11   9   13.25    0.62
   2 -11   9    1.56    0.22
   3 -11   9    3.82    0.30
   4 -11   9    0.94    0.17
   5 -11   9   16.78    0.76
   6 -11   9    3.08    0.29
   7 -11   9   10.69    0.58
   8 -11   9    0.94    0.19
   9 -11   9    1.87    0.27
  10 -11   9    1.44    0.26
  11 -11   9    0.39    0.15
  11 -11   9    0.06    0.14
  12 -11   9    0.02    0.12
  12 -11   9    0.11    0.14
  13 -11   9    3.61    0.34
  13 -11   9    4.46    0.42
  14 -11   9    0.03    0.15
  14 -11   9    0.16    0.13
  15 -11   9    0.53    0.19
  15 -11   9    0.66    0.22
  16 -11   9    0.13    0.15
  15  10  -9    0.74    0.16
  14  10  -9    1.61    0.20
  14  10  -9    1.80    0.23
  13  10  -9    6.16    0.35
  12  10  -9   11.80    0.53
  11  10  -9    0.38    0.13
  10  10  -9    5.16    0.32
 -10 -10   9    5.50    0.37
   9  10  -9    0.02    0.09
  -9 -10   9    0.15    0.11
   8  10  -9    4.91    0.29
  -8 -10   9    5.02    0.34
  -7 -10   9    0.42    0.14
  -6 -10   9    2.66    0.25
  -5 -10   9    1.18    0.19
  -4 -10   9    6.20    0.37
  -3 -10   9    0.64    0.14
  -2 -10   9    0.03    0.09
  -1 -10   9   17.85    0.76
   0 -10   9   11.48    0.54
   0 -10   9   10.65    0.54
   1 -10   9    4.63    0.32
   1 -10   9    4.87    0.33
   2 -10   9   24.79    1.00
   3 -10   9    0.73    0.15
   4 -10   9   44.01    1.63
   5 -10   9    4.68    0.35
   6 -10   9   31.19    1.23
   7 -10   9    0.07    0.09
   8 -10   9    0.18    0.12
   9 -10   9   -0.15    0.09
   9 -10   9   -0.10    0.08
  10 -10   9    4.40    0.34
  10 -10   9    4.25    0.37
  11 -10   9    0.46    0.14
  11 -10   9    0.30    0.16
  12 -10   9   -0.04    0.13
  12 -10   9    0.28    0.13
  13 -10   9    1.13    0.25
  13 -10   9    1.01    0.21
  14 -10   9   -0.05    0.14
  14 -10   9   -0.05    0.13
  15 -10   9    3.23    0.42
  15 -10   9    3.49    0.38
  16 -10   9   -0.03    0.14
  16   9  -9    0.78    0.17
  15   9  -9    0.12    0.13
  15   9  -9    0.06    0.12
  14   9  -9    1.54    0.19
  13   9  -9    6.86    0.38
  12   9  -9    0.08    0.10
  11   9  -9    4.83    0.30
 -11  -9   9    4.29    0.33
  10   9  -9   -0.05    0.09
 -10  -9   9    0.03    0.09
   9   9  -9    2.76    0.22
  -9  -9   9    2.77    0.26
   8   9  -9    1.56    0.17
  -8  -9   9    1.66    0.21
  -7  -9   9    2.49    0.24
  -6  -9   9    0.41    0.12
  -5  -9   9   19.38    0.79
  -4  -9   9    0.68    0.15
  -3  -9   9    3.34    0.26
  -2  -9   9    0.84    0.15
  -1  -9   9    1.45    0.19
  -1  -9   9    1.44    0.19
  -1  -9   9    1.57    0.20
   0  -9   9    0.58    0.13
   0  -9   9    0.25    0.11
   0  -9   9    0.41    0.11
   1  -9   9    0.76    0.13
   1  -9   9    0.85    0.16
   2  -9   9    0.20    0.08
   2  -9   9    0.08    0.10
   3  -9   9    0.13    0.10
   4  -9   9    0.70    0.15
   5  -9   9    2.16    0.25
   6  -9   9    3.28    0.29
   7  -9   9   10.03    0.50
   7  -9   9   10.65    0.56
   8  -9   9    0.26    0.12
   8  -9   9    0.29    0.12
   9  -9   9    0.12    0.10
   9  -9   9    0.15    0.11
  10  -9   9    0.20    0.11
  10  -9   9   -0.04    0.11
  11  -9   9    0.16    0.14
  11  -9   9    0.34    0.14
  12  -9   9   -0.06    0.10
  12  -9   9    0.04    0.11
  13  -9   9    0.15    0.13
  13  -9   9    0.12    0.15
  14  -9   9    1.26    0.26
  14  -9   9    0.99    0.21
  15  -9   9    1.02    0.25
  15  -9   9    0.48    0.17
  16  -9   9    1.46    0.26
  16   8  -9    0.05    0.12
  16   8  -9    0.03    0.12
  15   8  -9    0.49    0.14
  15   8  -9    0.51    0.14
  14   8  -9    0.36    0.13
  13   8  -9    0.11    0.10
  12   8  -9    0.19    0.10
 -12  -8   9   -0.08    0.09
  11   8  -9    0.18    0.10
 -11  -8   9    0.27    0.11
  10   8  -9    0.07    0.09
 -10  -8   9    0.05    0.10
   9   8  -9    0.82    0.14
  -9  -8   9    0.91    0.16
   8   8  -9    7.65    0.37
  -8  -8   9    7.82    0.41
  -7  -8   9    1.03    0.16
  -6  -8   9   23.50    0.91
  -5  -8   9   13.42    0.59
  -4  -8   9   18.93    0.75
  -3  -8   9    0.70    0.14
  -2  -8   9   28.06    1.02
  -2  -8   9   27.28    1.01
  -1  -8   9    2.82    0.25
  -1  -8   9    2.97    0.23
  -1  -8   9    2.83    0.22
   0  -8   9    4.34    0.30
   0  -8   9    3.90    0.26
   0  -8   9    4.03    0.27
   1  -8   9    2.04    0.18
   1  -8   9    2.13    0.22
   2  -8   9    0.53    0.11
   2  -8   9    0.46    0.13
   3  -8   9    1.15    0.18
   3  -8   9    1.10    0.14
   4  -8   9    0.84    0.13
   4  -8   9    0.78    0.16
   5  -8   9    0.93    0.18
   6  -8   9    5.79    0.38
   6  -8   9    5.86    0.35
   7  -8   9    0.39    0.13
   7  -8   9    0.37    0.11
   8  -8   9    0.86    0.17
   8  -8   9    0.89    0.17
   9  -8   9    7.94    0.44
   9  -8   9    8.02    0.48
  10  -8   9    0.58    0.16
  10  -8   9    0.86    0.17
  11  -8   9    0.70    0.19
  11  -8   9    1.20    0.20
  12  -8   9    0.98    0.21
  12  -8   9    0.78    0.19
  13  -8   9    0.02    0.13
  13  -8   9   -0.05    0.11
  14  -8   9    1.23    0.23
  14  -8   9    1.44    0.28
  15  -8   9    1.19    0.26
  15  -8   9    1.60    0.26
  16  -8   9    0.97    0.26
  16  -8   9    0.60    0.20
  16   7  -9    0.07    0.11
  16   7  -9    0.04    0.11
  15   7  -9    0.82    0.15
  15   7  -9    1.00    0.17
  14   7  -9    0.05    0.10
  13   7  -9    0.06    0.08
  12   7  -9    1.30    0.16
 -12  -7   9    1.45    0.20
  11   7  -9    4.56    0.27
 -11  -7   9    4.61    0.31
  10   7  -9    0.19    0.09
 -10  -7   9   -0.03    0.08
   9   7  -9    5.60    0.30
  -9  -7   9    5.71    0.34
   8   7  -9    0.42    0.11
  -8  -7   9    0.43    0.12
  -7  -7   9    2.25    0.21
  -6  -7   9    8.46    0.42
  -5  -7   9   36.75    1.29
  -4  -7   9   15.93    0.64
  -3  -7   9    8.01    0.39
  -2  -7   9    0.08    0.07
  -1  -7   9    6.95    0.35
  -1  -7   9    6.70    0.39
  -1  -7   9    6.61    0.33
   0  -7   9   16.27    0.63
   0  -7   9   16.28    0.70
   0  -7   9   16.27    0.65
   1  -7   9   16.36    0.70
   1  -7   9   15.46    0.62
   2  -7   9    4.12    0.24
   2  -7   9    4.71    0.30
   3  -7   9   12.71    0.59
   3  -7   9   12.26    0.51
   4  -7   9    0.44    0.10
   4  -7   9    0.62    0.14
   5  -7   9   51.34    1.63
   5  -7   9   48.23    1.64
   5  -7   9   47.24    1.76
   6  -7   9    0.40    0.10
   6  -7   9    0.36    0.12
   6  -7   9    0.49    0.14
   7  -7   9    1.19    0.18
   7  -7   9    1.62    0.22
   8  -7   9    4.02    0.32
   8  -7   9    4.07    0.29
   9  -7   9    6.93    0.40
   9  -7   9    5.81    0.40
  10  -7   9    1.23    0.23
  10  -7   9    1.30    0.20
  11  -7   9    1.12    0.19
  11  -7   9    1.20    0.22
  12  -7   9    0.61    0.16
  12  -7   9    0.62    0.19
  13  -7   9    4.31    0.36
  13  -7   9    4.30    0.40
  14  -7   9    0.85    0.20
  14  -7   9    1.10    0.25
  15  -7   9    0.25    0.17
  15  -7   9    0.18    0.14
  16  -7   9    0.66    0.23
  16  -7   9    0.45    0.18
  17  -7   9    0.28    0.18
  17   6  -9    0.07    0.11
  16   6  -9   -0.02    0.10
  16   6  -9    0.13    0.12
  15   6  -9    0.09    0.10
  15   6  -9    0.13    0.12
  14   6  -9    3.01    0.23
  13   6  -9    3.80    0.25
 -13  -6   9    3.97    0.30
  12   6  -9   16.38    0.63
 -12  -6   9   16.42    0.70
  11   6  -9    0.38    0.10
 -11  -6   9    0.57    0.13
  10   6  -9   23.59    0.82
 -10  -6   9   22.97    0.89
   9   6  -9    0.63    0.11
  -9  -6   9    0.71    0.13
   8   6  -9    9.13    0.40
  -8  -6   9    9.47    0.44
  -7  -6   9   10.57    0.48
  -6  -6   9   35.81    1.25
  -5  -6   9    1.26    0.15
  -4  -6   9    0.15    0.07
  -3  -6   9    1.09    0.13
  -2  -6   9    3.59    0.23
  -1  -6   9   17.68    0.68
  -1  -6   9   18.55    0.76
   0  -6   9    0.28    0.07
   0  -6   9    0.39    0.08
   0  -6   9    0.47    0.11
   1  -6   9    0.26    0.07
   1  -6   9    0.15    0.08
   2  -6   9    0.76    0.10
   2  -6   9    0.85    0.15
   3  -6   9    0.95    0.16
   3  -6   9    0.74    0.10
   4  -6   9   29.15    0.99
   4  -6   9   28.19    1.11
   4  -6   9   28.90    1.03
   5  -6   9    3.78    0.28
   5  -6   9    4.13    0.28
   5  -6   9    3.93    0.22
   6  -6   9    6.37    0.36
   6  -6   9    6.47    0.39
   6  -6   9    6.30    0.30
   7  -6   9   13.37    0.58
   7  -6   9   12.56    0.62
   8  -6   9    7.37    0.44
   8  -6   9    8.16    0.43
   9  -6   9    6.97    0.40
   9  -6   9    6.33    0.41
  10  -6   9    4.31    0.36
  10  -6   9    5.23    0.35
  11  -6   9    4.71    0.37
  11  -6   9    4.73    0.35
  12  -6   9    1.14    0.21
  12  -6   9    0.76    0.19
  13  -6   9    1.21    0.22
  13  -6   9    1.20    0.25
  14  -6   9    0.22    0.15
  14  -6   9    0.05    0.12
  15  -6   9    0.10    0.13
  15  -6   9    0.04    0.13
  16  -6   9    1.94    0.32
  16  -6   9    2.09    0.29
  17   5  -9    0.66    0.15
  17   5  -9    0.94    0.19
  16   5  -9    5.22    0.32
  16   5  -9    5.75    0.36
  15   5  -9    0.23    0.11
  15   5  -9    0.21    0.11
  14   5  -9    0.24    0.10
 -14  -5   9    0.23    0.13
  13   5  -9    3.97    0.25
 -13  -5   9    3.81    0.30
  12   5  -9   -0.01    0.08
 -12  -5   9    0.10    0.10
  11   5  -9    6.27    0.31
 -11  -5   9    6.49    0.36
  10   5  -9    1.23    0.14
 -10  -5   9    1.57    0.18
   9   5  -9    2.16    0.18
  -9  -5   9    1.63    0.19
   8   5  -9    2.79    0.19
  -8  -5   9    2.79    0.21
  -7  -5   9    6.84    0.34
  -6  -5   9   19.12    0.72
  -5  -5   9    4.08    0.24
  -4  -5   9    0.47    0.09
  -3  -5   9   27.90    0.98
  -2  -5   9    0.78    0.11
  -1  -5   9    3.27    0.20
  -1  -5   9    3.21    0.25
   0  -5   9    1.67    0.13
   0  -5   9    2.33    0.21
   0  -5   9    2.01    0.15
   1  -5   9    0.19    0.06
   1  -5   9    0.24    0.09
   2  -5   9    1.43    0.12
   2  -5   9    1.47    0.19
   3  -5   9    0.71    0.13
   3  -5   9    0.87    0.10
   3  -5   9    0.92    0.16
   4  -5   9    0.34    0.10
   4  -5   9    0.31    0.07
   4  -5   9    0.23    0.09
   5  -5   9    0.83    0.14
   5  -5   9    1.15    0.18
   5  -5   9    1.18    0.12
   6  -5   9    0.14    0.06
   6  -5   9    0.02    0.07
   6  -5   9    0.08    0.09
   7  -5   9    0.25    0.07
   7  -5   9    0.43    0.12
   7  -5   9    0.31    0.11
   8  -5   9    9.78    0.52
   8  -5   9    9.61    0.48
   9  -5   9    3.05    0.26
   9  -5   9    3.16    0.30
  10  -5   9    5.12    0.37
  10  -5   9    5.14    0.34
  11  -5   9    1.07    0.21
  11  -5   9    0.87    0.18
  12  -5   9    0.63    0.18
  12  -5   9    0.47    0.15
  13  -5   9   -0.12    0.10
  13  -5   9   -0.13    0.09
  14  -5   9    0.18    0.14
  14  -5   9    0.42    0.16
  15  -5   9    0.94    0.20
  15  -5   9    0.98    0.24
  16  -5   9    1.20    0.27
  16  -5   9    1.39    0.26
  18   4  -9   -0.11    0.11
  17   4  -9    2.56    0.26
  17   4  -9    1.97    0.21
  16   4  -9    0.75    0.14
  16   4  -9    0.79    0.17
  15   4  -9    2.03    0.22
  15   4  -9    2.12    0.20
  14   4  -9   -0.02    0.08
 -14  -4   9   -0.04    0.10
  13   4  -9    1.90    0.17
 -13  -4   9    1.68    0.21
  12   4  -9    0.61    0.11
 -12  -4   9    0.45    0.13
  11   4  -9    0.62    0.11
 -11  -4   9    0.63    0.13
  10   4  -9    3.32    0.21
 -10  -4   9    3.37    0.24
   9   4  -9    2.46    0.18
  -9  -4   9    2.54    0.20
   8   4  -9    5.13    0.27
  -8  -4   9    5.97    0.30
  -7  -4   9   12.21    0.50
  -6  -4   9   26.42    0.93
  -5  -4   9    9.03    0.39
  -4  -4   9   28.95    1.00
  -3  -4   9    2.31    0.16
  -2  -4   9   44.41    1.46
  -1  -4   9    0.69    0.09
  -1  -4   9    0.86    0.14
   0  -4   9   12.01    0.46
   0  -4   9   11.66    0.54
   1  -4   9    7.01    0.39
   1  -4   9    7.63    0.31
   2  -4   9    0.65    0.13
   2  -4   9    0.65    0.08
   3  -4   9    0.44    0.10
   3  -4   9    0.46    0.12
   3  -4   9    0.54    0.08
   4  -4   9    4.06    0.29
   4  -4   9    4.17    0.20
   4  -4   9    4.04    0.27
   5  -4   9    5.36    0.31
   5  -4   9    5.41    0.35
   5  -4   9    5.80    0.25
   6  -4   9    0.40    0.12
   6  -4   9    0.45    0.08
   6  -4   9    0.49    0.13
   7  -4   9    8.18    0.45
   7  -4   9    8.41    0.42
   7  -4   9    8.01    0.34
   8  -4   9    1.90    0.23
   8  -4   9    2.11    0.25
   9  -4   9   18.19    0.75
   9  -4   9   18.12    0.81
  10  -4   9    0.30    0.12
  10  -4   9    0.20    0.11
  11  -4   9    7.77    0.45
  11  -4   9    8.36    0.50
  12  -4   9   -0.11    0.10
  12  -4   9   -0.06    0.10
  13  -4   9   -0.06    0.09
  13  -4   9    0.03    0.11
  14  -4   9    1.24    0.23
  14  -4   9    0.69    0.19
  15  -4   9    0.27    0.15
  15  -4   9    0.20    0.16
  16  -4   9    0.53    0.18
  16  -4   9    0.19    0.18
  18   3  -9    2.61    0.25
  17   3  -9    0.30    0.14
  17   3  -9    0.04    0.10
  16   3  -9    7.78    0.41
  16   3  -9    6.79    0.35
  15   3  -9    2.98    0.25
  15   3  -9    3.24    0.23
  14   3  -9    0.68    0.12
 -14  -3   9    0.84    0.16
  13   3  -9    3.19    0.21
 -13  -3   9    3.35    0.26
  12   3  -9    0.45    0.09
 -12  -3   9    0.41    0.13
  11   3  -9   14.18    0.54
 -11  -3   9   15.24    0.62
  10   3  -9    0.61    0.10
 -10  -3   9    0.48    0.11
   9   3  -9   17.31    0.64
  -9  -3   9   19.06    0.70
   8   3  -9    5.40    0.26
  -8  -3   9    5.80    0.30
  -7  -3   9    7.30    0.34
  -6  -3   9   10.65    0.44
  -5  -3   9   17.47    0.64
  -4  -3   9   19.49    0.69
  -3  -3   9   21.17    0.74
  -2  -3   9   19.82    0.69
  -1  -3   9    0.60    0.08
  -1  -3   9    0.59    0.12
   0  -3   9   12.31    0.55
   0  -3   9   11.75    0.44
   1  -3   9    3.81    0.18
   1  -3   9    3.84    0.26
   2  -3   9    2.15    0.20
   2  -3   9    2.15    0.19
   2  -3   9    2.31    0.13
   3  -3   9    2.38    0.13
   3  -3   9    1.99    0.20
   3  -3   9    2.31    0.19
   4  -3   9    7.64    0.42
   4  -3   9    8.21    0.31
   4  -3   9    7.57    0.38
   5  -3   9   28.94    1.03
   5  -3   9   29.10    1.11
   5  -3   9   28.84    0.95
   6  -3   9    2.64    0.23
   6  -3   9    3.04    0.16
   6  -3   9    3.15    0.25
   7  -3   9   14.91    0.62
   7  -3   9   14.42    0.52
   7  -3   9   13.68    0.65
   8  -3   9    0.28    0.11
   8  -3   9    0.23    0.10
   8  -3   9    0.13    0.05
   9  -3   9    3.75    0.29
   9  -3   9    3.41    0.29
  10  -3   9    0.11    0.09
  10  -3   9   -0.02    0.10
  11  -3   9    6.86    0.42
  11  -3   9    7.36    0.46
  12  -3   9    0.14    0.13
  12  -3   9    0.12    0.11
  13  -3   9    1.40    0.25
  13  -3   9    1.06    0.21
  14  -3   9   -0.01    0.12
  14  -3   9   -0.07    0.11
  15  -3   9    0.00    0.13
  15  -3   9    0.37    0.16
  16  -3   9    0.95    0.22
  16  -3   9    1.16    0.25
  17  -3   9    1.82    0.35
  17   2  -9    0.51    0.15
  16   2  -9    3.13    0.27
  16   2  -9    3.00    0.23
  15   2  -9    0.82    0.13
  15   2  -9    0.74    0.15
 -15  -2   9    0.92    0.18
  14   2  -9    3.03    0.20
 -14  -2   9    2.97    0.26
  13   2  -9    0.38    0.09
 -13  -2   9    0.27    0.11
  12   2  -9   17.08    0.61
 -12  -2   9   17.55    0.71
  11   2  -9    0.61    0.10
 -11  -2   9    0.65    0.13
  10   2  -9   29.72    0.98
 -10  -2   9   29.93    1.06
   9   2  -9    0.02    0.06
  -9  -2   9    0.01    0.07
   8   2  -9   28.20    0.95
  -8  -2   9   30.03    1.02
  -7  -2   9    3.00    0.19
   6   2  -9   30.72    1.04
  -6  -2   9   29.11    1.01
   5   2  -9    0.54    0.06
  -5  -2   9    0.52    0.08
   4   2  -9   14.54    0.54
  -4  -2   9   14.05    0.52
  -3  -2   9   -0.01    0.04
  -2  -2   9   10.40    0.38
  -1  -2   9   10.40    0.38
   0  -2   9   17.96    0.60
   0  -2   9   17.73    0.73
   1  -2   9    0.83    0.12
   1  -2   9    0.80    0.13
   1  -2   9    1.17    0.08
   2  -2   9    1.30    0.17
   2  -2   9    1.38    0.09
   2  -2   9    1.36    0.16
   3  -2   9    0.88    0.07
   3  -2   9    0.75    0.13
   3  -2   9    1.06    0.14
   4  -2   9    7.76    0.41
   4  -2   9    8.03    0.29
   4  -2   9    7.87    0.38
   4  -2   9    7.50    0.40
   5  -2   9    5.61    0.23
   5  -2   9    5.43    0.31
   5  -2   9    5.82    0.35
   5  -2   9    5.61    0.34
   6  -2   9   29.42    1.20
   6  -2   9   30.68    1.16
   6  -2   9   29.32    1.07
   6  -2   9   31.75    0.99
   7  -2   9    1.37    0.19
   7  -2   9    0.76    0.15
   7  -2   9    1.29    0.10
   7  -2   9    0.87    0.14
   8  -2   9   11.47    0.56
   8  -2   9   10.86    0.42
   8  -2   9   11.51    0.58
   8  -2   9   11.52    0.53
   9  -2   9    0.40    0.12
   9  -2   9    0.52    0.14
   9  -2   9    0.67    0.16
  10  -2   9    5.88    0.41
  10  -2   9    5.67    0.39
  10  -2   9    6.28    0.39
  11  -2   9   -0.11    0.09
  11  -2   9    0.00    0.10
  11  -2   9   -0.16    0.08
  12  -2   9    0.23    0.14
  12  -2   9    0.05    0.12
  12  -2   9   -0.09    0.10
  13  -2   9    0.29    0.15
  13  -2   9    0.49    0.17
  14  -2   9    0.67    0.19
  14  -2   9    0.21    0.15
  15  -2   9    0.30    0.16
  15  -2   9    0.26    0.15
  16  -2   9    3.70    0.39
  16  -2   9    2.86    0.37
  17  -2   9    0.42    0.19
  17   1  -9    0.44    0.15
  16   1  -9    1.27    0.18
  15   1  -9    1.98    0.18
  15   1  -9    2.07    0.21
 -15  -1   9    2.57    0.26
  14   1  -9    0.08    0.09
  14   1  -9    0.36    0.09
 -14  -1   9    0.08    0.11
  13   1  -9    2.89    0.18
 -13  -1   9    2.94    0.26
  12   1  -9    0.33    0.08
 -12  -1   9    0.53    0.13
  11   1  -9    6.07    0.27
 -11  -1   9    5.41    0.32
  10   1  -9    0.02    0.05
 -10  -1   9    0.05    0.08
   9   1  -9    2.20    0.15
  -9  -1   9    1.98    0.18
   8   1  -9    0.47    0.08
  -8  -1   9    0.67    0.11
  -7  -1   9    0.73    0.11
  -6  -1   9   23.33    0.81
  -5  -1   9    0.33    0.06
  -4  -1   9    1.59    0.11
  -3  -1   9    1.49    0.10
  -2  -1   9   15.81    0.53
  -1  -1   9   14.19    0.48
   0  -1   9    2.04    0.19
   0  -1   9    2.15    0.10
   1  -1   9    4.59    0.17
   1  -1   9    4.27    0.26
   1  -1   9    4.59    0.28
   1  -1   9    4.87    0.27
   2  -1   9    0.77    0.13
   2  -1   9    0.56    0.11
   2  -1   9    0.69    0.13
   3  -1   9    9.46    0.31
   3  -1   9    9.44    0.45
   3  -1   9    9.09    0.44
   3  -1   9    8.59    0.41
   4  -1   9    9.89    0.49
   4  -1   9   10.21    0.49
   4  -1   9    9.95    0.45
   4  -1   9   10.25    0.34
   5  -1   9    7.06    0.36
   5  -1   9    7.26    0.26
   5  -1   9    6.61    0.38
   5  -1   9    7.07    0.39
   6  -1   9    3.44    0.16
   6  -1   9    3.38    0.27
   6  -1   9    3.72    0.28
   6  -1   9    3.69    0.26
   7  -1   9    5.17    0.33
   7  -1   9    5.57    0.23
   7  -1   9    5.03    0.31
   7  -1   9    4.82    0.33
   8  -1   9    1.19    0.11
   8  -1   9    1.32    0.19
   8  -1   9    0.98    0.16
   8  -1   9    1.31    0.20
   9  -1   9    6.17    0.37
   9  -1   9    5.50    0.38
   9  -1   9    6.72    0.41
  10  -1   9    5.00    0.37
  10  -1   9    5.12    0.36
  10  -1   9    4.63    0.33
  11  -1   9    0.94    0.20
  11  -1   9    0.60    0.17
  11  -1   9    0.77    0.18
  12  -1   9    0.25    0.13
  12  -1   9    0.00    0.11
  12  -1   9   -0.02    0.09
  13  -1   9    0.08    0.12
  13  -1   9    0.00    0.11
  13  -1   9    0.05    0.13
  14  -1   9    3.34    0.32
  14  -1   9    3.11    0.35
  14  -1   9    2.68    0.33
  15  -1   9    3.48    0.36
  15  -1   9    3.66    0.39
  15  -1   9    3.97    0.39
  16  -1   9    0.77    0.22
  16  -1   9    0.89    0.23
  17  -1   9    0.00    0.14
  17   0  -9    4.91    0.35
  16   0  -9    0.30    0.13
  15   0  -9    1.28    0.17
 -15   0   9    1.15    0.19
  14   0  -9   -0.04    0.09
  14   0  -9    0.06    0.07
 -14   0   9    0.03    0.10
  13   0  -9    0.11    0.07
 -13   0   9    0.04    0.09
  12   0  -9    0.15    0.06
 -12   0   9    0.16    0.10
  11   0  -9    0.64    0.09
 -11   0   9    0.39    0.11
  10   0  -9   -0.04    0.05
 -10   0   9    0.00    0.07
   9   0  -9    2.53    0.15
  -9   0   9    2.63    0.19
   8   0  -9   -0.01    0.04
  -8   0   9    0.07    0.06
  -7   0   9    5.57    0.27
  -6   0   9   14.99    0.55
  -5   0   9    5.76    0.25
  -4   0   9    0.68    0.08
  -3   0   9    0.59    0.06
  -2   0   9    0.16    0.04
  -1   0   9    5.40    0.20
   0   0   9    1.03    0.06
   0   0   9    1.32    0.13
   0   0   9    1.31    0.16
   1   0   9   29.94    1.09
   1   0   9   29.57    1.00
   1   0   9   27.79    1.09
   2   0   9    0.29    0.08
   2   0   9    0.18    0.08
   2   0   9    0.21    0.07
   3   0   9   10.47    0.48
   3   0   9    9.90    0.44
   3   0   9    9.35    0.46
   4   0   9    8.11    0.29
   4   0   9    8.55    0.40
   4   0   9    8.98    0.44
   4   0   9    8.59    0.43
   5   0   9   20.77    0.87
   5   0   9   20.54    0.78
   5   0   9   22.05    0.68
   5   0   9   19.95    0.84
   6   0   9   34.40    1.34
   6   0   9   32.98    1.19
   6   0   9   34.44    1.10
   6   0   9   35.36    1.28
   7   0   9    0.02    0.04
   7   0   9    0.17    0.10
   7   0   9    0.16    0.09
   7   0   9    0.11    0.09
   8   0   9    2.08    0.23
   8   0   9    2.01    0.14
   8   0   9    2.26    0.24
   8   0   9    1.76    0.22
   9   0   9    1.23    0.19
   9   0   9    0.82    0.16
   9   0   9    1.18    0.19
  10   0   9    0.18    0.12
  10   0   9    0.09    0.11
  10   0   9    0.13    0.11
  11   0   9    4.52    0.37
  11   0   9    4.73    0.36
  11   0   9    4.95    0.36
  12   0   9    0.71    0.17
  12   0   9    0.70    0.18
  12   0   9    0.83    0.19
  13   0   9    0.05    0.13
  13   0   9    0.01    0.12
  13   0   9    0.03    0.12
  14   0   9    0.29    0.16
  14   0   9    0.14    0.12
  14   0   9    0.21    0.16
  15   0   9   -0.15    0.13
  15   0   9    0.10    0.14
  15   0   9    0.11    0.14
  16   0   9    0.05    0.15
  16   0   9   -0.11    0.14
  17   0   9    0.64    0.21
  17  -1  -9    0.27    0.15
  16  -1  -9    2.45    0.23
 -16   1   9    2.35    0.30
  15  -1  -9    0.42    0.13
 -15   1   9    0.39    0.14
  14  -1  -9    0.07    0.10
 -14   1   9   -0.15    0.09
 -13   1   9    1.87    0.22
  12  -1  -9    0.09    0.05
 -12   1   9    0.04    0.09
  11  -1  -9    1.75    0.12
 -11   1   9    1.75    0.20
  10  -1  -9    0.26    0.06
 -10   1   9    0.15    0.09
   9  -1  -9    5.36    0.23
  -9   1   9    5.56    0.29
   8  -1  -9    3.87    0.18
  -8   1   9    3.57    0.22
   7  -1  -9   17.18    0.57
  -7   1   9   17.01    0.63
  -6   1   9   13.62    0.51
  -5   1   9    0.56    0.08
  -4   1   9    5.54    0.24
  -3   1   9    0.39    0.06
  -2   1   9    1.24    0.08
  -2   1   9    1.34    0.11
  -1   1   9    0.55    0.05
  -1   1   9    0.60    0.09
   0   1   9    2.57    0.11
   0   1   9    2.88    0.19
   0   1   9    2.72    0.19
   1   1   9    2.37    0.20
   1   1   9    2.27    0.18
   1   1   9    2.29    0.18
   2   1   9    0.71    0.11
   2   1   9    0.49    0.10
   2   1   9    0.68    0.13
   3   1   9    2.96    0.21
   3   1   9    3.10    0.23
   3   1   9    3.08    0.23
   4   1   9    0.07    0.07
   4   1   9    0.10    0.03
   4   1   9   -0.02    0.08
   4   1   9    0.03    0.07
   5   1   9    1.16    0.16
   5   1   9    1.26    0.18
   5   1   9    1.43    0.09
   5   1   9    1.21    0.17
   6   1   9    0.54    0.12
   6   1   9    0.43    0.06
   6   1   9    0.60    0.13
   6   1   9    0.39    0.12
   7   1   9    1.61    0.20
   7   1   9    1.29    0.18
   7   1   9    1.38    0.11
   7   1   9    1.41    0.18
   8   1   9    0.45    0.13
   8   1   9    0.52    0.13
   8   1   9    0.40    0.08
   8   1   9    0.40    0.12
   9   1   9    1.68    0.22
   9   1   9    1.49    0.21
   9   1   9    1.65    0.23
  10   1   9    0.28    0.14
  10   1   9    0.49    0.14
  10   1   9    0.46    0.14
  11   1   9    3.35    0.30
  11   1   9    4.04    0.32
  11   1   9    3.65    0.34
  12   1   9    0.46    0.14
  12   1   9    0.68    0.17
  12   1   9    0.59    0.19
  13   1   9   -0.02    0.09
  13   1   9   -0.07    0.11
  13   1   9   -0.04    0.11
  14   1   9    1.17    0.23
  14   1   9    1.45    0.25
  14   1   9    1.17    0.23
  15   1   9    0.21    0.15
  15   1   9    0.21    0.16
  15   1   9    0.13    0.15
  16   1   9    0.32    0.18
  16  -2  -9    0.02    0.11
 -16   2   9    0.00    0.13
  15  -2  -9    0.46    0.13
 -15   2   9    0.42    0.16
  14  -2  -9    4.49    0.28
 -14   2   9    4.23    0.33
  13  -2  -9    0.07    0.09
 -13   2   9   -0.08    0.09
 -12   2   9   11.51    0.54
 -11   2   9    0.05    0.09
  10  -2  -9   10.33    0.37
 -10   2   9    9.97    0.46
   9  -2  -9    2.25    0.12
  -9   2   9    2.34    0.20
   8  -2  -9    8.08    0.29
  -8   2   9    7.70    0.37
   7  -2  -9    1.44    0.10
  -7   2   9    1.39    0.14
  -6   2   9   26.25    0.91
  -5   2   9    8.72    0.36
  -4   2   9    2.80    0.16
  -3   2   9    2.36    0.14
  -3   2   9    2.20    0.13
  -2   2   9    0.74    0.10
  -2   2   9    0.68    0.07
  -1   2   9    1.01    0.08
  -1   2   9    1.08    0.12
   0   2   9    0.21    0.08
   0   2   9    0.06    0.06
   0   2   9    0.26    0.04
   1   2   9    4.10    0.26
   1   2   9    3.48    0.24
   1   2   9    3.88    0.24
   1   2   9    4.09    0.16
   2   2   9    2.96    0.22
   2   2   9    2.82    0.22
   2   2   9    2.74    0.20
   3   2   9    1.22    0.15
   3   2   9    1.22    0.16
   3   2   9    1.52    0.17
   4   2   9    7.51    0.40
   4   2   9    7.01    0.27
   4   2   9    7.16    0.38
   4   2   9    6.77    0.35
   5   2   9   15.87    0.67
   5   2   9   16.54    0.55
   5   2   9   14.80    0.63
   5   2   9   16.32    0.71
   6   2   9    0.47    0.12
   6   2   9    0.22    0.11
   6   2   9    0.28    0.06
   6   2   9    0.36    0.10
   7   2   9    5.44    0.36
   7   2   9    5.80    0.34
   7   2   9    5.43    0.34
   7   2   9    5.53    0.26
   8   2   9    2.53    0.25
   8   2   9    2.81    0.25
   8   2   9    3.02    0.25
   9   2   9    0.22    0.11
   9   2   9    0.04    0.09
   9   2   9    0.20    0.11
  10   2   9    1.95    0.24
  10   2   9    2.12    0.28
  10   2   9    2.36    0.27
  11   2   9    0.28    0.14
  11   2   9    0.19    0.12
  11   2   9    0.23    0.12
  12   2   9    0.89    0.19
  12   2   9    0.62    0.17
  12   2   9    0.53    0.17
  13   2   9    0.07    0.11
  13   2   9    0.24    0.14
  13   2   9    0.20    0.14
  14   2   9    0.14    0.14
  14   2   9    0.04    0.14
  14   2   9    0.23    0.16
  15   2   9    0.28    0.16
  15   2   9    0.06    0.14
  16  -3  -9    0.09    0.11
 -16   3   9    0.47    0.16
  15  -3  -9    2.28    0.23
 -15   3   9    1.77    0.25
  14  -3  -9    0.98    0.16
 -14   3   9    0.88    0.19
  13  -3  -9    5.27    0.31
 -13   3   9    5.18    0.36
  12  -3  -9    0.47    0.12
 -12   3   9    0.46    0.14
 -11   3   9    3.84    0.28
 -10   3   9    0.09    0.09
  -9   3   9    2.49    0.21
  -8   3   9    1.40    0.16
   7  -3  -9    0.28    0.04
  -7   3   9    0.26    0.08
   6  -3  -9    0.31    0.05
  -6   3   9    0.27    0.08
  -5   3   9    0.69    0.10
  -4   3   9    0.09    0.05
  -4   3   9    0.07    0.04
  -3   3   9    0.23    0.06
  -3   3   9    0.37    0.07
  -2   3   9    4.63    0.22
  -2   3   9    5.05    0.25
  -1   3   9    0.14    0.05
  -1   3   9    0.06    0.06
   0   3   9    5.96    0.29
   0   3   9    5.84    0.31
   0   3   9    5.80    0.24
   1   3   9    1.53    0.10
   1   3   9    1.54    0.15
   1   3   9    1.50    0.17
   2   3   9    8.61    0.39
   2   3   9    9.29    0.42
   2   3   9    8.65    0.43
   3   3   9    9.13    0.43
   3   3   9    8.89    0.45
   3   3   9    8.99    0.41
   4   3   9    3.47    0.24
   4   3   9    3.76    0.25
   4   3   9    3.71    0.18
   4   3   9    3.40    0.26
   5   3   9   10.98    0.50
   5   3   9   10.61    0.54
   5   3   9   10.25    0.47
   5   3   9   11.18    0.42
   6   3   9    2.49    0.22
   6   3   9    2.62    0.17
   6   3   9    2.26    0.21
   6   3   9    2.86    0.25
   7   3   9    6.60    0.38
   7   3   9    6.92    0.38
   7   3   9    6.35    0.40
   7   3   9    6.95    0.31
   8   3   9    0.05    0.09
   8   3   9    0.19    0.11
   8   3   9    0.04    0.10
   9   3   9    0.17    0.12
   9   3   9    0.10    0.09
   9   3   9   -0.02    0.09
  10   3   9    0.93    0.18
  10   3   9    1.04    0.20
  10   3   9    1.20    0.20
  11   3   9   -0.06    0.10
  11   3   9    0.00    0.12
  11   3   9    0.03    0.10
  12   3   9    0.72    0.17
  12   3   9    1.10    0.21
  12   3   9    0.86    0.21
  13   3   9    3.69    0.35
  13   3   9    4.43    0.40
  14   3   9    0.10    0.13
  14   3   9   -0.09    0.13
  16  -4  -9   -0.14    0.11
 -16   4   9    0.22    0.15
  15  -4  -9    0.54    0.14
 -15   4   9    0.83    0.19
  14  -4  -9    0.57    0.14
 -14   4   9    0.55    0.16
  13  -4  -9    0.39    0.12
 -13   4   9    0.41    0.15
  12  -4  -9    4.75    0.28
 -12   4   9    4.49    0.32
 -11   4   9    0.13    0.10
 -10   4   9    2.67    0.24
  -9   4   9    0.93    0.15
  -8   4   9    0.12    0.08
  -7   4   9    4.88    0.28
  -6   4   9    0.43    0.09
  -5   4   9    0.24    0.08
  -4   4   9   16.43    0.61
  -4   4   9   15.46    0.59
  -3   4   9    0.27    0.07
  -3   4   9    0.13    0.06
  -2   4   9    5.74    0.29
  -2   4   9    6.07    0.27
  -1   4   9    1.77    0.13
  -1   4   9    1.62    0.15
   0   4   9    1.60    0.14
   0   4   9    1.60    0.12
   0   4   9    1.63    0.16
   1   4   9    7.44    0.33
   1   4   9    6.46    0.36
   1   4   9    6.86    0.28
   2   4   9    0.36    0.10
   2   4   9    0.31    0.09
   3   4   9    1.33    0.16
   3   4   9    1.38    0.18
   3   4   9    1.54    0.16
   4   4   9    7.00    0.39
   4   4   9    6.66    0.34
   4   4   9    5.87    0.33
   5   4   9    0.47    0.13
   5   4   9    0.53    0.11
   5   4   9    0.47    0.11
   5   4   9    0.56    0.09
   6   4   9    2.20    0.21
   6   4   9    2.23    0.20
   6   4   9    2.04    0.25
   6   4   9    2.05    0.16
   7   4   9    1.43    0.22
   7   4   9    1.11    0.17
   7   4   9    1.23    0.18
   8   4   9    0.76    0.17
   8   4   9    0.92    0.17
   8   4   9    0.62    0.14
   9   4   9    0.67    0.16
   9   4   9    1.06    0.18
   9   4   9    0.84    0.17
  10   4   9    2.98    0.31
  10   4   9    2.84    0.28
  11   4   9    6.78    0.47
  11   4   9    7.05    0.44
  12   4   9    1.91    0.27
  12   4   9    1.87    0.29
  13   4   9    0.77    0.22
  13   4   9    0.48    0.17
  14   4   9    0.25    0.16
  14   4   9   -0.06    0.12
  16  -5  -9    0.74    0.17
 -16   5   9    0.97    0.22
  15  -5  -9    0.51    0.14
 -15   5   9    0.84    0.20
  14  -5  -9    0.90    0.15
 -14   5   9    0.68    0.18
  13  -5  -9    4.07    0.27
 -13   5   9    3.66    0.33
  12  -5  -9    0.16    0.09
 -12   5   9    0.05    0.11
  11  -5  -9    4.18    0.25
 -11   5   9    4.07    0.31
 -10   5   9    0.67    0.15
  -9   5   9    5.44    0.33
  -8   5   9    3.39    0.25
  -7   5   9    2.17    0.20
  -6   5   9    8.04    0.39
  -5   5   9    4.92    0.28
  -4   5   9    0.95    0.11
  -4   5   9    0.94    0.13
  -3   5   9    0.62    0.10
  -3   5   9    0.63    0.10
  -2   5   9    0.13    0.06
  -2   5   9    0.10    0.07
  -1   5   9    0.08    0.05
  -1   5   9    0.09    0.07
   0   5   9   -0.05    0.05
   0   5   9    0.05    0.07
   0   5   9    0.10    0.06
   1   5   9    0.02    0.05
   1   5   9    0.02    0.06
   1   5   9   -0.01    0.07
   2   5   9    0.06    0.08
   2   5   9   -0.02    0.06
   3   5   9    1.57    0.20
   3   5   9    1.80    0.17
   4   5   9    3.12    0.23
   4   5   9    3.32    0.27
   4   5   9    3.28    0.22
   5   5   9    6.76    0.35
   5   5   9    6.54    0.34
   5   5   9    5.81    0.39
   6   5   9    0.11    0.11
   6   5   9   -0.01    0.08
   7   5   9    1.83    0.22
   7   5   9    1.26    0.22
   8   5   9    2.82    0.26
   8   5   9    2.62    0.27
   9   5   9    1.58    0.22
   9   5   9    1.89    0.26
  10   5   9    0.13    0.12
  10   5   9    0.20    0.13
  11   5   9    4.21    0.38
  11   5   9    3.71    0.33
  12   5   9    0.56    0.19
  12   5   9    0.67    0.18
  13   5   9    1.11    0.24
  13   5   9    1.08    0.22
  16  -6  -9    1.56    0.22
 -16   6   9    1.82    0.29
  15  -6  -9    0.18    0.12
 -15   6   9    0.44    0.18
  14  -6  -9    2.63    0.23
 -14   6   9    2.50    0.32
  13  -6  -9    1.56    0.18
 -13   6   9    1.67    0.25
  12  -6  -9    6.83    0.35
 -12   6   9    7.01    0.44
  11  -6  -9    0.63    0.12
 -11   6   9    0.33    0.14
  10  -6  -9    8.20    0.38
 -10   6   9    8.83    0.47
   9  -6  -9    0.22    0.08
  -9   6   9    0.28    0.12
  -8   6   9    1.22    0.18
  -7   6   9    0.02    0.08
  -6   6   9    1.56    0.19
  -5   6   9    4.83    0.29
  -4   6   9   31.48    1.14
  -4   6   9   30.35    1.09
  -3   6   9    2.59    0.20
  -3   6   9    2.63    0.19
  -2   6   9    3.45    0.22
  -1   6   9    0.52    0.10
   0   6   9    7.83    0.36
   0   6   9    7.81    0.34
   1   6   9    0.64    0.11
   1   6   9    0.85    0.12
   1   6   9    0.74    0.14
   2   6   9    0.02    0.06
   2   6   9   -0.01    0.07
   3   6   9    0.38    0.10
   3   6   9    0.37    0.12
   4   6   9    3.97    0.30
   4   6   9    3.83    0.25
   5   6   9    0.94    0.18
   5   6   9    0.80    0.14
   6   6   9   12.48    0.64
   6   6   9   12.54    0.56
   7   6   9    1.01    0.17
   7   6   9    0.81    0.19
   8   6   9    1.03    0.18
   8   6   9    0.97    0.21
   9   6   9   -0.01    0.12
   9   6   9   -0.03    0.11
  10   6   9    1.87    0.26
  10   6   9    2.20    0.30
  11   6   9    0.68    0.18
  11   6   9    0.90    0.20
  12   6   9    0.14    0.16
  12   6   9    0.33    0.16
  13   6   9   -0.23    0.11
  15  -7  -9    0.50    0.15
 -15   7   9    0.46    0.20
  14  -7  -9   -0.12    0.09
 -14   7   9   -0.03    0.14
  13  -7  -9    6.85    0.37
 -13   7   9    7.68    0.50
  12  -7  -9    1.27    0.16
 -12   7   9    1.02    0.22
  11  -7  -9    8.81    0.40
 -11   7   9    8.71    0.51
  10  -7  -9    0.41    0.10
 -10   7   9    0.43    0.14
   9  -7  -9    1.38    0.14
  -9   7   9    1.25    0.20
   8  -7  -9    1.08    0.12
  -8   7   9    0.92    0.17
  -7   7   9    0.25    0.11
  -6   7   9    1.25    0.18
  -5   7   9    0.67    0.14
  -4   7   9    1.17    0.16
  -3   7   9    0.28    0.10
  -2   7   9    0.66    0.12
  -1   7   9    2.05    0.19
   0   7   9    3.65    0.24
   2   7   9    1.86    0.17
   3   7   9    2.83    0.21
   3   7   9    3.17    0.27
   4   7   9    9.75    0.53
   4   7   9    9.51    0.44
   5   7   9    5.56    0.33
   5   7   9    5.47    0.39
   6   7   9    0.80    0.19
   6   7   9    0.87    0.15
   7   7   9    5.85    0.43
   7   7   9    6.17    0.37
   8   7   9    0.37    0.16
   8   7   9    0.28    0.13
   9   7   9    0.14    0.15
   9   7   9    0.20    0.13
  10   7   9    0.98    0.20
  10   7   9    1.23    0.24
  11   7   9    0.06    0.15
  11   7   9   -0.05    0.12
  12   7   9    1.20    0.24
  15  -8  -9    1.96    0.24
 -15   8   9    2.43    0.34
  14  -8  -9    0.00    0.12
 -14   8   9    0.23    0.18
  13  -8  -9    0.18    0.12
 -13   8   9    0.39    0.18
  12  -8  -9    1.03    0.15
 -12   8   9    1.26    0.23
  11  -8  -9    0.85    0.14
 -11   8   9    1.29    0.23
  10  -8  -9    2.23    0.21
 -10   8   9    2.78    0.31
  -9   8   9    1.50    0.23
  -8   8   9    0.67    0.17
  -7   8   9    6.63    0.41
  -6   8   9    0.83    0.16
  -5   8   9    7.19    0.41
  -4   8   9    0.23    0.11
  -3   8   9    2.52    0.23
  -2   8   9    2.62    0.23
  -1   8   9    0.27    0.10
   0   8   9    4.88    0.29
   5   8   9    0.56    0.13
   5   8   9    0.61    0.17
   6   8   9    0.09    0.10
   6   8   9   -0.17    0.08
   7   8   9    0.05    0.10
   7   8   9   -0.11    0.11
   8   8   9    0.65    0.19
   8   8   9    0.37    0.14
   9   8   9    2.39    0.34
   9   8   9    2.24    0.27
  10   8   9   -0.09    0.11
  10   8   9   -0.03    0.14
  11   8   9    0.71    0.20
  12   8   9    0.25    0.16
 -14   9   9    0.33    0.18
 -13   9   9    2.14    0.31
 -12   9   9   -0.02    0.14
 -11   9   9    1.19    0.24
 -10   9   9    0.05    0.13
  -9   9   9    2.26    0.29
  -8   9   9    0.86    0.20
  -7   9   9    3.49    0.31
  -6   9   9    2.12    0.26
  -5   9   9    1.03    0.19
  -4   9   9    0.05    0.10
  -3   9   9    0.72    0.15
  -2   9   9    1.88    0.22
  -1   9   9    0.04    0.08
   0   9   9    0.70    0.14
   5   9   9    1.66    0.26
   6   9   9    0.70    0.19
   7   9   9   -0.12    0.12
   8   9   9    2.63    0.34
   9   9   9    0.61    0.21
  11   9   9    0.67    0.21
 -12  10   9    4.15    0.42
 -11  10   9    0.53    0.18
 -10  10   9    2.00    0.29
  -9  10   9    0.18    0.15
  -8  10   9    0.65    0.19
  -7  10   9    0.22    0.14
  -6  10   9    0.06    0.11
  -5  10   9    0.76    0.18
  -4  10   9    0.68    0.17
  -3  10   9    0.16    0.12
  -2  10   9    0.07    0.10
  -1  10   9   -0.03    0.09
   6  10   9    0.94    0.21
   7  10   9    0.42    0.17
   8  10   9    0.02    0.14
 -11  11   9    2.82    0.37
 -10  11   9    0.08    0.16
  -9  11   9    0.69    0.20
  -8  11   9    1.76    0.28
  -7  11   9    3.50    0.34
  -6  11   9    0.02    0.13
  -5  11   9    0.19    0.13
  -4  11   9    1.52    0.24
  -3  11   9    1.24    0.22
  -2  11   9    0.01    0.11
  -1  11   9    0.39    0.14
   6  11   9    0.13    0.15
   7  11   9    3.81    0.38
  -8  12   9    1.30    0.25
  -7  12   9    2.63    0.34
  -6  12   9    0.23    0.15
  -5  12   9   -0.25    0.11
  -4  12   9    0.08    0.14
  -3  12   9    1.41    0.24
  -2  12   9    0.63    0.18
  -4  13   9   -0.01    0.13
  -3  13   9    0.27    0.14
  -2  13   9    0.46    0.17
   4  19 -10    0.16    0.12
   3  19 -10   -0.04    0.11
   2  19 -10    0.34    0.13
   6  18 -10    0.30    0.14
   5  18 -10    1.66    0.22
   4  18 -10    1.76    0.22
   3  18 -10    0.66    0.15
   7  17 -10    3.68    0.31
   6  17 -10    1.10    0.19
   5  17 -10    0.15    0.12
   4  17 -10    0.73    0.16
  10 -17  10    0.03    0.17
  11 -17  10    0.53    0.23
   9  16 -10    0.18    0.14
   8  16 -10    0.22    0.13
   7  16 -10    2.37    0.25
   6  16 -10    0.40    0.15
   5  16 -10    0.36    0.14
   0 -16  10    9.31    0.59
   1 -16  10    0.43    0.18
   2 -16  10    4.63    0.37
   2 -16  10    5.61    0.45
   3 -16  10    0.23    0.16
   3 -16  10    0.16    0.13
   4 -16  10    0.16    0.14
   5 -16  10    1.74    0.26
   6 -16  10    0.11    0.13
   7 -16  10    0.10    0.13
   8 -16  10    1.30    0.26
   9 -16  10    0.56    0.20
  10 -16  10    0.15    0.16
  11 -16  10    0.25    0.18
  12 -16  10   -0.19    0.14
  10  15 -10    2.94    0.29
   9  15 -10   -0.09    0.12
   8  15 -10    0.10    0.12
   7  15 -10    1.71    0.22
   6  15 -10    0.79    0.17
  -3 -15  10    0.58    0.19
  -2 -15  10    1.70    0.27
  -1 -15  10    7.28    0.49
   0 -15  10    2.88    0.34
   1 -15  10    0.14    0.12
   1 -15  10    0.01    0.13
   2 -15  10    0.46    0.15
   2 -15  10    0.44    0.17
   3 -15  10    0.33    0.15
   3 -15  10    0.34    0.14
   4 -15  10   -0.07    0.09
   5 -15  10    1.61    0.25
   6 -15  10    5.54    0.43
   7 -15  10    1.94    0.29
   8 -15  10    0.69    0.19
   9 -15  10    0.06    0.13
  10 -15  10    0.84    0.22
  11 -15  10    1.20    0.26
  12 -15  10    2.44    0.36
  11  14 -10    0.56    0.17
  10  14 -10    4.30    0.32
   9  14 -10    0.11    0.11
   8  14 -10    3.86    0.30
   7  14 -10    1.19    0.19
   6  14 -10    1.96    0.22
  -5 -14  10    4.96    0.39
  -4 -14  10    5.24    0.40
  -3 -14  10    2.52    0.32
  -2 -14  10    0.00    0.11
  -1 -14  10    0.27    0.15
   0 -14  10    7.00    0.47
   1 -14  10    0.20    0.12
   1 -14  10    0.26    0.14
   2 -14  10    4.82    0.36
   2 -14  10    5.33    0.41
   3 -14  10    1.15    0.20
   4 -14  10    4.24    0.35
   5 -14  10    2.08    0.29
   6 -14  10   12.50    0.66
   7 -14  10    1.28    0.23
   8 -14  10    2.46    0.32
   9 -14  10    0.37    0.17
  10 -14  10    0.30    0.15
  11 -14  10    0.10    0.14
  12 -14  10   -0.04    0.14
  13 -14  10    0.55    0.20
  12  13 -10   -0.04    0.13
  11  13 -10    5.61    0.36
  10  13 -10    0.62    0.16
   9  13 -10    2.52    0.24
   8  13 -10    1.50    0.20
   7  13 -10    4.13    0.31
  -7 -13  10    4.57    0.37
  -6 -13  10    5.41    0.40
  -5 -13  10    1.26    0.22
  -4 -13  10    1.74    0.25
  -3 -13  10    2.82    0.32
  -2 -13  10    2.49    0.29
  -1 -13  10   21.06    0.92
   0 -13  10    2.68    0.27
   0 -13  10    3.05    0.31
   1 -13  10   18.81    0.84
   1 -13  10   19.18    0.86
   2 -13  10    0.23    0.13
   2 -13  10    0.11    0.13
   3 -13  10    7.99    0.48
   4 -13  10    2.21    0.27
   5 -13  10    0.13    0.11
   6 -13  10    0.96    0.20
   7 -13  10    3.34    0.33
   8 -13  10   -0.03    0.11
   9 -13  10   -0.01    0.12
  10 -13  10    0.13    0.15
  11 -13  10    0.72    0.21
  12 -13  10   -0.01    0.13
  13 -13  10    0.11    0.17
  13  12 -10   -0.02    0.11
  12  12 -10    0.38    0.14
  11  12 -10    1.57    0.20
  10  12 -10    0.70    0.16
   9  12 -10    0.00    0.11
   8  12 -10    1.10    0.17
  -8 -12  10    0.99    0.19
   7  12 -10    0.30    0.12
  -7 -12  10    0.21    0.14
  -6 -12  10    0.21    0.12
  -5 -12  10    0.55    0.16
  -4 -12  10    1.45    0.22
  -3 -12  10    2.16    0.27
  -2 -12  10   34.53    1.32
  -1 -12  10    4.70    0.36
   0 -12  10   41.70    1.53
   0 -12  10   41.03    1.55
   1 -12  10    0.59    0.17
   1 -12  10    0.19    0.14
   2 -12  10   15.07    0.72
   3 -12  10    1.29    0.22
   4 -12  10   14.61    0.70
   5 -12  10    0.10    0.11
   6 -12  10    2.34    0.29
   7 -12  10    1.03    0.20
   8 -12  10    3.87    0.35
   9 -12  10    6.03    0.45
  10 -12  10    1.83    0.29
  11 -12  10    3.06    0.37
  12 -12  10    0.46    0.19
  13 -12  10    2.41    0.35
  14 -12  10    1.64    0.30
  14 -12  10    1.85    0.28
  15 -12  10    3.64    0.39
  13  11 -10   -0.11    0.11
  12  11 -10    2.38    0.25
  11  11 -10    0.10    0.11
  10  11 -10    1.87    0.20
   9  11 -10    0.14    0.10
  -9 -11  10   -0.03    0.11
   8  11 -10    0.29    0.12
  -8 -11  10    0.17    0.12
  -7 -11  10    0.03    0.11
  -6 -11  10    3.09    0.29
  -5 -11  10   12.68    0.61
  -4 -11  10    7.55    0.44
  -3 -11  10    1.98    0.25
  -2 -11  10   15.49    0.70
  -1 -11  10   21.19    0.88
   0 -11  10    0.36    0.13
   0 -11  10    0.56    0.15
   1 -11  10    0.22    0.12
   1 -11  10    0.24    0.12
   2 -11  10    8.91    0.50
   3 -11  10    4.13    0.33
   4 -11  10    3.31    0.30
   5 -11  10    0.69    0.17
   6 -11  10    0.48    0.15
   7 -11  10    1.58    0.23
   8 -11  10    4.46    0.37
   9 -11  10    0.09    0.12
  10 -11  10    3.65    0.36
  11 -11  10    1.49    0.24
  11 -11  10    1.63    0.28
  12 -11  10    6.77    0.45
  12 -11  10    5.23    0.46
  13 -11  10    0.20    0.15
  13 -11  10    0.08    0.15
  14 -11  10    4.47    0.41
  14 -11  10    6.25    0.51
  15 -11  10    0.23    0.15
  15  10 -10    1.53    0.21
  14  10 -10   -0.14    0.11
  13  10 -10    1.62    0.21
  12  10 -10    3.95    0.30
  11  10 -10    5.19    0.33
  10  10 -10    4.50    0.30
 -10 -10  10    4.54    0.34
   9  10 -10    2.69    0.24
  -9 -10  10    2.87    0.27
   8  10 -10    5.14    0.31
  -8 -10  10    4.83    0.34
  -7 -10  10    3.56    0.29
  -6 -10  10    0.94    0.18
  -5 -10  10    5.59    0.36
  -4 -10  10    9.04    0.47
  -3 -10  10    0.24    0.11
  -2 -10  10    4.72    0.32
  -1 -10  10    1.33    0.20
   0 -10  10   11.55    0.55
   0 -10  10   11.46    0.58
   1 -10  10    0.27    0.11
   1 -10  10    0.37    0.13
   2 -10  10    8.55    0.48
   3 -10  10    6.65    0.42
   4 -10  10    1.62    0.23
   5 -10  10    0.61    0.15
   6 -10  10    7.42    0.45
   7 -10  10    1.39    0.22
   8 -10  10    1.29    0.21
   9 -10  10    9.15    0.50
   9 -10  10    8.22    0.53
  10 -10  10    0.18    0.12
  10 -10  10    0.03    0.12
  11 -10  10    9.15    0.53
  11 -10  10    8.81    0.56
  12 -10  10    0.47    0.16
  12 -10  10    0.25    0.17
  13 -10  10    1.48    0.29
  13 -10  10    1.66    0.25
  14 -10  10    1.28    0.28
  14 -10  10    1.18    0.23
  15 -10  10    0.59    0.20
  15 -10  10    0.42    0.21
  16 -10  10    0.40    0.19
  15   9 -10    4.23    0.31
  15   9 -10    3.87    0.30
  14   9 -10    0.75    0.17
  13   9 -10    3.33    0.27
  12   9 -10    5.28    0.33
  11   9 -10    3.99    0.28
 -11  -9  10    4.08    0.32
  10   9 -10    3.43    0.26
 -10  -9  10    3.60    0.29
   9   9 -10    3.17    0.24
  -9  -9  10    3.05    0.27
   8   9 -10    1.46    0.18
  -8  -9  10    1.09    0.19
  -7  -9  10    0.12    0.10
  -6  -9  10    0.44    0.13
  -5  -9  10   13.22    0.60
  -4  -9  10   22.69    0.89
  -3  -9  10   16.92    0.71
  -2  -9  10    7.31    0.40
  -1  -9  10   57.05    1.93
  -1  -9  10   55.60    2.01
   0  -9  10    9.12    0.50
   0  -9  10    8.70    0.45
   1  -9  10   45.64    1.59
   1  -9  10   45.07    1.67
   2  -9  10    0.30    0.13
   3  -9  10   10.72    0.55
   4  -9  10    3.47    0.30
   5  -9  10    3.40    0.30
   6  -9  10    0.48    0.14
   7  -9  10    0.91    0.19
   8  -9  10    4.53    0.37
   8  -9  10    5.70    0.37
   9  -9  10    0.73    0.19
   9  -9  10    0.94    0.18
  10  -9  10    0.74    0.19
  10  -9  10    0.41    0.14
  11  -9  10    0.48    0.17
  11  -9  10    0.87    0.19
  12  -9  10    0.30    0.15
  12  -9  10    0.57    0.20
  13  -9  10   -0.06    0.12
  13  -9  10    0.06    0.15
  14  -9  10    0.86    0.21
  14  -9  10    0.80    0.24
  15  -9  10    2.90    0.36
  15  -9  10    2.40    0.38
  16  -9  10    0.20    0.16
  16   8 -10    5.63    0.37
  15   8 -10    0.56    0.14
  14   8 -10    0.71    0.15
  13   8 -10    0.21    0.12
  12   8 -10    3.86    0.26
 -12  -8  10    3.82    0.31
  11   8 -10    0.30    0.11
 -11  -8  10    0.15    0.11
  10   8 -10    2.79    0.23
 -10  -8  10    2.57    0.25
   9   8 -10    0.40    0.11
  -9  -8  10    0.56    0.14
  -8  -8  10    2.52    0.24
  -7  -8  10   14.13    0.62
  -6  -8  10    0.61    0.14
  -5  -8  10    0.01    0.09
  -4  -8  10   13.09    0.58
  -3  -8  10    1.59    0.20
  -2  -8  10   79.18    2.60
  -1  -8  10    2.12    0.26
  -1  -8  10    2.45    0.22
  -1  -8  10    2.63    0.21
   0  -8  10   78.48    2.56
   0  -8  10   78.06    2.57
   0  -8  10   78.76    2.71
   1  -8  10    0.64    0.16
   1  -8  10    0.82    0.13
   2  -8  10   18.97    0.73
   2  -8  10   18.85    0.82
   3  -8  10    4.97    0.36
   3  -8  10    4.86    0.29
   4  -8  10   61.61    2.19
   5  -8  10    7.17    0.43
   6  -8  10    3.31    0.27
   6  -8  10    3.00    0.28
   7  -8  10   19.52    0.80
   7  -8  10   19.28    0.86
   8  -8  10    0.05    0.09
   8  -8  10    0.25    0.11
   9  -8  10    1.81    0.24
   9  -8  10    1.61    0.25
  10  -8  10    0.70    0.17
  10  -8  10    0.92    0.19
  11  -8  10    0.41    0.17
  11  -8  10    0.58    0.16
  12  -8  10    0.19    0.13
  12  -8  10    0.26    0.13
  13  -8  10    1.32    0.24
  13  -8  10    1.51    0.28
  14  -8  10    1.31    0.25
  14  -8  10    1.19    0.25
  15  -8  10    0.88    0.24
  15  -8  10    0.79    0.22
  16  -8  10   -0.01    0.14
  16   7 -10    0.29    0.13
  16   7 -10    0.05    0.12
  15   7 -10    0.85    0.15
  14   7 -10    0.46    0.14
  13   7 -10    2.15    0.21
 -13  -7  10    1.84    0.24
  12   7 -10    0.14    0.10
 -12  -7  10    0.36    0.12
  11   7 -10    0.41    0.11
 -11  -7  10    0.39    0.12
  10   7 -10    0.43    0.11
 -10  -7  10    0.53    0.13
   9   7 -10   -0.01    0.08
  -9  -7  10   -0.03    0.08
  -8  -7  10    2.27    0.22
  -7  -7  10    0.00    0.08
  -6  -7  10    0.48    0.12
  -5  -7  10    8.07    0.40
  -4  -7  10    5.09    0.30
  -3  -7  10    3.23    0.23
  -2  -7  10   22.02    0.83
  -1  -7  10   39.79    1.43
  -1  -7  10   38.32    1.32
  -1  -7  10   36.39    1.31
   0  -7  10    4.99    0.34
   0  -7  10    4.66    0.27
   0  -7  10    5.22    0.29
   1  -7  10   16.12    0.71
   1  -7  10   15.67    0.62
   2  -7  10    5.06    0.28
   2  -7  10    5.46    0.35
   3  -7  10   22.54    0.93
   3  -7  10   22.00    0.81
   4  -7  10    6.10    0.31
   4  -7  10    5.68    0.38
   5  -7  10    0.27    0.11
   5  -7  10    0.10    0.07
   5  -7  10    0.06    0.10
   6  -7  10   12.23    0.60
   6  -7  10   11.84    0.56
   7  -7  10    3.87    0.31
   7  -7  10    3.69    0.28
   8  -7  10    2.11    0.24
   8  -7  10    2.85    0.31
   9  -7  10    0.85    0.17
   9  -7  10    1.15    0.21
  10  -7  10   10.22    0.54
  10  -7  10    9.57    0.56
  11  -7  10    0.55    0.17
  11  -7  10    0.60    0.18
  12  -7  10   15.16    0.72
  12  -7  10   14.86    0.77
  13  -7  10    0.53    0.18
  13  -7  10    0.63    0.21
  14  -7  10    9.49    0.62
  14  -7  10   10.93    0.61
  15  -7  10    0.87    0.20
  15  -7  10    0.75    0.23
  16  -7  10    0.03    0.14
  16   6 -10   -0.11    0.09
  16   6 -10   -0.11    0.11
  15   6 -10    1.14    0.16
  14   6 -10    0.09    0.11
  13   6 -10    5.24    0.31
 -13  -6  10    6.01    0.38
  12   6 -10    2.50    0.21
 -12  -6  10    2.36    0.24
  11   6 -10    3.11    0.23
 -11  -6  10    2.96    0.25
  10   6 -10    5.11    0.29
 -10  -6  10    4.74    0.31
   9   6 -10    0.76    0.13
  -9  -6  10    0.85    0.15
  -8  -6  10    5.50    0.32
  -7  -6  10    2.85    0.23
  -6  -6  10   24.54    0.91
  -5  -6  10    3.75    0.25
  -4  -6  10   -0.08    0.06
  -3  -6  10    0.43    0.10
  -2  -6  10   16.57    0.64
  -1  -6  10    0.66    0.11
  -1  -6  10    0.46    0.12
   0  -6  10    0.48    0.09
   0  -6  10    0.54    0.14
   0  -6  10    0.40    0.09
   1  -6  10    0.37    0.08
   1  -6  10    0.54    0.13
   2  -6  10    3.61    0.21
   2  -6  10    3.93    0.29
   3  -6  10    0.85    0.11
   3  -6  10    0.59    0.13
   4  -6  10    0.97    0.17
   4  -6  10    1.28    0.17
   4  -6  10    1.69    0.14
   5  -6  10    5.60    0.37
   5  -6  10    5.75    0.35
   5  -6  10    5.84    0.28
   6  -6  10    0.24    0.11
   6  -6  10    0.26    0.11
   6  -6  10    0.29    0.07
   7  -6  10    8.61    0.46
   7  -6  10    8.23    0.48
   8  -6  10    7.27    0.42
   8  -6  10    6.56    0.43
   9  -6  10    7.43    0.44
   9  -6  10    7.66    0.48
  10  -6  10    0.20    0.12
  10  -6  10    0.06    0.11
  11  -6  10   11.62    0.60
  11  -6  10   11.38    0.64
  12  -6  10    1.13    0.23
  12  -6  10    0.88    0.20
  13  -6  10    2.81    0.36
  13  -6  10    2.64    0.32
  14  -6  10    2.74    0.33
  14  -6  10    2.55    0.35
  15  -6  10    0.29    0.15
  15  -6  10    0.13    0.16
  16  -6  10    0.06    0.14
  16  -6  10    0.21    0.18
  17   5 -10    0.51    0.14
  16   5 -10    0.85    0.18
  16   5 -10    0.61    0.14
  15   5 -10    4.84    0.30
  14   5 -10    0.68    0.13
 -14  -5  10    0.77    0.17
  13   5 -10    2.77    0.22
 -13  -5  10    2.73    0.26
  12   5 -10    0.12    0.09
 -12  -5  10    0.12    0.11
  11   5 -10   11.07    0.46
 -11  -5  10   10.77    0.51
  10   5 -10    2.46    0.19
 -10  -5  10    2.25    0.21
   9   5 -10    8.86    0.38
  -9  -5  10    8.01    0.41
  -8  -5  10    2.74    0.22
  -7  -5  10    1.97    0.18
  -6  -5  10    0.19    0.08
  -5  -5  10    1.61    0.16
  -4  -5  10    7.12    0.34
  -3  -5  10   -0.03    0.05
  -2  -5  10    1.86    0.15
  -1  -5  10   10.86    0.44
  -1  -5  10   10.13    0.51
   0  -5  10    0.68    0.10
   0  -5  10    0.81    0.10
   0  -5  10    0.82    0.15
   1  -5  10    2.19    0.22
   1  -5  10    2.73    0.17
   2  -5  10   14.64    0.66
   2  -5  10   14.87    0.55
   3  -5  10    1.11    0.11
   3  -5  10    1.11    0.17
   4  -5  10    8.96    0.45
   4  -5  10    8.29    0.47
   4  -5  10    9.65    0.38
   5  -5  10    3.78    0.21
   5  -5  10    3.41    0.27
   5  -5  10    3.41    0.28
   6  -5  10    9.85    0.49
   6  -5  10    9.87    0.52
   6  -5  10    9.88    0.40
   7  -5  10    1.50    0.21
   7  -5  10    1.83    0.14
   7  -5  10    1.59    0.22
   8  -5  10    2.13    0.25
   8  -5  10    2.47    0.28
   9  -5  10    0.45    0.14
   9  -5  10    0.26    0.13
  10  -5  10    0.22    0.12
  10  -5  10    0.21    0.12
  11  -5  10    1.07    0.21
  11  -5  10    0.89    0.19
  12  -5  10    3.60    0.33
  12  -5  10    3.08    0.32
  13  -5  10    0.13    0.15
  13  -5  10    0.04    0.12
  14  -5  10    0.20    0.15
  14  -5  10    0.66    0.19
  15  -5  10   -0.07    0.14
  15  -5  10    0.15    0.14
  16  -5  10    0.20    0.18
  16  -5  10    0.12    0.15
  17   4 -10    0.66    0.14
  16   4 -10    1.89    0.22
  16   4 -10    2.41    0.22
  15   4 -10    0.90    0.15
  14   4 -10    0.29    0.10
 -14  -4  10    0.29    0.14
  13   4 -10    0.53    0.11
 -13  -4  10    0.42    0.13
  12   4 -10    3.29    0.22
 -12  -4  10    3.18    0.26
  11   4 -10    0.21    0.09
 -11  -4  10    0.22    0.10
  10   4 -10    0.54    0.11
 -10  -4  10    0.52    0.12
   9   4 -10    0.64    0.12
  -9  -4  10    0.79    0.13
  -8  -4  10    4.04    0.25
  -7  -4  10   23.64    0.86
  -6  -4  10    0.69    0.11
  -5  -4  10    6.36    0.31
  -4  -4  10   21.72    0.78
  -3  -4  10    6.78    0.31
  -2  -4  10   13.53    0.52
  -1  -4  10   12.98    0.49
  -1  -4  10   12.44    0.59
   0  -4  10   67.31    2.30
   0  -4  10   65.00    2.11
   1  -4  10    0.22    0.06
   1  -4  10    0.29    0.11
   1  -4  10    0.14    0.06
   2  -4  10   20.82    0.74
   2  -4  10   22.89    0.90
   3  -4  10    8.71    0.47
   3  -4  10    9.03    0.36
   3  -4  10    9.29    0.44
   4  -4  10   44.01    1.51
   4  -4  10   45.84    1.44
   4  -4  10   43.65    1.62
   5  -4  10   31.43    1.12
   5  -4  10   30.31    1.19
   5  -4  10   30.85    1.02
   6  -4  10   13.61    0.65
   6  -4  10   13.39    0.59
   6  -4  10   13.61    0.50
   7  -4  10    1.39    0.19
   7  -4  10    1.69    0.23
   7  -4  10    1.91    0.13
   8  -4  10    7.02    0.40
   8  -4  10    6.19    0.41
   9  -4  10    4.61    0.36
   9  -4  10    4.69    0.33
  10  -4  10    0.14    0.12
  10  -4  10    0.23    0.12
  11  -4  10    0.49    0.15
  11  -4  10    0.41    0.17
  12  -4  10    0.18    0.15
  12  -4  10    0.32    0.15
  13  -4  10    2.03    0.30
  13  -4  10    2.20    0.30
  14  -4  10    0.25    0.16
  14  -4  10    0.19    0.14
  15  -4  10    2.24    0.30
  15  -4  10    2.71    0.35
  16  -4  10    1.02    0.24
  16  -4  10    1.11    0.26
  17   3 -10    0.00    0.11
  16   3 -10    0.31    0.13
  16   3 -10    0.17    0.10
  15   3 -10    3.16    0.23
 -15  -3  10    3.26    0.30
  14   3 -10    0.19    0.09
 -14  -3  10    0.12    0.11
  13   3 -10    0.63    0.11
 -13  -3  10    0.57    0.14
  12   3 -10    0.25    0.09
 -12  -3  10    0.54    0.13
  11   3 -10    0.41    0.10
 -11  -3  10    0.40    0.11
  10   3 -10    0.07    0.08
 -10  -3  10    0.13    0.09
   9   3 -10    0.33    0.09
  -9  -3  10    0.25    0.09
  -8  -3  10    6.74    0.33
  -7  -3  10    0.43    0.10
  -6  -3  10    2.19    0.17
  -5  -3  10   35.61    1.19
  -4  -3  10    2.18    0.15
  -3  -3  10    1.29    0.12
  -2  -3  10   44.98    1.46
  -1  -3  10   31.28    1.03
   0  -3  10    1.02    0.10
   0  -3  10    0.80    0.15
   1  -3  10   35.45    1.15
   1  -3  10   35.02    1.14
   1  -3  10   35.27    1.32
   2  -3  10   32.70    1.15
   2  -3  10   33.29    1.25
   2  -3  10   33.09    1.07
   3  -3  10    6.56    0.26
   3  -3  10    6.48    0.38
   3  -3  10    6.63    0.36
   4  -3  10    3.01    0.24
   4  -3  10    3.07    0.27
   4  -3  10    3.30    0.16
   5  -3  10    0.17    0.10
   5  -3  10    0.04    0.08
   5  -3  10    0.21    0.05
   6  -3  10    0.30    0.06
   6  -3  10    0.20    0.11
   6  -3  10    0.22    0.11
   7  -3  10    0.02    0.04
   7  -3  10    0.02    0.09
   7  -3  10    0.16    0.11
   8  -3  10    0.49    0.13
   8  -3  10    0.45    0.14
   9  -3  10    0.28    0.12
   9  -3  10    0.60    0.16
  10  -3  10    8.55    0.51
  10  -3  10    9.27    0.50
  11  -3  10    0.23    0.14
  11  -3  10    0.56    0.17
  12  -3  10   11.87    0.66
  12  -3  10   13.10    0.65
  13  -3  10    0.24    0.14
  13  -3  10    0.13    0.15
  14  -3  10    6.99    0.48
  14  -3  10    6.46    0.49
  15  -3  10    0.33    0.18
  15  -3  10    0.18    0.17
  16  -3  10    3.04    0.43
  16  -3  10    3.39    0.41
  16   2 -10    1.93    0.22
  15   2 -10    0.21    0.09
  15   2 -10    0.17    0.10
 -15  -2  10    0.20    0.13
  14   2 -10    0.13    0.08
 -14  -2  10    0.16    0.12
  13   2 -10    0.34    0.10
 -13  -2  10    0.43    0.13
  12   2 -10    4.83    0.26
 -12  -2  10    5.24    0.32
  11   2 -10    0.10    0.07
 -11  -2  10   -0.04    0.08
  10   2 -10   11.02    0.43
 -10  -2  10   10.65    0.48
   9   2 -10    6.51    0.30
  -9  -2  10    6.74    0.34
  -8  -2  10    1.48    0.15
  -7  -2  10    0.91    0.12
  -6  -2  10   33.92    1.14
   5   2 -10    1.10    0.09
  -5  -2  10    1.17    0.12
  -4  -2  10    3.63    0.19
  -3  -2  10    2.62    0.15
  -2  -2  10    4.14    0.19
  -1  -2  10    2.85    0.15
   0  -2  10   29.21    1.10
   0  -2  10   27.97    0.92
   1  -2  10   13.58    0.46
   1  -2  10   13.49    0.61
   1  -2  10   12.93    0.45
   2  -2  10    3.47    0.26
   2  -2  10    3.70    0.16
   2  -2  10    3.37    0.24
   3  -2  10    2.08    0.20
   3  -2  10    2.37    0.11
   3  -2  10    2.30    0.22
   4  -2  10    2.60    0.13
   4  -2  10    2.71    0.22
   4  -2  10    2.43    0.22
   5  -2  10    2.80    0.23
   5  -2  10    3.10    0.26
   5  -2  10    2.63    0.23
   5  -2  10    2.82    0.14
   6  -2  10    5.85    0.37
   6  -2  10    5.72    0.34
   6  -2  10    5.90    0.24
   6  -2  10    5.69    0.37
   7  -2  10    7.62    0.44
   7  -2  10    7.10    0.43
   7  -2  10    7.25    0.41
   7  -2  10    7.73    0.30
   8  -2  10    1.46    0.12
   8  -2  10    1.41    0.21
   8  -2  10    1.56    0.21
   8  -2  10    1.70    0.24
   9  -2  10    4.38    0.34
   9  -2  10    4.10    0.32
   9  -2  10    4.42    0.34
  10  -2  10   -0.09    0.08
  10  -2  10    0.08    0.10
  10  -2  10   -0.03    0.10
  11  -2  10   11.45    0.63
  11  -2  10   12.53    0.67
  11  -2  10   12.40    0.62
  12  -2  10    1.72    0.26
  12  -2  10    1.57    0.25
  13  -2  10    7.16    0.47
  13  -2  10    6.42    0.48
  14  -2  10    0.10    0.16
  14  -2  10    0.04    0.14
  15  -2  10    4.90    0.45
  15  -2  10    5.90    0.46
  16  -2  10    0.27    0.18
  16   1 -10    0.13    0.12
  15   1 -10    2.81    0.26
 -15  -1  10    2.93    0.29
  14   1 -10    0.03    0.07
 -14  -1  10    0.02    0.10
  13   1 -10    4.76    0.25
 -13  -1  10    4.87    0.32
  12   1 -10    0.10    0.07
 -12  -1  10    0.06    0.09
  11   1 -10    5.72    0.27
 -11  -1  10    5.99    0.33
  10   1 -10    0.93    0.11
 -10  -1  10    1.03    0.15
   9   1 -10   11.30    0.42
  -9  -1  10   10.93    0.47
   8   1 -10    0.21    0.07
  -8  -1  10    0.17    0.07
  -7  -1  10    3.60    0.21
  -6  -1  10    0.68    0.10
  -5  -1  10    0.49    0.08
  -4  -1  10    0.07    0.04
  -3  -1  10    0.36    0.06
  -2  -1  10    0.84    0.07
  -1  -1  10   10.91    0.38
   0  -1  10    0.17    0.09
   0  -1  10    0.15    0.03
   1  -1  10   20.27    0.76
   1  -1  10   20.68    0.66
   1  -1  10   21.15    0.84
   2  -1  10    0.12    0.09
   2  -1  10    0.11    0.08
   2  -1  10    0.19    0.09
   3  -1  10    2.89    0.22
   3  -1  10    2.88    0.11
   3  -1  10    2.67    0.24
   3  -1  10    2.57    0.22
   4  -1  10    4.37    0.28
   4  -1  10    4.99    0.18
   4  -1  10    4.41    0.31
   4  -1  10    4.44    0.31
   5  -1  10   19.43    0.63
   5  -1  10   20.00    0.83
   5  -1  10   18.24    0.80
   5  -1  10   18.53    0.74
   6  -1  10    0.89    0.08
   6  -1  10    1.39    0.19
   6  -1  10    1.02    0.16
   6  -1  10    1.17    0.18
   7  -1  10    0.86    0.16
   7  -1  10    1.30    0.10
   7  -1  10    1.13    0.18
   7  -1  10    1.09    0.18
   8  -1  10    0.74    0.15
   8  -1  10    0.91    0.17
   8  -1  10    0.93    0.18
   8  -1  10    0.88    0.09
   9  -1  10    0.01    0.10
   9  -1  10   -0.05    0.09
   9  -1  10   -0.06    0.09
  10  -1  10    2.29    0.28
  10  -1  10    2.31    0.29
  10  -1  10    2.31    0.27
  11  -1  10    1.34    0.22
  11  -1  10    1.78    0.25
  11  -1  10    1.68    0.25
  12  -1  10    0.75    0.18
  12  -1  10    0.97    0.23
  12  -1  10    0.97    0.22
  13  -1  10    0.52    0.18
  13  -1  10    0.09    0.14
  13  -1  10    0.34    0.16
  14  -1  10    0.61    0.19
  14  -1  10    0.66    0.19
  14  -1  10    0.70    0.20
  15  -1  10    0.59    0.19
  15  -1  10    0.26    0.17
  16  -1  10    1.48    0.29
  16   0 -10    2.64    0.26
 -16   0  10    2.52    0.31
  15   0 -10    0.37    0.12
 -15   0  10    0.27    0.14
 -14   0  10    2.34    0.27
 -13   0  10    0.44    0.13
  12   0 -10    6.63    0.28
 -12   0  10    6.06    0.36
  11   0 -10    1.66    0.13
 -11   0  10    1.78    0.20
  10   0 -10    8.19    0.32
 -10   0  10    7.77    0.38
   9   0 -10    1.53    0.12
  -9   0  10    1.69    0.17
   8   0 -10   11.24    0.42
  -8   0  10   11.65    0.47
  -7   0  10    6.72    0.31
  -6   0  10    9.51    0.39
  -5   0  10   26.99    0.91
  -4   0  10   12.23    0.44
  -3   0  10    8.78    0.33
  -2   0  10   26.71    0.86
  -1   0  10   31.02    0.98
   0   0  10   88.95    2.74
   0   0  10   89.83    3.12
   1   0  10    0.87    0.14
   1   0  10    0.84    0.16
   1   0  10    0.46    0.11
   2   0  10   42.18    1.61
   2   0  10   42.35    1.44
   2   0  10   46.14    1.58
   3   0  10    8.05    0.41
   3   0  10    7.45    0.38
   3   0  10    7.62    0.42
   4   0  10   40.75    1.41
   4   0  10   41.43    1.52
   4   0  10   42.52    1.58
   4   0  10   42.05    1.30
   5   0  10    0.41    0.12
   5   0  10    0.58    0.06
   5   0  10    0.37    0.12
   5   0  10    0.53    0.14
   6   0  10    1.19    0.18
   6   0  10    1.34    0.09
   6   0  10    1.22    0.18
   6   0  10    1.09    0.16
   7   0  10    0.59    0.15
   7   0  10    0.82    0.17
   7   0  10    0.78    0.15
   7   0  10    0.88    0.09
   8   0  10    2.03    0.23
   8   0  10    1.64    0.22
   8   0  10    1.64    0.23
   8   0  10    1.68    0.13
   9   0  10    0.17    0.11
   9   0  10    0.10    0.11
   9   0  10    0.07    0.11
  10   0  10    0.80    0.17
  10   0  10    1.24    0.21
  10   0  10    1.00    0.20
  11   0  10    0.08    0.11
  11   0  10    0.10    0.11
  11   0  10    0.02    0.11
  12   0  10    0.79    0.19
  12   0  10    0.64    0.17
  12   0  10    0.94    0.22
  13   0  10    1.01    0.21
  13   0  10    0.81    0.20
  13   0  10    1.03    0.23
  14   0  10    0.11    0.14
  14   0  10   -0.04    0.12
  14   0  10   -0.05    0.12
  15   0  10    1.30    0.26
  15   0  10    1.48    0.29
  15   0  10    1.16    0.25
  16   0  10    0.05    0.15
  16  -1 -10   -0.09    0.11
 -16   1  10    0.09    0.13
  15  -1 -10    4.86    0.31
 -15   1  10    4.00    0.34
  14  -1 -10   -0.03    0.08
 -14   1  10   -0.10    0.10
 -13   1  10    6.05    0.38
 -12   1  10    0.33    0.12
 -11   1  10    0.39    0.12
  10  -1 -10    0.58    0.08
 -10   1  10    0.27    0.10
   9  -1 -10    6.73    0.27
  -9   1  10    6.84    0.34
   8  -1 -10    1.59    0.12
  -8   1  10    1.65    0.16
  -7   1  10    2.83    0.19
  -6   1  10    0.50    0.09
  -5   1  10    5.54    0.26
  -4   1  10   23.99    0.81
  -3   1  10   17.90    0.61
  -2   1  10   66.91    2.09
  -1   1  10   23.04    0.90
  -1   1  10   24.20    0.76
   0   1  10   17.45    0.58
   0   1  10   19.02    0.74
   1   1  10   94.98    3.36
   1   1  10   96.60    2.97
   1   1  10   96.02    3.21
   2   1  10   18.38    0.77
   2   1  10   17.47    0.70
   2   1  10   19.76    0.78
   3   1  10   13.90    0.60
   3   1  10   12.35    0.59
   3   1  10   13.13    0.55
   4   1  10    2.09    0.21
   4   1  10    1.80    0.20
   4   1  10    2.14    0.10
   4   1  10    1.87    0.20
   5   1  10    8.52    0.42
   5   1  10    8.42    0.31
   5   1  10    8.43    0.45
   5   1  10    8.11    0.44
   6   1  10    0.63    0.15
   6   1  10    0.68    0.15
   6   1  10    0.72    0.08
   6   1  10    0.97    0.16
   7   1  10    5.28    0.33
   7   1  10    4.06    0.30
   7   1  10    4.44    0.21
   7   1  10    4.61    0.34
   8   1  10    0.58    0.15
   8   1  10    0.61    0.17
   8   1  10    0.44    0.13
   9   1  10    0.80    0.17
   9   1  10    0.99    0.18
   9   1  10    0.92    0.18
  10   1  10    3.06    0.28
  10   1  10    2.25    0.27
  10   1  10    2.31    0.29
  11   1  10    0.41    0.15
  11   1  10    0.19    0.13
  11   1  10    0.21    0.12
  12   1  10   12.95    0.66
  12   1  10   12.44    0.67
  12   1  10   13.53    0.72
  13   1  10    0.11    0.13
  13   1  10    0.16    0.13
  13   1  10   -0.03    0.13
  14   1  10    6.71    0.49
  14   1  10    6.85    0.49
  14   1  10    7.74    0.54
  15   1  10    1.29    0.25
  16  -2 -10    1.25    0.19
 -16   2  10    1.23    0.23
  15  -2 -10    1.11    0.17
 -15   2  10    0.97    0.20
  14  -2 -10    0.06    0.10
 -14   2  10    0.15    0.12
 -13   2  10    0.21    0.13
 -12   2  10    0.37    0.13
 -11   2  10   -0.03    0.08
 -10   2  10    0.63    0.13
  -9   2  10    4.30    0.26
   8  -2 -10    0.01    0.04
  -8   2  10    0.07    0.07
   7  -2 -10    0.23    0.05
  -7   2  10    0.34    0.09
  -6   2  10    1.91    0.15
  -5   2  10   26.64    0.91
  -4   2  10   20.84    0.72
  -3   2  10   11.29    0.44
  -3   2  10   12.70    0.49
  -2   2  10   24.15    0.81
  -2   2  10   25.17    0.93
  -1   2  10    9.40    0.41
  -1   2  10    8.09    0.32
   0   2  10   24.36    0.95
   0   2  10   24.41    0.79
   1   2  10   12.28    0.50
   1   2  10   11.48    0.40
   1   2  10   12.85    0.55
   2   2  10   21.19    0.82
   2   2  10   19.16    0.82
   2   2  10   20.09    0.75
   3   2  10    0.38    0.11
   3   2  10    0.50    0.12
   3   2  10    0.56    0.12
   4   2  10    1.66    0.10
   4   2  10    1.42    0.17
   4   2  10    1.43    0.19
   4   2  10    1.74    0.21
   5   2  10    0.10    0.09
   5   2  10    0.15    0.05
   5   2  10   -0.01    0.08
   5   2  10    0.12    0.09
   6   2  10    0.56    0.13
   6   2  10    0.88    0.17
   6   2  10    0.53    0.08
   6   2  10    0.83    0.15
   7   2  10    5.58    0.26
   7   2  10    5.16    0.37
   7   2  10    5.21    0.34
   7   2  10    5.57    0.36
   8   2  10    5.99    0.41
   8   2  10    5.91    0.38
   8   2  10    5.43    0.36
   9   2  10    2.64    0.26
   9   2  10    2.50    0.28
   9   2  10    2.37    0.28
  10   2  10    0.06    0.11
  10   2  10    0.16    0.13
  10   2  10    0.12    0.11
  11   2  10   12.71    0.64
  11   2  10   12.08    0.62
  11   2  10   12.06    0.68
  12   2  10    1.05    0.22
  12   2  10    0.79    0.19
  12   2  10    0.85    0.22
  13   2  10    9.95    0.59
  13   2  10   10.83    0.64
  13   2  10    9.41    0.59
  14   2  10    0.24    0.15
  14   2  10    0.16    0.15
  16  -3 -10    0.05    0.12
 -16   3  10    0.21    0.15
  15  -3 -10    3.46    0.27
 -15   3  10    3.29    0.32
  14  -3 -10    2.18    0.22
 -14   3  10    2.40    0.28
  13  -3 -10    0.43    0.12
 -13   3  10    0.31    0.14
 -12   3  10    1.27    0.20
 -11   3  10    2.65    0.25
 -10   3  10    0.74    0.14
  -9   3  10    4.83    0.30
  -8   3  10    3.25    0.23
  -7   3  10   13.04    0.53
  -6   3  10    0.32    0.09
  -5   3  10    4.40    0.24
  -4   3  10    6.81    0.30
  -4   3  10    6.76    0.30
  -3   3  10    0.14    0.06
  -3   3  10    0.24    0.07
  -2   3  10    0.30    0.08
  -2   3  10    0.13    0.06
  -1   3  10    3.90    0.24
  -1   3  10    3.62    0.18
   0   3  10    3.96    0.26
   0   3  10    4.56    0.25
   0   3  10    4.19    0.19
   1   3  10    8.80    0.40
   1   3  10    8.53    0.43
   1   3  10    8.93    0.32
   2   3  10    3.23    0.23
   2   3  10    3.08    0.24
   3   3  10    2.25    0.20
   3   3  10    2.18    0.19
   3   3  10    1.94    0.21
   4   3  10   -0.10    0.06
   4   3  10   -0.08    0.07
   4   3  10   -0.07    0.06
   5   3  10   -0.03    0.07
   5   3  10    0.06    0.05
   5   3  10    0.08    0.09
   5   3  10    0.10    0.08
   6   3  10   11.97    0.61
   6   3  10   12.45    0.57
   6   3  10   11.91    0.46
   6   3  10   11.61    0.54
   7   3  10    1.05    0.18
   7   3  10    1.16    0.20
   7   3  10    1.31    0.19
   8   3  10    1.65    0.22
   8   3  10    1.31    0.21
   8   3  10    1.47    0.21
   9   3  10    0.26    0.12
   9   3  10    0.46    0.13
   9   3  10    0.51    0.16
  10   3  10    9.00    0.51
  10   3  10    8.85    0.50
  10   3  10    9.61    0.57
  11   3  10    0.47    0.16
  11   3  10    0.50    0.18
  12   3  10    9.59    0.59
  12   3  10    9.26    0.55
  13   3  10    0.03    0.12
  13   3  10    0.03    0.13
  14   3  10    2.08    0.31
  16  -4 -10    5.12    0.38
 -16   4  10    5.00    0.42
  15  -4 -10    0.30    0.12
 -15   4  10    0.34    0.16
  14  -4 -10    3.39    0.26
 -14   4  10    3.50    0.32
  13  -4 -10    0.70    0.13
 -13   4  10    1.00    0.19
  12  -4 -10    2.57    0.21
 -12   4  10    2.61    0.26
 -11   4  10    0.52    0.14
 -10   4  10    4.16    0.30
  -9   4  10    1.45    0.18
  -8   4  10    7.12    0.37
  -7   4  10    0.55    0.11
  -6   4  10    0.75    0.12
  -5   4  10    0.09    0.06
  -4   4  10    3.47    0.21
  -4   4  10    3.20    0.20
  -3   4  10    4.14    0.23
  -3   4  10    3.92    0.22
  -2   4  10    1.23    0.14
  -2   4  10    1.58    0.13
  -1   4  10   10.74    0.47
  -1   4  10    9.69    0.40
   0   4  10   20.12    0.83
   0   4  10   20.38    0.71
   0   4  10   20.99    0.74
   1   4  10    0.91    0.15
   1   4  10    0.60    0.08
   1   4  10    0.60    0.12
   2   4  10    8.35    0.39
   2   4  10    8.54    0.45
   3   4  10    2.11    0.19
   3   4  10    1.89    0.19
   3   4  10    2.24    0.22
   4   4  10    1.96    0.19
   4   4  10    1.47    0.18
   4   4  10    2.09    0.22
   5   4  10    0.14    0.09
   5   4  10   -0.06    0.09
   5   4  10   -0.02    0.08
   6   4  10    0.36    0.11
   6   4  10    0.29    0.13
   6   4  10    0.22    0.11
   6   4  10    0.43    0.09
   7   4  10    3.03    0.29
   7   4  10    2.29    0.25
   7   4  10    2.88    0.25
   8   4  10    0.61    0.17
   8   4  10    0.52    0.15
   9   4  10    2.07    0.29
   9   4  10    1.62    0.23
  10   4  10    0.06    0.12
  10   4  10    0.14    0.13
  11   4  10    1.35    0.25
  11   4  10    1.37    0.23
  12   4  10    0.13    0.14
  12   4  10    0.13    0.15
  13   4  10    0.21    0.16
  13   4  10    0.46    0.19
 -16   5  10    2.11    0.30
  15  -5 -10    5.70    0.35
 -15   5  10    5.75    0.44
  14  -5 -10    0.00    0.10
 -14   5  10    0.06    0.13
  13  -5 -10    1.38    0.17
 -13   5  10    1.25    0.22
  12  -5 -10    0.10    0.09
 -12   5  10   -0.02    0.11
  11  -5 -10    1.08    0.14
 -11   5  10    0.91    0.17
 -10   5  10    0.46    0.13
  -9   5  10    5.34    0.33
  -8   5  10    1.26    0.17
  -7   5  10    2.78    0.23
  -6   5  10    5.66    0.32
  -5   5  10    1.10    0.14
  -4   5  10    0.31    0.09
  -3   5  10    9.80    0.43
  -3   5  10    9.56    0.42
  -2   5  10    8.45    0.39
  -2   5  10    6.85    0.34
  -1   5  10   15.11    0.66
  -1   5  10   15.93    0.59
   0   5  10    3.45    0.22
   0   5  10    3.72    0.26
   0   5  10    3.56    0.21
   1   5  10   21.77    0.78
   1   5  10   21.03    0.89
   1   5  10   21.78    0.76
   2   5  10    1.18    0.15
   2   5  10    1.27    0.18
   3   5  10    3.68    0.25
   3   5  10    3.79    0.29
   4   5  10    1.45    0.18
   4   5  10    1.69    0.22
   5   5  10    0.73    0.16
   5   5  10    1.14    0.17
   6   5  10    5.91    0.41
   6   5  10    5.70    0.36
   7   5  10    0.25    0.12
   7   5  10    0.15    0.11
   8   5  10    6.66    0.45
   8   5  10    6.46    0.41
   9   5  10    0.14    0.13
   9   5  10    0.17    0.13
  10   5  10    0.67    0.17
  10   5  10    0.39    0.17
  11   5  10    0.26    0.15
  11   5  10    0.24    0.17
  12   5  10    1.06    0.21
  12   5  10    1.27    0.25
  13   5  10    0.69    0.20
  15  -6 -10   -0.03    0.11
 -15   6  10    0.08    0.15
  14  -6 -10    0.94    0.16
 -14   6  10    1.11    0.23
  13  -6 -10    0.30    0.12
 -13   6  10    0.23    0.14
  12  -6 -10    0.47    0.12
 -12   6  10    0.59    0.17
  11  -6 -10    2.77    0.22
 -11   6  10    2.22    0.27
  10  -6 -10    0.18    0.09
 -10   6  10    0.08    0.12
  -9   6  10    1.81    0.23
  -8   6  10    1.74    0.21
  -7   6  10    5.81    0.35
  -6   6  10    6.64    0.37
  -5   6  10    1.00    0.15
  -4   6  10    8.91    0.42
  -3   6  10    3.38    0.23
  -3   6  10    3.78    0.24
  -2   6  10    7.64    0.39
  -2   6  10    8.23    0.38
  -1   6  10    1.82    0.17
  -1   6  10    2.14    0.20
   0   6  10    4.22    0.29
   0   6  10    4.36    0.25
   1   6  10   10.17    0.51
   2   6  10   14.58    0.58
   2   6  10   14.52    0.67
   3   6  10    3.95    0.30
   3   6  10    3.90    0.26
   4   6  10    1.85    0.23
   4   6  10    1.91    0.20
   5   6  10    0.43    0.12
   5   6  10    0.26    0.13
   6   6  10    4.58    0.31
   6   6  10    3.97    0.34
   7   6  10    3.83    0.34
   7   6  10    3.75    0.30
   8   6  10    2.82    0.28
   8   6  10    2.74    0.30
   9   6  10    6.25    0.47
   9   6  10    7.33    0.45
  10   6  10   -0.08    0.11
  10   6  10   -0.09    0.12
  11   6  10    5.34    0.41
  11   6  10    5.79    0.47
  12   6  10    0.19    0.15
  15  -7 -10    0.34    0.14
 -15   7  10    0.10    0.18
  14  -7 -10    0.00    0.11
 -14   7  10   -0.05    0.13
  13  -7 -10    0.21    0.11
 -13   7  10    0.33    0.16
  12  -7 -10    1.28    0.16
 -12   7  10    0.96    0.20
  11  -7 -10    0.22    0.10
 -11   7  10    0.46    0.15
  10  -7 -10    1.52    0.16
 -10   7  10    1.90    0.25
   9  -7 -10    0.29    0.09
  -9   7  10    0.17    0.12
   8  -7 -10    9.22    0.39
  -8   7  10    8.69    0.48
  -7   7  10   12.56    0.59
  -6   7  10    3.69    0.29
  -5   7  10    4.74    0.32
  -4   7  10    3.30    0.25
  -3   7  10    0.64    0.13
  -2   7  10    0.71    0.13
  -2   7  10    0.68    0.13
  -1   7  10    0.79    0.15
  -1   7  10    0.99    0.14
   0   7  10    0.50    0.13
   0   7  10    0.54    0.11
   1   7  10    0.15    0.10
   2   7  10    1.29    0.20
   3   7  10   -0.14    0.08
   4   7  10    0.11    0.12
   5   7  10    0.49    0.13
   5   7  10    0.66    0.17
   6   7  10    0.87    0.19
   6   7  10    1.19    0.19
   7   7  10    1.71    0.27
   7   7  10    1.49    0.22
   8   7  10    5.82    0.44
   8   7  10    5.33    0.38
   9   7  10    0.09    0.13
   9   7  10    0.08    0.12
  10   7  10    6.43    0.48
  10   7  10    6.26    0.44
  11   7  10   -0.03    0.12
  12   7  10    6.11    0.46
 -13   8  10    0.29    0.17
 -12   8  10    0.31    0.17
 -11   8  10    1.22    0.23
 -10   8  10    3.09    0.32
  -9   8  10    0.03    0.12
  -8   8  10    3.70    0.32
  -7   8  10    0.44    0.14
  -6   8  10    4.73    0.34
  -5   8  10    0.86    0.16
  -4   8  10    0.30    0.12
  -3   8  10    0.69    0.14
  -2   8  10    0.31    0.11
  -1   8  10    1.34    0.18
  -1   8  10    1.23    0.17
   0   8  10    2.14    0.20
   0   8  10    1.81    0.23
   1   8  10    0.10    0.10
   2   8  10    1.42    0.21
   3   8  10    4.17    0.34
   4   8  10    0.18    0.13
   5   8  10   -0.03    0.10
   6   8  10   -0.11    0.11
   7   8  10    0.65    0.19
   8   8  10    0.04    0.13
   9   8  10    1.94    0.28
   9   8  10    2.27    0.32
  10   8  10   -0.15    0.11
  10   8  10    0.20    0.18
  11   8  10    0.29    0.17
 -12   9  10   -0.01    0.14
 -11   9  10    1.71    0.28
 -10   9  10    0.10    0.14
  -9   9  10    0.13    0.13
  -8   9  10    0.18    0.14
  -7   9  10    3.60    0.32
  -6   9  10    2.59    0.29
  -5   9  10    0.20    0.11
  -4   9  10    2.99    0.28
  -3   9  10    6.41    0.39
  -2   9  10    0.14    0.10
  -1   9  10    1.21    0.18
   2   9  10    7.95    0.48
   3   9  10   10.77    0.60
   4   9  10    1.98    0.27
   5   9  10    0.91    0.21
   6   9  10    2.00    0.29
   7   9  10    1.89    0.29
   8   9  10    0.26    0.17
 -11  10  10    0.55    0.21
 -10  10  10    0.09    0.14
  -9  10  10    2.67    0.33
  -8  10  10    0.05    0.13
  -7  10  10    0.52    0.17
  -6  10  10    0.68    0.18
  -5  10  10    7.74    0.48
  -4  10  10    0.91    0.18
  -3  10  10   12.32    0.61
  -2  10  10    1.56    0.22
  -1  10  10    8.53    0.47
   3  10  10    9.31    0.56
   4  10  10    3.53    0.34
   5  10  10    1.39    0.25
   6  10  10    1.42    0.27
   7  10  10   -0.15    0.12
  -9  11  10    0.04    0.16
  -8  11  10    0.11    0.15
  -7  11  10    0.24    0.15
  -6  11  10    3.41    0.34
  -5  11  10    0.30    0.16
  -4  11  10    7.45    0.48
  -3  11  10    0.48    0.17
  -2  11  10    1.45    0.22
   3  11  10    0.19    0.15
   4  11  10    0.24    0.16
   5  11  10    0.54    0.19
   6  11  10   -0.03    0.14
  -5  12  10    0.65    0.19
  -4  12  10   -0.02    0.13
  -3  12  10    0.48    0.17
  -2  12  10    0.03    0.13
   3  12  10    1.06    0.23
   4  12  10    1.37    0.26
   3  19 -11    0.48    0.15
   5  18 -11    0.67    0.17
   4  18 -11    1.01    0.19
   7  17 -11    0.20    0.14
   6  17 -11    5.56    0.37
   5  17 -11    0.31    0.14
   6 -17  11    0.23    0.15
   7 -17  11    0.84    0.22
   8 -17  11    1.76    0.28
   9 -17  11    2.82    0.37
  10 -17  11    3.66    0.43
   8  16 -11    0.94    0.18
   7  16 -11    3.80    0.31
   6  16 -11    3.78    0.31
  -1 -16  11    1.85    0.31
   0 -16  11    1.15    0.24
   1 -16  11    8.18    0.55
   2 -16  11   12.35    0.67
   2 -16  11   13.45    0.73
   3 -16  11    1.09    0.22
   3 -16  11    0.90    0.24
   4 -16  11    2.23    0.30
   4 -16  11    2.24    0.31
   5 -16  11    0.04    0.13
   6 -16  11    7.28    0.50
   7 -16  11    2.02    0.30
   8 -16  11    3.29    0.39
   9 -16  11    2.14    0.32
  10 -16  11    1.01    0.25
  11 -16  11    1.14    0.27
   9  15 -11    2.08    0.25
   8  15 -11    0.96    0.18
   7  15 -11    0.94    0.18
   6  15 -11   -0.01    0.11
  -4 -15  11    6.05    0.45
  -3 -15  11   -0.20    0.11
  -2 -15  11    4.67    0.40
  -1 -15  11    0.09    0.13
   0 -15  11    7.12    0.49
   1 -15  11    3.25    0.32
   1 -15  11    3.33    0.38
   2 -15  11    1.14    0.22
   2 -15  11    1.38    0.25
   3 -15  11    7.49    0.51
   3 -15  11    7.43    0.49
   4 -15  11    0.59    0.17
   5 -15  11    6.89    0.47
   6 -15  11    3.97    0.37
   7 -15  11    2.15    0.31
   8 -15  11    0.91    0.22
   9 -15  11    0.87    0.22
  10 -15  11    0.49    0.20
  11 -15  11    1.61    0.30
  12 -15  11    0.09    0.16
  10  14 -11   -0.01    0.12
   9  14 -11    0.82    0.17
   8  14 -11    0.81    0.17
   7  14 -11    1.35    0.20
  -6 -14  11    2.84    0.33
  -5 -14  11    5.72    0.43
  -4 -14  11    3.69    0.34
  -3 -14  11    3.80    0.35
  -2 -14  11    0.91    0.21
  -1 -14  11    1.70    0.26
   0 -14  11    0.06    0.12
   1 -14  11    0.15    0.13
   1 -14  11    0.11    0.12
   2 -14  11    4.33    0.37
   2 -14  11    4.57    0.39
   3 -14  11   12.38    0.65
   3 -14  11   12.19    0.65
   4 -14  11    0.49    0.16
   5 -14  11    2.87    0.33
   6 -14  11    1.48    0.25
   7 -14  11    6.02    0.45
   8 -14  11    0.38    0.17
   9 -14  11    0.12    0.15
  10 -14  11   -0.13    0.13
  11 -14  11   -0.01    0.12
  12 -14  11    1.84    0.31
  11  13 -11    1.31    0.20
  10  13 -11    3.00    0.26
   9  13 -11    3.22    0.28
   8  13 -11    1.44    0.21
   7  13 -11    0.67    0.15
  -7 -13  11    0.41    0.16
  -6 -13  11   14.16    0.70
  -5 -13  11    1.18    0.23
  -4 -13  11    8.38    0.50
  -3 -13  11    3.13    0.31
  -2 -13  11    4.65    0.37
  -1 -13  11   -0.11    0.10
   0 -13  11    0.90    0.19
   1 -13  11    0.04    0.11
   1 -13  11    0.03    0.11
   2 -13  11    1.03    0.20
   2 -13  11    1.47    0.23
   3 -13  11    1.85    0.26
   4 -13  11    1.35    0.23
   5 -13  11    0.20    0.12
   6 -13  11    3.17    0.33
   7 -13  11    0.18    0.14
   8 -13  11    0.26    0.15
   9 -13  11    7.34    0.52
  10 -13  11    1.99    0.31
  11 -13  11    1.64    0.30
  12 -13  11    0.64    0.22
  13 -13  11    0.30    0.20
  12  12 -11    0.22    0.13
  11  12 -11    2.08    0.25
  10  12 -11    6.37    0.38
   9  12 -11    7.42    0.41
  -9 -12  11    6.87    0.45
   8  12 -11    0.04    0.11
  -8 -12  11    0.03    0.11
  -7 -12  11    3.62    0.32
  -6 -12  11   13.60    0.67
  -5 -12  11   24.76    1.02
  -4 -12  11    0.34    0.15
  -3 -12  11   15.54    0.72
  -2 -12  11    0.79    0.17
  -1 -12  11    4.48    0.35
   0 -12  11    0.68    0.18
   0 -12  11    0.54    0.17
   1 -12  11   28.27    1.17
   1 -12  11   28.91    1.14
   2 -12  11    7.43    0.47
   2 -12  11    7.00    0.44
   3 -12  11    0.69    0.17
   4 -12  11    5.61    0.40
   5 -12  11    0.29    0.14
   6 -12  11    3.91    0.34
   7 -12  11   -0.06    0.11
   8 -12  11   11.39    0.64
   9 -12  11    1.68    0.28
  10 -12  11    3.12    0.38
  11 -12  11    0.96    0.25
  12 -12  11    0.99    0.23
  13 -12  11    0.88    0.24
  13  11 -11    2.08    0.24
  12  11 -11    6.69    0.39
  11  11 -11    1.66    0.22
  10  11 -11    1.54    0.21
 -10 -11  11    0.90    0.19
   9  11 -11    6.30    0.36
  -9 -11  11    6.79    0.43
   8  11 -11    4.26    0.30
  -8 -11  11    4.77    0.36
  -7 -11  11    1.64    0.24
  -6 -11  11    0.18    0.12
  -5 -11  11    3.85    0.32
  -4 -11  11    6.40    0.40
  -3 -11  11    0.17    0.12
  -2 -11  11   -0.08    0.09
  -1 -11  11    0.41    0.13
   0 -11  11    1.38    0.21
   0 -11  11    1.35    0.21
   1 -11  11    1.11    0.19
   1 -11  11    1.18    0.20
   2 -11  11    1.17    0.20
   3 -11  11    7.03    0.44
   4 -11  11    3.08    0.29
   5 -11  11    1.61    0.24
   6 -11  11    0.99    0.20
   7 -11  11    9.35    0.56
   8 -11  11    0.29    0.15
   9 -11  11   11.48    0.65
  10 -11  11    4.14    0.39
  11 -11  11    2.71    0.35
  11 -11  11    3.57    0.34
  12 -11  11    2.33    0.30
  12 -11  11    2.30    0.35
  13 -11  11    0.89    0.25
  13 -11  11    1.10    0.23
  14 -11  11    0.40    0.19
  14 -11  11    0.45    0.19
  15 -11  11   -0.05    0.15
  14  10 -11    0.57    0.15
  13  10 -11   10.74    0.51
  12  10 -11    2.71    0.26
  11  10 -11    0.30    0.12
 -11 -10  11    0.41    0.16
  10  10 -11    0.35    0.14
 -10 -10  11    0.48    0.15
   9  10 -11    0.65    0.13
  -9 -10  11    0.67    0.18
  -8 -10  11    0.66    0.16
  -7 -10  11    2.50    0.27
  -6 -10  11    0.74    0.16
  -5 -10  11    0.00    0.10
  -4 -10  11    1.82    0.22
  -3 -10  11    3.11    0.27
  -2 -10  11    0.23    0.11
  -1 -10  11    0.95    0.16
   0 -10  11   -0.04    0.08
   0 -10  11   -0.03    0.09
   1 -10  11    0.09    0.10
   1 -10  11    0.06    0.09
   2 -10  11    4.81    0.36
   3 -10  11    2.20    0.27
   4 -10  11    0.83    0.19
   5 -10  11    0.83    0.18
   6 -10  11    8.11    0.50
   7 -10  11    1.41    0.23
   8 -10  11   14.59    0.74
   9 -10  11    8.76    0.51
   9 -10  11    9.01    0.56
  10 -10  11    0.68    0.19
  10 -10  11    0.68    0.18
  11 -10  11    0.97    0.20
  11 -10  11    0.80    0.21
  12 -10  11    0.31    0.15
  12 -10  11    0.53    0.20
  13 -10  11    0.47    0.21
  13 -10  11    0.41    0.17
  14 -10  11    0.18    0.17
  14 -10  11    0.44    0.18
  15 -10  11    0.11    0.15
  14   9 -11    1.70    0.22
  13   9 -11    0.58    0.15
  12   9 -11    6.99    0.38
 -12  -9  11    6.51    0.42
  11   9 -11    1.83    0.21
 -11  -9  11    1.41    0.22
  10   9 -11    0.50    0.12
 -10  -9  11    0.28    0.12
   9   9 -11    0.88    0.15
  -9  -9  11    1.26    0.19
  -8  -9  11    0.73    0.15
  -7  -9  11    0.71    0.16
  -6  -9  11    0.61    0.14
  -5  -9  11   24.28    0.95
  -4  -9  11   26.40    1.01
  -3  -9  11    0.65    0.14
  -2  -9  11   14.24    0.63
  -1  -9  11    0.30    0.11
   0  -9  11    1.14    0.19
   0  -9  11    1.25    0.18
   1  -9  11    1.24    0.20
   1  -9  11    1.06    0.16
   2  -9  11    8.42    0.49
   3  -9  11    4.47    0.34
   4  -9  11    0.56    0.16
   5  -9  11    5.76    0.40
   6  -9  11   -0.03    0.09
   7  -9  11    4.65    0.36
   8  -9  11    2.14    0.28
   8  -9  11    2.30    0.27
   9  -9  11    0.04    0.12
   9  -9  11    0.04    0.10
  10  -9  11    0.94    0.21
  10  -9  11    1.01    0.20
  11  -9  11    1.75    0.29
  11  -9  11    1.97    0.27
  12  -9  11    0.95    0.21
  12  -9  11    0.70    0.20
  13  -9  11    0.24    0.15
  13  -9  11    0.14    0.15
  14  -9  11    0.25    0.17
  14  -9  11    0.28    0.18
  15  -9  11    0.93    0.24
  15   8 -11    0.69    0.16
  14   8 -11    0.19    0.12
  13   8 -11    6.07    0.35
  12   8 -11    4.71    0.30
 -12  -8  11    4.40    0.33
  11   8 -11    1.68    0.18
 -11  -8  11    1.84    0.23
  10   8 -11    7.99    0.40
 -10  -8  11    8.54    0.45
   9   8 -11   12.09    0.52
  -9  -8  11   11.83    0.56
  -8  -8  11   10.21    0.50
  -7  -8  11   16.61    0.70
  -6  -8  11    5.25    0.33
  -5  -8  11   30.48    1.12
  -4  -8  11    6.20    0.36
  -3  -8  11   69.00    2.29
  -2  -8  11    4.11    0.28
  -1  -8  11    3.71    0.31
  -1  -8  11    3.99    0.27
   0  -8  11    2.95    0.27
   0  -8  11    2.86    0.24
   1  -8  11   21.49    0.84
   1  -8  11   22.37    0.93
   2  -8  11   10.65    0.56
   3  -8  11   16.22    0.75
   4  -8  11    5.63    0.39
   5  -8  11    0.28    0.12
   6  -8  11   10.58    0.58
   7  -8  11    0.95    0.19
   7  -8  11    0.79    0.18
   8  -8  11    5.15    0.37
   8  -8  11    6.00    0.42
   9  -8  11    1.07    0.20
   9  -8  11    0.90    0.21
  10  -8  11    3.85    0.36
  10  -8  11    3.85    0.33
  11  -8  11    1.51    0.24
  11  -8  11    1.49    0.26
  12  -8  11    2.57    0.32
  12  -8  11    3.27    0.40
  13  -8  11    2.02    0.29
  13  -8  11    2.28    0.34
  14  -8  11    1.29    0.25
  14  -8  11    1.25    0.27
  15  -8  11    1.50    0.31
  15  -8  11    1.83    0.29
  16   7 -11    0.69    0.16
  15   7 -11    0.42    0.13
  14   7 -11    0.29    0.12
  13   7 -11    0.53    0.13
 -13  -7  11    0.65    0.17
  12   7 -11    1.44    0.18
 -12  -7  11    1.59    0.21
  11   7 -11    6.08    0.34
 -11  -7  11    6.55    0.38
  10   7 -11    1.00    0.16
 -10  -7  11    1.06    0.17
   9   7 -11   28.67    1.01
  -9  -7  11   29.03    1.08
  -8  -7  11   12.81    0.57
  -7  -7  11    4.39    0.29
  -6  -7  11    2.17    0.21
  -5  -7  11   31.05    1.13
  -4  -7  11   31.84    1.14
  -3  -7  11    2.66    0.22
  -2  -7  11   10.63    0.48
  -1  -7  11    4.41    0.27
  -1  -7  11    4.44    0.32
  -1  -7  11    4.19    0.26
   0  -7  11    1.10    0.14
   0  -7  11    1.53    0.22
   0  -7  11    1.26    0.16
   1  -7  11    2.93    0.22
   1  -7  11    2.94    0.21
   1  -7  11    2.65    0.26
   2  -7  11   10.34    0.53
   2  -7  11    9.43    0.42
   3  -7  11   24.43    1.04
   3  -7  11   26.19    0.92
   4  -7  11    0.28    0.13
   4  -7  11    0.37    0.10
   5  -7  11   29.48    1.19
   6  -7  11    0.48    0.16
   6  -7  11    0.59    0.16
   7  -7  11   35.33    1.41
   7  -7  11   36.62    1.31
   8  -7  11    6.70    0.44
   8  -7  11    6.71    0.42
   9  -7  11   19.43    0.91
   9  -7  11   20.53    0.86
  10  -7  11    5.78    0.40
  10  -7  11    6.57    0.46
  11  -7  11   10.31    0.62
  11  -7  11   11.37    0.60
  12  -7  11    3.93    0.40
  12  -7  11    4.64    0.37
  13  -7  11    3.42    0.37
  13  -7  11    2.37    0.34
  14  -7  11    3.03    0.40
  14  -7  11    3.00    0.36
  15  -7  11    0.24    0.17
  15  -7  11    0.29    0.19
  16   6 -11    0.11    0.11
  15   6 -11    4.04    0.29
  14   6 -11    0.80    0.15
 -14  -6  11    0.69    0.17
  13   6 -11    4.60    0.29
 -13  -6  11    4.66    0.34
  12   6 -11    1.17    0.16
 -12  -6  11    1.55    0.21
  11   6 -11    3.66    0.25
 -11  -6  11    3.78    0.28
  10   6 -11    3.73    0.25
 -10  -6  11    3.63    0.27
   9   6 -11    2.41    0.21
  -9  -6  11    2.11    0.21
  -8  -6  11    2.87    0.23
  -7  -6  11    0.16    0.09
  -6  -6  11    3.57    0.25
  -5  -6  11    6.23    0.33
  -4  -6  11    4.57    0.27
  -3  -6  11    9.59    0.43
  -2  -6  11    0.06    0.06
  -1  -6  11   10.56    0.55
  -1  -6  11   11.08    0.47
   0  -6  11   13.55    0.65
   0  -6  11   14.26    0.56
   0  -6  11   13.56    0.54
   1  -6  11   10.11    0.43
   1  -6  11    9.97    0.53
   1  -6  11   10.63    0.45
   2  -6  11   10.93    0.45
   2  -6  11   11.19    0.56
   3  -6  11    0.74    0.16
   3  -6  11    0.80    0.11
   4  -6  11   28.81    1.17
   4  -6  11   29.75    1.01
   5  -6  11    0.83    0.17
   5  -6  11    0.95    0.12
   5  -6  11    1.03    0.18
   6  -6  11   30.89    1.15
   6  -6  11   31.42    1.24
   7  -6  11    3.05    0.27
   7  -6  11    3.06    0.30
   8  -6  11    6.66    0.41
   8  -6  11    6.54    0.44
   9  -6  11    1.81    0.25
   9  -6  11    1.71    0.24
  10  -6  11    2.38    0.31
  10  -6  11    2.48    0.29
  11  -6  11    0.19    0.15
  11  -6  11   -0.03    0.11
  12  -6  11    7.55    0.53
  12  -6  11    7.75    0.50
  13  -6  11   -0.07    0.13
  13  -6  11    0.29    0.16
  14  -6  11    0.13    0.16
  14  -6  11    0.56    0.19
  15  -6  11    0.28    0.17
  15  -6  11    0.14    0.18
  17   5 -11    0.41    0.13
  16   5 -11    9.15    0.44
  16   5 -11    9.44    0.54
  15   5 -11    1.40    0.18
  14   5 -11    2.17    0.21
 -14  -5  11    2.09    0.25
  13   5 -11    0.27    0.11
 -13  -5  11    0.15    0.12
  12   5 -11    3.53    0.24
 -12  -5  11    3.17    0.28
  11   5 -11    0.92    0.14
 -11  -5  11    0.83    0.15
  10   5 -11    5.29    0.29
 -10  -5  11    5.15    0.32
   9   5 -11    0.50    0.11
  -9  -5  11    0.48    0.12
  -8  -5  11   10.37    0.47
  -7  -5  11    0.78    0.13
  -6  -5  11    7.25    0.36
  -5  -5  11    2.67    0.20
  -4  -5  11   13.05    0.53
  -3  -5  11   10.62    0.45
  -2  -5  11    1.17    0.13
  -1  -5  11   -0.03    0.06
   0  -5  11    8.16    0.35
   0  -5  11    7.96    0.45
   0  -5  11    7.99    0.36
   1  -5  11   15.30    0.59
   1  -5  11   15.18    0.57
   1  -5  11   15.67    0.71
   2  -5  11    5.68    0.26
   2  -5  11    5.08    0.36
   3  -5  11    0.55    0.15
   3  -5  11    0.66    0.10
   4  -5  11    1.12    0.19
   4  -5  11    1.34    0.20
   4  -5  11    1.52    0.14
   5  -5  11   44.84    1.69
   5  -5  11   45.74    1.57
   5  -5  11   46.50    1.50
   6  -5  11    1.57    0.23
   6  -5  11    1.39    0.21
   6  -5  11    1.84    0.14
   7  -5  11    0.82    0.16
   7  -5  11    1.21    0.21
   8  -5  11    0.52    0.15
   8  -5  11    0.44    0.16
   9  -5  11    0.03    0.10
   9  -5  11    0.14    0.12
  10  -5  11    4.01    0.33
  10  -5  11    4.17    0.37
  11  -5  11    0.87    0.21
  11  -5  11    0.88    0.20
  12  -5  11    2.06    0.30
  12  -5  11    1.74    0.26
  13  -5  11    0.16    0.15
  13  -5  11    0.17    0.15
  14  -5  11    0.23    0.15
  14  -5  11    0.37    0.19
  15  -5  11    0.78    0.24
  15  -5  11    1.07    0.25
  17   4 -11   -0.09    0.10
  16   4 -11    0.51    0.13
  16   4 -11    0.63    0.16
  15   4 -11    4.98    0.30
 -15  -4  11    4.98    0.36
  14   4 -11    0.22    0.10
 -14  -4  11    0.45    0.15
  13   4 -11    2.92    0.21
 -13  -4  11    3.03    0.27
  12   4 -11    2.85    0.21
 -12  -4  11    3.03    0.26
  11   4 -11    0.21    0.09
 -11  -4  11    0.24    0.11
  10   4 -11   15.07    0.58
 -10  -4  11   15.37    0.64
   9   4 -11   11.14    0.47
  -9  -4  11   11.76    0.50
  -8  -4  11   19.08    0.73
  -7  -4  11   48.50    1.62
  -6  -4  11    1.71    0.16
  -5  -4  11   61.78    2.01
  -4  -4  11    3.04    0.19
  -3  -4  11   18.10    0.66
  -2  -4  11    0.89    0.11
  -1  -4  11    1.43    0.13
   0  -4  11   18.84    0.68
   0  -4  11   19.53    0.83
   1  -4  11   15.09    0.69
   1  -4  11   14.54    0.54
   1  -4  11   15.44    0.56
   2  -4  11    1.23    0.19
   2  -4  11    1.32    0.12
   3  -4  11   26.68    1.09
   3  -4  11   28.19    0.92
   3  -4  11   27.40    1.01
   4  -4  11    2.06    0.14
   4  -4  11    1.95    0.22
   4  -4  11    1.65    0.22
   5  -4  11    5.61    0.38
   5  -4  11    5.11    0.34
   5  -4  11    5.48    0.24
   6  -4  11    8.22    0.44
   6  -4  11    8.11    0.33
   6  -4  11    7.82    0.47
   7  -4  11    1.70    0.13
   7  -4  11    1.67    0.24
   7  -4  11    1.70    0.22
   8  -4  11    8.86    0.52
   8  -4  11    9.06    0.49
   9  -4  11    1.43    0.22
   9  -4  11    1.76    0.23
  10  -4  11    5.64    0.40
  10  -4  11    6.44    0.45
  11  -4  11   10.69    0.61
  11  -4  11   10.00    0.56
  12  -4  11    1.11    0.23
  12  -4  11    1.37    0.24
  13  -4  11    0.11    0.13
  13  -4  11    0.07    0.14
  14  -4  11    0.46    0.18
  14  -4  11    0.51    0.20
  15  -4  11    1.00    0.26
  15  -4  11    0.98    0.23
  16   3 -11    7.62    0.42
  15   3 -11    2.47    0.22
 -15  -3  11    3.36    0.30
  14   3 -11    0.49    0.11
 -14  -3  11    0.16    0.12
  13   3 -11    4.84    0.27
 -13  -3  11    5.08    0.34
  12   3 -11    3.14    0.21
 -12  -3  11    3.00    0.26
  11   3 -11   11.98    0.47
 -11  -3  11   11.97    0.54
  10   3 -11    9.69    0.40
 -10  -3  11    9.51    0.45
   9   3 -11   17.22    0.64
  -9  -3  11   18.05    0.69
  -8  -3  11    7.52    0.36
  -7  -3  11    2.21    0.17
  -6  -3  11   34.86    1.18
  -5  -3  11   24.91    0.87
  -4  -3  11    6.38    0.29
  -3  -3  11    4.32    0.22
  -2  -3  11   28.49    0.96
  -1  -3  11    0.08    0.05
   0  -3  11    2.13    0.14
   0  -3  11    1.74    0.22
   1  -3  11    4.57    0.21
   1  -3  11    4.56    0.33
   1  -3  11    4.63    0.21
   2  -3  11    2.38    0.14
   2  -3  11    2.48    0.24
   3  -3  11   26.76    0.99
   3  -3  11   26.56    1.07
   3  -3  11   27.42    0.89
   4  -3  11   15.89    0.67
   4  -3  11   15.18    0.71
   4  -3  11   16.28    0.55
   5  -3  11    8.67    0.32
   5  -3  11    8.43    0.47
   5  -3  11    8.30    0.44
   6  -3  11    1.66    0.21
   6  -3  11    1.24    0.19
   6  -3  11    1.70    0.11
   7  -3  11   16.87    0.72
   7  -3  11   16.87    0.77
   7  -3  11   17.12    0.59
   8  -3  11    2.24    0.26
   8  -3  11    2.32    0.28
   9  -3  11   21.71    0.96
   9  -3  11   22.05    0.90
  10  -3  11    3.44    0.31
  10  -3  11    3.80    0.34
  11  -3  11    4.95    0.40
  11  -3  11    4.87    0.38
  12  -3  11   -0.11    0.11
  12  -3  11    0.08    0.13
  13  -3  11    4.21    0.39
  13  -3  11    3.83    0.37
  14  -3  11    0.81    0.21
  14  -3  11    0.95    0.23
  15  -3  11    1.65    0.28
  15  -3  11    1.69    0.30
  16   2 -11    0.24    0.14
 -15  -2  11    2.82    0.30
  14   2 -11    4.11    0.25
 -14  -2  11    4.27    0.32
  13   2 -11   14.32    0.54
 -13  -2  11   14.44    0.64
  12   2 -11    1.31    0.14
 -12  -2  11    1.14    0.17
  11   2 -11    6.90    0.30
 -11  -2  11    6.17    0.35
  10   2 -11    4.42    0.23
 -10  -2  11    4.24    0.28
   9   2 -11    0.49    0.10
  -9  -2  11    0.44    0.11
  -8  -2  11    6.97    0.34
  -7  -2  11    2.56    0.18
  -6  -2  11    8.86    0.37
  -5  -2  11   16.60    0.60
  -4  -2  11    0.56    0.08
  -3  -2  11    0.82    0.09
  -2  -2  11    8.76    0.34
  -1  -2  11   50.34    1.60
   0  -2  11   10.40    0.52
   0  -2  11   10.12    0.37
   1  -2  11    8.46    0.31
   1  -2  11    8.37    0.31
   1  -2  11    8.86    0.47
   2  -2  11   12.30    0.43
   2  -2  11   12.85    0.43
   2  -2  11   12.11    0.54
   2  -2  11   12.58    0.60
   3  -2  11    0.61    0.14
   3  -2  11    0.94    0.17
   3  -2  11    0.75    0.07
   4  -2  11   19.39    0.85
   4  -2  11   20.46    0.65
   4  -2  11   20.02    0.79
   5  -2  11    0.33    0.12
   5  -2  11    0.39    0.13
   5  -2  11    0.51    0.06
   6  -2  11   37.19    1.33
   6  -2  11   37.59    1.21
   6  -2  11   38.96    1.44
   7  -2  11    4.78    0.36
   7  -2  11    4.79    0.33
   7  -2  11    4.94    0.22
   7  -2  11    5.13    0.35
   8  -2  11   13.13    0.67
   8  -2  11   13.23    0.66
   8  -2  11   13.00    0.62
   9  -2  11    0.14    0.12
   9  -2  11    0.13    0.12
   9  -2  11    0.23    0.13
  10  -2  11    4.23    0.36
  10  -2  11    4.34    0.34
  10  -2  11    3.94    0.35
  11  -2  11    1.07    0.21
  11  -2  11    0.46    0.16
  12  -2  11    0.66    0.19
  12  -2  11    1.11    0.23
  13  -2  11    0.42    0.17
  13  -2  11    0.16    0.13
  14  -2  11    0.34    0.17
  14  -2  11    0.57    0.19
  15  -2  11    0.20    0.17
  15  -2  11    0.16    0.15
  16  -2  11    0.05    0.17
  16   1 -11    0.14    0.13
 -16  -1  11    0.23    0.15
  15   1 -11    1.74    0.21
 -15  -1  11    2.20    0.28
 -14  -1  11    7.92    0.45
 -13  -1  11    0.09    0.11
  12   1 -11    8.84    0.36
 -12  -1  11    8.05    0.43
  11   1 -11    0.70    0.10
 -11  -1  11    0.80    0.15
  10   1 -11    0.45    0.09
 -10  -1  11    0.56    0.12
   9   1 -11    0.65    0.10
  -9  -1  11    0.54    0.11
  -8  -1  11    4.44    0.25
  -7  -1  11    1.90    0.15
  -6  -1  11    0.14    0.06
  -5  -1  11    2.43    0.16
  -4  -1  11   26.76    0.89
  -3  -1  11    0.35    0.06
  -2  -1  11    1.35    0.09
  -1  -1  11    0.71    0.07
   0  -1  11    5.82    0.21
   1  -1  11   41.89    1.54
   2  -1  11   19.60    0.75
   2  -1  11   19.09    0.81
   3  -1  11    9.94    0.51
   3  -1  11    9.27    0.46
   3  -1  11   10.48    0.50
   4  -1  11   16.45    0.75
   4  -1  11   16.62    0.74
   4  -1  11   16.98    0.69
   4  -1  11   17.40    0.55
   5  -1  11   12.14    0.59
   5  -1  11   12.40    0.41
   5  -1  11   12.05    0.59
   5  -1  11   11.76    0.55
   6  -1  11    2.25    0.12
   6  -1  11    2.26    0.26
   6  -1  11    2.03    0.23
   6  -1  11    2.22    0.24
   7  -1  11    1.67    0.11
   7  -1  11    1.85    0.24
   7  -1  11    1.85    0.25
   7  -1  11    1.79    0.22
   8  -1  11    0.23    0.13
   8  -1  11    0.48    0.14
   8  -1  11    0.32    0.14
   9  -1  11    1.01    0.20
   9  -1  11    1.26    0.22
   9  -1  11    1.13    0.21
  10  -1  11    0.38    0.16
  10  -1  11    0.59    0.17
  10  -1  11    0.69    0.17
  11  -1  11   -0.13    0.10
  11  -1  11    0.09    0.13
  11  -1  11    0.25    0.13
  12  -1  11    3.49    0.34
  12  -1  11    3.37    0.34
  12  -1  11    3.81    0.37
  13  -1  11    0.08    0.13
  13  -1  11    0.29    0.16
  13  -1  11    0.27    0.15
  14  -1  11    0.32    0.15
  14  -1  11    0.44    0.18
  15  -1  11    0.40    0.18
  16  -1  11    0.56    0.23
  16   0 -11    1.03    0.19
 -16   0  11    0.74    0.18
  15   0 -11    5.29    0.34
 -15   0  11    4.97    0.38
 -14   0  11    0.61    0.16
 -13   0  11    8.77    0.47
 -12   0  11    4.19    0.30
  11   0 -11    1.19    0.12
 -11   0  11    0.93    0.15
  10   0 -11    5.64    0.25
 -10   0  11    5.27    0.31
   9   0 -11    0.12    0.06
  -9   0  11    0.16    0.08
   8   0 -11   11.87    0.44
  -8   0  11   11.45    0.48
  -7   0  11    4.51    0.24
  -6   0  11    0.23    0.07
  -5   0  11   10.09    0.39
  -4   0  11   58.95    1.87
  -3   0  11   30.19    0.98
  -2   0  11    3.11    0.15
  -1   0  11    2.81    0.12
   0   0  11    6.42    0.22
   1   0  11   14.24    0.65
   1   0  11   16.32    0.69
   1   0  11   15.36    0.62
   2   0  11    8.69    0.46
   2   0  11    8.40    0.43
   2   0  11    8.48    0.42
   3   0  11    3.67    0.27
   3   0  11    3.61    0.28
   3   0  11    3.62    0.27
   4   0  11    0.28    0.11
   4   0  11    0.18    0.10
   4   0  11    0.29    0.11
   5   0  11    0.10    0.10
   5   0  11    0.23    0.04
   5   0  11    0.40    0.12
   5   0  11    0.42    0.12
   6   0  11    0.93    0.17
   6   0  11    0.80    0.16
   6   0  11    0.91    0.16
   6   0  11    1.00    0.08
   7   0  11    0.35    0.14
   7   0  11    0.35    0.13
   7   0  11    0.27    0.11
   7   0  11    0.18    0.06
   8   0  11    1.55    0.22
   8   0  11    2.03    0.25
   8   0  11    2.04    0.26
   9   0  11    0.07    0.12
   9   0  11    0.13    0.11
   9   0  11    0.14    0.12
  10   0  11    1.55    0.24
  10   0  11    1.65    0.24
  10   0  11    1.40    0.25
  11   0  11    0.90    0.20
  11   0  11    0.24    0.13
  11   0  11    0.78    0.19
  12   0  11    4.42    0.41
  12   0  11    5.12    0.41
  12   0  11    5.43    0.42
  13   0  11    0.56    0.19
  13   0  11    0.47    0.18
  13   0  11    0.57    0.18
  14   0  11    1.37    0.26
  14   0  11    1.30    0.26
  14   0  11    1.07    0.25
  15   0  11    0.08    0.15
 -16   1  11    2.50    0.30
  15  -1 -11    0.17    0.12
 -15   1  11    0.10    0.13
 -14   1  11    0.47    0.15
 -13   1  11    0.69    0.16
 -12   1  11    1.81    0.22
 -11   1  11    0.66    0.14
 -10   1  11    0.20    0.09
  -9   1  11    3.50    0.24
   8  -1 -11    0.26    0.07
  -8   1  11    0.26    0.09
  -7   1  11    3.27    0.20
  -6   1  11    0.14    0.06
  -5   1  11   64.53    2.06
  -4   1  11   22.98    0.78
  -3   1  11   11.23    0.41
  -2   1  11   27.80    0.90
  -1   1  11    1.89    0.17
  -1   1  11    1.77    0.10
   0   1  11   22.93    0.90
   0   1  11   22.62    0.72
   1   1  11    1.16    0.16
   1   1  11    0.90    0.14
   2   1  11    0.56    0.12
   2   1  11    0.50    0.11
   2   1  11    0.72    0.14
   3   1  11   10.77    0.47
   3   1  11    8.82    0.48
   3   1  11    9.67    0.49
   4   1  11    0.51    0.13
   4   1  11    0.48    0.13
   4   1  11    0.59    0.14
   5   1  11   12.81    0.63
   5   1  11   13.04    0.45
   5   1  11   13.63    0.62
   5   1  11   12.78    0.58
   6   1  11    0.76    0.16
   6   1  11    0.54    0.13
   6   1  11    0.76    0.16
   6   1  11    0.68    0.08
   7   1  11   11.43    0.58
   7   1  11   12.12    0.62
   7   1  11   11.41    0.55
   7   1  11   11.27    0.43
   8   1  11    2.13    0.25
   8   1  11    2.17    0.26
   8   1  11    2.02    0.28
   9   1  11    7.33    0.49
   9   1  11    8.59    0.47
   9   1  11    7.62    0.47
  10   1  11    1.80    0.27
  10   1  11    1.51    0.24
  10   1  11    1.53    0.23
  11   1  11    7.71    0.51
  11   1  11    7.11    0.47
  11   1  11    7.30    0.48
  12   1  11    0.66    0.20
  12   1  11    0.34    0.16
  12   1  11    0.38    0.16
  13   1  11    1.45    0.26
  13   1  11    1.15    0.24
  13   1  11    1.57    0.27
  14   1  11   -0.03    0.16
  14   1  11    0.06    0.15
 -16   2  11   -0.01    0.14
  15  -2 -11    6.44    0.38
 -15   2  11    5.88    0.42
  14  -2 -11    0.24    0.12
 -14   2  11   -0.04    0.11
 -13   2  11    1.40    0.20
 -12   2  11    3.66    0.29
 -11   2  11    3.64    0.27
 -10   2  11    3.21    0.25
  -9   2  11    0.60    0.12
  -8   2  11   17.39    0.67
  -7   2  11    1.91    0.16
  -6   2  11   19.62    0.71
  -5   2  11   12.46    0.48
  -4   2  11    1.79    0.14
  -3   2  11   10.12    0.39
  -2   2  11    5.20    0.23
  -2   2  11    5.44    0.28
  -1   2  11   45.38    1.44
  -1   2  11   45.65    1.65
   0   2  11    2.72    0.21
   0   2  11    2.86    0.13
   1   2  11    8.55    0.44
   1   2  11    9.52    0.43
   2   2  11   17.50    0.68
   2   2  11   16.88    0.75
   2   2  11   17.73    0.74
   3   2  11    3.80    0.28
   3   2  11    3.62    0.25
   3   2  11    3.47    0.27
   4   2  11    8.91    0.46
   4   2  11    8.04    0.46
   4   2  11    8.67    0.43
   5   2  11    1.11    0.18
   5   2  11    1.16    0.10
   5   2  11    1.29    0.19
   5   2  11    1.15    0.18
   6   2  11   36.54    1.43
   6   2  11   34.96    1.34
   6   2  11   34.82    1.16
   6   2  11   35.28    1.26
   7   2  11    7.96    0.44
   7   2  11    7.61    0.33
   7   2  11    7.76    0.45
   7   2  11    7.49    0.47
   8   2  11    2.49    0.25
   8   2  11    1.80    0.23
   8   2  11    2.57    0.27
   9   2  11    1.67    0.24
   9   2  11    2.24    0.30
   9   2  11    2.21    0.27
  10   2  11    5.10    0.38
  10   2  11    4.80    0.37
  10   2  11    5.28    0.41
  11   2  11    0.43    0.15
  11   2  11    0.58    0.20
  11   2  11    0.55    0.17
  12   2  11    3.59    0.35
  12   2  11    2.87    0.34
  13   2  11    0.15    0.14
  13   2  11    0.13    0.15
 -16   3  11    2.02    0.28
  15  -3 -11    0.20    0.12
 -15   3  11    0.06    0.14
  14  -3 -11    2.92    0.25
 -14   3  11    3.39    0.32
  13  -3 -11    0.18    0.11
 -13   3  11    0.18    0.12
 -12   3  11    3.90    0.31
 -11   3  11    0.08    0.10
 -10   3  11    0.69    0.14
  -9   3  11    0.38    0.11
  -8   3  11    1.25    0.16
  -7   3  11    0.75    0.12
  -6   3  11    2.50    0.19
  -5   3  11    7.77    0.35
  -4   3  11    0.26    0.08
  -3   3  11    0.31    0.07
  -3   3  11    0.25    0.07
  -2   3  11    0.42    0.07
  -2   3  11    0.58    0.10
  -1   3  11    0.02    0.06
  -1   3  11    0.06    0.05
   0   3  11    7.38    0.28
   0   3  11    6.58    0.37
   1   3  11   10.16    0.50
   1   3  11   10.82    0.47
   2   3  11    1.48    0.17
   2   3  11    1.27    0.18
   3   3  11    9.91    0.49
   3   3  11    9.61    0.50
   3   3  11    9.95    0.46
   4   3  11    2.26    0.22
   4   3  11    2.26    0.23
   4   3  11    2.27    0.22
   5   3  11   14.57    0.64
   5   3  11   13.55    0.68
   5   3  11   14.36    0.62
   6   3  11    1.12    0.19
   6   3  11    1.42    0.20
   6   3  11    1.09    0.12
   6   3  11    1.32    0.20
   7   3  11    9.30    0.49
   7   3  11    9.00    0.48
   7   3  11    9.19    0.54
   8   3  11    0.62    0.17
   8   3  11    0.43    0.14
   8   3  11    0.52    0.15
   9   3  11    8.28    0.49
   9   3  11    8.98    0.55
  10   3  11    1.57    0.25
  10   3  11    1.89    0.27
  11   3  11    3.63    0.35
  11   3  11    4.33    0.40
  12   3  11    0.33    0.16
  12   3  11    0.44    0.18
  13   3  11    1.08    0.24
  13   3  11    1.12    0.29
 -16   4  11    0.20    0.17
  15  -4 -11    5.35    0.35
 -15   4  11    5.26    0.42
  14  -4 -11    1.11    0.17
 -14   4  11    1.17    0.22
  13  -4 -11    0.34    0.12
 -13   4  11    0.51    0.15
  12  -4 -11   -0.13    0.08
 -12   4  11   -0.06    0.09
 -11   4  11    1.08    0.18
 -10   4  11    1.05    0.17
  -9   4  11    0.56    0.13
  -8   4  11    3.10    0.24
  -7   4  11    1.20    0.16
  -6   4  11    0.01    0.07
  -5   4  11    0.01    0.06
  -4   4  11    7.55    0.35
  -3   4  11   10.60    0.48
  -3   4  11    9.96    0.42
  -2   4  11    9.28    0.43
  -2   4  11    8.80    0.37
  -1   4  11    1.41    0.16
  -1   4  11    1.82    0.14
   0   4  11    0.02    0.07
   0   4  11    0.18    0.06
   1   4  11    3.24    0.22
   1   4  11    2.61    0.23
   2   4  11    0.44    0.12
   2   4  11    0.64    0.12
   3   4  11    0.30    0.10
   3   4  11    0.35    0.12
   4   4  11    0.09    0.10
   4   4  11   -0.10    0.07
   4   4  11    0.13    0.09
   5   4  11    3.37    0.27
   5   4  11    3.71    0.31
   5   4  11    3.16    0.29
   6   4  11    3.88    0.32
   6   4  11    3.29    0.28
   7   4  11    0.90    0.17
   7   4  11    0.81    0.19
   8   4  11    0.14    0.13
   8   4  11    0.17    0.11
   9   4  11    2.64    0.30
   9   4  11    2.92    0.32
  10   4  11   -0.01    0.12
  10   4  11   -0.09    0.10
  11   4  11    5.59    0.46
  11   4  11    5.46    0.42
  12   4  11   -0.14    0.11
  12   4  11   -0.08    0.13
  13   4  11   -0.07    0.14
  15  -5 -11    0.64    0.15
 -15   5  11    0.60    0.19
  14  -5 -11   -0.06    0.10
 -14   5  11    0.03    0.12
  13  -5 -11    0.98    0.16
 -13   5  11    0.80    0.19
  12  -5 -11    0.08    0.09
 -12   5  11    0.07    0.12
  11  -5 -11    7.69    0.38
 -11   5  11    7.88    0.45
 -10   5  11    0.24    0.11
  -9   5  11    4.63    0.32
  -8   5  11    9.60    0.47
  -7   5  11   18.52    0.74
  -6   5  11   16.98    0.68
  -5   5  11    4.23    0.27
  -4   5  11   18.09    0.69
  -3   5  11    2.17    0.18
  -2   5  11    9.90    0.41
  -2   5  11    8.79    0.44
  -1   5  11    3.02    0.20
  -1   5  11    3.17    0.24
   0   5  11   22.64    0.77
   0   5  11   20.51    0.88
   1   5  11    2.06    0.19
   1   5  11    2.00    0.21
   2   5  11    0.04    0.08
   2   5  11   -0.10    0.07
   3   5  11    0.62    0.15
   3   5  11    0.80    0.14
   4   5  11    0.37    0.14
   4   5  11    0.31    0.11
   5   5  11    9.38    0.47
   5   5  11    9.06    0.53
   6   5  11    0.96    0.17
   6   5  11    0.66    0.17
   7   5  11   12.04    0.58
   7   5  11   12.27    0.66
   8   5  11    3.53    0.31
   8   5  11    3.85    0.36
   9   5  11    1.42    0.23
   9   5  11    1.44    0.24
  10   5  11    6.00    0.47
  10   5  11    6.28    0.44
  11   5  11    0.67    0.21
  11   5  11    0.51    0.18
  12   5  11    0.09    0.15
  14  -6 -11    2.18    0.22
 -14   6  11    2.08    0.30
  13  -6 -11    0.86    0.15
 -13   6  11    0.61    0.19
  12  -6 -11    8.54    0.41
 -12   6  11    7.83    0.49
  11  -6 -11    0.05    0.09
 -11   6  11    0.06    0.12
  10  -6 -11    7.41    0.36
 -10   6  11    7.39    0.44
  -9   6  11    1.04    0.19
  -8   6  11   32.09    1.19
  -7   6  11    8.69    0.46
  -6   6  11   11.91    0.54
  -5   6  11   17.63    0.71
  -4   6  11    2.36    0.21
  -3   6  11    2.95    0.22
  -2   6  11    3.92    0.25
  -1   6  11   26.86    0.93
  -1   6  11   24.61    1.02
   0   6  11   -0.02    0.06
   0   6  11   -0.06    0.08
   1   6  11    8.61    0.47
   2   6  11   12.72    0.62
   3   6  11    1.25    0.20
   4   6  11    0.87    0.18
   4   6  11    0.88    0.16
   5   6  11    0.78    0.16
   5   6  11    1.38    0.23
   6   6  11   22.27    0.88
   6   6  11   21.71    1.00
   7   6  11   -0.11    0.09
   7   6  11    0.33    0.15
   8   6  11    6.18    0.41
   8   6  11    6.23    0.46
   9   6  11   -0.01    0.12
   9   6  11    0.02    0.12
  10   6  11    6.09    0.48
  10   6  11    6.29    0.44
  11   6  11    0.19    0.15
 -13   7  11    2.23    0.30
 -12   7  11    0.07    0.13
 -11   7  11    6.24    0.43
 -10   7  11    1.07    0.21
  -9   7  11    5.07    0.37
  -8   7  11    0.29    0.13
  -7   7  11    2.86    0.27
  -6   7  11    1.68    0.22
  -5   7  11    0.57    0.14
  -4   7  11    2.14    0.22
  -3   7  11    0.07    0.09
  -2   7  11    1.10    0.16
  -1   7  11    0.12    0.09
  -1   7  11    0.17    0.10
   0   7  11    5.39    0.29
   0   7  11    4.78    0.33
   1   7  11    3.88    0.30
   2   7  11    0.18    0.11
   3   7  11    6.96    0.44
   4   7  11    0.31    0.14
   5   7  11    5.72    0.42
   6   7  11    1.02    0.22
   7   7  11   11.02    0.64
   8   7  11    0.04    0.12
   8   7  11    0.20    0.14
   9   7  11    8.30    0.56
   9   7  11    8.03    0.49
  10   7  11    0.11    0.14
  11   7  11    0.62    0.20
 -12   8  11    0.40    0.18
 -11   8  11    1.46    0.24
 -10   8  11    0.85    0.19
  -9   8  11    0.17    0.13
  -8   8  11    0.22    0.13
  -7   8  11    0.45    0.15
  -6   8  11    0.34    0.13
  -5   8  11    0.14    0.10
  -4   8  11    1.74    0.21
  -3   8  11    0.26    0.12
  -2   8  11    1.40    0.18
  -1   8  11    0.44    0.12
   0   8  11    0.40    0.13
   1   8  11    0.55    0.15
   2   8  11    1.74    0.24
   3   8  11   -0.07    0.10
   4   8  11    1.06    0.21
   5   8  11    1.60    0.25
   6   8  11    5.09    0.41
   7   8  11    0.97    0.23
   8   8  11    1.09    0.24
 -10   9  11    0.74    0.20
  -9   9  11    2.48    0.31
  -8   9  11    0.83    0.19
  -7   9  11    6.18    0.42
  -6   9  11    2.91    0.29
  -5   9  11    6.89    0.43
  -4   9  11   12.56    0.61
  -3   9  11    0.39    0.14
  -2   9  11   -0.08    0.09
  -1   9  11    3.74    0.29
   1   9  11    0.00    0.11
   2   9  11    0.66    0.18
   3   9  11    4.81    0.39
   4   9  11   -0.14    0.10
   5   9  11    0.31    0.16
   6   9  11    0.17    0.15
   7   9  11    0.54    0.20
  -8  10  11    3.93    0.37
  -7  10  11    0.05    0.13
  -6  10  11    9.79    0.55
  -5  10  11    3.88    0.35
  -4  10  11    5.53    0.40
  -3  10  11    0.69    0.17
  -2  10  11    0.47    0.14
   2  10  11    0.75    0.20
   3  10  11    0.26    0.15
   4  10  11    1.69    0.27
   5  10  11   -0.06    0.13
   6  10  11    0.22    0.15
  -5  11  11    3.73    0.37
  -4  11  11    4.34    0.37
  -3  11  11    0.07    0.13
  -2  11  11    0.49    0.15
   3  11  11    3.07    0.33
   4  11  11    0.00    0.13
   6  17 -12    0.79    0.18
   5  17 -12    0.39    0.14
   1 -17  12    1.91    0.31
   2 -17  12    0.02    0.17
   3 -17  12    0.63    0.22
   4 -17  12    2.36    0.35
   4 -17  12    1.77    0.29
   5 -17  12    1.93    0.30
   5 -17  12    1.71    0.29
   6 -17  12    0.67    0.21
   7 -17  12    2.86    0.37
   8 -17  12    1.16    0.27
   9 -17  12    0.60    0.22
   7  16 -12   -0.01    0.12
   6  16 -12    3.36    0.30
  -3 -16  12   -0.02    0.15
  -2 -16  12    2.25    0.32
  -1 -16  12    2.93    0.36
   0 -16  12    1.69    0.29
   1 -16  12    1.15    0.26
   2 -16  12    1.46    0.28
   2 -16  12    1.28    0.24
   3 -16  12   -0.04    0.11
   3 -16  12   -0.04    0.12
   4 -16  12    0.24    0.16
   4 -16  12    0.16    0.15
   5 -16  12    2.24    0.32
   6 -16  12    0.44    0.17
   7 -16  12    0.05    0.14
   8 -16  12    0.18    0.16
   9 -16  12    0.25    0.18
  10 -16  12   -0.24    0.14
   9  15 -12   -0.20    0.10
   8  15 -12    1.51    0.23
   7  15 -12    1.21    0.20
  -5 -15  12    0.34    0.18
  -4 -15  12    0.40    0.17
  -3 -15  12    3.98    0.42
  -2 -15  12    3.41    0.35
  -1 -15  12    0.29    0.16
   0 -15  12    2.23    0.31
   1 -15  12    0.04    0.14
   1 -15  12    0.21    0.14
   2 -15  12   -0.01    0.13
   2 -15  12    0.05    0.12
   3 -15  12    0.13    0.14
   3 -15  12    0.46    0.17
   4 -15  12    2.39    0.32
   5 -15  12    0.67    0.19
   6 -15  12    0.02    0.13
   7 -15  12    0.01    0.12
   8 -15  12    0.02    0.14
   9 -15  12    0.39    0.20
  10 -15  12    0.91    0.25
  11 -15  12    0.19    0.18
  10  14 -12   -0.06    0.12
   9  14 -12    0.14    0.12
   8  14 -12    0.04    0.11
   7  14 -12    0.68    0.17
  -7 -14  12    0.79    0.22
  -6 -14  12    0.15    0.15
  -5 -14  12    0.07    0.14
  -4 -14  12    0.31    0.15
  -3 -14  12    2.55    0.31
  -2 -14  12    0.41    0.16
  -1 -14  12    4.28    0.37
   0 -14  12    0.18    0.14
   1 -14  12    0.29    0.15
   1 -14  12    0.64    0.19
   2 -14  12    0.14    0.14
   2 -14  12    0.26    0.14
   3 -14  12    0.96    0.21
   3 -14  12    1.20    0.22
   4 -14  12    0.29    0.15
   5 -14  12    0.65    0.19
   6 -14  12    0.16    0.14
   7 -14  12    2.32    0.32
   8 -14  12    0.91    0.24
   9 -14  12    0.32    0.17
  10 -14  12    0.11    0.14
  11 -14  12    1.56    0.29
  12 -14  12    0.33    0.18
  11  13 -12    0.09    0.14
  10  13 -12    0.16    0.14
   9  13 -12    2.11    0.24
   8  13 -12    0.29    0.12
  -8 -13  12    0.17    0.15
  -7 -13  12    4.47    0.37
  -6 -13  12    0.49    0.18
  -5 -13  12   -0.02    0.12
  -4 -13  12    0.31    0.14
  -3 -13  12    4.75    0.38
  -2 -13  12    7.58    0.48
  -1 -13  12    0.07    0.11
   0 -13  12    1.70    0.25
   1 -13  12    9.91    0.56
   1 -13  12    8.80    0.54
   2 -13  12    0.08    0.13
   2 -13  12    0.08    0.12
   3 -13  12    4.46    0.38
   4 -13  12    0.00    0.11
   5 -13  12    4.26    0.37
   6 -13  12    0.00    0.12
   7 -13  12    1.73    0.27
   8 -13  12    0.24    0.17
   9 -13  12    0.64    0.21
  10 -13  12    0.73    0.20
  11 -13  12   -0.09    0.13
  12 -13  12   -0.01    0.14
  12  12 -12    3.69    0.29
  11  12 -12    0.28    0.14
  10  12 -12    0.68    0.17
   9  12 -12    0.08    0.12
  -9 -12  12   -0.05    0.11
   8  12 -12    0.73    0.15
  -8 -12  12    0.98    0.21
  -7 -12  12    3.32    0.31
  -6 -12  12    6.07    0.42
  -5 -12  12    0.08    0.12
  -4 -12  12    0.88    0.18
  -3 -12  12    0.25    0.13
  -2 -12  12    1.21    0.21
  -1 -12  12    0.99    0.20
   0 -12  12    4.37    0.36
   0 -12  12    4.77    0.36
   1 -12  12    1.29    0.23
   1 -12  12    1.47    0.23
   2 -12  12    5.33    0.38
   2 -12  12    5.02    0.40
   3 -12  12    0.69    0.19
   4 -12  12    0.54    0.16
   5 -12  12    0.00    0.09
   6 -12  12    0.50    0.17
   7 -12  12    1.97    0.29
   8 -12  12    0.39    0.17
   9 -12  12   -0.06    0.11
  10 -12  12    4.27    0.42
  11 -12  12    2.76    0.36
  12 -12  12    0.15    0.18
  13 -12  12    0.08    0.17
  13  11 -12    0.84    0.20
  12  11 -12    2.25    0.25
  11  11 -12    0.86    0.18
  10  11 -12    5.56    0.36
 -10 -11  12    6.16    0.41
   9  11 -12    2.55    0.24
  -9 -11  12    2.66    0.30
  -8 -11  12   -0.12    0.10
  -7 -11  12    3.68    0.31
  -6 -11  12    2.62    0.29
  -5 -11  12    0.89    0.18
  -4 -11  12   11.62    0.58
  -3 -11  12    4.79    0.35
  -2 -11  12    0.54    0.15
  -1 -11  12    5.86    0.38
   0 -11  12    0.46    0.16
   0 -11  12    0.38    0.14
   1 -11  12    2.04    0.25
   1 -11  12    2.08    0.27
   2 -11  12    1.05    0.19
   2 -11  12    1.24    0.21
   3 -11  12    0.09    0.10
   4 -11  12    1.31    0.23
   5 -11  12    0.69    0.19
   6 -11  12    0.43    0.16
   7 -11  12    0.17    0.15
   8 -11  12    1.21    0.24
   9 -11  12    0.06    0.15
  10 -11  12    2.52    0.34
  11 -11  12    0.96    0.24
  12 -11  12    0.75    0.23
  12 -11  12    0.66    0.19
  13 -11  12    0.19    0.16
  13 -11  12    0.35    0.20
  14 -11  12    0.08    0.15
  13  10 -12    1.57    0.22
  12  10 -12    1.57    0.21
  11  10 -12    5.59    0.35
 -11 -10  12    5.33    0.39
  10  10 -12    1.27    0.20
 -10 -10  12    1.36    0.22
   9  10 -12    0.15    0.10
  -9 -10  12    0.02    0.10
  -8 -10  12    0.02    0.10
  -7 -10  12    1.04    0.18
  -6 -10  12    1.33    0.20
  -5 -10  12    9.51    0.50
  -4 -10  12    0.08    0.09
  -3 -10  12    5.35    0.35
  -2 -10  12    5.28    0.35
  -1 -10  12    0.77    0.15
   0 -10  12    2.10    0.24
   0 -10  12    2.05    0.26
   1 -10  12    0.93    0.17
   1 -10  12    0.95    0.19
   2 -10  12    1.37    0.20
   2 -10  12    1.20    0.21
   3 -10  12    0.11    0.11
   4 -10  12    1.72    0.27
   5 -10  12    2.09    0.29
   6 -10  12    4.89    0.40
   7 -10  12    5.49    0.42
   8 -10  12    3.32    0.33
   9 -10  12    3.51    0.37
  10 -10  12    3.61    0.36
  10 -10  12    3.92    0.36
  11 -10  12    0.57    0.18
  11 -10  12    0.48    0.18
  12 -10  12    0.25    0.17
  12 -10  12    0.73    0.23
  13 -10  12    0.29    0.17
  13 -10  12    0.31    0.19
  14 -10  12    0.25    0.16
  14   9 -12    0.50    0.15
  13   9 -12    0.13    0.12
  12   9 -12    2.09    0.23
 -12  -9  12    2.52    0.28
  11   9 -12    0.73    0.15
 -11  -9  12    0.78    0.17
  10   9 -12    0.78    0.15
 -10  -9  12    0.92    0.18
   9   9 -12    0.02    0.09
  -9  -9  12    0.09    0.10
  -8  -9  12    0.70    0.16
  -7  -9  12    0.77    0.15
  -6  -9  12    3.43    0.28
  -5  -9  12    2.58    0.24
  -4  -9  12    3.47    0.28
  -3  -9  12    0.17    0.09
  -2  -9  12    7.18    0.40
  -1  -9  12    1.02    0.17
   0  -9  12   19.67    0.90
   0  -9  12   20.24    0.82
   1  -9  12   35.19    1.30
   1  -9  12   36.47    1.42
   2  -9  12   -0.06    0.11
   3  -9  12    7.73    0.48
   4  -9  12   -0.01    0.09
   5  -9  12   15.09    0.74
   6  -9  12    0.13    0.13
   7  -9  12    3.42    0.34
   8  -9  12    1.23    0.24
   8  -9  12    1.25    0.22
   9  -9  12    0.39    0.16
   9  -9  12    0.10    0.13
  10  -9  12    0.41    0.15
  10  -9  12    0.50    0.19
  11  -9  12    0.12    0.13
  11  -9  12    0.38    0.19
  12  -9  12    0.78    0.20
  12  -9  12    0.77    0.22
  13  -9  12    1.04    0.24
  13  -9  12    1.19    0.27
  14  -9  12   -0.05    0.17
  14  -9  12   -0.05    0.13
  15   8 -12   -0.07    0.10
  14   8 -12   -0.06    0.09
  13   8 -12    0.33    0.13
 -13  -8  12    0.21    0.15
  12   8 -12    0.93    0.16
 -12  -8  12    0.93    0.18
  11   8 -12    5.95    0.35
 -11  -8  12    6.13    0.38
  10   8 -12    3.32    0.26
 -10  -8  12    3.56    0.29
   9   8 -12    2.89    0.24
  -9  -8  12    2.50    0.24
  -8  -8  12    5.79    0.36
  -7  -8  12    0.48    0.13
  -6  -8  12    4.22    0.30
  -5  -8  12    0.52    0.13
  -4  -8  12    0.16    0.10
  -3  -8  12    0.67    0.13
  -2  -8  12    1.93    0.21
  -1  -8  12    2.61    0.23
   0  -8  12   18.88    0.86
   0  -8  12   19.47    0.77
   1  -8  12    1.13    0.17
   1  -8  12    1.24    0.22
   2  -8  12    2.70    0.27
   3  -8  12    0.40    0.15
   4  -8  12    0.07    0.10
   5  -8  12    1.28    0.21
   6  -8  12    1.41    0.24
   7  -8  12    4.32    0.34
   7  -8  12    4.28    0.36
   8  -8  12    0.05    0.13
   8  -8  12   -0.01    0.12
   9  -8  12    3.90    0.34
   9  -8  12    2.28    0.30
  10  -8  12    0.35    0.19
  10  -8  12    0.68    0.17
  11  -8  12    2.31    0.31
  11  -8  12    2.33    0.34
  12  -8  12   -0.05    0.12
  12  -8  12   -0.07    0.11
  13  -8  12    0.01    0.16
  13  -8  12    0.29    0.17
  14  -8  12    0.30    0.17
  14  -8  12    0.24    0.18
  15   7 -12    0.18    0.13
  14   7 -12    0.48    0.13
  13   7 -12    1.34    0.19
 -13  -7  12    1.81    0.24
  12   7 -12   12.07    0.53
 -12  -7  12   12.23    0.59
  11   7 -12    0.21    0.11
 -11  -7  12    0.33    0.12
  10   7 -12   11.46    0.51
 -10  -7  12   12.03    0.56
  -9  -7  12    2.47    0.24
  -8  -7  12    2.29    0.22
  -7  -7  12    0.04    0.09
  -6  -7  12    0.04    0.08
  -5  -7  12    1.78    0.18
  -4  -7  12    3.47    0.25
  -3  -7  12    5.67    0.32
  -2  -7  12    0.99    0.14
  -1  -7  12    8.82    0.42
   0  -7  12    0.75    0.14
   0  -7  12    0.51    0.15
   0  -7  12    0.51    0.11
   1  -7  12   11.31    0.60
   1  -7  12   11.12    0.49
   1  -7  12   11.84    0.51
   2  -7  12    0.75    0.12
   2  -7  12    0.99    0.20
   3  -7  12    0.25    0.12
   4  -7  12    4.11    0.34
   5  -7  12    0.29    0.14
   6  -7  12    2.21    0.27
   6  -7  12    2.23    0.28
   7  -7  12    1.12    0.22
   7  -7  12    0.74    0.17
   8  -7  12    0.53    0.17
   8  -7  12    0.77    0.18
   9  -7  12    0.27    0.16
   9  -7  12    0.27    0.14
  10  -7  12    0.16    0.15
  10  -7  12    0.47    0.17
  11  -7  12    0.10    0.13
  11  -7  12    0.07    0.13
  12  -7  12    0.08    0.15
  12  -7  12    0.23    0.14
  13  -7  12    0.51    0.21
  13  -7  12    0.55    0.18
  14  -7  12    2.45    0.32
  14  -7  12    2.57    0.37
  16   6 -12    3.35    0.28
  15   6 -12    1.16    0.17
  14   6 -12    2.74    0.23
 -14  -6  12    3.23    0.30
  13   6 -12    4.12    0.28
 -13  -6  12    4.42    0.33
  12   6 -12    0.30    0.12
 -12  -6  12    0.50    0.14
  11   6 -12   13.97    0.57
 -11  -6  12   14.26    0.63
  10   6 -12    0.45    0.12
 -10  -6  12    0.48    0.13
  -9  -6  12    6.19    0.35
  -8  -6  12    0.47    0.12
  -7  -6  12    0.36    0.11
  -6  -6  12    0.45    0.11
  -5  -6  12    2.83    0.21
  -4  -6  12    6.95    0.35
  -3  -6  12   11.43    0.49
  -2  -6  12    2.62    0.20
  -1  -6  12    2.21    0.18
   0  -6  12    0.16    0.07
   0  -6  12    0.06    0.06
   0  -6  12    0.25    0.13
   1  -6  12    7.41    0.35
   1  -6  12    6.73    0.33
   1  -6  12    7.58    0.45
   2  -6  12   13.68    0.67
   2  -6  12   13.49    0.53
   3  -6  12    0.12    0.11
   3  -6  12   -0.02    0.05
   4  -6  12    0.16    0.12
   4  -6  12    0.16    0.07
   5  -6  12    3.78    0.33
   5  -6  12    3.71    0.30
   6  -6  12   15.84    0.76
   6  -6  12   16.14    0.71
   7  -6  12    0.09    0.11
   7  -6  12    0.34    0.15
   8  -6  12    4.77    0.36
   8  -6  12    4.44    0.38
   9  -6  12    0.89    0.21
   9  -6  12    0.52    0.18
  10  -6  12    0.78    0.19
  10  -6  12    0.71    0.19
  11  -6  12    0.12    0.13
  11  -6  12   -0.07    0.10
  12  -6  12    0.52    0.19
  12  -6  12    0.70    0.21
  13  -6  12    1.92    0.30
  13  -6  12    2.67    0.37
  14  -6  12    0.45    0.20
  14  -6  12    0.78    0.24
  16   5 -12    0.39    0.13
  15   5 -12    0.10    0.11
 -15  -5  12    0.02    0.14
  14   5 -12    0.07    0.10
 -14  -5  12    0.08    0.12
  13   5 -12    0.36    0.11
 -13  -5  12    0.34    0.14
  12   5 -12    2.02    0.20
 -12  -5  12    1.89    0.23
  11   5 -12    5.71    0.31
 -11  -5  12    5.97    0.36
  10   5 -12    4.78    0.28
 -10  -5  12    4.59    0.31
  -9  -5  12   10.28    0.48
  -8  -5  12    0.34    0.10
  -7  -5  12    8.36    0.40
  -6  -5  12    6.56    0.34
  -5  -5  12   10.46    0.46
  -4  -5  12    0.30    0.09
  -3  -5  12   15.62    0.61
  -2  -5  12   22.91    0.82
  -1  -5  12    5.31    0.27
   0  -5  12    5.20    0.27
   0  -5  12    6.18    0.40
   0  -5  12    5.76    0.28
   1  -5  12   34.35    1.33
   1  -5  12   34.63    1.17
   1  -5  12   33.68    1.15
   2  -5  12   -0.09    0.08
   2  -5  12    0.03    0.05
   3  -5  12    5.33    0.38
   3  -5  12    5.12    0.25
   4  -5  12    0.44    0.12
   4  -5  12    0.37    0.14
   4  -5  12    0.34    0.08
   5  -5  12    5.62    0.26
   5  -5  12    5.17    0.37
   5  -5  12    5.16    0.36
   6  -5  12    2.91    0.30
   6  -5  12    3.14    0.28
   7  -5  12    3.03    0.31
   7  -5  12    2.67    0.28
   8  -5  12    1.04    0.20
   8  -5  12    1.01    0.19
   9  -5  12    1.26    0.22
   9  -5  12    1.33    0.23
  10  -5  12    0.15    0.13
  10  -5  12    0.12    0.13
  11  -5  12    2.30    0.30
  11  -5  12    2.01    0.30
  12  -5  12    0.11    0.13
  12  -5  12    0.09    0.14
  13  -5  12    0.27    0.15
  13  -5  12    0.15    0.15
  14  -5  12    1.77    0.32
  14  -5  12    2.20    0.32
  15  -5  12    0.77    0.23
  15   4 -12    7.77    0.38
 -15  -4  12    7.77    0.47
  14   4 -12    2.46    0.22
 -14  -4  12    2.63    0.29
  13   4 -12    0.17    0.09
 -13  -4  12    0.11    0.11
  12   4 -12    1.27    0.15
 -12  -4  12    1.56    0.21
  11   4 -12    9.09    0.40
 -11  -4  12    8.51    0.45
  10   4 -12    7.13    0.34
 -10  -4  12    6.39    0.36
   9   4 -12    1.26    0.15
  -9  -4  12    1.57    0.18
  -8  -4  12    5.24    0.29
  -7  -4  12    0.39    0.10
  -6  -4  12   14.48    0.57
  -5  -4  12    0.53    0.10
  -4  -4  12   14.78    0.57
  -3  -4  12   12.02    0.47
  -2  -4  12   17.14    0.63
  -1  -4  12    0.35    0.08
   0  -4  12   14.18    0.55
   0  -4  12   14.84    0.70
   0  -4  12   15.54    0.55
   1  -4  12    2.30    0.16
   1  -4  12    2.51    0.27
   1  -4  12    2.49    0.16
   2  -4  12   15.44    0.56
   2  -4  12   14.67    0.55
   2  -4  12   15.50    0.72
   3  -4  12    0.26    0.06
   3  -4  12    0.24    0.12
   4  -4  12    1.83    0.13
   4  -4  12    1.70    0.21
   4  -4  12    1.68    0.24
   5  -4  12    3.03    0.27
   5  -4  12    3.36    0.17
   5  -4  12    3.25    0.30
   6  -4  12    0.18    0.12
   6  -4  12   -0.05    0.08
   6  -4  12    0.04    0.04
   7  -4  12    1.03    0.19
   7  -4  12    0.58    0.16
   8  -4  12    0.31    0.13
   8  -4  12    0.06    0.11
   9  -4  12    2.47    0.31
   9  -4  12    2.01    0.25
  10  -4  12    3.49    0.35
  10  -4  12    4.08    0.35
  11  -4  12    5.62    0.44
  11  -4  12    5.50    0.41
  12  -4  12    0.61    0.18
  12  -4  12    0.69    0.20
  13  -4  12    1.42    0.26
  13  -4  12    1.50    0.28
  14  -4  12    0.26    0.17
  14  -4  12    0.14    0.17
  15  -4  12    1.04    0.27
 -15  -3  12    0.91    0.20
  14   3 -12    1.70    0.17
 -14  -3  12    1.68    0.23
  13   3 -12    0.60    0.11
 -13  -3  12    0.43    0.14
  12   3 -12   12.37    0.50
 -12  -3  12   12.70    0.57
  11   3 -12    0.54    0.11
 -11  -3  12    0.37    0.12
  10   3 -12    6.49    0.32
 -10  -3  12    6.58    0.36
   9   3 -12    1.39    0.15
  -9  -3  12    1.39    0.16
  -8  -3  12    0.88    0.13
  -7  -3  12    0.13    0.07
  -6  -3  12    0.85    0.11
  -5  -3  12    0.10    0.06
  -4  -3  12   11.27    0.44
  -3  -3  12   21.77    0.76
  -2  -3  12    1.43    0.12
  -1  -3  12   44.35    1.43
   0  -3  12    0.46    0.15
   0  -3  12    0.53    0.08
   1  -3  12   14.04    0.48
   1  -3  12   12.85    0.64
   1  -3  12   13.17    0.48
   2  -3  12    0.37    0.07
   2  -3  12    0.43    0.08
   2  -3  12    0.47    0.15
   3  -3  12   10.19    0.54
   3  -3  12    9.86    0.49
   3  -3  12    9.96    0.37
   4  -3  12    0.83    0.08
   4  -3  12    0.80    0.16
   4  -3  12    0.70    0.16
   5  -3  12    0.15    0.05
   5  -3  12    0.28    0.13
   5  -3  12    0.24    0.12
   6  -3  12    1.64    0.11
   6  -3  12    1.28    0.19
   6  -3  12    1.43    0.23
   7  -3  12    1.32    0.21
   7  -3  12    1.78    0.12
   7  -3  12    1.51    0.23
   8  -3  12    0.30    0.13
   8  -3  12    0.38    0.15
   9  -3  12    1.95    0.28
   9  -3  12    1.58    0.24
  10  -3  12    0.40    0.15
  10  -3  12    0.41    0.17
  11  -3  12    0.57    0.18
  11  -3  12    0.74    0.21
  12  -3  12    2.27    0.31
  12  -3  12    2.25    0.31
  13  -3  12    0.15    0.15
  13  -3  12    0.02    0.15
  14  -3  12    5.43    0.45
  14  -3  12    5.24    0.47
  15  -3  12    1.24    0.28
 -16  -2  12    0.28    0.15
 -15  -2  12    2.89    0.30
 -14  -2  12    2.36    0.27
  13   2 -12    2.38    0.19
 -13  -2  12    2.78    0.26
  12   2 -12    0.39    0.10
 -12  -2  12    0.40    0.12
  11   2 -12    9.01    0.38
 -11  -2  12    8.88    0.44
  10   2 -12    0.43    0.10
 -10  -2  12    0.26    0.10
   9   2 -12    5.75    0.28
  -9  -2  12    5.36    0.30
  -8  -2  12    0.21    0.08
  -7  -2  12   -0.04    0.05
  -6  -2  12    1.75    0.14
  -5  -2  12    0.12    0.06
  -4  -2  12    0.09    0.05
  -3  -2  12    0.47    0.07
  -2  -2  12    2.06    0.13
  -1  -2  12    6.27    0.25
   0  -2  12    0.03    0.03
   1  -2  12    0.62    0.07
   1  -2  12    0.66    0.07
   1  -2  12    0.65    0.16
   2  -2  12    8.88    0.50
   2  -2  12    9.20    0.33
   2  -2  12    9.58    0.33
   3  -2  12    5.37    0.34
   3  -2  12    5.23    0.36
   3  -2  12    5.40    0.20
   4  -2  12    4.04    0.29
   4  -2  12    4.16    0.17
   4  -2  12    4.44    0.33
   5  -2  12    1.42    0.09
   5  -2  12    1.33    0.20
   5  -2  12    1.53    0.22
   6  -2  12    2.61    0.29
   6  -2  12    2.56    0.13
   6  -2  12    2.16    0.25
   7  -2  12    1.30    0.21
   7  -2  12    1.31    0.10
   7  -2  12    1.19    0.21
   8  -2  12    0.60    0.16
   8  -2  12    0.44    0.14
   9  -2  12    0.00    0.11
   9  -2  12   -0.07    0.11
  10  -2  12    0.07    0.12
  10  -2  12    0.14    0.13
  11  -2  12    7.70    0.51
  11  -2  12    7.27    0.48
  12  -2  12    0.29    0.16
  12  -2  12    0.14    0.14
  13  -2  12    4.62    0.41
  13  -2  12    4.11    0.40
  14  -2  12    0.18    0.16
  14  -2  12   -0.02    0.13
  15  -2  12    1.44    0.30
 -16  -1  12    0.04    0.13
 -15  -1  12   -0.02    0.12
 -14  -1  12    2.52    0.26
 -13  -1  12    0.41    0.13
 -12  -1  12    1.59    0.20
  11   1 -12    3.14    0.19
 -11  -1  12    2.84    0.24
  10   1 -12    3.30    0.20
 -10  -1  12    3.26    0.24
   9   1 -12    1.56    0.15
  -9  -1  12    1.80    0.17
  -8  -1  12    2.24    0.18
  -7  -1  12    1.09    0.12
  -6  -1  12    0.75    0.10
  -5  -1  12    8.57    0.35
  -4  -1  12    8.35    0.33
  -3  -1  12    2.20    0.13
  -2  -1  12   16.77    0.57
  -1  -1  12    2.67    0.13
   0  -1  12    0.18    0.03
   1  -1  12   12.57    0.61
   2  -1  12    8.16    0.42
   2  -1  12    8.17    0.46
   3  -1  12    7.92    0.41
   3  -1  12    7.25    0.44
   4  -1  12    0.20    0.12
   4  -1  12    0.25    0.11
   4  -1  12    0.25    0.11
   5  -1  12    1.39    0.08
   5  -1  12    1.66    0.23
   5  -1  12    1.50    0.21
   5  -1  12    1.61    0.22
   6  -1  12   -0.01    0.10
   6  -1  12    0.10    0.10
   6  -1  12    0.00    0.09
   6  -1  12    0.09    0.04
   7  -1  12    2.78    0.28
   7  -1  12    2.77    0.27
   7  -1  12    2.90    0.28
   7  -1  12    2.72    0.15
   8  -1  12    2.97    0.30
   8  -1  12    3.03    0.29
   8  -1  12    2.31    0.27
   9  -1  12    0.53    0.16
   9  -1  12    1.01    0.20
   9  -1  12    0.78    0.19
  10  -1  12    1.89    0.28
  10  -1  12    1.79    0.28
  10  -1  12    2.30    0.30
  11  -1  12    2.15    0.29
  11  -1  12    2.10    0.30
  11  -1  12    2.30    0.32
  12  -1  12    0.82    0.20
  12  -1  12    1.06    0.23
  12  -1  12    1.04    0.23
  13  -1  12    0.09    0.14
  13  -1  12    0.20    0.15
  14  -1  12    1.00    0.23
  14  -1  12    0.90    0.25
  15  -1  12    0.12    0.16
 -16   0  12   -0.05    0.12
  15   0 -12    1.66    0.22
 -15   0  12    1.42    0.24
 -14   0  12    0.28    0.14
 -13   0  12    0.12    0.11
 -12   0  12    0.29    0.13
 -11   0  12    0.26    0.11
 -10   0  12    0.36    0.11
   9   0 -12    0.22    0.07
  -9   0  12    0.11    0.08
  -8   0  12    0.14    0.08
  -7   0  12    1.45    0.14
  -6   0  12    2.23    0.16
  -5   0  12    3.46    0.19
  -4   0  12    8.18    0.33
  -3   0  12    0.64    0.07
  -2   0  12   32.20    1.03
  -1   0  12    1.95    0.10
   0   0  12   51.33    1.59
   1   0  12    4.10    0.28
   2   0  12   21.78    0.90
   2   0  12   21.79    0.84
   2   0  12   21.78    0.91
   3   0  12    0.62    0.14
   3   0  12    0.46    0.12
   3   0  12    0.48    0.15
   4   0  12    6.30    0.39
   4   0  12    7.55    0.43
   4   0  12    7.98    0.45
   5   0  12    0.59    0.06
   5   0  12    0.65    0.15
   5   0  12    0.80    0.17
   5   0  12    0.68    0.16
   6   0  12    0.28    0.13
   6   0  12    0.45    0.14
   6   0  12    0.34    0.05
   6   0  12    0.44    0.13
   7   0  12    0.19    0.12
   7   0  12    0.27    0.12
   7   0  12    0.17    0.05
   7   0  12    0.20    0.12
   8   0  12    0.04    0.11
   8   0  12    0.13    0.11
   8   0  12    0.11    0.12
   9   0  12    2.21    0.29
   9   0  12    1.74    0.25
   9   0  12    1.71    0.24
  10   0  12   -0.09    0.09
  10   0  12    0.06    0.11
  10   0  12   -0.05    0.11
  11   0  12    0.06    0.12
  11   0  12   -0.04    0.11
  11   0  12   -0.04    0.11
  12   0  12    0.18    0.15
  12   0  12    0.02    0.14
  12   0  12    0.34    0.17
  13   0  12    1.11    0.25
  13   0  12    1.58    0.28
  13   0  12    1.23    0.27
  14   0  12    0.43    0.18
 -16   1  12    0.31    0.16
  15  -1 -12    6.10    0.37
 -15   1  12    5.98    0.42
 -14   1  12    1.31    0.21
 -13   1  12    0.06    0.10
 -12   1  12    3.78    0.30
 -11   1  12    1.21    0.18
 -10   1  12    0.15    0.09
  -9   1  12    0.09    0.08
  -8   1  12    0.22    0.08
  -7   1  12    2.57    0.18
  -6   1  12    2.22    0.16
  -5   1  12    4.32    0.22
  -4   1  12    0.17    0.06
  -3   1  12    0.32    0.06
  -2   1  12    8.38    0.32
  -1   1  12   32.95    1.05
   0   1  12    0.85    0.13
   1   1  12   12.76    0.59
   2   1  12    3.78    0.29
   2   1  12    3.19    0.26
   2   1  12    3.70    0.27
   3   1  12    5.20    0.36
   3   1  12    5.04    0.34
   3   1  12    5.24    0.33
   4   1  12    4.35    0.32
   4   1  12    4.15    0.31
   4   1  12    4.37    0.31
   5   1  12    7.15    0.43
   5   1  12    5.92    0.40
   5   1  12    6.89    0.39
   6   1  12    0.07    0.10
   6   1  12    0.04    0.10
   6   1  12    0.09    0.11
   6   1  12    0.02    0.04
   7   1  12    0.20    0.11
   7   1  12    0.12    0.11
   7   1  12    0.05    0.10
   7   1  12    0.00    0.05
   8   1  12    0.72    0.17
   8   1  12    0.72    0.18
   8   1  12    0.79    0.18
   9   1  12    0.29    0.14
   9   1  12    0.30    0.14
   9   1  12    0.28    0.14
  10   1  12    0.05    0.12
  10   1  12   -0.13    0.10
  10   1  12    0.08    0.13
  11   1  12    0.08    0.13
  11   1  12    0.19    0.14
  11   1  12    0.00    0.12
  12   1  12    1.44    0.26
  12   1  12    1.50    0.27
  12   1  12    1.09    0.23
  13   1  12    0.15    0.16
  13   1  12    0.25    0.18
 -16   2  12    0.40    0.18
  15  -2 -12    0.00    0.12
 -15   2  12    0.07    0.15
  14  -2 -12   -0.06    0.10
 -14   2  12   -0.07    0.11
 -13   2  12    3.04    0.29
 -12   2  12    0.62    0.15
 -11   2  12    4.79    0.32
 -10   2  12    0.92    0.16
  -9   2  12    4.41    0.28
  -8   2  12    0.82    0.13
  -7   2  12   -0.05    0.06
  -6   2  12    6.12    0.30
  -5   2  12    1.06    0.12
  -4   2  12    1.17    0.12
  -3   2  12    0.63    0.09
  -2   2  12    0.09    0.05
  -2   2  12    0.05    0.06
  -1   2  12    3.50    0.17
  -1   2  12    4.06    0.25
   0   2  12   10.86    0.51
   0   2  12   10.59    0.37
   1   2  12   12.96    0.60
   2   2  12    4.57    0.31
   2   2  12    4.49    0.30
   3   2  12    7.50    0.43
   3   2  12    7.45    0.40
   3   2  12    6.76    0.41
   4   2  12    0.27    0.12
   4   2  12    0.42    0.13
   4   2  12    0.41    0.13
   5   2  12    1.37    0.20
   5   2  12    1.04    0.18
   5   2  12    1.00    0.19
   6   2  12    2.69    0.25
   6   2  12    2.38    0.29
   6   2  12    2.44    0.15
   6   2  12    2.30    0.26
   7   2  12   -0.09    0.10
   7   2  12    0.03    0.10
   7   2  12    0.20    0.13
   8   2  12    2.07    0.27
   8   2  12    2.45    0.29
   8   2  12    2.53    0.32
   9   2  12    1.45    0.25
   9   2  12    1.24    0.22
   9   2  12    1.01    0.21
  10   2  12    1.77    0.29
  10   2  12    1.25    0.23
  11   2  12    1.46    0.26
  11   2  12    2.05    0.31
  12   2  12    0.22    0.16
  12   2  12    0.26    0.16
  13   2  12    3.17    0.37
 -15   3  12    0.13    0.13
  14  -3 -12   -0.04    0.10
 -14   3  12    0.11    0.12
 -13   3  12    3.10    0.30
 -12   3  12    2.93    0.28
 -11   3  12    2.19    0.25
 -10   3  12    1.63    0.20
  -9   3  12    2.36    0.22
  -8   3  12    0.50    0.12
  -7   3  12   10.19    0.45
  -6   3  12    4.30    0.25
  -5   3  12    4.22    0.24
  -4   3  12    0.48    0.09
  -3   3  12    0.73    0.10
  -2   3  12    8.69    0.41
  -2   3  12    8.42    0.35
  -1   3  12    0.07    0.07
  -1   3  12    0.06    0.05
   0   3  12    0.37    0.06
   0   3  12    0.46    0.12
   1   3  12    1.97    0.20
   1   3  12    2.08    0.20
   2   3  12    2.40    0.22
   2   3  12    2.48    0.23
   3   3  12    8.58    0.47
   3   3  12    8.48    0.43
   4   3  12    0.32    0.13
   4   3  12    0.18    0.11
   4   3  12    0.32    0.12
   5   3  12    0.41    0.14
   5   3  12    0.33    0.12
   5   3  12    0.38    0.13
   6   3  12    0.26    0.14
   6   3  12    0.13    0.11
   6   3  12    0.23    0.12
   7   3  12    4.40    0.34
   7   3  12    4.62    0.38
   8   3  12    0.10    0.12
   8   3  12    0.13    0.13
   9   3  12    1.72    0.29
   9   3  12    1.39    0.24
  10   3  12   -0.12    0.12
  10   3  12   -0.05    0.12
  11   3  12    1.65    0.30
  11   3  12    1.19    0.24
  12   3  12    0.69    0.21
  12   3  12    0.83    0.23
  14  -4 -12    2.51    0.24
 -14   4  12    2.29    0.29
  13  -4 -12    0.25    0.11
 -13   4  12    0.27    0.14
 -12   4  12    0.75    0.17
 -11   4  12    0.02    0.11
 -10   4  12    2.42    0.25
  -9   4  12    1.72    0.21
  -8   4  12    2.17    0.21
  -7   4  12    0.35    0.10
  -6   4  12    1.00    0.14
  -5   4  12    1.86    0.17
  -4   4  12    1.23    0.14
  -3   4  12    0.26    0.08
  -2   4  12    6.17    0.29
  -1   4  12    0.20    0.07
  -1   4  12    0.17    0.09
   0   4  12    8.56    0.34
   0   4  12    8.48    0.44
   1   4  12    1.15    0.16
   1   4  12    1.35    0.19
   2   4  12   10.85    0.50
   2   4  12   11.54    0.57
   3   4  12    5.76    0.35
   3   4  12    5.91    0.38
   4   4  12    9.09    0.46
   4   4  12    9.09    0.51
   5   4  12    1.68    0.24
   5   4  12    2.39    0.25
   6   4  12    2.76    0.30
   6   4  12    3.13    0.27
   7   4  12    1.39    0.22
   7   4  12    1.32    0.23
   8   4  12    0.65    0.17
   8   4  12    1.19    0.24
   9   4  12    0.00    0.13
   9   4  12   -0.01    0.12
  10   4  12    2.56    0.31
  10   4  12    3.19    0.36
  11   4  12    1.39    0.26
  11   4  12    1.22    0.26
  12   4  12   -0.02    0.14
  14  -5 -12    0.39    0.14
 -14   5  12    0.36    0.18
  13  -5 -12    0.57    0.14
 -13   5  12    0.55    0.16
  12  -5 -12    2.37    0.22
 -12   5  12    1.98    0.26
 -11   5  12    2.16    0.26
 -10   5  12    0.90    0.17
  -9   5  12    1.26    0.19
  -8   5  12    0.89    0.16
  -7   5  12    4.47    0.30
  -6   5  12    1.67    0.19
  -5   5  12    4.44    0.28
  -4   5  12    2.96    0.22
  -3   5  12    0.36    0.10
  -2   5  12    1.86    0.16
  -1   5  12    9.72    0.41
  -1   5  12   10.20    0.49
   0   5  12    0.06    0.06
   0   5  12   -0.07    0.07
   1   5  12    6.86    0.41
   2   5  12    0.56    0.15
   3   5  12    0.42    0.15
   3   5  12    0.72    0.15
   4   5  12    6.35    0.43
   4   5  12    6.86    0.39
   5   5  12    4.52    0.32
   5   5  12    4.04    0.34
   6   5  12    0.05    0.11
   6   5  12    0.03    0.11
   7   5  12    0.41    0.16
   7   5  12    0.08    0.11
   8   5  12   -0.08    0.11
   8   5  12    0.16    0.13
   9   5  12    0.20    0.14
   9   5  12   -0.16    0.10
  10   5  12    0.70    0.22
  10   5  12    0.73    0.19
  11   5  12    0.04    0.14
  13  -6 -12    2.26    0.22
 -13   6  12    1.36    0.26
  12  -6 -12    0.62    0.13
 -12   6  12    0.56    0.17
  11  -6 -12    5.17    0.30
 -11   6  12    5.25    0.39
  10  -6 -12    1.05    0.15
 -10   6  12    1.02    0.19
  -9   6  12    5.82    0.38
  -8   6  12    0.06    0.10
  -7   6  12    0.02    0.09
  -6   6  12    0.81    0.15
  -5   6  12    0.09    0.09
  -4   6  12    3.40    0.25
  -3   6  12    0.37    0.11
  -2   6  12    0.11    0.08
  -1   6  12    1.17    0.15
   0   6  12    2.94    0.20
   0   6  12    2.58    0.24
   1   6  12    1.79    0.23
   2   6  12    0.02    0.09
   3   6  12    3.20    0.29
   4   6  12    0.13    0.12
   5   6  12    0.17    0.12
   6   6  12    0.16    0.13
   7   6  12   -0.02    0.11
   7   6  12    0.00    0.12
   8   6  12    0.12    0.14
   8   6  12    0.15    0.13
   9   6  12    0.11    0.14
   9   6  12    0.03    0.15
  10   6  12    0.13    0.14
  11   6  12    4.86    0.42
 -11   7  12    1.00    0.21
 -10   7  12    1.74    0.25
  -9   7  12    3.61    0.32
  -8   7  12    2.69    0.29
  -7   7  12    1.01    0.18
  -6   7  12   -0.15    0.08
  -5   7  12    0.85    0.16
  -4   7  12    0.27    0.11
  -3   7  12    0.24    0.09
  -2   7  12    4.86    0.30
  -1   7  12    0.04    0.08
   1   7  12    0.09    0.11
   2   7  12   -0.03    0.10
   3   7  12    0.33    0.14
   4   7  12    0.14    0.12
   5   7  12    2.34    0.30
   6   7  12    0.76    0.20
   7   7  12    0.73    0.20
   8   7  12   -0.10    0.14
 -10   8  12    1.94    0.27
  -9   8  12    4.31    0.37
  -8   8  12    1.81    0.25
  -7   8  12    0.80    0.18
  -6   8  12    0.01    0.10
  -5   8  12    1.20    0.19
  -4   8  12    0.17    0.11
  -3   8  12    0.02    0.09
  -2   8  12    5.50    0.34
  -1   8  12    0.25    0.10
   1   8  12    1.06    0.21
   2   8  12    2.91    0.30
   3   8  12    0.46    0.17
   4   8  12    7.31    0.49
   5   8  12   -0.03    0.13
   6   8  12    0.52    0.18
   7   8  12   -0.08    0.13
  -8   9  12   -0.05    0.13
  -7   9  12    2.17    0.28
  -6   9  12    2.55    0.29
  -5   9  12    0.89    0.18
  -4   9  12    0.57    0.15
  -3   9  12    3.36    0.29
  -2   9  12    1.56    0.21
   2   9  12    0.95    0.21
   3   9  12    0.63    0.19
   4   9  12    1.61    0.26
   5   9  12    4.41    0.41
   6   9  12    0.27    0.17
  -5  10  12    0.54    0.17
  -4  10  12    0.07    0.12
  -3  10  12    4.54    0.35
  -2  10  12    3.36    0.30
   4  10  12    0.94    0.23
   5  10  12    1.30    0.26
  -1 -17  13    1.07    0.26
   0 -17  13    1.88    0.31
   1 -17  13    1.32    0.28
   2 -17  13    0.59    0.22
   3 -17  13    0.42    0.21
   3 -17  13    0.35    0.18
   4 -17  13    0.40    0.19
   4 -17  13    0.40    0.18
   5 -17  13    1.88    0.32
   5 -17  13    1.45    0.28
   6 -17  13    0.88    0.24
   7 -17  13    0.43    0.18
   8 -17  13    5.75    0.49
   9 -17  13    0.05    0.16
   7  16 -13    0.00    0.11
  -4 -16  13    2.97    0.41
  -3 -16  13   -0.14    0.13
  -2 -16  13    0.13    0.16
  -1 -16  13    0.75    0.21
   0 -16  13    1.43    0.27
   1 -16  13   -0.03    0.13
   2 -16  13    1.20    0.24
   2 -16  13    1.67    0.29
   3 -16  13    0.37    0.17
   3 -16  13    0.04    0.15
   4 -16  13    1.72    0.29
   4 -16  13    1.36    0.26
   5 -16  13    0.57    0.20
   6 -16  13    0.30    0.17
   7 -16  13    1.60    0.29
   8 -16  13    0.81    0.24
   9 -16  13    7.06    0.55
   8  15 -13   -0.03    0.11
   7  15 -13    0.98    0.19
  -6 -15  13   -0.12    0.14
  -5 -15  13    0.32    0.18
  -4 -15  13    0.24    0.14
  -3 -15  13    0.79    0.21
  -2 -15  13    2.79    0.34
  -1 -15  13    4.41    0.39
   0 -15  13    0.05    0.12
   1 -15  13    0.84    0.22
   2 -15  13    0.20    0.16
   2 -15  13    0.14    0.13
   3 -15  13    2.73    0.34
   3 -15  13    1.70    0.28
   4 -15  13    0.14    0.13
   4 -15  13    0.15    0.15
   5 -15  13    0.33    0.17
   6 -15  13    0.46    0.19
   7 -15  13    0.03    0.13
   8 -15  13    2.42    0.35
   9 -15  13    1.37    0.28
  10 -15  13    3.23    0.41
   9  14 -13    0.44    0.15
   8  14 -13    0.19    0.13
  -7 -14  13   -0.04    0.13
  -6 -14  13   -0.09    0.12
  -5 -14  13    4.27    0.38
  -4 -14  13    0.54    0.17
  -3 -14  13    6.58    0.46
  -2 -14  13   10.83    0.61
  -1 -14  13    0.83    0.20
   0 -14  13    2.63    0.32
   1 -14  13    1.06    0.23
   1 -14  13    0.85    0.21
   2 -14  13    5.69    0.43
   2 -14  13    5.04    0.42
   3 -14  13    3.97    0.37
   3 -14  13    3.56    0.36
   4 -14  13    5.34    0.44
   5 -14  13   -0.08    0.11
   6 -14  13    3.61    0.37
   7 -14  13    0.28    0.17
   8 -14  13    1.08    0.25
   9 -14  13    0.09    0.16
  10 -14  13    0.35    0.20
  11 -14  13    0.27    0.19
  10  13 -13    2.05    0.25
   9  13 -13    1.00    0.18
  -9 -13  13    1.02    0.24
   8  13 -13    5.11    0.35
  -8 -13  13    4.79    0.39
  -7 -13  13    0.00    0.12
  -6 -13  13    5.53    0.41
  -5 -13  13    2.47    0.31
  -4 -13  13    0.54    0.17
  -3 -13  13    0.77    0.19
  -2 -13  13    7.35    0.47
  -1 -13  13    3.01    0.31
   0 -13  13    1.64    0.24
   1 -13  13    0.05    0.12
   1 -13  13   -0.03    0.12
   2 -13  13    4.60    0.38
   2 -13  13    4.20    0.38
   3 -13  13    2.62    0.30
   3 -13  13    2.39    0.32
   4 -13  13    1.12    0.23
   5 -13  13    0.89    0.21
   6 -13  13    0.10    0.13
   7 -13  13    1.51    0.28
   8 -13  13    3.92    0.40
   9 -13  13    0.34    0.18
  10 -13  13    0.10    0.14
  11 -13  13    1.28    0.29
  11  12 -13    2.13    0.26
  10  12 -13    0.09    0.12
 -10 -12  13   -0.03    0.11
   9  12 -13    3.50    0.31
  -9 -12  13    3.79    0.35
  -8 -12  13    0.33    0.15
  -7 -12  13    0.47    0.16
  -6 -12  13    0.18    0.12
  -5 -12  13    1.11    0.21
  -4 -12  13    2.76    0.31
  -3 -12  13    0.46    0.15
  -2 -12  13    4.46    0.36
  -1 -12  13    0.20    0.13
   0 -12  13    0.02    0.10
   0 -12  13   -0.13    0.08
   1 -12  13    0.58    0.17
   1 -12  13    0.23    0.13
   2 -12  13    0.64    0.16
   2 -12  13    0.83    0.20
   3 -12  13    1.08    0.21
   3 -12  13    1.46    0.22
   4 -12  13    1.27    0.23
   5 -12  13    0.46    0.18
   6 -12  13    1.61    0.28
   7 -12  13    0.05    0.12
   8 -12  13    8.56    0.58
   9 -12  13   12.94    0.75
  10 -12  13    4.53    0.44
  11 -12  13    4.70    0.45
  12 -12  13    0.05    0.16
  12  11 -13    0.09    0.13
  11  11 -13   -0.06    0.12
 -11 -11  13   -0.04    0.13
  10  11 -13    2.73    0.28
 -10 -11  13    2.78    0.31
   9  11 -13    0.06    0.12
  -9 -11  13    0.08    0.12
  -8 -11  13   -0.02    0.12
  -7 -11  13    0.32    0.14
  -6 -11  13    2.80    0.28
  -5 -11  13   -0.12    0.08
  -4 -11  13    0.23    0.11
  -3 -11  13    0.45    0.14
  -2 -11  13    0.42    0.14
  -1 -11  13    1.71    0.22
   0 -11  13    3.68    0.30
   0 -11  13    3.26    0.32
   1 -11  13    6.95    0.48
   1 -11  13    7.57    0.45
   2 -11  13    2.54    0.28
   2 -11  13    2.93    0.34
   3 -11  13    2.26    0.30
   4 -11  13    1.23    0.23
   5 -11  13    0.29    0.16
   6 -11  13    2.09    0.30
   7 -11  13    0.21    0.14
   8 -11  13    5.88    0.47
   9 -11  13    0.52    0.19
  10 -11  13    0.75    0.23
  11 -11  13    1.23    0.28
  12 -11  13    2.59    0.37
  13 -11  13    0.13    0.14
  13  10 -13    0.23    0.14
  12  10 -13    2.25    0.25
 -12 -10  13    1.96    0.26
  11  10 -13    0.27    0.14
 -11 -10  13    0.47    0.16
  10  10 -13    2.44    0.25
 -10 -10  13    2.92    0.32
   9  10 -13    2.49    0.25
  -9 -10  13    2.52    0.29
  -8 -10  13    2.61    0.28
  -7 -10  13    3.24    0.29
  -6 -10  13    7.95    0.45
  -5 -10  13    2.32    0.26
  -4 -10  13    0.12    0.10
  -3 -10  13    3.23    0.27
  -2 -10  13    0.83    0.16
  -1 -10  13   10.78    0.54
   0 -10  13    1.75    0.22
   0 -10  13    1.89    0.27
   1 -10  13    4.53    0.32
   1 -10  13    4.06    0.36
   2 -10  13    0.82    0.16
   2 -10  13    0.68    0.18
   3 -10  13    6.94    0.47
   4 -10  13    6.80    0.46
   5 -10  13    4.69    0.39
   6 -10  13    5.03    0.41
   7 -10  13    0.18    0.15
   8 -10  13    0.09    0.14
   9 -10  13    0.02    0.14
  10 -10  13    0.17    0.14
  11 -10  13    0.91    0.23
  11 -10  13    1.17    0.24
  12 -10  13   -0.08    0.14
  12 -10  13    0.09    0.13
  13 -10  13    0.03    0.18
  13 -10  13    0.02    0.15
  14   9 -13    0.11    0.13
  13   9 -13    0.09    0.11
  12   9 -13    0.32    0.13
 -12  -9  13    0.14    0.13
  11   9 -13    1.09    0.18
 -11  -9  13    1.22    0.20
  10   9 -13    1.95    0.22
 -10  -9  13    1.41    0.22
  -9  -9  13    1.24    0.19
  -8  -9  13    1.65    0.22
  -7  -9  13    0.34    0.13
  -6  -9  13    7.81    0.43
  -5  -9  13    3.84    0.29
  -4  -9  13    0.24    0.11
  -3  -9  13    0.26    0.10
  -2  -9  13    6.38    0.38
  -1  -9  13    0.74    0.15
   0  -9  13   18.10    0.75
   0  -9  13   18.34    0.86
   1  -9  13    1.38    0.23
   1  -9  13    1.16    0.18
   2  -9  13    1.67    0.20
   2  -9  13    2.03    0.27
   3  -9  13   -0.01    0.09
   4  -9  13    1.57    0.24
   5  -9  13    4.02    0.36
   6  -9  13    0.05    0.13
   7  -9  13    3.48    0.34
   8  -9  13    1.07    0.24
   9  -9  13    4.14    0.38
   9  -9  13    4.23    0.41
  10  -9  13    6.18    0.50
  10  -9  13    6.23    0.46
  11  -9  13    0.10    0.17
  11  -9  13    0.01    0.12
  12  -9  13    0.70    0.23
  12  -9  13    0.84    0.22
  13  -9  13    0.57    0.19
  13  -9  13    0.75    0.25
  14   8 -13    0.27    0.13
  13   8 -13    0.35    0.13
 -13  -8  13    0.50    0.17
  12   8 -13    0.25    0.13
 -12  -8  13    0.39    0.13
  11   8 -13    2.17    0.23
 -11  -8  13    2.10    0.26
  10   8 -13    0.39    0.13
 -10  -8  13    0.26    0.12
  -9  -8  13    8.58    0.46
  -8  -8  13    0.02    0.09
  -7  -8  13    3.56    0.28
  -6  -8  13    1.26    0.18
  -5  -8  13    1.16    0.17
  -4  -8  13    2.70    0.24
  -3  -8  13    0.69    0.14
  -2  -8  13    9.81    0.47
  -1  -8  13    2.62    0.23
   0  -8  13    0.81    0.18
   0  -8  13    0.76    0.13
   1  -8  13    2.65    0.23
   1  -8  13    2.52    0.31
   2  -8  13    2.87    0.29
   2  -8  13    2.72    0.23
   3  -8  13    0.62    0.17
   4  -8  13    5.80    0.42
   5  -8  13    0.65    0.18
   6  -8  13    6.64    0.47
   7  -8  13    4.84    0.41
   8  -8  13   10.87    0.59
   8  -8  13   10.32    0.63
   9  -8  13   15.10    0.79
   9  -8  13   14.29    0.72
  10  -8  13    7.29    0.52
  10  -8  13    7.19    0.49
  11  -8  13    6.16    0.49
  11  -8  13    6.54    0.47
  12  -8  13    0.26    0.19
  12  -8  13    0.36    0.17
  13  -8  13    0.38    0.19
  13  -8  13    0.65    0.21
  15   7 -13   -0.14    0.10
  14   7 -13    5.68    0.34
 -14  -7  13    4.86    0.38
  13   7 -13    2.35    0.23
 -13  -7  13    2.23    0.27
  12   7 -13    1.19    0.18
 -12  -7  13    1.08    0.20
  11   7 -13    3.03    0.25
 -11  -7  13    3.12    0.27
  10   7 -13    3.73    0.27
 -10  -7  13    3.87    0.30
  -9  -7  13    0.26    0.11
  -8  -7  13    1.54    0.19
  -7  -7  13    0.69    0.14
  -6  -7  13    5.28    0.32
  -5  -7  13    0.96    0.15
  -4  -7  13    0.03    0.07
  -3  -7  13    0.70    0.13
  -2  -7  13    0.48    0.11
  -1  -7  13    1.28    0.16
   0  -7  13    0.40    0.10
   0  -7  13    0.39    0.14
   1  -7  13    1.24    0.16
   1  -7  13    1.27    0.23
   2  -7  13    0.04    0.07
   2  -7  13    0.22    0.12
   3  -7  13   -0.16    0.08
   4  -7  13    0.10    0.11
   5  -7  13    1.51    0.25
   6  -7  13   11.38    0.63
   7  -7  13    5.44    0.40
   7  -7  13    5.15    0.41
   8  -7  13    9.08    0.53
   8  -7  13    8.65    0.56
   9  -7  13    4.77    0.42
   9  -7  13    5.35    0.41
  10  -7  13    6.99    0.48
  10  -7  13    6.95    0.52
  11  -7  13    0.69    0.21
  11  -7  13    0.61    0.21
  12  -7  13    3.59    0.42
  12  -7  13    3.61    0.40
  13  -7  13    0.94    0.25
  13  -7  13    0.58    0.19
  14  -7  13    5.20    0.48
  14  -7  13    5.70    0.53
  15   6 -13    1.92    0.21
  14   6 -13    0.18    0.11
 -14  -6  13    0.15    0.14
  13   6 -13    1.35    0.18
 -13  -6  13    1.37    0.22
  12   6 -13    3.36    0.25
 -12  -6  13    3.05    0.28
  11   6 -13    7.03    0.36
 -11  -6  13    6.44    0.39
  10   6 -13    2.20    0.21
 -10  -6  13    2.54    0.24
  -9  -6  13    0.55    0.13
  -8  -6  13    2.44    0.22
  -7  -6  13    1.76    0.20
  -6  -6  13    0.07    0.08
  -5  -6  13    0.73    0.13
  -4  -6  13    5.50    0.30
  -3  -6  13    1.70    0.17
  -2  -6  13    0.59    0.11
  -1  -6  13    6.51    0.33
   0  -6  13    0.29    0.08
   0  -6  13    0.20    0.12
   0  -6  13    0.11    0.07
   1  -6  13    1.57    0.16
   1  -6  13    1.56    0.15
   1  -6  13    1.45    0.23
   2  -6  13   13.10    0.66
   2  -6  13   12.00    0.50
   2  -6  13   12.78    0.53
   3  -6  13   13.50    0.68
   3  -6  13   13.58    0.53
   4  -6  13    0.39    0.15
   5  -6  13   14.01    0.71
   6  -6  13    0.04    0.12
   6  -6  13   -0.05    0.10
   7  -6  13    0.20    0.15
   7  -6  13    0.38    0.14
   8  -6  13    0.07    0.11
   8  -6  13    0.07    0.13
   9  -6  13    0.33    0.16
   9  -6  13    0.44    0.17
  10  -6  13   -0.01    0.13
  10  -6  13    0.00    0.12
  11  -6  13    1.33    0.25
  11  -6  13    1.19    0.23
  12  -6  13    0.24    0.15
  12  -6  13    0.15    0.16
  13  -6  13    0.36    0.16
  13  -6  13    0.19    0.16
  14  -6  13    0.49    0.20
  14  -6  13    0.28    0.19
  15   5 -13    1.44    0.19
 -15  -5  13    1.51    0.25
  14   5 -13    8.78    0.42
 -14  -5  13    8.72    0.49
  13   5 -13    1.34    0.17
 -13  -5  13    1.26    0.21
  12   5 -13    4.16    0.27
 -12  -5  13    4.31    0.32
  11   5 -13    2.76    0.23
 -11  -5  13    3.26    0.26
  10   5 -13    1.65    0.18
 -10  -5  13    1.47    0.19
  -9  -5  13    0.32    0.10
  -8  -5  13    2.35    0.20
  -7  -5  13    0.59    0.12
  -6  -5  13    0.66    0.12
  -5  -5  13    2.15    0.18
  -4  -5  13   12.72    0.52
  -3  -5  13    2.61    0.19
  -2  -5  13    6.22    0.31
  -1  -5  13    1.10    0.13
   0  -5  13    7.12    0.33
   0  -5  13    7.54    0.34
   0  -5  13    6.65    0.44
   1  -5  13    0.33    0.08
   1  -5  13    0.38    0.09
   1  -5  13    0.33    0.15
   2  -5  13   12.43    0.49
   2  -5  13   11.35    0.62
   2  -5  13   12.04    0.47
   3  -5  13    2.56    0.17
   3  -5  13    1.98    0.26
   4  -5  13    1.20    0.12
   4  -5  13    1.13    0.22
   5  -5  13    0.46    0.14
   5  -5  13    0.41    0.08
   5  -5  13    0.63    0.17
   6  -5  13    1.18    0.23
   6  -5  13    1.20    0.21
   7  -5  13    3.46    0.33
   7  -5  13    3.21    0.30
   8  -5  13    0.67    0.19
   8  -5  13    0.61    0.18
   9  -5  13    1.91    0.28
   9  -5  13    2.39    0.28
  10  -5  13    2.35    0.33
  10  -5  13    2.55    0.31
  11  -5  13    0.19    0.15
  11  -5  13    0.08    0.14
  12  -5  13    1.65    0.29
  12  -5  13    1.53    0.25
  13  -5  13    0.04    0.16
  13  -5  13    0.29    0.17
  14  -5  13    0.03    0.18
  14  -5  13    0.13    0.16
 -15  -4  13    0.13    0.13
  14   4 -13    1.39    0.17
 -14  -4  13    1.85    0.24
  13   4 -13   -0.04    0.09
 -13  -4  13   -0.09    0.09
  12   4 -13    0.26    0.10
 -12  -4  13    0.25    0.12
  11   4 -13    2.51    0.21
 -11  -4  13    2.70    0.25
  10   4 -13    0.13    0.09
 -10  -4  13    0.19    0.10
  -9  -4  13    7.31    0.38
  -8  -4  13    0.53    0.11
  -7  -4  13    8.90    0.41
  -6  -4  13    2.21    0.18
  -5  -4  13    7.79    0.36
  -4  -4  13    2.42    0.18
  -3  -4  13   14.09    0.54
  -2  -4  13    9.09    0.38
  -1  -4  13    1.78    0.14
   0  -4  13    0.97    0.11
   0  -4  13    0.86    0.10
   0  -4  13    0.51    0.15
   1  -4  13    7.74    0.47
   1  -4  13    7.80    0.33
   1  -4  13    7.41    0.32
   2  -4  13    1.65    0.13
   2  -4  13    1.48    0.24
   2  -4  13    1.24    0.13
   3  -4  13    8.67    0.51
   3  -4  13    8.32    0.34
   4  -4  13    4.60    0.33
   4  -4  13    4.65    0.21
   4  -4  13    4.17    0.35
   5  -4  13    0.35    0.14
   5  -4  13    0.57    0.17
   5  -4  13    0.64    0.08
   6  -4  13   13.44    0.49
   6  -4  13   13.57    0.69
   6  -4  13   13.36    0.64
   7  -4  13    2.51    0.29
   7  -4  13    2.74    0.33
   8  -4  13   14.34    0.73
   8  -4  13   13.68    0.68
   9  -4  13    4.46    0.36
   9  -4  13    4.73    0.40
  10  -4  13   15.50    0.80
  10  -4  13   15.42    0.76
  11  -4  13    9.32    0.60
  11  -4  13    8.93    0.55
  12  -4  13    1.18    0.26
  12  -4  13    1.46    0.27
  13  -4  13    1.48    0.30
  13  -4  13    1.35    0.25
  14  -4  13    1.34    0.29
 -16  -3  13    1.83    0.27
 -15  -3  13    3.79    0.33
 -14  -3  13    0.91    0.19
  13   3 -13    0.83    0.13
 -13  -3  13    0.72    0.16
  12   3 -13    0.80    0.13
 -12  -3  13    0.75    0.16
  11   3 -13    0.10    0.09
 -11  -3  13    0.11    0.10
  10   3 -13    7.62    0.36
 -10  -3  13    7.62    0.39
  -9  -3  13    0.09    0.08
  -8  -3  13    5.03    0.28
  -7  -3  13    3.76    0.23
  -6  -3  13    1.42    0.14
  -5  -3  13    0.47    0.09
  -4  -3  13   14.67    0.55
  -3  -3  13    0.26    0.07
  -2  -3  13    0.26    0.06
  -1  -3  13    1.74    0.12
   0  -3  13    1.73    0.12
   1  -3  13    0.34    0.07
   1  -3  13    0.37    0.06
   1  -3  13    0.18    0.12
   2  -3  13    6.52    0.42
   2  -3  13    5.89    0.24
   2  -3  13    5.73    0.25
   3  -3  13   13.04    0.45
   3  -3  13   12.76    0.46
   3  -3  13   12.19    0.64
   4  -3  13    2.09    0.24
   4  -3  13    2.46    0.13
   4  -3  13    2.80    0.28
   5  -3  13    2.83    0.29
   5  -3  13    2.44    0.13
   5  -3  13    2.56    0.28
   6  -3  13    4.42    0.35
   6  -3  13    4.86    0.21
   6  -3  13    4.95    0.38
   7  -3  13    7.18    0.48
   7  -3  13    7.04    0.45
   8  -3  13    4.22    0.35
   8  -3  13    4.09    0.37
   9  -3  13    5.95    0.42
   9  -3  13    5.56    0.43
  10  -3  13    2.27    0.31
  10  -3  13    2.95    0.36
  11  -3  13    6.70    0.48
  11  -3  13    6.63    0.50
  12  -3  13    5.29    0.43
  12  -3  13    4.47    0.43
  13  -3  13    1.23    0.27
  13  -3  13    1.26    0.26
  14  -3  13    2.14    0.34
 -16  -2  13    0.19    0.15
 -15  -2  13    0.27    0.14
 -14  -2  13    1.11    0.20
 -13  -2  13    1.04    0.18
 -12  -2  13    0.41    0.13
  11   2 -13    7.98    0.35
 -11  -2  13    7.50    0.40
  10   2 -13    5.10    0.27
 -10  -2  13    5.04    0.31
   9   2 -13    1.87    0.17
  -9  -2  13    1.94    0.19
  -8  -2  13    1.75    0.17
  -7  -2  13    4.76    0.26
  -6  -2  13    3.52    0.21
  -5  -2  13    0.01    0.05
  -4  -2  13   12.15    0.46
  -3  -2  13    1.17    0.10
  -2  -2  13    5.08    0.22
  -1  -2  13   26.12    0.85
   0  -2  13    1.67    0.10
   1  -2  13    1.01    0.07
   1  -2  13    0.94    0.08
   1  -2  13    0.89    0.18
   2  -2  13    1.98    0.10
   2  -2  13    2.07    0.27
   2  -2  13    1.83    0.10
   3  -2  13    5.57    0.39
   3  -2  13    5.61    0.36
   4  -2  13    0.71    0.06
   4  -2  13    0.97    0.19
   4  -2  13    0.63    0.15
   5  -2  13    5.58    0.40
   5  -2  13    5.57    0.37
   5  -2  13    5.25    0.20
   6  -2  13   11.38    0.40
   6  -2  13   12.03    0.62
   6  -2  13   10.90    0.57
   7  -2  13    0.05    0.10
   7  -2  13    0.03    0.04
   7  -2  13   -0.04    0.10
   8  -2  13    2.13    0.29
   8  -2  13    1.74    0.25
   9  -2  13    0.15    0.12
   9  -2  13    0.28    0.15
  10  -2  13    8.13    0.51
  10  -2  13    7.69    0.52
  11  -2  13    6.96    0.48
  11  -2  13    6.41    0.48
  12  -2  13    0.88    0.20
  12  -2  13    0.65    0.21
  13  -2  13   -0.19    0.12
  13  -2  13    0.00    0.13
  14  -2  13    0.03    0.16
 -15  -1  13    5.36    0.39
 -14  -1  13    1.69    0.24
 -13  -1  13    0.22    0.11
 -12  -1  13    3.89    0.29
 -11  -1  13    1.55    0.19
 -10  -1  13    0.26    0.10
   9   1 -13    0.26    0.08
  -9  -1  13    0.21    0.09
  -8  -1  13    2.14    0.18
  -7  -1  13    0.30    0.09
  -6  -1  13    0.78    0.10
  -5  -1  13    0.39    0.08
  -4  -1  13   13.28    0.49
  -3  -1  13    0.69    0.08
  -2  -1  13   24.05    0.79
  -1  -1  13    0.91    0.08
   0  -1  13   16.93    0.55
   2  -1  13    8.22    0.48
   3  -1  13    0.80    0.16
   3  -1  13    0.54    0.16
   4  -1  13    9.82    0.54
   4  -1  13    9.13    0.49
   5  -1  13    0.06    0.11
   5  -1  13    0.17    0.12
   6  -1  13    2.44    0.29
   6  -1  13    2.09    0.27
   6  -1  13    2.13    0.26
   6  -1  13    2.12    0.11
   7  -1  13   -0.02    0.11
   7  -1  13    0.08    0.05
   7  -1  13    0.10    0.11
   7  -1  13   -0.16    0.09
   8  -1  13    2.43    0.30
   8  -1  13    2.66    0.32
   8  -1  13    2.03    0.26
   9  -1  13    1.86    0.26
   9  -1  13    2.17    0.30
   9  -1  13    2.68    0.33
  10  -1  13    0.44    0.17
  10  -1  13    0.62    0.18
  10  -1  13    0.80    0.21
  11  -1  13    0.10    0.13
  11  -1  13    0.01    0.13
  12  -1  13    0.29    0.17
  12  -1  13    0.29    0.16
  13  -1  13    0.66    0.23
  13  -1  13    0.46    0.19
  14  -1  13    0.11    0.17
 -15   0  13    1.52    0.24
 -14   0  13   -0.12    0.10
 -13   0  13    0.26    0.13
 -12   0  13    0.18    0.10
 -11   0  13    0.27    0.12
 -10   0  13    4.88    0.30
  -9   0  13    3.55    0.24
  -8   0  13    6.86    0.34
  -7   0  13   20.35    0.74
  -6   0  13    2.37    0.17
  -5   0  13   24.53    0.84
  -4   0  13    0.34    0.07
  -3   0  13   17.64    0.61
  -2   0  13    0.59    0.07
  -1   0  13   20.03    0.65
   2   0  13    0.62    0.16
   3   0  13    8.03    0.46
   3   0  13    7.14    0.43
   3   0  13    7.32    0.41
   4   0  13    3.46    0.28
   4   0  13    3.96    0.32
   4   0  13    3.59    0.30
   5   0  13    0.05    0.10
   5   0  13    0.18    0.13
   5   0  13    0.11    0.11
   6   0  13    6.09    0.41
   6   0  13    5.27    0.39
   6   0  13    5.30    0.21
   6   0  13    5.74    0.38
   7   0  13    0.17    0.13
   7   0  13    0.43    0.16
   7   0  13    0.31    0.14
   7   0  13    0.20    0.06
   8   0  13    8.11    0.49
   8   0  13    8.13    0.52
   8   0  13    8.38    0.51
   9   0  13    7.57    0.49
   9   0  13    7.68    0.52
   9   0  13    7.72    0.49
  10   0  13    1.36    0.25
  10   0  13    1.32    0.25
  10   0  13    1.27    0.23
  11   0  13    0.92    0.24
  11   0  13    0.75    0.21
  11   0  13    0.81    0.22
  12   0  13    3.50    0.37
  12   0  13    3.74    0.39
  12   0  13    2.98    0.36
  13   0  13    0.71    0.23
 -15   1  13    0.09    0.14
 -14   1  13    0.20    0.13
 -13   1  13    0.37    0.14
 -12   1  13    1.06    0.18
 -11   1  13    1.20    0.18
 -10   1  13    4.89    0.31
  -9   1  13    0.15    0.10
  -8   1  13    8.22    0.39
  -7   1  13    0.26    0.09
  -6   1  13    0.27    0.08
  -5   1  13    4.56    0.24
  -4   1  13   11.80    0.45
  -3   1  13    0.19    0.06
  -2   1  13    3.82    0.18
  -1   1  13    0.29    0.05
   1   1  13    0.49    0.13
   2   1  13    4.54    0.31
   2   1  13    4.42    0.32
   3   1  13    9.94    0.53
   3   1  13    9.55    0.49
   3   1  13    9.59    0.51
   4   1  13    0.31    0.13
   4   1  13    0.46    0.14
   4   1  13    0.32    0.12
   5   1  13    0.30    0.12
   5   1  13    0.46    0.14
   5   1  13    0.38    0.13
   6   1  13    5.33    0.38
   6   1  13    5.27    0.37
   6   1  13    5.27    0.40
   7   1  13    4.66    0.21
   7   1  13    4.66    0.36
   7   1  13    4.29    0.34
   7   1  13    4.50    0.38
   8   1  13    0.87    0.20
   8   1  13    0.77    0.20
   8   1  13    0.89    0.19
   9   1  13   13.22    0.69
   9   1  13   13.04    0.67
   9   1  13   12.93    0.71
  10   1  13    7.31    0.49
  10   1  13    6.26    0.45
  10   1  13    6.45    0.49
  11   1  13    5.23    0.42
  11   1  13    4.81    0.44
  12   1  13    3.34    0.42
  12   1  13    3.06    0.38
 -14   2  13    1.38    0.23
 -13   2  13    2.94    0.29
 -12   2  13    0.83    0.17
 -11   2  13    3.40    0.28
 -10   2  13    0.03    0.09
  -9   2  13    1.90    0.20
  -8   2  13    1.03    0.15
  -7   2  13    8.47    0.39
  -6   2  13    3.48    0.22
  -5   2  13    5.00    0.26
  -4   2  13    0.07    0.06
  -3   2  13    0.97    0.10
  -2   2  13    2.77    0.16
  -1   2  13    3.20    0.23
  -1   2  13    3.39    0.16
   0   2  13    2.99    0.24
   1   2  13    0.96    0.16
   2   2  13    1.13    0.18
   2   2  13    1.03    0.17
   3   2  13    1.98    0.23
   3   2  13    2.33    0.24
   4   2  13    7.03    0.45
   4   2  13    7.82    0.43
   4   2  13    7.57    0.45
   5   2  13    1.68    0.23
   5   2  13    1.21    0.21
   5   2  13    1.43    0.21
   6   2  13   17.62    0.81
   6   2  13   17.55    0.85
   6   2  13   18.69    0.78
   7   2  13    2.45    0.31
   7   2  13    2.69    0.29
   7   2  13    2.70    0.31
   8   2  13   14.81    0.71
   8   2  13   15.41    0.79
   9   2  13    7.10    0.50
   9   2  13    6.81    0.47
  10   2  13    1.92    0.31
  10   2  13    2.32    0.30
  11   2  13    2.81    0.35
  11   2  13    3.27    0.41
  12   2  13    1.90    0.30
  14  -3 -13    6.23    0.37
 -14   3  13    5.64    0.42
 -13   3  13    0.20    0.14
 -12   3  13    5.78    0.38
 -11   3  13    0.68    0.15
 -10   3  13    0.53    0.14
  -9   3  13    0.44    0.12
  -8   3  13    0.75    0.14
  -7   3  13    0.04    0.07
  -6   3  13    0.26    0.09
  -5   3  13    2.82    0.20
  -4   3  13    4.21    0.23
  -3   3  13    0.12    0.06
  -2   3  13    3.67    0.20
  -1   3  13    0.37    0.07
  -1   3  13    0.46    0.11
   0   3  13    0.63    0.07
   0   3  13    0.62    0.13
   1   3  13    2.91    0.25
   2   3  13   10.29    0.54
   2   3  13   10.41    0.50
   3   3  13    2.72    0.25
   3   3  13    2.31    0.25
   4   3  13    3.86    0.33
   4   3  13    3.95    0.31
   5   3  13    2.44    0.27
   5   3  13    2.21    0.29
   6   3  13    1.74    0.26
   6   3  13    1.54    0.22
   7   3  13    0.38    0.14
   7   3  13    0.45    0.17
   8   3  13    0.03    0.11
   8   3  13    0.08    0.13
   9   3  13    0.28    0.17
   9   3  13    0.28    0.15
  10   3  13    0.12    0.15
  10   3  13    0.17    0.15
  11   3  13    0.12    0.14
  11   3  13    0.03    0.15
  13  -4 -13    1.60    0.20
 -13   4  13    2.11    0.27
 -12   4  13    1.51    0.23
 -11   4  13    1.63    0.22
 -10   4  13    2.52    0.25
  -9   4  13    1.55    0.20
  -8   4  13    0.53    0.12
  -7   4  13    2.87    0.23
  -6   4  13    0.45    0.11
  -5   4  13   12.06    0.51
  -4   4  13    0.02    0.07
  -3   4  13    9.53    0.41
  -2   4  13    0.28    0.08
  -1   4  13    0.04    0.05
   0   4  13    7.12    0.29
   0   4  13    6.83    0.40
   1   4  13   22.61    0.96
   2   4  13    4.87    0.35
   3   4  13    3.70    0.28
   3   4  13    3.61    0.31
   4   4  13    0.28    0.13
   4   4  13    0.43    0.15
   5   4  13    1.32    0.20
   5   4  13    0.94    0.20
   6   4  13    0.24    0.14
   6   4  13    0.07    0.11
   7   4  13    1.06    0.23
   7   4  13    0.50    0.15
   8   4  13    4.28    0.39
   8   4  13    4.09    0.36
   9   4  13    0.89    0.24
   9   4  13    0.87    0.20
  10   4  13    2.36    0.31
  10   4  13    2.75    0.37
  11   4  13    2.53    0.33
  13  -5 -13    0.66    0.15
  12  -5 -13    0.25    0.12
 -12   5  13    0.27    0.14
 -11   5  13    2.36    0.28
 -10   5  13    4.86    0.35
  -9   5  13    1.88    0.23
  -8   5  13   11.60    0.55
  -7   5  13    0.14    0.10
  -6   5  13    4.59    0.30
  -5   5  13    0.05    0.08
  -4   5  13    9.02    0.42
  -3   5  13    1.01    0.13
  -2   5  13    2.58    0.19
  -1   5  13    1.57    0.15
   1   5  13    4.67    0.34
   2   5  13    9.92    0.54
   3   5  13    2.15    0.27
   4   5  13    0.38    0.15
   5   5  13    1.09    0.21
   6   5  13   -0.04    0.12
   7   5  13    8.17    0.53
   7   5  13    7.24    0.46
   8   5  13    1.44    0.27
   8   5  13    1.02    0.21
   9   5  13    9.08    0.55
   9   5  13    9.63    0.62
  10   5  13    4.39    0.41
 -11   6  13    9.02    0.53
 -10   6  13    0.03    0.12
  -9   6  13    4.53    0.35
  -8   6  13    0.22    0.13
  -7   6  13    6.70    0.39
  -6   6  13   -0.08    0.08
  -5   6  13    6.12    0.35
  -4   6  13    0.27    0.10
  -3   6  13    1.99    0.19
  -2   6  13    0.23    0.09
  -1   6  13    0.27    0.09
   1   6  13    0.95    0.18
   2   6  13    0.36    0.14
   3   6  13    0.34    0.14
   4   6  13    2.66    0.29
   5   6  13   -0.04    0.11
   6   6  13    6.56    0.47
   7   6  13    0.49    0.19
   8   6  13   12.82    0.74
  -9   7  13    1.38    0.23
  -8   7  13    2.07    0.26
  -7   7  13    0.15    0.12
  -6   7  13    0.15    0.11
  -5   7  13    1.28    0.19
  -4   7  13    0.18    0.10
  -3   7  13    0.14    0.10
  -2   7  13    2.25    0.21
  -1   7  13    0.20    0.09
   2   7  13    4.97    0.38
   3   7  13    2.37    0.30
   4   7  13    2.79    0.31
   5   7  13    2.26    0.31
   6   7  13    1.74    0.27
   7   7  13    0.90    0.23
  -8   8  13    1.97    0.30
  -7   8  13    2.30    0.28
  -6   8  13    0.95    0.18
  -5   8  13    1.85    0.23
  -4   8  13    1.57    0.22
  -3   8  13   14.45    0.64
  -2   8  13    0.60    0.13
   3   8  13    8.84    0.55
   4   8  13    0.93    0.22
   5   8  13   -0.10    0.12
   6   8  13    1.09    0.24
  -5   9  13    1.39    0.25
  -4   9  13    2.74    0.30
  -3   9  13    2.81    0.28
  -2   9  13    9.49    0.49
   4   9  13    1.57    0.27
   5   9  13    0.94    0.23
   2 -18  14    0.87    0.27
   3 -18  14    0.16    0.20
   4 -18  14   -0.05    0.17
   5 -18  14    0.52    0.23
  -2 -17  14    1.15    0.27
  -1 -17  14    0.99    0.25
   0 -17  14    4.42    0.43
   1 -17  14    0.16    0.17
   2 -17  14    4.30    0.43
   3 -17  14    1.04    0.26
   3 -17  14    1.00    0.25
   4 -17  14    1.02    0.26
   4 -17  14    0.59    0.24
   5 -17  14    5.96    0.52
   5 -17  14    6.83    0.53
   6 -17  14    0.66    0.22
   6 -17  14    0.72    0.21
   7 -17  14    1.32    0.30
  -4 -16  14    2.50    0.34
  -3 -16  14    0.30    0.17
  -2 -16  14   -0.08    0.14
  -1 -16  14    0.78    0.23
   0 -16  14   -0.11    0.13
   1 -16  14    3.98    0.40
   2 -16  14    2.31    0.34
   2 -16  14    1.81    0.30
   3 -16  14    1.32    0.26
   3 -16  14    1.54    0.29
   4 -16  14    2.33    0.34
   4 -16  14    2.44    0.34
   5 -16  14    2.51    0.36
   5 -16  14    2.80    0.37
   6 -16  14    3.54    0.42
   7 -16  14    0.20    0.17
   8 -16  14    2.19    0.35
  -6 -15  14    0.02    0.14
  -5 -15  14    1.73    0.28
  -4 -15  14    2.03    0.31
  -3 -15  14    0.41    0.17
  -2 -15  14    1.22    0.25
  -1 -15  14    0.52    0.18
   0 -15  14    0.97    0.21
   1 -15  14    0.39    0.17
   2 -15  14    0.23    0.16
   2 -15  14    0.32    0.17
   3 -15  14    0.55    0.20
   3 -15  14    0.93    0.22
   4 -15  14    0.55    0.20
   4 -15  14    0.55    0.19
   5 -15  14    0.87    0.23
   6 -15  14    1.65    0.28
   7 -15  14    1.66    0.30
   8 -15  14    0.43    0.20
   9 -15  14    0.47    0.19
   8  14 -14    2.97    0.29
  -8 -14  14    2.25    0.31
  -7 -14  14    0.86    0.21
  -6 -14  14    9.17    0.56
  -5 -14  14    1.30    0.24
  -4 -14  14    7.93    0.51
  -3 -14  14    0.78    0.19
  -2 -14  14    7.23    0.49
  -1 -14  14    5.60    0.43
   0 -14  14    0.30    0.15
   1 -14  14    1.38    0.26
   1 -14  14    1.35    0.25
   2 -14  14    0.00    0.13
   2 -14  14    0.07    0.14
   3 -14  14    3.99    0.37
   3 -14  14    4.03    0.39
   4 -14  14    0.20    0.16
   4 -14  14    0.10    0.13
   5 -14  14   -0.08    0.12
   6 -14  14    0.17    0.14
   7 -14  14    0.66    0.22
   8 -14  14    0.42    0.19
   9 -14  14    0.10    0.15
  10 -14  14   -0.17    0.15
   9  13 -14   11.27    0.56
  -9 -13  14   10.98    0.62
  -8 -13  14    0.01    0.14
  -7 -13  14    4.85    0.39
  -6 -13  14    1.47    0.24
  -5 -13  14   10.10    0.58
  -4 -13  14    1.04    0.22
  -3 -13  14    6.81    0.45
  -2 -13  14    3.31    0.33
  -1 -13  14    0.22    0.13
   0 -13  14    0.11    0.12
   1 -13  14    0.02    0.12
   1 -13  14    0.00    0.13
   2 -13  14    0.92    0.21
   2 -13  14    1.41    0.23
   3 -13  14    0.12    0.14
   3 -13  14    0.08    0.12
   4 -13  14    0.78    0.21
   5 -13  14    7.65    0.53
   6 -13  14    0.26    0.17
   7 -13  14    0.43    0.18
   8 -13  14    0.43    0.19
   9 -13  14    3.89    0.46
  10 -13  14    0.21    0.17
  11 -13  14    2.11    0.39
  10  12 -14    8.52    0.47
 -10 -12  14    7.99    0.50
   9  12 -14    0.24    0.13
  -9 -12  14    0.13    0.15
  -8 -12  14    1.20    0.23
  -7 -12  14    0.03    0.12
  -6 -12  14    7.89    0.49
  -5 -12  14    3.80    0.33
  -4 -12  14    0.94    0.21
  -3 -12  14    1.14    0.20
  -2 -12  14    1.10    0.21
  -1 -12  14    4.07    0.34
   0 -12  14    0.48    0.15
   1 -12  14    1.88    0.28
   1 -12  14    1.82    0.25
   2 -12  14   -0.03    0.12
   2 -12  14   -0.08    0.09
   3 -12  14    4.14    0.39
   3 -12  14    4.25    0.35
   4 -12  14    6.61    0.48
   5 -12  14    6.23    0.48
   6 -12  14    2.21    0.32
   7 -12  14    0.78    0.21
   8 -12  14   10.23    0.65
   9 -12  14   -0.11    0.14
  10 -12  14   -0.03    0.16
  11 -12  14    0.08    0.16
  11  11 -14    2.50    0.27
 -11 -11  14    1.80    0.27
  10  11 -14    0.11    0.12
 -10 -11  14    0.06    0.13
   9  11 -14    1.38    0.20
  -9 -11  14    1.75    0.26
  -8 -11  14    0.18    0.13
  -7 -11  14    0.34    0.15
  -6 -11  14   -0.04    0.10
  -5 -11  14    1.34    0.21
  -4 -11  14    0.82    0.18
  -3 -11  14    1.94    0.24
  -2 -11  14    0.08    0.11
  -1 -11  14    4.07    0.32
   0 -11  14    0.36    0.14
   1 -11  14    0.12    0.13
   1 -11  14    0.14    0.11
   2 -11  14    0.15    0.12
   2 -11  14    0.40    0.14
   3 -11  14    0.08    0.13
   3 -11  14   -0.03    0.10
   4 -11  14    1.73    0.27
   5 -11  14    1.96    0.29
   6 -11  14    0.21    0.16
   7 -11  14    2.69    0.35
   8 -11  14    1.13    0.26
   9 -11  14    4.50    0.44
  10 -11  14    1.11    0.25
  11 -11  14    0.23    0.18
  12  10 -14    1.61    0.22
 -12 -10  14    1.47    0.24
  11  10 -14    0.01    0.11
 -11 -10  14   -0.16    0.10
  10  10 -14    0.47    0.15
 -10 -10  14    0.38    0.15
  -9 -10  14    0.85    0.17
  -8 -10  14    6.11    0.40
  -7 -10  14    0.16    0.12
  -6 -10  14    6.89    0.42
  -5 -10  14    0.01    0.10
  -4 -10  14    3.97    0.31
  -3 -10  14    0.43    0.13
  -2 -10  14    6.99    0.41
  -1 -10  14    0.18    0.11
   0 -10  14    0.94    0.20
   0 -10  14    1.02    0.17
   1 -10  14    0.19    0.11
   1 -10  14    0.37    0.16
   2 -10  14    1.06    0.23
   2 -10  14    1.12    0.19
   3 -10  14    0.16    0.10
   3 -10  14    0.22    0.14
   4 -10  14    0.13    0.14
   5 -10  14    0.35    0.17
   6 -10  14   -0.02    0.11
   7 -10  14    3.54    0.37
   8 -10  14    0.86    0.23
   9 -10  14    0.54    0.21
  10 -10  14    0.25    0.16
  11 -10  14    0.01    0.14
  12 -10  14    0.04    0.13
  12 -10  14    0.03    0.16
  13   9 -14    3.09    0.27
 -13  -9  14    2.51    0.31
  12   9 -14    0.25    0.12
 -12  -9  14    0.26    0.14
  11   9 -14    3.57    0.28
 -11  -9  14    3.47    0.31
  10   9 -14    0.71    0.16
 -10  -9  14    0.84    0.18
  -9  -9  14    8.38    0.47
  -8  -9  14    0.73    0.16
  -7  -9  14    9.19    0.48
  -6  -9  14    1.88    0.23
  -5  -9  14    5.78    0.37
  -4  -9  14    0.19    0.11
  -3  -9  14    5.78    0.36
  -2  -9  14    2.70    0.24
  -1  -9  14    1.60    0.20
   0  -9  14    1.83    0.21
   0  -9  14    2.18    0.29
   1  -9  14   -0.05    0.12
   1  -9  14    0.21    0.10
   2  -9  14    1.26    0.23
   2  -9  14    1.66    0.21
   3  -9  14    0.81    0.20
   4  -9  14    1.56    0.25
   5  -9  14    6.00    0.46
   6  -9  14    0.10    0.12
   7  -9  14    5.48    0.44
   8  -9  14    0.46    0.20
   9  -9  14    6.11    0.50
  10  -9  14    0.12    0.14
  10  -9  14    0.16    0.16
  11  -9  14    1.62    0.29
  11  -9  14    1.99    0.30
  12  -9  14    0.64    0.23
  12  -9  14    0.43    0.19
  14   8 -14    3.23    0.28
  13   8 -14    0.25    0.12
 -13  -8  14    0.16    0.14
  12   8 -14    2.81    0.26
 -12  -8  14    3.20    0.30
  11   8 -14    0.56    0.14
 -11  -8  14    0.41    0.14
  10   8 -14   10.38    0.49
 -10  -8  14    9.68    0.51
  -9  -8  14    2.19    0.24
  -8  -8  14   11.09    0.54
  -7  -8  14    0.01    0.10
  -6  -8  14   21.69    0.86
  -5  -8  14    3.32    0.26
  -4  -8  14    1.16    0.17
  -3  -8  14    3.84    0.27
  -2  -8  14    4.31    0.29
  -1  -8  14    4.49    0.29
   0  -8  14    0.03    0.11
   0  -8  14    0.04    0.08
   1  -8  14   17.95    0.85
   1  -8  14   17.08    0.71
   2  -8  14    1.64    0.27
   2  -8  14    1.76    0.20
   3  -8  14    1.87    0.27
   4  -8  14    0.68    0.19
   5  -8  14    6.33    0.46
   6  -8  14    8.95    0.57
   7  -8  14    2.98    0.37
   8  -8  14    4.71    0.42
   8  -8  14    5.23    0.41
   9  -8  14    0.04    0.12
   9  -8  14    0.07    0.15
  10  -8  14    0.90    0.22
  10  -8  14    1.34    0.27
  11  -8  14   -0.03    0.13
  11  -8  14   -0.03    0.14
  12  -8  14    0.30    0.16
  12  -8  14    0.41    0.19
  13  -8  14    0.44    0.21
  14   7 -14    0.15    0.11
 -14  -7  14   -0.03    0.13
  13   7 -14    1.47    0.20
 -13  -7  14    1.82    0.25
  12   7 -14    0.06    0.11
 -12  -7  14    0.09    0.12
  11   7 -14    2.11    0.23
 -11  -7  14    1.69    0.23
  10   7 -14    5.54    0.34
 -10  -7  14    6.00    0.37
  -9  -7  14    6.81    0.39
  -8  -7  14    0.30    0.12
  -7  -7  14    2.75    0.23
  -6  -7  14    1.27    0.18
  -5  -7  14    0.18    0.10
  -4  -7  14    0.05    0.07
  -3  -7  14    2.39    0.21
  -2  -7  14    0.10    0.08
  -1  -7  14    0.09    0.07
   0  -7  14    6.53    0.46
   0  -7  14    6.30    0.34
   1  -7  14    0.46    0.17
   1  -7  14    0.38    0.10
   2  -7  14    2.83    0.33
   2  -7  14    3.59    0.24
   3  -7  14    0.13    0.13
   4  -7  14    2.63    0.33
   5  -7  14    8.05    0.53
   6  -7  14    0.24    0.14
   7  -7  14    1.06    0.20
   7  -7  14    1.18    0.25
   8  -7  14    0.59    0.18
   8  -7  14    0.42    0.17
   9  -7  14    4.38    0.39
   9  -7  14    4.63    0.43
  10  -7  14    1.24    0.24
  10  -7  14    1.51    0.29
  11  -7  14    0.27    0.18
  11  -7  14    0.34    0.18
  12  -7  14   -0.09    0.14
  12  -7  14   -0.10    0.11
  13  -7  14    0.61    0.21
  13  -7  14    0.25    0.18
  15   6 -14   -0.05    0.11
 -15  -6  14   -0.07    0.13
  14   6 -14    3.27    0.25
 -14  -6  14    2.32    0.29
  13   6 -14    5.74    0.33
 -13  -6  14    5.66    0.39
  12   6 -14    1.10    0.17
 -12  -6  14    1.46    0.22
  11   6 -14    0.55    0.13
 -11  -6  14    0.37    0.13
  10   6 -14    2.19    0.22
 -10  -6  14    2.47    0.24
  -9  -6  14    0.07    0.09
  -8  -6  14    2.48    0.22
  -7  -6  14    1.26    0.17
  -6  -6  14    3.29    0.24
  -5  -6  14    0.18    0.09
  -4  -6  14    0.11    0.08
  -3  -6  14    1.39    0.16
  -2  -6  14    0.64    0.11
  -1  -6  14    3.85    0.24
   0  -6  14    0.03    0.11
   0  -6  14   -0.06    0.06
   1  -6  14    4.39    0.38
   1  -6  14    5.03    0.27
   2  -6  14    2.20    0.19
   2  -6  14    2.51    0.32
   3  -6  14    0.21    0.12
   3  -6  14    0.41    0.09
   4  -6  14    1.17    0.23
   5  -6  14    0.26    0.14
   6  -6  14    1.45    0.25
   6  -6  14    1.57    0.24
   7  -6  14    1.17    0.23
   7  -6  14    1.65    0.26
   8  -6  14    0.36    0.18
   8  -6  14    0.44    0.16
   9  -6  14    0.05    0.12
   9  -6  14    0.20    0.16
  10  -6  14    1.09    0.23
  10  -6  14    0.97    0.24
  11  -6  14    0.55    0.20
  11  -6  14    0.19    0.17
  12  -6  14    0.56    0.22
  12  -6  14    0.46    0.20
  13  -6  14    0.00    0.17
  13  -6  14    0.01    0.16
 -15  -5  14   -0.01    0.12
  14   5 -14    0.66    0.14
 -14  -5  14    0.82    0.19
  13   5 -14    0.48    0.14
 -13  -5  14    0.52    0.16
  12   5 -14    1.05    0.16
 -12  -5  14    1.17    0.19
  11   5 -14   10.16    0.46
 -11  -5  14   10.00    0.50
  10   5 -14    0.28    0.11
 -10  -5  14    0.22    0.11
  -9  -5  14    5.84    0.34
  -8  -5  14    0.99    0.15
  -7  -5  14   14.14    0.58
  -6  -5  14    0.19    0.08
  -5  -5  14    9.01    0.41
  -4  -5  14    1.46    0.16
  -3  -5  14    2.92    0.20
  -2  -5  14    5.85    0.29
  -1  -5  14    0.79    0.11
   0  -5  14    0.37    0.08
   0  -5  14    0.40    0.09
   1  -5  14    1.11    0.13
   1  -5  14    1.23    0.13
   1  -5  14    1.10    0.23
   2  -5  14    3.40    0.21
   2  -5  14    3.24    0.31
   2  -5  14    3.27    0.20
   3  -5  14    2.46    0.31
   3  -5  14    2.45    0.16
   3  -5  14    2.45    0.18
   4  -5  14    0.32    0.15
   5  -5  14    0.40    0.15
   6  -5  14    1.15    0.21
   6  -5  14    1.09    0.22
   7  -5  14   10.13    0.60
   7  -5  14   10.54    0.57
   8  -5  14    0.08    0.12
   8  -5  14    0.07    0.13
   9  -5  14    1.75    0.28
   9  -5  14    1.63    0.28
  10  -5  14   -0.01    0.14
  10  -5  14   -0.01    0.13
  11  -5  14    1.96    0.30
  11  -5  14    1.44    0.28
  12  -5  14    0.43    0.17
  12  -5  14    0.46    0.20
  13  -5  14    2.17    0.35
  13  -5  14    2.55    0.37
 -15  -4  14    0.24    0.15
 -14  -4  14    0.12    0.12
  13   4 -14    3.78    0.26
 -13  -4  14    3.70    0.31
  12   4 -14    3.81    0.25
 -12  -4  14    3.70    0.30
  11   4 -14    2.22    0.20
 -11  -4  14    1.75    0.21
  10   4 -14   15.71    0.63
 -10  -4  14   16.56    0.68
  -9  -4  14    2.05    0.20
  -8  -4  14    8.97    0.42
  -7  -4  14    1.75    0.17
  -6  -4  14   14.12    0.56
  -5  -4  14    0.16    0.07
  -4  -4  14    3.54    0.21
  -3  -4  14    0.35    0.08
  -2  -4  14    7.05    0.31
  -1  -4  14    1.22    0.12
   0  -4  14    0.07    0.06
   0  -4  14    0.04    0.05
   1  -4  14    9.98    0.57
   1  -4  14    9.72    0.39
   1  -4  14    9.22    0.38
   2  -4  14    0.17    0.13
   2  -4  14    0.10    0.06
   2  -4  14    0.42    0.08
   3  -4  14   18.31    0.66
   3  -4  14   18.66    0.64
   3  -4  14   18.21    0.86
   4  -4  14    2.88    0.33
   4  -4  14    2.61    0.15
   5  -4  14    1.15    0.23
   5  -4  14    1.01    0.20
   5  -4  14    1.19    0.10
   6  -4  14   16.64    0.81
   6  -4  14   15.75    0.74
   7  -4  14    2.39    0.28
   7  -4  14    2.45    0.32
   8  -4  14    2.60    0.31
   8  -4  14    2.35    0.32
   9  -4  14    0.49    0.17
   9  -4  14    0.53    0.20
  10  -4  14    1.35    0.25
  10  -4  14    1.07    0.24
  11  -4  14    0.15    0.13
  11  -4  14    0.04    0.13
  12  -4  14    0.29    0.17
  12  -4  14    0.14    0.17
  13  -4  14    0.09    0.17
 -15  -3  14    0.69    0.18
 -14  -3  14    0.19    0.13
 -13  -3  14    0.57    0.15
 -12  -3  14    0.31    0.12
  11   3 -14    4.85    0.27
 -11  -3  14    4.07    0.30
  10   3 -14    4.53    0.27
 -10  -3  14    4.77    0.30
  -9  -3  14    1.46    0.17
  -8  -3  14    2.56    0.20
  -7  -3  14    0.63    0.11
  -6  -3  14    0.36    0.09
  -5  -3  14    3.08    0.19
  -4  -3  14    5.38    0.26
  -3  -3  14    1.64    0.13
  -2  -3  14    5.81    0.25
  -1  -3  14    3.30    0.17
   0  -3  14    1.61    0.12
   0  -3  14    1.50    0.11
   1  -3  14    0.87    0.20
   1  -3  14    0.98    0.10
   1  -3  14    1.04    0.09
   2  -3  14    1.09    0.09
   2  -3  14    1.22    0.22
   2  -3  14    0.94    0.09
   3  -3  14    8.41    0.32
   3  -3  14    8.50    0.31
   3  -3  14    8.40    0.51
   4  -3  14    0.13    0.12
   4  -3  14    0.15    0.11
   4  -3  14    0.11    0.04
   5  -3  14    0.64    0.17
   5  -3  14    0.92    0.08
   5  -3  14    0.85    0.19
   6  -3  14    2.05    0.27
   6  -3  14    2.40    0.13
   6  -3  14    2.06    0.28
   7  -3  14    0.21    0.13
   7  -3  14   -0.12    0.10
   8  -3  14    0.11    0.12
   8  -3  14    0.02    0.11
   9  -3  14    0.85    0.22
   9  -3  14    1.09    0.22
  10  -3  14    0.13    0.13
  10  -3  14    0.00    0.13
  11  -3  14    2.34    0.33
  11  -3  14    1.74    0.29
  12  -3  14   -0.05    0.14
  12  -3  14    0.47    0.20
  13  -3  14    0.06    0.17
 -15  -2  14    0.57    0.18
 -14  -2  14    1.26    0.21
 -13  -2  14    0.56    0.15
 -12  -2  14   -0.01    0.10
 -11  -2  14    2.69    0.23
 -10  -2  14    0.05    0.08
   9   2 -14    0.13    0.08
  -9  -2  14    0.03    0.08
  -8  -2  14    6.41    0.33
  -7  -2  14    0.00    0.06
  -6  -2  14    0.08    0.06
  -5  -2  14    0.28    0.07
  -4  -2  14    8.44    0.35
  -3  -2  14    4.00    0.20
  -2  -2  14    1.70    0.11
  -1  -2  14    1.69    0.10
   0  -2  14    0.28    0.04
   0  -2  14    0.27    0.06
   1  -2  14    0.68    0.07
   1  -2  14    0.51    0.05
   2  -2  14    0.88    0.20
   3  -2  14    4.26    0.35
   4  -2  14    0.03    0.10
   4  -2  14    0.16    0.12
   5  -2  14    4.54    0.37
   5  -2  14    4.08    0.33
   6  -2  14    1.12    0.20
   6  -2  14    0.97    0.08
   6  -2  14    1.13    0.22
   7  -2  14    1.10    0.23
   7  -2  14    1.65    0.25
   8  -2  14    1.20    0.22
   8  -2  14    1.56    0.27
   9  -2  14    0.04    0.12
   9  -2  14   -0.08    0.12
  10  -2  14   -0.01    0.11
  10  -2  14    0.06    0.15
  11  -2  14    0.42    0.20
  11  -2  14    0.26    0.15
  12  -2  14    0.33    0.18
  12  -2  14    0.14    0.17
  13  -2  14    0.63    0.22
 -14  -1  14    0.02    0.12
 -13  -1  14    0.22    0.13
 -12  -1  14    0.28    0.12
 -11  -1  14    0.22    0.11
 -10  -1  14    0.09    0.08
  -9  -1  14    1.98    0.19
  -8  -1  14    0.86    0.13
  -7  -1  14    5.19    0.27
  -6  -1  14    5.51    0.27
  -5  -1  14   14.00    0.52
  -4  -1  14    0.27    0.06
  -3  -1  14    2.78    0.15
  -2  -1  14    0.46    0.06
  -1  -1  14    7.27    0.27
   0  -1  14    8.46    0.29
   2  -1  14    4.44    0.36
   3  -1  14    4.48    0.33
   3  -1  14    5.43    0.40
   4  -1  14    0.57    0.17
   4  -1  14    0.37    0.14
   5  -1  14    2.95    0.28
   5  -1  14    2.28    0.29
   6  -1  14    0.02    0.12
   6  -1  14    0.16    0.13
   7  -1  14    3.44    0.32
   7  -1  14    3.05    0.15
   7  -1  14    3.34    0.32
   8  -1  14    1.36    0.24
   8  -1  14    0.81    0.19
   9  -1  14    0.47    0.17
   9  -1  14    0.52    0.18
  10  -1  14    1.64    0.28
  10  -1  14    2.07    0.30
  11  -1  14    0.91    0.22
  11  -1  14    0.88    0.24
  12  -1  14    1.19    0.27
  12  -1  14    0.92    0.23
  13  -1  14    0.37    0.20
 -14   0  14    0.90    0.19
 -13   0  14    1.15    0.20
 -12   0  14    0.98    0.18
 -11   0  14    1.77    0.21
 -10   0  14    2.85    0.24
  -9   0  14   10.94    0.49
  -8   0  14   12.36    0.52
  -7   0  14    1.34    0.15
  -6   0  14    6.66    0.31
  -5   0  14    1.86    0.15
  -4   0  14   14.43    0.53
  -3   0  14    1.77    0.12
  -2   0  14    5.50    0.23
  -1   0  14    2.34    0.12
   3   0  14    1.18    0.21
   3   0  14    1.25    0.20
   4   0  14    6.44    0.40
   4   0  14    5.53    0.40
   4   0  14    7.49    0.45
   5   0  14    0.47    0.15
   5   0  14    0.66    0.18
   5   0  14    0.92    0.19
   6   0  14   14.34    0.73
   6   0  14   14.41    0.74
   6   0  14   14.40    0.69
   7   0  14    1.48    0.25
   7   0  14    1.14    0.22
   7   0  14    1.10    0.22
   8   0  14    0.28    0.16
   8   0  14    0.21    0.14
   8   0  14    0.16    0.14
   9   0  14   -0.02    0.12
   9   0  14    0.03    0.12
   9   0  14   -0.04    0.12
  10   0  14    0.46    0.18
  10   0  14    0.67    0.20
  10   0  14    0.77    0.21
  11   0  14    0.02    0.14
  11   0  14    0.24    0.16
  11   0  14    0.00    0.14
  12   0  14    0.10    0.17
 -13   1  14    1.30    0.21
 -12   1  14    0.13    0.11
 -11   1  14    0.06    0.10
 -10   1  14   11.64    0.53
  -9   1  14    3.73    0.26
  -8   1  14    3.96    0.25
  -7   1  14    0.18    0.08
  -6   1  14    0.14    0.07
  -5   1  14   11.73    0.46
  -4   1  14    1.95    0.15
  -3   1  14   -0.01    0.05
  -2   1  14    1.37    0.11
  -1   1  14   -0.02    0.03
   2   1  14    0.45    0.13
   3   1  14    7.77    0.47
   3   1  14    7.75    0.44
   3   1  14    8.11    0.48
   4   1  14    4.61    0.37
   4   1  14    4.75    0.36
   4   1  14    4.28    0.33
   5   1  14    2.50    0.28
   5   1  14    2.08    0.28
   5   1  14    2.39    0.29
   6   1  14    3.03    0.31
   6   1  14    3.00    0.31
   6   1  14    3.96    0.33
   7   1  14    0.49    0.16
   7   1  14    0.45    0.16
   7   1  14    0.39    0.15
   8   1  14    0.21    0.15
   8   1  14   -0.06    0.11
   8   1  14   -0.02    0.12
   9   1  14    2.19    0.30
   9   1  14    2.95    0.36
  10   1  14    0.74    0.20
  10   1  14    0.60    0.21
  11   1  14    0.46    0.19
  11   1  14    0.17    0.16
 -13   2  14    0.59    0.17
 -12   2  14    0.17    0.13
 -11   2  14    5.78    0.37
 -10   2  14    0.96    0.16
  -9   2  14    5.83    0.34
  -8   2  14    1.34    0.17
  -7   2  14    0.15    0.08
  -6   2  14    0.75    0.12
  -5   2  14    0.10    0.07
  -4   2  14    3.56    0.21
  -3   2  14    6.24    0.28
  -2   2  14    0.20    0.06
  -1   2  14    1.91    0.12
   0   2  14    0.05    0.08
   1   2  14    0.98    0.18
   2   2  14    0.65    0.15
   3   2  14    3.26    0.30
   3   2  14    3.19    0.28
   4   2  14    0.71    0.18
   4   2  14    0.47    0.15
   4   2  14    0.73    0.16
   5   2  14    8.89    0.53
   5   2  14    8.95    0.51
   5   2  14    8.75    0.50
   6   2  14    0.02    0.11
   6   2  14    0.21    0.13
   7   2  14    0.22    0.14
   7   2  14    0.67    0.20
   8   2  14    0.41    0.17
   8   2  14    0.29    0.15
   9   2  14    1.68    0.27
   9   2  14    1.91    0.30
  10   2  14    0.05    0.13
  10   2  14    0.06    0.14
  11   2  14    0.06    0.15
 -12   3  14    0.21    0.12
 -11   3  14    2.20    0.25
 -10   3  14    2.35    0.24
  -9   3  14    0.63    0.14
  -8   3  14    0.75    0.14
  -7   3  14    2.86    0.23
  -6   3  14   -0.06    0.06
  -5   3  14    9.11    0.41
  -4   3  14    0.12    0.07
  -3   3  14    0.07    0.06
  -2   3  14    0.02    0.05
  -1   3  14    0.38    0.07
   1   3  14    2.07    0.23
   2   3  14    1.06    0.19
   3   3  14    6.44    0.42
   3   3  14    5.79    0.38
   4   3  14    0.15    0.12
   4   3  14    0.01    0.10
   5   3  14    2.64    0.29
   5   3  14    2.37    0.28
   6   3  14   -0.07    0.09
   6   3  14    0.00    0.11
   7   3  14    3.09    0.34
   7   3  14    2.51    0.31
   8   3  14    2.67    0.33
   8   3  14    1.84    0.27
   9   3  14    0.12    0.14
   9   3  14    0.20    0.15
  10   3  14    0.75    0.24
  10   3  14    0.52    0.19
  13  -4 -14    1.27    0.21
 -11   4  14    1.49    0.22
 -10   4  14    3.80    0.30
  -9   4  14    3.85    0.29
  -8   4  14   11.40    0.53
  -7   4  14   -0.04    0.08
  -6   4  14    5.27    0.31
  -5   4  14   -0.12    0.06
  -4   4  14    2.06    0.18
  -3   4  14    0.34    0.09
  -2   4  14    0.37    0.08
  -1   4  14    0.01    0.05
   1   4  14    0.76    0.16
   2   4  14    3.76    0.31
   3   4  14    0.16    0.12
   4   4  14    1.82    0.26
   5   4  14    1.20    0.22
   6   4  14    6.41    0.42
   6   4  14    5.69    0.45
   7   4  14    0.06    0.13
   7   4  14    0.16    0.14
   8   4  14    1.60    0.28
   8   4  14    1.91    0.28
   9   4  14   -0.13    0.13
   9   4  14    0.30    0.15
  10   4  14    1.20    0.25
 -10   5  14    3.29    0.31
  -9   5  14    6.25    0.40
  -8   5  14    0.61    0.15
  -7   5  14    4.09    0.30
  -6   5  14    0.04    0.08
  -5   5  14    4.22    0.28
  -4   5  14    0.70    0.13
  -3   5  14    0.06    0.07
  -2   5  14    1.02    0.13
  -1   5  14    1.88    0.16
   2   5  14    0.65    0.17
   3   5  14    4.67    0.38
   4   5  14    1.47    0.25
   5   5  14   -0.02    0.12
   6   5  14    3.37    0.37
   7   5  14    1.76    0.29
   8   5  14    1.20    0.26
  -9   6  14    3.91    0.34
  -8   6  14    5.35    0.37
  -7   6  14    0.13    0.11
  -6   6  14    0.10    0.10
  -5   6  14    0.07    0.09
  -4   6  14    3.35    0.25
  -3   6  14    1.22    0.16
  -2   6  14    0.73    0.13
  -1   6  14    0.15    0.08
   3   6  14    2.24    0.29
   4   6  14    1.19    0.23
   5   6  14    7.32    0.51
   6   6  14    0.06    0.14
   7   6  14    2.05    0.32
  -7   7  14    2.85    0.28
  -6   7  14    0.06    0.10
  -5   7  14    5.00    0.34
  -4   7  14    0.18    0.11
  -3   7  14   -0.09    0.08
  -2   7  14    2.72    0.23
   4   7  14    0.68    0.20
   5   7  14    0.90    0.22
   6   7  14    0.08    0.14
  -4   8  14    1.08    0.19
  -3   8  14    1.06    0.18
  -2   8  14    0.81    0.15
   0 -18  15   -0.11    0.18
   1 -18  15    3.25    0.42
   2 -18  15    0.89    0.26
   3 -18  15    0.03    0.17
  -3 -17  15    0.18    0.17
  -2 -17  15    0.35    0.20
  -1 -17  15    0.17    0.19
   0 -17  15    0.35    0.20
   1 -17  15    1.62    0.31
   2 -17  15    9.26    0.63
   3 -17  15    1.38    0.29
   3 -17  15    1.15    0.28
   4 -17  15    0.28    0.18
   4 -17  15   -0.01    0.17
   5 -17  15   -0.09    0.15
   5 -17  15    0.06    0.17
   6 -17  15    0.46    0.21
   6 -17  15    0.44    0.20
  -5 -16  15    1.24    0.26
  -4 -16  15    0.11    0.16
  -3 -16  15    0.28    0.17
  -2 -16  15    1.07    0.25
  -1 -16  15    0.07    0.17
   0 -16  15    4.74    0.43
   1 -16  15    4.84    0.43
   2 -16  15   -0.11    0.14
   3 -16  15    0.17    0.16
   3 -16  15    0.34    0.18
   4 -16  15    1.85    0.33
   4 -16  15    1.92    0.32
   5 -16  15    0.27    0.17
   5 -16  15    0.42    0.19
   6 -16  15    1.56    0.27
   6 -16  15    1.37    0.29
   7 -16  15    1.13    0.27
  -7 -15  15    0.24    0.17
  -6 -15  15   -0.09    0.13
  -5 -15  15    0.02    0.15
  -4 -15  15    0.02    0.15
  -3 -15  15    1.37    0.25
  -2 -15  15    1.16    0.24
  -1 -15  15    1.22    0.24
   0 -15  15    0.29    0.17
   1 -15  15    2.33    0.31
   2 -15  15   -0.20    0.12
   2 -15  15    0.00    0.13
   3 -15  15    1.49    0.29
   3 -15  15    1.69    0.29
   4 -15  15    0.15    0.15
   4 -15  15    0.34    0.16
   5 -15  15    5.30    0.44
   5 -15  15    4.65    0.45
   6 -15  15    0.12    0.16
   7 -15  15    1.87    0.32
   8 -15  15    0.41    0.21
  -8 -14  15   -0.12    0.14
  -7 -14  15    0.60    0.20
  -6 -14  15    0.21    0.15
  -5 -14  15    0.65    0.20
  -4 -14  15   -0.11    0.13
  -3 -14  15    2.16    0.29
  -2 -14  15    1.22    0.24
  -1 -14  15    1.84    0.28
   0 -14  15    3.97    0.37
   1 -14  15    1.58    0.27
   2 -14  15    1.37    0.26
   2 -14  15    1.59    0.28
   3 -14  15   -0.02    0.13
   3 -14  15    0.13    0.15
   4 -14  15    3.64    0.36
   4 -14  15    3.74    0.40
   5 -14  15    0.13    0.16
   6 -14  15    0.88    0.22
   7 -14  15    0.10    0.15
   8 -14  15    2.07    0.35
   9 -14  15    1.23    0.28
  -9 -13  15    2.34    0.31
  -8 -13  15    0.83    0.21
  -7 -13  15    0.04    0.13
  -6 -13  15    0.23    0.14
  -5 -13  15    0.12    0.13
  -4 -13  15    1.30    0.24
  -3 -13  15    0.95    0.20
  -2 -13  15    0.63    0.18
  -1 -13  15    1.67    0.26
   0 -13  15    2.77    0.32
   1 -13  15    0.37    0.18
   1 -13  15    0.57    0.18
   2 -13  15    7.60    0.54
   2 -13  15    7.56    0.49
   3 -13  15    2.26    0.33
   3 -13  15    2.26    0.30
   4 -13  15    4.13    0.37
   4 -13  15    3.86    0.40
   5 -13  15    0.77    0.21
   6 -13  15    0.10    0.15
   7 -13  15    1.29    0.28
   8 -13  15    0.51    0.22
   9 -13  15   -0.06    0.16
  10  12 -15    0.57    0.18
 -10 -12  15    0.74    0.20
   9  12 -15    1.64    0.23
  -9 -12  15    1.79    0.27
  -8 -12  15    0.84    0.20
  -7 -12  15    1.91    0.26
  -6 -12  15    0.89    0.20
  -5 -12  15    0.10    0.12
  -4 -12  15    1.51    0.24
  -3 -12  15    0.09    0.12
  -2 -12  15    3.12    0.30
  -1 -12  15    1.73    0.25
   0 -12  15    0.83    0.18
   1 -12  15    0.97    0.22
   1 -12  15    1.38    0.23
   2 -12  15    0.14    0.13
   2 -12  15    0.16    0.13
   3 -12  15    0.07    0.14
   3 -12  15    0.10    0.12
   4 -12  15    6.44    0.43
   4 -12  15    5.85    0.47
   5 -12  15    0.63    0.20
   6 -12  15    2.50    0.35
   7 -12  15    0.35    0.18
   8 -12  15    0.92    0.24
   9 -12  15    0.52    0.21
  10 -12  15    0.03    0.16
  11  11 -15    2.18    0.25
 -11 -11  15    1.69    0.27
  10  11 -15    3.41    0.30
 -10 -11  15    3.33    0.34
  -9 -11  15    0.44    0.15
  -8 -11  15    0.22    0.14
  -7 -11  15    0.23    0.14
  -6 -11  15   -0.07    0.10
  -5 -11  15    0.70    0.17
  -4 -11  15    1.07    0.20
  -3 -11  15    2.21    0.26
  -2 -11  15    0.41    0.14
  -1 -11  15    0.22    0.12
   0 -11  15    0.21    0.11
   1 -11  15    2.46    0.34
   1 -11  15    1.85    0.24
   2 -11  15    0.56    0.16
   2 -11  15    0.53    0.21
   3 -11  15   11.42    0.59
   3 -11  15   11.33    0.68
   4 -11  15    2.09    0.32
   5 -11  15    2.40    0.34
   6 -11  15    0.43    0.18
   7 -11  15    2.64    0.37
   8 -11  15   -0.05    0.12
   9 -11  15    0.63    0.20
  10 -11  15    0.24    0.20
  12  10 -15    4.06    0.35
 -12 -10  15    3.64    0.34
  11  10 -15    4.16    0.31
 -11 -10  15    3.53    0.33
  10  10 -15   -0.05    0.10
 -10 -10  15    0.03    0.12
  -9 -10  15    0.09    0.12
  -8 -10  15    0.01    0.11
  -7 -10  15    3.49    0.30
  -6 -10  15    0.59    0.16
  -5 -10  15    0.45    0.15
  -4 -10  15    3.37    0.29
  -3 -10  15    0.12    0.11
  -2 -10  15    5.42    0.36
  -1 -10  15    0.33    0.13
   0 -10  15    7.14    0.42
   1 -10  15    1.79    0.30
   1 -10  15    1.64    0.21
   2 -10  15    9.65    0.52
   2 -10  15   10.91    0.64
   3 -10  15    1.47    0.28
   3 -10  15    1.46    0.21
   4 -10  15   15.70    0.83
   5 -10  15    0.23    0.17
   6 -10  15    2.72    0.35
   7 -10  15    3.00    0.38
   8 -10  15    4.59    0.44
   9 -10  15    0.62    0.21
  10 -10  15    0.30    0.20
  11 -10  15    3.44    0.45
 -13  -9  15    1.56    0.25
  12   9 -15    0.03    0.11
 -12  -9  15    0.23    0.13
  11   9 -15    0.13    0.11
 -11  -9  15    0.01    0.11
  10   9 -15    1.67    0.21
 -10  -9  15    1.71    0.24
  -9  -9  15    0.30    0.14
  -8  -9  15    0.78    0.17
  -7  -9  15    4.31    0.33
  -6  -9  15    0.03    0.10
  -5  -9  15    0.32    0.12
  -4  -9  15    0.29    0.12
  -3  -9  15    0.48    0.13
  -2  -9  15    0.65    0.14
  -1  -9  15    5.15    0.34
   0  -9  15    4.52    0.31
   1  -9  15    0.27    0.11
   1  -9  15    0.37    0.15
   2  -9  15    4.31    0.39
   2  -9  15    4.29    0.30
   3  -9  15    7.03    0.41
   3  -9  15    7.19    0.50
   4  -9  15    0.10    0.13
   5  -9  15    0.03    0.13
   6  -9  15   -0.05    0.13
   7  -9  15    1.56    0.28
   8  -9  15    0.55    0.21
   9  -9  15    0.30    0.18
  10  -9  15    2.57    0.37
  11  -9  15    0.08    0.15
  11  -9  15    0.18    0.16
  13   8 -15    8.94    0.46
 -13  -8  15    9.59    0.53
  12   8 -15    0.41    0.14
 -12  -8  15    0.59    0.18
  11   8 -15    0.76    0.15
 -11  -8  15    0.65    0.16
  10   8 -15    1.62    0.20
 -10  -8  15    2.05    0.24
  -9  -8  15    3.38    0.29
  -8  -8  15    0.72    0.16
  -7  -8  15    2.05    0.23
  -6  -8  15    0.27    0.11
  -5  -8  15   -0.03    0.08
  -4  -8  15    0.78    0.15
  -3  -8  15    0.03    0.09
  -2  -8  15    0.54    0.13
  -1  -8  15    1.08    0.16
   0  -8  15    1.37    0.18
   1  -8  15    1.34    0.24
   1  -8  15    1.20    0.17
   2  -8  15    0.28    0.11
   2  -8  15    0.16    0.14
   3  -8  15    2.34    0.31
   3  -8  15    2.95    0.24
   4  -8  15    2.34    0.33
   5  -8  15    0.35    0.17
   6  -8  15    0.49    0.19
   7  -8  15    8.60    0.58
   8  -8  15    2.35    0.34
   9  -8  15    5.50    0.44
   9  -8  15    5.79    0.48
  10  -8  15   -0.05    0.15
  10  -8  15    0.18    0.16
  11  -8  15    0.56    0.20
  11  -8  15    0.39    0.21
  12  -8  15   -0.13    0.15
  14   7 -15    0.22    0.13
 -14  -7  15    0.24    0.15
  13   7 -15    1.20    0.18
 -13  -7  15    1.40    0.23
  12   7 -15   -0.09    0.10
 -12  -7  15   -0.02    0.11
  11   7 -15    5.52    0.34
 -11  -7  15    5.88    0.39
  10   7 -15    0.87    0.16
 -10  -7  15    0.63    0.14
  -9  -7  15    0.71    0.15
  -8  -7  15    0.62    0.14
  -7  -7  15   -0.04    0.08
  -6  -7  15    0.54    0.13
  -5  -7  15    0.56    0.12
  -4  -7  15    0.21    0.10
  -3  -7  15    1.33    0.17
  -2  -7  15    0.40    0.11
  -1  -7  15    2.78    0.22
   0  -7  15    0.06    0.07
   1  -7  15    2.75    0.22
   1  -7  15    3.13    0.36
   2  -7  15    0.25    0.10
   2  -7  15    0.35    0.17
   3  -7  15    4.16    0.27
   3  -7  15    4.22    0.39
   4  -7  15    1.30    0.24
   5  -7  15    1.96    0.29
   6  -7  15   -0.01    0.13
   7  -7  15    0.07    0.15
   8  -7  15    1.66    0.29
   8  -7  15    1.65    0.27
   9  -7  15    0.30    0.18
   9  -7  15    0.44    0.16
  10  -7  15    0.50    0.21
  10  -7  15    0.47    0.18
  11  -7  15    0.67    0.22
  11  -7  15    0.42    0.20
  12  -7  15   -0.14    0.16
  12  -7  15   -0.19    0.14
  14   6 -15    1.91    0.21
 -14  -6  15    1.44    0.24
  13   6 -15   -0.02    0.10
 -13  -6  15   -0.06    0.12
  12   6 -15   -0.07    0.10
 -12  -6  15    0.22    0.13
  11   6 -15    0.09    0.10
 -11  -6  15    0.10    0.11
  10   6 -15    1.05    0.16
 -10  -6  15    1.56    0.21
  -9  -6  15    0.13    0.10
  -8  -6  15    0.81    0.14
  -7  -6  15    1.60    0.19
  -6  -6  15    0.53    0.12
  -5  -6  15    2.67    0.21
  -4  -6  15    6.83    0.35
  -3  -6  15    1.39    0.16
  -2  -6  15    5.58    0.30
  -1  -6  15    7.44    0.36
   0  -6  15   23.82    0.86
   1  -6  15    0.76    0.21
   1  -6  15    0.73    0.12
   2  -6  15    0.69    0.12
   2  -6  15    0.63    0.19
   3  -6  15    2.45    0.32
   3  -6  15    2.36    0.19
   4  -6  15   12.10    0.68
   5  -6  15   -0.07    0.11
   6  -6  15    0.19    0.15
   7  -6  15    2.84    0.34
   7  -6  15    2.54    0.35
   8  -6  15    4.54    0.41
   8  -6  15    5.11    0.41
   9  -6  15    0.06    0.12
   9  -6  15    0.23    0.14
  10  -6  15    1.05    0.23
  10  -6  15    1.06    0.26
  11  -6  15    0.21    0.17
  11  -6  15    0.13    0.15
  12  -6  15    0.08    0.17
  12  -6  15    0.31    0.19
 -14  -5  15    2.38    0.28
  13   5 -15    0.40    0.14
 -13  -5  15    0.38    0.15
  12   5 -15    2.27    0.22
 -12  -5  15    1.87    0.24
  11   5 -15    4.45    0.28
 -11  -5  15    4.23    0.32
  10   5 -15    0.82    0.15
 -10  -5  15    0.94    0.16
  -9  -5  15    3.25    0.26
  -8  -5  15    0.11    0.08
  -7  -5  15    2.78    0.22
  -6  -5  15    0.80    0.12
  -5  -5  15    0.06    0.07
  -4  -5  15    4.68    0.26
  -3  -5  15    6.11    0.31
  -2  -5  15    0.99    0.13
  -1  -5  15   13.95    0.54
   0  -5  15    4.95    0.26
   1  -5  15    2.03    0.16
   1  -5  15    2.07    0.28
   2  -5  15    0.87    0.11
   2  -5  15    0.79    0.21
   3  -5  15    2.04    0.16
   3  -5  15    2.12    0.30
   4  -5  15    2.57    0.33
   4  -5  15    2.44    0.18
   5  -5  15    0.26    0.15
   6  -5  15    0.03    0.13
   6  -5  15    0.14    0.11
   7  -5  15    0.30    0.16
   7  -5  15    0.10    0.14
   8  -5  15    2.34    0.33
   8  -5  15    3.01    0.35
   9  -5  15    0.28    0.17
   9  -5  15    0.36    0.17
  10  -5  15    0.42    0.19
  10  -5  15    0.42    0.20
  11  -5  15    0.79    0.24
  11  -5  15    0.69    0.21
  12  -5  15    0.34    0.20
 -14  -4  15    1.69    0.24
 -13  -4  15    2.49    0.27
 -12  -4  15    0.01    0.11
  11   4 -15    2.28    0.21
 -11  -4  15    2.19    0.24
  10   4 -15    0.41    0.12
 -10  -4  15    0.23    0.10
  -9  -4  15    1.21    0.17
  -8  -4  15    1.74    0.19
  -7  -4  15    0.24    0.09
  -6  -4  15    0.02    0.06
  -5  -4  15   -0.03    0.06
  -4  -4  15    2.46    0.17
  -3  -4  15    0.90    0.11
  -2  -4  15    0.04    0.06
  -1  -4  15    5.99    0.27
   0  -4  15    1.62    0.13
   0  -4  15    1.52    0.14
   1  -4  15    0.49    0.08
   1  -4  15    0.27    0.07
   1  -4  15    0.31    0.15
   2  -4  15    1.22    0.11
   2  -4  15    1.26    0.11
   2  -4  15    1.23    0.23
   3  -4  15    0.38    0.07
   3  -4  15    0.38    0.07
   3  -4  15    0.29    0.14
   4  -4  15    0.28    0.15
   4  -4  15    0.23    0.06
   4  -4  15    0.29    0.05
   5  -4  15    0.00    0.12
   6  -4  15    0.45    0.18
   6  -4  15    0.64    0.18
   7  -4  15    6.11    0.47
   7  -4  15    5.79    0.42
   8  -4  15    0.76    0.19
   8  -4  15    1.19    0.25
   9  -4  15    4.31    0.40
   9  -4  15    4.48    0.42
  10  -4  15    1.85    0.31
  10  -4  15    1.39    0.27
  11  -4  15    1.46    0.30
  11  -4  15    1.20    0.26
  12  -4  15    0.27    0.20
 -13  -3  15    2.12    0.26
 -12  -3  15    2.30    0.25
 -11  -3  15    1.90    0.22
 -10  -3  15   -0.10    0.08
  -9  -3  15    0.69    0.13
  -8  -3  15    2.14    0.19
  -7  -3  15    0.01    0.07
  -6  -3  15    0.14    0.07
  -5  -3  15    2.41    0.17
  -4  -3  15    0.83    0.11
  -3  -3  15    0.07    0.05
  -2  -3  15    0.47    0.07
  -1  -3  15    3.05    0.16
   0  -3  15    0.28    0.05
   0  -3  15    0.24    0.07
   1  -3  15    3.33    0.16
   1  -3  15    2.92    0.15
   2  -3  15    0.40    0.06
   2  -3  15    0.49    0.18
   2  -3  15    0.28    0.05
   3  -3  15    0.75    0.06
   3  -3  15    0.81    0.20
   3  -3  15    0.73    0.07
   4  -3  15    1.70    0.27
   4  -3  15    1.70    0.11
   4  -3  15    1.59    0.09
   5  -3  15    3.21    0.34
   5  -3  15    2.59    0.33
   5  -3  15    2.79    0.13
   6  -3  15    0.17    0.14
   6  -3  15    0.25    0.14
   6  -3  15    0.35    0.05
   7  -3  15    0.56    0.17
   7  -3  15    0.69    0.20
   8  -3  15    0.70    0.20
   8  -3  15    1.01    0.21
   9  -3  15    0.63    0.20
   9  -3  15    0.58    0.19
  10  -3  15    1.89    0.31
  10  -3  15    1.19    0.25
  11  -3  15    0.06    0.17
  11  -3  15    0.08    0.14
  12  -3  15    0.05    0.18
 -13  -2  15   -0.11    0.10
 -12  -2  15    2.88    0.27
 -11  -2  15    1.18    0.18
 -10  -2  15    0.32    0.12
  -9  -2  15    1.53    0.17
  -8  -2  15    4.05    0.25
  -7  -2  15    3.06    0.21
  -6  -2  15    2.41    0.17
  -5  -2  15    3.43    0.20
  -4  -2  15    7.00    0.30
  -3  -2  15    7.47    0.30
  -2  -2  15   17.58    0.60
  -1  -2  15    4.20    0.18
   0  -2  15   12.76    0.43
   0  -2  15   11.23    0.40
   2  -2  15    7.32    0.48
   3  -2  15    0.70    0.19
   4  -2  15    6.82    0.47
   5  -2  15    0.10    0.13
   5  -2  15    0.19    0.12
   6  -2  15    2.73    0.31
   6  -2  15    2.55    0.32
   7  -2  15    0.30    0.14
   7  -2  15   -0.02    0.12
   8  -2  15    0.75    0.20
   8  -2  15    0.96    0.22
   9  -2  15    0.12    0.15
   9  -2  15    0.20    0.15
  10  -2  15   -0.16    0.12
  10  -2  15    0.00    0.13
  11  -2  15    0.01    0.15
  11  -2  15    0.11    0.16
  12  -2  15    0.12    0.18
 -13  -1  15    0.37    0.14
 -12  -1  15    0.32    0.13
 -11  -1  15    5.11    0.33
 -10  -1  15    3.93    0.28
  -9  -1  15    0.11    0.09
  -8  -1  15    0.86    0.13
  -7  -1  15    0.14    0.07
  -6  -1  15    0.07    0.06
  -5  -1  15    0.25    0.07
  -4  -1  15    0.09    0.05
  -3  -1  15    4.81    0.22
  -2  -1  15    2.78    0.15
  -1  -1  15    1.20    0.09
   3  -1  15    4.10    0.36
   4  -1  15    0.37    0.15
   4  -1  15    0.13    0.12
   5  -1  15    4.76    0.39
   5  -1  15    4.76    0.37
   6  -1  15    0.06    0.12
   6  -1  15    0.05    0.11
   7  -1  15    2.43    0.31
   7  -1  15    3.12    0.33
   8  -1  15    8.21    0.54
   8  -1  15    7.63    0.51
   9  -1  15    0.49    0.18
   9  -1  15    0.34    0.18
  10  -1  15    0.33    0.17
  10  -1  15    0.23    0.17
  11  -1  15    0.81    0.23
  11  -1  15    1.02    0.25
 -12   0  15   -0.12    0.09
 -11   0  15    0.02    0.10
 -10   0  15    0.61    0.14
  -9   0  15    0.71    0.13
  -8   0  15    0.01    0.08
  -7   0  15    4.23    0.25
  -6   0  15   -0.04    0.05
  -5   0  15    0.22    0.07
  -4   0  15    5.60    0.26
  -3   0  15    3.73    0.19
  -2   0  15    1.03    0.09
  -1   0  15    2.13    0.11
   3   0  15    4.46    0.37
   4   0  15    0.44    0.17
   4   0  15    0.54    0.17
   5   0  15    0.82    0.18
   5   0  15    0.91    0.20
   6   0  15    2.06    0.28
   6   0  15    2.17    0.29
   7   0  15    9.70    0.59
   7   0  15   10.58    0.59
   8   0  15    4.90    0.43
   8   0  15    5.36    0.42
   9   0  15    6.99    0.51
   9   0  15    7.34    0.50
  10   0  15    0.73    0.22
  11   0  15    4.27    0.50
 -12   1  15    0.60    0.16
 -11   1  15    2.26    0.25
 -10   1  15    0.48    0.13
  -9   1  15    1.21    0.17
  -8   1  15    2.27    0.21
  -7   1  15    0.91    0.13
  -6   1  15    2.34    0.18
  -5   1  15    1.51    0.14
  -4   1  15    1.59    0.14
  -3   1  15    2.53    0.16
  -2   1  15    0.36    0.07
  -1   1  15    4.20    0.18
   4   1  15   -0.13    0.10
   4   1  15    0.16    0.12
   4   1  15   -0.05    0.10
   5   1  15    0.10    0.11
   5   1  15    0.38    0.16
   5   1  15    0.02    0.11
   6   1  15    1.84    0.27
   6   1  15    1.40    0.23
   6   1  15    1.52    0.25
   7   1  15    3.25    0.36
   7   1  15    3.01    0.34
   8   1  15    2.82    0.33
   8   1  15    2.66    0.34
   9   1  15    0.57    0.19
   9   1  15    0.42    0.18
  10   1  15    3.61    0.41
  10   1  15    3.64    0.40
 -11   2  15    0.05    0.10
 -10   2  15    3.96    0.30
  -9   2  15    1.48    0.19
  -8   2  15    0.16    0.09
  -7   2  15    0.26    0.09
  -6   2  15    0.30    0.09
  -5   2  15    0.59    0.10
  -4   2  15    4.50    0.24
  -3   2  15    1.99    0.15
  -2   2  15    4.52    0.22
   2   2  15    2.37    0.25
   3   2  15    5.15    0.38
   4   2  15    0.91    0.20
   4   2  15    1.19    0.21
   5   2  15    0.65    0.17
   5   2  15    0.41    0.16
   6   2  15   -0.15    0.12
   6   2  15   -0.03    0.12
   7   2  15    3.14    0.35
   7   2  15    2.98    0.36
   8   2  15    0.27    0.17
   8   2  15    0.29    0.16
   9   2  15    0.72    0.22
   9   2  15    1.14    0.26
  10   2  15    0.04    0.16
 -10   3  15    0.18    0.12
  -9   3  15    0.87    0.16
  -8   3  15    1.46    0.19
  -7   3  15    0.43    0.11
  -6   3  15    1.28    0.16
  -5   3  15    0.46    0.10
  -4   3  15    0.56    0.10
  -3   3  15    5.37    0.27
  -2   3  15    4.48    0.23
  -1   3  15    2.36    0.14
   2   3  15    4.23    0.34
   3   3  15    0.28    0.13
   4   3  15    0.91    0.20
   5   3  15    0.32    0.15
   6   3  15    0.63    0.20
   6   3  15    0.87    0.20
   7   3  15    1.09    0.23
   7   3  15    0.85    0.22
   8   3  15    1.78    0.27
   8   3  15    1.79    0.30
   9   3  15    0.05    0.16
  -9   4  15    1.53    0.22
  -8   4  15    0.04    0.10
  -7   4  15    3.25    0.25
  -6   4  15    0.02    0.08
  -5   4  15    1.01    0.15
  -4   4  15    4.75    0.28
  -3   4  15    5.10    0.27
  -2   4  15    2.95    0.19
  -1   4  15    4.84    0.22
   3   4  15    6.43    0.44
   4   4  15    0.17    0.13
   5   4  15    0.07    0.12
   6   4  15    0.17    0.14
   7   4  15    0.92    0.22
   8   4  15    3.57    0.39
  -8   5  15    0.34    0.13
  -7   5  15    0.05    0.09
  -6   5  15    0.21    0.11
  -5   5  15    0.42    0.12
  -4   5  15    4.83    0.29
  -3   5  15    1.28    0.15
  -2   5  15    2.20    0.18
   4   5  15    1.94    0.29
   5   5  15    0.18    0.15
   6   5  15    0.12    0.16
   7   5  15    1.55    0.30
  -6   6  15    0.22    0.11
  -5   6  15    0.85    0.16
  -4   6  15    0.19    0.10
  -3   6  15    1.08    0.15
  -2   6  15    2.43    0.20
   5   6  15    0.65    0.21
   6   6  15    0.13    0.17
  -3   7  15    4.10    0.28
  -2   7  15    0.79    0.14
  -3 -17  16    0.05    0.16
  -2 -17  16    1.15    0.26
  -1 -17  16    0.01    0.17
   0 -17  16    0.56    0.23
   1 -17  16    0.17    0.19
   2 -17  16    1.65    0.30
   3 -17  16    0.46    0.21
   3 -17  16    0.36    0.20
   4 -17  16    0.07    0.17
  -5 -16  16    0.11    0.17
  -4 -16  16    1.38    0.27
  -3 -16  16    0.04    0.15
  -2 -16  16    0.06    0.15
  -1 -16  16    1.07    0.26
   0 -16  16    0.13    0.16
   1 -16  16    0.22    0.17
   2 -16  16    0.23    0.17
   3 -16  16    0.29    0.19
   3 -16  16   -0.05    0.15
   4 -16  16    0.27    0.18
   4 -16  16    0.40    0.19
   5 -16  16    0.13    0.16
   5 -16  16    0.31    0.20
  -7 -15  16    0.15    0.17
  -6 -15  16    0.50    0.19
  -5 -15  16    1.26    0.25
  -4 -15  16    0.18    0.16
  -3 -15  16    0.28    0.17
  -2 -15  16   10.78    0.63
  -1 -15  16    0.28    0.19
   0 -15  16    2.94    0.36
   1 -15  16    0.25    0.17
   2 -15  16   -0.15    0.12
   2 -15  16    0.09    0.16
   3 -15  16   -0.10    0.14
   3 -15  16    0.11    0.16
   4 -15  16    0.75    0.23
   4 -15  16    0.17    0.16
   5 -15  16    0.15    0.15
   5 -15  16    0.40    0.20
   6 -15  16    0.18    0.14
   6 -15  16   -0.10    0.15
  -8 -14  16    5.51    0.46
  -7 -14  16    5.27    0.43
  -6 -14  16    0.32    0.17
  -5 -14  16    1.30    0.25
  -4 -14  16    0.45    0.20
  -3 -14  16   12.11    0.66
  -2 -14  16    3.80    0.36
  -1 -14  16    5.00    0.42
   0 -14  16    0.02    0.13
   1 -14  16    4.25    0.38
   2 -14  16    0.37    0.19
   2 -14  16    0.32    0.16
   3 -14  16    0.72    0.19
   3 -14  16    0.51    0.20
   4 -14  16    0.87    0.21
   4 -14  16    0.80    0.24
   5 -14  16    2.05    0.34
   5 -14  16    2.15    0.30
   6 -14  16    4.28    0.44
   7 -14  16    0.23    0.18
  -9 -13  16   14.01    0.72
  -8 -13  16    9.93    0.59
  -7 -13  16    0.31    0.17
  -6 -13  16    1.39    0.24
  -5 -13  16    2.43    0.30
  -4 -13  16    4.77    0.40
  -3 -13  16    0.62    0.18
  -2 -13  16    1.52    0.24
  -1 -13  16    0.75    0.20
   0 -13  16    1.71    0.26
   1 -13  16    0.27    0.15
   2 -13  16    1.83    0.30
   2 -13  16    1.60    0.25
   3 -13  16    0.33    0.16
   3 -13  16    0.35    0.18
   4 -13  16    0.50    0.18
   4 -13  16    0.42    0.19
   5 -13  16    0.80    0.24
   5 -13  16    1.15    0.22
   6 -13  16    0.10    0.15
   7 -13  16    2.74    0.39
   8 -13  16    0.25    0.18
 -10 -12  16    1.07    0.23
  -9 -12  16    1.25    0.23
  -8 -12  16    0.56    0.19
  -7 -12  16    0.74    0.19
  -6 -12  16    0.00    0.11
  -5 -12  16    0.22    0.14
  -4 -12  16    0.62    0.18
  -3 -12  16   -0.11    0.10
  -2 -12  16    0.00    0.11
  -1 -12  16   -0.07    0.10
   0 -12  16    0.47    0.16
   1 -12  16    0.30    0.16
   1 -12  16    0.25    0.14
   2 -12  16    0.51    0.16
   2 -12  16    0.70    0.22
   3 -12  16    0.46    0.18
   3 -12  16    0.21    0.14
   4 -12  16    0.15    0.14
   4 -12  16    0.11    0.13
   5 -12  16    0.02    0.14
   6 -12  16    2.75    0.38
   7 -12  16    0.18    0.17
   8 -12  16    5.15    0.49
   9 -12  16    0.48    0.22
 -11 -11  16    0.04    0.14
  10  11 -16    0.45    0.16
 -10 -11  16    0.32    0.17
  -9 -11  16    0.22    0.14
  -8 -11  16   -0.14    0.11
  -7 -11  16    0.84    0.19
  -6 -11  16   -0.03    0.11
  -5 -11  16   -0.15    0.09
  -4 -11  16    0.42    0.15
  -3 -11  16    1.65    0.23
  -2 -11  16    3.47    0.30
  -1 -11  16    0.83    0.17
   0 -11  16    4.98    0.36
   1 -11  16    0.09    0.14
   1 -11  16    0.03    0.10
   2 -11  16    0.18    0.12
   2 -11  16    0.11    0.14
   3 -11  16    0.05    0.11
   3 -11  16    0.22    0.17
   4 -11  16    2.24    0.34
   4 -11  16    1.74    0.24
   5 -11  16    0.40    0.19
   6 -11  16    0.73    0.21
   7 -11  16    0.74    0.23
   8 -11  16    1.30    0.29
   9 -11  16    2.15    0.36
  11  10 -16    0.28    0.14
 -11 -10  16    0.24    0.15
  10  10 -16    2.51    0.27
 -10 -10  16    2.41    0.29
  -9 -10  16    0.39    0.15
  -8 -10  16    6.92    0.43
  -7 -10  16    1.58    0.24
  -6 -10  16    1.30    0.21
  -5 -10  16    3.92    0.32
  -4 -10  16   10.70    0.55
  -3 -10  16   16.30    0.72
  -2 -10  16    1.57    0.21
  -1 -10  16    8.36    0.46
   0 -10  16    2.59    0.26
   1 -10  16    9.81    0.62
   1 -10  16    9.66    0.51
   2 -10  16    1.19    0.19
   2 -10  16    0.90    0.24
   3 -10  16    2.68    0.27
   3 -10  16    2.58    0.35
   4 -10  16    0.21    0.15
   4 -10  16    0.26    0.12
   5 -10  16    1.07    0.25
   6 -10  16    4.96    0.46
   7 -10  16    0.41    0.19
   8 -10  16    0.64    0.23
   9 -10  16    0.68    0.24
  10 -10  16    2.52    0.38
 -12  -9  16   -0.03    0.13
  11   9 -16    4.52    0.33
 -11  -9  16    4.35    0.35
  10   9 -16    0.41    0.13
 -10  -9  16    0.25    0.13
  -9  -9  16   13.35    0.64
  -8  -9  16    1.31    0.21
  -7  -9  16    2.20    0.25
  -6  -9  16    7.87    0.44
  -5  -9  16    3.42    0.29
  -4  -9  16    2.87    0.26
  -3  -9  16    3.75    0.29
  -2  -9  16    9.34    0.48
  -1  -9  16    0.44    0.13
   0  -9  16    3.59    0.28
   1  -9  16   -0.01    0.15
   1  -9  16    0.10    0.09
   2  -9  16    5.03    0.33
   2  -9  16    5.56    0.45
   3  -9  16    0.68    0.22
   3  -9  16    0.58    0.14
   4  -9  16    0.83    0.16
   4  -9  16    1.25    0.26
   5  -9  16    4.94    0.44
   6  -9  16    0.39    0.18
   7  -9  16   10.29    0.66
   8  -9  16    1.93    0.33
   9  -9  16    5.52    0.50
  10  -9  16   -0.10    0.15
  12   8 -16    6.52    0.39
 -12  -8  16    6.24    0.43
  11   8 -16    7.04    0.40
 -11  -8  16    6.05    0.41
  10   8 -16    2.57    0.25
 -10  -8  16    2.23    0.26
  -9  -8  16    0.94    0.17
  -8  -8  16    1.19    0.19
  -7  -8  16    0.29    0.12
  -6  -8  16    4.58    0.32
  -5  -8  16    3.93    0.29
  -4  -8  16    0.71    0.14
  -3  -8  16    7.10    0.39
  -2  -8  16    0.19    0.10
  -1  -8  16    9.62    0.46
   0  -8  16    0.88    0.15
   1  -8  16    5.57    0.33
   1  -8  16    5.52    0.45
   2  -8  16    5.21    0.32
   2  -8  16    5.77    0.46
   3  -8  16   -0.02    0.08
   3  -8  16    0.31    0.17
   4  -8  16   10.40    0.65
   4  -8  16   10.58    0.50
   5  -8  16    0.36    0.16
   6  -8  16    7.48    0.55
   7  -8  16    0.48    0.19
   8  -8  16   12.20    0.73
   9  -8  16    0.11    0.16
  10  -8  16   12.84    0.79
  10  -8  16   13.25    0.73
  13   7 -16    0.38    0.14
  12   7 -16    0.11    0.11
 -12  -7  16   -0.13    0.12
  11   7 -16    3.20    0.27
 -11  -7  16    3.44    0.31
  10   7 -16    5.15    0.33
 -10  -7  16    4.32    0.33
  -9  -7  16    0.03    0.09
  -8  -7  16    0.16    0.10
  -7  -7  16    0.46    0.13
  -6  -7  16    2.12    0.21
  -5  -7  16    0.91    0.15
  -4  -7  16    0.24    0.10
  -3  -7  16    0.12    0.09
  -2  -7  16    0.18    0.09
  -1  -7  16    0.28    0.10
   0  -7  16    1.79    0.18
   1  -7  16    5.46    0.31
   1  -7  16    6.11    0.47
   2  -7  16    3.59    0.24
   2  -7  16    3.15    0.38
   3  -7  16   -0.04    0.13
   3  -7  16   -0.08    0.07
   4  -7  16    1.65    0.28
   4  -7  16    1.72    0.19
   5  -7  16    6.07    0.49
   6  -7  16    0.30    0.17
   7  -7  16    2.31    0.35
   8  -7  16    0.05    0.16
   9  -7  16    8.94    0.57
   9  -7  16    8.26    0.60
  10  -7  16    0.33    0.17
  10  -7  16    0.31    0.20
  11  -7  16    0.02    0.17
  12   6 -16   -0.09    0.10
 -12  -6  16    0.04    0.12
  11   6 -16    2.74    0.25
 -11  -6  16    2.40    0.26
  10   6 -16    1.24    0.18
 -10  -6  16    1.02    0.18
  -9  -6  16    0.25    0.11
  -8  -6  16    9.18    0.45
  -7  -6  16    1.44    0.18
  -6  -6  16    0.72    0.13
  -5  -6  16    2.01    0.19
  -4  -6  16    9.20    0.42
  -3  -6  16    9.53    0.43
  -2  -6  16    0.12    0.08
  -1  -6  16    7.09    0.35
   0  -6  16    4.62    0.26
   1  -6  16    0.19    0.16
   1  -6  16    0.12    0.07
   2  -6  16    0.22    0.08
   2  -6  16    0.32    0.16
   3  -6  16    1.60    0.28
   3  -6  16    1.05    0.14
   4  -6  16    0.16    0.08
   4  -6  16    0.17    0.15
   5  -6  16    0.60    0.20
   6  -6  16    0.16    0.15
   7  -6  16    0.73    0.22
   8  -6  16    0.08    0.14
   8  -6  16    0.09    0.17
   9  -6  16    0.15    0.17
   9  -6  16    0.16    0.15
  10  -6  16    0.52    0.22
  10  -6  16    0.58    0.22
  11  -6  16    0.14    0.17
 -12  -5  16    0.06    0.11
  11   5 -16    1.83    0.20
 -11  -5  16    1.46    0.20
  10   5 -16    0.42    0.13
 -10  -5  16    0.30    0.13
  -9  -5  16   19.61    0.78
  -8  -5  16    1.04    0.16
  -7  -5  16    4.21    0.27
  -6  -5  16    2.92    0.21
  -5  -5  16    7.59    0.36
  -4  -5  16    7.14    0.34
  -3  -5  16    1.38    0.15
  -2  -5  16   10.40    0.43
  -1  -5  16    3.85    0.22
   0  -5  16   13.09    0.51
   1  -5  16    6.92    0.31
   2  -5  16    1.38    0.13
   2  -5  16    1.23    0.26
   3  -5  16    2.31    0.32
   3  -5  16    2.68    0.18
   4  -5  16    0.22    0.15
   4  -5  16    0.10    0.06
   5  -5  16    3.19    0.20
   5  -5  16    2.85    0.36
   6  -5  16    0.98    0.23
   7  -5  16    2.80    0.33
   7  -5  16    3.53    0.36
   8  -5  16    0.08    0.13
   8  -5  16    0.19    0.17
   9  -5  16    1.57    0.28
   9  -5  16    1.64    0.30
  10  -5  16    2.25    0.32
  10  -5  16    2.04    0.34
  11  -5  16    5.98    0.53
 -12  -4  16    6.80    0.40
 -11  -4  16    2.94    0.26
 -10  -4  16   13.76    0.60
  -9  -4  16    1.19    0.17
  -8  -4  16    5.55    0.32
  -7  -4  16    0.51    0.11
  -6  -4  16    6.97    0.34
  -5  -4  16    5.55    0.28
  -4  -4  16    0.63    0.10
  -3  -4  16    5.94    0.28
  -2  -4  16    0.09    0.06
  -1  -4  16    3.37    0.18
   0  -4  16    0.67    0.09
   1  -4  16    3.83    0.19
   1  -4  16    4.35    0.22
   2  -4  16    0.59    0.08
   2  -4  16    0.81    0.21
   2  -4  16    0.68    0.08
   3  -4  16    3.89    0.19
   3  -4  16    3.94    0.38
   3  -4  16    3.80    0.17
   4  -4  16    4.07    0.18
   4  -4  16    4.05    0.20
   4  -4  16    4.23    0.38
   5  -4  16    0.16    0.06
   5  -4  16    0.11    0.13
   6  -4  16    8.61    0.57
   7  -4  16    0.43    0.16
   7  -4  16    0.40    0.17
   8  -4  16    5.45    0.46
   8  -4  16    4.94    0.42
   9  -4  16    1.02    0.25
   9  -4  16    0.73    0.20
  10  -4  16   15.84    0.88
  10  -4  16   16.32    0.83
  11  -4  16    2.72    0.40
 -12  -3  16    0.68    0.16
 -11  -3  16    3.63    0.29
 -10  -3  16    0.19    0.10
  -9  -3  16    7.18    0.37
  -8  -3  16    1.31    0.16
  -7  -3  16    1.26    0.15
  -6  -3  16    0.85    0.12
  -5  -3  16    0.65    0.10
  -4  -3  16    1.19    0.12
  -3  -3  16    3.67    0.19
  -2  -3  16    0.23    0.06
  -1  -3  16    0.29    0.06
   0  -3  16    0.30    0.05
   0  -3  16    0.27    0.07
   1  -3  16    0.13    0.04
   1  -3  16    0.15    0.05
   2  -3  16    0.58    0.19
   3  -3  16    0.31    0.14
   4  -3  16    0.55    0.18
   5  -3  16    3.57    0.36
   6  -3  16    1.03    0.23
   6  -3  16    0.69    0.20
   7  -3  16    1.49    0.27
   7  -3  16    1.20    0.23
   8  -3  16    0.09    0.13
   8  -3  16   -0.03    0.14
   9  -3  16    2.01    0.30
   9  -3  16    2.24    0.34
  10  -3  16    0.17    0.18
  10  -3  16    0.29    0.18
  11  -3  16    0.83    0.24
 -12  -2  16    0.82    0.17
 -11  -2  16    0.80    0.16
 -10  -2  16    0.24    0.11
  -9  -2  16    1.91    0.20
  -8  -2  16    7.12    0.36
  -7  -2  16    0.73    0.12
  -6  -2  16    1.05    0.12
  -5  -2  16    0.10    0.06
  -4  -2  16    7.45    0.32
  -3  -2  16    1.94    0.13
  -2  -2  16    6.03    0.25
  -1  -2  16    7.54    0.28
   0  -2  16    5.95    0.22
   3  -2  16    0.89    0.23
   4  -2  16    0.08    0.13
   5  -2  16    0.62    0.18
   6  -2  16    0.04    0.13
   6  -2  16   -0.09    0.11
   7  -2  16    2.41    0.31
   7  -2  16    2.59    0.34
   8  -2  16    0.03    0.14
   8  -2  16   -0.05    0.11
   9  -2  16    0.19    0.17
   9  -2  16    0.37    0.17
  10  -2  16    1.77    0.32
  10  -2  16    1.86    0.31
  11  -2  16    0.67    0.25
 -11  -1  16    5.28    0.34
 -10  -1  16    2.67    0.24
  -9  -1  16    1.66    0.19
  -8  -1  16    0.46    0.11
  -7  -1  16    7.96    0.37
  -6  -1  16    0.29    0.08
  -5  -1  16    1.76    0.15
  -4  -1  16    2.70    0.17
  -3  -1  16    4.64    0.22
  -2  -1  16    1.59    0.11
  -1  -1  16    5.67    0.22
   4  -1  16    0.92    0.21
   5  -1  16    1.63    0.25
   5  -1  16    1.72    0.27
   6  -1  16    0.01    0.13
   6  -1  16   -0.03    0.11
   7  -1  16    7.55    0.50
   7  -1  16    7.68    0.53
   8  -1  16    1.38    0.27
   8  -1  16    1.17    0.23
   9  -1  16    4.47    0.43
   9  -1  16    4.00    0.43
  10  -1  16    0.19    0.18
  10  -1  16    0.18    0.17
 -11   0  16    0.81    0.16
 -10   0  16   16.86    0.70
  -9   0  16    1.15    0.16
  -8   0  16   12.14    0.52
  -7   0  16    1.19    0.15
  -6   0  16    4.03    0.24
  -5   0  16    4.03    0.23
  -4   0  16    2.80    0.18
  -3   0  16    1.55    0.12
  -2   0  16   -0.01    0.04
   4   0  16    1.85    0.27
   5   0  16    1.18    0.23
   5   0  16    0.74    0.19
   6   0  16   15.45    0.79
   6   0  16   15.09    0.74
   7   0  16    0.26    0.15
   7   0  16    0.27    0.17
   8   0  16    6.51    0.48
   9   0  16   -0.17    0.15
 -10   1  16    0.27    0.12
  -9   1  16    1.25    0.18
  -8   1  16    0.06    0.08
  -7   1  16    1.95    0.19
  -6   1  16    0.37    0.09
  -5   1  16    0.29    0.08
  -4   1  16    0.18    0.07
  -3   1  16    4.06    0.21
  -2   1  16    0.19    0.05
   5   1  16    2.69    0.32
   6   1  16    1.96    0.28
   7   1  16    4.65    0.40
   8   1  16    0.89    0.23
   9   1  16    5.35    0.46
  -9   2  16    0.24    0.10
  -8   2  16    0.90    0.15
  -7   2  16    0.96    0.14
  -6   2  16    1.76    0.17
  -5   2  16    0.35    0.09
  -4   2  16    0.11    0.07
  -3   2  16    0.60    0.09
  -2   2  16    4.33    0.21
   4   2  16    0.84    0.20
   5   2  16    0.56    0.18
   5   2  16    0.76    0.18
   6   2  16    1.83    0.27
   6   2  16    1.73    0.28
   7   2  16    0.29    0.17
   7   2  16    0.26    0.15
   8   2  16    0.36    0.18
   8   2  16    0.02    0.16
   9   2  16   -0.09    0.15
  -8   3  16    0.33    0.11
  -7   3  16    4.72    0.30
  -6   3  16    0.16    0.09
  -5   3  16    1.27    0.16
  -4   3  16    6.77    0.33
  -3   3  16    1.03    0.12
  -2   3  16    0.03    0.05
   4   3  16   -0.05    0.11
   5   3  16    2.38    0.31
   6   3  16    0.43    0.18
   7   3  16    2.62    0.36
  -7   4  16    0.24    0.11
  -6   4  16    9.13    0.45
  -5   4  16   10.21    0.47
  -4   4  16    1.81    0.18
  -3   4  16    0.08    0.07
  -2   4  16    0.10    0.06
   5   4  16    1.38    0.26
   6   4  16    4.47    0.41
  -5   5  16    4.35    0.29
  -4   5  16    1.21    0.16
  -3   5  16    1.50    0.16
  -2   5  16    0.48    0.09
  -3   6  16    0.27    0.11
  -3 -16  17    0.26    0.20
  -2 -16  17    0.08    0.15
  -1 -16  17    3.37    0.40
   0 -16  17    0.59    0.22
   1 -16  17    3.23    0.39
   2 -16  17    0.41    0.21
   3 -16  17    4.18    0.55
  -5 -15  17    1.79    0.29
  -4 -15  17    0.99    0.24
  -3 -15  17   -0.10    0.15
  -2 -15  17    0.76    0.21
  -1 -15  17    2.52    0.33
   0 -15  17    1.24    0.25
   1 -15  17    0.25    0.17
   2 -15  17    0.29    0.16
   3 -15  17    1.12    0.29
   3 -15  17    1.21    0.25
   4 -15  17    0.01    0.14
   4 -15  17   -0.20    0.15
  -7 -14  17    3.61    0.40
  -6 -14  17    2.64    0.33
  -5 -14  17    0.17    0.15
  -4 -14  17    0.95    0.22
  -3 -14  17    0.44    0.18
  -2 -14  17    0.17    0.15
  -1 -14  17    1.04    0.22
   0 -14  17    0.95    0.22
   1 -14  17    0.59    0.18
   2 -14  17    0.09    0.13
   2 -14  17    0.14    0.15
   3 -14  17    1.97    0.29
   3 -14  17    2.18    0.34
   4 -14  17    2.20    0.36
   4 -14  17    1.91    0.31
   5 -14  17    0.12    0.14
   5 -14  17    0.04    0.15
  -8 -13  17    1.67    0.28
  -7 -13  17    0.83    0.22
  -6 -13  17    0.11    0.13
  -5 -13  17    0.16    0.15
  -4 -13  17    0.00    0.12
  -3 -13  17   -0.12    0.12
  -2 -13  17    0.10    0.12
  -1 -13  17    0.09    0.13
   0 -13  17    6.60    0.45
   1 -13  17    1.34    0.24
   2 -13  17    2.03    0.34
   2 -13  17    2.38    0.29
   3 -13  17   -0.15    0.14
   3 -13  17   -0.05    0.12
   4 -13  17    3.46    0.44
   4 -13  17    3.31    0.34
   5 -13  17    2.23    0.36
   5 -13  17    2.54    0.32
   6 -13  17    0.39    0.15
   6 -13  17    0.48    0.22
  -9 -12  17    1.80    0.31
  -8 -12  17    0.00    0.14
  -7 -12  17    0.23    0.15
  -6 -12  17   -0.04    0.13
  -5 -12  17    0.27    0.15
  -4 -12  17    0.22    0.14
  -3 -12  17    0.30    0.15
  -2 -12  17    0.11    0.12
  -1 -12  17   10.67    0.58
   0 -12  17   -0.09    0.12
   1 -12  17    6.51    0.43
   2 -12  17    0.05    0.11
   2 -12  17   -0.07    0.13
   3 -12  17    5.25    0.48
   3 -12  17    4.57    0.37
   4 -12  17    0.00    0.13
   4 -12  17   -0.07    0.11
   5 -12  17    6.11    0.53
   5 -12  17    5.84    0.42
   6 -12  17    0.22    0.17
   7 -12  17    0.69    0.24
  -9 -11  17    0.57    0.18
  -8 -11  17   -0.04    0.11
  -7 -11  17   -0.03    0.12
  -6 -11  17    1.24    0.22
  -5 -11  17    1.05    0.20
  -4 -11  17    0.36    0.15
  -3 -11  17    0.45    0.16
  -2 -11  17    1.80    0.24
  -1 -11  17    3.44    0.30
   0 -11  17    2.65    0.29
   1 -11  17    0.16    0.12
   2 -11  17    0.10    0.16
   2 -11  17    0.12    0.11
   3 -11  17    0.05    0.17
   3 -11  17    0.05    0.11
   4 -11  17   -0.05    0.10
   4 -11  17    0.14    0.16
   5 -11  17    4.42    0.35
   5 -11  17    4.73    0.46
   6 -11  17    0.13    0.17
   7 -11  17    0.11    0.17
   8 -11  17    0.73    0.23
 -10 -10  17    4.73    0.37
  -9 -10  17   -0.10    0.11
  -8 -10  17   -0.03    0.10
  -7 -10  17    7.18    0.44
  -6 -10  17    8.04    0.47
  -5 -10  17    1.11    0.19
  -4 -10  17    0.23    0.12
  -3 -10  17    5.11    0.35
  -2 -10  17    0.92    0.18
  -1 -10  17    0.01    0.09
   0 -10  17    0.45    0.13
   1 -10  17    1.05    0.18
   2 -10  17    0.51    0.20
   2 -10  17    0.49    0.14
   3 -10  17    0.72    0.22
   3 -10  17    0.79    0.17
   4 -10  17    0.65    0.16
   4 -10  17    0.45    0.21
   5 -10  17    1.04    0.24
   5 -10  17    1.57    0.22
   6 -10  17    2.41    0.36
   7 -10  17    0.18    0.17
   8 -10  17    0.81    0.26
  10   9 -17   -0.04    0.11
 -10  -9  17    0.01    0.11
  -9  -9  17    0.19    0.12
  -8  -9  17    2.69    0.27
  -7  -9  17    0.39    0.13
  -6  -9  17    1.00    0.18
  -5  -9  17    0.45    0.14
  -4  -9  17    2.76    0.26
  -3  -9  17    3.96    0.30
  -2  -9  17    0.06    0.09
  -1  -9  17    2.88    0.26
   0  -9  17    5.51    0.34
   1  -9  17   -0.02    0.09
   2  -9  17   10.72    0.52
   2  -9  17   11.29    0.69
   3  -9  17    0.29    0.12
   3  -9  17    0.41    0.18
   4  -9  17    6.62    0.53
   4  -9  17    6.82    0.39
   5  -9  17    1.00    0.17
   5  -9  17    1.09    0.25
   6  -9  17    1.90    0.32
   7  -9  17    1.22    0.28
   8  -9  17    0.58    0.23
   9  -9  17    0.47    0.22
  11   8 -17    0.12    0.12
  10   8 -17    0.01    0.11
 -10  -8  17    0.20    0.12
  -9  -8  17    2.54    0.26
  -8  -8  17   -0.02    0.09
  -7  -8  17    2.21    0.24
  -6  -8  17    2.58    0.24
  -5  -8  17    0.81    0.16
  -4  -8  17    0.83    0.15
  -3  -8  17    0.78    0.15
  -2  -8  17   11.83    0.54
  -1  -8  17    5.88    0.34
   0  -8  17    3.96    0.27
   1  -8  17   15.42    0.64
   2  -8  17    0.10    0.09
   2  -8  17    0.01    0.17
   3  -8  17    3.39    0.41
   3  -8  17    3.00    0.24
   4  -8  17    0.39    0.20
   4  -8  17    0.34    0.12
   5  -8  17    8.70    0.45
   5  -8  17    9.46    0.63
   6  -8  17    0.78    0.23
   7  -8  17    1.73    0.31
   8  -8  17    0.15    0.17
   9  -8  17    0.20    0.19
  12   7 -17   -0.14    0.09
  11   7 -17    0.06    0.12
 -11  -7  17    0.07    0.13
  10   7 -17    0.21    0.11
 -10  -7  17    0.14    0.12
  -9  -7  17    3.11    0.27
  -8  -7  17    0.33    0.12
  -7  -7  17    0.25    0.10
  -6  -7  17    0.06    0.09
  -5  -7  17    6.00    0.34
  -4  -7  17    0.92    0.15
  -3  -7  17    1.53    0.18
  -2  -7  17    0.00    0.07
  -1  -7  17    5.05    0.30
   0  -7  17    3.00    0.23
   1  -7  17    7.14    0.36
   2  -7  17    2.45    0.21
   2  -7  17    2.83    0.36
   3  -7  17    0.00    0.08
   3  -7  17    0.09    0.13
   4  -7  17    0.47    0.18
   4  -7  17    0.20    0.09
   5  -7  17    2.45    0.35
   5  -7  17    2.73    0.22
   6  -7  17    1.12    0.25
   7  -7  17    0.55    0.21
   8  -7  17   -0.14    0.14
   9  -7  17    0.55    0.23
  11   6 -17    1.01    0.17
 -11  -6  17    0.91    0.19
  10   6 -17    1.65    0.20
 -10  -6  17    1.98    0.23
  -9  -6  17    0.76    0.16
  -8  -6  17   -0.05    0.09
  -7  -6  17    1.94    0.20
  -6  -6  17    3.85    0.26
  -5  -6  17    4.76    0.29
  -4  -6  17    0.01    0.07
  -3  -6  17    1.91    0.17
  -2  -6  17    0.14    0.08
  -1  -6  17    1.07    0.14
   0  -6  17    0.25    0.08
   1  -6  17    0.36    0.09
   2  -6  17    3.42    0.41
   2  -6  17    3.32    0.21
   3  -6  17    0.44    0.10
   3  -6  17    0.64    0.22
   4  -6  17    5.45    0.29
   4  -6  17    5.58    0.47
   5  -6  17    0.07    0.15
   5  -6  17    0.09    0.08
   6  -6  17    4.29    0.43
   7  -6  17    1.86    0.32
   8  -6  17    1.53    0.30
   9  -6  17    0.57    0.21
   9  -6  17    0.15    0.16
  10  -6  17    0.17    0.21
 -11  -5  17    0.11    0.12
 -10  -5  17    2.85    0.26
  -9  -5  17   -0.03    0.09
  -8  -5  17    3.61    0.26
  -7  -5  17    1.51    0.18
  -6  -5  17    1.69    0.17
  -5  -5  17    0.74    0.12
  -4  -5  17    0.70    0.11
  -3  -5  17    4.11    0.24
  -2  -5  17    2.51    0.18
  -1  -5  17    0.13    0.07
   0  -5  17    4.10    0.22
   1  -5  17    0.04    0.05
   2  -5  17    7.18    0.31
   2  -5  17    6.95    0.52
   3  -5  17    3.46    0.19
   3  -5  17    3.01    0.37
   4  -5  17    1.32    0.13
   4  -5  17    1.36    0.28
   5  -5  17    0.90    0.11
   5  -5  17    0.78    0.21
   6  -5  17    0.38    0.09
   6  -5  17    0.46    0.19
   7  -5  17    2.59    0.37
   8  -5  17    1.85    0.30
   8  -5  17    1.46    0.29
   9  -5  17    0.02    0.17
   9  -5  17    0.08    0.17
  10  -5  17    0.08    0.18
 -10  -4  17    0.16    0.11
  -9  -4  17    4.22    0.29
  -8  -4  17    0.14    0.09
  -7  -4  17    1.67    0.18
  -6  -4  17    0.57    0.11
  -5  -4  17    0.60    0.10
  -4  -4  17    0.65    0.10
  -3  -4  17    1.04    0.11
  -2  -4  17    5.02    0.24
  -1  -4  17    1.95    0.13
   0  -4  17    4.93    0.22
   1  -4  17   10.29    0.37
   2  -4  17    0.00    0.04
   2  -4  17    0.01    0.04
   3  -4  17    4.96    0.44
   4  -4  17    1.09    0.25
   5  -4  17    0.53    0.19
   6  -4  17    0.10    0.15
   6  -4  17    0.01    0.05
   7  -4  17    1.26    0.26
   8  -4  17    1.03    0.25
   8  -4  17    1.13    0.24
   9  -4  17    2.78    0.37
   9  -4  17    3.06    0.41
  10  -4  17    2.87    0.40
 -10  -3  17    1.67    0.20
  -9  -3  17    0.04    0.08
  -8  -3  17    0.21    0.09
  -7  -3  17    2.53    0.20
  -6  -3  17    1.18    0.14
  -5  -3  17    0.02    0.06
  -4  -3  17    0.49    0.09
  -3  -3  17    1.34    0.12
  -2  -3  17    4.79    0.22
  -1  -3  17    0.23    0.06
   0  -3  17    0.90    0.08
   3  -3  17    0.44    0.18
   4  -3  17    0.25    0.16
   5  -3  17    0.47    0.18
   6  -3  17    1.53    0.28
   7  -3  17    0.42    0.17
   7  -3  17    0.68    0.22
   8  -3  17    0.09    0.15
   8  -3  17    0.08    0.16
   9  -3  17    0.00    0.16
   9  -3  17   -0.03    0.14
  10  -3  17    0.26    0.19
 -10  -2  17    0.35    0.12
  -9  -2  17    0.69    0.13
  -8  -2  17    1.18    0.15
  -7  -2  17    1.69    0.17
  -6  -2  17    0.49    0.10
  -5  -2  17    3.19    0.19
  -4  -2  17    0.21    0.07
  -3  -2  17    4.98    0.23
  -2  -2  17    0.48    0.07
  -1  -2  17    1.10    0.08
   4  -2  17    3.75    0.42
   5  -2  17    0.80    0.22
   6  -2  17    6.66    0.51
   7  -2  17    1.27    0.25
   7  -2  17    1.15    0.27
   8  -2  17    0.17    0.17
   8  -2  17    0.02    0.15
   9  -2  17    1.90    0.31
   9  -2  17    1.53    0.29
  10  -2  17    0.07    0.17
  -9  -1  17    1.83    0.20
  -8  -1  17    2.93    0.22
  -7  -1  17    0.02    0.07
  -6  -1  17    0.71    0.11
  -5  -1  17    1.41    0.14
  -4  -1  17    4.85    0.24
  -3  -1  17    0.69    0.09
  -2  -1  17    0.11    0.05
   5  -1  17    0.62    0.21
   6  -1  17    0.42    0.18
   6  -1  17    0.66    0.21
   7  -1  17    0.23    0.17
   7  -1  17    0.28    0.17
   8  -1  17    1.73    0.29
   8  -1  17    1.94    0.31
  -9   0  17    2.64    0.25
  -8   0  17    0.68    0.13
  -7   0  17    1.91    0.18
  -6   0  17    0.45    0.10
  -5   0  17   -0.02    0.06
  -4   0  17    0.29    0.07
  -3   0  17    0.57    0.08
  -2   0  17    0.79    0.08
   5   0  17    0.09    0.14
   6   0  17    0.07    0.14
   7   0  17    0.11    0.15
   8   0  17    0.61    0.20
  -8   1  17    0.07    0.08
  -7   1  17    1.79    0.18
  -6   1  17    1.77    0.17
  -5   1  17    0.09    0.07
  -4   1  17    0.77    0.11
  -3   1  17    1.13    0.11
   6   1  17    0.96    0.22
   7   1  17    2.01    0.31
   8   1  17    0.18    0.16
  -7   2  17    0.57    0.12
  -6   2  17    1.27    0.16
  -5   2  17    0.06    0.07
  -4   2  17    0.19    0.07
  -3   2  17    1.42    0.13
  -6   3  17    0.69    0.15
  -5   3  17    0.91    0.14
  -4   3  17    0.13    0.08
  -3   3  17    0.66    0.10
  -4   4  17    0.46    0.10
  -3   4  17    0.17    0.08
  -3 -14  18    5.45    0.44
  -2 -14  18    0.73    0.20
  -1 -14  18   11.77    0.65
   0 -14  18    0.55    0.19
   1 -14  18    1.22    0.24
   2 -14  18    0.43    0.19
  -5 -13  18    1.85    0.27
  -4 -13  18    0.19    0.15
  -3 -13  18    1.65    0.26
  -2 -13  18   16.63    0.79
  -1 -13  18    0.08    0.14
   0 -13  18    0.62    0.18
   1 -13  18    0.11    0.14
   2 -13  18   -0.04    0.12
   3 -13  18    0.38    0.15
   3 -13  18    0.38    0.21
   4 -13  18    0.14    0.14
   4 -13  18    0.14    0.18
  -6 -12  18   -0.02    0.13
  -5 -12  18    1.85    0.27
  -4 -12  18    1.60    0.25
  -3 -12  18    0.38    0.16
  -2 -12  18    1.77    0.25
  -1 -12  18    1.71    0.24
   0 -12  18    0.00    0.12
   1 -12  18    1.43    0.23
   2 -12  18    1.14    0.21
   3 -12  18    0.70    0.17
   3 -12  18    0.45    0.23
   4 -12  18    0.81    0.26
   4 -12  18    1.09    0.21
   5 -12  18    1.20    0.29
   5 -12  18    1.08    0.21
  -7 -11  18    0.74    0.18
  -6 -11  18    1.16    0.22
  -5 -11  18   -0.10    0.10
  -4 -11  18    2.90    0.31
  -3 -11  18    1.34    0.21
  -2 -11  18    6.15    0.41
  -1 -11  18    0.21    0.13
   0 -11  18    1.33    0.21
   1 -11  18    0.84    0.18
   2 -11  18    1.69    0.23
   2 -11  18    1.69    0.32
   3 -11  18    1.79    0.34
   3 -11  18    1.88    0.24
   4 -11  18    0.35    0.20
   4 -11  18    0.28    0.14
   5 -11  18    0.77    0.25
   5 -11  18    1.04    0.19
   6 -11  18   -0.06    0.15
   6 -11  18    0.09    0.11
  -8 -10  18    0.15    0.14
  -7 -10  18    0.48    0.15
  -6 -10  18    0.65    0.17
  -5 -10  18    1.53    0.22
  -4 -10  18    0.24    0.13
  -3 -10  18    8.92    0.49
  -2 -10  18    0.52    0.15
  -1 -10  18   16.58    0.73
   0 -10  18    2.47    0.25
   1 -10  18    2.67    0.26
   2 -10  18    1.75    0.22
   2 -10  18    1.56    0.29
   3 -10  18    0.20    0.17
   3 -10  18    0.11    0.11
   4 -10  18    0.24    0.13
   4 -10  18    0.34    0.19
   5 -10  18    2.66    0.26
   5 -10  18    1.97    0.33
   6 -10  18    0.05    0.10
   6 -10  18   -0.12    0.15
  -8  -9  18    2.36    0.27
  -7  -9  18    0.43    0.15
  -6  -9  18    0.60    0.15
  -5  -9  18   -0.08    0.10
  -4  -9  18    0.89    0.17
  -3  -9  18    0.15    0.11
  -2  -9  18    9.21    0.47
  -1  -9  18    0.50    0.14
   0  -9  18    0.09    0.09
   1  -9  18    0.23    0.10
   2  -9  18   -0.04    0.13
   2  -9  18   -0.02    0.09
   3  -9  18    0.71    0.24
   3  -9  18    0.97    0.17
   4  -9  18   -0.03    0.14
   4  -9  18    0.13    0.09
   5  -9  18    0.38    0.19
   5  -9  18    0.34    0.12
   6  -9  18    5.92    0.53
   6  -9  18    5.55    0.36
   7  -9  18    0.51    0.21
  10   8 -18    0.06    0.11
  -8  -8  18    0.19    0.12
  -7  -8  18    2.40    0.24
  -6  -8  18    3.00    0.26
  -5  -8  18   -0.08    0.08
  -4  -8  18   -0.17    0.08
  -3  -8  18   -0.04    0.09
  -2  -8  18    0.05    0.08
  -1  -8  18    1.76    0.20
   0  -8  18    1.67    0.19
   1  -8  18    0.02    0.07
   2  -8  18    1.94    0.20
   2  -8  18    2.38    0.36
   3  -8  18    3.48    0.26
   3  -8  18    3.63    0.44
   4  -8  18    0.71    0.25
   4  -8  18    0.70    0.14
   5  -8  18    1.83    0.21
   5  -8  18    1.43    0.30
   6  -8  18    5.63    0.52
   6  -8  18    6.04    0.36
   7  -8  18    9.09    0.66
  10   7 -18    4.88    0.33
  -8  -7  18    4.80    0.32
  -7  -7  18    5.77    0.34
  -6  -7  18   -0.02    0.08
  -5  -7  18    0.75    0.14
  -4  -7  18    2.97    0.23
  -3  -7  18    1.61    0.18
  -2  -7  18    7.74    0.38
  -1  -7  18    1.11    0.15
   0  -7  18    5.11    0.29
   1  -7  18    0.07    0.08
   2  -7  18    0.57    0.11
   3  -7  18    0.40    0.10
   3  -7  18    0.26    0.18
   4  -7  18    0.04    0.08
   4  -7  18    0.03    0.17
   5  -7  18    0.47    0.21
   5  -7  18    0.59    0.12
   6  -7  18    0.51    0.12
   6  -7  18    0.43    0.20
   7  -7  18    1.73    0.32
   8  -7  18    0.52    0.22
  -9  -6  18    0.72    0.18
  -8  -6  18    1.04    0.16
  -7  -6  18   -0.07    0.08
  -6  -6  18    1.37    0.17
  -5  -6  18    1.91    0.18
  -4  -6  18    1.97    0.18
  -3  -6  18    7.18    0.35
  -2  -6  18    1.61    0.16
  -1  -6  18   28.60    1.00
   0  -6  18    8.25    0.36
   1  -6  18    0.11    0.07
   2  -6  18    0.22    0.08
   3  -6  18    2.65    0.18
   3  -6  18    2.90    0.39
   4  -6  18    0.22    0.18
   4  -6  18    0.10    0.07
   5  -6  18    0.06    0.07
   5  -6  18    0.05    0.15
   6  -6  18    0.13    0.08
   6  -6  18    0.33    0.17
   7  -6  18   -0.06    0.15
   7  -6  18    0.04    0.07
   8  -6  18    0.06    0.16
  -8  -5  18    2.14    0.21
  -7  -5  18    1.68    0.19
  -6  -5  18    0.68    0.12
  -5  -5  18    0.37    0.10
  -4  -5  18    1.85    0.16
  -3  -5  18    1.91    0.16
  -2  -5  18    8.89    0.37
  -1  -5  18    0.38    0.08
   0  -5  18    2.37    0.15
   1  -5  18    0.56    0.08
   2  -5  18   -0.01    0.04
   3  -5  18    0.79    0.23
   3  -5  18    0.61    0.08
   4  -5  18    1.90    0.13
   4  -5  18    2.61    0.36
   5  -5  18    0.82    0.23
   5  -5  18    0.65    0.08
   6  -5  18    1.24    0.12
   6  -5  18    1.00    0.26
   7  -5  18    3.57    0.21
   7  -5  18    3.89    0.46
   8  -5  18    2.84    0.41
  -8  -4  18    0.53    0.12
  -7  -4  18    0.14    0.09
  -6  -4  18    1.70    0.17
  -5  -4  18    0.00    0.06
  -4  -4  18    0.57    0.10
  -3  -4  18    0.09    0.06
  -2  -4  18    0.08    0.06
  -1  -4  18    2.37    0.14
   0  -4  18    1.13    0.09
   1  -4  18    0.27    0.04
   4  -4  18    0.56    0.21
   5  -4  18    0.04    0.14
   6  -4  18    2.18    0.34
   7  -4  18    1.64    0.31
   8  -4  18    2.69    0.37
  -8  -3  18    1.21    0.16
  -7  -3  18    1.93    0.18
  -6  -3  18    0.07    0.07
  -5  -3  18    0.21    0.07
  -4  -3  18    1.37    0.13
  -3  -3  18    0.54    0.08
  -2  -3  18    2.14    0.13
  -1  -3  18    0.22    0.05
   4  -3  18    0.21    0.17
   5  -3  18    0.40    0.20
   6  -3  18   -0.05    0.13
   7  -3  18    1.48    0.29
   8  -3  18    0.02    0.16
  -8  -2  18    7.64    0.40
  -7  -2  18    4.08    0.25
  -6  -2  18    0.41    0.09
  -5  -2  18    3.62    0.21
  -4  -2  18    0.40    0.08
  -3  -2  18    6.81    0.29
  -2  -2  18    0.91    0.09
   5  -2  18    2.14    0.34
   6  -2  18    2.85    0.38
   7  -2  18    0.87    0.24
   8  -2  18    0.02    0.16
  -7  -1  18    1.71    0.18
  -6  -1  18    0.55    0.11
  -5  -1  18    0.30    0.08
  -4  -1  18    1.53    0.14
  -3  -1  18    1.00    0.10
  -2  -1  18    3.77    0.17
   6  -1  18   -0.06    0.17
  -6   0  18    0.18    0.08
  -5   0  18    0.56    0.10
  -4   0  18    0.01    0.06
  -3   0  18    1.19    0.11
  -5   1  18   -0.05    0.07
  -4   1  18    0.30    0.08
  -3   1  18    0.22    0.07
  -4   2  18    1.47    0.15
  -3   2  18    5.76    0.25
  -1 -12  19    2.19    0.30
   0 -12  19    2.78    0.32
  -4 -11  19    0.10    0.14
  -3 -11  19    1.25    0.21
  -2 -11  19    0.36    0.14
  -1 -11  19    0.41    0.15
   0 -11  19    1.18    0.20
   1 -11  19    3.42    0.30
   2 -11  19    2.72    0.29
   3 -11  19    2.15    0.26
   3 -11  19    2.54    0.39
  -4 -10  19    8.04    0.46
  -3 -10  19    6.08    0.39
  -2 -10  19    1.83    0.23
  -1 -10  19    1.44    0.21
   0 -10  19   -0.02    0.10
   1 -10  19    7.04    0.41
   2 -10  19    1.69    0.22
   3 -10  19    2.83    0.41
   3 -10  19    2.69    0.26
   4 -10  19    3.83    0.48
   4 -10  19    3.10    0.28
  -5  -9  19    1.83    0.22
  -4  -9  19    0.40    0.14
  -3  -9  19    0.82    0.16
  -2  -9  19    0.78    0.15
  -1  -9  19    3.01    0.26
   0  -9  19    0.85    0.16
   1  -9  19    2.16    0.23
   2  -9  19   20.06    0.80
   3  -9  19    6.86    0.40
   3  -9  19    8.38    0.62
   4  -9  19    1.96    0.36
   4  -9  19    1.76    0.21
   5  -9  19    7.48    0.42
  -6  -8  19    0.00    0.08
  -5  -8  19    0.34    0.12
  -4  -8  19    0.61    0.14
  -3  -8  19    1.12    0.16
  -2  -8  19    0.41    0.11
  -1  -8  19    6.90    0.36
   0  -8  19    1.05    0.16
   1  -8  19    6.68    0.36
   2  -8  19    2.70    0.22
   3  -8  19    1.44    0.32
   3  -8  19    1.54    0.18
   4  -8  19    2.33    0.38
   4  -8  19    1.92    0.21
   5  -8  19    1.99    0.21
   5  -8  19    2.06    0.37
  -6  -7  19    1.70    0.19
  -5  -7  19    7.84    0.39
  -4  -7  19    0.12    0.09
  -3  -7  19    2.69    0.21
  -2  -7  19    0.18    0.09
  -1  -7  19    0.94    0.13
   0  -7  19    0.35    0.10
   1  -7  19    1.10    0.14
   2  -7  19    1.23    0.14
   3  -7  19    0.08    0.16
   3  -7  19    0.00    0.07
   4  -7  19    0.56    0.10
   4  -7  19    0.40    0.21
   5  -7  19    0.02    0.17
   5  -7  19    0.04    0.08
   6  -7  19   -0.01    0.07
   6  -7  19    0.08    0.17
  -6  -6  19    6.59    0.35
  -5  -6  19    0.17    0.09
  -4  -6  19    8.38    0.39
  -3  -6  19    0.47    0.10
  -2  -6  19    3.22    0.21
  -1  -6  19   -0.02    0.06
   0  -6  19    0.55    0.09
   1  -6  19    0.05    0.06
   2  -6  19    0.56    0.09
   3  -6  19    2.28    0.15
   4  -6  19    0.20    0.07
   4  -6  19    0.15    0.17
   5  -6  19    0.13    0.06
   5  -6  19    0.29    0.19
   6  -6  19    0.16    0.07
   6  -6  19    0.07    0.15
  -6  -5  19    0.73    0.13
  -5  -5  19    4.77    0.27
  -4  -5  19    0.22    0.08
  -3  -5  19    0.19    0.07
  -2  -5  19    0.37    0.08
  -1  -5  19    0.10    0.05
   0  -5  19    0.76    0.08
   1  -5  19    1.81    0.11
   2  -5  19    0.79    0.07
   4  -5  19    2.98    0.40
   5  -5  19    3.38    0.43
   6  -5  19    0.49    0.22
  -6  -4  19    0.18    0.08
  -5  -4  19    0.41    0.09
  -4  -4  19    2.49    0.17
  -3  -4  19    0.04    0.06
  -2  -4  19    0.35    0.07
  -1  -4  19    4.74    0.21
   0  -4  19    1.14    0.08
   5  -4  19    4.41    0.46
   6  -4  19    0.49    0.22
  -5  -3  19    5.10    0.26
  -4  -3  19    0.33    0.08
  -3  -3  19    1.35    0.12
  -2  -3  19    0.91    0.09
   5  -3  19    0.25    0.19
   6  -3  19    0.14    0.17
  -5  -2  19    0.84    0.12
  -4  -2  19    7.51    0.32
  -3  -2  19    1.43    0.12
   6  -2  19    0.52    0.21
  -4  -1  19    0.45    0.08
  -3  -1  19    0.18    0.06
  -4   0  19    1.04    0.12
  -1  -8  20    0.46    0.13
   0  -8  20    0.67    0.13
   1  -8  20    2.95    0.22
   2  -8  20    8.63    0.44
  -2  -7  20    1.36    0.15
  -1  -7  20    0.30    0.09
   0  -7  20    6.64    0.32
   1  -7  20    0.44    0.10
   2  -7  20    2.59    0.18
   3  -7  20    0.10    0.07
  -2  -6  20    0.73    0.11
  -1  -6  20    3.86    0.21
   0  -6  20    0.74    0.09
   1  -6  20    6.44    0.27
   2  -6  20    0.29    0.06
   3  -6  20   -0.02    0.04
  -3  -5  20    0.41    0.09
  -2  -5  20    2.09    0.15
  -1  -5  20    1.14    0.11
   0  -5  20    2.18    0.13
  -3  -4  20    0.08    0.06
  -2  -4  20    3.11    0.17
  -1  -4  20    0.60    0.07
  -3  -3  20    0.04    0.06
  -2  -3  20    0.13    0.05
   0   0   0    0.00    0.00
;
_shelx_hkl_checksum              99556
#END Tags that were not found in dictionaries
loop_
_space_group_symop_operation_xyz
'x, y, z'
'-x, -y, -z'
loop_
_atom_site_label
_atom_site_type_symbol
_atom_site_fract_x
_atom_site_fract_y
_atom_site_fract_z
_atom_site_U_iso_or_equiv
_atom_site_adp_type
_atom_site_occupancy
_atom_site_site_symmetry_order
_atom_site_calc_flag
_atom_site_refinement_flags_posn
_atom_site_refinement_flags_adp
_atom_site_refinement_flags_occupancy
_atom_site_disorder_assembly
_atom_site_disorder_group
S1 S 0.71352(7) 0.86570(6) 0.05011(6) 0.01842(15) Uani 0.9 1 d . . P A 1
S2 S 0.72428(5) 0.63630(5) -0.02035(5) 0.01938(13) Uani 0.9 1 d D . P A 1
S3 S 0.78562(4) 0.87423(5) 0.45221(4) 0.01863(13) Uani 0.9 1 d . . P A 1
S4 S 0.73324(5) 0.64608(5) 0.36047(5) 0.01792(14) Uani 0.9 1 d . . P A 1
N1 N 0.67469(15) 0.74547(17) 0.05459(15) 0.0177(4) Uani 0.9 1 d . . P A 1
N2 N 0.71906(15) 0.77055(17) 0.36285(15) 0.0174(4) Uani 0.9 1 d . . P A 1
O1 O 0.82080(15) 0.87096(18) 0.04859(17) 0.0263(4) Uani 0.9 1 d . . P A 1
O2 O 0.66753(17) 0.93797(17) 0.13274(15) 0.0226(4) Uani 0.9 1 d . . P A 1
O3 O 0.65410(16) 0.55043(18) -0.0233(2) 0.0395(6) Uani 0.9 1 d . . P A 1
O4 O 0.74746(19) 0.65406(19) -0.11095(15) 0.0340(5) Uani 0.9 1 d . . P A 1
O5 O 0.79444(15) 0.84557(16) 0.54006(13) 0.0244(4) Uani 0.9 1 d . . P A 1
O6 O 0.73479(15) 0.96371(16) 0.45437(16) 0.0271(4) Uani 0.9 1 d . . P A 1
O7 O 0.83770(15) 0.63332(17) 0.37209(15) 0.0253(4) Uani 0.9 1 d . . P A 1
O8 O 0.67526(16) 0.58115(16) 0.26938(14) 0.0229(4) Uani 0.9 1 d . . P A 1
C1 C 0.48712(17) 0.7345(2) 0.05990(17) 0.0169(4) Uani 0.9 1 d . . P A 1
C2 C 0.4279(2) 0.8173(2) 0.1031(2) 0.0214(5) Uani 0.9 1 d . . P A 1
H2 H 0.4501 0.8706 0.1661 0.026 Uiso 0.9 1 calc R U P A 1
C3 C 0.3372(2) 0.8223(3) 0.0549(2) 0.0250(6) Uani 0.9 1 d . . P A 1
H3 H 0.2979 0.8792 0.0846 0.030 Uiso 0.9 1 calc R U P A 1
C4 C 0.3039(2) 0.7441(3) -0.0368(2) 0.0263(6) Uani 0.9 1 d . . P A 1
H4 H 0.2418 0.7470 -0.0699 0.032 Uiso 0.9 1 calc R U P A 1
C5 C 0.3619(2) 0.6615(2) -0.0798(2) 0.0263(5) Uani 0.9 1 d . . P A 1
H5 H 0.3389 0.6078 -0.1423 0.032 Uiso 0.9 1 calc R U P A 1
C6 C 0.4533(2) 0.6565(2) -0.03271(19) 0.0213(5) Uani 0.9 1 d . . P A 1
H6 H 0.4927 0.6001 -0.0634 0.026 Uiso 0.9 1 calc R U P A 1
C7 C 0.58701(17) 0.7376(2) 0.11182(18) 0.0166(4) Uani 0.9 1 d . . P A 1
C8 C 0.60160(17) 0.7498(2) 0.20994(18) 0.0168(4) Uani 0.9 1 d . . P A 1
C9 C 0.70631(18) 0.7826(2) 0.26245(18) 0.0206(5) Uani 0.9 1 d . . P A 1
H9A H 0.7542 0.7402 0.2174 0.025 Uiso 0.9 1 calc R U P A 1
H9B H 0.7248 0.8575 0.2713 0.025 Uiso 0.9 1 calc R U P A 1
C10 C 0.51429(18) 0.7417(2) 0.27004(18) 0.0187(4) Uani 0.9 1 d . . P A 1
C11 C 0.4983(2) 0.8241(2) 0.35928(19) 0.0223(5) Uani 0.9 1 d . . P A 1
H11 H 0.5445 0.8858 0.3833 0.027 Uiso 0.9 1 calc R U P A 1
C12 C 0.4146(2) 0.8155(3) 0.4127(2) 0.0278(6) Uani 0.9 1 d . . P A 1
H12 H 0.4029 0.8722 0.4723 0.033 Uiso 0.9 1 calc R U P A 1
C13 C 0.3482(2) 0.7247(3) 0.3795(2) 0.0299(6) Uani 0.9 1 d . . P A 1
H13 H 0.2918 0.7188 0.4170 0.036 Uiso 0.9 1 calc R U P A 1
C14 C 0.36379(19) 0.6421(3) 0.2913(2) 0.0264(6) Uani 0.9 1 d . . P A 1
H14 H 0.3183 0.5798 0.2687 0.032 Uiso 0.9 1 calc R U P A 1
C15 C 0.44618(18) 0.6509(2) 0.23621(19) 0.0210(5) Uani 0.9 1 d . . P A 1
H15 H 0.4562 0.5949 0.1754 0.025 Uiso 0.9 1 calc R U P A 1
C16 C 0.6642(2) 0.8734(2) -0.06399(19) 0.0209(5) Uani 0.9 1 d . . P A 1
C17 C 0.5662(2) 0.8978(2) -0.0700(2) 0.0230(6) Uani 0.9 1 d . . P A 1
H17 H 0.5248 0.9058 -0.0150 0.028 Uiso 0.9 1 calc R U P A 1
C18 C 0.5293(2) 0.9105(2) -0.1580(2) 0.0253(6) Uani 0.9 1 d . . P A 1
H18 H 0.4621 0.9268 -0.1631 0.030 Uiso 0.9 1 calc R U P A 1
C19 C 0.5902(3) 0.8995(2) -0.2389(2) 0.0243(6) Uani 0.9 1 d . . P A 1
C20 C 0.6874(2) 0.8748(2) -0.2312(2) 0.0251(6) Uani 0.9 1 d . . P A 1
H20 H 0.7286 0.8662 -0.2864 0.030 Uiso 0.9 1 calc R U P A 1
C21 C 0.7260(2) 0.8622(3) -0.1440(2) 0.0246(6) Uani 0.9 1 d . . P A 1
H21 H 0.7934 0.8463 -0.1389 0.030 Uiso 0.9 1 calc R U P A 1
C22 C 0.5495(3) 0.9142(3) -0.3334(3) 0.0351(7) Uani 0.9 1 d . . P A 1
H22A H 0.4790 0.9285 -0.3268 0.053 Uiso 0.9 1 calc R U P A 1
H22B H 0.5545 0.8498 -0.3919 0.053 Uiso 0.9 1 calc R U P A 1
H22C H 0.5887 0.9738 -0.3431 0.053 Uiso 0.9 1 calc R U P A 1
C23 C 0.8402(4) 0.6299(9) 0.0397(10) 0.0244(10) Uani 0.6 1 d D U P A 1
C24 C 0.9273(3) 0.6742(4) 0.0123(5) 0.0322(10) Uani 0.6 1 d D U P A 1
H24 H 0.9235 0.7093 -0.0351 0.039 Uiso 0.6 1 calc R U P A 1
C25 C 1.0202(4) 0.6659(4) 0.0556(5) 0.0395(10) Uani 0.6 1 d D U P A 1
H25 H 1.0799 0.6966 0.0383 0.047 Uiso 0.6 1 calc R U P A 1
C26 C 1.0261(4) 0.6132(5) 0.1239(4) 0.0389(10) Uani 0.6 1 d D U P A 1
C27 C 0.9386(5) 0.5689(5) 0.1491(4) 0.0371(10) Uani 0.6 1 d D U P A 1
H27 H 0.9424 0.5329 0.1958 0.045 Uiso 0.6 1 calc R U P A 1
C28 C 0.8448(4) 0.5766(5) 0.1068(4) 0.0317(10) Uani 0.6 1 d D U P A 1
H28 H 0.7851 0.5455 0.1239 0.038 Uiso 0.6 1 calc R U P A 1
C29 C 1.1275(5) 0.6026(6) 0.1708(5) 0.0544(18) Uani 0.6 1 d D U P A 1
H29A H 1.1813 0.6163 0.1304 0.082 Uiso 0.6 1 calc R U P A 1
H29B H 1.1284 0.5309 0.1720 0.082 Uiso 0.6 1 calc R U P A 1
H29C H 1.1377 0.6538 0.2401 0.082 Uiso 0.6 1 calc R U P A 1
C30 C 0.90493(18) 0.8854(2) 0.40701(18) 0.0193(5) Uani 0.9 1 d . . P A 1
C31 C 0.9196(2) 0.9392(2) 0.3396(2) 0.0256(5) Uani 0.9 1 d . . P A 1
H31 H 0.8669 0.9734 0.3212 0.031 Uiso 0.9 1 calc R U P A 1
C32 C 1.0134(2) 0.9416(3) 0.3000(2) 0.0291(6) Uani 0.9 1 d . . P A 1
H32 H 1.0239 0.9765 0.2529 0.035 Uiso 0.9 1 calc R U P A 1
C33 C 1.0916(2) 0.8944(2) 0.3278(2) 0.0270(6) Uani 0.9 1 d . . P A 1
C34 C 1.0758(2) 0.8443(3) 0.3973(2) 0.0283(6) Uani 0.9 1 d . . P A 1
H34 H 1.1296 0.8133 0.4183 0.034 Uiso 0.9 1 calc R U P A 1
C35 C 0.9824(2) 0.8385(2) 0.4367(2) 0.0241(5) Uani 0.9 1 d . . P A 1
H35 H 0.9720 0.8030 0.4833 0.029 Uiso 0.9 1 calc R U P A 1
C36 C 1.1924(2) 0.8970(3) 0.2835(3) 0.0364(7) Uani 0.9 1 d . . P A 1
H36A H 1.1997 0.8277 0.2324 0.055 Uiso 0.9 1 calc R U P A 1
H36B H 1.2461 0.9140 0.3373 0.055 Uiso 0.9 1 calc R U P A 1
H36C H 1.1968 0.9509 0.2518 0.055 Uiso 0.9 1 calc R U P A 1
C37 C 0.67295(19) 0.6366(2) 0.46571(17) 0.0171(4) Uani 0.9 1 d . . P A 1
C38 C 0.7307(2) 0.6234(2) 0.5438(2) 0.0232(5) Uani 0.9 1 d . . P A 1
H38 H 0.8013 0.6207 0.5406 0.028 Uiso 0.9 1 calc R U P A 1
C39 C 0.6827(2) 0.6141(3) 0.6264(2) 0.0259(6) Uani 0.9 1 d . . P A 1
H39 H 0.7212 0.6049 0.6799 0.031 Uiso 0.9 1 calc R U P A 1
C40 C 0.5795(2) 0.6181(2) 0.6323(2) 0.0222(6) Uani 0.9 1 d . . P A 1
C41 C 0.5242(2) 0.6293(2) 0.5516(2) 0.0236(6) Uani 0.9 1 d . . P A 1
H41 H 0.4535 0.6314 0.5543 0.028 Uiso 0.9 1 calc R U P A 1
C42 C 0.5699(2) 0.6375(2) 0.4676(2) 0.0214(5) Uani 0.9 1 d . . P A 1
H42 H 0.5312 0.6436 0.4125 0.026 Uiso 0.9 1 calc R U P A 1
C43 C 0.5294(3) 0.6120(3) 0.7239(2) 0.0310(10) Uani 0.9 1 d . . P A 1
H43A H 0.5415 0.6805 0.7791 0.047 Uiso 0.9 1 calc R U P A 1
H43B H 0.5570 0.5575 0.7448 0.047 Uiso 0.9 1 calc R U P A 1
H43C H 0.4569 0.5941 0.7074 0.047 Uiso 0.9 1 calc R U P A 1
S1' S 0.7261(3) 0.8730(3) 0.41763(19) 0.0172(9) Uani 0.1 1 d G U P B 2
S2' S 0.6960(3) 0.6415(3) 0.3390(2) 0.0183(11) Uani 0.1 1 d G U P B 2
S3' S 0.7406(3) 0.8582(3) 0.0394(2) 0.0209(18) Uani 0.1 1 d G U P B 2
S4' S 0.7656(3) 0.6319(3) -0.0512(2) 0.0189(9) Uani 0.1 1 d G U P B 2
N1' N 0.6681(2) 0.7597(2) 0.33322(19) 0.0162(17) Uani 0.1 1 d G U P B 2
N2' N 0.7132(2) 0.7337(3) 0.03411(19) 0.0169(19) Uani 0.1 1 d G U P B 2
O1' O 0.7316(3) 0.8612(3) 0.51522(19) 0.023(3) Uani 0.1 1 d G U P B 2
O2' O 0.6728(3) 0.9543(2) 0.4034(2) 0.027(3) Uani 0.1 1 d G U P B 2
O3' O 0.8030(3) 0.6469(3) 0.3494(2) 0.019(3) Uani 0.1 1 d G U P B 2
O4' O 0.6397(3) 0.5638(2) 0.2540(3) 0.023(3) Uani 0.1 1 d G U P B 2
O5' O 0.8447(3) 0.8759(3) 0.0294(3) 0.024(4) Uani 0.1 1 d G U P B 2
O6' O 0.6960(3) 0.9198(2) 0.1296(3) 0.020(3) Uani 0.1 1 d G U P B 2
O7' O 0.6939(3) 0.5403(3) -0.0741(2) 0.023(3) Uani 0.1 1 d G U P B 2
O8' O 0.7930(3) 0.6727(4) -0.1280(2) 0.026(3) Uani 0.1 1 d G U P B 2
C1' C 0.4804(2) 0.7493(3) 0.3094(3) 0.014(2) Uani 0.1 1 d G U P B 2
C2' C 0.4551(2) 0.8210(4) 0.4005(3) 0.014(3) Uani 0.1 1 d G U P B 2
H2' H 0.4985 0.8834 0.4341 0.017 Uiso 0.1 1 calc R U P B 2
C3' C 0.3672(3) 0.8022(5) 0.4425(3) 0.020(3) Uani 0.1 1 d G U P B 2
H3' H 0.3484 0.8542 0.5023 0.024 Uiso 0.1 1 calc R U P B 2
C4' C 0.3056(3) 0.7077(5) 0.3982(4) 0.023(3) Uani 0.1 1 d G U P B 2
H4' H 0.2468 0.6940 0.4292 0.027 Uiso 0.1 1 calc R U P B 2
C5' C 0.3310(3) 0.6339(5) 0.3084(4) 0.020(3) Uani 0.1 1 d G U P B 2
H5' H 0.2910 0.5683 0.2789 0.024 Uiso 0.1 1 calc R U P B 2
C6' C 0.4147(2) 0.6565(4) 0.2623(3) 0.015(3) Uani 0.1 1 d G U P B 2
H6' H 0.4283 0.6089 0.1977 0.018 Uiso 0.1 1 calc R U P B 2
C7' C 0.5805(2) 0.7627(3) 0.2692(2) 0.0124(18) Uani 0.1 1 d G U P B 2
C8' C 0.5930(2) 0.7436(2) 0.1700(2) 0.011(2) Uani 0.1 1 d G U P B 2
C9' C 0.6956(2) 0.7199(2) 0.13162(19) 0.015(2) Uani 0.1 1 d G U P B 2
H9'1 H 0.7472 0.7664 0.1833 0.018 Uiso 0.1 1 calc R U P B 2
H9'2 H 0.7051 0.6460 0.1243 0.018 Uiso 0.1 1 calc R U P B 2
C10' C 0.5074(2) 0.7403(3) 0.0997(2) 0.013(2) Uani 0.1 1 d G U P B 2
C11' C 0.4881(2) 0.6589(4) 0.0069(2) 0.016(3) Uani 0.1 1 d G U P B 2
H11' H 0.5340 0.6068 -0.0148 0.019 Uiso 0.1 1 calc R U P B 2
C12' C 0.4030(3) 0.6524(5) -0.0545(3) 0.016(3) Uani 0.1 1 d G U P B 2
H12' H 0.3875 0.5919 -0.1139 0.020 Uiso 0.1 1 calc R U P B 2
C13' C 0.3400(3) 0.7329(5) -0.0306(3) 0.019(3) Uani 0.1 1 d G U P B 2
H13' H 0.2835 0.7299 -0.0746 0.022 Uiso 0.1 1 calc R U P B 2
C14' C 0.3620(3) 0.8188(5) 0.0603(4) 0.015(3) Uani 0.1 1 d G U P B 2
H14' H 0.3211 0.8759 0.0774 0.018 Uiso 0.1 1 calc R U P B 2
C15' C 0.4428(2) 0.8209(4) 0.1251(3) 0.016(3) Uani 0.1 1 d G U P B 2
H15' H 0.4548 0.8778 0.1879 0.019 Uiso 0.1 1 calc R U P B 2
C16' C 0.8501(2) 0.8846(3) 0.3817(2) 0.020(2) Uani 0.1 1 d G U P B 2
C17' C 0.8683(3) 0.9172(3) 0.2995(2) 0.023(3) Uani 0.1 1 d G U P B 2
H17' H 0.8143 0.9281 0.2600 0.028 Uiso 0.1 1 calc R U P B 2
C18' C 0.9675(3) 0.9332(4) 0.2774(3) 0.028(3) Uani 0.1 1 d G U P B 2
H18' H 0.9814 0.9675 0.2304 0.033 Uiso 0.1 1 calc R U P B 2
C19' C 1.0474(2) 0.9010(5) 0.3217(3) 0.028(3) Uani 0.1 1 d G U P B 2
C20' C 1.0274(2) 0.8618(5) 0.3972(3) 0.026(3) Uani 0.1 1 d G U P B 2
H20' H 1.0805 0.8390 0.4283 0.031 Uiso 0.1 1 calc R U P B 2
C21' C 0.9304(2) 0.8550(4) 0.4289(2) 0.021(3) Uani 0.1 1 d G U P B 2
H21' H 0.9185 0.8300 0.4830 0.026 Uiso 0.1 1 calc R U P B 2
C22' C 1.1502(2) 0.9075(6) 0.2837(4) 0.032(5) Uani 0.1 1 d G U P B 2
H22D H 1.1442 0.9084 0.2147 0.049 Uiso 0.1 1 d R U P B 2
H22E H 1.1840 0.8460 0.2837 0.049 Uiso 0.1 1 d R U P B 2
H22F H 1.1896 0.9723 0.3280 0.049 Uiso 0.1 1 d R U P B 2
C23' C 0.6458(3) 0.6328(3) 0.4402(3) 0.023(3) Uani 0.1 1 d G U P B 2
C24' C 0.7103(4) 0.6355(4) 0.5257(3) 0.024(3) Uani 0.1 1 d G U P B 2
H24' H 0.7809 0.6493 0.5243 0.029 Uiso 0.1 1 calc R U P B 2
C25' C 0.6725(5) 0.6187(5) 0.6095(3) 0.025(4) Uani 0.1 1 d G U P B 2
H25' H 0.7167 0.6085 0.6586 0.030 Uiso 0.1 1 calc R U P B 2
C26' C 0.5700(5) 0.6170(5) 0.6215(3) 0.025(4) Uani 0.1 1 d G U P B 2
C27' C 0.5071(4) 0.6257(4) 0.5454(3) 0.025(4) Uani 0.1 1 d G U P B 2
H27' H 0.4363 0.6139 0.5470 0.030 Uiso 0.1 1 calc R U P B 2
C28' C 0.5479(3) 0.6521(4) 0.4656(3) 0.027(3) Uani 0.1 1 d G U P B 2
H28' H 0.5081 0.6834 0.4289 0.032 Uiso 0.1 1 calc R U P B 2
C29' C 0.5249(5) 0.6163(6) 0.7191(4) 0.025(7) Uani 0.1 1 d G U P B 2
H29D H 0.4931 0.6816 0.7501 0.038 Uiso 0.1 1 d R U P B 2
H29E H 0.5782 0.6114 0.7662 0.038 Uiso 0.1 1 d R U P B 2
H29F H 0.4744 0.5554 0.7038 0.038 Uiso 0.1 1 d R U P B 2
C30' C 0.6704(4) 0.8668(4) -0.0654(3) 0.022(3) Uani 0.1 1 d G U P B 2
C31' C 0.5695(4) 0.8858(4) -0.0626(3) 0.024(4) Uani 0.1 1 d G U P B 2
H31' H 0.5336 0.8897 -0.0047 0.029 Uiso 0.1 1 calc R U P B 2
C32' C 0.5223(5) 0.8989(5) -0.1464(3) 0.025(4) Uani 0.1 1 d G U P B 2
H32' H 0.4541 0.9141 -0.1442 0.030 Uiso 0.1 1 calc R U P B 2
C33' C 0.5717(5) 0.8904(6) -0.2319(3) 0.025(4) Uani 0.1 1 d G U P B 2
C34' C 0.6675(5) 0.8548(5) -0.2387(3) 0.025(4) Uani 0.1 1 d G U P B 2
H34' H 0.6987 0.8374 -0.3010 0.029 Uiso 0.1 1 calc R U P B 2
C35' C 0.7176(4) 0.8447(4) -0.1545(3) 0.022(4) Uani 0.1 1 d G U P B 2
H35' H 0.7835 0.8227 -0.1588 0.027 Uiso 0.1 1 calc R U P B 2
C36' C 0.5293(6) 0.9239(7) -0.3151(4) 0.036(6) Uani 0.1 1 d G U P B 2
H36D H 0.4731 0.8729 -0.3529 0.054 Uiso 0.1 1 calc R U P B 2
H36E H 0.5818 0.9268 -0.3610 0.054 Uiso 0.1 1 calc R U P B 2
H36F H 0.5055 0.9940 -0.2854 0.054 Uiso 0.1 1 calc R U P B 2
C37' C 0.8718(3) 0.6129(3) 0.0148(2) 0.028(3) Uani 0.1 1 d G U P B 2
C38' C 0.8621(3) 0.5333(3) 0.0564(3) 0.035(3) Uani 0.1 1 d G U P B 2
H38' H 0.8022 0.4865 0.0425 0.042 Uiso 0.1 1 calc R U P B 2
C39' C 0.9406(3) 0.5230(4) 0.1181(3) 0.037(3) Uani 0.1 1 d G U P B 2
H39' H 0.9323 0.4718 0.1498 0.045 Uiso 0.1 1 calc R U P B 2
C41' C 1.0303(3) 0.5857(5) 0.1341(3) 0.039(4) Uani 0.1 1 d G U P B 2
C40' C 1.0379(2) 0.6632(5) 0.0892(3) 0.036(4) Uani 0.1 1 d G U P B 2
H40' H 1.0984 0.7089 0.1015 0.044 Uiso 0.1 1 calc R U P B 2
C42' C 0.9605(3) 0.6756(4) 0.0277(3) 0.034(3) Uani 0.1 1 d G U P B 2
H42' H 0.9687 0.7263 -0.0046 0.041 Uiso 0.1 1 calc R U P B 2
C43' C 1.1162(3) 0.5729(6) 0.1980(4) 0.042(6) Uani 0.1 1 d G U P B 2
H43D H 1.1156 0.6239 0.2670 0.062 Uiso 0.1 1 calc R U P B 2
H43E H 1.1797 0.5854 0.1694 0.062 Uiso 0.1 1 calc R U P B 2
H43F H 1.1097 0.5010 0.1996 0.062 Uiso 0.1 1 calc R U P B 2
C23" C 0.8297(7) 0.6196(19) 0.044(2) 0.0251(18) Uani 0.3 1 d D U P C 3
C24" C 0.9218(6) 0.6791(7) 0.0532(8) 0.0304(16) Uani 0.3 1 d D U P C 3
H24" H 0.9295 0.7322 0.0236 0.036 Uiso 0.3 1 calc R U P C 3
C25" C 1.0026(6) 0.6591(7) 0.1069(8) 0.0365(16) Uani 0.3 1 d D U P C 3
H25" H 1.0659 0.6993 0.1143 0.044 Uiso 0.3 1 calc R U P C 3
C26" C 0.9915(7) 0.5812(8) 0.1495(8) 0.0372(16) Uani 0.3 1 d D U P C 3
C27" C 0.8990(7) 0.5232(9) 0.1391(7) 0.0332(15) Uani 0.3 1 d D U P C 3
H27" H 0.8910 0.4705 0.1690 0.040 Uiso 0.3 1 calc R U P C 3
C28" C 0.8174(6) 0.5414(8) 0.0852(8) 0.0270(16) Uani 0.3 1 d D U P C 3
H28" H 0.7544 0.5006 0.0771 0.032 Uiso 0.3 1 calc R U P C 3
C29" C 1.0776(9) 0.5643(11) 0.2145(10) 0.058(3) Uani 0.3 1 d D U P C 3
H29G H 1.1193 0.5128 0.1714 0.086 Uiso 0.3 1 calc R U P C 3
H29H H 1.0500 0.5378 0.2654 0.086 Uiso 0.3 1 calc R U P C 3
H29I H 1.1188 0.6315 0.2484 0.086 Uiso 0.3 1 calc R U P C 3
C1S C 0.7226(6) 0.2213(4) 0.2824(5) 0.0614(18) Uani 0.6 1 d D . P D 1
H1S1 H 0.7499 0.1839 0.2166 0.074 Uiso 0.6 1 calc R U P D 1
H1S2 H 0.6488 0.2171 0.2706 0.074 Uiso 0.6 1 calc R U P D 1
Cl1S Cl 0.76971(16) 0.35198(14) 0.32249(16) 0.0705(5) Uani 0.6 1 d D . P D 1
Cl2S Cl 0.74812(14) 0.15475(14) 0.36332(12) 0.0565(4) Uani 0.6 1 d D . P D 1
C1T C -0.0147(7) 0.0686(7) 0.0645(5) 0.060(2) Uani 0.4 1 d D U P E 1
H1T1 H 0.0528 0.0593 0.0381 0.072 Uiso 0.4 1 calc R U P E 1
H1T2 H -0.0397 0.0023 0.0742 0.072 Uiso 0.4 1 calc R U P E 1
Cl1T Cl -0.0932(2) 0.0878(2) -0.0242(2) 0.0680(7) Uani 0.4 1 d D U P E 1
Cl2T Cl -0.0034(3) 0.1697(3) 0.1806(3) 0.0836(9) Uani 0.4 1 d D U P E 1
C1T' C 0.0119(12) 0.2577(8) 0.2099(9) 0.097(4) Uani 0.3 1 d D U P F 2
H1T3 H -0.0266 0.3191 0.2404 0.116 Uiso 0.3 1 calc R U P F 2
H1T4 H 0.0698 0.2813 0.1785 0.116 Uiso 0.3 1 calc R U P F 2
Cl1' Cl -0.0635(4) 0.1609(6) 0.1179(5) 0.133(3) Uani 0.3 1 d D U P F 2
Cl2' Cl 0.0558(3) 0.2151(3) 0.3038(3) 0.0668(9) Uani 0.3 1 d D U P F 2
C1T" C 0.951(3) 0.4119(13) 0.4816(16) 0.188(6) Uani 0.25 1 d D U P G -3
H1T5 H 0.9992 0.3588 0.4773 0.226 Uiso 0.25 1 calc R U P G -3
H1T6 H 0.8947 0.3774 0.4306 0.226 Uiso 0.25 1 calc R U P G -3
Cl1" Cl 1.0103(7) 0.5146(13) 0.4540(10) 0.179(5) Uani 0.25 1 d D U P G -3
Cl2" Cl 0.9060(7) 0.4530(12) 0.6006(11) 0.182(5) Uani 0.25 1 d D U P G -3
C1TX C 0.955(4) 0.4479(16) 0.420(4) 0.113(5) Uani 0.1 1 d D U P H -4
H1T7 H 0.9057 0.4919 0.4058 0.136 Uiso 0.1 1 calc R U P H -4
H1T8 H 0.9927 0.4902 0.4854 0.136 Uiso 0.1 1 calc R U P H -4
Cl1X Cl 1.0383(13) 0.4200(16) 0.3268(14) 0.105(4) Uani 0.1 1 d D U P H -4
Cl2X Cl 0.8919(16) 0.3380(19) 0.4332(18) 0.135(6) Uani 0.1 1 d D U P H -4
C1Y C 0.9500(13) 0.230(2) 0.210(3) 0.079(4) Uani 0.1 1 d D U P H 4
H1Y1 H 0.9244 0.2073 0.2650 0.094 Uiso 0.1 1 calc R U P H 4
H1Y2 H 0.8950 0.2613 0.1854 0.094 Uiso 0.1 1 calc R U P H 4
Cl1Y Cl 0.9763(8) 0.1188(9) 0.1123(9) 0.058(2) Uani 0.1 1 d D U P H 4
Cl2Y Cl 1.0485(10) 0.3269(10) 0.2607(10) 0.083(3) Uani 0.1 1 d D U P H 4
loop_
_atom_site_aniso_label
_atom_site_aniso_U_11
_atom_site_aniso_U_22
_atom_site_aniso_U_33
_atom_site_aniso_U_23
_atom_site_aniso_U_13
_atom_site_aniso_U_12
S1 0.0209(3) 0.0172(3) 0.0167(3) 0.0061(2) 0.0024(2) -0.0018(2)
S2 0.0212(3) 0.0183(3) 0.0169(3) 0.0038(2) 0.0026(2) 0.0023(2)
S3 0.0208(3) 0.0177(3) 0.0153(3) 0.0038(2) 0.0033(2) -0.0016(2)
S4 0.0233(3) 0.0166(3) 0.0138(3) 0.0054(2) 0.0028(2) 0.0008(2)
N1 0.0193(9) 0.0171(10) 0.0170(9) 0.0062(8) 0.0051(7) 0.0006(7)
N2 0.0209(9) 0.0170(10) 0.0143(9) 0.0062(8) 0.0001(7) -0.0016(7)
O1 0.0217(9) 0.0297(12) 0.0276(10) 0.0118(9) 0.0026(8) -0.0043(8)
O2 0.0303(10) 0.0182(10) 0.0180(9) 0.0048(7) 0.0032(7) 0.0010(8)
O3 0.0259(10) 0.0186(11) 0.0660(17) 0.0050(11) 0.0086(10) -0.0008(8)
O4 0.0522(14) 0.0381(13) 0.0151(9) 0.0094(9) 0.0108(9) 0.0209(10)
O5 0.0279(9) 0.0292(11) 0.0130(8) 0.0051(7) 0.0030(6) -0.0048(7)
O6 0.0286(9) 0.0183(10) 0.0311(10) 0.0039(8) 0.0063(8) 0.0027(7)
O7 0.0260(9) 0.0270(11) 0.0251(10) 0.0107(8) 0.0057(7) 0.0057(8)
O8 0.0307(10) 0.0195(10) 0.0149(9) 0.0026(7) 0.0020(7) -0.0026(7)
C1 0.0179(10) 0.0197(12) 0.0136(10) 0.0073(9) 0.0013(7) -0.0012(8)
C2 0.0238(11) 0.0222(14) 0.0172(11) 0.0056(10) 0.0020(9) 0.0016(9)
C3 0.0210(11) 0.0319(16) 0.0231(13) 0.0095(11) 0.0057(9) 0.0075(10)
C4 0.0188(11) 0.0368(17) 0.0242(12) 0.0121(11) 0.0008(9) 0.0015(10)
C5 0.0272(12) 0.0288(15) 0.0187(12) 0.0044(11) -0.0025(9) -0.0018(10)
C6 0.0253(11) 0.0215(13) 0.0157(11) 0.0051(9) 0.0021(9) 0.0015(9)
C7 0.0177(9) 0.0165(11) 0.0162(10) 0.0069(9) 0.0033(7) -0.0008(8)
C8 0.0187(10) 0.0158(12) 0.0172(11) 0.0076(9) 0.0018(8) 0.0000(8)
C9 0.0208(10) 0.0252(13) 0.0172(10) 0.0109(10) -0.0008(8) -0.0040(9)
C10 0.0185(10) 0.0238(13) 0.0165(10) 0.0104(9) 0.0020(8) 0.0013(8)
C11 0.0254(11) 0.0247(14) 0.0182(11) 0.0088(10) 0.0026(9) 0.0037(9)
C12 0.0259(13) 0.0392(17) 0.0202(12) 0.0109(11) 0.0059(9) 0.0105(11)
C13 0.0200(11) 0.0470(19) 0.0290(14) 0.0203(13) 0.0064(10) 0.0064(11)
C14 0.0184(11) 0.0378(16) 0.0266(13) 0.0174(12) 0.0008(9) -0.0041(10)
C15 0.0202(11) 0.0253(14) 0.0189(11) 0.0105(10) 0.0003(9) -0.0020(9)
C16 0.0312(13) 0.0174(13) 0.0153(11) 0.0076(10) 0.0041(9) -0.0008(10)
C17 0.0326(14) 0.0210(14) 0.0169(11) 0.0082(10) 0.0062(9) 0.0020(10)
C18 0.0348(14) 0.0220(14) 0.0196(12) 0.0081(11) 0.0008(10) 0.0027(10)
C19 0.0431(15) 0.0134(13) 0.0170(11) 0.0064(10) 0.0034(10) 0.0009(10)
C20 0.0382(14) 0.0184(13) 0.0182(12) 0.0065(10) 0.0082(10) -0.0030(11)
C21 0.0307(13) 0.0223(14) 0.0209(12) 0.0072(10) 0.0093(10) 0.0013(10)
C22 0.062(2) 0.0269(18) 0.0171(12) 0.0076(11) 0.0011(14) 0.0096(15)
C23 0.025(2) 0.028(3) 0.020(2) 0.0062(17) 0.002(2) 0.0067(18)
C24 0.0242(18) 0.030(2) 0.040(2) 0.0087(19) 0.0007(17) 0.0044(15)
C25 0.0293(18) 0.032(2) 0.049(2) 0.0042(19) -0.0036(18) 0.0056(16)
C26 0.037(2) 0.034(2) 0.036(2) -0.0030(18) -0.0100(17) 0.0162(18)
C27 0.042(2) 0.044(3) 0.0237(18) 0.0063(17) -0.0022(18) 0.020(2)
C28 0.034(2) 0.040(3) 0.022(2) 0.0100(17) 0.0036(16) 0.0122(18)
C29 0.046(3) 0.046(3) 0.049(3) -0.012(3) -0.021(2) 0.022(3)
C30 0.0199(10) 0.0183(12) 0.0173(10) 0.0044(9) 0.0022(8) -0.0035(8)
C31 0.0258(12) 0.0249(14) 0.0290(13) 0.0143(11) 0.0026(10) -0.0023(10)
C32 0.0296(13) 0.0324(16) 0.0275(13) 0.0148(12) 0.0052(10) -0.0061(11)
C33 0.0261(12) 0.0256(14) 0.0243(12) 0.0034(11) 0.0070(10) -0.0035(10)
C34 0.0219(11) 0.0320(16) 0.0309(14) 0.0112(12) 0.0041(10) 0.0012(10)
C35 0.0227(11) 0.0277(14) 0.0231(12) 0.0113(11) 0.0007(9) -0.0015(10)
C36 0.0314(15) 0.0373(18) 0.0375(16) 0.0093(14) 0.0153(13) -0.0014(13)
C37 0.0267(11) 0.0142(12) 0.0122(10) 0.0070(8) 0.0014(8) 0.0005(8)
C38 0.0245(11) 0.0278(15) 0.0212(12) 0.0134(11) 0.0001(9) 0.0036(10)
C39 0.0346(14) 0.0296(16) 0.0166(11) 0.0130(11) -0.0034(10) 0.0002(11)
C40 0.0351(14) 0.0162(13) 0.0152(11) 0.0065(10) 0.0034(9) -0.0026(10)
C41 0.0235(11) 0.0264(15) 0.0221(12) 0.0097(11) 0.0051(9) 0.0029(10)
C42 0.0290(12) 0.0210(13) 0.0176(11) 0.0095(10) 0.0039(9) 0.0090(10)
C43 0.046(2) 0.028(2) 0.0217(14) 0.0116(14) 0.0111(13) -0.0009(16)
S1' 0.0201(19) 0.018(2) 0.0123(18) 0.0051(16) -0.0042(15) 0.0002(16)
S2' 0.022(2) 0.017(2) 0.017(2) 0.0077(18) -0.0056(18) 0.003(2)
S3' 0.029(3) 0.018(2) 0.016(2) 0.0074(19) 0.001(2) 0.002(2)
S4' 0.022(2) 0.021(2) 0.0114(19) 0.0019(16) 0.0067(17) 0.0034(17)
N1' 0.018(3) 0.016(3) 0.014(3) 0.005(3) -0.003(3) 0.003(3)
N2' 0.018(4) 0.019(3) 0.014(3) 0.007(3) 0.004(3) 0.004(3)
O1' 0.029(6) 0.027(7) 0.011(4) 0.006(4) 0.001(4) -0.005(5)
O2' 0.028(5) 0.017(4) 0.033(7) 0.004(5) -0.007(5) 0.007(5)
O3' 0.017(4) 0.024(7) 0.018(6) 0.011(5) -0.003(4) 0.004(4)
O4' 0.027(6) 0.016(5) 0.023(5) 0.004(5) -0.007(5) 0.000(5)
O5' 0.025(4) 0.026(7) 0.021(7) 0.009(6) 0.004(4) 0.002(5)
O6' 0.019(7) 0.020(5) 0.021(4) 0.006(4) 0.000(4) 0.002(5)
O7' 0.025(5) 0.020(4) 0.023(6) 0.006(4) 0.003(5) 0.004(4)
O8' 0.031(7) 0.027(7) 0.021(5) 0.008(5) 0.009(4) 0.003(5)
C1' 0.016(3) 0.015(4) 0.012(4) 0.005(3) 0.001(3) 0.004(3)
C2' 0.015(4) 0.016(4) 0.013(4) 0.005(3) 0.003(3) 0.004(3)
C3' 0.019(4) 0.022(4) 0.020(4) 0.007(3) 0.006(3) 0.003(3)
C4' 0.021(4) 0.024(4) 0.023(4) 0.006(3) 0.005(3) 0.003(3)
C5' 0.020(4) 0.021(4) 0.020(4) 0.008(3) 0.002(4) 0.002(3)
C6' 0.016(4) 0.014(4) 0.015(4) 0.006(3) 0.000(3) 0.002(3)
C7' 0.016(3) 0.013(4) 0.011(3) 0.006(3) 0.002(2) 0.002(3)
C8' 0.014(3) 0.012(4) 0.010(3) 0.006(3) 0.000(2) 0.001(3)
C9' 0.015(3) 0.016(4) 0.013(3) 0.005(3) 0.003(3) 0.002(3)
C10' 0.015(4) 0.013(4) 0.012(3) 0.005(3) 0.000(3) 0.001(3)
C11' 0.015(4) 0.017(4) 0.013(4) 0.003(3) 0.000(3) 0.000(3)
C12' 0.015(4) 0.017(4) 0.013(4) 0.001(3) 0.000(3) 0.003(4)
C13' 0.017(4) 0.019(5) 0.019(4) 0.006(3) 0.001(4) 0.003(3)
C14' 0.014(5) 0.015(4) 0.017(5) 0.005(3) 0.005(3) 0.002(3)
C15' 0.014(4) 0.017(5) 0.017(5) 0.005(3) 0.002(3) 0.004(3)
C16' 0.021(3) 0.019(4) 0.019(4) 0.006(3) 0.001(3) 0.001(3)
C17' 0.025(4) 0.024(5) 0.023(4) 0.011(3) 0.000(3) 0.000(4)
C18' 0.027(4) 0.028(5) 0.028(4) 0.011(4) 0.003(3) -0.001(4)
C19' 0.025(4) 0.028(5) 0.028(4) 0.008(3) 0.003(3) 0.001(4)
C20' 0.023(4) 0.026(5) 0.026(4) 0.006(3) 0.002(3) 0.004(4)
C21' 0.020(3) 0.020(5) 0.022(4) 0.006(3) 0.000(3) 0.005(4)
C22' 0.026(5) 0.032(9) 0.031(8) 0.001(7) 0.005(6) 0.000(7)
C23' 0.025(4) 0.024(4) 0.023(3) 0.010(3) 0.000(3) 0.003(4)
C24' 0.024(5) 0.025(5) 0.024(4) 0.011(4) 0.001(3) 0.003(4)
C25' 0.026(5) 0.026(6) 0.024(4) 0.012(4) -0.002(3) 0.002(4)
C26' 0.024(5) 0.025(6) 0.025(5) 0.008(4) 0.002(3) 0.001(4)
C27' 0.024(5) 0.025(6) 0.025(5) 0.007(4) 0.000(3) 0.004(4)
C28' 0.026(4) 0.027(5) 0.027(5) 0.008(4) 0.002(3) 0.007(4)
C29' 0.028(10) 0.023(11) 0.026(7) 0.011(8) 0.000(6) -0.001(8)
C30' 0.025(4) 0.021(5) 0.021(4) 0.009(3) 0.001(3) 0.003(4)
C31' 0.026(5) 0.024(6) 0.022(5) 0.009(4) 0.002(3) 0.002(4)
C32' 0.027(5) 0.024(6) 0.024(5) 0.009(4) 0.002(3) 0.004(4)
C33' 0.029(5) 0.023(6) 0.024(5) 0.010(4) 0.000(3) 0.002(4)
C34' 0.027(5) 0.024(6) 0.023(4) 0.010(4) 0.002(3) -0.003(4)
C35' 0.025(5) 0.021(6) 0.021(4) 0.008(4) 0.003(3) 0.000(4)
C36' 0.049(10) 0.039(11) 0.020(8) 0.009(7) 0.002(7) 0.016(7)
C37' 0.027(3) 0.028(4) 0.027(4) 0.007(3) 0.001(3) 0.007(3)
C38' 0.036(4) 0.035(5) 0.035(5) 0.013(4) 0.001(3) 0.008(4)
C39' 0.040(5) 0.037(5) 0.037(5) 0.014(4) -0.001(4) 0.008(4)
C41' 0.039(5) 0.039(5) 0.038(5) 0.012(4) -0.001(4) 0.007(4)
C40' 0.034(4) 0.038(5) 0.035(5) 0.010(4) -0.002(4) 0.005(4)
C42' 0.031(4) 0.035(5) 0.034(5) 0.009(4) -0.002(4) 0.004(3)
C43' 0.041(7) 0.046(10) 0.039(9) 0.017(7) -0.002(7) 0.003(7)
C23" 0.022(3) 0.028(4) 0.023(4) 0.004(3) 0.005(3) 0.009(3)
C24" 0.026(3) 0.029(4) 0.031(3) 0.003(3) -0.001(3) 0.008(2)
C25" 0.027(3) 0.034(4) 0.040(4) 0.002(3) -0.006(3) 0.007(3)
C26" 0.028(3) 0.042(4) 0.038(3) 0.007(3) -0.004(3) 0.014(3)
C27" 0.031(3) 0.041(4) 0.030(3) 0.013(3) 0.003(3) 0.015(3)
C28" 0.026(3) 0.034(4) 0.025(3) 0.012(3) 0.005(2) 0.014(3)
C29" 0.045(5) 0.059(7) 0.059(6) 0.007(5) -0.018(5) 0.026(5)
C1S 0.078(5) 0.047(4) 0.065(4) 0.029(3) -0.008(3) -0.004(3)
Cl1S 0.0801(12) 0.0484(10) 0.0796(13) 0.0233(9) -0.0234(10) -0.0033(8)
Cl2S 0.0792(11) 0.0551(9) 0.0415(7) 0.0204(7) 0.0137(7) 0.0233(8)
C1T 0.049(3) 0.066(4) 0.071(4) 0.036(3) 0.003(3) -0.007(3)
Cl1T 0.0559(13) 0.0684(17) 0.0832(18) 0.0381(15) -0.0115(12) -0.0182(12)
Cl2T 0.075(2) 0.093(3) 0.073(2) 0.0171(19) 0.0119(16) 0.0081(18)
C1T' 0.059(6) 0.098(7) 0.103(7) -0.005(6) 0.000(6) 0.028(6)
Cl1' 0.063(3) 0.146(5) 0.128(5) -0.035(4) -0.024(3) 0.040(3)
Cl2' 0.073(2) 0.066(2) 0.063(2) 0.0235(18) 0.0153(17) 0.0104(17)
C1T" 0.095(8) 0.264(13) 0.261(13) 0.161(12) -0.011(9) 0.034(9)
Cl1" 0.090(5) 0.261(13) 0.234(12) 0.148(10) -0.013(6) 0.037(7)
Cl2" 0.103(6) 0.259(12) 0.271(12) 0.200(10) 0.000(7) 0.030(7)
C1TX 0.110(6) 0.117(6) 0.116(6) 0.045(4) 0.002(4) 0.016(4)
Cl1X 0.101(5) 0.113(6) 0.110(5) 0.050(4) -0.005(4) 0.021(4)
Cl2X 0.129(8) 0.133(8) 0.143(8) 0.048(6) 0.006(7) 0.014(7)
C1Y 0.075(5) 0.081(5) 0.079(5) 0.026(3) 0.007(4) 0.008(4)
Cl1Y 0.041(4) 0.067(5) 0.072(5) 0.032(4) 0.022(4) 0.004(4)
Cl2Y 0.078(4) 0.089(4) 0.082(4) 0.030(3) 0.004(3) 0.003(3)
loop_
_atom_type_symbol
_atom_type_description
_atom_type_scat_dispersion_real
_atom_type_scat_dispersion_imag
_atom_type_scat_source
C C 0.0033 0.0016 'International Tables Vol C Tables 4.2.6.8 and 6.1.1.4'
H H 0.0000 0.0000 'International Tables Vol C Tables 4.2.6.8 and 6.1.1.4'
N N 0.0061 0.0033 'International Tables Vol C Tables 4.2.6.8 and 6.1.1.4'
O O 0.0106 0.0060 'International Tables Vol C Tables 4.2.6.8 and 6.1.1.4'
S S 0.1246 0.1234 'International Tables Vol C Tables 4.2.6.8 and 6.1.1.4'
Cl Cl 0.1484 0.1585 'International Tables Vol C Tables 4.2.6.8 and 6.1.1.4'
loop_
_geom_angle_atom_site_label_1
_geom_angle_atom_site_label_2
_geom_angle_atom_site_label_3
_geom_angle
O1 S1 O2 120.07(13)
O1 S1 N1 106.47(13)
O2 S1 N1 103.88(12)
O1 S1 C16 108.30(13)
O2 S1 C16 108.88(14)
N1 S1 C16 108.72(12)
O4 S2 O3 120.51(16)
O4 S2 N1 106.83(12)
O3 S2 N1 104.72(12)
O4 S2 C23 106.3(3)
O3 S2 C23 110.4(2)
N1 S2 C23 107.4(5)
O5 S3 O6 120.57(12)
O5 S3 N2 105.86(11)
O6 S3 N2 104.68(12)
O5 S3 C30 109.40(12)
O6 S3 C30 109.02(13)
N2 S3 C30 106.30(11)
O7 S4 O8 119.52(13)
O7 S4 N2 110.14(12)
O8 S4 N2 102.57(12)
O7 S4 C37 109.23(12)
O8 S4 C37 109.41(12)
N2 S4 C37 104.89(11)
C7 N1 S2 121.43(17)
C7 N1 S1 117.71(17)
S2 N1 S1 120.13(12)
C9 N2 S3 114.23(16)
C9 N2 S4 115.92(17)
S3 N2 S4 119.10(12)
C6 C1 C2 118.9(2)
C6 C1 C7 122.9(2)
C2 C1 C7 118.1(2)
C3 C2 C1 120.8(3)
C4 C3 C2 119.9(3)
C5 C4 C3 119.6(3)
C4 C5 C6 120.8(3)
C5 C6 C1 120.0(3)
C8 C7 N1 118.8(2)
C8 C7 C1 124.5(2)
N1 C7 C1 115.91(19)
C7 C8 C10 120.2(2)
C7 C8 C9 120.0(2)
C10 C8 C9 119.6(2)
N2 C9 C8 115.68(19)
C15 C10 C11 119.4(2)
C15 C10 C8 119.5(2)
C11 C10 C8 121.1(2)
C12 C11 C10 119.9(3)
C13 C12 C11 120.4(3)
C12 C13 C14 120.1(3)
C13 C14 C15 119.9(3)
C14 C15 C10 120.3(3)
C17 C16 C21 121.1(2)
C17 C16 S1 118.89(19)
C21 C16 S1 119.8(2)
C16 C17 C18 118.9(2)
C17 C18 C19 120.8(3)
C20 C19 C18 119.3(3)
C20 C19 C22 120.5(3)
C18 C19 C22 120.2(3)
C19 C20 C21 121.0(2)
C20 C21 C16 119.0(3)
C28 C23 C24 121.1(4)
C28 C23 S2 120.7(4)
C24 C23 S2 118.0(4)
C23 C24 C25 118.9(5)
C26 C25 C24 120.6(5)
C27 C26 C25 119.4(4)
C27 C26 C29 119.6(6)
C25 C26 C29 121.0(7)
C26 C27 C28 120.9(5)
C23 C28 C27 119.0(5)
C35 C30 C31 121.0(2)
C35 C30 S3 119.5(2)
C31 C30 S3 119.4(2)
C32 C31 C30 118.4(3)
C33 C32 C31 121.5(3)
C32 C33 C34 118.8(2)
C32 C33 C36 120.8(3)
C34 C33 C36 120.4(3)
C33 C34 C35 121.1(3)
C30 C35 C34 119.1(3)
C42 C37 C38 121.6(2)
C42 C37 S4 119.76(18)
C38 C37 S4 118.58(19)
C39 C38 C37 118.6(2)
C38 C39 C40 121.4(3)
C39 C40 C41 118.3(2)
C39 C40 C43 120.7(3)
C41 C40 C43 121.1(3)
C42 C41 C40 121.6(3)
C37 C42 C41 118.5(2)
O2' S1' O1' 119.9
O2' S1' N1' 104.6
O1' S1' N1' 107.8
O2' S1' C16' 109.6
O1' S1' C16' 107.5
N1' S1' C16' 106.8
O3' S2' O4' 121.3
O3' S2' C23' 111.1
O4' S2' C23' 106.5
O3' S2' N1' 106.4
O4' S2' N1' 104.8
C23' S2' N1' 105.7
O5' S3' O6' 120.1
O5' S3' N2' 109.3
O6' S3' N2' 103.4
O5' S3' C30' 110.3
O6' S3' C30' 107.6
N2' S3' C30' 104.8
O8' S4' O7' 120.7
O8' S4' N2' 103.3
O7' S4' N2' 106.3
O8' S4' C37' 111.6
O7' S4' C37' 108.4
N2' S4' C37' 105.1
C7' N1' S1' 120.1
C7' N1' S2' 119.2
S1' N1' S2' 119.5
C9' N2' S3' 116.0
C9' N2' S4' 114.4
S3' N2' S4' 120.9
C2' C1' C6' 118.2
C2' C1' C7' 120.8
C6' C1' C7' 120.5
C3' C2' C1' 120.5
C2' C3' C4' 120.7
C5' C4' C3' 119.5
C6' C5' C4' 119.6
C5' C6' C1' 121.1
C8' C7' N1' 117.7
C8' C7' C1' 123.1
N1' C7' C1' 115.7
C7' C8' C10' 120.9
C7' C8' C9' 118.4
C10' C8' C9' 120.6
N2' C9' C8' 115.1
C11' C10' C15' 117.7
C11' C10' C8' 121.8
C15' C10' C8' 120.5
C12' C11' C10' 121.1
C11' C12' C13' 121.1
C12' C13' C14' 118.2
C15' C14' C13' 120.3
C14' C15' C10' 121.2
C17' C16' C21' 118.9
C17' C16' S1' 119.4
C21' C16' S1' 121.5
C18' C17' C16' 118.2
C17' C18' C19' 122.6
C20' C19' C18' 117.9
C20' C19' C22' 122.8
C18' C19' C22' 119.3
C19' C20' C21' 121.1
C20' C21' C16' 120.5
C28' C23' C24' 112.5
C28' C23' S2' 125.5
C24' C23' S2' 119.6
C25' C24' C23' 122.2
C24' C25' C26' 119.8
C27' C26' C25' 118.5
C27' C26' C29' 118.6
C25' C26' C29' 122.6
C26' C27' C28' 120.2
C23' C28' C27' 120.6
C35' C30' C31' 120.3
C35' C30' S3' 116.7
C31' C30' S3' 122.8
C30' C31' C32' 118.7
C33' C32' C31' 121.7
C32' C33' C34' 118.2
C32' C33' C36' 122.4
C34' C33' C36' 119.3
C35' C34' C33' 120.6
C30' C35' C34' 119.3
C42' C37' C38' 120.9
C42' C37' S4' 121.4
C38' C37' S4' 117.7
C39' C38' C37' 119.5
C41' C39' C38' 121.1
C39' C41' C40' 117.6
C39' C41' C43' 121.4
C40' C41' C43' 121.0
C42' C40' C41' 122.5
C37' C42' C40' 118.2
C28" C23" C24" 121.5(6)
C23" C24" C25" 118.6(7)
C26" C25" C24" 120.7(7)
C27" C26" C25" 119.5(5)
C27" C26" C29" 119.6(8)
C25" C26" C29" 120.8(8)
C26" C27" C28" 120.7(7)
C23" C28" C27" 118.9(7)
Cl1S C1S Cl2S 116.0(3)
Cl1T C1T Cl2T 114.6(5)
Cl1' C1T' Cl2' 112.4(5)
Cl1" C1T" Cl2" 112.2(6)
Cl1X C1TX Cl2X 114.3(7)
Cl2Y Cl1X C1TX 126.2(13)
Cl1Y C1Y Cl2Y 116.4(4)
Cl1X Cl2Y C1Y 123.7(12)
loop_
_geom_bond_atom_site_label_1
_geom_bond_atom_site_label_2
_geom_bond_distance
S1 O1 1.432(2)
S1 O2 1.433(2)
S1 N1 1.695(2)
S1 C16 1.760(3)
S2 O4 1.422(2)
S2 O3 1.424(2)
S2 N1 1.694(2)
S2 C23 1.763(4)
S3 O5 1.428(2)
S3 O6 1.431(2)
S3 N2 1.687(2)
S3 C30 1.754(2)
S4 O7 1.432(2)
S4 O8 1.437(2)
S4 N2 1.704(2)
S4 C37 1.754(2)
N1 C7 1.465(3)
N2 C9 1.489(3)
C1 C6 1.398(3)
C1 C2 1.400(4)
C1 C7 1.492(3)
C2 C3 1.389(4)
C3 C4 1.389(4)
C4 C5 1.387(4)
C5 C6 1.389(4)
C7 C8 1.343(3)
C8 C10 1.486(3)
C8 C9 1.519(3)
C10 C15 1.398(4)
C10 C11 1.400(4)
C11 C12 1.391(4)
C12 C13 1.385(5)
C13 C14 1.391(4)
C14 C15 1.392(3)
C16 C17 1.385(4)
C16 C21 1.396(3)
C17 C18 1.392(4)
C18 C19 1.399(4)
C19 C20 1.379(4)
C19 C22 1.506(4)
C20 C21 1.389(4)
C23 C28 1.381(6)
C23 C24 1.396(7)
C24 C25 1.396(6)
C25 C26 1.389(9)
C26 C27 1.386(9)
C26 C29 1.528(6)
C27 C28 1.398(7)
C30 C35 1.383(4)
C30 C31 1.398(4)
C31 C32 1.394(4)
C32 C33 1.383(4)
C33 C34 1.388(4)
C33 C36 1.508(4)
C34 C35 1.393(4)
C37 C42 1.380(4)
C37 C38 1.395(3)
C38 C39 1.389(4)
C39 C40 1.390(4)
C40 C41 1.396(4)
C40 C43 1.502(4)
C41 C42 1.389(3)
S1' O2' 1.4276
S1' O1' 1.4420
S1' N1' 1.6893
S1' C16' 1.7617
S2' O3' 1.4262
S2' O4' 1.4305
S2' C23' 1.6372
S2' N1' 1.7050
S3' O5' 1.4136
S3' O6' 1.4388
S3' N2' 1.6750
S3' C30' 1.7672
S4' O8' 1.4256
S4' O7' 1.4396
S4' N2' 1.7045
S4' C37' 1.7567
N1' C7' 1.4669
N2' C9' 1.4774
C1' C2' 1.3890
C1' C6' 1.4133
C1' C7' 1.4942
C2' C3' 1.3797
C3' C4' 1.3962
C4' C5' 1.3873
C5' C6' 1.3807
C7' C8' 1.3518
C8' C10' 1.4770
C8' C9' 1.5103
C10' C11' 1.3885
C10' C15' 1.4036
C11' C12' 1.3844
C12' C13' 1.3888
C13' C14' 1.4030
C14' C15' 1.3850
C16' C17' 1.4006
C16' C21' 1.4017
C17' C18' 1.3919
C18' C19' 1.3935
C19' C20' 1.3717
C19' C22' 1.5004
C20' C21' 1.3941
C23' C28' 1.3914
C23' C24' 1.4467
C24' C25' 1.3852
C25' C26' 1.3859
C26' C27' 1.3845
C26' C29' 1.5274
C27' C28' 1.4098
C30' C35' 1.3772
C30' C31' 1.3937
C31' C32' 1.3953
C32' C33' 1.3698
C33' C34' 1.4003
C33' C36' 1.5094
C34' C35' 1.3979
C37' C42' 1.3704
C37' C38' 1.3980
C38' C39' 1.3876
C39' C41' 1.3778
C41' C40' 1.4030
C41' C43' 1.4951
C40' C42' 1.3874
C23" C28" 1.381(7)
C23" C24" 1.394(7)
C24" C25" 1.397(7)
C25" C26" 1.389(10)
C26" C27" 1.386(10)
C26" C29" 1.529(7)
C27" C28" 1.396(7)
C1S Cl1S 1.720(5)
C1S Cl2S 1.725(5)
C1T Cl1T 1.708(6)
C1T Cl2T 1.726(6)
C1T' Cl1' 1.713(6)
C1T' Cl2' 1.724(7)
C1T" Cl1" 1.714(6)
C1T" Cl2" 1.725(7)
C1TX Cl1X 1.713(7)
C1TX Cl2X 1.724(7)
Cl1X Cl2Y 1.30(2)
C1Y Cl1Y 1.723(5)
C1Y Cl2Y 1.728(5)
loop_
_geom_torsion_atom_site_label_1
_geom_torsion_atom_site_label_2
_geom_torsion_atom_site_label_3
_geom_torsion_atom_site_label_4
_geom_torsion
O4_a S2_a N1_a C7_a 137.8(2)
O3 S2 N1 C7 8.9(2)
C23 S2 N1 C7 -108.5(3)
O4 S2 N1 S1 -32.11(19)
O3 S2 N1 S1 -161.00(16)
C23 S2 N1 S1 81.6(2)
O1 S1 N1 C7 145.85(18)
O2 S1 N1 C7 18.2(2)
C16 S1 N1 C7 -97.7(2)
O1 S1 N1 S2 -43.88(18)
O2 S1 N1 S2 -171.57(14)
C16 S1 N1 S2 72.60(17)
O5 S3 N2 C9 -176.78(17)
O6 S3 N2 C9 54.82(19)
C30 S3 N2 C9 -60.5(2)
O5 S3 N2 S4 -33.74(16)
O6 S3 N2 S4 -162.13(13)
C30 S3 N2 S4 82.55(15)
O7 S4 N2 C9 97.16(18)
O8 S4 N2 C9 -31.11(19)
C37 S4 N2 C9 -145.42(17)
O7 S4 N2 S3 -45.29(16)
O8 S4 N2 S3 -173.56(13)
C37 S4 N2 S3 72.14(15)
C6 C1 C2 C3 -0.2(4)
C7 C1 C2 C3 175.8(2)
C1 C2 C3 C4 0.6(4)
C2 C3 C4 C5 -0.3(4)
C3 C4 C5 C6 -0.5(4)
C4 C5 C6 C1 0.9(4)
C2 C1 C6 C5 -0.5(4)
C7 C1 C6 C5 -176.3(2)
S2 N1 C7 C8 98.3(3)
S1 N1 C7 C8 -91.5(3)
S2 N1 C7 C1 -91.6(2)
S1 N1 C7 C1 78.5(2)
C6 C1 C7 C8 -131.5(3)
C2 C1 C7 C8 52.7(4)
C6 C1 C7 N1 59.1(3)
C2 C1 C7 N1 -116.7(3)
N1 C7 C8 C10 -179.7(2)
C1 C7 C8 C10 11.2(4)
N1 C7 C8 C9 6.3(4)
C1 C7 C8 C9 -162.8(2)
S3 N2 C9 C8 -136.1(2)
S4 N2 C9 C8 79.6(3)
C7 C8 C9 N2 -166.7(2)
C10 C8 C9 N2 19.2(3)
C7 C8 C10 C15 55.2(4)
C9 C8 C10 C15 -130.8(3)
C7 C8 C10 C11 -123.9(3)
C9 C8 C10 C11 50.1(3)
C15 C10 C11 C12 -0.7(4)
C8 C10 C11 C12 178.4(2)
C10 C11 C12 C13 1.6(4)
C11 C12 C13 C14 -1.2(4)
C12 C13 C14 C15 -0.2(4)
C13 C14 C15 C10 1.1(4)
C11 C10 C15 C14 -0.6(4)
C8 C10 C15 C14 -179.8(2)
O1 S1 C16 C17 -163.1(2)
O2 S1 C16 C17 -31.0(3)
N1 S1 C16 C17 81.6(2)
O1 S1 C16 C21 12.4(3)
O2 S1 C16 C21 144.5(2)
N1 S1 C16 C21 -102.9(2)
C21 C16 C17 C18 0.5(4)
S1 C16 C17 C18 176.0(2)
C16 C17 C18 C19 -0.4(4)
C17 C18 C19 C20 0.7(4)
C17 C18 C19 C22 -179.6(3)
C18 C19 C20 C21 -1.0(4)
C22 C19 C20 C21 179.3(3)
C19 C20 C21 C16 1.0(4)
C17 C16 C21 C20 -0.8(4)
S1 C16 C21 C20 -176.2(2)
O4 S2 C23 C28 -155.9(9)
O3 S2 C23 C28 -23.6(12)
N1 S2 C23 C28 90.1(10)
O4 S2 C23 C24 19.9(11)
O3 S2 C23 C24 152.3(8)
N1 S2 C23 C24 -94.1(10)
C28 C23 C24 C25 -1.4(16)
S2 C23 C24 C25 -177.2(6)
C23 C24 C25 C26 0.9(11)
C24 C25 C26 C27 -0.2(8)
C24 C25 C26 C29 179.3(5)
C25 C26 C27 C28 0.1(8)
C29 C26 C27 C28 -179.5(5)
C24 C23 C28 C27 1.3(16)
S2 C23 C28 C27 177.0(7)
C26 C27 C28 C23 -0.6(10)
O5 S3 C30 C35 18.6(3)
O6 S3 C30 C35 152.4(2)
N2 S3 C30 C35 -95.2(2)
O5 S3 C30 C31 -162.9(2)
O6 S3 C30 C31 -29.1(3)
N2 S3 C30 C31 83.2(2)
C35 C30 C31 C32 2.2(4)
S3 C30 C31 C32 -176.2(2)
C30 C31 C32 C33 -1.5(4)
C31 C32 C33 C34 -0.4(5)
C31 C32 C33 C36 179.4(3)
C32 C33 C34 C35 1.8(4)
C36 C33 C34 C35 -178.1(3)
C31 C30 C35 C34 -0.9(4)
S3 C30 C35 C34 177.5(2)
C33 C34 C35 C30 -1.1(4)
O7 S4 C37 C42 -174.5(2)
O8 S4 C37 C42 -42.0(3)
N2 S4 C37 C42 67.4(2)
O7 S4 C37 C38 2.5(3)
O8 S4 C37 C38 135.1(2)
N2 S4 C37 C38 -115.5(2)
C42 C37 C38 C39 -2.0(4)
S4 C37 C38 C39 -179.0(2)
C37 C38 C39 C40 -0.2(4)
C38 C39 C40 C41 1.4(4)
C38 C39 C40 C43 -177.7(3)
C39 C40 C41 C42 -0.7(4)
C43 C40 C41 C42 178.5(3)
C38 C37 C42 C41 2.7(4)
S4 C37 C42 C41 179.7(2)
C40 C41 C42 C37 -1.4(4)
O2' S1' N1' C7' -1.9
O1' S1' N1' C7' 126.7
C16' S1' N1' C7' -118.0
O2' S1' N1' S2' -169.6
O1' S1' N1' S2' -41.0
C16' S1' N1' S2' 74.3
O3' S2' N1' C7' 145.5
O4' S2' N1' C7' 16.0
C23' S2' N1' C7' -96.3
O3' S2' N1' S1' -46.7
O4' S2' N1' S1' -176.2
C23' S2' N1' S1' 71.5
O5' S3' N2' C9' 104.1
O6' S3' N2' C9' -25.0
C30' S3' N2' C9' -137.6
O5' S3' N2' S4' -41.7
O6' S3' N2' S4' -170.8
C30' S3' N2' S4' 76.5
O8' S4' N2' C9' -168.8
O7' S4' N2' C9' 63.2
C37' S4' N2' C9' -51.7
O8' S4' N2' S3' -22.5
O7' S4' N2' S3' -150.5
C37' S4' N2' S3' 94.6
C6' C1' C2' C3' -0.9
C7' C1' C2' C3' -173.1
C1' C2' C3' C4' 4.5
C2' C3' C4' C5' -2.8
C3' C4' C5' C6' -2.3
C4' C5' C6' C1' 5.9
C2' C1' C6' C5' -4.3
C7' C1' C6' C5' 167.9
S1' N1' C7' C8' 107.4
S2' N1' C7' C8' -84.8
S1' N1' C7' C1' -93.0
S2' N1' C7' C1' 74.7
C2' C1' C7' C8' -140.3
C6' C1' C7' C8' 47.7
C2' C1' C7' N1' 61.3
C6' C1' C7' N1' -110.6
N1' C7' C8' C10' 177.2
C1' C7' C8' C10' 19.2
N1' C7' C8' C9' 0.4
C1' C7' C8' C9' -157.6
S3' N2' C9' C8' 78.8
S4' N2' C9' C8' -133.2
C7' C8' C9' N2' -161.2
C10' C8' C9' N2' 22.0
C7' C8' C10' C11' -132.2
C9' C8' C10' C11' 44.6
C7' C8' C10' C15' 48.1
C9' C8' C10' C15' -135.1
C15' C10' C11' C12' -5.6
C8' C10' C11' C12' 174.7
C10' C11' C12' C13' 7.0
C11' C12' C13' C14' -3.2
C12' C13' C14' C15' -1.8
C13' C14' C15' C10' 3.1
C11' C10' C15' C14' 0.6
C8' C10' C15' C14' -179.7
O2' S1' C16' C17' -35.9
O1' S1' C16' C17' -167.7
N1' S1' C16' C17' 76.8
O2' S1' C16' C21' 148.6
O1' S1' C16' C21' 16.8
N1' S1' C16' C21' -98.7
C21' C16' C17' C18' -9.1
S1' C16' C17' C18' 175.3
C16' C17' C18' C19' 11.4
C17' C18' C19' C20' -6.7
C17' C18' C19' C22' 171.7
C18' C19' C20' C21' -0.3
C22' C19' C20' C21' -178.6
C19' C20' C21' C16' 2.3
C17' C16' C21' C20' 2.5
S1' C16' C21' C20' 178.0
O3' S2' C23' C28' 163.2
O4' S2' C23' C28' -62.9
N1' S2' C23' C28' 48.2
O3' S2' C23' C24' 2.2
O4' S2' C23' C24' 136.2
N1' S2' C23' C24' -112.7
C28' C23' C24' C25' 22.9
S2' C23' C24' C25' -173.9
C23' C24' C25' C26' -11.3
C24' C25' C26' C27' 3.9
C24' C25' C26' C29' -170.2
C25' C26' C27' C28' -9.6
C29' C26' C27' C28' 164.7
C24' C23' C28' C27' -28.4
S2' C23' C28' C27' 169.5
C26' C27' C28' C23' 23.4
O5' S3' C30' C35' 26.1
O6' S3' C30' C35' 158.9
N2' S3' C30' C35' -91.5
O5' S3' C30' C31' -159.4
O6' S3' C30' C31' -26.5
N2' S3' C30' C31' 83.1
C35' C30' C31' C32' -10.3
S3' C30' C31' C32' 175.4
C30' C31' C32' C33' 2.0
C31' C32' C33' C34' 8.0
C31' C32' C33' C36' -168.3
C32' C33' C34' C35' -10.1
C36' C33' C34' C35' 166.3
C31' C30' C35' C34' 8.2
S3' C30' C35' C34' -177.1
C33' C34' C35' C30' 2.1
O8' S4' C37' C42' 30.5
O7' S4' C37' C42' 165.8
N2' S4' C37' C42' -80.8
O8' S4' C37' C38' -151.3
O7' S4' C37' C38' -16.0
N2' S4' C37' C38' 97.4
C42' C37' C38' C39' 5.0
S4' C37' C38' C39' -173.1
C37' C38' C39' C41' -4.0
C38' C39' C41' C40' 2.6
C38' C39' C41' C43' -178.2
C39' C41' C40' C42' -2.3
C43' C41' C40' C42' 178.5
C38' C37' C42' C40' -4.6
S4' C37' C42' C40' 173.5
C41' C40' C42' C37' 3.3
C28" C23" C24" C25" -1(3)
C23" C24" C25" C26" 0(2)
C24" C25" C26" C27" -0.4(17)
C24" C25" C26" C29" -175.7(11)
C25" C26" C27" C28" 0.8(17)
C29" C26" C27" C28" 176.2(10)
C24" C23" C28" C27" 1(3)
C26" C27" C28" C23" -1(2)
Cl2X C1TX Cl1X Cl2Y 8(6)
C1TX Cl1X Cl2Y C1Y 34(5)
Cl1Y C1Y Cl2Y Cl1X 172(2)
