#------------------------------------------------------------------------------
#$Date: 2016-02-18 17:37:37 +0200 (Thu, 18 Feb 2016) $
#$Revision: 176729 $
#$URL: svn://www.crystallography.net/cod/cif/1/51/84/1518429.cif $
#------------------------------------------------------------------------------
#
# This file is available in the Crystallography Open Database (COD),
# http://www.crystallography.net/
#
# All data on this site have been placed in the public domain by the
# contributors.
#
data_1518429
loop_
_publ_author_name
'Han, Dandan'
'Li, Zhiming'
'Fan, Renhua'
_publ_section_title
;
 Oxidative nucleophilic cyclization of 2-alkynylanilines with thiophenols
 under metal-free conditions.
;
_journal_issue                   24
_journal_name_full               'Organic letters'
_journal_page_first              6508
_journal_page_last               6511
_journal_paper_doi               10.1021/ol5034139
_journal_volume                  16
_journal_year                    2014
_chemical_formula_sum            'C29 H25 N O2 S2'
_chemical_formula_weight         483.62
_chemical_name_systematic
; 
 ? 
;
_space_group_crystal_system      triclinic
_space_group_IT_number           2
_space_group_name_Hall           '-P 1'
_space_group_name_H-M_alt        'P -1'
_symmetry_space_group_name_Hall  '-P 1'
_symmetry_space_group_name_H-M   'P -1'
_atom_sites_solution_hydrogens   geom
_audit_creation_method           SHELXL-2013
_cell_angle_alpha                99.988(2)
_cell_angle_beta                 99.239(2)
_cell_angle_gamma                102.072(2)
_cell_formula_units_Z            4
_cell_length_a                   11.2483(13)
_cell_length_b                   12.9991(15)
_cell_length_c                   18.089(2)
_cell_measurement_reflns_used    6799
_cell_measurement_temperature    223(2)
_cell_measurement_theta_max      27.68
_cell_measurement_theta_min      2.34
_cell_volume                     2493.5(5)
_computing_cell_refinement       'Bruker SAINT'
_computing_data_collection       'Bruker APEX2'
_computing_data_reduction        'Bruker SAINT'
_computing_molecular_graphics    'Bruker SHELXTL'
_computing_publication_material  'Bruker SHELXTL'
_computing_structure_refinement  'SHELXL-2013 (Sheldrick, 2013)'
_computing_structure_solution    'SHELXS-97 (Sheldrick, 2008)'
_diffrn_ambient_temperature      223(2)
_diffrn_measured_fraction_theta_full 0.986
_diffrn_measured_fraction_theta_max 0.987
_diffrn_measurement_device_type  'Bruker APEX-II CCD'
_diffrn_measurement_method       '\f and \w scans'
_diffrn_radiation_type           MoK\a
_diffrn_radiation_wavelength     0.71073
_diffrn_reflns_av_R_equivalents  0.0219
_diffrn_reflns_av_unetI/netI     0.0451
_diffrn_reflns_Laue_measured_fraction_full 0.986
_diffrn_reflns_Laue_measured_fraction_max 0.987
_diffrn_reflns_limit_h_max       14
_diffrn_reflns_limit_h_min       -14
_diffrn_reflns_limit_k_max       16
_diffrn_reflns_limit_k_min       -10
_diffrn_reflns_limit_l_max       23
_diffrn_reflns_limit_l_min       -23
_diffrn_reflns_number            17669
_diffrn_reflns_point_group_measured_fraction_full 0.986
_diffrn_reflns_point_group_measured_fraction_max 0.987
_diffrn_reflns_theta_full        25.242
_diffrn_reflns_theta_max         27.000
_diffrn_reflns_theta_min         1.168
_exptl_absorpt_coefficient_mu    0.240
_exptl_absorpt_correction_T_max  0.746
_exptl_absorpt_correction_T_min  0.687
_exptl_absorpt_correction_type   multi-scan
_exptl_absorpt_process_details   sadabs
_exptl_crystal_colour            yellow
_exptl_crystal_density_diffrn    1.288
_exptl_crystal_description       block
_exptl_crystal_F_000             1016
_exptl_crystal_size_max          0.560
_exptl_crystal_size_mid          0.450
_exptl_crystal_size_min          0.420
_refine_diff_density_max         0.330
_refine_diff_density_min         -0.313
_refine_diff_density_rms         0.071
_refine_ls_extinction_method     none
_refine_ls_goodness_of_fit_ref   1.026
_refine_ls_hydrogen_treatment    constr
_refine_ls_matrix_type           full
_refine_ls_number_parameters     619
_refine_ls_number_reflns         10735
_refine_ls_number_restraints     0
_refine_ls_restrained_S_all      1.026
_refine_ls_R_factor_all          0.0691
_refine_ls_R_factor_gt           0.0480
_refine_ls_shift/su_max          0.004
_refine_ls_shift/su_mean         0.000
_refine_ls_structure_factor_coef Fsqd
_refine_ls_weighting_details
; 
 w=1/[\s^2^(Fo^2^)+(0.1170P)^2^+0.2321P] 
 where P=(Fo^2^+2Fc^2^)/3 
;
_refine_ls_weighting_scheme      calc
_refine_ls_wR_factor_gt          0.1486
_refine_ls_wR_factor_ref         0.1778
_reflns_Friedel_coverage         0.000
_reflns_number_gt                7926
_reflns_number_total             10735
_reflns_threshold_expression     'I > 2\s(I)'
_cod_data_source_file            ol5034139_si_002.cif
_cod_data_source_block           mo_40819b
_cod_depositor_comments          'Adding full bibliography for 1518429.cif.'
_cod_database_code               1518429
#BEGIN Tags that were not found in dictionaries:
_shelx_space_group_comment
; 
The symmetry employed for this shelxl refinement is uniquely defined 
by the following loop, which should always be used as a source of 
symmetry information in preference to the above space-group names. 
They are only intended as comments. 
;
_shelx_estimated_absorpt_t_min   0.877
_shelx_estimated_absorpt_t_max   0.906
_shelxl_version_number           2013-2
_shelx_res_file
; 
TITL mo_40819b in P-1 
CELL 0.71073  11.2483  12.9991  18.0889  99.988  99.239 102.072 
ZERR    4.00   0.0013   0.0015   0.0021   0.002   0.002   0.002 
LATT 1 
SFAC C  H  N  O  S 
UNIT 116 100 4 8 8 
OMIT -1 1 11 
OMIT -3 2 11 
OMIT -2 2 13 
OMIT 2 -10 4 
OMIT -3 2 13 
OMIT -2 1 13 
OMIT 1 0 12 
OMIT 0 1 13 
OMIT 2 -10 3 
OMIT -3 1 5 
OMIT -2 1 2 
OMIT 2 -10 6 
OMIT -6 3 9 
OMIT  -2.00  54.00 
L.S. 4 
ACTA 
BOND 
FMAP 2 
PLAN 1 
SIZE 0.420 0.450 0.560 
CONF 
TEMP -50 
WGHT    0.117000    0.232100 
FVAR       0.15262 
MOLE 1 
S1    5    0.257537    0.545759    0.076015    11.00000    0.03674    0.04346 = 
         0.02848    0.01405    0.00359    0.00627 
S2    5    0.399702    0.272406    0.238486    11.00000    0.04506    0.05560 = 
         0.04179    0.01749    0.00830    0.02557 
N1    3    0.288680    0.423806    0.076351    11.00000    0.03558    0.04328 = 
         0.02514    0.00766    0.00454    0.00750 
O1    4    0.373595    0.622483    0.088823    11.00000    0.04146    0.04856 = 
         0.04190    0.01894    0.00704    0.00258 
O2    4    0.168099    0.531795    0.007254    11.00000    0.04832    0.05930 = 
         0.03297    0.01819   -0.00256    0.00860 
C1    1    0.374273    0.414216    0.142194    11.00000    0.03409    0.04503 = 
         0.02747    0.00633    0.00635    0.01393 
C2    1    0.324573    0.325059    0.166620    11.00000    0.03804    0.04358 = 
         0.02948    0.00806    0.00780    0.01640 
C3    1    0.202691    0.273524    0.118515    11.00000    0.03795    0.03816 = 
         0.02923    0.00355    0.00785    0.01194 
C4    1    0.113478    0.180737    0.118194    11.00000    0.04753    0.03881 = 
         0.03703    0.00745    0.01356    0.01352 
AFIX  43 
H4    2    0.127659    0.138817    0.154617    11.00000   -1.20000 
AFIX   0 
C5    1    0.004331    0.151203    0.063898    11.00000    0.04496    0.04015 = 
         0.04298   -0.00176    0.01583    0.00532 
C6    1   -0.012369    0.214146    0.009237    11.00000    0.04051    0.05466 = 
         0.03878   -0.00018   -0.00103    0.00294 
AFIX  43 
H6    2   -0.086466    0.193158   -0.027996    11.00000   -1.20000 
AFIX   0 
C7    1    0.074503    0.305170    0.007480    11.00000    0.04448    0.05277 = 
         0.03263    0.00794    0.00047    0.00597 
AFIX  43 
H7    2    0.061246    0.345627   -0.030041    11.00000   -1.20000 
AFIX   0 
C8    1    0.182462    0.334563    0.063514    11.00000    0.03835    0.04107 = 
         0.02670    0.00314    0.00749    0.00959 
C9    1    0.188730    0.569541    0.156046    11.00000    0.03524    0.03601 = 
         0.03327    0.01156    0.00572    0.01051 
C10   1    0.262775    0.626323    0.226273    11.00000    0.03635    0.04204 = 
         0.04109    0.01008    0.00300    0.00819 
AFIX  43 
H10   2    0.348108    0.655274    0.230606    11.00000   -1.20000 
AFIX   0 
C11   1    0.208922    0.639524    0.289605    11.00000    0.04764    0.05094 = 
         0.03538    0.00490    0.00351    0.01428 
AFIX  43 
H11   2    0.258385    0.678448    0.337179    11.00000   -1.20000 
AFIX   0 
C12   1    0.083299    0.596547    0.284530    11.00000    0.05157    0.04671 = 
         0.04336    0.01039    0.01675    0.02161 
C13   1    0.011978    0.540747    0.213512    11.00000    0.03595    0.05304 = 
         0.05976    0.00604    0.01447    0.01199 
AFIX  43 
H13   2   -0.073293    0.511721    0.209351    11.00000   -1.20000 
AFIX   0 
C14   1    0.061990    0.526406    0.148754    11.00000    0.03428    0.04514 = 
         0.04430    0.00442    0.00157    0.00827 
AFIX  43 
H14   2    0.012018    0.488612    0.101051    11.00000   -1.20000 
AFIX   0 
C15   1    0.026683    0.612052    0.354432    11.00000    0.07107    0.08099 = 
         0.05764    0.01520    0.03099    0.03352 
AFIX 137 
H15A  2   -0.000132    0.678712    0.359454    11.00000   -1.50000 
H15B  2    0.087914    0.615251    0.399668    11.00000   -1.50000 
H15C  2   -0.044193    0.552179    0.349190    11.00000   -1.50000 
AFIX   0 
C16   1    0.497518    0.489326    0.169087    11.00000    0.03099    0.04899 = 
         0.03908    0.01028    0.00415    0.01223 
C17   1    0.539066    0.537718    0.246406    11.00000    0.04139    0.05352 = 
         0.04113    0.01311    0.00232    0.01120 
AFIX  43 
H17   2    0.488592    0.521114    0.281489    11.00000   -1.20000 
AFIX   0 
C18   1    0.653755    0.609996    0.272355    11.00000    0.04923    0.05632 = 
         0.06467    0.01043   -0.00974    0.00978 
AFIX  43 
H18   2    0.680864    0.642647    0.324706    11.00000   -1.20000 
AFIX   0 
C19   1    0.728545    0.634001    0.220610    11.00000    0.03544    0.06503 = 
         0.08358    0.01785   -0.00004    0.00292 
AFIX  43 
H19   2    0.806028    0.683913    0.237745    11.00000   -1.20000 
AFIX   0 
C20   1    0.689450    0.584948    0.144532    11.00000    0.04135    0.08430 = 
         0.06911    0.02483    0.01983    0.01252 
AFIX  43 
H20   2    0.741126    0.600268    0.109833    11.00000   -1.20000 
AFIX   0 
C21   1    0.574627    0.513130    0.118444    11.00000    0.03960    0.07055 = 
         0.05469    0.01604    0.01598    0.01470 
AFIX  43 
H21   2    0.548555    0.480188    0.066098    11.00000   -1.20000 
AFIX   0 
C22   1    0.309021    0.289607    0.309750    11.00000    0.03785    0.03901 = 
         0.02915    0.00923   -0.00018    0.00730 
C23   1    0.231591    0.358263    0.313001    11.00000    0.05311    0.05556 = 
         0.03884    0.02021    0.00962    0.02321 
AFIX  43 
H23   2    0.223191    0.399752    0.275646    11.00000   -1.20000 
AFIX   0 
C24   1    0.165969    0.366380    0.371216    11.00000    0.05677    0.07019 = 
         0.04254    0.01492    0.01081    0.02781 
AFIX  43 
H24   2    0.113248    0.413746    0.372699    11.00000   -1.20000 
AFIX   0 
C25   1    0.175473    0.307011    0.427307    11.00000    0.04901    0.06250 = 
         0.03371    0.00921    0.00761   -0.00204 
C26   1    0.256174    0.240270    0.424174    11.00000    0.07173    0.05954 = 
         0.04654    0.02948    0.00868    0.00909 
AFIX  43 
H26   2    0.266149    0.200298    0.462356    11.00000   -1.20000 
AFIX   0 
C27   1    0.322085    0.230756    0.366905    11.00000    0.06147    0.04565 = 
         0.04539    0.02021    0.00631    0.01764 
AFIX  43 
H27   2    0.376153    0.184542    0.366118    11.00000   -1.20000 
AFIX   0 
C28   1    0.101370    0.316291    0.489951    11.00000    0.06771    0.11310 = 
         0.04027    0.01316    0.01931    0.00359 
AFIX 137 
H28A  2    0.152212    0.367516    0.535161    11.00000   -1.50000 
H28B  2    0.076154    0.246462    0.502532    11.00000   -1.50000 
H28C  2    0.028259    0.340842    0.472301    11.00000   -1.50000 
AFIX   0 
C29   1   -0.096162    0.052271    0.061700    11.00000    0.05520    0.04945 = 
         0.05871    0.00072    0.02061   -0.00093 
AFIX 137 
H29A  2   -0.167407    0.074202    0.077108    11.00000   -1.50000 
H29B  2   -0.064642    0.010756    0.096562    11.00000   -1.50000 
H29C  2   -0.120810    0.008481    0.010023    11.00000   -1.50000 
AFIX   0 
S3    5    0.703021   -0.042587    0.425293    11.00000    0.04313    0.05527 = 
         0.03514    0.02057    0.00855    0.01387 
S4    5    0.885723    0.226542    0.255728    11.00000    0.04282    0.05044 = 
         0.05180    0.01695    0.01857    0.00648 
N2    3    0.790487    0.078817    0.420904    11.00000    0.03782    0.05349 = 
         0.02990    0.00993    0.00371    0.01164 
O3    4    0.775908   -0.118896    0.413910    11.00000    0.05195    0.06342 = 
         0.06323    0.03372    0.01531    0.02427 
O4    4    0.658460   -0.024984    0.494703    11.00000    0.06333    0.08427 = 
         0.03782    0.02920    0.01775    0.02146 
C30   1    0.843649    0.085886    0.354013    11.00000    0.03064    0.05093 = 
         0.03485    0.00867    0.00535    0.00567 
C31   1    0.824838    0.174875    0.329232    11.00000    0.03468    0.04727 = 
         0.03876    0.00923    0.00725    0.00671 
C32   1    0.757311    0.229016    0.378673    11.00000    0.03325    0.04697 = 
         0.03814    0.00531    0.00346    0.00663 
C33   1    0.717132    0.323850    0.379639    11.00000    0.04104    0.04530 = 
         0.04644    0.00798    0.00389    0.00782 
AFIX  43 
H33   2    0.732735    0.364953    0.342750    11.00000   -1.20000 
AFIX   0 
C34   1    0.654365    0.356342    0.435338    11.00000    0.04317    0.05604 = 
         0.04022   -0.00302   -0.00330    0.01321 
C35   1    0.633571    0.294756    0.490456    11.00000    0.05075    0.07631 = 
         0.03033   -0.00518    0.00640    0.02159 
AFIX  43 
H35   2    0.590927    0.318011    0.528269    11.00000   -1.20000 
AFIX   0 
C36   1    0.673110    0.201441    0.491484    11.00000    0.04968    0.07039 = 
         0.03143    0.00665    0.00431    0.01543 
AFIX  43 
H36   2    0.658618    0.161346    0.529075    11.00000   -1.20000 
AFIX   0 
C37   1    0.735740    0.169018    0.434143    11.00000    0.03577    0.05222 = 
         0.02768    0.00198   -0.00101    0.00872 
C38   1    0.579833   -0.070103    0.346434    11.00000    0.03644    0.04368 = 
         0.03828    0.01289    0.01041    0.00603 
C39   1    0.590297   -0.129160    0.277332    11.00000    0.04317    0.04018 = 
         0.04585    0.00536    0.01157    0.00719 
AFIX  43 
H39   2    0.659170   -0.158737    0.273895    11.00000   -1.20000 
AFIX   0 
C40   1    0.497139   -0.143881    0.213194    11.00000    0.05075    0.04937 = 
         0.04014    0.00229    0.01094   -0.00098 
AFIX  43 
H40   2    0.503074   -0.184030    0.166012    11.00000   -1.20000 
AFIX   0 
C41   1    0.395272   -0.100065    0.217822    11.00000    0.04311    0.04657 = 
         0.04747    0.01205   -0.00207   -0.00569 
C42   1    0.387430   -0.042335    0.288061    11.00000    0.03680    0.04769 = 
         0.06547    0.00528    0.00259    0.00697 
AFIX  43 
H42   2    0.318321   -0.013188    0.291801    11.00000   -1.20000 
AFIX   0 
C43   1    0.477611   -0.026731    0.351987    11.00000    0.04059    0.04989 = 
         0.04713    0.00559    0.01154    0.01089 
AFIX  43 
H43   2    0.470789    0.012797    0.399165    11.00000   -1.20000 
AFIX   0 
C44   1    0.294454   -0.118052    0.147963    11.00000    0.05516    0.07619 = 
         0.05382    0.01120   -0.00961   -0.00472 
AFIX 137 
H44A  2    0.231001   -0.182476    0.145670    11.00000   -1.50000 
H44B  2    0.329524   -0.126694    0.102318    11.00000   -1.50000 
H44C  2    0.257842   -0.056581    0.150864    11.00000   -1.50000 
AFIX   0 
C45   1    0.915740    0.010752    0.326276    11.00000    0.03426    0.04585 = 
         0.04955    0.01376    0.01345    0.00787 
C46   1    0.891253   -0.037709    0.248698    11.00000    0.04789    0.05289 = 
         0.05346    0.01738    0.01834    0.01632 
AFIX  43 
H46   2    0.828711   -0.021901    0.214552    11.00000   -1.20000 
AFIX   0 
C47   1    0.958176   -0.109134    0.221194    11.00000    0.07029    0.05496 = 
         0.06463    0.01290    0.03250    0.02077 
AFIX  43 
H47   2    0.940822   -0.142317    0.168877    11.00000   -1.20000 
AFIX   0 
C48   1    1.051433   -0.130785    0.272411    11.00000    0.05894    0.05909 = 
         0.09393    0.02514    0.03108    0.02921 
AFIX  43 
H48   2    1.097785   -0.178554    0.254376    11.00000   -1.20000 
AFIX   0 
C49   1    1.076139   -0.083584    0.348192    11.00000    0.04623    0.07333 = 
         0.08555    0.02507    0.01005    0.02437 
AFIX  43 
H49   2    1.139007   -0.099157    0.382237    11.00000   -1.20000 
AFIX   0 
C50   1    1.009254   -0.012929    0.375270    11.00000    0.03840    0.06070 = 
         0.06449    0.01644    0.00556    0.01367 
AFIX  43 
H50   2    1.027389    0.019626    0.427730    11.00000   -1.20000 
AFIX   0 
C51   1    0.748896    0.206381    0.184513    11.00000    0.04937    0.03328 = 
         0.03999    0.01021    0.02003    0.01218 
C52   1    0.639343    0.132063    0.180181    11.00000    0.04996    0.05207 = 
         0.04594    0.02246    0.01760    0.00746 
AFIX  43 
H52   2    0.632526    0.089580    0.217103    11.00000   -1.20000 
AFIX   0 
C53   1    0.540004    0.120592    0.121318    11.00000    0.05153    0.06146 = 
         0.04796    0.01746    0.01698    0.00707 
AFIX  43 
H53   2    0.465874    0.069776    0.119190    11.00000   -1.20000 
AFIX   0 
C54   1    0.544432    0.180332    0.065356    11.00000    0.06170    0.05568 = 
         0.03979    0.01172    0.01794    0.02359 
C55   1    0.655965    0.253913    0.070857    11.00000    0.08219    0.05428 = 
         0.05058    0.02822    0.02303    0.02045 
AFIX  43 
H55   2    0.662944    0.295769    0.033568    11.00000   -1.20000 
AFIX   0 
C56   1    0.756221    0.267588    0.128807    11.00000    0.06566    0.04442 = 
         0.05483    0.01996    0.02492    0.00709 
AFIX  43 
H56   2    0.830253    0.318529    0.130937    11.00000   -1.20000 
AFIX   0 
C57   1    0.433738    0.167610    0.002456    11.00000    0.08129    0.09570 = 
         0.04735    0.02012    0.01182    0.03410 
AFIX 137 
H57A  2    0.443968    0.230929   -0.019697    11.00000   -1.50000 
H57B  2    0.359030    0.159279    0.023457    11.00000   -1.50000 
H57C  2    0.426885    0.104425   -0.036922    11.00000   -1.50000 
AFIX   0 
C58   1    0.606312    0.457065    0.437721    11.00000    0.06334    0.06399 = 
         0.05926   -0.00428    0.00458    0.02582 
AFIX 137 
H58A  2    0.633329    0.493518    0.398663    11.00000   -1.50000 
H58B  2    0.638535    0.504652    0.487795    11.00000   -1.50000 
H58C  2    0.516285    0.437556    0.428232    11.00000   -1.50000 
AFIX   0 
HKLF 4 
  
REM  mo_40819b in P-1 
REM R1 =  0.0480 for    7926 Fo > 4sig(Fo)  and  0.0691 for all   10735 data 
REM    619 parameters refined using      0 restraints 
  
END 
  
WGHT      0.1170      0.2321 
  
REM Highest difference peak  0.330,  deepest hole -0.313,  1-sigma level  0.071 
Q1    1   0.5999 -0.0681  0.3183  11.00000  0.05    0.33 
;
_shelx_res_checksum              32898
_shelx_hkl_file
; 
  -2   0   0  190.36    6.59 
  -2   0   0  185.74    6.66 
   2   0   0  189.38    6.55 
  -3   0   0  112.98    4.02 
  -3   0   0  114.60    3.98 
   3   0   0  114.19    3.96 
  -4   0   0    0.06    0.03 
  -4   0   0    0.06    0.06 
   4   0   0    0.11    0.05 
  -5   0   0    2.34    0.16 
   5   0   0    2.14    0.15 
  -6   0   0    7.03    0.33 
   6   0   0    7.31    0.32 
  -7   0   0    0.15    0.10 
   7   0   0   -0.04    0.07 
  -8   0   0    6.59    0.35 
   8   0   0    6.94    0.33 
  -9   0   0    2.13    0.22 
   9   0   0    2.04    0.19 
 -10   0   0    8.63    0.45 
  10   0   0    8.27    0.42 
 -11   0   0    2.42    0.26 
  11   0   0    2.66    0.25 
 -12   0   0    1.20    0.23 
  12   0   0    1.63    0.19 
 -13   0   0   -0.27    0.19 
 -14   0   0    1.26    0.26 
 -14   1   0   -0.06    0.19 
 -13   1   0    1.12    0.25 
  12  -1   0    8.49    0.44 
 -12   1   0    9.16    0.51 
  11  -1   0    0.45    0.14 
 -11   1   0    0.45    0.17 
  10  -1   0   12.12    0.53 
 -10   1   0   12.19    0.57 
   9  -1   0    6.14    0.32 
  -9   1   0    6.20    0.37 
   8  -1   0    1.34    0.14 
  -8   1   0    1.33    0.16 
   7  -1   0    8.63    0.37 
  -7   1   0    8.45    0.32 
  -7   1   0    8.13    0.39 
   6  -1   0    0.02    0.06 
  -6   1   0    0.04    0.04 
  -6   1   0   -0.02    0.07 
   5  -1   0   19.95    0.74 
  -5   1   0   20.10    0.72 
  -5   1   0   20.10    0.76 
   4  -1   0   42.92    1.51 
  -4   1   0   42.57    1.50 
   3  -1   0    3.20    0.14 
  -3   1   0    2.41    0.14 
  -3   1   0    3.22    0.13 
   2  -1   0   32.34    1.15 
  -2   1   0   32.98    1.15 
   1  -1   0    1.50    0.07 
  -1   1   0    2.12    0.08 
   0   1   0   -0.01    0.00 
  -1  -1   0   27.61    0.99 
  -2  -1   0  141.63    5.02 
   2   1   0  141.11    4.91 
  -3  -1   0    1.76    0.12 
   3   1   0    1.59    0.12 
  -4  -1   0    0.19    0.07 
   4   1   0    0.30    0.06 
  -5  -1   0    3.18    0.20 
   5   1   0    3.15    0.19 
  -6  -1   0    0.03    0.08 
   6   1   0    0.03    0.06 
  -7  -1   0    2.15    0.18 
   7   1   0    2.03    0.17 
  -8  -1   0   12.15    0.55 
   8   1   0   12.67    0.53 
  -9  -1   0   47.28    1.76 
   9   1   0   46.49    1.72 
 -10  -1   0    2.76    0.27 
  10   1   0    2.78    0.26 
 -11  -1   0    1.98    0.25 
  11   1   0    2.82    0.25 
 -12  -1   0    0.09    0.19 
  12   1   0    0.35    0.15 
 -13  -1   0    0.63    0.21 
 -14   2   0    0.91    0.25 
 -13   2   0   -0.06    0.19 
  12  -2   0    1.49    0.18 
 -12   2   0    1.38    0.22 
  11  -2   0    1.30    0.17 
 -11   2   0    1.14    0.21 
  10  -2   0    1.64    0.17 
 -10   2   0    1.66    0.21 
   9  -2   0    3.93    0.25 
  -9   2   0    4.07    0.30 
   8  -2   0    0.38    0.10 
  -8   2   0    0.21    0.11 
  -8   2   0    0.48    0.07 
   7  -2   0    5.33    0.26 
  -7   2   0    5.38    0.23 
  -7   2   0    5.62    0.30 
   6  -2   0   15.37    0.56 
  -6   2   0   12.22    0.58 
  -6   2   0   16.16    0.54 
   5  -2   0    0.91    0.09 
  -5   2   0    1.06    0.09 
   4  -2   0   22.97    0.83 
  -4   2   0   22.79    0.82 
   3  -2   0    2.12    0.11 
  -3   2   0    2.11    0.11 
  -3   2   0    2.14    0.12 
  -2   2   0   46.37    1.67 
  -2   2   0   47.75    1.66 
  -1   2   0   95.62    3.33 
  -1   2   0   93.73    3.34 
   0  -2   0    3.46    0.13 
   0   2   0    3.42    0.13 
  -1  -2   0   48.45    1.69 
   1   2   0   47.43    1.69 
  -2  -2   0  141.97    5.03 
   2   2   0  143.05    5.01 
  -3  -2   0    1.87    0.13 
   3   2   0    1.99    0.13 
  -4  -2   0   13.52    0.57 
   4   2   0   16.12    0.57 
  -5  -2   0   22.20    0.84 
   5   2   0   22.11    0.83 
  -6  -2   0    0.71    0.12 
   6   2   0    0.90    0.11 
  -7  -2   0    7.80    0.38 
   7   2   0    7.81    0.31 
   7   2   0    7.51    0.36 
  -8  -2   0    5.84    0.32 
   8   2   0    5.95    0.33 
  -9  -2   0    9.36    0.49 
   9   2   0   10.28    0.47 
 -10  -2   0    2.42    0.25 
  10   2   0    2.04    0.21 
 -11  -2   0    1.52    0.23 
  11   2   0    1.66    0.20 
 -12  -2   0    0.00    0.17 
  12   2   0    0.18    0.16 
 -13  -2   0    0.95    0.23 
 -14   3   0    1.11    0.25 
 -13   3   0   -0.04    0.19 
 -12   3   0   -0.13    0.17 
  11  -3   0    1.81    0.18 
 -11   3   0    1.06    0.21 
  10  -3   0   31.79    1.21 
 -10   3   0   33.57    1.28 
   9  -3   0    0.27    0.11 
  -9   3   0    0.04    0.04 
   8  -3   0   16.86    0.67 
  -8   3   0   17.73    0.64 
   7  -3   0    2.72    0.18 
  -7   3   0    3.01    0.16 
   6  -3   0   23.65    0.87 
  -6   3   0   23.62    0.90 
  -6   3   0   23.98    0.86 
   5  -3   0    7.86    0.33 
  -5   3   0    8.46    0.33 
  -5   3   0    8.32    0.36 
   4  -3   0    6.03    0.25 
  -4   3   0    5.90    0.27 
  -4   3   0    6.05    0.25 
  -3   3   0    3.77    0.19 
  -3   3   0    3.88    0.18 
  -2   3   0  237.01    8.37 
  -2   3   0  238.41    8.40 
  -1   3   0    0.04    0.05 
  -1   3   0    0.06    0.04 
   0   3   0    0.04    0.03 
   0   3   0    0.08    0.03 
  -1  -3   0   32.13    1.13 
   1   3   0   31.67    1.14 
  -2  -3   0   41.73    1.49 
   2   3   0   42.07    1.49 
  -3  -3   0  106.90    3.77 
   3   3   0  106.42    3.74 
   4   3   0  103.04    3.61 
   4   3   0  102.88    3.61 
  -5  -3   0    0.08    0.08 
   5   3   0   -0.01    0.08 
   5   3   0    0.12    0.06 
  -6  -3   0   46.32    1.70 
   6   3   0   46.58    1.69 
   6   3   0   46.45    1.66 
  -7  -3   0    5.43    0.31 
   7   3   0    5.61    0.25 
   7   3   0    5.22    0.31 
  -8  -3   0    1.15    0.16 
   8   3   0    1.23    0.16 
  -9  -3   0    0.80    0.17 
   9   3   0    1.01    0.16 
 -10  -3   0    0.81    0.18 
  10   3   0    0.56    0.15 
 -11  -3   0   -0.17    0.15 
  11   3   0    0.27    0.15 
 -12  -3   0    2.23    0.27 
  12   3   0    1.87    0.23 
 -13  -3   0    2.85    0.31 
 -14   4   0    3.07    0.32 
 -13   4   0    4.82    0.39 
 -12   4   0    2.67    0.29 
  11  -4   0    2.43    0.24 
 -11   4   0    2.82    0.27 
  10  -4   0    6.95    0.37 
 -10   4   0    8.00    0.43 
   9  -4   0   -0.12    0.10 
  -9   4   0   -0.15    0.11 
   8  -4   0   20.64    0.79 
  -8   4   0   21.06    0.84 
   7  -4   0    7.99    0.34 
  -7   4   0    7.58    0.37 
   6  -4   0    4.47    0.22 
  -6   4   0    4.20    0.25 
  -6   4   0    4.24    0.21 
   5  -4   0    2.54    0.15 
  -5   4   0    2.52    0.19 
  -5   4   0    2.53    0.16 
  -4   4   0    0.81    0.09 
  -4   4   0    0.75    0.10 
  -3   4   0   10.70    0.42 
  -3   4   0   10.84    0.42 
  -2   4   0   84.21    2.95 
  -2   4   0   82.97    2.95 
  -1   4   0  124.49    4.41 
  -1   4   0  127.35    4.45 
   0   4   0    0.03    0.03 
   0   4   0    0.00    0.05 
  -1  -4   0  110.55    3.89 
   1   4   0  110.56    3.88 
  -2  -4   0    4.48    0.20 
   2   4   0    4.74    0.22 
  -3  -4   0    1.34    0.13 
   3   4   0    1.70    0.14 
  -4  -4   0    0.80    0.09 
  -5  -4   0   26.10    0.96 
   5   4   0   25.55    0.97 
   5   4   0   25.41    0.94 
  -6  -4   0    0.66    0.12 
   6   4   0    0.60    0.10 
   6   4   0    0.62    0.13 
  -7  -4   0    2.20    0.21 
   7   4   0    1.97    0.19 
   7   4   0    1.78    0.16 
  -8  -4   0    0.05    0.13 
   8   4   0    0.03    0.13 
  -9  -4   0    3.23    0.27 
   9   4   0    3.24    0.28 
 -10  -4   0    1.35    0.20 
  10   4   0    1.29    0.20 
 -11  -4   0    0.15    0.16 
  11   4   0   -0.14    0.14 
 -12  -4   0    0.08    0.18 
  12   4   0    0.05    0.16 
 -14   5   0    0.20    0.21 
 -13   5   0    6.07    0.41 
 -12   5   0    1.58    0.24 
  11  -5   0   21.02    0.83 
 -11   5   0   20.74    0.89 
  10  -5   0    1.12    0.15 
 -10   5   0    1.12    0.19 
   9  -5   0    0.29    0.11 
  -9   5   0    0.43    0.14 
   8  -5   0   23.67    0.92 
  -8   5   0   25.46    0.97 
  -8   5   0   24.84    0.92 
   7  -5   0   22.21    0.82 
  -7   5   0   21.50    0.86 
  -7   5   0   21.77    0.82 
  -6   5   0    0.55    0.09 
  -6   5   0    0.72    0.11 
  -5   5   0   46.16    1.86 
  -5   5   0   58.54    1.90 
  -4   5   0    8.92    0.37 
  -3   5   0   18.65    0.69 
  -2   5   0  284.01   10.03 
   0   5   0   -0.08    0.06 
   0   5   0    0.02    0.03 
   1   5   0   29.31    1.05 
   1   5   0   29.70    1.08 
  -2  -5   0   86.19    3.08 
   2   5   0   88.61    3.09 
  -3  -5   0   16.20    0.61 
   3   5   0   16.61    0.63 
  -4  -5   0    2.12    0.14 
  -5  -5   0    9.86    0.42 
   5   5   0    9.71    0.42 
   5   5   0   10.08    0.45 
  -6  -5   0    5.85    0.30 
   6   5   0    5.57    0.28 
   6   5   0    5.70    0.34 
  -7  -5   0    3.87    0.27 
   7   5   0    4.32    0.24 
   7   5   0    4.22    0.30 
  -8  -5   0    1.65    0.19 
   8   5   0    1.52    0.19 
  -9  -5   0   14.64    0.65 
   9   5   0   15.33    0.67 
 -10  -5   0   -0.05    0.14 
  10   5   0   -0.01    0.14 
 -11  -5   0   -0.16    0.17 
  11   5   0   -0.05    0.15 
  12   5   0    0.02    0.17 
 -14   6   0    0.77    0.24 
 -13   6   0    3.30    0.33 
 -12   6   0    4.63    0.35 
  11  -6   0    0.31    0.13 
 -11   6   0    0.21    0.16 
 -10   6   0   10.34    0.51 
  -9   6   0    2.18    0.22 
  -9   6   0    2.22    0.19 
  -8   6   0    1.56    0.18 
  -8   6   0    1.82    0.17 
  -7   6   0    5.44    0.31 
  -7   6   0    5.97    0.29 
  -6   6   0    2.42    0.18 
  -6   6   0    2.25    0.17 
  -5   6   0   12.32    0.51 
  -5   6   0   12.73    0.51 
  -4   6   0   48.84    1.77 
  -4   6   0   49.41    1.77 
  -3   6   0   77.40    2.78 
  -3   6   0   79.23    2.78 
  -2   6   0    4.20    0.23 
  -2   6   0    4.24    0.19 
   0   6   0   -0.01    0.04 
   0   6   0    0.03    0.07 
   1   6   0    0.43    0.05 
   1   6   0    0.31    0.08 
  -2  -6   0   44.62    1.57 
   2   6   0   43.37    1.60 
  -3  -6   0   14.82    0.55 
   3   6   0   13.95    0.58 
  -4  -6   0    0.02    0.05 
   4   6   0   -0.03    0.08 
  -5  -6   0    1.66    0.14 
   5   6   0    1.69    0.19 
   5   6   0    1.51    0.15 
  -6  -6   0   22.64    0.85 
   6   6   0   22.46    0.84 
   6   6   0   20.56    0.87 
  -7  -6   0    2.23    0.21 
   7   6   0    2.11    0.19 
   7   6   0    1.71    0.21 
  -8  -6   0    6.17    0.35 
   8   6   0    6.12    0.38 
  -9  -6   0    0.77    0.17 
   9   6   0    1.00    0.19 
  10   6   0    0.44    0.18 
  11   6   0    3.20    0.31 
 -14   7   0    0.00    0.21 
 -13   7   0    0.01    0.18 
 -12   7   0    0.05    0.17 
 -11   7   0    2.26    0.25 
 -10   7   0    7.96    0.44 
  -9   7   0   15.09    0.66 
  -9   7   0   15.18    0.62 
  -8   7   0    8.94    0.40 
  -8   7   0    8.76    0.44 
  -7   7   0    3.16    0.24 
  -7   7   0    3.07    0.21 
  -6   7   0   13.25    0.54 
  -6   7   0   12.42    0.53 
  -5   7   0    0.52    0.10 
  -5   7   0    0.48    0.10 
  -4   7   0   13.78    0.57 
  -4   7   0   14.12    0.55 
  -3   7   0   53.82    1.96 
  -3   7   0   54.82    1.94 
  -2   7   0   21.88    0.80 
  -2   7   0   22.06    0.84 
  -1   7   0   10.75    0.40 
   0   7   0    0.02    0.04 
   0   7   0    0.01    0.08 
   1   7   0    3.38    0.21 
   1   7   0    3.48    0.15 
   2   7   0    0.53    0.06 
   2   7   0    0.41    0.10 
  -3  -7   0    0.06    0.06 
   3   7   0    0.06    0.09 
   4   7   0    1.09    0.14 
  -5  -7   0   13.13    0.53 
   5   7   0   12.96    0.55 
  -6  -7   0    6.12    0.31 
   6   7   0    5.83    0.37 
   6   7   0    6.04    0.33 
   7   7   0    1.45    0.19 
   8   7   0    0.61    0.18 
   9   7   0   -0.03    0.16 
  10   7   0    0.13    0.18 
  11   7   0    0.30    0.19 
 -14   8   0    0.02    0.21 
 -13   8   0    0.15    0.20 
 -12   8   0    0.02    0.16 
 -11   8   0   -0.10    0.14 
 -10   8   0   -0.06    0.15 
  -9   8   0    0.42    0.16 
  -9   8   0    0.40    0.12 
  -8   8   0   20.13    0.80 
  -8   8   0   19.98    0.82 
  -7   8   0   36.39    1.33 
  -7   8   0   34.53    1.33 
  -6   8   0    1.72    0.16 
  -6   8   0    1.46    0.16 
  -5   8   0    1.87    0.18 
  -5   8   0    1.66    0.16 
  -4   8   0    4.18    0.27 
  -4   8   0    4.70    0.23 
  -3   8   0    2.89    0.17 
  -3   8   0    2.95    0.21 
  -2   8   0    3.69    0.18 
  -2   8   0    3.50    0.23 
  -1   8   0   44.85    1.59 
   0   8   0    1.10    0.14 
   0   8   0    1.08    0.08 
   1   8   0   77.06    2.73 
   1   8   0   78.13    2.79 
   2   8   0   11.74    0.44 
   2   8   0   11.75    0.51 
   3   8   0    1.30    0.16 
   3   8   0    1.33    0.13 
   4   8   0    3.92    0.26 
   5   8   0    3.72    0.26 
   6   8   0    0.73    0.14 
   6   8   0    0.86    0.18 
   7   8   0    0.01    0.14 
   8   8   0    0.13    0.16 
   9   8   0    0.22    0.18 
  10   8   0    0.88    0.22 
 -13   9   0    0.15    0.20 
 -12   9   0   -0.08    0.16 
 -11   9   0    0.55    0.19 
 -10   9   0    2.24    0.23 
  -9   9   0   -0.08    0.13 
  -9   9   0    0.04    0.11 
  -8   9   0    1.77    0.18 
  -8   9   0    1.86    0.20 
  -7   9   0    0.03    0.12 
  -7   9   0    0.21    0.13 
  -6   9   0    0.23    0.12 
  -6   9   0    0.17    0.11 
  -5   9   0    0.99    0.13 
  -5   9   0    0.92    0.14 
  -4   9   0    0.24    0.09 
  -4   9   0    0.21    0.11 
  -3   9   0    4.89    0.23 
  -3   9   0    4.69    0.28 
  -2   9   0    2.17    0.14 
  -1   9   0   11.12    0.41 
   0   9   0    0.33    0.12 
   1   9   0   12.55    0.55 
   2   9   0    2.45    0.23 
   3   9   0    0.12    0.13 
   4   9   0    8.99    0.44 
   5   9   0    0.56    0.14 
   6   9   0   -0.15    0.15 
   6   9   0    0.05    0.12 
   7   9   0   -0.01    0.14 
   8   9   0   -0.06    0.15 
   9   9   0    2.15    0.28 
 -13  10   0   -0.05    0.20 
 -12  10   0    0.01    0.18 
 -11  10   0    2.51    0.27 
 -10  10   0    1.27    0.18 
 -10  10   0    1.30    0.19 
  -9  10   0    0.53    0.14 
  -9  10   0    0.69    0.17 
  -8  10   0    1.73    0.20 
  -8  10   0    1.91    0.20 
  -7  10   0    0.26    0.14 
  -7  10   0    0.09    0.12 
  -6  10   0    2.42    0.22 
  -6  10   0    2.50    0.23 
  -5  10   0    0.33    0.13 
  -5  10   0    0.37    0.11 
  -4  10   0    0.00    0.08 
  -4  10   0   -0.19    0.10 
  -3  10   0   15.75    0.59 
  -3  10   0   15.30    0.66 
  -2  10   0   -0.01    0.03 
   0  10   0    5.68    0.33 
   1  10   0    0.56    0.14 
   2  10   0    6.46    0.36 
   3  10   0    5.60    0.35 
   4  10   0    8.04    0.43 
   5  10   0    0.13    0.14 
   6  10   0    0.37    0.17 
   6  10   0    0.12    0.13 
   7  10   0    3.12    0.30 
   8  10   0    1.64    0.24 
   9  10   0   -0.26    0.18 
 -12  11   0    2.16    0.27 
 -11  11   0    0.14    0.17 
 -10  11   0    0.64    0.18 
 -10  11   0    0.72    0.16 
  -9  11   0    4.08    0.30 
  -9  11   0    3.59    0.29 
  -8  11   0   -0.10    0.13 
  -8  11   0    0.02    0.13 
  -7  11   0    0.20    0.14 
  -7  11   0    0.10    0.13 
  -6  11   0    2.72    0.25 
  -6  11   0    3.08    0.23 
  -5  11   0   16.68    0.71 
  -4  11   0    0.70    0.15 
  -3  11   0    6.60    0.39 
  -2  11   0    0.26    0.14 
  -1  11   0    0.23    0.14 
   0  11   0    0.24    0.13 
   1  11   0    0.26    0.15 
   2  11   0    3.36    0.29 
   3  11   0   -0.12    0.13 
   4  11   0    1.59    0.21 
   5  11   0   10.52    0.52 
   6  11   0    0.71    0.19 
   6  11   0    0.69    0.17 
   7  11   0    0.03    0.17 
   8  11   0    1.09    0.24 
 -12  12   0   -0.14    0.19 
 -11  12   0    3.04    0.30 
 -10  12   0    0.75    0.19 
 -10  12   0    0.66    0.18 
  -9  12   0   -0.13    0.15 
  -9  12   0   -0.02    0.14 
  -8  12   0    0.43    0.16 
  -7  12   0    7.65    0.42 
  -6  12   0    3.84    0.30 
  -5  12   0   -0.15    0.12 
  -4  12   0    0.39    0.15 
  -3  12   0    0.03    0.13 
  -2  12   0    9.13    0.47 
  -1  12   0    0.61    0.16 
   0  12   0    9.35    0.48 
   1  12   0   -0.14    0.14 
   2  12   0    0.42    0.15 
   3  12   0    5.61    0.37 
   4  12   0    1.92    0.23 
   5  12   0    0.33    0.16 
   6  12   0    0.74    0.22 
   7  12   0    0.32    0.19 
 -10  13   0    1.35    0.21 
  -9  13   0    5.27    0.37 
  -8  13   0   -0.03    0.15 
  -7  13   0    0.09    0.15 
  -6  13   0   -0.06    0.15 
  -5  13   0    0.87    0.18 
  -4  13   0    0.94    0.18 
  -3  13   0    0.32    0.15 
  -2  13   0    0.14    0.14 
  -1  13   0    6.47    0.39 
   0  13   0    0.08    0.15 
   1  13   0    1.34    0.21 
   2  13   0    0.38    0.17 
   3  13   0    0.19    0.17 
   4  13   0   -0.07    0.16 
   5  13   0   -0.15    0.16 
   6  13   0    0.47    0.22 
 -10  14   0    0.63    0.19 
  -9  14   0    0.35    0.18 
  -8  14   0    0.80    0.20 
  -7  14   0    1.37    0.23 
  -6  14   0   -0.25    0.15 
  -5  14   0    0.71    0.20 
  -4  14   0    0.84    0.20 
  -3  14   0    0.44    0.18 
  -2  14   0    0.49    0.17 
  -1  14   0    3.47    0.32 
   0  14   0    0.30    0.17 
   1  14   0    3.55    0.33 
   2  14   0   -0.02    0.16 
   3  14   0    0.25    0.17 
   4  14   0    0.17    0.18 
  -9  15   0   -0.14    0.17 
  -8  15   0    0.64    0.21 
  -7  15   0    0.95    0.22 
  -6  15   0    0.04    0.16 
  -5  15   0    3.84    0.33 
  -4  15   0    0.28    0.19 
  -3  15   0   -0.12    0.15 
  -2  15   0    0.92    0.21 
  -1  15   0    0.37    0.19 
   0  15   0    0.62    0.20 
   1  15   0    0.68    0.21 
   2  15   0    3.96    0.37 
   3  15   0    0.40    0.20 
  -7  16   0   -0.11    0.19 
  -6  16   0    0.49    0.22 
  -5  16   0    1.22    0.23 
  -4  16   0    1.51    0.25 
  -3  16   0    1.62    0.25 
  -2  16   0    0.00    0.17 
  -1  16   0    1.47    0.26 
   0  16   0    0.45    0.21 
   1  16  -1   -0.07    0.19 
   0  16  -1    0.19    0.20 
  -1  16  -1    0.24    0.21 
  -2  16  -1    1.13    0.23 
  -3  16  -1    1.60    0.25 
  -4  16  -1    0.95    0.22 
  -5  16  -1   -0.29    0.16 
  -6  16  -1   -0.12    0.19 
  -7  16  -1    0.52    0.21 
   3  15  -1    1.55    0.25 
   2  15  -1    0.08    0.19 
   1  15  -1    1.48    0.25 
   0  15  -1    7.08    0.46 
  -1  15  -1    2.09    0.25 
  -2  15  -1   11.06    0.59 
  -3  15  -1    0.63    0.20 
  -4  15  -1    0.05    0.17 
  -5  15  -1    0.41    0.19 
  -6  15  -1    0.25    0.19 
  -7  15  -1    0.07    0.18 
  -8  15  -1   -0.08    0.18 
  -9  15  -1    0.07    0.18 
   5  14  -1    1.55    0.27 
   4  14  -1    0.09    0.17 
   3  14  -1    0.54    0.20 
   2  14  -1    0.24    0.17 
   1  14  -1    2.81    0.28 
   0  14  -1    0.44    0.18 
  -1  14  -1    0.94    0.19 
  -2  14  -1    0.50    0.18 
  -3  14  -1    1.50    0.22 
  -4  14  -1    0.33    0.16 
  -5  14  -1    0.48    0.17 
  -6  14  -1   -0.22    0.15 
  -7  14  -1    0.14    0.16 
  -8  14  -1    2.35    0.27 
  -9  14  -1    0.30    0.18 
 -10  14  -1    1.12    0.22 
   6  13  -1    0.14    0.20 
   5  13  -1   -0.12    0.17 
   5  13  -1   -0.02    0.16 
   4  13  -1    3.62    0.32 
   3  13  -1    0.15    0.16 
   2  13  -1    1.84    0.23 
   1  13  -1    4.24    0.32 
   0  13  -1    0.07    0.14 
  -1  13  -1    3.00    0.28 
  -2  13  -1    0.81    0.17 
  -3  13  -1    3.35    0.28 
  -4  13  -1    0.07    0.14 
  -5  13  -1    0.79    0.18 
  -6  13  -1   -0.16    0.14 
  -7  13  -1    0.87    0.18 
  -8  13  -1    0.77    0.18 
  -9  13  -1    2.63    0.27 
 -10  13  -1    0.97    0.20 
   7  12  -1    0.33    0.18 
   6  12  -1    0.31    0.18 
   5  12  -1    0.77    0.21 
   5  12  -1    0.80    0.18 
   4  12  -1    0.75    0.18 
   3  12  -1    0.69    0.17 
   2  12  -1    0.21    0.14 
   1  12  -1    6.91    0.39 
   0  12  -1   -0.11    0.14 
  -1  12  -1    6.08    0.38 
  -2  12  -1    2.05    0.22 
  -3  12  -1    1.37    0.19 
  -4  12  -1    3.51    0.29 
  -5  12  -1    0.21    0.15 
  -6  12  -1    0.62    0.17 
  -7  12  -1    0.52    0.17 
  -8  12  -1    0.84    0.17 
  -9  12  -1    1.30    0.20 
  -9  12  -1    1.34    0.20 
 -10  12  -1    1.32    0.22 
 -10  12  -1    1.72    0.22 
 -11  12  -1    3.17    0.31 
 -12  12  -1    0.17    0.20 
   8  11  -1    0.64    0.22 
   7  11  -1    0.98    0.21 
   6  11  -1    2.46    0.27 
   5  11  -1    0.77    0.17 
   5  11  -1    0.66    0.18 
   4  11  -1    1.07    0.18 
   3  11  -1    1.28    0.19 
   2  11  -1    4.92    0.32 
   1  11  -1    8.50    0.43 
   0  11  -1    0.61    0.15 
  -1  11  -1   32.77    1.27 
  -2  11  -1    6.36    0.37 
  -3  11  -1    0.74    0.16 
  -4  11  -1    5.32    0.33 
  -5  11  -1    2.96    0.26 
  -6  11  -1    1.17    0.18 
  -6  11  -1    1.31    0.16 
  -7  11  -1   14.90    0.67 
  -7  11  -1   15.31    0.64 
  -8  11  -1    1.51    0.19 
  -8  11  -1    1.48    0.19 
  -9  11  -1    0.21    0.14 
  -9  11  -1    0.28    0.15 
 -10  11  -1    0.69    0.18 
 -10  11  -1    0.74    0.16 
 -11  11  -1    3.36    0.32 
 -12  11  -1    0.00    0.17 
   9  10  -1    0.29    0.20 
   8  10  -1    0.09    0.17 
   7  10  -1    0.31    0.18 
   6  10  -1    1.82    0.24 
   6  10  -1    2.17    0.21 
   5  10  -1   11.34    0.54 
   5  10  -1   11.59    0.56 
   4  10  -1   -0.04    0.12 
   3  10  -1    6.54    0.37 
   2  10  -1   -0.11    0.12 
   1  10  -1    0.37    0.14 
   0  10  -1    0.85    0.15 
  -1  10  -1    0.14    0.09 
  -2  10  -1    0.03    0.03 
  -3  10  -1    0.80    0.15 
  -4  10  -1    2.40    0.17 
  -4  10  -1    2.28    0.21 
  -5  10  -1    7.64    0.40 
  -5  10  -1    7.63    0.36 
  -6  10  -1    0.16    0.11 
  -6  10  -1    0.18    0.12 
  -7  10  -1    0.04    0.11 
  -7  10  -1   -0.13    0.11 
  -8  10  -1    0.57    0.15 
  -8  10  -1    0.81    0.15 
  -9  10  -1    8.40    0.44 
  -9  10  -1    8.32    0.43 
 -10  10  -1    3.23    0.27 
 -10  10  -1    2.90    0.27 
 -11  10  -1    0.33    0.18 
 -12  10  -1    2.25    0.28 
 -13  10  -1    0.06    0.19 
  10   9  -1    1.26    0.25 
   9   9  -1   -0.20    0.17 
   8   9  -1   -0.04    0.15 
   7   9  -1    3.76    0.33 
   6   9  -1    0.35    0.13 
   5   9  -1    0.01    0.14 
   5   9  -1   -0.18    0.11 
   4   9  -1    4.38    0.29 
   3   9  -1   15.65    0.66 
   2   9  -1    9.51    0.45 
   1   9  -1   22.31    0.88 
   0   9  -1    9.01    0.43 
  -1   9  -1    7.95    0.38 
  -2   9  -1   -0.03    0.02 
  -2   9  -1   -0.05    0.05 
  -3   9  -1   53.34    1.88 
  -3   9  -1   51.76    1.92 
  -4   9  -1   22.47    0.85 
  -4   9  -1   23.14    0.90 
  -5   9  -1    0.73    0.14 
  -5   9  -1    0.79    0.12 
  -6   9  -1    3.42    0.23 
  -6   9  -1    3.17    0.26 
  -7   9  -1    8.76    0.43 
  -7   9  -1    8.83    0.42 
  -8   9  -1    0.92    0.15 
  -8   9  -1    1.05    0.17 
  -9   9  -1    0.67    0.14 
  -9   9  -1    0.72    0.16 
 -10   9  -1    1.27    0.20 
 -11   9  -1    5.97    0.38 
 -12   9  -1   -0.25    0.17 
 -13   9  -1    0.34    0.21 
  10   8  -1   -0.03    0.17 
   9   8  -1    9.50    0.53 
   8   8  -1    0.49    0.18 
   7   8  -1    3.91    0.30 
   6   8  -1    0.46    0.16 
   6   8  -1    0.22    0.12 
   5   8  -1    6.19    0.33 
   5   8  -1    5.58    0.35 
   4   8  -1    0.64    0.13 
   3   8  -1    3.41    0.24 
   2   8  -1    0.07    0.10 
   1   8  -1   20.19    0.80 
   0   8  -1    1.05    0.13 
  -1   8  -1   15.96    0.57 
  -2   8  -1   13.40    0.55 
  -2   8  -1   13.00    0.49 
  -3   8  -1   16.04    0.61 
  -3   8  -1   16.52    0.66 
  -4   8  -1    1.57    0.15 
  -4   8  -1    1.37    0.15 
  -5   8  -1   47.14    1.72 
  -5   8  -1   46.86    1.71 
  -6   8  -1    0.61    0.12 
  -6   8  -1    0.78    0.13 
  -7   8  -1    2.65    0.23 
  -7   8  -1    2.37    0.22 
  -8   8  -1    5.22    0.31 
  -8   8  -1    4.69    0.31 
  -9   8  -1    0.45    0.16 
  -9   8  -1    0.83    0.14 
 -10   8  -1    0.49    0.17 
 -11   8  -1    1.59    0.23 
 -12   8  -1    0.68    0.19 
 -13   8  -1    1.16    0.24 
 -14   8  -1   -0.08    0.19 
  11   7  -1    0.15    0.18 
  10   7  -1    0.07    0.17 
   9   7  -1    0.64    0.18 
   8   7  -1    0.22    0.15 
   7   7  -1    1.22    0.19 
   6   7  -1    5.26    0.29 
   6   7  -1    5.04    0.34 
  -6  -7   1    5.17    0.28 
   5   7  -1   -0.07    0.12 
   5   7  -1    0.06    0.10 
  -5  -7   1    0.19    0.09 
   4   7  -1    4.58    0.26 
  -4  -7   1    4.80    0.23 
   3   7  -1    1.04    0.12 
  -3  -7   1    1.14    0.09 
   2   7  -1    2.88    0.20 
   2   7  -1    2.64    0.13 
   1   7  -1   26.11    0.98 
   0   7  -1    4.53    0.24 
  -1   7  -1   11.69    0.43 
  -2   7  -1   69.72    2.46 
  -2   7  -1   67.90    2.43 
  -3   7  -1    5.31    0.28 
  -3   7  -1    5.17    0.23 
  -4   7  -1    0.04    0.07 
  -4   7  -1   -0.06    0.07 
  -5   7  -1    4.32    0.25 
  -5   7  -1    4.33    0.26 
  -6   7  -1   13.64    0.56 
  -6   7  -1   13.62    0.56 
  -7   7  -1   -0.05    0.10 
  -7   7  -1   -0.05    0.09 
  -8   7  -1   44.34    1.64 
  -8   7  -1   43.26    1.60 
  -9   7  -1    0.35    0.11 
  -9   7  -1    0.17    0.15 
 -10   7  -1    0.64    0.18 
 -11   7  -1    2.44    0.26 
 -12   7  -1   -0.13    0.17 
 -13   7  -1    0.42    0.19 
 -14   7  -1    0.64    0.24 
  12   6  -1    0.31    0.19 
  11   6  -1    0.05    0.17 
  10   6  -1    1.02    0.20 
   9   6  -1    1.47    0.20 
  -9  -6   1    1.49    0.19 
   8   6  -1    0.52    0.16 
  -8  -6   1    0.53    0.15 
   7   6  -1    1.03    0.17 
  -7  -6   1    1.27    0.16 
   6   6  -1    8.88    0.45 
   6   6  -1    8.64    0.39 
  -6  -6   1    8.71    0.40 
   5   6  -1    4.20    0.24 
   5   6  -1    3.86    0.28 
  -5  -6   1    4.43    0.23 
   4   6  -1   19.77    0.76 
  -4  -6   1   19.79    0.74 
   3   6  -1   23.53    0.89 
  -3  -6   1   23.53    0.86 
   2   6  -1   21.79    0.84 
  -2  -6   1   22.46    0.80 
   1   6  -1   33.79    1.24 
   0   6  -1    0.08    0.07 
  -1   6  -1   91.68    3.22 
  -2   6  -1   38.34    1.40 
  -2   6  -1   38.37    1.37 
  -3   6  -1  119.37    4.30 
  -3   6  -1  124.37    4.30 
  -4   6  -1   -0.05    0.07 
  -4   6  -1    0.04    0.07 
  -5   6  -1   10.53    0.44 
  -5   6  -1   10.19    0.43 
  -6   6  -1    0.59    0.11 
  -6   6  -1    0.62    0.10 
  -7   6  -1    5.61    0.28 
  -7   6  -1    5.75    0.31 
  -8   6  -1    0.02    0.08 
  -8   6  -1   -0.20    0.12 
  -9   6  -1    6.90    0.39 
  -9   6  -1    7.63    0.35 
 -10   6  -1   24.67    1.01 
 -11   6  -1    7.28    0.44 
 -12   6  -1    2.44    0.27 
 -13   6  -1    1.35    0.25 
 -14   6  -1    0.59    0.22 
  12   5  -1   -0.12    0.17 
  11   5  -1    4.80    0.37 
 -11  -5   1    4.70    0.35 
  10   5  -1    0.66    0.18 
 -10  -5   1    0.43    0.16 
   9   5  -1    1.30    0.19 
  -9  -5   1    1.39    0.19 
   8   5  -1   12.39    0.57 
  -8  -5   1   13.22    0.56 
   7   5  -1    0.66    0.10 
   7   5  -1    0.43    0.14 
  -7  -5   1    0.40    0.13 
   6   5  -1   11.03    0.51 
   6   5  -1   11.01    0.45 
  -6  -5   1   11.34    0.48 
   5   5  -1   14.84    0.62 
   5   5  -1   15.24    0.58 
  -5  -5   1   14.69    0.59 
   4   5  -1    3.23    0.23 
   4   5  -1    2.80    0.18 
  -4  -5   1    3.02    0.17 
   3   5  -1   25.52    0.95 
  -3  -5   1   25.82    0.93 
   2   5  -1    3.91    0.21 
  -2  -5   1    4.11    0.18 
   1   5  -1   18.07    0.68 
   1   5  -1   17.60    0.63 
   0   5  -1    0.03    0.06 
  -3   5  -1   13.89    0.53 
  -4   5  -1   40.49    1.30 
  -4   5  -1   30.46    1.28 
  -5   5  -1    0.22    0.08 
  -5   5  -1    0.29    0.09 
  -6   5  -1   12.73    0.50 
  -6   5  -1   12.21    0.52 
  -7   5  -1   14.00    0.56 
  -7   5  -1   14.78    0.60 
  -8   5  -1    2.77    0.19 
  -8   5  -1    2.87    0.25 
   8  -5   1    2.64    0.19 
  -9   5  -1    4.17    0.24 
  -9   5  -1    3.93    0.28 
   9  -5   1    4.05    0.25 
 -10   5  -1    5.76    0.36 
  10  -5   1    6.29    0.32 
 -11   5  -1   -0.18    0.16 
 -12   5  -1   15.84    0.73 
 -13   5  -1    0.02    0.19 
 -14   5  -1   -0.21    0.20 
  12   4  -1    0.82    0.19 
 -12  -4   1    0.60    0.20 
  11   4  -1    0.20    0.16 
 -11  -4   1   -0.10    0.15 
  10   4  -1    1.08    0.19 
 -10  -4   1    1.10    0.19 
   9   4  -1    3.89    0.30 
  -9  -4   1    4.18    0.30 
   8   4  -1    0.37    0.13 
  -8  -4   1    0.27    0.13 
   7   4  -1    0.10    0.07 
   7   4  -1    0.09    0.11 
  -7  -4   1   -0.02    0.11 
   6   4  -1    1.41    0.14 
   6   4  -1    1.50    0.16 
  -6  -4   1    1.70    0.15 
   5   4  -1    1.86    0.14 
   5   4  -1    1.83    0.16 
  -5  -4   1    1.93    0.15 
   4   4  -1   27.05    0.99 
   4   4  -1   27.43    1.01 
  -4  -4   1   27.12    1.00 
   3   4  -1   29.07    1.05 
  -3  -4   1   28.94    1.05 
   2   4  -1  238.91    8.37 
  -2  -4   1  236.57    8.39 
   1   4  -1   27.89    0.99 
  -1  -4   1   26.86    0.97 
   0   4  -1    0.20    0.06 
  -1   4  -1   73.61    2.45 
  -1   4  -1   65.51    2.46 
  -2   4  -1  159.24    5.76 
  -2   4  -1  165.55    5.68 
  -3   4  -1   70.66    2.57 
  -3   4  -1   74.02    2.56 
  -4   4  -1    9.49    0.38 
  -4   4  -1    9.35    0.39 
  -5   4  -1   60.65    2.33 
  -5   4  -1   71.08    2.37 
  -6   4  -1    3.23    0.21 
   6  -4   1    3.26    0.17 
  -7   4  -1   20.54    0.81 
   7  -4   1   20.25    0.76 
  -8   4  -1   34.40    1.31 
   8  -4   1   34.84    1.26 
  -9   4  -1    2.86    0.26 
   9  -4   1    3.14    0.22 
 -10   4  -1    8.55    0.46 
  10  -4   1    8.88    0.41 
 -11   4  -1    6.20    0.39 
 -12   4  -1   14.20    0.67 
 -13   4  -1    0.27    0.20 
 -14   4  -1   -0.08    0.19 
  13   3  -1    1.57    0.24 
 -13  -3   1    1.64    0.26 
  12   3  -1    0.36    0.17 
 -12  -3   1    0.21    0.18 
  11   3  -1    0.12    0.14 
 -11  -3   1    0.04    0.16 
  10   3  -1    5.16    0.34 
 -10  -3   1    5.50    0.35 
   9   3  -1   -0.01    0.12 
  -9  -3   1   -0.02    0.13 
   8   3  -1    4.29    0.29 
  -8  -3   1    4.55    0.29 
   7   3  -1   24.54    0.94 
   7   3  -1   23.72    0.88 
  -7  -3   1   24.74    0.94 
   6   3  -1   18.48    0.73 
   6   3  -1   18.38    0.68 
  -6  -3   1   18.47    0.72 
   5   3  -1    5.54    0.23 
   5   3  -1    5.28    0.27 
  -5  -3   1    5.20    0.26 
   4   3  -1  127.99    4.52 
   4   3  -1  130.49    4.52 
  -4  -3   1  129.33    4.57 
   3   3  -1   33.51    1.22 
   3   3  -1   34.49    1.21 
  -3  -3   1   33.87    1.22 
   2   3  -1   46.63    1.65 
  -2  -3   1   46.51    1.65 
   1   3  -1  116.47    4.09 
  -1  -3   1  117.17    4.12 
  -1   3  -1  102.11    3.58 
  -1   3  -1  102.25    3.61 
  -2   3  -1    2.85    0.16 
  -2   3  -1    2.88    0.15 
  -3   3  -1   74.48    2.60 
  -3   3  -1   73.15    2.62 
  -4   3  -1   54.92    1.94 
  -4   3  -1   54.80    1.96 
   4  -3   1   54.37    1.92 
  -5   3  -1    6.41    0.30 
  -5   3  -1    6.77    0.28 
   5  -3   1    6.42    0.27 
  -6   3  -1    1.08    0.12 
  -6   3  -1    1.13    0.11 
   6  -3   1    1.17    0.10 
  -7   3  -1   14.18    0.54 
   7  -3   1   14.06    0.55 
  -8   3  -1    0.85    0.09 
   8  -3   1    0.78    0.11 
  -9   3  -1    0.05    0.06 
   9  -3   1    0.23    0.10 
 -10   3  -1    6.39    0.38 
  10  -3   1    6.58    0.33 
 -11   3  -1    0.11    0.16 
  11  -3   1   -0.05    0.11 
 -12   3  -1    0.09    0.18 
 -13   3  -1   -0.18    0.17 
 -14   3  -1    0.53    0.22 
  13   2  -1    3.68    0.33 
 -13  -2   1    4.17    0.37 
  12   2  -1    4.30    0.33 
 -12  -2   1    3.82    0.35 
  11   2  -1   14.74    0.65 
 -11  -2   1   14.54    0.67 
  10   2  -1   16.37    0.69 
 -10  -2   1   16.08    0.71 
   9   2  -1    5.43    0.34 
  -9  -2   1    5.90    0.35 
   8   2  -1    2.34    0.22 
  -8  -2   1    2.48    0.23 
   7   2  -1   -0.14    0.08 
   7   2  -1    0.01    0.04 
  -7  -2   1   -0.07    0.09 
   6   2  -1    7.64    0.30 
   6   2  -1    7.98    0.36 
  -6  -2   1    7.42    0.35 
   5   2  -1    0.72    0.06 
   5   2  -1    0.53    0.09 
  -5  -2   1    0.57    0.09 
   4   2  -1   66.56    2.33 
   4   2  -1   64.87    2.31 
  -4  -2   1   66.17    2.35 
   3   2  -1   78.10    2.71 
   3   2  -1   77.33    2.72 
  -3  -2   1   77.16    2.75 
   2   2  -1  198.01    6.88 
  -2  -2   1  193.21    6.89 
   1   2  -1   66.81    2.30 
  -1  -2   1   64.35    2.31 
   0   2  -1   -0.35    0.01 
  -1   2  -1   42.63    1.51 
  -1   2  -1   42.04    1.52 
  -2   2  -1   79.13    2.72 
  -2   2  -1   76.16    2.74 
  -3   2  -1    1.22    0.10 
  -3   2  -1    1.11    0.09 
   3  -2   1    1.08    0.08 
  -4   2  -1   14.68    0.63 
  -4   2  -1   18.10    0.62 
   4  -2   1   17.65    0.61 
  -5   2  -1   43.04    1.49 
   5  -2   1   40.76    1.48 
  -6   2  -1    0.08    0.07 
  -6   2  -1    0.00    0.05 
   6  -2   1   -0.03    0.06 
  -7   2  -1    0.92    0.13 
  -7   2  -1    1.17    0.11 
   7  -2   1    1.13    0.11 
  -8   2  -1   21.51    0.79 
   8  -2   1   21.73    0.82 
  -9   2  -1    4.86    0.33 
   9  -2   1    4.85    0.28 
 -10   2  -1   14.54    0.66 
  10  -2   1   14.39    0.59 
 -11   2  -1    3.20    0.29 
  11  -2   1    3.67    0.26 
 -12   2  -1   -0.17    0.16 
 -13   2  -1    0.39    0.22 
 -14   2  -1    1.31    0.26 
  13   1  -1    0.25    0.17 
 -13  -1   1    0.08    0.19 
  12   1  -1    1.91    0.22 
 -12  -1   1    1.49    0.24 
  11   1  -1    0.25    0.14 
 -11  -1   1   -0.02    0.17 
  10   1  -1    0.92    0.17 
 -10  -1   1    1.06    0.20 
   9   1  -1   27.10    1.04 
  -9  -1   1   27.11    1.07 
   8   1  -1    5.29    0.28 
  -8  -1   1    5.14    0.30 
   7   1  -1    2.77    0.13 
   7   1  -1    2.71    0.20 
  -7  -1   1    2.80    0.20 
   6   1  -1    9.28    0.35 
   6   1  -1    9.31    0.40 
  -6  -1   1    9.92    0.42 
   5   1  -1    0.20    0.07 
  -5  -1   1    0.22    0.08 
   4   1  -1  131.84    4.49 
   4   1  -1  126.85    4.49 
  -4  -1   1  127.44    4.55 
   3   1  -1   50.45    1.79 
   3   1  -1   51.15    1.78 
  -3  -1   1   50.85    1.81 
   2   1  -1   44.15    1.53 
  -2  -1   1   43.33    1.55 
   1   1  -1  144.18    4.84 
   1   1  -1  122.06    4.82 
  -1  -1   1  147.88    4.89 
   0  -1   1   47.92    1.67 
   0  -1   1   46.15    1.66 
  -1   1  -1  205.38    7.14 
  -1   1  -1  201.15    7.07 
  -2   1  -1  186.36    6.40 
   2  -1   1  179.38    6.36 
  -3   1  -1   25.85    0.91 
   3  -1   1   25.25    0.90 
  -4   1  -1  117.98    4.12 
   4  -1   1  117.92    4.10 
  -5   1  -1    3.66    0.22 
  -5   1  -1    4.02    0.17 
   5  -1   1    3.66    0.19 
  -6   1  -1    8.81    0.39 
  -6   1  -1    8.48    0.33 
   6  -1   1    8.39    0.36 
  -7   1  -1   -0.02    0.09 
  -7   1  -1    0.02    0.05 
   7  -1   1   -0.13    0.07 
  -8   1  -1   10.28    0.47 
  -8   1  -1    9.70    0.38 
   8  -1   1    9.31    0.42 
  -9   1  -1    3.80    0.30 
   9  -1   1    3.88    0.26 
 -10   1  -1    0.16    0.16 
  10  -1   1    0.25    0.12 
 -11   1  -1    0.61    0.19 
  11  -1   1    0.80    0.15 
 -12   1  -1   -0.04    0.17 
 -13   1  -1    0.10    0.20 
 -14   1  -1    2.55    0.31 
 -14   0   1    0.49    0.23 
  13   0  -1   -0.02    0.14 
 -13   0   1    0.02    0.20 
  12   0  -1    1.59    0.20 
 -12   0   1    1.38    0.24 
  11   0  -1    5.36    0.33 
 -11   0   1    5.11    0.37 
  10   0  -1    8.03    0.42 
 -10   0   1    8.54    0.46 
   9   0  -1    2.00    0.19 
  -9   0   1    2.18    0.22 
   8   0  -1   17.35    0.69 
  -8   0   1   17.18    0.71 
   7   0  -1    2.39    0.18 
  -7   0   1    2.09    0.20 
   6   0  -1   34.10    1.23 
  -6   0   1   33.92    1.26 
   5   0  -1    6.73    0.30 
  -5   0   1    6.69    0.31 
   4   0  -1    8.20    0.29 
   4   0  -1    7.87    0.33 
  -4   0   1    8.05    0.33 
   3   0  -1   24.49    0.87 
  -3   0   1   23.71    0.88 
   2   0  -1   44.89    1.64 
  -2   0   1   49.12    1.67 
  -1   0   1    1.52    0.08 
   0   0  -1   -0.07    0.00 
   0   0   1   -0.06    0.00 
   0   0   1   -0.06    0.00 
  -1   0  -1    1.98    0.09 
  -1   0  -1    1.74    0.08 
  -2   0  -1  158.73    5.65 
  -2   0  -1  159.24    5.59 
   2   0   1  159.91    5.55 
  -3   0  -1   15.27    0.57 
  -3   0  -1   15.11    0.54 
   3   0   1   14.79    0.55 
  -4   0  -1    2.44    0.12 
   4   0   1    2.55    0.14 
  -5   0  -1    0.72    0.07 
  -5   0  -1    0.69    0.10 
   5   0   1    0.60    0.08 
  -6   0  -1   88.70    3.15 
   6   0   1   86.86    3.08 
  -7   0  -1    0.58    0.12 
   7   0   1    0.51    0.10 
  -8   0  -1    1.76    0.18 
   8   0   1    1.44    0.15 
  -9   0  -1    0.03    0.14 
   9   0   1    0.05    0.11 
 -10   0  -1    0.63    0.17 
  10   0   1    0.84    0.15 
 -11   0  -1    0.38    0.17 
  11   0   1    0.44    0.13 
 -12   0  -1    5.01    0.38 
 -13   0  -1    2.02    0.28 
 -14   1   1   -0.03    0.21 
 -13   1   1    0.95    0.23 
  12  -1  -1    1.12    0.17 
 -12   1   1    1.43    0.24 
  11  -1  -1    0.20    0.13 
 -11   1   1    0.15    0.16 
  10  -1  -1    1.29    0.17 
 -10   1   1    1.28    0.19 
   9  -1  -1   -0.05    0.10 
  -9   1   1   -0.09    0.13 
   8  -1  -1    1.82    0.16 
  -8   1   1    1.60    0.17 
   7  -1  -1    0.48    0.09 
  -7   1   1    0.37    0.10 
  -7   1   1    0.51    0.05 
   6  -1  -1    1.04    0.11 
  -6   1   1    1.00    0.12 
  -6   1   1    1.14    0.07 
   5  -1  -1    1.98    0.14 
  -5   1   1    1.98    0.15 
  -5   1   1    2.08    0.10 
   4  -1  -1    7.61    0.31 
  -4   1   1    7.67    0.28 
   3  -1  -1   34.05    1.17 
  -3   1   1   34.09    1.15 
  -3   1   1   30.50    1.18 
   2  -1  -1  167.57    5.92 
  -2   1   1  172.67    5.96 
  -1   1   1  131.17    4.66 
  -1  -1  -1  283.87   10.02 
  -2  -1  -1  839.53   29.55 
  -3  -1  -1    6.48    0.28 
   3   1   1    6.87    0.27 
  -4  -1  -1   -0.02    0.04 
   4   1   1    0.12    0.06 
  -5  -1  -1    7.29    0.33 
   5   1   1    7.22    0.31 
  -6  -1  -1    0.46    0.10 
   6   1   1    0.47    0.09 
  -7  -1  -1   13.38    0.57 
   7   1   1   13.23    0.54 
  -8  -1  -1    0.03    0.12 
   8   1   1    0.01    0.10 
  -9  -1  -1    0.90    0.19 
   9   1   1    0.89    0.15 
 -10  -1  -1    0.30    0.17 
  10   1   1    0.70    0.14 
 -11  -1  -1   -0.09    0.15 
  11   1   1    0.10    0.14 
 -12  -1  -1   -0.07    0.16 
 -13  -1  -1    0.12    0.18 
 -14   2   1    1.22    0.25 
 -13   2   1    0.47    0.21 
  12  -2  -1    8.43    0.44 
 -12   2   1    9.91    0.52 
  11  -2  -1   17.64    0.72 
 -11   2   1   17.22    0.76 
  10  -2  -1    1.99    0.18 
 -10   2   1    1.67    0.21 
   9  -2  -1    3.66    0.24 
  -9   2   1    3.81    0.29 
   8  -2  -1    0.78    0.11 
  -8   2   1    0.53    0.13 
   7  -2  -1    7.71    0.35 
  -7   2   1    8.02    0.31 
  -7   2   1    8.42    0.38 
   6  -2  -1    5.76    0.26 
  -6   2   1    5.85    0.23 
  -6   2   1    5.06    0.27 
   5  -2  -1   -0.05    0.06 
  -5   2   1   -0.02    0.04 
  -5   2   1   -0.05    0.01 
   4  -2  -1   14.16    0.52 
  -4   2   1   13.94    0.51 
   3  -2  -1   32.22    1.15 
  -3   2   1   32.80    1.18 
  -3   2   1   32.64    1.15 
   2  -2  -1  151.37    5.24 
  -2   2   1  152.33    5.32 
  -2   2   1  149.13    5.34 
  -1   2   1   70.84    2.51 
  -1   2   1   71.78    2.50 
   0   2   1    0.01    0.04 
   0   2   1   -0.01    0.01 
  -1  -2  -1    3.12    0.14 
  -2  -2  -1  366.79   12.97 
  -3  -2  -1    3.43    0.18 
   4   2   1    3.47    0.19 
  -5  -2  -1    1.73    0.16 
   5   2   1    1.61    0.13 
  -6  -2  -1   13.21    0.54 
   6   2   1   12.63    0.52 
  -7  -2  -1   14.06    0.59 
   7   2   1   13.73    0.57 
  -8  -2  -1    0.14    0.13 
   8   2   1    0.22    0.12 
  -9  -2  -1   65.80    2.39 
   9   2   1   63.54    2.34 
 -10  -2  -1    0.67    0.18 
  10   2   1    0.56    0.15 
 -11  -2  -1   -0.45    0.14 
  11   2   1    0.12    0.13 
 -12  -2  -1    0.48    0.19 
  12   2   1    0.24    0.15 
 -13  -2  -1    1.47    0.26 
 -14   3   1    3.30    0.34 
 -13   3   1    0.00    0.19 
  12  -3  -1    0.55    0.15 
 -12   3   1    0.56    0.19 
  11  -3  -1    1.50    0.18 
 -11   3   1    1.80    0.22 
  10  -3  -1   13.86    0.59 
 -10   3   1   14.27    0.64 
   9  -3  -1   -0.04    0.10 
  -9   3   1   -0.02    0.03 
   8  -3  -1   -0.01    0.08 
  -8   3   1    0.02    0.02 
  -8   3   1    0.07    0.05 
   7  -3  -1    0.48    0.09 
  -7   3   1    0.56    0.07 
  -7   3   1    0.33    0.08 
   6  -3  -1   26.22    0.96 
  -6   3   1   25.97    0.99 
  -6   3   1   26.01    0.94 
   5  -3  -1    0.41    0.07 
  -5   3   1    0.27    0.08 
  -5   3   1    0.41    0.06 
   4  -3  -1  134.78    4.77 
  -4   3   1  137.69    4.79 
  -4   3   1  138.31    4.84 
  -3   3   1   78.37    2.72 
  -3   3   1   76.46    2.75 
  -2   3   1  142.62    5.09 
  -2   3   1  144.87    5.04 
  -1   3   1   11.71    0.44 
  -1   3   1   12.19    0.45 
   0   3   1  194.27    6.85 
  -1  -3  -1    0.28    0.05 
   1   3   1    0.28    0.06 
  -2  -3  -1    6.02    0.26 
   2   3   1    6.28    0.27 
  -3  -3  -1    0.18    0.07 
   4   3   1    8.48    0.36 
  -5  -3  -1    2.86    0.19 
   5   3   1    2.71    0.19 
  -6  -3  -1   68.96    2.48 
   6   3   1   68.24    2.45 
  -7  -3  -1    8.05    0.39 
   7   3   1    7.76    0.38 
   7   3   1    7.83    0.34 
  -8  -3  -1    1.24    0.17 
   8   3   1    1.19    0.16 
  -9  -3  -1    0.80    0.16 
   9   3   1    0.59    0.15 
 -10  -3  -1    0.31    0.15 
  10   3   1    0.28    0.14 
 -11  -3  -1    4.66    0.35 
  11   3   1    4.58    0.33 
 -12  -3  -1    0.16    0.19 
  12   3   1    0.47    0.17 
 -13  -3  -1    0.68    0.23 
 -14   4   1    0.98    0.25 
 -13   4   1   -0.05    0.18 
  12  -4  -1    0.42    0.15 
 -12   4   1    0.28    0.17 
  11  -4  -1    4.33    0.29 
 -11   4   1    5.20    0.34 
  10  -4  -1    6.47    0.34 
 -10   4   1    6.35    0.38 
   9  -4  -1    7.41    0.34 
  -9   4   1    5.42    0.34 
   8  -4  -1   13.28    0.54 
  -8   4   1   13.57    0.57 
  -8   4   1   13.17    0.51 
   7  -4  -1    5.46    0.27 
  -7   4   1    5.42    0.30 
  -7   4   1    5.52    0.24 
   6  -4  -1    5.95    0.27 
  -6   4   1    5.75    0.25 
  -6   4   1    5.49    0.29 
   5  -4  -1    8.96    0.37 
  -5   4   1    8.89    0.36 
  -5   4   1    8.99    0.39 
  -4   4   1   50.95    1.84 
  -4   4   1   52.57    1.86 
  -3   4   1  112.89    3.96 
  -3   4   1  112.71    3.99 
  -2   4   1   40.67    1.46 
  -2   4   1   41.03    1.46 
  -1   4   1    9.26    0.37 
  -1   4   1    9.45    0.35 
   0   4   1    1.87    0.14 
   0   4   1    2.69    0.12 
   1   4   1   86.83    3.08 
   1   4   1   87.74    3.08 
  -2  -4  -1   11.83    0.44 
   2   4   1   11.00    0.45 
  -3  -4  -1   10.90    0.43 
   3   4   1   10.54    0.43 
   4   4   1   14.11    0.55 
  -5  -4  -1    0.93    0.12 
   5   4   1    1.15    0.14 
   5   4   1    1.03    0.11 
  -6  -4  -1   60.42    2.19 
   6   4   1   61.12    2.16 
   6   4   1   59.52    2.18 
  -7  -4  -1    3.19    0.24 
   7   4   1    2.85    0.23 
   7   4   1    2.76    0.20 
  -8  -4  -1    0.08    0.13 
   8   4   1   -0.07    0.12 
  -9  -4  -1    1.74    0.20 
   9   4   1    1.88    0.21 
 -10  -4  -1    0.72    0.18 
  10   4   1    0.57    0.16 
 -11  -4  -1    1.54    0.22 
  11   4   1    1.44    0.21 
 -12  -4  -1   -0.07    0.17 
  12   4   1    0.03    0.16 
 -14   5   1    2.20    0.29 
 -13   5   1    0.42    0.19 
  12  -5  -1    3.99    0.28 
 -12   5   1    3.69    0.34 
  11  -5  -1   13.98    0.58 
 -11   5   1   12.97    0.63 
  10  -5  -1    0.42    0.13 
 -10   5   1    0.52    0.16 
   9  -5  -1    5.41    0.30 
  -9   5   1    5.04    0.32 
   8  -5  -1    7.14    0.33 
  -8   5   1    6.92    0.36 
  -8   5   1    7.14    0.31 
   7  -5  -1    7.41    0.33 
  -7   5   1    7.15    0.35 
  -7   5   1    6.88    0.31 
  -6   5   1   31.09    1.25 
  -6   5   1   37.91    1.28 
  -5   5   1    3.34    0.18 
  -4   5   1   90.29    3.21 
  -2   5   1    0.13    0.06 
  -2   5   1    0.04    0.04 
   0   5   1   11.90    0.47 
   0   5   1   11.19    0.43 
   1   5   1   96.87    3.47 
   1   5   1   99.91    3.47 
  -2  -5  -1    0.93    0.08 
   2   5   1    0.98    0.11 
  -3  -5  -1   13.75    0.52 
   3   5   1   13.34    0.54 
   4   5   1   48.83    1.76 
  -5  -5  -1    2.66    0.20 
   5   5   1    2.12    0.20 
   5   5   1    3.04    0.24 
  -6  -5  -1    3.37    0.25 
   6   5   1    4.01    0.28 
   6   5   1    3.79    0.23 
  -7  -5  -1    0.65    0.14 
   7   5   1    0.61    0.11 
   7   5   1    0.70    0.15 
  -8  -5  -1    0.73    0.16 
   8   5   1    0.75    0.17 
  -9  -5  -1    0.54    0.16 
   9   5   1    0.69    0.17 
 -10  -5  -1   -0.11    0.14 
  10   5   1    0.21    0.14 
 -11  -5  -1    0.07    0.17 
  11   5   1    0.06    0.15 
  12   5   1   -0.15    0.16 
 -14   6   1   -0.07    0.19 
 -13   6   1    4.11    0.35 
 -12   6   1    0.14    0.18 
  11  -6  -1    5.57    0.33 
 -11   6   1    6.33    0.38 
 -10   6   1   25.50    1.03 
  -9   6   1    8.27    0.43 
  -9   6   1    8.24    0.37 
  -8   6   1   23.98    0.89 
  -8   6   1   23.12    0.93 
  -7   6   1    2.95    0.20 
  -7   6   1    3.08    0.22 
  -6   6   1    0.35    0.09 
  -6   6   1    0.34    0.11 
  -5   6   1    9.48    0.41 
  -5   6   1   10.21    0.42 
  -4   6   1   26.56    0.98 
  -4   6   1   26.00    0.98 
  -3   6   1   35.53    1.29 
  -3   6   1   34.76    1.27 
  -2   6   1  110.40    3.93 
  -2   6   1  112.36    3.93 
  -1   6   1   15.50    0.57 
   0   6   1    0.34    0.09 
   0   6   1    0.44    0.06 
   1   6   1   18.59    0.69 
   1   6   1   19.21    0.73 
   2   6   1   19.83    0.73 
   2   6   1   19.91    0.77 
  -3  -6  -1   13.03    0.51 
   3   6   1   12.98    0.53 
  -4  -6  -1    0.19    0.07 
   4   6   1    0.05    0.09 
  -5  -6  -1    1.31    0.14 
   5   6   1    1.31    0.14 
  -6  -6  -1    3.08    0.24 
   6   6   1    2.97    0.23 
   6   6   1    3.16    0.28 
  -7  -6  -1   -0.08    0.12 
   7   6   1    0.06    0.10 
   7   6   1    0.13    0.14 
  -8  -6  -1    0.28    0.14 
   8   6   1    0.16    0.14 
  -9  -6  -1    7.93    0.42 
   9   6   1    7.18    0.44 
  10   6   1    0.45    0.18 
  11   6   1    0.51    0.19 
 -14   7   1    1.46    0.27 
 -13   7   1    1.87    0.26 
 -12   7   1   -0.14    0.16 
 -11   7   1    1.04    0.21 
 -10   7   1    3.08    0.29 
  -9   7   1    0.12    0.10 
  -9   7   1   -0.12    0.13 
  -8   7   1    2.64    0.20 
  -8   7   1    2.50    0.23 
  -7   7   1    0.37    0.12 
  -7   7   1    0.48    0.11 
  -6   7   1    0.83    0.12 
  -6   7   1    0.87    0.13 
  -5   7   1    1.82    0.18 
  -5   7   1    1.42    0.14 
  -4   7   1    0.13    0.08 
  -4   7   1    0.28    0.08 
  -3   7   1   10.76    0.44 
  -3   7   1   11.29    0.47 
  -2   7   1   49.32    1.78 
  -2   7   1   48.86    1.75 
  -1   7   1    0.03    0.05 
  -1   7   1    0.03    0.03 
   0   7   1   26.08    0.97 
   0   7   1   24.97    0.92 
   1   7   1   17.85    0.69 
   1   7   1   16.91    0.63 
   2   7   1    1.66    0.15 
   2   7   1    1.99    0.13 
  -3  -7  -1   10.83    0.43 
   3   7   1   10.80    0.47 
  -4  -7  -1    3.70    0.20 
  -5  -7  -1    0.13    0.10 
   5   7   1   -0.10    0.10 
  -6  -7  -1    0.23    0.12 
   6   7   1    0.04    0.11 
   6   7   1    0.05    0.13 
   7   7   1    3.03    0.27 
   7   7   1    3.04    0.24 
   8   7   1    0.29    0.15 
   9   7   1    0.84    0.20 
  10   7   1    0.41    0.19 
  11   7   1    1.08    0.24 
 -14   8   1    0.20    0.20 
 -13   8   1   -0.22    0.17 
 -12   8   1    1.66    0.25 
 -11   8   1    0.00    0.16 
 -10   8   1   -0.15    0.15 
  -9   8   1    3.95    0.26 
  -9   8   1    4.40    0.29 
  -8   8   1    8.70    0.43 
  -8   8   1    8.31    0.40 
  -7   8   1    0.60    0.13 
  -7   8   1    0.70    0.14 
  -6   8   1   25.28    0.98 
  -6   8   1   26.12    0.99 
  -5   8   1    0.69    0.12 
  -5   8   1    0.78    0.11 
  -4   8   1   24.37    0.94 
  -4   8   1   24.53    0.92 
  -3   8   1    3.30    0.19 
  -3   8   1    3.08    0.22 
  -2   8   1    0.24    0.07 
  -2   8   1    0.26    0.10 
   0   8   1    0.03    0.06 
   0   8   1    0.14    0.10 
   1   8   1    2.16    0.13 
   1   8   1    2.10    0.20 
   2   8   1    0.92    0.09 
   2   8   1    1.00    0.14 
   3   8   1    0.09    0.08 
   3   8   1    0.01    0.11 
   4   8   1    0.56    0.14 
   5   8   1   22.07    0.88 
   6   8   1    3.27    0.29 
   6   8   1    3.26    0.27 
   7   8   1    0.14    0.16 
   8   8   1    1.80    0.23 
   9   8   1    0.21    0.19 
  10   8   1    1.60    0.25 
 -13   9   1   -0.13    0.18 
 -12   9   1   -0.04    0.16 
 -11   9   1   -0.20    0.14 
 -10   9   1   -0.02    0.13 
  -9   9   1    6.32    0.35 
  -9   9   1    6.49    0.38 
  -8   9   1    0.64    0.14 
  -8   9   1    0.38    0.15 
  -7   9   1   36.03    1.35 
  -7   9   1   35.37    1.35 
  -6   9   1    0.46    0.12 
  -6   9   1    0.46    0.13 
  -5   9   1    2.08    0.19 
  -5   9   1    1.65    0.18 
  -4   9   1    3.15    0.24 
  -4   9   1    3.48    0.20 
  -3   9   1    0.94    0.10 
  -3   9   1    0.95    0.15 
  -2   9   1   10.99    0.43 
   0   9   1   14.75    0.63 
   1   9   1   22.89    0.91 
   2   9   1    5.41    0.33 
   3   9   1    5.67    0.33 
   4   9   1   19.89    0.82 
   5   9   1    1.07    0.17 
   6   9   1   -0.11    0.14 
   6   9   1   -0.09    0.12 
   7   9   1   -0.09    0.16 
   8   9   1    0.03    0.16 
   9   9   1    1.55    0.25 
 -13  10   1    0.85    0.24 
 -12  10   1    1.58    0.24 
 -11  10   1    5.07    0.36 
 -10  10   1    1.85    0.22 
  -9  10   1    6.96    0.38 
  -9  10   1    7.34    0.40 
  -8  10   1    2.00    0.21 
  -8  10   1    2.26    0.21 
  -7  10   1   -0.18    0.12 
  -7  10   1   -0.18    0.11 
  -6  10   1    2.42    0.23 
  -6  10   1    2.66    0.23 
  -5  10   1    1.60    0.15 
  -5  10   1    1.24    0.17 
  -4  10   1    2.03    0.18 
  -4  10   1    1.88    0.20 
  -3  10   1    2.19    0.16 
  -3  10   1    1.70    0.20 
  -2  10   1    0.01    0.03 
   0  10   1    0.60    0.15 
   1  10   1    3.17    0.26 
   2  10   1    2.24    0.22 
   3  10   1    2.27    0.23 
   4  10   1    1.63    0.19 
   5  10   1    2.09    0.22 
   6  10   1    2.19    0.23 
   6  10   1    2.19    0.25 
   7  10   1    0.04    0.17 
   8  10   1    1.70    0.25 
 -12  11   1    0.79    0.21 
 -11  11   1    2.32    0.26 
 -10  11   1    0.90    0.19 
 -10  11   1    0.80    0.17 
  -9  11   1    0.56    0.16 
  -9  11   1    0.45    0.15 
  -8  11   1    1.08    0.17 
  -8  11   1    1.28    0.19 
  -7  11   1    6.39    0.38 
  -7  11   1    6.21    0.35 
  -6  11   1    3.53    0.28 
  -6  11   1    4.39    0.27 
  -5  11   1   -0.05    0.12 
  -4  11   1    1.92    0.21 
  -3  11   1   11.15    0.54 
  -2  11   1    4.74    0.31 
  -1  11   1    0.36    0.14 
   0  11   1   11.49    0.55 
   1  11   1    0.82    0.17 
   2  11   1    3.86    0.29 
   3  11   1   -0.04    0.12 
   4  11   1    0.92    0.18 
   5  11   1    1.01    0.19 
   6  11   1    0.61    0.17 
   6  11   1    0.32    0.18 
   7  11   1    6.49    0.43 
   8  11   1    0.44    0.20 
 -12  12   1    1.92    0.27 
 -11  12   1    0.70    0.20 
 -10  12   1    1.17    0.21 
 -10  12   1    1.19    0.19 
  -9  12   1    0.31    0.16 
  -9  12   1    0.26    0.15 
  -8  12   1    1.77    0.21 
  -7  12   1    0.13    0.15 
  -6  12   1    4.39    0.33 
  -5  12   1   10.68    0.53 
  -4  12   1   -0.04    0.13 
  -3  12   1    3.34    0.28 
  -2  12   1    0.24    0.14 
  -1  12   1   -0.12    0.13 
   0  12   1   -0.07    0.14 
   1  12   1   -0.07    0.13 
   2  12   1    0.59    0.16 
   3  12   1    0.90    0.18 
   4  12   1    0.61    0.18 
   5  12   1    0.06    0.16 
   6  12   1    1.58    0.26 
   7  12   1    0.39    0.22 
 -10  13   1    0.01    0.16 
  -9  13   1    1.15    0.21 
  -8  13   1    1.27    0.21 
  -7  13   1    1.32    0.20 
  -6  13   1    1.55    0.22 
  -5  13   1    0.89    0.18 
  -4  13   1    3.20    0.28 
  -3  13   1    0.57    0.17 
  -2  13   1    0.94    0.19 
  -1  13   1    1.62    0.22 
   0  13   1    0.32    0.17 
   1  13   1    0.13    0.17 
   2  13   1    0.19    0.16 
   3  13   1    7.57    0.44 
   4  13   1    0.84    0.21 
   5  13   1    1.62    0.24 
 -10  14   1    1.35    0.22 
  -9  14   1    4.23    0.36 
  -8  14   1    1.13    0.22 
  -7  14   1    2.06    0.24 
  -6  14   1    0.00    0.15 
  -5  14   1    2.74    0.27 
  -4  14   1    1.29    0.21 
  -3  14   1    0.87    0.19 
  -2  14   1   -0.01    0.16 
  -1  14   1    1.69    0.24 
   0  14   1   -0.14    0.15 
   1  14   1    1.23    0.22 
   2  14   1    0.24    0.18 
   3  14   1    0.62    0.19 
   4  14   1    1.02    0.23 
  -9  15   1   -0.09    0.18 
  -8  15   1   -0.17    0.16 
  -7  15   1    0.69    0.20 
  -6  15   1    0.17    0.18 
  -5  15   1   -0.12    0.16 
  -4  15   1    1.14    0.23 
  -3  15   1    0.00    0.17 
  -2  15   1    0.03    0.17 
  -1  15   1    1.99    0.26 
   0  15   1    0.34    0.20 
   1  15   1    1.32    0.24 
   2  15   1    0.73    0.22 
  -7  16   1    0.67    0.22 
  -6  16   1    0.07    0.20 
  -5  16   1    5.44    0.41 
  -4  16   1    0.04    0.18 
  -3  16   1    0.10    0.19 
  -2  16   1    1.76    0.27 
  -1  16   1    0.08    0.18 
   0  16   1    0.27    0.20 
   1  16  -2    0.81    0.24 
   0  16  -2    0.85    0.23 
  -1  16  -2    0.74    0.22 
  -2  16  -2    0.79    0.21 
  -3  16  -2    0.26    0.19 
  -4  16  -2    0.43    0.20 
  -5  16  -2    0.05    0.19 
  -6  16  -2   -0.17    0.18 
  -7  16  -2   -0.11    0.18 
   3  15  -2    0.23    0.18 
   2  15  -2    1.34    0.24 
   1  15  -2    0.30    0.18 
   0  15  -2   -0.01    0.16 
  -1  15  -2    0.86    0.21 
  -2  15  -2    0.03    0.16 
  -3  15  -2    0.86    0.21 
  -4  15  -2    2.50    0.29 
  -5  15  -2   -0.07    0.16 
  -6  15  -2    0.27    0.19 
  -7  15  -2    0.00    0.16 
  -8  15  -2    0.45    0.18 
  -9  15  -2    0.37    0.20 
   5  14  -2    0.67    0.22 
   4  14  -2    0.67    0.19 
   3  14  -2   -0.29    0.13 
   2  14  -2    6.55    0.41 
   1  14  -2    0.51    0.18 
   0  14  -2   19.35    0.85 
  -1  14  -2    6.36    0.40 
  -2  14  -2   13.66    0.65 
  -3  14  -2    3.55    0.30 
  -4  14  -2   -0.19    0.13 
  -5  14  -2   -0.26    0.13 
  -6  14  -2    0.29    0.16 
  -7  14  -2    1.20    0.21 
  -8  14  -2    0.00    0.16 
  -9  14  -2   -0.01    0.17 
 -10  14  -2    0.20    0.18 
   6  13  -2    0.11    0.19 
   5  13  -2    4.62    0.38 
   5  13  -2    4.87    0.35 
   4  13  -2    0.00    0.15 
   3  13  -2    0.06    0.15 
   2  13  -2    0.34    0.16 
   1  13  -2    1.44    0.21 
   0  13  -2    0.84    0.18 
  -1  13  -2    0.49    0.16 
  -2  13  -2    0.35    0.16 
  -3  13  -2    0.29    0.16 
  -4  13  -2   -0.10    0.13 
  -5  13  -2    0.79    0.18 
  -6  13  -2    0.00    0.14 
  -7  13  -2    0.38    0.16 
  -8  13  -2    4.39    0.32 
  -9  13  -2   10.78    0.55 
 -10  13  -2   -0.04    0.16 
   7  12  -2    0.14    0.19 
   6  12  -2    0.30    0.17 
   5  12  -2    0.00    0.14 
   5  12  -2    0.24    0.16 
   4  12  -2    0.26    0.14 
   3  12  -2    1.92    0.22 
   2  12  -2    2.77    0.25 
   1  12  -2    0.06    0.14 
   0  12  -2    0.76    0.17 
  -1  12  -2    1.21    0.18 
  -2  12  -2    2.18    0.22 
  -3  12  -2   13.87    0.64 
  -4  12  -2    2.39    0.24 
  -5  12  -2    0.72    0.17 
  -6  12  -2    0.97    0.18 
  -7  12  -2    1.32    0.19 
  -8  12  -2    0.03    0.14 
  -9  12  -2    1.30    0.20 
  -9  12  -2    1.25    0.19 
 -10  12  -2   -0.17    0.13 
 -10  12  -2   -0.07    0.15 
 -11  12  -2    1.14    0.22 
 -12  12  -2    0.94    0.24 
   8  11  -2    2.64    0.30 
   7  11  -2    0.51    0.20 
   6  11  -2    0.70    0.18 
   5  11  -2    3.65    0.32 
   5  11  -2    3.85    0.29 
   4  11  -2    0.79    0.16 
   3  11  -2    1.02    0.18 
   2  11  -2    0.11    0.13 
   1  11  -2    0.59    0.15 
   0  11  -2    0.04    0.12 
  -1  11  -2   -0.11    0.12 
  -2  11  -2    1.04    0.16 
  -3  11  -2   20.29    0.84 
  -4  11  -2    7.14    0.39 
  -5  11  -2    0.55    0.15 
  -6  11  -2   -0.15    0.11 
  -6  11  -2   -0.05    0.12 
  -7  11  -2    2.19    0.23 
  -7  11  -2    2.11    0.20 
  -8  11  -2    1.98    0.21 
  -8  11  -2    1.79    0.21 
  -9  11  -2    1.07    0.18 
  -9  11  -2    1.07    0.18 
 -10  11  -2    1.44    0.21 
 -10  11  -2    1.12    0.18 
 -11  11  -2    0.46    0.19 
 -12  11  -2    1.29    0.24 
   9  10  -2   -0.17    0.18 
   8  10  -2   -0.07    0.17 
   7  10  -2    0.10    0.15 
   6  10  -2    6.36    0.41 
   6  10  -2    6.28    0.35 
   5  10  -2    0.30    0.15 
   5  10  -2   -0.04    0.12 
   4  10  -2    1.45    0.18 
   3  10  -2   -0.17    0.12 
   2  10  -2    4.90    0.30 
   1  10  -2   42.59    1.59 
   0  10  -2    0.52    0.14 
  -1  10  -2   18.41    0.75 
  -2  10  -2    0.02    0.03 
  -3  10  -2    0.08    0.12 
  -4  10  -2   -0.10    0.08 
  -4  10  -2    0.03    0.12 
  -5  10  -2   13.96    0.57 
  -5  10  -2   14.23    0.62 
  -6  10  -2   -0.14    0.10 
  -6  10  -2   -0.18    0.12 
  -7  10  -2    2.98    0.25 
  -7  10  -2    2.88    0.26 
  -8  10  -2    5.94    0.34 
  -8  10  -2    5.77    0.35 
  -9  10  -2    0.33    0.14 
  -9  10  -2    0.29    0.16 
 -10  10  -2    1.28    0.20 
 -10  10  -2    1.34    0.18 
 -11  10  -2    1.11    0.21 
 -12  10  -2    0.53    0.19 
 -13  10  -2    2.92    0.33 
  10   9  -2    0.29    0.20 
   9   9  -2    0.98    0.21 
   8   9  -2    0.07    0.17 
   7   9  -2    3.07    0.29 
   6   9  -2    3.85    0.27 
   6   9  -2    3.40    0.31 
   5   9  -2   12.29    0.54 
   5   9  -2   12.32    0.58 
   4   9  -2   -0.07    0.10 
   3   9  -2    1.07    0.14 
   2   9  -2    0.11    0.10 
   1   9  -2    0.03    0.11 
   0   9  -2   -0.01    0.10 
  -1   9  -2   15.14    0.63 
  -3   9  -2    0.22    0.11 
  -3   9  -2    0.20    0.08 
  -4   9  -2   11.53    0.50 
  -4   9  -2   10.43    0.44 
  -5   9  -2    3.28    0.21 
  -5   9  -2    2.79    0.23 
  -6   9  -2    9.26    0.42 
  -6   9  -2    9.00    0.43 
  -7   9  -2    7.52    0.39 
  -7   9  -2    7.93    0.40 
  -8   9  -2    0.83    0.15 
  -8   9  -2    0.83    0.16 
  -9   9  -2    3.75    0.28 
  -9   9  -2    3.94    0.30 
 -10   9  -2   10.49    0.49 
 -10   9  -2   11.03    0.54 
 -11   9  -2    0.93    0.20 
 -12   9  -2    0.03    0.18 
 -13   9  -2    1.57    0.27 
  11   8  -2    0.97    0.24 
  10   8  -2   -0.01    0.16 
   9   8  -2    0.22    0.17 
   8   8  -2    0.33    0.17 
   7   8  -2    6.49    0.40 
   6   8  -2    2.77    0.25 
   6   8  -2    3.03    0.23 
   5   8  -2    0.44    0.15 
   5   8  -2    0.52    0.12 
   4   8  -2   -0.06    0.09 
   3   8  -2   41.00    1.51 
   2   8  -2    0.07    0.09 
   1   8  -2   18.91    0.75 
   0   8  -2    0.14    0.09 
  -1   8  -2   16.88    0.68 
  -2   8  -2    9.85    0.43 
  -2   8  -2    9.52    0.37 
  -3   8  -2    7.91    0.37 
  -3   8  -2    7.84    0.33 
  -4   8  -2    6.30    0.29 
  -4   8  -2    7.01    0.34 
  -5   8  -2   24.40    0.94 
  -5   8  -2   24.53    0.92 
  -6   8  -2    0.04    0.10 
  -6   8  -2    0.03    0.10 
  -7   8  -2   38.95    1.44 
  -7   8  -2   38.10    1.44 
  -8   8  -2    7.36    0.40 
  -8   8  -2    7.86    0.38 
  -9   8  -2    2.28    0.23 
  -9   8  -2    2.31    0.21 
 -10   8  -2    3.33    0.30 
 -11   8  -2    1.03    0.20 
 -12   8  -2    0.10    0.18 
 -13   8  -2    0.41    0.22 
  11   7  -2    0.13    0.19 
  10   7  -2   -0.26    0.16 
   9   7  -2    4.09    0.34 
   8   7  -2    0.23    0.15 
   7   7  -2    1.62    0.20 
   6   7  -2    1.20    0.14 
   6   7  -2    0.87    0.16 
  -6  -7   2    1.30    0.14 
   5   7  -2    1.68    0.15 
   5   7  -2    1.08    0.15 
   4   7  -2    1.15    0.13 
  -4  -7   2    1.22    0.11 
   3   7  -2    9.61    0.42 
  -3  -7   2    9.78    0.37 
   2   7  -2    6.75    0.32 
   1   7  -2    7.81    0.35 
   0   7  -2    0.07    0.07 
  -1   7  -2    3.08    0.13 
  -2   7  -2   74.50    2.61 
  -2   7  -2   73.31    2.64 
  -3   7  -2    2.76    0.19 
  -3   7  -2    2.78    0.16 
  -4   7  -2    5.50    0.28 
  -4   7  -2    5.33    0.25 
  -5   7  -2   92.50    3.24 
  -5   7  -2   89.56    3.25 
  -6   7  -2   12.68    0.52 
  -6   7  -2   12.11    0.52 
  -7   7  -2   30.94    1.17 
  -7   7  -2   31.63    1.19 
  -8   7  -2    6.28    0.36 
  -8   7  -2    6.53    0.33 
  -9   7  -2    1.16    0.18 
  -9   7  -2    1.15    0.15 
 -10   7  -2    1.15    0.19 
 -11   7  -2    0.90    0.20 
 -12   7  -2    5.30    0.39 
 -13   7  -2    0.32    0.21 
 -14   7  -2    0.01    0.20 
  12   6  -2    0.11    0.19 
  11   6  -2    0.03    0.17 
  10   6  -2    0.96    0.20 
   9   6  -2    1.04    0.19 
  -9  -6   2    1.23    0.18 
   8   6  -2    5.09    0.34 
  -8  -6   2    5.70    0.31 
   7   6  -2   31.87    1.23 
  -7  -6   2   31.80    1.20 
   6   6  -2    0.82    0.16 
   6   6  -2    0.94    0.12 
  -6  -6   2    0.95    0.13 
   5   6  -2    5.85    0.31 
   5   6  -2    5.87    0.26 
  -5  -6   2    4.19    0.24 
   4   6  -2   15.25    0.60 
  -4  -6   2   15.38    0.58 
   3   6  -2    7.84    0.35 
  -3  -6   2    8.35    0.32 
   2   6  -2   49.03    1.77 
  -2  -6   2   49.32    1.74 
   1   6  -2   11.50    0.47 
   0   6  -2   66.51    2.37 
  -1   6  -2   50.69    1.79 
  -2   6  -2    0.85    0.08 
  -2   6  -2    0.92    0.11 
  -3   6  -2   14.98    0.58 
  -3   6  -2   14.02    0.55 
  -4   6  -2  191.48    6.87 
  -4   6  -2  198.34    6.84 
  -5   6  -2    0.04    0.08 
  -5   6  -2    0.15    0.08 
  -6   6  -2    7.21    0.33 
  -6   6  -2    6.66    0.33 
  -7   6  -2    2.75    0.21 
  -7   6  -2    2.85    0.21 
  -8   6  -2    7.76    0.40 
  -8   6  -2    8.06    0.37 
  -9   6  -2    1.69    0.21 
  -9   6  -2    1.92    0.17 
 -10   6  -2    1.20    0.21 
 -11   6  -2    6.85    0.42 
 -12   6  -2    0.57    0.21 
 -13   6  -2   -0.24    0.18 
 -14   6  -2    1.35    0.27 
  12   5  -2    0.18    0.18 
  11   5  -2    4.64    0.37 
 -11  -5   2    5.13    0.36 
  10   5  -2    0.32    0.16 
 -10  -5   2   -0.03    0.14 
   9   5  -2    6.02    0.37 
  -9  -5   2    5.41    0.34 
   8   5  -2    2.16    0.21 
  -8  -5   2    2.09    0.20 
   7   5  -2    0.59    0.15 
  -7  -5   2    0.44    0.14 
   6   5  -2   17.10    0.69 
   6   5  -2   16.35    0.63 
  -6  -5   2   16.45    0.66 
   5   5  -2    0.49    0.11 
   5   5  -2    0.55    0.08 
  -5  -5   2    0.40    0.09 
   4   5  -2   11.50    0.45 
   4   5  -2   10.74    0.47 
  -4  -5   2   11.59    0.44 
   3   5  -2  132.64    4.69 
  -3  -5   2  134.75    4.71 
   2   5  -2   30.90    1.12 
  -2  -5   2   30.82    1.10 
   1   5  -2  126.70    4.45 
   0   5  -2    0.27    0.07 
  -2   5  -2   10.58    0.40 
  -3   5  -2   13.03    0.45 
  -3   5  -2    9.57    0.45 
  -4   5  -2   21.16    0.81 
  -4   5  -2   22.14    0.81 
  -5   5  -2    0.13    0.08 
  -5   5  -2    0.12    0.07 
  -6   5  -2    0.19    0.08 
  -6   5  -2    0.22    0.09 
  -7   5  -2   28.33    1.09 
  -7   5  -2   28.75    1.06 
  -8   5  -2    3.87    0.26 
  -8   5  -2    3.94    0.23 
   8  -5   2    3.59    0.22 
  -9   5  -2   11.76    0.47 
  -9   5  -2   10.67    0.52 
   9  -5   2   11.01    0.47 
 -10   5  -2   20.33    0.86 
 -11   5  -2    0.20    0.18 
 -12   5  -2    1.88    0.27 
 -13   5  -2   -0.15    0.19 
 -14   5  -2    0.66    0.23 
  13   4  -2    0.74    0.21 
 -13  -4   2    0.69    0.22 
  12   4  -2    3.30    0.32 
 -12  -4   2    3.03    0.29 
  11   4  -2    0.76    0.19 
 -11  -4   2    0.88    0.20 
  10   4  -2    0.08    0.15 
 -10  -4   2   -0.19    0.14 
   9   4  -2    9.00    0.47 
  -9  -4   2    9.28    0.45 
   8   4  -2    7.05    0.40 
  -8  -4   2    7.36    0.38 
   7   4  -2    4.08    0.26 
   7   4  -2    3.71    0.19 
  -7  -4   2    3.52    0.25 
   6   4  -2    0.02    0.06 
   6   4  -2   -0.09    0.10 
  -6  -4   2   -0.03    0.09 
   5   4  -2    3.28    0.17 
   5   4  -2    3.47    0.21 
  -5  -4   2    2.59    0.17 
   4   4  -2   43.50    1.55 
   4   4  -2   42.49    1.53 
  -4  -4   2   42.67    1.54 
   3   4  -2   82.51    2.91 
  -3  -4   2   82.90    2.92 
   2   4  -2    0.15    0.06 
  -2  -4   2    0.24    0.05 
   1   4  -2   71.75    2.52 
  -1  -4   2   70.89    2.50 
   0   4  -2  240.07    8.40 
  -1   4  -2   18.63    0.67 
  -2   4  -2  378.02   13.69 
  -2   4  -2  398.32   13.67 
  -3   4  -2    1.72    0.13 
  -3   4  -2    1.50    0.12 
  -4   4  -2   19.11    0.71 
  -5   4  -2   10.07    0.42 
  -6   4  -2    0.34    0.10 
  -6   4  -2    0.04    0.04 
   6  -4   2    0.08    0.06 
  -7   4  -2    1.41    0.12 
  -7   4  -2    1.36    0.16 
   7  -4   2    1.63    0.14 
  -8   4  -2    7.58    0.39 
  -8   4  -2    7.76    0.34 
   8  -4   2    7.54    0.34 
  -9   4  -2    0.66    0.16 
   9  -4   2    0.71    0.11 
 -10   4  -2    9.94    0.50 
  10  -4   2   10.11    0.44 
 -11   4  -2    0.22    0.16 
 -12   4  -2    3.50    0.32 
 -13   4  -2    0.02    0.17 
 -14   4  -2   -0.17    0.20 
  13   3  -2    0.53    0.19 
 -13  -3   2    0.28    0.20 
  12   3  -2   -0.16    0.15 
 -12  -3   2   -0.11    0.15 
  11   3  -2    0.50    0.16 
 -11  -3   2    0.47    0.18 
  10   3  -2    5.19    0.34 
 -10  -3   2    5.15    0.34 
   9   3  -2    0.03    0.13 
  -9  -3   2    0.21    0.15 
   8   3  -2   22.64    0.90 
  -8  -3   2   22.76    0.90 
   7   3  -2    5.18    0.29 
   7   3  -2    4.93    0.21 
  -7  -3   2    4.71    0.28 
   6   3  -2    2.16    0.13 
   6   3  -2    2.17    0.20 
  -6  -3   2    2.25    0.18 
   5   3  -2   65.08    2.24 
   5   3  -2   62.90    2.20 
  -5  -3   2   60.04    2.25 
   4   3  -2   17.71    0.66 
   4   3  -2   18.00    0.69 
  -4  -3   2   18.19    0.68 
   3   3  -2   24.41    0.86 
  -3  -3   2   23.39    0.87 
   2   3  -2  155.42    5.40 
  -2  -3   2  153.46    5.46 
   1   3  -2    4.71    0.21 
  -1  -3   2    4.94    0.19 
   0   3  -2   -0.08    0.05 
   0  -3   2    0.03    0.03 
   0  -3   2   -0.04    0.03 
  -1   3  -2   30.56    1.11 
  -1   3  -2   32.07    1.12 
  -2   3  -2  151.52    5.36 
  -2   3  -2  153.43    5.33 
  -3   3  -2    0.50    0.07 
  -3   3  -2    0.44    0.06 
  -4   3  -2   15.85    0.59 
  -4   3  -2   15.92    0.61 
   4  -3   2   15.57    0.57 
  -5   3  -2   36.99    1.34 
  -5   3  -2   37.88    1.37 
   5  -3   2   36.87    1.32 
  -6   3  -2   65.34    2.24 
  -6   3  -2   55.14    2.19 
   6  -3   2   65.33    2.18 
   7  -3   2    3.23    0.18 
  -9   3  -2   -0.03    0.10 
   9  -3   2    0.05    0.09 
 -10   3  -2    0.42    0.16 
  10  -3   2    0.58    0.12 
 -11   3  -2    0.45    0.18 
 -12   3  -2   12.04    0.60 
 -13   3  -2    2.05    0.27 
 -14   3  -2    2.30    0.31 
  13   2  -2    0.29    0.18 
 -13  -2   2    0.42    0.21 
  12   2  -2    0.02    0.15 
 -12  -2   2    0.03    0.17 
  11   2  -2    1.67    0.21 
 -11  -2   2    1.75    0.22 
  10   2  -2    0.04    0.13 
 -10  -2   2   -0.01    0.14 
   9   2  -2    2.18    0.21 
  -9  -2   2    1.98    0.21 
   8   2  -2    8.94    0.44 
  -8  -2   2    9.53    0.44 
   7   2  -2   16.90    0.68 
   7   2  -2   16.83    0.61 
  -7  -2   2   17.41    0.69 
   6   2  -2   29.30    1.04 
   6   2  -2   29.25    1.09 
  -6  -2   2   29.77    1.10 
   5   2  -2    9.29    0.34 
   5   2  -2    9.26    0.39 
  -5  -2   2    9.42    0.39 
   4   2  -2    0.02    0.04 
   4   2  -2   -0.10    0.06 
  -4  -2   2    0.04    0.06 
   3   2  -2   37.65    1.34 
  -3  -2   2   38.43    1.36 
   2   2  -2    7.97    0.30 
   2   2  -2    7.14    0.31 
  -2  -2   2    8.09    0.31 
   1   2  -2   13.23    0.50 
   1   2  -2   13.08    0.50 
  -1  -2   2   13.40    0.49 
   0  -2   2  171.20    6.04 
  -1   2  -2   78.66    2.78 
  -1   2  -2   78.92    2.76 
  -2   2  -2  396.32   14.15 
  -2   2  -2  405.02   14.04 
  -3   2  -2   47.49    1.69 
  -3   2  -2   47.34    1.67 
   3  -2   2   47.06    1.65 
  -4   2  -2   46.77    1.61 
  -4   2  -2   42.71    1.64 
   4  -2   2   46.71    1.59 
  -5   2  -2   37.45    1.33 
   5  -2   2   36.83    1.32 
  -6   2  -2   12.36    0.47 
   6  -2   2   11.80    0.46 
  -7   2  -2    6.95    0.28 
  -7   2  -2    5.46    0.31 
   7  -2   2    7.18    0.30 
  -8   2  -2    0.28    0.06 
   8  -2   2    0.57    0.10 
  -9   2  -2    1.21    0.18 
   9  -2   2    1.21    0.14 
 -10   2  -2    1.84    0.22 
  10  -2   2    2.14    0.20 
 -11   2  -2   -0.16    0.16 
 -12   2  -2    0.48    0.20 
 -13   2  -2   -0.27    0.18 
 -14   2  -2    0.94    0.25 
 -14  -1   2    3.41    0.35 
  13   1  -2    0.38    0.17 
 -13  -1   2    0.23    0.20 
  12   1  -2   10.00    0.51 
 -12  -1   2    9.80    0.52 
  11   1  -2    0.38    0.15 
 -11  -1   2    0.09    0.17 
  10   1  -2   18.10    0.77 
 -10  -1   2   19.42    0.80 
   9   1  -2    1.85    0.19 
  -9  -1   2    1.87    0.21 
   8   1  -2    0.86    0.14 
  -8  -1   2    0.74    0.14 
   7   1  -2    0.79    0.12 
  -7  -1   2    0.85    0.12 
   6   1  -2    3.21    0.20 
  -6  -1   2    3.23    0.20 
   5   1  -2    8.60    0.37 
  -5  -1   2    8.52    0.37 
   4   1  -2   12.12    0.47 
  -4  -1   2   11.80    0.47 
   3   1  -2    0.53    0.04 
   3   1  -2    0.49    0.07 
  -3  -1   2    0.64    0.07 
   2   1  -2   66.31    2.31 
  -2  -1   2   65.60    2.33 
   1   1  -2   -0.03    0.03 
   1   1  -2    0.01    0.04 
  -1  -1   2    0.10    0.04 
   0   1  -2    0.18    0.02 
   0  -1   2    0.16    0.03 
  -1   1  -2    1.56    0.08 
  -2   1  -2  489.74   16.95 
   2  -1   2  479.84   16.79 
  -3   1  -2   73.05    2.57 
   3  -1   2   73.38    2.55 
  -4   1  -2   78.74    2.75 
   4  -1   2   77.66    2.73 
  -5   1  -2    8.05    0.34 
  -5   1  -2    7.57    0.31 
   5  -1   2    7.43    0.31 
  -6   1  -2    4.43    0.24 
  -6   1  -2    4.37    0.20 
   6  -1   2    4.38    0.22 
  -7   1  -2   10.46    0.47 
  -7   1  -2   10.89    0.42 
   7  -1   2   10.36    0.43 
  -8   1  -2   19.21    0.75 
  -8   1  -2   20.87    0.82 
   8  -1   2   20.65    0.77 
  -9   1  -2   64.40    2.33 
   9  -1   2   61.26    2.24 
 -10   1  -2    1.20    0.19 
  10  -1   2    1.32    0.15 
 -11   1  -2   -0.14    0.16 
 -12   1  -2    0.15    0.19 
 -13   1  -2   -0.04    0.19 
 -14   0   2    0.24    0.20 
  13   0  -2   -0.09    0.15 
 -13   0   2   -0.18    0.18 
  12   0  -2    1.13    0.18 
 -12   0   2    0.63    0.21 
  11   0  -2    9.89    0.49 
 -11   0   2   10.05    0.52 
  10   0  -2   15.21    0.66 
 -10   0   2   15.69    0.68 
   9   0  -2    0.23    0.11 
  -9   0   2    0.13    0.14 
   8   0  -2    0.06    0.09 
  -8   0   2    0.00    0.10 
   7   0  -2    5.54    0.29 
  -7   0   2    5.98    0.31 
   6   0  -2   35.78    1.31 
  -6   0   2   36.66    1.34 
   5   0  -2    2.81    0.18 
  -5   0   2    2.77    0.18 
   4   0  -2   14.46    0.56 
  -4   0   2   15.63    0.58 
   3   0  -2   18.71    0.67 
  -3   0   2   18.10    0.68 
  -2   0   2  171.30    6.14 
  -2   0   2  175.35    6.05 
   1   0  -2  278.54    9.70 
   1   0  -2  274.58    9.73 
  -1   0   2  282.15    9.84 
   0   0  -2   50.71    1.56 
   0   0   2   39.07    1.58 
  -1   0  -2  233.80    8.29 
  -1   0  -2  238.36    8.37 
  -2   0  -2   39.85    1.43 
  -2   0  -2   40.77    1.45 
  -3   0  -2  129.18    4.50 
  -3   0  -2  129.74    4.54 
   3   0   2  127.18    4.47 
  -4   0  -2    7.48    0.29 
   4   0   2    7.28    0.30 
  -5   0  -2    3.02    0.19 
  -5   0  -2    3.40    0.17 
   5   0   2    3.02    0.18 
  -6   0  -2    9.41    0.37 
  -6   0  -2    9.09    0.41 
   6   0   2    9.46    0.38 
  -7   0  -2   16.59    0.68 
   7   0   2   16.79    0.65 
  -8   0  -2   20.74    0.83 
   8   0   2   20.25    0.79 
  -9   0  -2    3.17    0.26 
   9   0   2    2.99    0.23 
 -10   0  -2    0.72    0.18 
  10   0   2    0.85    0.15 
 -11   0  -2    1.45    0.22 
  11   0   2    1.95    0.19 
 -12   0  -2   -0.14    0.17 
 -13   0  -2    0.99    0.24 
 -14   1   2    1.89    0.27 
  13  -1  -2    0.83    0.18 
 -13   1   2    0.94    0.24 
  12  -1  -2    0.35    0.15 
 -12   1   2    0.19    0.18 
  11  -1  -2    0.89    0.17 
 -11   1   2    0.93    0.20 
  10  -1  -2    5.19    0.30 
 -10   1   2    5.13    0.35 
   9  -1  -2   13.65    0.58 
  -9   1   2   14.30    0.62 
   8  -1  -2    2.98    0.21 
  -8   1   2    3.22    0.23 
   7  -1  -2    1.69    0.14 
  -7   1   2    1.95    0.17 
   6  -1  -2    6.88    0.31 
  -6   1   2    6.77    0.32 
   5  -1  -2    6.95    0.29 
  -5   1   2    6.76    0.25 
  -5   1   2    6.63    0.31 
   4  -1  -2   40.25    1.44 
  -4   1   2   40.53    1.41 
   3  -1  -2    0.57    0.07 
  -3   1   2    0.50    0.07 
  -2   1   2    0.01    0.01 
   1  -1  -2    1.71    0.11 
   0   1   2   -0.12    0.04 
  -1  -1  -2   14.64    0.54 
  -2  -1  -2 1000.00   35.19 
  -3  -1  -2   58.13    2.08 
   4   1   2  105.12    3.67 
  -5  -1  -2   20.65    0.79 
   5   1   2   20.54    0.77 
  -6  -1  -2   65.92    2.36 
   6   1   2   64.72    2.31 
  -7  -1  -2    0.38    0.12 
   7   1   2    0.36    0.10 
  -8  -1  -2    0.75    0.15 
   8   1   2    0.45    0.12 
  -9  -1  -2   18.45    0.79 
   9   1   2   19.04    0.76 
 -10  -1  -2    4.58    0.33 
  10   1   2    4.26    0.28 
 -11  -1  -2    0.18    0.17 
  11   1   2    0.62    0.15 
 -12  -1  -2   -0.17    0.16 
 -13  -1  -2    1.68    0.26 
 -14   2   2    0.04    0.19 
  13  -2  -2    1.92    0.22 
 -13   2   2    1.96    0.27 
  12  -2  -2    3.05    0.26 
 -12   2   2    2.51    0.27 
  11  -2  -2   10.80    0.51 
 -11   2   2   11.65    0.56 
  10  -2  -2    0.15    0.12 
 -10   2   2    0.05    0.15 
   9  -2  -2    0.19    0.11 
  -9   2   2    0.06    0.13 
   8  -2  -2    3.83    0.23 
  -8   2   2    3.17    0.23 
   7  -2  -2    0.08    0.08 
  -7   2   2    0.15    0.09 
  -7   2   2    0.09    0.04 
   6  -2  -2    0.32    0.08 
  -6   2   2    0.31    0.08 
  -6   2   2    0.32    0.05 
   5  -2  -2    4.39    0.22 
  -5   2   2    4.52    0.19 
   4  -2  -2    0.30    0.07 
  -4   2   2    0.14    0.04 
  -4   2   2    0.27    0.04 
   3  -2  -2   63.65    2.27 
  -3   2   2   64.93    2.31 
  -3   2   2   66.09    2.28 
  -2   2   2  780.27   27.11 
  -2   2   2  758.68   26.87 
  -1   2   2  297.85   10.54 
   0   2   2  112.91    3.99 
  -1  -2  -2  217.23    7.68 
  -2  -2  -2   20.46    0.76 
  -3  -2  -2   10.31    0.42 
  -4  -2  -2   25.82    1.12 
   4   2   2   35.67    1.12 
  -5  -2  -2    0.37    0.09 
   5   2   2    0.50    0.09 
  -6  -2  -2    0.32    0.11 
   6   2   2    0.32    0.09 
  -7  -2  -2    8.39    0.40 
   7   2   2    8.07    0.38 
  -8  -2  -2    2.52    0.23 
   8   2   2    2.24    0.20 
  -9  -2  -2    5.33    0.35 
   9   2   2    5.32    0.33 
 -10  -2  -2    5.68    0.36 
  10   2   2    6.20    0.35 
 -11  -2  -2    1.21    0.21 
  11   2   2    1.15    0.18 
 -12  -2  -2   -0.05    0.18 
 -13  -2  -2    0.10    0.19 
 -14   3   2    0.78    0.23 
  13  -3  -2    6.22    0.38 
 -13   3   2    6.86    0.45 
  12  -3  -2    3.78    0.29 
 -12   3   2    3.97    0.32 
  11  -3  -2    1.26    0.17 
 -11   3   2    1.34    0.20 
  10  -3  -2    2.42    0.22 
 -10   3   2    2.11    0.23 
   9  -3  -2   27.40    1.04 
   8  -3  -2    4.03    0.24 
  -8   3   2    4.11    0.18 
   7  -3  -2    0.19    0.08 
  -7   3   2    0.05    0.05 
  -7   3   2    0.01    0.05 
   6  -3  -2   30.61    1.14 
  -6   3   2   31.60    1.17 
  -6   3   2   31.80    1.12 
   5  -3  -2    7.38    0.31 
  -5   3   2    7.28    0.30 
  -5   3   2    7.29    0.33 
   4  -3  -2    1.04    0.10 
  -4   3   2    1.06    0.10 
  -3   3   2    1.37    0.11 
  -3   3   2    1.46    0.13 
  -2   3   2  408.64   14.44 
  -2   3   2  409.08   14.38 
  -1   3   2    1.56    0.11 
  -1   3   2    1.64    0.10 
   0   3   2    0.23    0.05 
  -1  -3  -2   47.78    1.70 
  -2  -3  -2  336.24   11.88 
  -3  -3  -2   42.25    1.52 
  -4  -3  -2   39.60    1.44 
  -5  -3  -2    8.77    0.38 
   5   3   2    8.35    0.38 
  -6  -3  -2    0.27    0.11 
   6   3   2    0.31    0.11 
  -7  -3  -2   31.17    1.18 
   7   3   2   30.52    1.16 
  -8  -3  -2    1.23    0.18 
   8   3   2    1.35    0.17 
  -9  -3  -2    4.11    0.31 
   9   3   2    4.08    0.29 
 -10  -3  -2   -0.29    0.14 
  10   3   2   -0.04    0.13 
 -11  -3  -2    0.70    0.19 
  11   3   2    0.63    0.17 
 -12  -3  -2    0.67    0.21 
 -14   4   2    4.14    0.37 
 -13   4   2    0.00    0.18 
  12  -4  -2    1.56    0.19 
 -12   4   2    2.16    0.25 
  11  -4  -2    0.10    0.13 
 -11   4   2    0.08    0.15 
  10  -4  -2   35.81    1.33 
 -10   4   2   35.53    1.38 
   9  -4  -2    0.52    0.12 
  -9   4   2    0.29    0.10 
   8  -4  -2   -0.03    0.09 
  -8   4   2   -0.06    0.10 
  -8   4   2   -0.09    0.06 
   7  -4  -2    1.86    0.16 
  -7   4   2    1.61    0.16 
  -7   4   2    1.77    0.13 
   6  -4  -2   11.61    0.48 
  -6   4   2   12.35    0.51 
  -6   4   2   12.05    0.46 
   5  -4  -2   17.23    0.65 
  -5   4   2   16.79    0.64 
  -5   4   2   17.19    0.66 
  -4   4   2   10.42    0.41 
  -4   4   2   10.24    0.42 
  -3   4   2   12.48    0.48 
  -3   4   2   12.19    0.48 
  -2   4   2    7.08    0.29 
  -2   4   2    7.01    0.30 
  -1   4   2    0.04    0.05 
  -1   4   2   -0.02    0.05 
   0   4   2    2.30    0.13 
   1   4   2    7.66    0.32 
   1   4   2    7.36    0.30 
  -2  -4  -2   29.69    1.06 
   2   4   2   28.78    1.07 
  -3  -4  -2   18.52    0.70 
  -4  -4  -2    0.24    0.08 
  -5  -4  -2    4.27    0.24 
   5   4   2    3.54    0.26 
  -6  -4  -2    8.58    0.41 
   6   4   2    8.54    0.42 
   6   4   2    8.97    0.39 
  -7  -4  -2    4.03    0.27 
   7   4   2    4.05    0.25 
   7   4   2    3.89    0.29 
  -8  -4  -2    0.52    0.15 
   8   4   2    0.28    0.14 
  -9  -4  -2    1.10    0.18 
   9   4   2    0.87    0.17 
 -10  -4  -2   -0.07    0.15 
  10   4   2    0.12    0.14 
 -11  -4  -2    1.30    0.22 
  11   4   2    1.92    0.23 
 -12  -4  -2   -0.04    0.19 
 -14   5   2    0.06    0.20 
 -13   5   2    1.42    0.23 
  12  -5  -2    6.73    0.38 
 -12   5   2    6.62    0.43 
  11  -5  -2    3.04    0.27 
 -11   5   2    3.05    0.30 
  10  -5  -2    2.53    0.22 
 -10   5   2    2.87    0.26 
   9  -5  -2    0.46    0.12 
  -9   5   2    0.56    0.16 
   8  -5  -2    3.79    0.23 
  -8   5   2    3.07    0.18 
  -8   5   2    4.32    0.26 
   7  -5  -2    0.50    0.10 
  -7   5   2    0.45    0.08 
  -7   5   2    0.57    0.13 
  -6   5   2   11.69    0.46 
  -6   5   2    9.42    0.42 
  -5   5   2    0.87    0.11 
  -5   5   2    0.83    0.09 
  -4   5   2   86.87    3.51 
  -4   5   2  112.62    3.55 
  -3   5   2   37.69    1.26 
  -3   5   2   31.77    1.26 
  -2   5   2    9.86    0.38 
  -2   5   2    9.32    0.40 
  -1   5   2   33.65    1.21 
   0   5   2    0.21    0.06 
   0   5   2    0.30    0.08 
   1   5   2    1.06    0.09 
   1   5   2    1.09    0.12 
  -2  -5  -2   37.58    1.34 
   2   5   2   36.72    1.36 
  -3  -5  -2    4.55    0.22 
  -4  -5  -2    4.87    0.25 
   4   5   2    4.91    0.26 
  -5  -5  -2   36.90    1.37 
   5   5   2   36.97    1.36 
  -6  -5  -2    5.20    0.29 
   6   5   2    4.86    0.28 
   6   5   2    5.25    0.32 
  -7  -5  -2    2.43    0.23 
   7   5   2    2.65    0.22 
   7   5   2    2.52    0.23 
  -8  -5  -2    0.63    0.16 
   8   5   2    0.69    0.17 
  -9  -5  -2   -0.09    0.14 
   9   5   2    0.25    0.15 
 -10  -5  -2    0.52    0.18 
  10   5   2    0.45    0.17 
 -11  -5  -2    2.59    0.28 
  11   5   2    2.91    0.28 
 -14   6   2    1.27    0.26 
 -13   6   2    2.66    0.29 
  12  -6  -2   -0.02    0.14 
 -12   6   2    0.08    0.18 
  11  -6  -2   -0.02    0.13 
 -11   6   2    0.08    0.16 
  10  -6  -2    1.61    0.18 
 -10   6   2    1.75    0.21 
  -9   6   2    0.51    0.17 
  -9   6   2    0.53    0.11 
  -8   6   2    5.70    0.29 
  -8   6   2    5.84    0.33 
  -7   6   2   17.31    0.66 
  -7   6   2   16.61    0.69 
  -6   6   2   18.39    0.72 
  -6   6   2   18.32    0.71 
  -5   6   2   20.06    0.78 
  -5   6   2   20.53    0.78 
  -4   6   2    4.17    0.22 
  -4   6   2    3.99    0.22 
  -3   6   2    0.04    0.07 
  -3   6   2   -0.07    0.07 
  -2   6   2    0.14    0.07 
  -2   6   2    0.02    0.08 
  -1   6   2   21.06    0.81 
  -1   6   2   21.79    0.78 
   0   6   2    4.36    0.20 
   0   6   2    4.42    0.24 
   1   6   2   23.54    0.86 
   1   6   2   23.40    0.89 
   2   6   2    6.35    0.28 
   2   6   2    6.16    0.30 
  -3  -6  -2    0.14    0.05 
   3   6   2    0.66    0.11 
  -4  -6  -2   75.26    2.73 
   4   6   2   77.52    2.74 
  -5  -6  -2    9.05    0.40 
   5   6   2    8.95    0.41 
  -6  -6  -2    6.08    0.33 
   6   6   2    6.12    0.33 
   6   6   2    6.35    0.37 
  -7  -6  -2    0.12    0.13 
   7   6   2    0.05    0.13 
   7   6   2    0.19    0.11 
  -8  -6  -2   -0.12    0.13 
   8   6   2   -0.09    0.14 
  -9  -6  -2    1.79    0.22 
   9   6   2    2.02    0.24 
  10   6   2   -0.05    0.16 
  11   6   2    0.06    0.18 
 -14   7   2    0.00    0.19 
 -13   7   2    2.16    0.28 
 -12   7   2    0.01    0.16 
 -11   7   2    5.66    0.37 
 -10   7   2   13.16    0.61 
  -9   7   2    2.47    0.20 
  -9   7   2    2.31    0.23 
  -8   7   2   25.14    1.02 
  -8   7   2   27.08    1.00 
  -7   7   2    1.44    0.16 
  -7   7   2    1.36    0.15 
  -6   7   2    1.29    0.14 
  -6   7   2    1.45    0.15 
  -5   7   2    0.17    0.09 
  -5   7   2    0.14    0.09 
  -4   7   2    7.14    0.31 
  -4   7   2    6.75    0.33 
  -3   7   2    5.53    0.29 
  -3   7   2    5.31    0.25 
  -2   7   2   25.23    0.95 
  -2   7   2   24.74    0.92 
  -1   7   2   14.87    0.56 
   0   7   2    0.50    0.07 
   0   7   2    0.45    0.10 
   1   7   2    8.25    0.38 
   1   7   2    8.15    0.33 
   2   7   2    1.72    0.16 
   2   7   2    1.71    0.14 
   3   7   2    4.91    0.29 
   3   7   2    4.74    0.25 
  -4  -7  -2    3.21    0.22 
   4   7   2    3.13    0.25 
  -5  -7  -2   -0.02    0.11 
   5   7   2    0.02    0.12 
  -6  -7  -2   25.94    1.00 
   6   7   2   26.17    1.01 
   6   7   2   25.67    1.03 
   7   7   2    0.13    0.12 
   7   7   2    0.17    0.15 
   8   7   2    0.70    0.18 
   9   7   2    2.13    0.25 
  10   7   2    1.83    0.24 
 -14   8   2    0.50    0.23 
 -13   8   2    0.47    0.19 
 -12   8   2    0.07    0.18 
 -11   8   2    2.58    0.26 
 -10   8   2    3.27    0.29 
  -9   8   2    3.85    0.30 
  -9   8   2    3.34    0.25 
  -8   8   2   14.31    0.63 
  -8   8   2   14.91    0.61 
  -7   8   2    1.14    0.16 
  -7   8   2    1.13    0.15 
  -6   8   2   22.25    0.88 
  -6   8   2   22.71    0.88 
  -5   8   2    2.96    0.22 
  -5   8   2    3.15    0.21 
  -4   8   2    0.12    0.09 
  -4   8   2    0.10    0.10 
  -3   8   2   15.20    0.58 
  -3   8   2   14.94    0.62 
  -2   8   2    3.14    0.22 
  -2   8   2    3.02    0.18 
   0   8   2  175.95    6.17 
   0   8   2  174.04    6.16 
   1   8   2    9.65    0.39 
   1   8   2   10.19    0.45 
   2   8   2    4.25    0.28 
   2   8   2    4.09    0.21 
   3   8   2    1.48    0.13 
   3   8   2    1.20    0.16 
   4   8   2    4.26    0.26 
   4   8   2    4.32    0.30 
   5   8   2    0.70    0.15 
   6   8   2    2.62    0.25 
   6   8   2    2.83    0.27 
   7   8   2    5.23    0.38 
   8   8   2    0.73    0.18 
   9   8   2    0.54    0.20 
  10   8   2    0.37    0.19 
 -13   9   2    0.03    0.20 
 -12   9   2    6.77    0.42 
 -11   9   2   -0.17    0.16 
 -10   9   2   -0.11    0.13 
  -9   9   2    3.50    0.26 
  -9   9   2    4.12    0.30 
  -8   9   2    0.57    0.15 
  -8   9   2    0.51    0.14 
  -7   9   2   -0.06    0.12 
  -7   9   2   -0.01    0.11 
  -6   9   2   12.40    0.54 
  -6   9   2   12.30    0.53 
  -5   9   2    7.27    0.38 
  -5   9   2    7.10    0.35 
  -4   9   2    2.52    0.19 
  -4   9   2    2.32    0.22 
  -3   9   2    0.55    0.12 
  -3   9   2    0.74    0.10 
  -2   9   2    1.58    0.14 
  -1   9   2    0.52    0.09 
   0   9   2    0.39    0.12 
   0   9   2    0.33    0.08 
   1   9   2    5.97    0.34 
   2   9   2    0.22    0.13 
   3   9   2    6.59    0.37 
   4   9   2    0.81    0.17 
   5   9   2   -0.08    0.13 
   6   9   2    3.09    0.27 
   7   9   2    0.27    0.18 
   8   9   2    1.48    0.23 
   9   9   2    1.53    0.25 
 -13  10   2    0.87    0.21 
 -12  10   2    1.99    0.26 
 -11  10   2    0.17    0.17 
 -10  10   2    0.32    0.16 
  -9  10   2    3.22    0.28 
  -9  10   2    3.14    0.26 
  -8  10   2    2.66    0.25 
  -8  10   2    2.64    0.25 
  -7  10   2    9.55    0.47 
  -7  10   2    9.21    0.44 
  -6  10   2    0.23    0.14 
  -6  10   2    0.05    0.12 
  -5  10   2    3.60    0.27 
  -5  10   2    3.95    0.25 
  -4  10   2    2.88    0.21 
  -4  10   2    3.56    0.28 
  -3  10   2    0.61    0.14 
  -3  10   2    0.70    0.10 
  -2  10   2    1.74    0.17 
  -1  10   2    5.08    0.29 
   0  10   2    7.50    0.41 
   1  10   2    2.39    0.23 
   2  10   2    3.19    0.29 
   3  10   2   16.73    0.73 
   4  10   2    0.07    0.14 
   5  10   2    3.67    0.30 
   6  10   2   -0.04    0.14 
   7  10   2    0.44    0.18 
   8  10   2    0.52    0.22 
 -12  11   2    0.03    0.17 
 -11  11   2    0.59    0.18 
 -10  11   2    2.42    0.25 
  -9  11   2    2.09    0.22 
  -9  11   2    2.54    0.24 
  -8  11   2    0.20    0.13 
  -8  11   2    0.41    0.14 
  -7  11   2    9.04    0.44 
  -7  11   2    9.18    0.47 
  -6  11   2    0.15    0.12 
  -6  11   2    0.04    0.14 
  -5  11   2    1.39    0.20 
  -4  11   2   10.56    0.52 
  -3  11   2    1.02    0.17 
  -2  11   2    2.45    0.24 
  -1  11   2    1.46    0.19 
   0  11   2   -0.06    0.14 
   1  11   2    0.17    0.14 
   2  11   2   -0.23    0.12 
   3  11   2    0.14    0.14 
   4  11   2    3.42    0.30 
   5  11   2    2.36    0.25 
   6  11   2    0.73    0.21 
   6  11   2    0.91    0.19 
   7  11   2    0.90    0.23 
 -12  12   2    0.82    0.22 
 -11  12   2    0.10    0.18 
 -10  12   2    0.97    0.18 
 -10  12   2    0.92    0.19 
  -9  12   2   -0.09    0.14 
  -9  12   2   -0.06    0.15 
  -8  12   2    0.17    0.15 
  -7  12   2   10.71    0.53 
  -6  12   2    0.55    0.17 
  -5  12   2    0.84    0.18 
  -4  12   2    4.41    0.32 
  -3  12   2    0.21    0.15 
  -2  12   2    2.06    0.22 
  -1  12   2    0.37    0.15 
   0  12   2   -0.17    0.14 
   1  12   2    0.30    0.16 
   2  12   2   -0.16    0.14 
   3  12   2    0.45    0.18 
   4  12   2    0.92    0.20 
   5  12   2    1.78    0.24 
   6  12   2   -0.04    0.19 
 -10  13   2    0.16    0.16 
  -9  13   2    1.46    0.23 
  -8  13   2   -0.01    0.14 
  -7  13   2    2.46    0.26 
  -6  13   2    3.37    0.29 
  -5  13   2   16.92    0.76 
  -4  13   2    1.35    0.21 
  -3  13   2    0.76    0.18 
  -2  13   2    0.11    0.15 
  -1  13   2    0.02    0.15 
   0  13   2   -0.06    0.14 
   1  13   2    0.42    0.17 
   2  13   2    0.27    0.17 
   3  13   2    0.41    0.19 
   4  13   2    0.48    0.19 
   5  13   2    0.42    0.19 
 -10  14   2    0.09    0.17 
  -9  14   2    0.35    0.18 
  -8  14   2    0.00    0.16 
  -7  14   2    0.39    0.19 
  -6  14   2    0.92    0.20 
  -5  14   2    0.13    0.17 
  -4  14   2    2.02    0.25 
  -3  14   2    9.78    0.52 
  -2  14   2    0.23    0.16 
  -1  14   2    0.54    0.19 
   0  14   2    2.77    0.29 
   1  14   2    0.49    0.19 
   2  14   2    1.19    0.23 
   3  14   2    2.24    0.27 
   4  14   2    0.53    0.20 
  -9  15   2    2.69    0.30 
  -8  15   2    1.46    0.24 
  -7  15   2    0.01    0.16 
  -6  15   2    0.33    0.20 
  -5  15   2    0.30    0.18 
  -4  15   2    0.89    0.22 
  -3  15   2    0.45    0.19 
  -2  15   2   -0.06    0.18 
  -1  15   2    1.46    0.24 
   0  15   2    0.08    0.19 
   1  15   2    0.07    0.18 
   2  15   2    0.74    0.22 
  -6  16   2    0.61    0.21 
  -5  16   2    0.92    0.23 
  -4  16   2    0.00    0.19 
  -3  16   2    0.30    0.18 
  -2  16   2    0.26    0.19 
  -1  16   2    0.54    0.23 
  -3  17  -3    0.07    0.21 
   1  16  -3   -0.14    0.17 
   0  16  -3    0.74    0.23 
  -1  16  -3    0.07    0.19 
  -2  16  -3    1.68    0.26 
  -3  16  -3   -0.10    0.18 
  -4  16  -3    0.74    0.21 
  -5  16  -3   -0.04    0.18 
  -6  16  -3   -0.12    0.16 
  -7  16  -3    0.13    0.18 
   3  15  -3    0.17    0.19 
   2  15  -3    2.22    0.28 
   1  15  -3   -0.14    0.18 
   0  15  -3   -0.10    0.18 
  -1  15  -3    0.11    0.18 
  -2  15  -3    0.43    0.19 
  -3  15  -3    0.97    0.21 
  -4  15  -3    3.70    0.33 
  -5  15  -3   -0.29    0.16 
  -6  15  -3   -0.20    0.16 
  -7  15  -3    0.22    0.18 
  -8  15  -3    0.21    0.18 
  -9  15  -3    1.28    0.23 
   5  14  -3    0.27    0.19 
   4  14  -3    0.57    0.21 
   4  14  -3    0.38    0.19 
   3  14  -3    0.89    0.20 
   2  14  -3   -0.02    0.16 
   1  14  -3    0.12    0.17 
   0  14  -3    0.26    0.17 
  -1  14  -3    0.49    0.18 
  -2  14  -3   -0.13    0.15 
  -3  14  -3    4.67    0.34 
  -4  14  -3    0.00    0.15 
  -5  14  -3    0.08    0.15 
  -6  14  -3    0.68    0.18 
  -7  14  -3    0.73    0.19 
  -8  14  -3    0.99    0.20 
  -9  14  -3   -0.13    0.16 
 -10  14  -3    1.52    0.24 
   6  13  -3    1.81    0.25 
   5  13  -3    0.31    0.17 
   5  13  -3    0.43    0.19 
   4  13  -3    0.13    0.16 
   4  13  -3   -0.09    0.15 
   3  13  -3    1.53    0.22 
   2  13  -3    9.95    0.52 
   1  13  -3   14.51    0.66 
   0  13  -3   17.46    0.77 
  -1  13  -3   21.83    0.92 
  -2  13  -3    0.00    0.13 
  -3  13  -3    0.16    0.14 
  -4  13  -3    1.47    0.21 
  -5  13  -3    0.06    0.16 
  -6  13  -3    0.12    0.14 
  -7  13  -3    0.85    0.19 
  -8  13  -3    0.26    0.15 
  -9  13  -3    0.00    0.16 
 -10  13  -3    0.00    0.16 
   7  12  -3    1.94    0.27 
   6  12  -3   -0.23    0.15 
   5  12  -3    1.73    0.24 
   5  12  -3    1.59    0.21 
   4  12  -3    0.20    0.14 
   3  12  -3    0.03    0.13 
   2  12  -3    0.42    0.15 
   1  12  -3    0.14    0.14 
   0  12  -3   -0.02    0.13 
  -1  12  -3    3.27    0.28 
  -2  12  -3    0.51    0.15 
  -3  12  -3    3.40    0.28 
  -4  12  -3    4.90    0.33 
  -5  12  -3    1.54    0.20 
  -6  12  -3    0.48    0.15 
  -7  12  -3    0.59    0.17 
  -8  12  -3    1.35    0.20 
  -9  12  -3    8.46    0.46 
 -10  12  -3    0.98    0.20 
 -11  12  -3   -0.16    0.18 
 -12  12  -3    0.13    0.20 
   8  11  -3    0.11    0.17 
   7  11  -3   -0.02    0.16 
   6  11  -3    0.16    0.15 
   5  11  -3    2.66    0.26 
   5  11  -3    2.55    0.23 
   4  11  -3    0.35    0.14 
   3  11  -3   11.91    0.55 
   2  11  -3    2.91    0.27 
   1  11  -3    0.64    0.16 
   0  11  -3    1.76    0.20 
  -1  11  -3    0.04    0.13 
  -2  11  -3   -0.02    0.12 
  -3  11  -3    0.92    0.17 
  -4  11  -3    3.74    0.31 
  -5  11  -3    9.97    0.50 
  -6  11  -3    4.67    0.31 
  -6  11  -3    4.76    0.28 
  -7  11  -3    5.89    0.37 
  -7  11  -3    5.86    0.34 
  -8  11  -3    1.98    0.21 
  -8  11  -3    2.08    0.22 
  -9  11  -3    0.61    0.17 
  -9  11  -3    0.63    0.16 
 -10  11  -3   -0.11    0.15 
 -10  11  -3    0.14    0.14 
 -11  11  -3    0.31    0.18 
 -12  11  -3    0.15    0.19 
   9  10  -3    3.08    0.31 
   8  10  -3    1.57    0.23 
   7  10  -3    0.00    0.16 
   6  10  -3    0.02    0.15 
   6  10  -3   -0.09    0.11 
   5  10  -3    0.38    0.15 
   5  10  -3    0.27    0.13 
   4  10  -3    6.46    0.36 
   3  10  -3    9.36    0.45 
   2  10  -3    0.12    0.11 
   1  10  -3    0.10    0.12 
   0  10  -3    1.26    0.17 
  -1  10  -3    0.72    0.15 
  -2  10  -3   -0.01    0.02 
  -3  10  -3    2.40    0.22 
  -4  10  -3   34.71    1.29 
  -4  10  -3   35.96    1.35 
  -5  10  -3    4.02    0.24 
  -5  10  -3    4.00    0.28 
  -6  10  -3    4.01    0.26 
  -6  10  -3    4.11    0.29 
  -7  10  -3    0.06    0.11 
  -7  10  -3    0.00    0.11 
  -8  10  -3    1.24    0.18 
  -8  10  -3    1.28    0.18 
  -9  10  -3    8.83    0.46 
  -9  10  -3    8.90    0.45 
 -10  10  -3    0.17    0.16 
 -10  10  -3    0.08    0.13 
 -11  10  -3    1.66    0.23 
 -12  10  -3    4.23    0.37 
 -13  10  -3    2.16    0.29 
  10   9  -3    0.23    0.20 
   9   9  -3   -0.05    0.17 
   8   9  -3    3.52    0.31 
   7   9  -3    5.48    0.36 
   6   9  -3    5.49    0.37 
   6   9  -3    5.70    0.32 
   5   9  -3    3.60    0.28 
   5   9  -3    3.31    0.25 
   4   9  -3    3.84    0.29 
   4   9  -3    4.09    0.27 
   3   9  -3    1.20    0.15 
   2   9  -3    0.48    0.13 
   1   9  -3   31.13    1.18 
   0   9  -3    1.36    0.15 
  -1   9  -3   24.86    0.97 
  -3   9  -3    0.36    0.12 
  -3   9  -3    0.09    0.07 
  -4   9  -3    2.27    0.18 
  -4   9  -3    2.42    0.22 
  -5   9  -3    4.51    0.30 
  -5   9  -3    5.07    0.26 
  -6   9  -3   11.86    0.52 
  -6   9  -3   10.92    0.49 
  -7   9  -3    1.02    0.16 
  -7   9  -3    1.01    0.16 
  -8   9  -3    0.45    0.13 
  -8   9  -3    0.46    0.14 
  -9   9  -3    2.88    0.25 
  -9   9  -3    2.81    0.27 
 -10   9  -3   -0.08    0.15 
 -10   9  -3   -0.03    0.12 
 -11   9  -3    1.12    0.22 
 -12   9  -3    0.34    0.20 
 -13   9  -3    3.99    0.38 
  11   8  -3    3.89    0.38 
  10   8  -3    0.36    0.19 
   9   8  -3    1.41    0.22 
   8   8  -3    3.37    0.30 
   7   8  -3    0.21    0.15 
   6   8  -3    1.44    0.15 
   6   8  -3    1.62    0.20 
   5   8  -3   12.13    0.56 
   5   8  -3   11.89    0.51 
   3   8  -3    1.72    0.16 
   2   8  -3   11.50    0.49 
   1   8  -3   35.29    1.31 
   0   8  -3    0.07    0.08 
  -1   8  -3   41.10    1.51 
  -2   8  -3    2.21    0.19 
  -2   8  -3    2.44    0.13 
  -3   8  -3   32.78    1.19 
  -3   8  -3   32.97    1.23 
  -4   8  -3   12.18    0.48 
  -4   8  -3   11.79    0.51 
  -5   8  -3    0.18    0.10 
  -5   8  -3    0.29    0.11 
  -6   8  -3    1.47    0.16 
  -6   8  -3    1.49    0.16 
  -7   8  -3    9.58    0.45 
  -7   8  -3    9.70    0.45 
  -8   8  -3    7.18    0.37 
  -8   8  -3    7.19    0.39 
  -9   8  -3   22.33    0.88 
  -9   8  -3   21.55    0.89 
 -10   8  -3    1.68    0.21 
 -11   8  -3    1.10    0.20 
 -12   8  -3    0.44    0.20 
 -13   8  -3    0.20    0.21 
  11   7  -3   -0.15    0.17 
  10   7  -3    0.35    0.18 
   9   7  -3    0.18    0.15 
   8   7  -3    0.19    0.15 
   7   7  -3    2.00    0.22 
   6   7  -3    1.31    0.18 
   6   7  -3    1.51    0.14 
   4   7  -3   21.39    0.82 
  -4  -7   3   21.79    0.80 
   3   7  -3   42.57    1.59 
  -3  -7   3   44.66    1.55 
   2   7  -3   15.47    0.62 
   1   7  -3   26.43    0.99 
   0   7  -3   15.46    0.62 
  -1   7  -3    8.79    0.32 
  -2   7  -3  105.87    3.70 
  -2   7  -3  102.93    3.68 
  -3   7  -3   14.81    0.56 
  -3   7  -3   14.74    0.60 
  -4   7  -3    1.37    0.14 
  -4   7  -3    1.49    0.14 
  -5   7  -3   -0.02    0.09 
  -5   7  -3   -0.13    0.08 
  -6   7  -3    1.66    0.16 
  -6   7  -3    1.85    0.17 
  -7   7  -3    6.77    0.35 
  -7   7  -3    7.46    0.36 
  -8   7  -3    4.83    0.28 
  -8   7  -3    4.45    0.31 
  -9   7  -3    1.34    0.19 
  -9   7  -3    1.18    0.16 
 -10   7  -3    4.90    0.33 
 -11   7  -3    0.00    0.17 
 -12   7  -3    1.50    0.24 
 -13   7  -3   -0.06    0.19 
  12   6  -3    0.12    0.19 
  11   6  -3    4.66    0.38 
  10   6  -3    2.96    0.28 
   9   6  -3    3.58    0.29 
  -9  -6   3    3.57    0.27 
   8   6  -3    0.18    0.14 
  -8  -6   3    0.35    0.14 
   7   6  -3    0.07    0.13 
  -7  -6   3    0.08    0.11 
   6   6  -3    0.36    0.09 
   6   6  -3    0.23    0.13 
  -6  -6   3    0.35    0.11 
   5   6  -3   13.94    0.55 
   4   6  -3    2.35    0.17 
  -4  -6   3    2.37    0.15 
   3   6  -3    6.70    0.31 
  -3  -6   3    6.88    0.28 
   2   6  -3   64.17    2.35 
  -2  -6   3   67.42    2.32 
   1   6  -3    2.79    0.17 
   0   6  -3   -0.02    0.07 
  -1   6  -3    2.05    0.11 
  -2   6  -3   67.26    2.33 
  -2   6  -3   62.98    2.30 
  -3   6  -3   75.50    2.71 
  -3   6  -3   77.18    2.72 
  -4   6  -3    8.10    0.35 
  -4   6  -3    8.02    0.37 
  -5   6  -3   37.22    1.38 
  -5   6  -3   37.53    1.37 
  -6   6  -3   73.59    2.64 
  -6   6  -3   74.18    2.67 
  -7   6  -3    0.76    0.14 
  -7   6  -3    0.81    0.12 
  -8   6  -3    1.66    0.16 
  -8   6  -3    1.88    0.20 
  -9   6  -3   -0.20    0.14 
  -9   6  -3    0.09    0.10 
 -10   6  -3   -0.31    0.15 
 -11   6  -3    0.37    0.18 
 -12   6  -3    6.02    0.42 
 -13   6  -3    0.35    0.21 
 -14   6  -3    3.42    0.36 
  12   5  -3    0.63    0.18 
  11   5  -3    1.94    0.25 
 -11  -5   3    1.59    0.23 
  10   5  -3    0.25    0.15 
 -10  -5   3    0.19    0.15 
   9   5  -3    9.83    0.50 
  -9  -5   3    9.63    0.47 
   8   5  -3    0.04    0.14 
  -8  -5   3    0.02    0.12 
   7   5  -3   54.71    2.03 
  -7  -5   3   56.43    2.03 
   6   5  -3    2.77    0.17 
   6   5  -3    2.79    0.23 
  -6  -5   3    2.83    0.20 
   5   5  -3    1.46    0.15 
   5   5  -3    1.83    0.14 
   4   5  -3    4.14    0.20 
  -4  -5   3    3.72    0.19 
   3   5  -3   14.45    0.58 
   3   5  -3   14.40    0.56 
  -3  -5   3   14.85    0.54 
   2   5  -3    8.26    0.34 
  -2  -5   3    8.26    0.31 
   1   5  -3  100.30    3.54 
   0   5  -3   13.51    0.53 
  -2   5  -3  128.24    4.51 
  -3   5  -3   54.05    1.95 
  -3   5  -3   55.16    1.95 
  -4   5  -3    8.07    0.35 
  -4   5  -3    7.65    0.34 
  -5   5  -3   72.57    2.56 
  -5   5  -3   71.16    2.58 
  -6   5  -3    1.25    0.14 
  -6   5  -3    1.21    0.12 
  -7   5  -3    3.30    0.24 
  -7   5  -3    2.89    0.20 
  -8   5  -3    1.33    0.18 
  -8   5  -3    1.41    0.14 
  -9   5  -3    2.83    0.28 
  -9   5  -3    2.83    0.21 
   9  -5   3    2.67    0.19 
 -10   5  -3   -0.18    0.14 
 -11   5  -3    2.29    0.26 
 -12   5  -3   -0.12    0.16 
 -13   5  -3    0.35    0.21 
 -14   5  -3   -0.09    0.21 
  13   4  -3    0.86    0.21 
 -13  -4   3    0.35    0.22 
  12   4  -3    0.28    0.18 
 -12  -4   3    0.50    0.19 
  11   4  -3    2.17    0.24 
 -11  -4   3    2.56    0.26 
  10   4  -3    0.30    0.15 
 -10  -4   3   -0.05    0.14 
   9   4  -3    3.01    0.28 
  -9  -4   3    2.83    0.26 
   8   4  -3    3.83    0.28 
  -8  -4   3    3.66    0.27 
   7   4  -3    2.53    0.22 
  -7  -4   3    2.20    0.20 
   6   4  -3    9.56    0.37 
   6   4  -3    9.64    0.43 
  -6  -4   3    9.34    0.41 
   5   4  -3    5.60    0.30 
   5   4  -3    5.30    0.23 
   4   4  -3    1.58    0.12 
  -4  -4   3    1.46    0.11 
   3   4  -3   89.49    3.08 
   3   4  -3   85.26    3.07 
  -3  -4   3   87.11    3.08 
   2   4  -3   19.83    0.72 
  -2  -4   3   19.16    0.70 
   1   4  -3   71.89    2.53 
  -1  -4   3   71.27    2.52 
   0   4  -3    0.19    0.06 
   0  -4   3    0.27    0.03 
  -1   4  -3    6.24    0.24 
  -2   4  -3  306.18   10.71 
  -2   4  -3  300.49   10.68 
  -3   4  -3    0.44    0.07 
  -4   4  -3   17.31    0.66 
  -5   4  -3   35.26    1.40 
  -5   4  -3   42.90    1.44 
  -6   4  -3   13.09    0.50 
  -6   4  -3   12.31    0.52 
   6  -4   3   12.54    0.48 
  -7   4  -3    4.77    0.25 
  -7   4  -3    5.18    0.28 
   7  -4   3    4.60    0.23 
  -8   4  -3   53.12    1.98 
  -8   4  -3   53.06    1.92 
   8  -4   3   54.27    1.90 
  -9   4  -3    0.42    0.10 
  -9   4  -3    0.15    0.14 
   9  -4   3    0.24    0.10 
 -10   4  -3    6.53    0.40 
 -11   4  -3    5.16    0.36 
 -12   4  -3    0.07    0.19 
 -13   4  -3    1.24    0.23 
 -14   4  -3   -0.18    0.18 
  13   3  -3    0.15    0.18 
 -13  -3   3    0.11    0.20 
  12   3  -3    1.33    0.22 
 -12  -3   3    1.26    0.22 
  11   3  -3    3.39    0.30 
 -11  -3   3    3.84    0.32 
  10   3  -3    3.84    0.30 
 -10  -3   3    3.94    0.30 
   9   3  -3    0.31    0.14 
  -9  -3   3   -0.04    0.14 
   8   3  -3    0.11    0.11 
  -8  -3   3   -0.12    0.12 
   7   3  -3    6.06    0.32 
  -7  -3   3    6.00    0.32 
   6   3  -3    0.77    0.06 
   6   3  -3    0.66    0.12 
  -6  -3   3    0.70    0.11 
   5   3  -3    9.56    0.36 
   5   3  -3    9.89    0.41 
  -5  -3   3    8.97    0.39 
   4   3  -3   24.04    0.87 
  -4  -3   3   24.40    0.89 
   3   3  -3    0.47    0.06 
  -3  -3   3    0.53    0.07 
   2   3  -3  418.89   14.56 
   2   3  -3  414.99   14.56 
  -2  -3   3  413.28   14.66 
   1   3  -3    0.56    0.06 
   1   3  -3    0.89    0.08 
  -1  -3   3    0.58    0.05 
   0   3  -3  187.28    6.53 
   0  -3   3  183.68    6.54 
  -1   3  -3   28.57    1.02 
  -1   3  -3   28.52    1.03 
  -2   3  -3  155.82    5.51 
  -2   3  -3  157.04    5.47 
  -3   3  -3   49.37    1.76 
  -3   3  -3   48.98    1.75 
  -4   3  -3   15.43    0.59 
  -4   3  -3   16.06    0.60 
   4  -3   3   15.30    0.56 
  -5   3  -3    0.43    0.09 
   5  -3   3    0.49    0.06 
  -6   3  -3   27.28    1.03 
   6  -3   3   26.84    0.97 
  -7   3  -3   31.90    1.19 
   7  -3   3   33.38    1.17 
  -8   3  -3    9.71    0.40 
   8  -3   3    9.14    0.39 
  -9   3  -3    3.03    0.27 
   9  -3   3    3.16    0.20 
 -10   3  -3   22.85    0.95 
 -11   3  -3    0.01    0.15 
 -12   3  -3    0.09    0.19 
 -13   3  -3    0.07    0.18 
 -14   3  -3    0.82    0.24 
  13   2  -3    2.16    0.26 
 -13  -2   3    2.35    0.28 
  12   2  -3    0.05    0.14 
 -12  -2   3    0.08    0.17 
  11   2  -3   10.56    0.53 
 -11  -2   3   11.11    0.55 
  10   2  -3    9.95    0.49 
 -10  -2   3   10.66    0.51 
   9   2  -3    6.83    0.37 
  -9  -2   3    6.18    0.37 
   8   2  -3   17.40    0.70 
  -8  -2   3   17.04    0.71 
   7   2  -3    0.26    0.11 
  -7  -2   3    0.28    0.11 
   6   2  -3    1.16    0.13 
  -6  -2   3    1.07    0.13 
   5   2  -3   46.92    1.65 
   5   2  -3   47.38    1.69 
  -5  -2   3   46.67    1.70 
   4   2  -3    7.10    0.26 
   4   2  -3    6.68    0.30 
  -4  -2   3    7.13    0.30 
   3   2  -3   33.31    1.18 
  -3  -2   3   33.81    1.21 
   2   2  -3  196.71    6.92 
   2   2  -3  195.28    6.85 
  -2  -2   3  198.79    6.98 
   1   2  -3    8.42    0.32 
   1   2  -3    8.26    0.32 
  -1  -2   3    8.56    0.32 
   0   2  -3    0.65    0.06 
   0   2  -3    0.47    0.06 
   0  -2   3    0.73    0.06 
  -1   2  -3   32.19    1.16 
  -1   2  -3   32.52    1.15 
  -2   2  -3   36.38    1.29 
  -2   2  -3   35.77    1.30 
  -3   2  -3   17.33    0.66 
  -3   2  -3   17.81    0.65 
   3  -2   3   17.40    0.62 
  -4   2  -3    2.50    0.15 
  -4   2  -3    2.73    0.16 
   4  -2   3    2.42    0.12 
  -5   2  -3    0.49    0.08 
   5  -2   3    0.44    0.06 
   6  -2   3   73.79    2.59 
  -7   2  -3   -0.01    0.04 
  -7   2  -3    0.05    0.04 
   7  -2   3    0.01    0.07 
  -8   2  -3    9.23    0.39 
   8  -2   3    9.82    0.40 
  -9   2  -3   16.25    0.70 
   9  -2   3   16.19    0.64 
 -10   2  -3    1.74    0.22 
 -11   2  -3    3.33    0.29 
 -12   2  -3    3.30    0.31 
 -13   2  -3    0.79    0.23 
  14   1  -3    0.21    0.20 
 -14  -1   3    0.68    0.23 
  13   1  -3    0.48    0.18 
 -13  -1   3    0.59    0.21 
  12   1  -3    5.04    0.35 
 -12  -1   3    4.79    0.37 
  11   1  -3    7.40    0.41 
 -11  -1   3    7.24    0.41 
  10   1  -3    4.79    0.32 
 -10  -1   3    4.44    0.31 
   9   1  -3    1.66    0.19 
  -9  -1   3    1.93    0.21 
   8   1  -3    4.83    0.28 
  -8  -1   3    4.46    0.28 
   7   1  -3    2.72    0.21 
  -7  -1   3    2.34    0.19 
   6   1  -3    4.78    0.26 
  -6  -1   3    4.83    0.26 
   5   1  -3    0.35    0.09 
  -5  -1   3    0.24    0.08 
   4   1  -3   37.25    1.32 
  -4  -1   3   36.53    1.34 
   3   1  -3   69.80    2.43 
  -3  -1   3   69.83    2.48 
   2   1  -3  388.99   13.60 
   2   1  -3  398.42   13.60 
  -2  -1   3  380.96   13.74 
   1   1  -3  224.29    7.89 
   1   1  -3  232.83    7.94 
  -1  -1   3  223.02    8.02 
   0  -1   3  568.77   20.03 
  -1   1  -3  188.94    7.27 
  -1   1  -3  220.46    7.17 
  -2   1  -3   44.94    1.57 
   2  -1   3   43.68    1.54 
  -3   1  -3  127.06    4.42 
   3  -1   3  125.74    4.39 
  -4   1  -3   23.33    0.85 
   4  -1   3   23.16    0.83 
  -5   1  -3   18.79    0.71 
  -5   1  -3   17.81    0.67 
   5  -1   3   18.00    0.66 
  -6   1  -3    0.90    0.12 
  -6   1  -3    0.49    0.08 
   6  -1   3    0.78    0.08 
  -7   1  -3    0.87    0.14 
   7  -1   3    0.97    0.11 
  -8   1  -3    1.06    0.17 
  -8   1  -3    0.56    0.09 
   8  -1   3    0.84    0.11 
  -9   1  -3    0.05    0.14 
   9  -1   3    0.08    0.10 
 -10   1  -3    7.60    0.43 
  10  -1   3    8.07    0.37 
 -11   1  -3    0.48    0.17 
 -12   1  -3    1.36    0.23 
 -13   1  -3    0.84    0.24 
  14   0  -3    0.83    0.20 
 -14   0   3    0.70    0.24 
  13   0  -3    3.40    0.31 
 -13   0   3    4.06    0.36 
  12   0  -3   20.55    0.84 
 -12   0   3   19.44    0.86 
  11   0  -3   -0.10    0.12 
 -11   0   3    0.25    0.16 
  10   0  -3    1.00    0.17 
 -10   0   3    1.03    0.18 
   9   0  -3   11.78    0.52 
  -9   0   3   11.90    0.55 
   8   0  -3   11.21    0.47 
  -8   0   3    9.96    0.48 
   7   0  -3    4.57    0.25 
  -7   0   3    4.64    0.26 
   6   0  -3   21.33    0.80 
  -6   0   3   20.55    0.80 
   5   0  -3    0.47    0.08 
  -5   0   3    0.48    0.09 
   4   0  -3   12.64    0.44 
  -4   0   3    9.59    0.44 
  -3   0   3   38.82    1.40 
   2   0  -3  462.54   16.05 
   2   0  -3  462.58   16.02 
  -2   0   3  455.11   16.24 
   1   0  -3  150.39    5.37 
   1   0  -3  153.66    5.36 
  -1   0   3  155.84    5.45 
   0   0  -3    0.10    0.04 
   0   0   3    0.08    0.05 
  -1   0  -3  236.65    8.43 
  -1   0  -3  239.39    8.32 
  -2   0  -3   68.01    2.42 
  -2   0  -3   70.01    2.45 
  -3   0  -3   54.37    2.02 
  -3   0  -3   57.55    2.00 
   3   0   3   57.38    1.98 
  -4   0  -3    0.55    0.09 
  -4   0  -3    0.68    0.08 
   4   0   3    0.52    0.07 
  -5   0  -3   32.60    1.19 
  -5   0  -3   32.02    1.16 
   5   0   3   31.62    1.15 
  -6   0  -3    1.76    0.13 
  -6   0  -3    2.85    0.19 
   6   0   3    2.55    0.16 
  -7   0  -3    8.09    0.39 
   7   0   3    8.05    0.36 
  -8   0  -3    0.47    0.15 
   8   0   3    0.36    0.11 
  -9   0  -3    7.81    0.42 
   9   0   3    8.05    0.38 
 -10   0  -3    0.45    0.17 
  10   0   3    0.42    0.13 
 -11   0  -3    1.94    0.24 
 -12   0  -3    1.58    0.24 
 -13   0  -3    0.33    0.22 
  14  -1  -3    0.20    0.17 
 -14   1   3    0.38    0.22 
  13  -1  -3    0.90    0.19 
 -13   1   3    0.97    0.23 
  12  -1  -3   -0.01    0.14 
 -12   1   3   -0.29    0.16 
  11  -1  -3   10.37    0.50 
 -11   1   3   10.33    0.53 
  10  -1  -3   37.64    1.43 
 -10   1   3   39.31    1.48 
   9  -1  -3    0.16    0.11 
  -9   1   3    0.10    0.13 
   8  -1  -3   -0.06    0.09 
  -8   1   3    0.07    0.11 
   7  -1  -3    0.54    0.10 
  -7   1   3    0.41    0.11 
   6  -1  -3   15.62    0.62 
  -6   1   3   16.43    0.64 
   5  -1  -3    1.67    0.15 
  -5   1   3    1.70    0.15 
  -5   1   3    1.62    0.08 
   4  -1  -3   86.52    3.06 
  -4   1   3   88.49    3.05 
   3  -1  -3   16.03    0.59 
   2  -1  -3   23.87    0.86 
   1  -1  -3  130.76    4.54 
   0   1   3   84.22    2.97 
  -1  -1  -3   58.77    2.09 
  -2  -1  -3  410.18   14.54 
  -3  -1  -3   29.12    1.07 
  -4  -1  -3   47.32    1.69 
   4   1   3   45.90    1.65 
  -5  -1  -3    7.37    0.34 
   5   1   3    7.11    0.31 
  -6  -1  -3   29.90    1.12 
   6   1   3   29.18    1.08 
  -7  -1  -3    0.78    0.14 
   7   1   3    0.63    0.11 
  -8  -1  -3    9.46    0.45 
   8   1   3    9.41    0.42 
  -9  -1  -3    0.08    0.14 
   9   1   3    0.01    0.11 
 -10  -1  -3    0.10    0.15 
  10   1   3    0.16    0.12 
 -11  -1  -3    0.21    0.17 
 -12  -1  -3   -0.18    0.18 
 -13  -1  -3    0.03    0.18 
 -14   2   3    0.13    0.21 
  13  -2  -3    1.46    0.20 
 -13   2   3    1.33    0.23 
  12  -2  -3    0.56    0.16 
 -12   2   3    0.32    0.18 
  11  -2  -3    0.03    0.13 
 -11   2   3    0.20    0.15 
  10  -2  -3   -0.10    0.11 
 -10   2   3    0.24    0.16 
   9  -2  -3    7.48    0.36 
  -9   2   3    7.44    0.40 
   8  -2  -3    0.56    0.11 
  -8   2   3    0.59    0.12 
   7  -2  -3    6.83    0.31 
  -7   2   3    6.85    0.26 
  -7   2   3    6.61    0.33 
   6  -2  -3    0.04    0.08 
  -6   2   3    0.12    0.04 
  -6   2   3    0.22    0.09 
   5  -2  -3    7.51    0.32 
  -5   2   3    7.28    0.28 
   4  -2  -3    6.67    0.29 
  -4   2   3    6.61    0.26 
   3  -2  -3   52.86    2.02 
  -3   2   3   59.42    2.03 
  -3   2   3   60.45    2.06 
  -2   2   3  983.96   34.64 
  -1   2   3   10.40    0.40 
   0   2   3    0.38    0.06 
  -1  -2  -3    4.13    0.19 
  -2  -2  -3   23.77    0.87 
  -3  -2  -3    0.37    0.07 
  -4  -2  -3    3.60    0.21 
  -5  -2  -3   56.46    2.00 
   5   2   3   53.76    1.96 
  -6  -2  -3    0.52    0.11 
   6   2   3    0.42    0.10 
  -7  -2  -3    4.76    0.29 
   7   2   3    4.87    0.28 
  -8  -2  -3    3.02    0.25 
   8   2   3    2.83    0.25 
  -9  -2  -3    2.80    0.25 
   9   2   3    2.74    0.24 
 -10  -2  -3    0.22    0.16 
  10   2   3    0.16    0.13 
 -11  -2  -3    5.73    0.39 
 -12  -2  -3    0.08    0.19 
 -13  -2  -3    0.61    0.23 
 -14   3   3    0.54    0.23 
  13  -3  -3    0.71    0.18 
 -13   3   3    0.43    0.21 
  12  -3  -3    4.91    0.33 
 -12   3   3    5.13    0.37 
  11  -3  -3   -0.07    0.13 
 -11   3   3   -0.21    0.15 
  10  -3  -3    1.28    0.17 
 -10   3   3    1.40    0.19 
   9  -3  -3    0.22    0.12 
  -9   3   3    0.03    0.04 
   8  -3  -3    0.73    0.12 
  -8   3   3    0.75    0.07 
   7  -3  -3    0.82    0.11 
  -7   3   3    0.85    0.07 
   6  -3  -3   15.96    0.63 
  -6   3   3   16.78    0.65 
  -6   3   3   16.47    0.61 
   5  -3  -3   13.95    0.55 
  -5   3   3   14.05    0.53 
  -5   3   3   14.51    0.56 
   4  -3  -3    1.41    0.13 
  -4   3   3    1.37    0.12 
  -4   3   3    1.37    0.11 
  -3   3   3   18.14    0.68 
  -3   3   3   18.25    0.67 
  -2   3   3   35.42    1.28 
  -2   3   3   35.30    1.27 
  -1   3   3   55.14    1.96 
   0   3   3    0.01    0.05 
   1   3   3   49.49    1.77 
  -2  -3  -3   50.42    1.81 
  -3  -3  -3   -0.03    0.03 
  -4  -3  -3  342.72   12.05 
  -5  -3  -3   13.63    0.56 
   5   3   3   13.49    0.55 
  -6  -3  -3   13.78    0.58 
   6   3   3   13.48    0.57 
  -7  -3  -3    9.82    0.46 
   7   3   3    9.77    0.46 
  -8  -3  -3    0.27    0.15 
   8   3   3    0.26    0.13 
  -9  -3  -3    0.55    0.16 
   9   3   3    0.52    0.15 
 -10  -3  -3    1.58    0.22 
  10   3   3    1.71    0.19 
 -11  -3  -3   -0.14    0.16 
 -12  -3  -3    0.02    0.18 
 -14   4   3    0.06    0.20 
  13  -4  -3    3.07    0.29 
 -13   4   3    2.29    0.28 
  12  -4  -3   -0.14    0.13 
 -12   4   3   -0.14    0.14 
  11  -4  -3    0.04    0.13 
 -11   4   3   -0.14    0.15 
  10  -4  -3    7.18    0.37 
 -10   4   3    7.03    0.40 
   9  -4  -3    3.61    0.24 
  -9   4   3    2.42    0.21 
   8  -4  -3   17.72    0.68 
  -8   4   3   17.14    0.64 
  -8   4   3   16.37    0.70 
   7  -4  -3    5.58    0.28 
  -7   4   3    5.02    0.30 
  -7   4   3    5.95    0.25 
   6  -4  -3    0.00    0.07 
  -6   4   3    0.09    0.08 
  -6   4   3   -0.01    0.05 
   5  -4  -3    1.48    0.13 
  -5   4   3    1.61    0.13 
  -5   4   3    1.53    0.14 
  -4   4   3    4.83    0.24 
  -4   4   3    4.55    0.22 
  -3   4   3   29.10    1.04 
  -3   4   3   27.54    1.03 
  -2   4   3  181.62    6.40 
   0   4   3    0.52    0.07 
   1   4   3   43.33    1.55 
  -2  -4  -3   29.34    1.07 
  -4  -4  -3   13.14    0.53 
  -5  -4  -3   42.18    1.55 
  -6  -4  -3   12.87    0.56 
   6   4   3   13.25    0.56 
  -7  -4  -3   10.81    0.49 
   7   4   3   10.39    0.50 
  -8  -4  -3    3.14    0.27 
   8   4   3    3.37    0.28 
  -9  -4  -3    1.99    0.23 
   9   4   3    2.27    0.22 
 -10  -4  -3    0.77    0.19 
  10   4   3    0.57    0.16 
 -11  -4  -3   -0.06    0.17 
 -12  -4  -3    1.40    0.25 
 -14   5   3    1.41    0.25 
  13  -5  -3    2.65    0.25 
 -13   5   3    2.47    0.29 
  12  -5  -3    0.52    0.16 
 -12   5   3    0.60    0.19 
  11  -5  -3    6.10    0.35 
 -11   5   3    6.18    0.38 
  10  -5  -3   15.91    0.67 
 -10   5   3   16.59    0.72 
   9  -5  -3    4.62    0.28 
  -9   5   3    4.28    0.30 
  -8   5   3    4.59    0.28 
  -8   5   3    3.01    0.18 
   7  -5  -3    0.59    0.11 
  -7   5   3    0.58    0.08 
  -7   5   3    0.53    0.13 
  -6   5   3    0.14    0.10 
  -6   5   3    0.20    0.07 
  -5   5   3    3.68    0.20 
  -5   5   3    3.36    0.22 
  -4   5   3   15.10    0.60 
  -4   5   3   15.75    0.60 
  -3   5   3    8.98    0.38 
  -3   5   3    8.42    0.36 
  -2   5   3   20.32    0.76 
  -2   5   3   20.76    0.78 
  -1   5   3    1.15    0.12 
  -1   5   3    1.04    0.09 
   0   5   3  106.44    4.29 
   0   5   3  137.47    4.31 
   1   5   3    0.71    0.09 
   1   5   3    0.87    0.11 
  -2  -5  -3   12.80    0.53 
   2   5   3   13.96    0.53 
   2   5   3   14.11    0.55 
  -3  -5  -3    1.37    0.13 
   3   5   3    1.78    0.17 
  -4  -5  -3    5.12    0.27 
   4   5   3    5.21    0.28 
  -5  -5  -3    0.34    0.12 
   5   5   3    0.36    0.12 
  -6  -5  -3    0.67    0.14 
   6   5   3    0.69    0.14 
   6   5   3    0.75    0.13 
  -7  -5  -3   12.00    0.54 
   7   5   3   12.40    0.52 
   7   5   3   11.17    0.55 
  -8  -5  -3    1.37    0.19 
   8   5   3    1.37    0.19 
  -9  -5  -3    0.02    0.15 
   9   5   3    0.21    0.15 
 -10  -5  -3    0.09    0.16 
  10   5   3    0.12    0.15 
 -11  -5  -3    0.32    0.19 
  11   5   3    0.51    0.18 
 -14   6   3    0.29    0.20 
  13  -6  -3    8.90    0.46 
 -13   6   3    8.45    0.51 
  12  -6  -3   24.69    0.99 
 -12   6   3   25.25    1.05 
  11  -6  -3    0.19    0.14 
 -11   6   3    0.04    0.16 
  10  -6  -3   10.89    0.50 
 -10   6   3   10.57    0.52 
  -9   6   3    3.52    0.28 
  -8   6   3    0.88    0.12 
  -8   6   3    0.63    0.14 
  -7   6   3    2.13    0.20 
  -7   6   3    2.24    0.19 
  -6   6   3   38.73    1.44 
  -6   6   3   38.88    1.42 
  -5   6   3    0.53    0.10 
  -5   6   3    0.58    0.10 
  -4   6   3   19.16    0.73 
  -4   6   3   18.41    0.72 
  -3   6   3    5.00    0.25 
  -3   6   3    5.27    0.27 
  -2   6   3   47.91    1.75 
  -2   6   3   49.73    1.77 
  -1   6   3   -0.04    0.06 
  -1   6   3    0.17    0.08 
   0   6   3    0.12    0.06 
   0   6   3    0.01    0.08 
   1   6   3    5.94    0.29 
   1   6   3    5.79    0.26 
   2   6   3    2.90    0.20 
   2   6   3    2.88    0.18 
  -3  -6  -3   -0.01    0.08 
   3   6   3    0.03    0.09 
  -4  -6  -3   19.38    0.74 
   4   6   3   18.51    0.75 
  -5  -6  -3    8.39    0.39 
   5   6   3    8.60    0.41 
  -6  -6  -3    0.67    0.15 
   6   6   3    0.68    0.15 
   6   6   3    0.89    0.17 
  -7  -6  -3    0.56    0.16 
   7   6   3    0.60    0.17 
   7   6   3    0.55    0.14 
  -8  -6  -3    4.28    0.32 
   8   6   3    4.28    0.33 
  -9  -6  -3    0.09    0.15 
   9   6   3    0.10    0.16 
  10   6   3    2.65    0.27 
  11   6   3    2.15    0.26 
 -14   7   3    2.10    0.29 
 -13   7   3    2.91    0.31 
 -12   7   3    4.80    0.35 
 -11   7   3    1.90    0.23 
 -10   7   3    4.00    0.32 
  -9   7   3    2.41    0.23 
  -9   7   3    2.83    0.22 
  -8   7   3    3.30    0.23 
  -8   7   3    2.44    0.24 
  -7   7   3    5.47    0.31 
  -7   7   3    5.03    0.29 
  -6   7   3    1.84    0.18 
  -6   7   3    2.09    0.17 
  -5   7   3    5.37    0.28 
  -5   7   3    5.59    0.29 
  -4   7   3   53.55    1.94 
  -4   7   3   53.77    1.95 
  -3   7   3    2.52    0.20 
  -3   7   3    2.59    0.17 
  -2   7   3    3.33    0.19 
  -2   7   3    3.64    0.23 
  -1   7   3    4.96    0.21 
  -1   7   3    3.38    0.23 
   0   7   3    8.37    0.34 
   0   7   3    8.39    0.39 
   1   7   3    0.21    0.08 
   1   7   3    0.29    0.10 
   2   7   3    8.80    0.41 
   2   7   3    8.90    0.37 
   3   7   3   32.87    1.24 
   3   7   3   34.28    1.27 
  -4  -7  -3   20.18    0.77 
   4   7   3   19.26    0.80 
  -5  -7  -3   29.21    1.12 
   5   7   3   30.20    1.14 
  -6  -7  -3   10.62    0.48 
   6   7   3    9.89    0.48 
   7   7   3    0.13    0.15 
   7   7   3   -0.03    0.12 
   8   7   3    0.68    0.18 
   9   7   3    0.53    0.19 
  10   7   3    1.40    0.24 
 -14   8   3    0.12    0.19 
 -13   8   3    0.96    0.23 
 -12   8   3    0.11    0.18 
 -11   8   3    0.66    0.18 
 -10   8   3    5.28    0.36 
  -9   8   3    0.48    0.13 
  -9   8   3    0.40    0.15 
  -8   8   3    1.65    0.19 
  -8   8   3    1.44    0.16 
  -7   8   3    3.21    0.25 
  -7   8   3    3.53    0.25 
  -6   8   3    1.67    0.17 
  -6   8   3    1.87    0.18 
  -5   8   3    4.00    0.26 
  -5   8   3    3.77    0.24 
  -4   8   3    0.71    0.12 
  -4   8   3    0.58    0.11 
  -3   8   3   11.81    0.48 
  -3   8   3   12.05    0.52 
  -2   8   3    0.79    0.10 
  -2   8   3    0.65    0.12 
   0   8   3    0.11    0.11 
   0   8   3    0.29    0.08 
   1   8   3    0.24    0.11 
   1   8   3    0.24    0.08 
   2   8   3    2.01    0.20 
   2   8   3    2.08    0.17 
   3   8   3    3.26    0.22 
   3   8   3    3.53    0.26 
   4   8   3    1.41    0.18 
   4   8   3    1.44    0.16 
   5   8   3   10.71    0.51 
   6   8   3    8.79    0.45 
   7   8   3    0.31    0.18 
   8   8   3    4.18    0.36 
   9   8   3    0.17    0.18 
  10   8   3    0.21    0.20 
 -13   9   3    1.50    0.25 
 -12   9   3    0.75    0.20 
 -11   9   3   -0.08    0.16 
 -10   9   3    0.47    0.17 
  -9   9   3    3.63    0.28 
  -9   9   3    3.71    0.29 
  -8   9   3   12.20    0.55 
  -8   9   3   11.82    0.53 
  -7   9   3    4.58    0.29 
  -7   9   3    3.91    0.28 
  -6   9   3   23.82    0.96 
  -6   9   3   25.70    0.97 
  -5   9   3   -0.01    0.10 
  -5   9   3   -0.02    0.10 
  -4   9   3    5.05    0.27 
  -4   9   3    4.52    0.29 
  -3   9   3    0.01    0.08 
  -3   9   3   -0.18    0.10 
   0   9   3    1.70    0.19 
   0   9   3    1.46    0.12 
   1   9   3    8.24    0.43 
   2   9   3    5.58    0.35 
   3   9   3    0.48    0.15 
   4   9   3    0.34    0.15 
   5   9   3    2.36    0.24 
   6   9   3    0.61    0.16 
   7   9   3    1.90    0.25 
   8   9   3    0.18    0.19 
   9   9   3    0.20    0.18 
 -13  10   3    0.56    0.21 
 -12  10   3    0.74    0.20 
 -11  10   3    8.94    0.49 
 -10  10   3   -0.04    0.15 
  -9  10   3    2.48    0.22 
  -9  10   3    2.20    0.23 
  -8  10   3    0.37    0.14 
  -8  10   3    0.52    0.14 
  -7  10   3    1.39    0.18 
  -7  10   3    1.80    0.20 
  -6  10   3    8.45    0.41 
  -6  10   3    7.80    0.43 
  -5  10   3   26.88    1.08 
  -5  10   3   27.97    1.04 
  -4  10   3    0.22    0.14 
  -4  10   3    0.33    0.11 
  -3  10   3    0.26    0.13 
  -3  10   3    0.30    0.10 
  -2  10   3    0.16    0.12 
  -1  10   3   10.64    0.51 
   0  10   3   -0.02    0.12 
   1  10   3    9.58    0.49 
   2  10   3    0.34    0.16 
   3  10   3    1.65    0.22 
   4  10   3    1.41    0.20 
   5  10   3   -0.15    0.14 
   6  10   3    0.19    0.16 
   7  10   3    0.90    0.22 
   8  10   3    0.06    0.18 
 -12  11   3   -0.14    0.18 
 -11  11   3    1.01    0.21 
 -10  11   3    2.76    0.26 
  -9  11   3    0.15    0.15 
  -9  11   3    0.08    0.14 
  -8  11   3    0.74    0.16 
  -8  11   3    0.55    0.16 
  -7  11   3    0.11    0.14 
  -7  11   3    0.15    0.13 
  -6  11   3    0.33    0.13 
  -6  11   3    0.53    0.16 
  -5  11   3    0.82    0.17 
  -5  11   3    0.93    0.14 
  -4  11   3   15.43    0.68 
  -3  11   3   13.99    0.63 
  -2  11   3    5.26    0.35 
  -1  11   3   -0.20    0.12 
   0  11   3    3.50    0.28 
   1  11   3    0.55    0.17 
   2  11   3    1.12    0.19 
   3  11   3    3.32    0.30 
   4  11   3    2.24    0.25 
   5  11   3    2.77    0.28 
   6  11   3    3.36    0.32 
   7  11   3   -0.11    0.19 
 -12  12   3    0.92    0.22 
 -11  12   3    2.08    0.26 
 -10  12   3    0.21    0.17 
  -9  12   3    5.23    0.34 
  -9  12   3    4.95    0.35 
  -8  12   3    0.93    0.18 
  -7  12   3    0.94    0.18 
  -6  12   3    1.30    0.20 
  -5  12   3    0.57    0.17 
  -4  12   3    2.07    0.23 
  -3  12   3   -0.11    0.14 
  -2  12   3   -0.18    0.12 
  -1  12   3    0.55    0.16 
   0  12   3    0.01    0.15 
   1  12   3    0.25    0.15 
   2  12   3   -0.21    0.14 
   3  12   3    1.80    0.24 
   4  12   3    0.27    0.17 
   5  12   3    1.43    0.23 
 -10  13   3    0.38    0.18 
  -9  13   3   -0.07    0.15 
  -8  13   3   -0.06    0.15 
  -7  13   3    3.30    0.31 
  -6  13   3    0.16    0.16 
  -5  13   3    2.19    0.24 
  -4  13   3    0.11    0.15 
  -3  13   3    0.01    0.16 
  -2  13   3   -0.18    0.13 
  -1  13   3   -0.13    0.15 
   0  13   3    0.14    0.16 
   1  13   3    0.15    0.16 
   2  13   3    0.74    0.20 
   3  13   3    0.29    0.18 
   4  13   3    0.35    0.19 
   5  13   3    0.18    0.19 
 -10  14   3    0.24    0.18 
  -9  14   3    0.18    0.18 
  -8  14   3    0.32    0.18 
  -7  14   3    0.17    0.17 
  -6  14   3    1.23    0.22 
  -5  14   3    3.02    0.30 
  -4  14   3   -0.14    0.14 
  -3  14   3    0.22    0.16 
  -2  14   3    0.13    0.17 
  -1  14   3    1.43    0.24 
   0  14   3   -0.10    0.16 
   1  14   3    1.25    0.24 
   2  14   3    0.81    0.21 
   3  14   3    0.25    0.20 
  -8  15   3   -0.13    0.16 
  -7  15   3    1.40    0.23 
  -6  15   3    0.81    0.21 
  -5  15   3    0.21    0.18 
  -4  15   3    2.43    0.28 
  -3  15   3    4.63    0.36 
  -2  15   3    1.27    0.23 
  -1  15   3    0.32    0.18 
   0  15   3   -0.06    0.18 
   1  15   3    0.02    0.20 
  -6  16   3    1.00    0.24 
  -5  16   3    0.21    0.19 
  -4  16   3    0.15    0.19 
  -3  16   3    0.49    0.21 
  -2  16   3    0.65    0.23 
  -3  17  -4   -0.45    0.18 
   1  16  -4    2.15    0.29 
   0  16  -4    6.78    0.46 
  -1  16  -4    4.46    0.38 
  -2  16  -4   -0.09    0.19 
  -3  16  -4    0.19    0.18 
  -4  16  -4   -0.13    0.18 
  -5  16  -4    0.12    0.19 
  -6  16  -4   -0.15    0.17 
  -7  16  -4    2.04    0.27 
   3  15  -4   -0.26    0.17 
   3  15  -4    0.00    0.17 
   2  15  -4    0.51    0.19 
   1  15  -4    0.12    0.17 
   0  15  -4    0.06    0.17 
  -1  15  -4    0.78    0.22 
  -2  15  -4    1.12    0.23 
  -3  15  -4    0.51    0.20 
  -4  15  -4    0.57    0.20 
  -5  15  -4    0.23    0.17 
  -6  15  -4   -0.07    0.15 
  -7  15  -4    0.41    0.19 
  -8  15  -4    0.42    0.18 
  -9  15  -4    3.84    0.36 
   5  14  -4    0.76    0.23 
   4  14  -4    0.19    0.17 
   4  14  -4   -0.06    0.17 
   3  14  -4    0.49    0.18 
   2  14  -4    0.39    0.18 
   1  14  -4   -0.22    0.15 
   0  14  -4   -0.22    0.15 
  -1  14  -4   -0.18    0.14 
  -2  14  -4    3.55    0.32 
  -3  14  -4    0.00    0.15 
  -4  14  -4    0.32    0.16 
  -5  14  -4    0.46    0.17 
  -6  14  -4    0.08    0.15 
  -7  14  -4    0.45    0.18 
  -8  14  -4    1.00    0.20 
  -9  14  -4   -0.24    0.16 
 -10  14  -4    0.25    0.18 
   6  13  -4    0.57    0.20 
   5  13  -4    0.03    0.16 
   5  13  -4   -0.20    0.15 
   4  13  -4    2.35    0.26 
   4  13  -4    1.55    0.22 
   3  13  -4    0.84    0.18 
   2  13  -4    1.67    0.22 
   1  13  -4    0.49    0.17 
   0  13  -4    0.75    0.18 
  -1  13  -4    1.56    0.21 
  -2  13  -4    0.83    0.18 
  -3  13  -4    5.37    0.35 
  -4  13  -4    1.24    0.19 
  -5  13  -4   -0.16    0.13 
  -6  13  -4    0.26    0.16 
  -7  13  -4    2.52    0.26 
  -8  13  -4    0.26    0.17 
  -9  13  -4    0.26    0.17 
 -10  13  -4    0.12    0.16 
   7  12  -4    0.17    0.16 
   6  12  -4    0.45    0.19 
   5  12  -4    0.05    0.14 
   5  12  -4    0.01    0.16 
   4  12  -4   -0.08    0.13 
   4  12  -4    0.26    0.16 
   3  12  -4    0.42    0.16 
   2  12  -4    0.93    0.18 
   1  12  -4   25.76    1.04 
   0  12  -4    2.28    0.23 
  -1  12  -4   15.95    0.70 
  -2  12  -4   14.02    0.63 
  -3  12  -4    0.06    0.13 
  -4  12  -4    2.12    0.22 
  -5  12  -4    0.08    0.14 
  -6  12  -4    0.75    0.17 
  -7  12  -4    3.41    0.28 
  -8  12  -4    0.01    0.14 
  -9  12  -4    0.06    0.15 
 -10  12  -4    0.21    0.16 
 -10  12  -4    0.07    0.16 
 -11  12  -4    0.02    0.18 
 -12  12  -4    0.72    0.22 
   8  11  -4    1.12    0.23 
   7  11  -4    0.23    0.17 
   6  11  -4    0.04    0.13 
   5  11  -4    0.51    0.15 
   5  11  -4    0.48    0.16 
   4  11  -4    0.00    0.12 
   4  11  -4    0.07    0.16 
   3  11  -4   -0.14    0.12 
   2  11  -4    0.00    0.12 
   1  11  -4    5.75    0.35 
   0  11  -4    1.00    0.17 
  -1  11  -4   23.86    0.96 
  -2  11  -4    9.66    0.47 
  -3  11  -4   42.91    1.62 
  -4  11  -4   16.12    0.70 
  -5  11  -4    0.29    0.14 
  -6  11  -4    5.43    0.35 
  -6  11  -4    5.13    0.29 
  -7  11  -4   12.08    0.56 
  -7  11  -4   11.50    0.53 
  -8  11  -4    0.62    0.15 
  -8  11  -4    0.99    0.17 
  -9  11  -4    3.88    0.31 
  -9  11  -4    3.96    0.30 
 -10  11  -4    0.03    0.14 
 -10  11  -4    0.01    0.15 
 -11  11  -4    0.01    0.17 
 -12  11  -4    0.94    0.23 
   9  10  -4    0.08    0.17 
   8  10  -4    0.85    0.21 
   7  10  -4    0.86    0.20 
   6  10  -4    0.10    0.15 
   5  10  -4    1.75    0.19 
   5  10  -4    2.09    0.23 
   4  10  -4    3.49    0.27 
   4  10  -4    3.72    0.29 
   3  10  -4   18.25    0.76 
   2  10  -4    4.77    0.31 
   1  10  -4    1.48    0.18 
   0  10  -4    2.43    0.23 
  -1  10  -4    1.59    0.18 
  -2  10  -4   -0.02    0.02 
  -3  10  -4    3.44    0.26 
  -4  10  -4    1.49    0.19 
  -4  10  -4    1.81    0.17 
  -5  10  -4    0.01    0.12 
  -5  10  -4    0.02    0.10 
  -6  10  -4    5.08    0.29 
  -6  10  -4    5.09    0.31 
  -7  10  -4    0.18    0.13 
  -7  10  -4    0.26    0.12 
  -8  10  -4    0.11    0.13 
  -8  10  -4   -0.08    0.13 
  -9  10  -4   -0.02    0.13 
  -9  10  -4   -0.11    0.14 
 -10  10  -4    0.18    0.16 
 -10  10  -4   -0.01    0.14 
 -11  10  -4    0.27    0.18 
 -12  10  -4    2.02    0.27 
  10   9  -4    0.35    0.21 
   9   9  -4    3.29    0.31 
   8   9  -4    0.15    0.16 
   7   9  -4    0.07    0.14 
   6   9  -4    1.26    0.16 
   6   9  -4    1.15    0.18 
   5   9  -4    0.14    0.12 
   5   9  -4    0.11    0.15 
   4   9  -4    8.21    0.43 
   4   9  -4    8.65    0.42 
   3   9  -4   10.48    0.47 
   2   9  -4   39.57    1.47 
   1   9  -4   25.76    1.00 
   0   9  -4    0.14    0.10 
  -1   9  -4   27.99    1.08 
  -3   9  -4    3.05    0.17 
  -3   9  -4    3.00    0.25 
  -4   9  -4   20.14    0.81 
  -4   9  -4   20.32    0.77 
  -5   9  -4   10.49    0.49 
  -5   9  -4   10.81    0.46 
  -6   9  -4    0.03    0.12 
  -6   9  -4    0.06    0.11 
  -7   9  -4   -0.09    0.12 
  -7   9  -4   -0.02    0.11 
  -8   9  -4    2.45    0.22 
  -8   9  -4    2.23    0.21 
  -9   9  -4    3.08    0.26 
  -9   9  -4    3.34    0.28 
 -10   9  -4    1.66    0.22 
 -10   9  -4    1.57    0.19 
 -11   9  -4    4.42    0.33 
 -12   9  -4    1.79    0.25 
 -13   9  -4    0.25    0.20 
  11   8  -4    0.23    0.20 
  10   8  -4   -0.02    0.18 
   9   8  -4    0.04    0.15 
   8   8  -4    1.47    0.21 
   7   8  -4   17.04    0.74 
   6   8  -4    1.75    0.21 
   6   8  -4    2.08    0.20 
   5   8  -4    7.45    0.37 
   5   8  -4    8.62    0.43 
   4   8  -4    0.64    0.12 
   4   8  -4    0.49    0.14 
   3   8  -4    0.08    0.09 
   2   8  -4   10.69    0.47 
   1   8  -4   20.53    0.81 
   0   8  -4   20.47    0.80 
  -1   8  -4    5.53    0.29 
  -2   8  -4   70.32    2.60 
  -2   8  -4   74.36    2.56 
  -3   8  -4    7.08    0.35 
  -3   8  -4    6.83    0.30 
  -4   8  -4    7.80    0.35 
  -4   8  -4    8.40    0.39 
  -5   8  -4   21.82    0.84 
  -5   8  -4   21.11    0.82 
  -6   8  -4   15.39    0.64 
  -6   8  -4   16.04    0.65 
  -7   8  -4    0.42    0.14 
  -7   8  -4    0.67    0.14 
  -8   8  -4    1.86    0.21 
  -8   8  -4    1.98    0.20 
  -9   8  -4    5.31    0.32 
  -9   8  -4    5.47    0.35 
 -10   8  -4    6.71    0.39 
 -10   8  -4    6.85    0.36 
 -11   8  -4    0.26    0.18 
 -12   8  -4    0.27    0.17 
 -13   8  -4    0.77    0.21 
  11   7  -4    0.88    0.22 
  10   7  -4    1.79    0.24 
   9   7  -4    0.32    0.17 
   8   7  -4    0.50    0.16 
   7   7  -4    0.00    0.13 
   6   7  -4   -0.02    0.08 
   6   7  -4   -0.11    0.11 
  -5  -7   4    0.34    0.06 
   4   7  -4    8.04    0.37 
  -4  -7   4    8.79    0.35 
   3   7  -4    3.32    0.26 
   3   7  -4    3.53    0.22 
  -3  -7   4    3.50    0.16 
   2   7  -4    4.39    0.25 
   1   7  -4   12.15    0.50 
   0   7  -4    0.87    0.11 
  -1   7  -4    0.15    0.08 
  -1   7  -4    0.15    0.04 
  -2   7  -4  108.19    3.89 
  -2   7  -4  112.48    3.91 
  -3   7  -4    1.25    0.12 
  -3   7  -4    0.89    0.12 
  -4   7  -4   40.35    1.48 
  -4   7  -4   39.77    1.46 
  -5   7  -4    7.10    0.34 
  -5   7  -4    6.93    0.33 
  -6   7  -4    0.65    0.12 
  -6   7  -4    0.53    0.12 
  -7   7  -4    0.34    0.12 
  -7   7  -4    0.21    0.13 
  -8   7  -4   55.10    2.04 
  -8   7  -4   57.07    2.08 
  -9   7  -4    7.86    0.43 
  -9   7  -4    7.52    0.38 
 -10   7  -4    0.53    0.16 
 -11   7  -4    0.22    0.16 
 -12   7  -4    0.60    0.20 
 -13   7  -4    1.04    0.24 
  12   6  -4    0.45    0.21 
  11   6  -4    1.71    0.24 
  10   6  -4    0.75    0.19 
   9   6  -4    0.92    0.18 
  -9  -6   4    1.02    0.17 
   8   6  -4    0.01    0.14 
  -8  -6   4    0.14    0.12 
   7   6  -4    3.94    0.30 
  -7  -6   4    3.92    0.25 
   6   6  -4   10.97    0.46 
  -6  -6   4   11.78    0.48 
   4   6  -4    2.41    0.16 
   4   6  -4    2.09    0.18 
  -4  -6   4    2.32    0.15 
   3   6  -4    2.48    0.17 
   3   6  -4    2.35    0.21 
  -3  -6   4    2.21    0.13 
   2   6  -4  102.84    3.62 
  -2  -6   4  102.29    3.60 
   1   6  -4    5.42    0.27 
   0   6  -4   18.62    0.70 
   0  -6   4   17.50    0.64 
  -1   6  -4   42.09    1.49 
  -2   6  -4   40.30    1.45 
  -2   6  -4   39.15    1.42 
  -3   6  -4   14.26    0.56 
  -3   6  -4   13.41    0.53 
  -4   6  -4    9.82    0.41 
  -4   6  -4   10.02    0.43 
  -5   6  -4    9.49    0.42 
  -5   6  -4    9.44    0.41 
  -6   6  -4    0.60    0.11 
  -6   6  -4    0.95    0.13 
  -7   6  -4   22.53    0.89 
  -7   6  -4   23.77    0.92 
  -8   6  -4   13.64    0.58 
  -8   6  -4   14.41    0.61 
  -9   6  -4    1.30    0.19 
  -9   6  -4    1.36    0.15 
 -10   6  -4    2.55    0.25 
 -11   6  -4   -0.16    0.16 
 -12   6  -4    0.11    0.17 
 -13   6  -4    0.45    0.21 
  12   5  -4    0.44    0.18 
  11   5  -4    1.64    0.23 
 -11  -5   4    1.94    0.23 
  10   5  -4    1.04    0.20 
 -10  -5   4    1.21    0.19 
   9   5  -4    3.42    0.30 
  -9  -5   4    3.33    0.27 
   8   5  -4    0.55    0.15 
  -8  -5   4    0.37    0.13 
   7   5  -4    0.56    0.15 
  -7  -5   4    0.18    0.12 
   6   5  -4    0.34    0.11 
   6   5  -4    0.36    0.08 
  -6  -5   4    0.50    0.11 
   4   5  -4    2.61    0.16 
   4   5  -4    2.24    0.18 
  -4  -5   4    2.04    0.14 
   3   5  -4   36.28    1.32 
   3   5  -4   37.17    1.33 
  -3  -5   4   36.11    1.31 
   2   5  -4   87.70    3.08 
   2   5  -4   87.63    3.09 
  -2  -5   4   87.02    3.08 
   1   5  -4   15.34    0.60 
  -1  -5   4   15.79    0.56 
   0   5  -4    0.09    0.06 
   0  -5   4    0.20    0.04 
  -1   5  -4    0.61    0.06 
  -2   5  -4    2.06    0.16 
  -2   5  -4    2.01    0.14 
  -3   5  -4    8.10    0.34 
  -3   5  -4    8.06    0.35 
  -4   5  -4   36.52    1.34 
  -4   5  -4   36.86    1.34 
  -5   5  -4   35.74    1.34 
  -5   5  -4   36.90    1.33 
  -6   5  -4   77.45    2.83 
  -6   5  -4   79.74    2.80 
  -7   5  -4    0.01    0.09 
  -7   5  -4    0.06    0.12 
  -8   5  -4   60.23    2.15 
  -8   5  -4   59.11    2.20 
  -9   5  -4   26.38    1.06 
  -9   5  -4   26.45    1.00 
 -10   5  -4   -0.13    0.14 
 -11   5  -4    1.22    0.21 
 -12   5  -4    3.32    0.31 
 -13   5  -4   -0.04    0.19 
  13   4  -4    0.74    0.22 
 -13  -4   4    0.32    0.21 
  12   4  -4    2.19    0.26 
 -12  -4   4    2.02    0.25 
  11   4  -4    0.08    0.16 
 -11  -4   4    0.11    0.16 
  10   4  -4    0.50    0.16 
 -10  -4   4    0.35    0.16 
   9   4  -4    0.29    0.15 
  -9  -4   4    0.42    0.15 
   8   4  -4   22.76    0.91 
  -8  -4   4   22.63    0.90 
   7   4  -4   15.09    0.64 
  -7  -4   4   15.71    0.64 
   6   4  -4   11.11    0.49 
   6   4  -4   10.93    0.43 
  -6  -4   4   11.37    0.47 
   5   4  -4    5.62    0.22 
  -5  -4   4    4.20    0.23 
   4   4  -4  152.38    5.42 
   4   4  -4  157.50    5.42 
  -4  -4   4  154.60    5.46 
   3   4  -4   37.97    1.39 
   3   4  -4   39.15    1.40 
  -3  -4   4   39.13    1.39 
   2   4  -4  271.39    9.66 
  -2  -4   4  278.10    9.70 
   1   4  -4   72.83    2.54 
   1   4  -4   71.90    2.53 
  -1  -4   4   71.16    2.54 
   0   4  -4   45.46    1.64 
   0  -4   4   46.42    1.63 
  -2   4  -4   11.61    0.45 
  -3   4  -4   88.28    3.14 
  -4   4  -4    0.21    0.08 
  -4   4  -4    0.30    0.08 
  -5   4  -4   17.92    0.71 
  -5   4  -4   18.48    0.70 
  -6   4  -4    0.61    0.10 
  -6   4  -4    0.49    0.12 
  -7   4  -4    0.32    0.09 
  -7   4  -4    0.06    0.11 
   7  -4   4    0.38    0.07 
  -8   4  -4    0.35    0.11 
  -8   4  -4    0.34    0.14 
   8  -4   4    0.26    0.08 
  -9   4  -4    2.34    0.20 
  -9   4  -4    2.47    0.23 
 -10   4  -4    0.99    0.20 
 -11   4  -4    2.01    0.25 
 -12   4  -4   -0.18    0.17 
 -13   4  -4    0.96    0.22 
  13   3  -4    0.23    0.17 
 -13  -3   4    0.07    0.17 
  12   3  -4    5.21    0.38 
 -12  -3   4    5.86    0.39 
  11   3  -4    0.68    0.17 
 -11  -3   4    0.69    0.19 
  10   3  -4   -0.09    0.12 
 -10  -3   4   -0.14    0.13 
   9   3  -4   17.48    0.75 
  -9  -3   4   18.29    0.75 
   8   3  -4    6.51    0.36 
  -8  -3   4    6.70    0.36 
   7   3  -4    5.43    0.31 
  -7  -3   4    5.09    0.29 
   6   3  -4    2.73    0.22 
   6   3  -4    2.92    0.13 
  -6  -3   4    2.56    0.20 
   5   3  -4    9.93    0.44 
   5   3  -4   10.87    0.39 
  -5  -3   4   10.72    0.43 
   4   3  -4   12.74    0.48 
  -4  -3   4   12.98    0.50 
   3   3  -4    4.42    0.20 
  -3  -3   4    4.57    0.21 
   2   3  -4  282.08    9.98 
   2   3  -4  283.68    9.87 
  -2  -3   4  287.30   10.05 
   1   3  -4    2.77    0.15 
   1   3  -4    2.80    0.15 
  -1  -3   4    2.80    0.13 
   0   3  -4    0.12    0.05 
   0   3  -4    0.20    0.05 
   0  -3   4    0.18    0.05 
  -1   3  -4    7.11    0.25 
  -1   3  -4    4.90    0.25 
  -2   3  -4    1.29    0.11 
  -2   3  -4    1.35    0.12 
  -3   3  -4    1.69    0.12 
  -3   3  -4    2.15    0.15 
  -4   3  -4   64.69    2.32 
  -5   3  -4   10.31    0.48 
  -5   3  -4   13.48    0.52 
   5  -3   4   13.55    0.46 
  -6   3  -4   39.22    1.46 
  -6   3  -4   39.35    1.43 
   6  -3   4   39.66    1.39 
  -7   3  -4    0.01    0.08 
  -7   3  -4    0.04    0.07 
   7  -3   4    0.00    0.06 
  -8   3  -4   17.11    0.67 
   8  -3   4   17.01    0.64 
  -9   3  -4    4.19    0.30 
  -9   3  -4    4.38    0.25 
 -10   3  -4    2.60    0.26 
 -11   3  -4    4.42    0.35 
 -12   3  -4    4.71    0.37 
 -13   3  -4    0.82    0.22 
  13   2  -4    1.02    0.21 
 -13  -2   4    0.76    0.22 
  12   2  -4    0.30    0.16 
 -12  -2   4    0.09    0.17 
  11   2  -4    4.64    0.34 
 -11  -2   4    4.86    0.34 
  10   2  -4    5.04    0.34 
 -10  -2   4    5.13    0.34 
   9   2  -4    1.48    0.19 
  -9  -2   4    1.39    0.19 
   8   2  -4    2.74    0.24 
  -8  -2   4    2.43    0.23 
   7   2  -4   31.22    1.18 
  -7  -2   4   31.90    1.19 
   6   2  -4   18.59    0.73 
  -6  -2   4   18.84    0.73 
   5   2  -4    3.11    0.13 
   5   2  -4    3.16    0.21 
  -5  -2   4    2.98    0.19 
   4   2  -4   27.19    0.91 
  -4  -2   4   24.18    0.95 
   3   2  -4    6.05    0.24 
  -3  -2   4    6.25    0.26 
   2   2  -4  169.90    5.77 
   2   2  -4  164.04    5.73 
  -2  -2   4  160.46    5.81 
   1   2  -4   38.52    1.35 
   1   2  -4   38.27    1.36 
  -1  -2   4   37.94    1.37 
   0   2  -4    3.07    0.15 
   0   2  -4    3.22    0.15 
   0  -2   4    3.21    0.16 
  -1   2  -4   44.56    1.64 
  -1   2  -4   46.55    1.60 
  -1   2  -4   46.97    1.64 
  -2   2  -4    0.35    0.07 
  -2   2  -4    0.36    0.06 
  -3   2  -4    0.10    0.06 
  -3   2  -4    0.09    0.06 
  -4   2  -4    7.90    0.35 
   4  -2   4    7.92    0.29 
  -6   2  -4   45.16    1.69 
   6  -2   4   48.82    1.66 
  -7   2  -4    1.02    0.11 
   7  -2   4    1.19    0.11 
  -8   2  -4    2.73    0.19 
   8  -2   4    2.99    0.19 
  -9   2  -4    0.12    0.15 
   9  -2   4    0.20    0.10 
 -10   2  -4    3.14    0.28 
 -11   2  -4    0.55    0.18 
 -12   2  -4   -0.03    0.17 
 -13   2  -4    0.19    0.21 
  14   1  -4    0.02    0.18 
 -14  -1   4    0.04    0.21 
  13   1  -4    4.71    0.37 
 -13  -1   4    6.10    0.42 
  12   1  -4    0.23    0.16 
 -12  -1   4    0.42    0.18 
  11   1  -4    3.78    0.31 
 -11  -1   4    3.45    0.29 
  10   1  -4   18.22    0.77 
 -10  -1   4   19.47    0.80 
   9   1  -4    0.36    0.14 
  -9  -1   4    0.34    0.15 
   8   1  -4   18.16    0.73 
  -8  -1   4   17.88    0.74 
   7   1  -4   33.81    1.25 
  -7  -1   4   33.71    1.26 
   6   1  -4    6.88    0.33 
  -6  -1   4    7.33    0.34 
   5   1  -4   75.64    2.66 
  -5  -1   4   74.96    2.69 
   4   1  -4   16.15    0.57 
   3   1  -4   -0.07    0.04 
   3   1  -4    0.09    0.03 
  -3  -1   4    0.06    0.06 
   2   1  -4   43.50    1.54 
   2   1  -4   43.63    1.53 
  -2  -1   4   43.35    1.55 
   1   1  -4    9.48    0.35 
   1   1  -4    9.38    0.35 
  -1  -1   4    9.26    0.36 
   0   1  -4    0.10    0.04 
   0  -1   4    0.05    0.05 
  -1   1  -4   16.98    0.60 
  -1   1  -4   15.67    0.61 
  -2   1  -4    7.96    0.32 
  -3   1  -4   30.14    1.08 
   3  -1   4   29.79    1.05 
  -4   1  -4   26.05    0.98 
  -4   1  -4   25.50    0.96 
   4  -1   4   27.27    0.93 
  -5   1  -4   25.99    0.95 
   5  -1   4   24.12    0.90 
  -6   1  -4    6.63    0.34 
   6  -1   4    6.77    0.28 
  -7   1  -4   13.29    0.54 
  -7   1  -4   13.97    0.59 
   7  -1   4   13.49    0.53 
  -8   1  -4    2.15    0.21 
  -8   1  -4    1.86    0.16 
   8  -1   4    2.18    0.18 
  -9   1  -4    0.23    0.16 
   9  -1   4    0.19    0.11 
 -10   1  -4    1.10    0.19 
 -11   1  -4   10.16    0.54 
 -12   1  -4    1.17    0.22 
 -13   1  -4    0.79    0.22 
  14   0  -4    0.91    0.21 
 -14   0   4    0.71    0.23 
  13   0  -4    5.13    0.37 
 -13   0   4    4.65    0.36 
  12   0  -4    0.08    0.16 
 -12   0   4    0.18    0.18 
  11   0  -4    0.04    0.13 
 -11   0   4    0.41    0.17 
  10   0  -4    0.16    0.14 
 -10   0   4    0.02    0.15 
   9   0  -4    5.59    0.33 
  -9   0   4    5.46    0.34 
   8   0  -4    8.64    0.40 
  -8   0   4    7.85    0.39 
   7   0  -4    4.51    0.26 
  -7   0   4    4.79    0.26 
   6   0  -4    1.40    0.13 
  -6   0   4    1.21    0.13 
   5   0  -4   23.06    0.86 
  -5   0   4   23.09    0.87 
   4   0  -4   24.19    0.89 
   3   0  -4   56.25    1.98 
   2   0  -4   63.82    2.22 
   2   0  -4   63.28    2.22 
  -2   0   4   62.83    2.25 
   1   0  -4  256.60    8.81 
   1   0  -4  248.33    8.88 
  -1   0   4  253.20    8.96 
  -1   0  -4  201.79    7.04 
  -1   0  -4  202.03    7.18 
  -2   0  -4  229.17    8.01 
  -2   0  -4  226.21    7.96 
  -3   0  -4  224.07    7.82 
  -4   0  -4  265.82    8.62 
  -4   0  -4  214.98    8.52 
   4   0   4  251.21    8.51 
  -5   0  -4    9.31    0.41 
   5   0   4    9.38    0.37 
  -6   0  -4    4.69    0.27 
  -6   0  -4    3.96    0.22 
   6   0   4    4.13    0.22 
  -7   0  -4    0.64    0.14 
   7   0   4    0.64    0.10 
  -8   0  -4    2.77    0.26 
   8   0   4    2.81    0.21 
  -9   0  -4   -0.08    0.13 
   9   0   4   -0.05    0.10 
 -10   0  -4    3.37    0.31 
 -11   0  -4    0.80    0.19 
 -12   0  -4   -0.17    0.16 
 -13   0  -4   -0.02    0.20 
  14  -1  -4    0.43    0.18 
 -14   1   4    0.21    0.21 
  13  -1  -4    6.06    0.39 
 -13   1   4    6.64    0.44 
  12  -1  -4    1.97    0.22 
 -12   1   4    2.15    0.26 
  11  -1  -4    0.54    0.16 
 -11   1   4    0.86    0.19 
  10  -1  -4    9.61    0.46 
 -10   1   4    9.38    0.47 
   9  -1  -4    5.41    0.31 
  -9   1   4    5.27    0.32 
   8  -1  -4   22.78    0.88 
  -8   1   4   22.52    0.89 
   7  -1  -4    0.49    0.11 
  -7   1   4    0.38    0.11 
   6  -1  -4    1.59    0.14 
  -6   1   4    1.84    0.16 
   5  -1  -4   76.74    2.70 
  -5   1   4   75.91    2.74 
  -5   1   4   76.98    2.67 
   4  -1  -4   64.27    2.27 
   2  -1  -4   73.42    2.57 
   1  -1  -4   85.40    2.98 
   0   1   4    0.07    0.05 
  -1  -1  -4    7.82    0.32 
  -1  -1  -4    7.87    0.31 
  -2  -1  -4   15.10    0.57 
  -2  -1  -4   14.96    0.58 
  -4  -1  -4   30.05    1.12 
  -5  -1  -4    0.44    0.11 
   5   1   4    0.42    0.08 
  -6  -1  -4   34.95    1.32 
   6   1   4   35.43    1.28 
  -7  -1  -4   19.61    0.80 
   7   1   4   19.87    0.76 
  -8  -1  -4    1.01    0.16 
   8   1   4    0.58    0.12 
  -9  -1  -4    0.12    0.15 
   9   1   4   -0.05    0.11 
 -10  -1  -4    0.22    0.16 
 -11  -1  -4    1.09    0.21 
 -12  -1  -4    2.84    0.31 
 -13  -1  -4    0.31    0.22 
  14  -2  -4    0.12    0.17 
 -14   2   4    0.59    0.20 
  13  -2  -4   -0.10    0.15 
 -13   2   4    0.15    0.17 
  12  -2  -4    0.49    0.17 
 -12   2   4    0.38    0.18 
  11  -2  -4    0.12    0.14 
 -11   2   4    0.13    0.15 
  10  -2  -4   21.12    0.86 
 -10   2   4   21.92    0.90 
   9  -2  -4    0.16    0.12 
  -9   2   4    0.14    0.13 
   8  -2  -4    0.37    0.11 
  -8   2   4    0.28    0.11 
   7  -2  -4    3.04    0.19 
  -7   2   4    2.84    0.21 
  -7   2   4    3.08    0.13 
   6  -2  -4    4.42    0.24 
  -6   2   4    4.37    0.25 
  -6   2   4    4.27    0.18 
   5  -2  -4    0.44    0.09 
  -5   2   4    0.65    0.06 
   4  -2  -4    1.76    0.13 
  -4   2   4    1.64    0.11 
  -2   2   4  425.89   15.09 
  -1   2   4   76.81    2.72 
   0   2   4  285.16   10.09 
  -1  -2  -4   50.66    1.82 
   1   2   4   51.09    1.82 
  -2  -2  -4   38.82    1.40 
  -3  -2  -4    1.19    0.11 
  -4  -2  -4   35.60    1.31 
  -5  -2  -4    1.50    0.15 
   5   2   4    1.53    0.14 
  -6  -2  -4    7.24    0.36 
   6   2   4    7.42    0.34 
  -7  -2  -4    5.08    0.31 
   7   2   4    4.54    0.28 
  -8  -2  -4   10.77    0.54 
   8   2   4   12.01    0.51 
  -9  -2  -4    0.13    0.15 
   9   2   4   -0.16    0.10 
 -10  -2  -4    0.58    0.18 
  10   2   4    0.85    0.16 
 -11  -2  -4    0.00    0.17 
 -12  -2  -4   -0.11    0.19 
  14  -3  -4    0.13    0.17 
 -14   3   4    0.07    0.19 
  13  -3  -4    6.61    0.40 
 -13   3   4    7.19    0.44 
  12  -3  -4    6.55    0.39 
 -12   3   4    6.76    0.43 
  11  -3  -4    8.76    0.44 
 -11   3   4    8.81    0.46 
  10  -3  -4    1.78    0.19 
 -10   3   4    1.75    0.21 
   9  -3  -4    1.14    0.16 
   7  -3  -4    0.34    0.10 
  -7   3   4    0.51    0.07 
   6  -3  -4   66.74    2.41 
  -6   3   4   68.49    2.39 
  -6   3   4   68.26    2.45 
   5  -3  -4   10.85    0.45 
  -5   3   4   11.36    0.47 
  -5   3   4   11.42    0.43 
   4  -3  -4   78.63    2.83 
  -4   3   4   82.66    2.87 
  -4   3   4   79.79    2.83 
  -3   3   4   13.16    0.51 
  -3   3   4   13.44    0.52 
  -2   3   4   11.41    0.44 
  -1   3   4    6.79    0.28 
   0   3   4    0.18    0.06 
   1   3   4   48.64    1.75 
  -2  -3  -4    4.52    0.22 
  -3  -3  -4    0.58    0.10 
  -4  -3  -4   33.04    1.23 
  -5  -3  -4   19.44    0.77 
  -6  -3  -4    2.56    0.22 
   6   3   4    2.73    0.23 
  -7  -3  -4   69.73    2.55 
   7   3   4   69.96    2.50 
  -8  -3  -4   12.62    0.59 
   8   3   4   13.61    0.58 
  -9  -3  -4    0.29    0.16 
   9   3   4    0.04    0.13 
 -10  -3  -4    4.70    0.35 
  10   3   4    4.69    0.32 
 -11  -3  -4    2.85    0.29 
 -12  -3  -4   -0.37    0.18 
  14  -4  -4    0.39    0.18 
 -14   4   4    0.20    0.19 
  13  -4  -4    3.34    0.30 
 -13   4   4    3.64    0.32 
  12  -4  -4    5.56    0.35 
 -12   4   4    5.98    0.40 
  11  -4  -4    2.36    0.23 
 -11   4   4    2.85    0.26 
  10  -4  -4    8.15    0.41 
 -10   4   4    7.84    0.42 
   9  -4  -4    1.98    0.19 
  -9   4   4    1.25    0.16 
   8  -4  -4    3.10    0.21 
  -8   4   4    3.19    0.17 
  -8   4   4    2.34    0.23 
   7  -4  -4    0.58    0.11 
  -7   4   4    0.39    0.11 
  -7   4   4    0.57    0.08 
   6  -4  -4    0.44    0.09 
  -6   4   4    0.51    0.11 
  -6   4   4    0.56    0.08 
   5  -4  -4    1.76    0.16 
  -5   4   4    1.75    0.15 
  -5   4   4    1.22    0.12 
  -4   4   4   47.32    1.71 
  -3   4   4    0.53    0.09 
  -2   4   4   71.02    2.53 
  -1   4   4    7.12    0.30 
   0   4   4    1.89    0.14 
   1   4   4    0.27    0.08 
   2   4   4   20.29    0.77 
  -3  -4  -4   22.91    0.87 
  -4  -4  -4  108.62    3.87 
  -5  -4  -4   26.83    1.03 
  -6  -4  -4   72.58    2.63 
   6   4   4   72.05    2.59 
  -7  -4  -4    0.59    0.15 
   7   4   4    0.65    0.15 
  -8  -4  -4    3.97    0.30 
   8   4   4    3.87    0.30 
  -9  -4  -4    3.37    0.29 
   9   4   4    3.60    0.31 
 -10  -4  -4    1.60    0.23 
  10   4   4    1.86    0.22 
 -11  -4  -4    0.18    0.19 
 -12  -4  -4    0.47    0.22 
 -14   5   4    0.58    0.20 
  13  -5  -4   -0.10    0.15 
 -13   5   4    0.12    0.19 
  12  -5  -4   -0.22    0.14 
 -12   5   4   -0.08    0.16 
  11  -5  -4    1.38    0.19 
 -11   5   4    1.42    0.20 
  10  -5  -4    7.41    0.39 
 -10   5   4    7.25    0.41 
   9  -5  -4    5.83    0.33 
  -9   5   4    6.08    0.36 
   8  -5  -4   13.70    0.54 
  -8   5   4   13.53    0.58 
  -8   5   4   11.65    0.50 
   7  -5  -4    4.64    0.27 
  -7   5   4    4.88    0.24 
  -7   5   4    4.57    0.28 
  -6   5   4   10.80    0.47 
  -6   5   4   11.38    0.45 
  -5   5   4    5.27    0.29 
  -5   5   4    5.97    0.27 
  -4   5   4   39.31    1.43 
  -4   5   4   38.89    1.42 
  -3   5   4   91.79    3.35 
  -3   5   4   96.59    3.33 
  -2   5   4   20.22    0.77 
  -2   5   4   19.94    0.75 
  -1   5   4    0.27    0.09 
  -1   5   4    0.22    0.08 
   0   5   4    0.23    0.06 
   0   5   4    0.58    0.08 
   1   5   4    1.86    0.14 
   2   5   4    0.31    0.09 
  -3  -5  -4   25.25    0.95 
  -4  -5  -4   29.32    1.10 
  -5  -5  -4    0.63    0.13 
  -6  -5  -4    6.91    0.37 
   6   5   4    7.13    0.39 
  -7  -5  -4    2.26    0.22 
   7   5   4    2.16    0.21 
   7   5   4    2.61    0.24 
  -8  -5  -4    1.43    0.19 
   8   5   4    1.41    0.19 
  -9  -5  -4   -0.03    0.15 
   9   5   4   -0.26    0.13 
 -10  -5  -4    0.67    0.19 
  10   5   4    0.67    0.18 
 -11  -5  -4    0.87    0.21 
 -14   6   4    0.64    0.21 
  13  -6  -4   -0.12    0.15 
 -13   6   4    0.46    0.20 
  12  -6  -4    1.10    0.19 
 -12   6   4    1.06    0.22 
  11  -6  -4    0.75    0.17 
 -11   6   4    1.00    0.19 
  10  -6  -4    2.67    0.24 
 -10   6   4    2.67    0.26 
  -9   6   4   24.84    1.00 
  -8   6   4    6.59    0.32 
  -8   6   4    6.69    0.36 
  -7   6   4   13.37    0.58 
  -7   6   4   13.68    0.55 
  -6   6   4   69.91    2.47 
  -6   6   4   68.47    2.50 
  -5   6   4    0.12    0.09 
  -5   6   4   -0.01    0.10 
  -4   6   4    0.19    0.09 
  -4   6   4    0.08    0.08 
  -3   6   4    6.52    0.30 
  -3   6   4    5.90    0.28 
  -2   6   4    6.76    0.32 
  -2   6   4    6.49    0.29 
  -1   6   4    5.60    0.28 
  -1   6   4    5.04    0.24 
   0   6   4    0.03    0.07 
   0   6   4    0.01    0.07 
   1   6   4    2.55    0.21 
   1   6   4    2.76    0.17 
   2   6   4    0.51    0.10 
   2   6   4    0.46    0.12 
  -3  -6  -4    4.22    0.25 
   3   6   4    4.34    0.24 
   3   6   4    4.24    0.26 
  -4  -6  -4   10.10    0.44 
   4   6   4    9.57    0.45 
  -5  -6  -4   20.31    0.80 
   5   6   4   20.27    0.81 
  -6  -6  -4    0.23    0.13 
   6   6   4   -0.13    0.12 
  -7  -6  -4    8.18    0.42 
   7   6   4    7.99    0.41 
   7   6   4    8.06    0.44 
  -8  -6  -4    1.22    0.19 
   8   6   4    1.11    0.19 
  -9  -6  -4    0.31    0.16 
   9   6   4    0.39    0.17 
  10   6   4    0.17    0.16 
 -14   7   4    1.12    0.23 
 -13   7   4    0.80    0.21 
 -12   7   4   10.69    0.55 
 -11   7   4   10.79    0.55 
 -10   7   4    8.37    0.44 
  -9   7   4    3.37    0.24 
  -9   7   4    3.23    0.27 
  -8   7   4    0.01    0.10 
  -8   7   4   -0.32    0.13 
  -7   7   4    2.22    0.20 
  -7   7   4    1.84    0.18 
  -6   7   4   55.02    1.99 
  -6   7   4   54.79    2.01 
  -5   7   4   24.50    0.94 
  -5   7   4   24.45    0.94 
  -4   7   4    9.01    0.41 
  -4   7   4    8.85    0.39 
  -3   7   4   -0.06    0.08 
  -3   7   4   -0.01    0.09 
  -2   7   4    3.64    0.20 
  -2   7   4    3.70    0.24 
  -1   7   4   30.73    1.06 
  -1   7   4   26.61    1.08 
   0   7   4   -0.01    0.07 
   0   7   4    0.05    0.10 
   1   7   4   17.37    0.70 
   1   7   4   17.40    0.67 
   2   7   4    4.52    0.29 
   2   7   4    4.04    0.24 
   3   7   4   -0.07    0.11 
   3   7   4    0.00    0.10 
  -4  -7  -4    6.19    0.33 
   4   7   4    6.39    0.34 
   4   7   4    6.34    0.36 
  -5  -7  -4    1.07    0.15 
   5   7   4    0.49    0.16 
  -6  -7  -4    0.31    0.13 
   6   7   4    0.01    0.13 
   7   7   4    0.54    0.18 
   7   7   4    0.64    0.15 
   8   7   4    1.04    0.20 
   9   7   4    4.64    0.37 
  10   7   4    0.91    0.22 
 -14   8   4    1.82    0.27 
 -13   8   4    0.49    0.20 
 -12   8   4    0.18    0.17 
 -11   8   4   -0.20    0.15 
 -10   8   4   10.58    0.52 
  -9   8   4    2.47    0.24 
  -9   8   4    2.72    0.22 
  -8   8   4    0.15    0.13 
  -8   8   4   -0.11    0.10 
  -7   8   4    1.95    0.19 
  -7   8   4    1.87    0.18 
  -6   8   4    0.14    0.11 
  -6   8   4    0.10    0.12 
  -5   8   4    2.26    0.20 
  -5   8   4    2.05    0.19 
  -4   8   4   61.25    2.18 
  -4   8   4   58.48    2.16 
  -3   8   4   18.76    0.73 
  -3   8   4   18.97    0.76 
  -2   8   4    7.28    0.38 
  -2   8   4    7.62    0.33 
  -1   8   4    0.31    0.09 
   0   8   4    2.60    0.18 
   0   8   4    2.46    0.23 
   1   8   4    1.31    0.17 
   1   8   4    1.34    0.13 
   2   8   4   -0.06    0.09 
   2   8   4   -0.09    0.12 
   3   8   4   28.04    1.09 
   3   8   4   28.18    1.06 
   4   8   4    0.12    0.12 
   4   8   4   -0.09    0.13 
   5   8   4   19.13    0.80 
   6   8   4    4.27    0.31 
   7   8   4    0.13    0.16 
   7   8   4    0.00    0.13 
   8   8   4    1.44    0.24 
   9   8   4    0.32    0.20 
 -13   9   4    0.07    0.20 
 -12   9   4    1.55    0.24 
 -11   9   4    1.04    0.21 
 -10   9   4    0.70    0.16 
  -9   9   4    6.76    0.37 
  -9   9   4    6.79    0.39 
  -8   9   4    0.22    0.14 
  -8   9   4    0.10    0.12 
  -7   9   4    4.04    0.28 
  -7   9   4    3.55    0.27 
  -6   9   4    5.03    0.31 
  -6   9   4    4.08    0.28 
  -5   9   4    2.37    0.22 
  -5   9   4    1.98    0.20 
  -4   9   4    8.16    0.38 
  -4   9   4    8.54    0.41 
  -3   9   4    0.85    0.15 
  -3   9   4    0.72    0.12 
  -2   9   4    1.86    0.17 
  -2   9   4    1.34    0.16 
   0   9   4   -0.03    0.09 
   0   9   4   -0.10    0.11 
   1   9   4   -0.04    0.13 
   2   9   4   14.38    0.64 
   3   9   4    3.41    0.30 
   4   9   4    0.48    0.17 
   5   9   4    0.57    0.16 
   6   9   4    0.04    0.14 
   7   9   4    1.05    0.21 
   8   9   4    0.70    0.20 
 -13  10   4    0.17    0.19 
 -12  10   4    3.62    0.34 
 -11  10   4    0.32    0.18 
 -10  10   4    2.16    0.24 
  -9  10   4    0.14    0.14 
  -9  10   4    0.06    0.13 
  -8  10   4    4.15    0.29 
  -8  10   4    3.84    0.29 
  -7  10   4    1.62    0.20 
  -7  10   4    2.05    0.21 
  -6  10   4   -0.12    0.14 
  -6  10   4   -0.26    0.12 
  -5  10   4    0.62    0.17 
  -5  10   4    0.79    0.14 
  -4  10   4    0.73    0.13 
  -4  10   4    0.55    0.15 
  -3  10   4    0.92    0.17 
  -3  10   4    1.19    0.14 
  -2  10   4    3.06    0.26 
  -1  10   4    6.58    0.37 
   0  10   4    1.58    0.21 
   1  10   4   10.16    0.50 
   2  10   4    2.54    0.25 
   3  10   4    1.14    0.19 
   4  10   4    0.28    0.16 
   5  10   4    0.36    0.16 
   6  10   4   -0.18    0.14 
   7  10   4    0.74    0.21 
   8  10   4    0.48    0.22 
 -12  11   4    0.17    0.20 
 -11  11   4    0.48    0.19 
 -10  11   4    1.58    0.22 
  -9  11   4    0.00    0.13 
  -9  11   4    0.06    0.14 
  -8  11   4    2.04    0.21 
  -8  11   4    1.84    0.21 
  -7  11   4    0.20    0.14 
  -7  11   4    0.06    0.14 
  -6  11   4    3.40    0.30 
  -6  11   4    3.49    0.27 
  -5  11   4    8.68    0.40 
  -5  11   4    8.08    0.44 
  -4  11   4    1.73    0.22 
  -3  11   4    1.00    0.18 
  -2  11   4    0.44    0.15 
  -1  11   4    8.84    0.46 
   0  11   4    0.12    0.15 
   1  11   4   12.55    0.59 
   2  11   4    0.05    0.15 
   3  11   4    0.36    0.17 
   4  11   4    0.11    0.15 
   5  11   4   -0.05    0.16 
   6  11   4    1.71    0.24 
   7  11   4    0.40    0.22 
 -12  12   4    0.08    0.20 
 -11  12   4    0.21    0.19 
 -10  12   4   -0.07    0.16 
  -9  12   4    0.53    0.17 
  -9  12   4    0.43    0.16 
  -8  12   4    0.92    0.18 
  -7  12   4    0.02    0.14 
  -6  12   4    0.36    0.16 
  -5  12   4    0.81    0.17 
  -4  12   4   -0.19    0.14 
  -3  12   4    5.78    0.37 
  -2  12   4    1.26    0.20 
  -1  12   4    2.33    0.26 
   0  12   4    7.61    0.44 
   1  12   4    1.00    0.20 
   2  12   4    0.68    0.19 
   3  12   4    1.89    0.25 
   4  12   4    2.33    0.27 
   5  12   4    0.13    0.18 
  -9  13   4    5.34    0.38 
  -8  13   4    0.10    0.15 
  -7  13   4    0.12    0.16 
  -6  13   4    3.94    0.31 
  -5  13   4    5.64    0.39 
  -4  13   4    0.50    0.17 
  -3  13   4    0.51    0.18 
  -2  13   4   -0.01    0.15 
  -1  13   4   -0.02    0.15 
   0  13   4   -0.12    0.16 
   1  13   4    0.30    0.19 
   2  13   4    0.32    0.17 
   3  13   4    0.48    0.20 
   4  13   4    0.70    0.21 
 -10  14   4   -0.11    0.17 
  -9  14   4    0.04    0.17 
  -8  14   4    1.33    0.23 
  -7  14   4    4.87    0.38 
  -6  14   4    0.09    0.17 
  -5  14   4    1.50    0.24 
  -4  14   4    1.23    0.22 
  -3  14   4    0.36    0.18 
  -2  14   4    1.38    0.22 
  -1  14   4    0.16    0.17 
   0  14   4    0.20    0.19 
   1  14   4   -0.08    0.16 
   2  14   4    0.93    0.23 
   3  14   4    0.47    0.21 
  -8  15   4    0.67    0.21 
  -7  15   4    0.06    0.18 
  -6  15   4    1.20    0.23 
  -5  15   4    0.03    0.19 
  -4  15   4    1.01    0.23 
  -3  15   4    0.71    0.22 
  -2  15   4    1.40    0.26 
  -1  15   4    0.91    0.23 
   0  15   4   -0.20    0.17 
   1  15   4    0.17    0.20 
  -4  16   4    0.59    0.23 
  -3  17  -5    1.16    0.25 
   2  16  -5    0.24    0.20 
   1  16  -5    0.15    0.20 
   0  16  -5    0.28    0.21 
  -1  16  -5    0.20    0.20 
  -2  16  -5    0.23    0.18 
  -3  16  -5   -0.15    0.18 
  -4  16  -5   -0.01    0.17 
  -5  16  -5    0.46    0.19 
  -6  16  -5    0.54    0.21 
  -7  16  -5    1.55    0.26 
   4  15  -5    0.28    0.19 
   4  15  -5   -0.14    0.17 
   3  15  -5    0.02    0.18 
   3  15  -5   -0.12    0.15 
   2  15  -5   -0.05    0.17 
   1  15  -5    7.30    0.46 
   0  15  -5    1.84    0.25 
  -1  15  -5    8.46    0.49 
  -2  15  -5   -0.17    0.15 
  -3  15  -5    1.48    0.23 
  -4  15  -5    0.38    0.19 
  -5  15  -5    0.06    0.16 
  -6  15  -5    0.17    0.18 
  -7  15  -5    1.18    0.22 
  -8  15  -5   -0.06    0.17 
  -9  15  -5    0.13    0.18 
   5  14  -5   -0.10    0.18 
   4  14  -5    0.37    0.18 
   4  14  -5    0.73    0.20 
   3  14  -5   -0.04    0.18 
   3  14  -5   -0.01    0.16 
   2  14  -5    0.13    0.16 
   1  14  -5   -0.22    0.16 
   0  14  -5    0.00    0.17 
  -1  14  -5    0.44    0.18 
  -2  14  -5    6.71    0.42 
  -3  14  -5    3.68    0.31 
  -4  14  -5    1.10    0.19 
  -5  14  -5    1.02    0.19 
  -6  14  -5    0.73    0.18 
  -7  14  -5    3.42    0.33 
  -8  14  -5    1.21    0.22 
  -9  14  -5    1.94    0.26 
 -10  14  -5    1.71    0.25 
   6  13  -5   -0.24    0.15 
   5  13  -5    0.58    0.19 
   5  13  -5    0.48    0.18 
   4  13  -5    3.08    0.30 
   4  13  -5    3.38    0.31 
   3  13  -5    3.91    0.33 
   3  13  -5    3.85    0.33 
   2  13  -5    0.26    0.17 
   1  13  -5    1.03    0.20 
   0  13  -5    0.55    0.18 
  -1  13  -5    1.26    0.21 
  -2  13  -5    1.03    0.19 
  -3  13  -5    2.24    0.23 
  -4  13  -5    4.70    0.33 
  -5  13  -5   -0.10    0.14 
  -6  13  -5    1.07    0.19 
  -7  13  -5    0.28    0.15 
  -8  13  -5    1.54    0.22 
  -9  13  -5   -0.08    0.16 
 -10  13  -5    0.18    0.17 
   8  12  -5    0.14    0.19 
   7  12  -5   -0.32    0.14 
   5  12  -5    0.00    0.13 
   5  12  -5   -0.04    0.14 
   4  12  -5    1.34    0.21 
   4  12  -5    1.17    0.19 
   3  12  -5    4.71    0.36 
   3  12  -5    4.99    0.34 
   2  12  -5    1.02    0.18 
   1  12  -5   14.60    0.66 
   0  12  -5    0.61    0.16 
  -1  12  -5   23.64    0.97 
  -2  12  -5    0.66    0.16 
  -3  12  -5    0.13    0.14 
  -4  12  -5    2.74    0.26 
  -5  12  -5    6.82    0.41 
  -6  12  -5    6.61    0.40 
  -7  12  -5    5.76    0.38 
  -8  12  -5    0.34    0.16 
  -9  12  -5    0.31    0.17 
 -10  12  -5   -0.05    0.15 
 -10  12  -5   -0.15    0.15 
 -11  12  -5    3.70    0.35 
   8  11  -5    0.31    0.18 
   7  11  -5    1.61    0.24 
   6  11  -5    0.74    0.18 
   5  11  -5    0.19    0.14 
   5  11  -5   -0.10    0.12 
   4  11  -5    2.43    0.22 
   4  11  -5    2.37    0.25 
   3  11  -5   -0.22    0.15 
   3  11  -5   -0.15    0.12 
   2  11  -5    7.58    0.40 
   1  11  -5   10.30    0.49 
   0  11  -5   20.19    0.83 
  -1  11  -5    3.50    0.28 
  -2  11  -5   32.73    1.27 
  -3  11  -5    0.18    0.14 
  -4  11  -5   10.59    0.51 
  -5  11  -5   11.37    0.54 
  -6  11  -5    4.75    0.29 
  -6  11  -5    5.06    0.34 
  -7  11  -5   11.79    0.54 
  -7  11  -5   12.02    0.57 
  -8  11  -5    3.09    0.27 
  -8  11  -5    3.38    0.29 
  -9  11  -5    0.21    0.14 
  -9  11  -5    0.20    0.15 
 -10  11  -5    1.61    0.22 
 -10  11  -5    1.43    0.21 
 -11  11  -5    0.60    0.20 
 -12  11  -5   -0.12    0.19 
   9  10  -5    0.13    0.19 
   8  10  -5    3.62    0.32 
   7  10  -5   -0.24    0.14 
   6  10  -5    0.05    0.14 
   5  10  -5    0.67    0.17 
   5  10  -5    0.64    0.14 
   4  10  -5    3.81    0.28 
   4  10  -5    4.42    0.31 
   3  10  -5    6.53    0.36 
   3  10  -5    6.36    0.38 
   2  10  -5   14.61    0.63 
   1  10  -5   18.01    0.74 
   0  10  -5    0.12    0.12 
  -1  10  -5   14.71    0.63 
  -2  10  -5   -0.01    0.02 
  -3  10  -5   28.11    1.09 
  -4  10  -5   11.96    0.55 
  -4  10  -5   11.60    0.48 
  -5  10  -5    5.45    0.30 
  -5  10  -5    5.82    0.35 
  -6  10  -5    5.48    0.31 
  -6  10  -5    5.06    0.34 
  -7  10  -5    0.15    0.12 
  -7  10  -5   -0.07    0.11 
  -8  10  -5    4.35    0.31 
  -8  10  -5    4.31    0.31 
  -9  10  -5    1.71    0.21 
  -9  10  -5    1.99    0.21 
 -10  10  -5   -0.07    0.14 
 -10  10  -5   -0.04    0.14 
 -11  10  -5    1.19    0.22 
 -12  10  -5   -0.09    0.18 
  10   9  -5    0.91    0.22 
   9   9  -5    2.29    0.28 
   8   9  -5    0.07    0.15 
   7   9  -5    0.21    0.15 
   6   9  -5    4.08    0.27 
   6   9  -5    4.50    0.33 
   5   9  -5    8.36    0.45 
   5   9  -5    8.40    0.40 
   4   9  -5    4.85    0.34 
   4   9  -5    4.84    0.29 
   3   9  -5    0.10    0.11 
   3   9  -5    0.07    0.14 
   2   9  -5   13.57    0.58 
   1   9  -5    0.20    0.11 
   0   9  -5    1.69    0.18 
  -1   9  -5   15.56    0.65 
  -3   9  -5   14.28    0.62 
  -3   9  -5   15.17    0.57 
  -4   9  -5   22.03    0.84 
  -4   9  -5   22.58    0.89 
  -5   9  -5   13.27    0.59 
  -5   9  -5   13.80    0.56 
  -6   9  -5    5.55    0.30 
  -6   9  -5    5.73    0.34 
  -7   9  -5   17.90    0.75 
  -7   9  -5   18.21    0.74 
  -8   9  -5    8.62    0.44 
  -8   9  -5    8.61    0.44 
  -9   9  -5    0.04    0.14 
  -9   9  -5   -0.02    0.13 
 -10   9  -5    0.71    0.16 
 -10   9  -5    0.42    0.17 
 -11   9  -5    3.87    0.33 
 -12   9  -5    1.57    0.24 
 -13   9  -5    0.97    0.23 
  11   8  -5    0.22    0.21 
  10   8  -5    1.09    0.22 
   9   8  -5    0.90    0.21 
   8   8  -5    0.03    0.14 
   7   8  -5    1.82    0.23 
   6   8  -5    0.01    0.13 
   6   8  -5   -0.13    0.10 
   5   8  -5    3.45    0.27 
   5   8  -5    3.19    0.23 
   4   8  -5   35.66    1.32 
   4   8  -5   34.06    1.29 
   3   8  -5    0.69    0.15 
   3   8  -5    0.99    0.13 
   2   8  -5    4.98    0.28 
   1   8  -5   17.06    0.69 
   0   8  -5    0.43    0.11 
  -1   8  -5    2.40    0.19 
   1  -8   5    2.18    0.12 
  -2   8  -5    0.65    0.07 
  -2   8  -5    0.37    0.08 
  -3   8  -5    0.40    0.08 
  -3   8  -5    0.43    0.11 
  -4   8  -5   13.48    0.58 
  -4   8  -5   13.59    0.54 
  -5   8  -5    2.28    0.19 
  -5   8  -5    2.19    0.20 
  -6   8  -5    0.24    0.11 
  -6   8  -5    0.18    0.11 
  -7   8  -5    5.94    0.34 
  -7   8  -5    6.37    0.35 
  -8   8  -5   33.24    1.27 
  -8   8  -5   33.52    1.29 
  -9   8  -5    4.73    0.30 
  -9   8  -5    4.71    0.31 
 -10   8  -5    1.93    0.21 
 -10   8  -5    2.07    0.23 
 -11   8  -5    0.62    0.19 
 -12   8  -5    3.65    0.32 
 -13   8  -5    0.31    0.20 
  11   7  -5    0.81    0.21 
  10   7  -5    0.26    0.16 
   9   7  -5    0.28    0.17 
   8   7  -5    2.45    0.25 
   7   7  -5   13.11    0.61 
   6   7  -5    0.01    0.08 
   6   7  -5   -0.24    0.11 
   5   7  -5   16.96    0.66 
   4   7  -5    1.06    0.15 
   4   7  -5    1.04    0.12 
  -4  -7   5    0.93    0.09 
   3   7  -5    0.19    0.09 
   3   7  -5    0.24    0.11 
  -3  -7   5    0.40    0.06 
   2   7  -5   96.72    3.44 
   2   7  -5   97.89    3.45 
   1   7  -5    2.70    0.20 
   0   7  -5   31.15    1.14 
   0  -7   5   30.09    1.08 
  -1   7  -5   14.50    0.59 
   1  -7   5   14.75    0.54 
  -2   7  -5    6.72    0.33 
  -2   7  -5    7.01    0.29 
  -3   7  -5   80.58    2.87 
  -3   7  -5   81.03    2.89 
  -4   7  -5   37.36    1.39 
  -4   7  -5   37.91    1.38 
  -5   7  -5   44.97    1.66 
  -5   7  -5   46.06    1.67 
  -6   7  -5    0.33    0.11 
  -6   7  -5    0.21    0.11 
  -7   7  -5    5.15    0.30 
  -7   7  -5    5.18    0.30 
  -8   7  -5    0.16    0.15 
  -8   7  -5    0.01    0.12 
  -9   7  -5    0.45    0.16 
  -9   7  -5    0.46    0.14 
 -10   7  -5    5.26    0.34 
 -11   7  -5    1.26    0.22 
 -12   7  -5    0.19    0.19 
  12   6  -5    2.63    0.30 
  11   6  -5    0.28    0.19 
  10   6  -5    0.93    0.19 
   9   6  -5    7.52    0.43 
  -9  -6   5    8.16    0.41 
   8   6  -5    0.27    0.14 
  -8  -6   5    0.28    0.13 
   7   6  -5    0.40    0.15 
  -7  -6   5    0.27    0.12 
   6   6  -5    8.67    0.38 
  -6  -6   5    9.53    0.40 
   4   6  -5   12.62    0.54 
   4   6  -5   12.64    0.51 
  -4  -6   5   12.79    0.49 
   3   6  -5   14.23    0.56 
   3   6  -5   14.07    0.57 
  -3  -6   5   13.98    0.53 
   2   6  -5  118.26    4.11 
   2   6  -5  113.72    4.09 
  -2  -6   5  117.17    4.09 
   1   6  -5    0.60    0.09 
  -1  -6   5    0.63    0.05 
   0   6  -5    0.04    0.07 
   0  -6   5    0.04    0.04 
  -1   6  -5    0.42    0.08 
  -1   6  -5    0.62    0.06 
  -2   6  -5    9.44    0.40 
  -2   6  -5    8.96    0.37 
  -3   6  -5    0.94    0.10 
  -3   6  -5    0.90    0.11 
  -4   6  -5   21.15    0.81 
  -4   6  -5   20.97    0.80 
  -5   6  -5   40.56    1.50 
  -5   6  -5   41.31    1.50 
  -6   6  -5    4.33    0.26 
  -6   6  -5    4.14    0.24 
  -7   6  -5    0.62    0.13 
  -7   6  -5    0.69    0.15 
  -8   6  -5   32.38    1.27 
  -8   6  -5   33.58    1.24 
  -9   6  -5    0.57    0.13 
  -9   6  -5    0.56    0.17 
 -10   6  -5    5.78    0.36 
 -11   6  -5    6.03    0.40 
 -12   6  -5    2.25    0.27 
 -13   6  -5    1.24    0.25 
  12   5  -5    0.89    0.22 
  11   5  -5    2.21    0.26 
 -11  -5   5    2.28    0.25 
  10   5  -5    0.25    0.16 
 -10  -5   5    0.41    0.16 
   9   5  -5    0.57    0.17 
  -9  -5   5    0.50    0.15 
   8   5  -5    2.23    0.23 
  -8  -5   5    2.39    0.22 
   7   5  -5   36.82    1.38 
  -7  -5   5   36.05    1.36 
   6   5  -5    0.97    0.10 
  -6  -5   5    0.87    0.12 
   5   5  -5    5.74    0.25 
  -5  -5   5    4.56    0.24 
   4   5  -5    3.64    0.24 
   4   5  -5    3.41    0.19 
  -4  -5   5    3.35    0.19 
   3   5  -5   26.00    0.97 
   3   5  -5   26.69    0.99 
  -3  -5   5   26.62    0.96 
   2   5  -5   51.89    1.85 
   2   5  -5   50.90    1.85 
  -2  -5   5   52.95    1.84 
   1   5  -5   27.07    0.99 
  -1  -5   5   26.81    0.96 
   0   5  -5    0.07    0.07 
   0  -5   5    0.09    0.05 
  -1   5  -5   10.32    0.40 
  -2   5  -5    0.20    0.07 
  -2   5  -5    0.12    0.08 
  -3   5  -5    4.93    0.25 
  -3   5  -5    4.87    0.24 
  -4   5  -5   -0.14    0.07 
  -4   5  -5   -0.11    0.07 
  -5   5  -5    1.71    0.17 
  -5   5  -5    2.09    0.17 
  -6   5  -5   43.43    1.61 
  -6   5  -5   43.82    1.59 
  -7   5  -5    9.36    0.42 
  -7   5  -5    9.33    0.45 
  -8   5  -5    7.86    0.40 
  -8   5  -5    7.03    0.35 
  -9   5  -5    2.60    0.25 
  -9   5  -5    2.70    0.21 
 -10   5  -5    0.02    0.15 
 -11   5  -5   -0.08    0.17 
 -12   5  -5    0.69    0.21 
 -13   5  -5    0.01    0.20 
  13   4  -5    2.26    0.28 
 -13  -4   5    2.01    0.27 
  12   4  -5    2.13    0.26 
 -12  -4   5    1.88    0.25 
  11   4  -5    3.45    0.29 
 -11  -4   5    2.76    0.27 
  10   4  -5    0.02    0.14 
 -10  -4   5   -0.19    0.13 
   9   4  -5    0.43    0.16 
  -9  -4   5    0.39    0.15 
   8   4  -5    1.57    0.19 
  -8  -4   5    1.35    0.18 
   7   4  -5   14.30    0.62 
  -7  -4   5   14.12    0.59 
   6   4  -5    4.57    0.21 
  -6  -4   5    4.69    0.25 
   5   4  -5   69.59    2.43 
  -5  -4   5   68.10    2.46 
   4   4  -5   13.40    0.51 
   4   4  -5   13.36    0.54 
  -4  -4   5   13.10    0.51 
   3   4  -5   58.62    2.11 
   3   4  -5   60.47    2.12 
  -3  -4   5   59.77    2.12 
   2   4  -5    4.36    0.23 
  -2  -4   5    4.81    0.21 
   1   4  -5    0.02    0.06 
   1   4  -5    0.05    0.06 
  -1  -4   5    0.07    0.05 
   0   4  -5   -0.07    0.05 
   0   4  -5    0.04    0.05 
   0  -4   5   -0.03    0.05 
  -1   4  -5    0.65    0.07 
  -2   4  -5   51.58    1.85 
  -3   4  -5    2.49    0.17 
  -3   4  -5    2.27    0.17 
  -4   4  -5   14.95    0.58 
  -4   4  -5   14.63    0.59 
  -5   4  -5    5.41    0.26 
  -5   4  -5    5.38    0.28 
  -6   4  -5   14.20    0.56 
  -6   4  -5   13.71    0.58 
  -7   4  -5    1.43    0.14 
  -7   4  -5    1.41    0.17 
   7  -4   5    1.39    0.12 
  -8   4  -5    2.10    0.18 
  -8   4  -5    2.64    0.24 
  -9   4  -5    3.10    0.22 
  -9   4  -5    2.94    0.28 
 -10   4  -5    0.36    0.17 
 -11   4  -5    8.93    0.49 
 -12   4  -5    2.15    0.27 
 -13   4  -5    0.03    0.19 
  13   3  -5    0.27    0.19 
 -13  -3   5   -0.17    0.17 
  12   3  -5    0.14    0.17 
 -12  -3   5   -0.11    0.15 
  11   3  -5    0.09    0.13 
 -11  -3   5    0.11    0.15 
  10   3  -5    0.13    0.13 
 -10  -3   5   -0.10    0.14 
   9   3  -5    1.76    0.20 
  -9  -3   5    1.62    0.20 
   8   3  -5   32.75    1.24 
  -8  -3   5   32.16    1.23 
   7   3  -5    3.36    0.24 
  -7  -3   5    3.37    0.24 
   6   3  -5    4.35    0.25 
   6   3  -5    4.51    0.18 
  -6  -3   5    4.20    0.25 
   5   3  -5   41.35    1.46 
  -5  -3   5   41.13    1.50 
   4   3  -5    5.07    0.21 
   4   3  -5    5.29    0.25 
  -4  -3   5    3.86    0.22 
   3   3  -5   83.83    2.93 
   3   3  -5   82.78    2.93 
  -3  -3   5   83.34    2.95 
   2   3  -5   21.95    0.86 
   2   3  -5   24.43    0.86 
  -2  -3   5   24.52    0.86 
   1   3  -5   21.75    0.80 
   1   3  -5   22.39    0.81 
  -1  -3   5   21.89    0.80 
   0   3  -5  195.55    6.66 
   0   3  -5  190.08    6.66 
   0  -3   5  186.13    6.75 
  -1   3  -5   17.32    0.61 
  -1   3  -5   16.90    0.63 
  -2   3  -5    7.04    0.26 
  -2   3  -5    7.46    0.31 
  -3   3  -5   35.97    1.31 
  -4   3  -5  155.68    5.45 
  -4   3  -5  155.20    5.50 
  -5   3  -5   -0.02    0.08 
  -5   3  -5   -0.01    0.06 
   5  -3   5    0.03    0.04 
  -6   3  -5    1.20    0.13 
  -6   3  -5    1.25    0.14 
   6  -3   5    1.23    0.10 
  -7   3  -5   20.11    0.79 
   7  -3   5   21.29    0.76 
  -8   3  -5   31.95    1.19 
  -9   3  -5    3.81    0.24 
  -9   3  -5    3.51    0.30 
 -10   3  -5   -0.33    0.14 
 -11   3  -5    0.06    0.16 
 -12   3  -5    0.45    0.19 
 -13   3  -5    0.10    0.19 
  13   2  -5    0.48    0.18 
 -13  -2   5    0.24    0.19 
  12   2  -5    0.10    0.15 
 -12  -2   5    0.20    0.17 
  11   2  -5    0.41    0.15 
 -11  -2   5    0.27    0.16 
  10   2  -5    6.89    0.40 
 -10  -2   5    7.30    0.40 
   9   2  -5   20.63    0.85 
  -9  -2   5   21.40    0.86 
   8   2  -5    0.09    0.12 
  -8  -2   5    0.02    0.11 
   7   2  -5   15.15    0.63 
  -7  -2   5   16.00    0.63 
   6   2  -5    5.99    0.31 
  -6  -2   5    6.51    0.31 
   5   2  -5   44.75    1.58 
  -5  -2   5   45.17    1.63 
   4   2  -5   13.21    0.52 
   4   2  -5   12.85    0.48 
   3   2  -5    4.09    0.18 
  -3  -2   5    4.30    0.21 
   2   2  -5    3.52    0.16 
   2   2  -5    3.18    0.18 
  -2  -2   5    3.44    0.17 
   1   2  -5   -0.03    0.05 
   1   2  -5   -0.01    0.04 
  -1  -2   5    0.07    0.05 
   0   2  -5    0.45    0.07 
   0   2  -5    0.35    0.05 
   0  -2   5    0.28    0.06 
  -1   2  -5   43.94    1.53 
  -1   2  -5   44.24    1.58 
  -2   2  -5    7.49    0.31 
  -2   2  -5    7.00    0.30 
  -3   2  -5   13.94    0.55 
  -4   2  -5    2.07    0.17 
   4  -2   5    1.79    0.09 
  -5   2  -5    3.84    0.21 
   5  -2   5    3.78    0.16 
  -6   2  -5   14.40    0.57 
   6  -2   5   14.36    0.53 
  -7   2  -5   16.33    0.65 
   7  -2   5   16.83    0.62 
  -8   2  -5    2.54    0.23 
  -8   2  -5    3.46    0.21 
   8  -2   5    3.27    0.19 
  -9   2  -5   -0.10    0.13 
 -10   2  -5    0.15    0.15 
 -11   2  -5    6.53    0.43 
 -12   2  -5    6.22    0.41 
 -13   2  -5    0.22    0.21 
  14   1  -5    0.06    0.18 
 -14  -1   5    0.27    0.21 
  13   1  -5    0.39    0.18 
 -13  -1   5    0.69    0.22 
  12   1  -5    0.93    0.19 
 -12  -1   5    1.23    0.22 
  11   1  -5    0.94    0.18 
 -11  -1   5    1.11    0.20 
  10   1  -5   11.32    0.54 
 -10  -1   5   11.72    0.55 
   9   1  -5    5.62    0.33 
  -9  -1   5    6.04    0.34 
   8   1  -5    2.40    0.21 
  -8  -1   5    2.17    0.20 
   7   1  -5    8.56    0.40 
  -7  -1   5    8.78    0.41 
   6   1  -5    0.06    0.09 
  -6  -1   5    0.03    0.08 
   5   1  -5    2.20    0.16 
   4   1  -5    6.27    0.24 
   3   1  -5   30.25    1.07 
  -3  -1   5   30.10    1.10 
   2   1  -5   -0.03    0.05 
   2   1  -5    0.04    0.04 
  -2  -1   5   -0.05    0.05 
   1   1  -5   98.33    3.45 
   1   1  -5   99.63    3.47 
  -1  -1   5   99.35    3.50 
   0   1  -5   78.49    2.73 
   0  -1   5   78.53    2.78 
  -1   1  -5   70.64    2.55 
  -1   1  -5   73.00    2.53 
  -2   1  -5    0.34    0.06 
  -3   1  -5    0.05    0.05 
  -3   1  -5   -0.03    0.01 
   3  -1   5   -0.03    0.03 
  -4   1  -5   29.45    1.07 
   4  -1   5   27.56    1.00 
  -5   1  -5   24.40    0.93 
  -5   1  -5   24.01    0.89 
   5  -1   5   23.94    0.86 
  -6   1  -5   61.99    2.23 
  -6   1  -5   60.49    2.18 
   6  -1   5   60.90    2.15 
  -7   1  -5    0.11    0.09 
  -7   1  -5    0.13    0.12 
   7  -1   5    0.05    0.07 
  -8   1  -5    4.44    0.32 
  -8   1  -5    4.91    0.26 
   8  -1   5    4.30    0.24 
  -9   1  -5    0.14    0.14 
 -10   1  -5    2.79    0.27 
 -11   1  -5    0.47    0.17 
 -12   1  -5    0.96    0.21 
 -13   1  -5    0.19    0.20 
  14   0  -5    1.24    0.22 
 -14   0   5    0.76    0.23 
  13   0  -5    3.57    0.33 
 -13   0   5    3.65    0.33 
  12   0  -5    0.11    0.14 
 -12   0   5    0.08    0.17 
  11   0  -5   16.89    0.72 
 -11   0   5   16.43    0.74 
  10   0  -5    0.85    0.17 
 -10   0   5    0.65    0.18 
   9   0  -5    6.53    0.35 
  -9   0   5    5.83    0.34 
   8   0  -5   34.74    1.31 
  -8   0   5   35.66    1.34 
   7   0  -5    0.30    0.10 
  -7   0   5    0.46    0.11 
   6   0  -5   41.44    1.51 
  -6   0   5   41.84    1.53 
   5   0  -5   35.14    1.33 
  -5   0   5   38.58    1.36 
   3   0  -5   63.80    2.20 
  -3   0   5   61.42    2.23 
   2   0  -5    1.63    0.11 
   2   0  -5    1.78    0.11 
  -2   0   5    1.87    0.12 
   1   0  -5    2.70    0.14 
   1   0  -5    2.70    0.14 
  -1   0   5    2.62    0.16 
   0   0  -5    0.01    0.02 
   0   0   5   -0.04    0.05 
  -1   0  -5   44.32    1.82 
  -1   0  -5   57.64    1.81 
  -2   0  -5    9.26    0.37 
  -3   0  -5    5.05    0.25 
  -4   0  -5  178.34    6.20 
   4   0   5  172.02    6.08 
  -5   0  -5    1.11    0.13 
  -5   0  -5    1.15    0.11 
   5   0   5    1.24    0.10 
  -6   0  -5    0.88    0.14 
  -6   0  -5    0.75    0.11 
   6   0   5    0.91    0.10 
  -7   0  -5   32.84    1.20 
  -7   0  -5   31.74    1.24 
   7   0   5   32.74    1.18 
  -8   0  -5   18.95    0.80 
   8   0   5   19.42    0.74 
  -9   0  -5    3.83    0.31 
 -10   0  -5    5.04    0.34 
 -11   0  -5    2.37    0.27 
 -12   0  -5    0.87    0.22 
 -13   0  -5    0.41    0.21 
  14  -1  -5    0.77    0.20 
 -14   1   5    1.55    0.26 
  13  -1  -5    0.10    0.16 
 -13   1   5    0.11    0.18 
  12  -1  -5    3.48    0.30 
 -12   1   5    3.14    0.30 
  11  -1  -5    5.96    0.37 
 -11   1   5    6.26    0.39 
  10  -1  -5   12.30    0.57 
 -10   1   5   12.62    0.58 
   9  -1  -5    0.00    0.12 
  -9   1   5    0.06    0.13 
   8  -1  -5    0.28    0.12 
  -8   1   5    0.26    0.12 
   7  -1  -5    2.47    0.19 
  -7   1   5    2.31    0.20 
   6  -1  -5   13.51    0.56 
  -6   1   5   13.70    0.49 
  -6   1   5   14.20    0.56 
   5  -1  -5   19.25    0.74 
  -5   1   5   19.50    0.69 
  -5   1   5   19.23    0.74 
  -3   1   5    0.00    0.02 
   2  -1  -5  311.92   10.83 
   0   1   5   12.65    0.49 
  -1  -1  -5    0.32    0.07 
  -1  -1  -5    0.36    0.06 
   1   1   5    0.32    0.07 
  -3  -1  -5   68.56    2.46 
  -4  -1  -5  134.13    4.76 
  -5  -1  -5    7.37    0.36 
   5   1   5    7.27    0.32 
  -6  -1  -5   38.85    1.43 
   6   1   5   37.51    1.38 
  -7  -1  -5    7.69    0.40 
   7   1   5    8.50    0.37 
  -8  -1  -5    2.53    0.23 
   8   1   5    2.01    0.19 
  -9  -1  -5    0.37    0.16 
   9   1   5    0.45    0.12 
 -10  -1  -5    0.15    0.15 
 -11  -1  -5    1.28    0.22 
 -12  -1  -5    0.21    0.20 
  14  -2  -5    0.08    0.17 
 -14   2   5    0.27    0.19 
  13  -2  -5   -0.26    0.15 
 -13   2   5    0.21    0.18 
  12  -2  -5    0.83    0.18 
 -12   2   5    0.66    0.19 
  11  -2  -5    5.16    0.33 
 -11   2   5    5.05    0.34 
  10  -2  -5   40.86    1.55 
 -10   2   5   42.12    1.58 
   9  -2  -5   -0.06    0.12 
  -9   2   5    0.07    0.14 
   8  -2  -5   30.82    1.15 
  -8   2   5   30.70    1.18 
   7  -2  -5    9.40    0.43 
  -7   2   5    9.98    0.37 
  -7   2   5   10.03    0.44 
   6  -2  -5    7.85    0.35 
  -6   2   5    7.77    0.30 
  -6   2   5    7.41    0.35 
   5  -2  -5    3.08    0.20 
  -5   2   5    3.22    0.16 
   4  -2  -5   -0.02    0.02 
  -4   2   5   -0.03    0.02 
  -2   2   5   11.94    0.47 
  -1   2   5   13.97    0.53 
   0   2   5    0.57    0.08 
   1   2   5   18.03    0.69 
  -2  -2  -5    0.31    0.06 
  -3  -2  -5    0.72    0.11 
  -4  -2  -5   59.18    2.14 
  -5  -2  -5    9.35    0.42 
  -6  -2  -5  116.75    4.17 
   6   2   5  116.06    4.09 
  -7  -2  -5    3.93    0.27 
   7   2   5    3.30    0.25 
  -8  -2  -5    5.00    0.32 
   8   2   5    4.91    0.30 
  -9  -2  -5    0.06    0.15 
   9   2   5    0.21    0.12 
 -10  -2  -5    0.16    0.15 
 -11  -2  -5    0.48    0.18 
 -12  -2  -5    5.93    0.43 
  14  -3  -5    1.88    0.24 
 -14   3   5    1.70    0.27 
  13  -3  -5    0.97    0.19 
 -13   3   5    1.16    0.22 
  12  -3  -5    1.09    0.19 
 -12   3   5    0.88    0.21 
  11  -3  -5    2.88    0.26 
 -11   3   5    2.06    0.24 
  10  -3  -5    1.81    0.20 
 -10   3   5    1.69    0.20 
   9  -3  -5   11.61    0.51 
   7  -3  -5   14.74    0.59 
  -7   3   5   14.29    0.54 
   6  -3  -5   17.14    0.66 
  -6   3   5   16.94    0.63 
  -6   3   5   16.69    0.67 
   5  -3  -5    5.11    0.25 
  -5   3   5    5.19    0.23 
  -5   3   5    4.83    0.26 
  -4   3   5   30.06    1.11 
  -4   3   5   29.76    1.08 
  -3   3   5    5.69    0.28 
  -2   3   5   43.68    1.58 
  -1   3   5    4.71    0.23 
   0   3   5   17.29    0.66 
   1   3   5    0.22    0.08 
  -2  -3  -5   17.01    0.66 
  -3  -3  -5    0.04    0.08 
  -4  -3  -5    3.69    0.24 
  -5  -3  -5   37.77    1.41 
  -6  -3  -5    3.02    0.24 
   6   3   5    2.81    0.24 
  -7  -3  -5   36.68    1.39 
   7   3   5   35.97    1.35 
  -8  -3  -5    2.99    0.26 
   8   3   5    2.46    0.22 
  -9  -3  -5    0.45    0.17 
   9   3   5    0.45    0.14 
 -10  -3  -5   -0.08    0.16 
 -11  -3  -5   -0.15    0.18 
 -12  -3  -5   -0.16    0.19 
  14  -4  -5    1.23    0.22 
 -14   4   5    1.32    0.24 
  13  -4  -5    5.07    0.35 
 -13   4   5    5.22    0.39 
  12  -4  -5    8.53    0.45 
 -12   4   5    8.85    0.48 
  11  -4  -5    1.37    0.18 
 -11   4   5    1.44    0.20 
  10  -4  -5    4.21    0.30 
 -10   4   5    4.88    0.33 
   9  -4  -5   -0.09    0.10 
  -9   4   5    0.03    0.13 
   8  -4  -5    9.47    0.44 
  -8   4   5    9.68    0.39 
   7  -4  -5    1.82    0.17 
  -7   4   5    1.64    0.13 
  -7   4   5    1.75    0.18 
   6  -4  -5   54.30    2.00 
  -6   4   5   57.30    2.04 
   5  -4  -5    0.02    0.07 
  -5   4   5    0.01    0.03 
  -5   4   5   -0.08    0.08 
  -3   4   5    1.30    0.12 
  -3   4   5    1.22    0.11 
  -2   4   5    5.52    0.26 
  -1   4   5   23.13    0.86 
   0   4   5    0.26    0.08 
   1   4   5    1.25    0.11 
  -2  -4  -5    6.36    0.30 
   2   4   5    6.32    0.30 
  -3  -4  -5    8.29    0.37 
  -4  -4  -5    1.50    0.15 
  -5  -4  -5    4.54    0.28 
  -6  -4  -5    0.41    0.15 
   6   4   5    0.38    0.15 
  -7  -4  -5   15.78    0.68 
   7   4   5   15.86    0.67 
  -8  -4  -5   10.50    0.52 
   8   4   5   10.99    0.51 
  -9  -4  -5    0.23    0.17 
   9   4   5    0.57    0.15 
 -10  -4  -5    3.22    0.31 
 -11  -4  -5   -0.02    0.18 
  14  -5  -5   -0.02    0.16 
 -14   5   5    0.20    0.20 
  13  -5  -5   -0.12    0.15 
 -13   5   5   -0.03    0.16 
  12  -5  -5    0.30    0.15 
 -12   5   5    0.34    0.18 
  11  -5  -5    0.59    0.16 
 -11   5   5    0.79    0.18 
  10  -5  -5   14.07    0.62 
 -10   5   5   14.31    0.65 
   9  -5  -5   -0.11    0.13 
  -9   5   5    0.10    0.15 
   8  -5  -5    0.16    0.12 
  -8   5   5   -0.10    0.12 
  -8   5   5    0.03    0.08 
   7  -5  -5    2.24    0.19 
  -7   5   5    2.17    0.20 
  -7   5   5    2.24    0.17 
  -6   5   5    0.18    0.08 
  -6   5   5    0.26    0.10 
  -5   5   5    4.32    0.25 
  -5   5   5    4.45    0.24 
  -4   5   5  320.20   11.23 
  -4   5   5  317.88   11.14 
  -3   5   5   15.99    0.62 
  -3   5   5   15.62    0.62 
  -2   5   5   18.92    0.71 
  -2   5   5   18.21    0.72 
  -1   5   5    0.20    0.08 
   0   5   5   49.32    1.78 
   1   5   5    0.32    0.09 
   2   5   5    0.41    0.10 
  -3  -5  -5   31.37    1.19 
   3   5   5   32.76    1.20 
  -4  -5  -5    5.26    0.29 
  -5  -5  -5   10.83    0.49 
  -6  -5  -5    3.05    0.26 
  -7  -5  -5   21.78    0.89 
   7   5   5   21.93    0.89 
  -8  -5  -5    0.42    0.16 
   8   5   5    0.24    0.15 
  -9  -5  -5    0.68    0.18 
   9   5   5    0.71    0.18 
 -10  -5  -5    0.51    0.19 
 -11  -5  -5    1.57    0.25 
  14  -6  -5    2.85    0.28 
 -14   6   5    3.46    0.34 
  13  -6  -5    0.11    0.16 
 -13   6   5    0.41    0.19 
  12  -6  -5    3.84    0.30 
 -12   6   5    3.54    0.31 
  11  -6  -5   13.52    0.60 
 -11   6   5   12.80    0.61 
  10  -6  -5    0.96    0.17 
 -10   6   5    0.94    0.19 
  -9   6   5   64.33    2.37 
  -8   6   5    2.73    0.20 
  -8   6   5    2.27    0.23 
  -7   6   5   19.36    0.75 
  -7   6   5   19.43    0.79 
  -6   6   5    0.11    0.09 
  -6   6   5    0.21    0.12 
  -5   6   5   72.34    2.64 
  -5   6   5   74.43    2.62 
  -4   6   5    4.23    0.24 
  -4   6   5    3.63    0.23 
  -3   6   5   46.26    1.67 
  -3   6   5   45.54    1.67 
  -2   6   5    0.11    0.08 
  -2   6   5    0.04    0.07 
  -1   6   5    0.82    0.10 
  -1   6   5    0.86    0.12 
   0   6   5    0.03    0.07 
   0   6   5   -0.07    0.07 
   1   6   5    4.36    0.24 
   1   6   5    4.44    0.26 
   2   6   5   24.54    0.93 
   3   6   5    0.13    0.11 
  -4  -6  -5    0.95    0.14 
  -5  -6  -5    9.66    0.45 
   5   6   5    8.99    0.45 
  -6  -6  -5    0.33    0.15 
   6   6   5    0.34    0.15 
  -7  -6  -5    1.38    0.19 
   7   6   5    1.23    0.20 
   7   6   5    1.61    0.19 
  -8  -6  -5    0.48    0.17 
   8   6   5    0.55    0.16 
  -9  -6  -5    0.23    0.16 
   9   6   5    0.43    0.18 
 -14   7   5    0.80    0.22 
 -13   7   5    0.29    0.18 
 -12   7   5    1.52    0.24 
 -11   7   5    0.88    0.19 
 -10   7   5    4.81    0.34 
  -9   7   5    0.07    0.14 
  -8   7   5    0.42    0.12 
  -8   7   5    0.53    0.15 
  -7   7   5   -0.11    0.13 
  -7   7   5    0.17    0.11 
  -6   7   5    7.26    0.36 
  -6   7   5    7.22    0.37 
  -5   7   5    0.42    0.12 
  -5   7   5    0.21    0.12 
  -4   7   5    1.54    0.16 
  -4   7   5    1.67    0.15 
  -3   7   5    0.16    0.10 
  -3   7   5    0.18    0.09 
  -2   7   5    0.05    0.09 
  -2   7   5    0.05    0.09 
  -1   7   5    5.86    0.28 
   0   7   5    1.56    0.16 
   0   7   5    2.71    0.17 
   1   7   5   10.02    0.44 
   1   7   5   10.93    0.48 
   2   7   5    1.18    0.14 
   2   7   5    1.27    0.17 
   3   7   5    1.15    0.16 
   3   7   5    0.98    0.14 
   4   7   5   18.86    0.78 
   4   7   5   20.05    0.80 
  -5  -7  -5    3.70    0.27 
   5   7   5    2.69    0.25 
   5   7   5    2.67    0.26 
  -6  -7  -5    0.90    0.16 
   6   7   5    0.77    0.17 
  -7  -7  -5    3.41    0.27 
   7   7   5    2.88    0.28 
   7   7   5    3.19    0.29 
   8   7   5    0.18    0.17 
   9   7   5    0.27    0.18 
 -14   8   5    1.17    0.25 
 -13   8   5    1.84    0.26 
 -12   8   5    4.50    0.36 
 -11   8   5    2.13    0.24 
 -10   8   5    1.03    0.18 
  -9   8   5    1.15    0.19 
  -9   8   5    1.05    0.15 
  -8   8   5    1.18    0.18 
  -8   8   5    1.01    0.15 
  -7   8   5    9.41    0.45 
  -7   8   5    8.91    0.44 
  -6   8   5    0.69    0.14 
  -6   8   5    0.70    0.13 
  -5   8   5    5.09    0.30 
  -5   8   5    5.41    0.31 
  -4   8   5   25.45    0.98 
  -4   8   5   24.95    0.96 
  -3   8   5    5.32    0.27 
  -3   8   5    5.41    0.32 
  -2   8   5    4.27    0.24 
  -2   8   5    4.44    0.28 
   0   8   5   -0.04    0.08 
   0   8   5   -0.07    0.09 
   1   8   5    1.80    0.17 
   1   8   5    2.04    0.20 
   2   8   5   -0.12    0.10 
   2   8   5   -0.06    0.13 
   3   8   5    8.63    0.44 
   3   8   5    8.01    0.40 
   4   8   5    1.10    0.16 
   4   8   5    0.90    0.17 
   5   8   5    4.42    0.33 
   6   8   5    1.58    0.21 
   7   8   5   -0.05    0.16 
   7   8   5    0.04    0.15 
   8   8   5    0.17    0.19 
   9   8   5    0.48    0.21 
 -13   9   5    0.89    0.22 
 -12   9   5    0.17    0.17 
 -11   9   5    0.88    0.20 
 -10   9   5    2.45    0.25 
  -9   9   5    4.50    0.29 
  -9   9   5    4.19    0.32 
  -8   9   5   -0.08    0.12 
  -8   9   5   -0.09    0.14 
  -7   9   5    0.41    0.14 
  -7   9   5    0.42    0.14 
  -6   9   5    1.96    0.19 
  -6   9   5    1.79    0.20 
  -5   9   5   17.62    0.73 
  -5   9   5   17.55    0.71 
  -4   9   5   14.58    0.63 
  -4   9   5   14.55    0.60 
  -3   9   5   27.75    1.03 
  -3   9   5   26.97    1.07 
  -2   9   5    0.13    0.12 
  -2   9   5    0.50    0.11 
  -1   9   5    7.10    0.33 
   0   9   5   11.06    0.47 
   0   9   5   11.26    0.53 
   1   9   5    3.13    0.22 
   1   9   5    3.26    0.27 
   2   9   5    1.64    0.20 
   3   9   5   15.99    0.70 
   4   9   5    0.11    0.15 
   5   9   5    0.58    0.17 
   6   9   5    1.68    0.22 
   7   9   5    0.03    0.18 
   8   9   5    0.30    0.20 
 -13  10   5    0.04    0.20 
 -12  10   5    0.11    0.18 
 -11  10   5    1.58    0.23 
 -10  10   5   -0.16    0.14 
  -9  10   5    9.51    0.46 
  -9  10   5    9.23    0.48 
  -8  10   5    1.33    0.19 
  -8  10   5    1.30    0.18 
  -7  10   5   -0.07    0.11 
  -7  10   5   -0.15    0.13 
  -6  10   5   31.49    1.22 
  -6  10   5   31.71    1.21 
  -5  10   5    6.48    0.37 
  -5  10   5    6.02    0.35 
  -4  10   5    2.70    0.23 
  -4  10   5    2.31    0.23 
  -3  10   5    8.91    0.47 
  -3  10   5    9.27    0.42 
  -2  10   5   10.80    0.46 
  -2  10   5   10.36    0.51 
  -1  10   5    0.13    0.13 
   0  10   5   -0.06    0.13 
   1  10   5    1.70    0.21 
   2  10   5    0.39    0.16 
   3  10   5    0.61    0.17 
   4  10   5    0.19    0.16 
   5  10   5    7.13    0.43 
   6  10   5    0.91    0.20 
   7  10   5    1.17    0.25 
 -12  11   5    0.07    0.19 
 -11  11   5    4.38    0.35 
 -10  11   5    0.49    0.17 
  -9  11   5    1.48    0.20 
  -9  11   5    1.28    0.20 
  -8  11   5    0.13    0.14 
  -8  11   5    0.00    0.13 
  -7  11   5    1.64    0.21 
  -7  11   5    1.69    0.20 
  -6  11   5    1.42    0.18 
  -6  11   5    1.03    0.19 
  -5  11   5    1.71    0.22 
  -5  11   5    1.77    0.18 
  -4  11   5    1.28    0.19 
  -3  11   5    0.53    0.17 
  -2  11   5    4.21    0.33 
  -1  11   5    3.11    0.28 
   0  11   5    0.03    0.15 
   1  11   5    3.90    0.31 
   2  11   5    1.15    0.21 
   3  11   5    0.11    0.16 
   4  11   5    3.97    0.34 
   5  11   5    1.77    0.24 
   6  11   5   -0.09    0.17 
 -11  12   5    0.30    0.19 
 -10  12   5    0.21    0.17 
  -9  12   5    0.05    0.15 
  -9  12   5    0.02    0.15 
  -8  12   5    4.93    0.33 
  -7  12   5    0.48    0.17 
  -6  12   5    4.62    0.35 
  -5  12   5    0.11    0.15 
  -4  12   5    0.61    0.18 
  -3  12   5    0.03    0.15 
  -2  12   5   -0.06    0.14 
  -1  12   5    4.17    0.33 
   0  12   5    0.02    0.16 
   1  12   5    0.26    0.17 
   2  12   5    0.15    0.16 
   3  12   5    0.93    0.20 
   4  12   5    0.13    0.17 
   5  12   5   -0.15    0.18 
  -9  13   5    1.28    0.22 
  -8  13   5    1.25    0.22 
  -7  13   5    0.31    0.16 
  -6  13   5    0.61    0.18 
  -5  13   5    1.55    0.23 
  -4  13   5    1.36    0.21 
  -3  13   5    4.34    0.33 
  -2  13   5    0.62    0.18 
  -1  13   5    0.08    0.17 
   0  13   5    0.00    0.16 
   1  13   5    0.11    0.16 
   2  13   5    0.33    0.17 
   3  13   5    0.15    0.19 
   4  13   5    1.23    0.24 
  -9  14   5    0.49    0.20 
  -8  14   5    0.43    0.19 
  -7  14   5    0.41    0.19 
  -6  14   5    0.88    0.20 
  -5  14   5    0.68    0.19 
  -4  14   5    0.00    0.17 
  -3  14   5    0.09    0.18 
  -2  14   5    0.51    0.20 
  -1  14   5    0.24    0.19 
   0  14   5   -0.11    0.19 
   1  14   5    0.20    0.19 
   2  14   5    0.28    0.20 
  -7  15   5    2.05    0.27 
  -6  15   5    0.27    0.20 
  -5  15   5    0.27    0.19 
  -4  15   5    0.49    0.20 
  -3  15   5    0.35    0.20 
  -2  15   5    1.09    0.25 
  -1  15   5    0.49    0.21 
   0  15   5    1.04    0.24 
   2  16  -6    0.48    0.20 
   2  16  -6    0.14    0.21 
   1  16  -6    0.26    0.20 
   0  16  -6   -0.03    0.18 
  -1  16  -6    0.50    0.20 
  -2  16  -6    0.05    0.17 
  -3  16  -6    2.16    0.27 
  -4  16  -6    0.30    0.19 
  -5  16  -6   -0.14    0.18 
  -6  16  -6    1.21    0.23 
  -7  16  -6    0.84    0.22 
   4  15  -6    0.20    0.19 
   4  15  -6    0.11    0.18 
   3  15  -6   -0.15    0.17 
   3  15  -6    0.10    0.16 
   2  15  -6    0.08    0.17 
   2  15  -6    0.48    0.21 
   1  15  -6    1.45    0.23 
   0  15  -6    0.27    0.18 
  -1  15  -6    0.93    0.21 
  -2  15  -6    0.03    0.16 
  -3  15  -6    0.06    0.17 
  -4  15  -6    0.85    0.20 
  -5  15  -6    4.34    0.37 
  -6  15  -6    1.83    0.26 
  -7  15  -6    6.32    0.44 
  -8  15  -6    0.48    0.20 
   5  14  -6    0.00    0.16 
   4  14  -6    0.91    0.20 
   4  14  -6    0.65    0.20 
   3  14  -6    0.90    0.20 
   3  14  -6    1.20    0.21 
   2  14  -6    0.12    0.16 
   2  14  -6   -0.08    0.16 
   1  14  -6   12.00    0.59 
   0  14  -6    0.04    0.16 
  -1  14  -6    6.94    0.44 
  -2  14  -6    5.69    0.40 
  -3  14  -6    2.24    0.25 
  -4  14  -6    0.60    0.17 
  -5  14  -6   -0.15    0.15 
  -6  14  -6    0.55    0.18 
  -7  14  -6    4.15    0.35 
  -8  14  -6    1.01    0.22 
  -9  14  -6    0.35    0.19 
 -10  14  -6    0.12    0.19 
   6  13  -6    0.05    0.17 
   5  13  -6    0.18    0.17 
   4  13  -6   -0.10    0.14 
   4  13  -6   -0.02    0.16 
   3  13  -6    1.18    0.20 
   3  13  -6    0.95    0.21 
   2  13  -6    6.77    0.42 
   1  13  -6    0.01    0.14 
   0  13  -6   -0.16    0.15 
  -1  13  -6    1.64    0.22 
  -2  13  -6    7.25    0.43 
  -3  13  -6    0.89    0.18 
  -4  13  -6    1.42    0.20 
  -5  13  -6    1.95    0.23 
  -6  13  -6    0.43    0.16 
  -7  13  -6    1.01    0.19 
  -8  13  -6    3.75    0.34 
  -9  13  -6    2.09    0.26 
 -10  13  -6    1.71    0.24 
   8  12  -6    0.12    0.18 
   7  12  -6   -0.13    0.17 
   6  12  -6    0.31    0.18 
   5  12  -6    0.54    0.17 
   5  12  -6    0.46    0.15 
   4  12  -6    0.32    0.14 
   4  12  -6    0.10    0.15 
   3  12  -6   -0.03    0.15 
   3  12  -6    0.17    0.14 
   2  12  -6    1.68    0.20 
   1  12  -6   -0.09    0.14 
   0  12  -6    0.31    0.14 
  -1  12  -6    4.02    0.31 
  -2  12  -6    2.33    0.23 
  -3  12  -6   10.04    0.50 
  -4  12  -6    0.51    0.16 
  -5  12  -6    0.08    0.14 
  -6  12  -6    2.16    0.23 
  -7  12  -6    5.53    0.37 
  -8  12  -6    0.15    0.15 
  -9  12  -6    0.32    0.17 
 -10  12  -6    0.06    0.16 
 -10  12  -6   -0.02    0.15 
 -11  12  -6    2.70    0.29 
   9  11  -6    1.44    0.25 
   8  11  -6    0.27    0.19 
   7  11  -6    0.27    0.18 
   6  11  -6    0.43    0.16 
   5  11  -6    0.17    0.15 
   5  11  -6    0.41    0.14 
   4  11  -6    1.65    0.22 
   4  11  -6    1.78    0.20 
   3  11  -6    1.17    0.19 
   3  11  -6    0.84    0.17 
   2  11  -6    1.30    0.18 
   1  11  -6   18.68    0.78 
   0  11  -6    0.78    0.17 
  -1  11  -6    0.73    0.16 
  -2  11  -6   -0.01    0.13 
  -3  11  -6    5.85    0.37 
  -4  11  -6    2.32    0.23 
  -5  11  -6   19.56    0.83 
  -6  11  -6    4.76    0.34 
  -6  11  -6    4.94    0.29 
  -7  11  -6    4.78    0.30 
  -7  11  -6    4.90    0.35 
  -8  11  -6    4.93    0.35 
  -8  11  -6    5.01    0.33 
  -9  11  -6    0.10    0.15 
  -9  11  -6    0.02    0.13 
 -10  11  -6    0.33    0.17 
 -10  11  -6    0.12    0.15 
 -11  11  -6    0.37    0.19 
 -12  11  -6    0.12    0.20 
   9  10  -6    0.70    0.21 
   8  10  -6    0.54    0.18 
   7  10  -6    1.44    0.21 
   6  10  -6   -0.02    0.15 
   5  10  -6    1.16    0.16 
   5  10  -6    0.99    0.18 
   4  10  -6    3.79    0.28 
   4  10  -6    4.06    0.33 
   3  10  -6    0.83    0.16 
   3  10  -6    1.01    0.17 
   2  10  -6   45.25    1.68 
   2  10  -6   45.04    1.68 
   1  10  -6    0.30    0.14 
   0  10  -6   60.52    2.22 
  -1  10  -6   -0.05    0.12 
  -2  10  -6   -0.01    0.02 
  -3  10  -6   43.71    1.64 
  -4  10  -6   21.37    0.85 
  -4  10  -6   20.22    0.79 
  -5  10  -6   43.33    1.58 
  -5  10  -6   42.68    1.62 
  -6  10  -6    5.15    0.33 
  -6  10  -6    5.33    0.31 
  -7  10  -6    1.36    0.17 
  -7  10  -6    1.14    0.18 
  -8  10  -6    4.36    0.31 
  -8  10  -6    3.87    0.29 
  -9  10  -6    1.00    0.18 
  -9  10  -6    0.94    0.17 
 -10  10  -6    0.57    0.16 
 -10  10  -6    0.24    0.16 
 -11  10  -6    0.52    0.19 
 -12  10  -6   -0.22    0.18 
  10   9  -6    1.04    0.23 
   9   9  -6    4.40    0.35 
   8   9  -6    7.13    0.42 
   7   9  -6   -0.01    0.14 
   6   9  -6    0.32    0.14 
   5   9  -6    1.88    0.22 
   5   9  -6    2.56    0.21 
   4   9  -6   20.51    0.85 
   4   9  -6   20.94    0.82 
   3   9  -6   56.01    2.02 
   3   9  -6   54.59    2.03 
   2   9  -6    0.42    0.13 
   2   9  -6    0.15    0.15 
   1   9  -6    4.92    0.29 
   0   9  -6    0.34    0.12 
  -1   9  -6    3.45    0.26 
  -2   9  -6   -0.02    0.06 
  -2   9  -6    0.01    0.02 
  -3   9  -6    1.58    0.12 
  -3   9  -6    0.97    0.14 
  -4   9  -6   18.16    0.71 
  -4   9  -6   18.54    0.76 
  -5   9  -6    2.27    0.21 
  -5   9  -6    2.51    0.23 
  -6   9  -6    6.51    0.37 
  -6   9  -6    6.58    0.35 
  -7   9  -6    1.09    0.17 
  -7   9  -6    1.18    0.17 
  -8   9  -6    1.68    0.19 
  -8   9  -6    2.09    0.21 
  -9   9  -6    2.09    0.21 
  -9   9  -6    1.96    0.22 
 -10   9  -6    5.70    0.37 
 -10   9  -6    5.51    0.35 
 -11   9  -6    7.88    0.45 
 -12   9  -6    0.05    0.19 
  11   8  -6    3.62    0.35 
  10   8  -6    2.11    0.27 
   9   8  -6    0.81    0.20 
   8   8  -6    0.15    0.16 
   7   8  -6    2.23    0.23 
   6   8  -6   10.60    0.51 
   6   8  -6   10.45    0.46 
   5   8  -6    6.25    0.37 
   5   8  -6    5.61    0.30 
   4   8  -6    0.06    0.09 
   4   8  -6    0.05    0.12 
   3   8  -6   17.32    0.71 
   3   8  -6   17.27    0.69 
   2   8  -6    1.23    0.14 
   2   8  -6    1.57    0.16 
   1   8  -6   18.98    0.75 
   0   8  -6    0.96    0.13 
   0  -8   6    0.83    0.07 
  -1   8  -6   20.33    0.79 
   1  -8   6   20.05    0.73 
  -3   8  -6    1.25    0.15 
  -3   8  -6    1.41    0.14 
  -4   8  -6    7.08    0.33 
  -4   8  -6    7.33    0.37 
  -5   8  -6    5.12    0.31 
  -5   8  -6    5.16    0.29 
  -6   8  -6    1.21    0.16 
  -6   8  -6    1.42    0.16 
  -7   8  -6   27.88    1.10 
  -7   8  -6   28.70    1.10 
  -8   8  -6    0.63    0.15 
  -8   8  -6    0.97    0.18 
  -9   8  -6   -0.19    0.14 
  -9   8  -6    0.00    0.12 
 -10   8  -6    0.03    0.13 
 -10   8  -6    0.09    0.15 
 -11   8  -6    2.15    0.25 
 -12   8  -6    0.40    0.20 
 -13   8  -6    0.54    0.22 
  11   7  -6    4.99    0.40 
  10   7  -6    0.15    0.18 
   9   7  -6    0.23    0.17 
   8   7  -6    0.24    0.16 
   7   7  -6    0.67    0.17 
   6   7  -6    2.75    0.20 
   6   7  -6    2.38    0.22 
   5   7  -6    9.15    0.40 
   5   7  -6    8.87    0.44 
   4   7  -6   18.30    0.74 
   4   7  -6   17.58    0.70 
  -4  -7   6   18.31    0.68 
   3   7  -6    0.27    0.10 
   3   7  -6    0.37    0.10 
  -3  -7   6    0.40    0.06 
   2   7  -6    0.93    0.12 
   2   7  -6    0.69    0.11 
  -2  -7   6    0.98    0.08 
   1   7  -6    0.80    0.12 
   1   7  -6    0.64    0.10 
  -1  -7   6    0.69    0.06 
   0   7  -6   -0.03    0.07 
   0  -7   6    0.05    0.05 
  -1   7  -6    0.13    0.08 
   1  -7   6    0.17    0.06 
  -2   7  -6   13.98    0.59 
  -2   7  -6   14.90    0.55 
  -3   7  -6    2.71    0.20 
  -3   7  -6    2.62    0.18 
  -4   7  -6    1.49    0.14 
  -4   7  -6    1.84    0.17 
  -5   7  -6    4.51    0.26 
  -5   7  -6    4.30    0.26 
  -6   7  -6    3.23    0.23 
  -6   7  -6    3.44    0.23 
  -7   7  -6    5.84    0.33 
  -7   7  -6    5.54    0.34 
  -8   7  -6    3.44    0.29 
  -8   7  -6    3.50    0.26 
  -9   7  -6    2.45    0.25 
  -9   7  -6    2.85    0.24 
 -10   7  -6    0.62    0.17 
 -10   7  -6    0.49    0.14 
 -11   7  -6    0.02    0.16 
 -12   7  -6    7.16    0.46 
 -13   7  -6   -0.13    0.20 
  12   6  -6    0.31    0.20 
  11   6  -6    2.99    0.29 
  10   6  -6   -0.09    0.14 
   9   6  -6    0.80    0.18 
   8   6  -6    6.03    0.38 
  -8  -6   6    6.03    0.34 
   7   6  -6    0.07    0.13 
  -7  -6   6    0.37    0.12 
   6   6  -6    4.41    0.23 
  -6  -6   6    4.41    0.25 
   5   6  -6    2.55    0.17 
   5   6  -6    2.24    0.20 
  -5  -6   6    1.62    0.15 
   4   6  -6    9.50    0.43 
   4   6  -6    8.79    0.39 
  -4  -6   6    9.14    0.37 
   3   6  -6   31.33    1.18 
   3   6  -6   31.54    1.17 
  -3  -6   6   32.60    1.15 
   2   6  -6    5.49    0.29 
   2   6  -6    6.27    0.30 
  -2  -6   6    6.43    0.25 
   1   6  -6   12.49    0.50 
   1   6  -6   12.40    0.50 
  -1  -6   6   12.48    0.46 
   0   6  -6  118.75    4.19 
   0  -6   6  118.81    4.18 
  -1   6  -6    0.13    0.08 
   1  -6   6    0.26    0.06 
  -2   6  -6   32.76    1.20 
  -2   6  -6   33.54    1.23 
  -3   6  -6   19.92    0.77 
  -3   6  -6   19.56    0.75 
  -4   6  -6   26.44    1.01 
  -4   6  -6   27.63    1.03 
  -5   6  -6   17.47    0.70 
  -5   6  -6   17.82    0.70 
  -6   6  -6    7.33    0.36 
  -6   6  -6    7.35    0.36 
  -7   6  -6   18.13    0.75 
  -7   6  -6   18.20    0.73 
  -8   6  -6    0.18    0.12 
  -8   6  -6    0.05    0.13 
  -9   6  -6   -0.14    0.11 
  -9   6  -6   -0.15    0.13 
 -10   6  -6    3.46    0.31 
 -11   6  -6    0.14    0.16 
 -12   6  -6    0.65    0.22 
 -13   6  -6   -0.03    0.19 
  12   5  -6    0.14    0.18 
  11   5  -6    0.09    0.15 
 -11  -5   6    0.15    0.16 
  10   5  -6    0.41    0.17 
 -10  -5   6    0.83    0.17 
   9   5  -6    5.69    0.36 
  -9  -5   6    4.76    0.32 
   8   5  -6    0.08    0.13 
  -8  -5   6    0.10    0.12 
   7   5  -6   11.92    0.61 
  -7  -5   6   17.55    0.62 
   6   5  -6    5.12    0.24 
  -6  -5   6    5.23    0.28 
   5   5  -6    7.72    0.33 
   5   5  -6    8.40    0.39 
  -5  -5   6    7.43    0.34 
   4   5  -6   46.96    1.63 
   4   5  -6   47.17    1.65 
  -4  -5   6   41.99    1.63 
   3   5  -6    0.23    0.07 
   3   5  -6    0.19    0.09 
  -3  -5   6    0.35    0.07 
   2   5  -6    4.91    0.24 
   2   5  -6    4.22    0.23 
  -2  -5   6    4.82    0.21 
   1   5  -6    1.52    0.15 
  -1  -5   6    1.66    0.12 
   0   5  -6    0.04    0.07 
   0   5  -6    0.03    0.06 
   0  -5   6    0.04    0.06 
  -1   5  -6   35.09    1.30 
  -1   5  -6   36.24    1.29 
   1  -5   6   37.19    1.30 
  -2   5  -6    0.01    0.07 
  -2   5  -6    0.12    0.06 
  -3   5  -6    1.37    0.12 
  -3   5  -6    1.07    0.12 
  -4   5  -6   10.98    0.46 
  -4   5  -6   11.32    0.47 
  -5   5  -6   16.41    0.65 
  -5   5  -6   16.33    0.66 
  -6   5  -6    4.31    0.26 
  -6   5  -6    4.25    0.26 
  -7   5  -6   42.00    1.56 
  -7   5  -6   43.02    1.59 
  -8   5  -6    7.37    0.39 
  -8   5  -6    7.21    0.37 
  -9   5  -6    3.23    0.24 
  -9   5  -6    2.66    0.26 
 -10   5  -6    1.01    0.19 
 -11   5  -6    5.99    0.39 
 -12   5  -6    2.44    0.29 
 -13   5  -6    0.82    0.23 
  13   4  -6   -0.12    0.18 
 -13  -4   6    0.08    0.19 
  12   4  -6    0.23    0.18 
 -12  -4   6    0.45    0.19 
  11   4  -6    3.63    0.32 
 -11  -4   6    3.48    0.31 
  10   4  -6    0.91    0.17 
 -10  -4   6    0.85    0.18 
   9   4  -6    0.79    0.16 
  -9  -4   6    0.55    0.16 
   8   4  -6    7.33    0.40 
  -8  -4   6    7.60    0.39 
  -7  -4   6   40.16    1.49 
   6   4  -6   -0.02    0.06 
   6   4  -6   -0.01    0.02 
  -6  -4   6    0.14    0.10 
   5   4  -6   11.62    0.49 
   5   4  -6   11.06    0.44 
  -5  -4   6   11.31    0.47 
   4   4  -6    6.55    0.31 
   4   4  -6    6.47    0.28 
   3   4  -6    1.96    0.13 
   3   4  -6    1.79    0.16 
  -3  -4   6    1.77    0.14 
   2   4  -6    0.66    0.09 
   2   4  -6    0.82    0.09 
  -2  -4   6    0.89    0.08 
   1   4  -6   12.81    0.50 
   1   4  -6   13.60    0.51 
  -1  -4   6   13.07    0.50 
   0   4  -6    0.39    0.07 
   0   4  -6    0.40    0.08 
   0  -4   6    0.43    0.07 
  -1   4  -6    6.58    0.26 
  -1   4  -6    6.17    0.27 
  -2   4  -6    1.33    0.09 
  -2   4  -6    1.26    0.11 
  -2   4  -6    1.44    0.14 
  -3   4  -6    1.34    0.13 
  -3   4  -6    1.78    0.14 
  -4   4  -6    0.09    0.08 
  -4   4  -6    0.12    0.08 
  -5   4  -6    7.43    0.36 
  -5   4  -6    7.52    0.34 
  -6   4  -6   29.77    1.13 
  -6   4  -6   29.37    1.10 
  -7   4  -6    7.58    0.40 
  -7   4  -6    7.72    0.37 
  -8   4  -6    2.75    0.21 
  -8   4  -6    2.31    0.23 
  -9   4  -6    5.60    0.30 
  -9   4  -6    4.71    0.35 
 -10   4  -6   -0.21    0.15 
 -11   4  -6    0.53    0.20 
 -12   4  -6   -0.04    0.17 
 -13   4  -6   -0.06    0.18 
  13   3  -6    1.13    0.23 
 -13  -3   6    1.30    0.24 
  12   3  -6   -0.24    0.15 
 -12  -3   6    0.04    0.17 
  11   3  -6    0.81    0.19 
 -11  -3   6    0.76    0.18 
  10   3  -6    0.04    0.13 
 -10  -3   6   -0.12    0.13 
   9   3  -6    8.28    0.42 
  -9  -3   6    7.76    0.42 
   8   3  -6    3.93    0.29 
  -8  -3   6    3.48    0.27 
   7   3  -6   11.33    0.50 
   6   3  -6   66.27    2.31 
  -6  -3   6   65.68    2.38 
   5   3  -6   57.85    2.06 
   5   3  -6   57.52    2.02 
  -5  -3   6   56.29    2.06 
   4   3  -6   37.05    1.33 
   4   3  -6   35.80    1.30 
   3   3  -6    1.59    0.14 
   3   3  -6    1.39    0.11 
  -3  -3   6    1.62    0.13 
   2   3  -6   85.88    3.00 
  -2  -3   6   84.69    3.02 
   1   3  -6   16.06    0.60 
   1   3  -6   15.67    0.58 
  -1  -3   6   15.50    0.59 
   0   3  -6    0.00    0.04 
   0   3  -6   -0.06    0.06 
   0  -3   6    0.00    0.05 
  -1   3  -6   42.25    1.47 
  -1   3  -6   41.59    1.51 
  -2   3  -6  150.11    4.84 
  -2   3  -6  123.43    4.80 
  -3   3  -6    4.59    0.24 
  -3   3  -6    4.76    0.25 
  -4   3  -6   46.45    1.67 
  -4   3  -6   46.19    1.69 
  -5   3  -6    7.32    0.34 
  -5   3  -6    7.70    0.36 
  -6   3  -6    7.79    0.36 
  -6   3  -6    8.05    0.38 
   6  -3   6    8.08    0.30 
  -7   3  -6   40.40    1.48 
  -8   3  -6    2.63    0.25 
  -8   3  -6    2.74    0.20 
  -9   3  -6   12.14    0.53 
  -9   3  -6   12.76    0.59 
 -10   3  -6    0.40    0.18 
 -11   3  -6    0.46    0.19 
 -12   3  -6    0.31    0.18 
 -13   3  -6    1.13    0.24 
  13   2  -6    0.01    0.16 
 -13  -2   6    0.17    0.19 
  12   2  -6    0.05    0.16 
 -12  -2   6    0.06    0.17 
  11   2  -6    0.39    0.16 
 -11  -2   6    0.23    0.16 
  10   2  -6    0.15    0.15 
 -10  -2   6    0.30    0.14 
   9   2  -6    1.17    0.18 
  -9  -2   6    1.45    0.18 
   8   2  -6    4.33    0.28 
  -8  -2   6    4.51    0.29 
   7   2  -6    0.97    0.15 
  -7  -2   6    0.87    0.14 
   6   2  -6    0.10    0.06 
  -6  -2   6    0.20    0.10 
   5   2  -6   42.47    1.55 
   5   2  -6   42.79    1.51 
  -5  -2   6   43.16    1.56 
   4   2  -6    0.70    0.10 
   4   2  -6    0.90    0.09 
   3   2  -6   60.69    2.09 
  -3  -2   6   57.51    2.11 
   2   2  -6    0.20    0.06 
   2   2  -6    0.26    0.07 
  -2  -2   6    0.24    0.07 
   1   2  -6  106.03    3.67 
   1   2  -6  105.04    3.69 
  -1  -2   6  104.64    3.72 
   0   2  -6    0.60    0.07 
   0   2  -6    0.58    0.06 
   0  -2   6    0.56    0.08 
  -1   2  -6   67.74    2.36 
  -1   2  -6   68.12    2.42 
  -2   2  -6   23.60    0.88 
  -3   2  -6   44.52    1.59 
  -3   2  -6   43.61    1.60 
  -4   2  -6  128.42    4.60 
  -4   2  -6  130.45    4.56 
  -5   2  -6    3.32    0.20 
   5  -2   6    3.42    0.15 
  -6   2  -6    4.51    0.25 
   6  -2   6    4.79    0.20 
  -7   2  -6   -0.01    0.03 
  -7   2  -6   -0.06    0.09 
   7  -2   6    0.27    0.07 
  -8   2  -6    6.44    0.37 
  -8   2  -6    6.91    0.33 
  -9   2  -6    3.47    0.29 
  -9   2  -6    3.76    0.24 
 -10   2  -6   -0.03    0.16 
 -11   2  -6   -0.01    0.16 
 -12   2  -6    0.57    0.21 
 -13   2  -6    0.46    0.21 
  14   1  -6   -0.06    0.17 
 -14  -1   6   -0.22    0.19 
  13   1  -6   -0.18    0.16 
 -13  -1   6    0.24    0.18 
  12   1  -6    0.86    0.19 
 -12  -1   6    0.89    0.19 
  11   1  -6    7.90    0.43 
 -11  -1   6    7.17    0.42 
  10   1  -6   30.28    1.20 
 -10  -1   6   31.52    1.22 
   9   1  -6   11.36    0.52 
  -9  -1   6   10.97    0.52 
   8   1  -6    4.98    0.29 
  -8  -1   6    4.73    0.31 
   7   1  -6   11.93    0.52 
  -7  -1   6   12.40    0.53 
   6   1  -6    4.64    0.27 
  -6  -1   6    5.62    0.27 
   5   1  -6   17.27    0.62 
  -5  -1   6   17.64    0.68 
   4   1  -6   72.44    2.52 
   4   1  -6   76.62    2.55 
  -4  -1   6   66.88    2.57 
   3   1  -6   -0.01    0.03 
   3   1  -6    0.26    0.05 
  -3  -1   6    0.05    0.06 
   2   1  -6    8.87    0.35 
   2   1  -6    8.61    0.34 
  -2  -1   6    8.54    0.36 
   1   1  -6  119.16    4.16 
   1   1  -6  120.44    4.19 
  -1  -1   6  119.17    4.22 
   0   1  -6    0.56    0.07 
   0   1  -6    0.56    0.06 
   0  -1   6    0.49    0.07 
  -1   1  -6   66.80    2.10 
   1  -1   6   50.20    2.09 
  -2   1  -6    0.03    0.03 
  -2   1  -6    0.03    0.03 
  -3   1  -6   94.77    3.35 
  -4   1  -6    0.50    0.09 
  -4   1  -6    0.66    0.11 
   4  -1   6    0.67    0.06 
  -5   1  -6    0.94    0.12 
  -5   1  -6    0.92    0.11 
   5  -1   6    0.82    0.07 
  -6   1  -6   19.64    0.78 
  -6   1  -6   19.28    0.74 
   6  -1   6   19.00    0.71 
  -7   1  -6    0.48    0.11 
  -7   1  -6    0.56    0.14 
   7  -1   6    0.58    0.09 
  -8   1  -6    1.07    0.14 
  -8   1  -6    1.21    0.18 
  -9   1  -6    0.68    0.17 
 -10   1  -6    0.18    0.17 
 -11   1  -6   -0.07    0.17 
 -12   1  -6    6.65    0.44 
 -13   1  -6   -0.22    0.19 
  14   0  -6    0.40    0.18 
 -14   0   6    0.77    0.22 
  13   0  -6    7.37    0.45 
 -13   0   6    7.64    0.47 
  12   0  -6    5.56    0.36 
 -12   0   6    5.43    0.39 
  11   0  -6    0.46    0.16 
 -11   0   6    0.74    0.18 
  10   0  -6    1.52    0.20 
 -10   0   6    1.88    0.22 
   9   0  -6    0.08    0.13 
  -9   0   6   -0.09    0.13 
   8   0  -6    6.51    0.35 
  -8   0   6    6.36    0.36 
   7   0  -6   10.60    0.46 
  -7   0   6   10.40    0.46 
   6   0  -6   35.23    1.26 
  -6   0   6   32.92    1.20 
  -6   0   6   34.47    1.27 
  -5   0   6    5.83    0.29 
   4   0  -6   18.08    0.69 
  -4   0   6   18.12    0.70 
   3   0  -6    4.98    0.21 
   2   0  -6    0.10    0.05 
   2   0  -6    0.11    0.05 
  -2   0   6    0.05    0.06 
   1   0  -6    4.30    0.19 
   1   0  -6    4.08    0.20 
  -1   0   6    4.12    0.20 
  -1   0  -6    0.03    0.02 
   1   0   6   -0.01    0.02 
  -3   0  -6    6.88    0.31 
  -3   0  -6    6.82    0.33 
  -4   0  -6    3.07    0.21 
  -4   0  -6    3.20    0.19 
  -5   0  -6    0.62    0.12 
  -5   0  -6    0.61    0.10 
   5   0   6    0.80    0.08 
  -6   0  -6   55.55    2.03 
  -6   0  -6   55.19    1.99 
   6   0   6   54.58    1.95 
  -7   0  -6   13.38    0.59 
  -7   0  -6   13.14    0.55 
   7   0   6   13.49    0.53 
  -8   0  -6   25.64    1.03 
  -9   0  -6    0.03    0.15 
 -10   0  -6    1.77    0.23 
 -11   0  -6    0.11    0.18 
 -12   0  -6    1.83    0.26 
  14  -1  -6    0.83    0.21 
 -14   1   6    0.78    0.22 
  13  -1  -6    7.04    0.43 
 -13   1   6    7.16    0.46 
  12  -1  -6    1.92    0.23 
 -12   1   6    1.90    0.25 
  11  -1  -6   10.14    0.50 
 -11   1   6    9.65    0.50 
  10  -1  -6    8.08    0.41 
 -10   1   6    8.17    0.44 
   9  -1  -6    0.03    0.11 
  -9   1   6   -0.15    0.12 
   8  -1  -6    5.26    0.30 
  -8   1   6    5.68    0.32 
   7  -1  -6    4.50    0.27 
  -7   1   6    4.51    0.28 
   6  -1  -6   58.60    2.07 
  -6   1   6   57.73    2.09 
  -6   1   6   56.56    2.02 
  -5   1   6    0.69    0.11 
   4  -1  -6   42.46    1.54 
  -4   1   6   43.10    1.56 
  -1   1   6    0.03    0.01 
   0   1   6    0.11    0.06 
   1   1   6    4.76    0.23 
  -2  -1  -6    1.81    0.16 
  -2  -1  -6    1.95    0.14 
  -3  -1  -6    7.34    0.33 
  -3  -1  -6    7.71    0.34 
  -4  -1  -6    8.66    0.39 
  -5  -1  -6    6.82    0.33 
   5   1   6    6.24    0.29 
  -6  -1  -6    0.28    0.13 
   6   1   6    0.49    0.10 
  -7  -1  -6    1.38    0.18 
   7   1   6    1.46    0.14 
  -8  -1  -6   43.74    1.67 
   8   1   6   44.14    1.60 
  -9  -1  -6   -0.05    0.13 
 -10  -1  -6    8.18    0.47 
 -11  -1  -6    0.98    0.22 
 -12  -1  -6    1.26    0.25 
  14  -2  -6    1.14    0.21 
 -14   2   6    1.04    0.24 
  13  -2  -6    2.42    0.26 
 -13   2   6    2.61    0.28 
  12  -2  -6    3.51    0.28 
 -12   2   6    3.30    0.30 
  11  -2  -6    0.03    0.14 
 -11   2   6    0.05    0.16 
  10  -2  -6    8.56    0.43 
 -10   2   6    8.80    0.45 
   9  -2  -6    1.75    0.18 
  -9   2   6    1.89    0.21 
   8  -2  -6   -0.01    0.11 
  -8   2   6    0.09    0.11 
   7  -2  -6    0.26    0.11 
  -7   2   6    0.30    0.11 
  -7   2   6    0.31    0.05 
   6  -2  -6    0.31    0.09 
  -6   2   6    0.49    0.06 
  -6   2   6    0.51    0.10 
   5  -2  -6    7.89    0.32 
  -5   2   6    6.39    0.32 
   4  -2  -6  209.49    7.29 
   3  -2  -6  171.68    6.41 
  -3   2   6  196.75    6.50 
  -2   2   6   76.66    2.73 
  -1   2   6    5.08    0.24 
   0   2   6   -0.10    0.07 
   1   2   6    6.54    0.31 
  -2  -2  -6   20.87    0.79 
  -3  -2  -6   72.27    2.60 
  -4  -2  -6    2.85    0.20 
  -5  -2  -6    1.35    0.16 
  -6  -2  -6    3.70    0.27 
   6   2   6    3.85    0.24 
  -7  -2  -6   17.79    0.75 
   7   2   6   17.72    0.70 
  -8  -2  -6    1.30    0.19 
   8   2   6    1.12    0.15 
  -9  -2  -6   -0.07    0.15 
 -10  -2  -6    0.39    0.18 
 -11  -2  -6    2.12    0.27 
 -12  -2  -6    0.29    0.21 
  14  -3  -6    2.03    0.24 
 -14   3   6    1.89    0.28 
  13  -3  -6    1.81    0.23 
 -13   3   6    1.94    0.25 
  12  -3  -6   -0.28    0.13 
 -12   3   6    0.08    0.16 
  11  -3  -6    4.23    0.31 
 -11   3   6    4.69    0.33 
  10  -3  -6   13.57    0.60 
 -10   3   6   13.44    0.62 
   9  -3  -6   28.71    0.97 
  -9   3   6   20.75    0.96 
   7  -3  -6    6.33    0.33 
  -7   3   6    6.38    0.27 
   6  -3  -6    1.38    0.14 
  -6   3   6    1.27    0.14 
  -6   3   6    1.50    0.13 
   5  -3  -6    1.70    0.14 
  -5   3   6    1.61    0.15 
  -5   3   6    1.80    0.14 
   4  -3  -6    9.98    0.41 
  -3   3   6   19.96    0.76 
  -2   3   6    5.62    0.27 
  -1   3   6    9.69    0.40 
   0   3   6    0.67    0.10 
   1   3   6    0.10    0.08 
  -2  -3  -6   85.31    3.03 
   2   3   6   84.04    3.03 
  -3  -3  -6    3.54    0.23 
  -4  -3  -6   35.82    1.33 
  -5  -3  -6    0.50    0.14 
  -6  -3  -6   73.82    2.70 
   6   3   6   74.76    2.65 
  -7  -3  -6    2.38    0.24 
   7   3   6    2.41    0.21 
  -8  -3  -6    8.74    0.45 
   8   3   6    8.78    0.43 
  -9  -3  -6   -0.06    0.15 
 -10  -3  -6    1.40    0.22 
 -11  -3  -6    1.29    0.24 
  14  -4  -6    2.94    0.29 
 -14   4   6    2.97    0.31 
  13  -4  -6   -0.15    0.14 
 -13   4   6    0.03    0.16 
  12  -4  -6    1.08    0.19 
 -12   4   6    1.10    0.20 
  11  -4  -6    0.14    0.14 
 -11   4   6    0.07    0.13 
  10  -4  -6    0.28    0.15 
 -10   4   6    0.34    0.15 
   9  -4  -6   -0.13    0.12 
  -9   4   6    0.01    0.13 
   8  -4  -6   19.20    0.76 
  -8   4   6   18.71    0.71 
   7  -4  -6    8.19    0.38 
  -7   4   6    7.67    0.39 
   6  -4  -6   35.58    1.34 
  -6   4   6   37.19    1.36 
  -5   4   6   -0.03    0.07 
  -5   4   6    0.09    0.10 
  -4   4   6   47.28    1.73 
  -4   4   6   48.01    1.71 
  -3   4   6    2.81    0.18 
  -2   4   6   13.42    0.54 
  -1   4   6    0.75    0.10 
   0   4   6    0.05    0.08 
   1   4   6    0.29    0.09 
   2   4   6    0.25    0.09 
  -3  -4  -6   -0.06    0.09 
  -4  -4  -6    3.75    0.25 
  -5  -4  -6    3.84    0.28 
  -6  -4  -6    0.89    0.17 
  -7  -4  -6   26.49    1.06 
   7   4   6   26.75    1.04 
  -8  -4  -6    0.27    0.16 
   8   4   6    0.21    0.14 
  -9  -4  -6    2.76    0.27 
 -10  -4  -6    2.35    0.26 
 -11  -4  -6   -0.08    0.18 
  14  -5  -6    1.37    0.23 
 -14   5   6    1.31    0.25 
  13  -5  -6    0.44    0.16 
 -13   5   6    0.53    0.19 
  12  -5  -6    5.98    0.38 
 -12   5   6    6.03    0.39 
  11  -5  -6    0.16    0.14 
 -11   5   6    0.26    0.15 
  10  -5  -6    5.56    0.34 
 -10   5   6    4.84    0.33 
   9  -5  -6    6.28    0.36 
  -9   5   6    6.46    0.37 
   8  -5  -6    4.48    0.29 
  -8   5   6    4.64    0.30 
  -8   5   6    4.71    0.25 
   7  -5  -6    2.07    0.20 
  -7   5   6    2.00    0.16 
  -7   5   6    1.65    0.18 
  -6   5   6    2.75    0.22 
  -6   5   6    2.98    0.20 
  -5   5   6   59.80    2.14 
  -5   5   6   59.34    2.16 
  -4   5   6   48.02    1.76 
  -4   5   6   48.64    1.75 
  -3   5   6   26.68    0.99 
  -3   5   6   25.82    0.98 
  -2   5   6   11.85    0.48 
  -1   5   6    0.50    0.09 
   0   5   6   -0.03    0.07 
   1   5   6    2.72    0.19 
   2   5   6    4.20    0.25 
  -3  -5  -6    1.78    0.17 
   3   5   6    2.48    0.21 
  -4  -5  -6   -0.09    0.11 
  -5  -5  -6   55.40    2.04 
  -6  -5  -6    1.78    0.20 
  -7  -5  -6   -0.02    0.14 
   7   5   6    0.20    0.15 
  -8  -5  -6    0.08    0.14 
   8   5   6    0.19    0.14 
  -9  -5  -6   -0.01    0.16 
   9   5   6    0.21    0.16 
 -10  -5  -6    0.35    0.19 
  14  -6  -6   -0.34    0.15 
 -14   6   6   -0.09    0.20 
  13  -6  -6    1.75    0.22 
 -13   6   6    1.85    0.25 
  12  -6  -6    0.63    0.17 
 -12   6   6    0.66    0.18 
  11  -6  -6    4.28    0.31 
 -11   6   6    4.03    0.31 
  10  -6  -6    0.68    0.16 
 -10   6   6    0.67    0.18 
  -9   6   6   -0.11    0.15 
  -8   6   6    0.41    0.11 
  -8   6   6    0.06    0.14 
  -7   6   6    0.61    0.16 
  -7   6   6    1.11    0.13 
  -6   6   6    4.07    0.27 
  -6   6   6    3.68    0.25 
  -5   6   6   44.45    1.63 
  -5   6   6   43.75    1.61 
  -4   6   6   88.28    3.18 
  -4   6   6   89.12    3.16 
  -3   6   6   37.19    1.38 
  -3   6   6   37.15    1.37 
  -2   6   6    1.14    0.12 
  -2   6   6    1.07    0.13 
  -1   6   6    0.65    0.10 
  -1   6   6    0.66    0.12 
   0   6   6    3.12    0.21 
   1   6   6    0.81    0.12 
   2   6   6   -0.04    0.10 
   3   6   6   12.09    0.53 
  -4  -6  -6    5.88    0.33 
   4   6   6    5.48    0.33 
  -5  -6  -6    0.38    0.14 
  -6  -6  -6   17.17    0.72 
  -7  -6  -6    0.54    0.16 
   7   6   6    0.63    0.16 
   7   6   6    0.79    0.18 
  -8  -6  -6    0.67    0.17 
   8   6   6    0.55    0.17 
  -9  -6  -6   -0.06    0.16 
   9   6   6    0.07    0.15 
 -14   7   6    0.52    0.21 
 -13   7   6    1.50    0.25 
 -12   7   6    1.48    0.22 
 -11   7   6   -0.01    0.15 
 -10   7   6    1.74    0.22 
  -9   7   6   20.83    0.87 
  -8   7   6    2.74    0.24 
  -8   7   6    2.63    0.24 
  -7   7   6   41.71    1.59 
  -7   7   6   43.08    1.56 
  -6   7   6   14.32    0.62 
  -6   7   6   14.72    0.61 
  -5   7   6   11.31    0.49 
  -5   7   6   10.87    0.49 
  -4   7   6   37.34    1.41 
  -4   7   6   39.01    1.42 
  -3   7   6    4.29    0.27 
  -3   7   6    3.69    0.23 
  -2   7   6   22.09    0.85 
  -2   7   6   22.60    0.88 
  -1   7   6    4.23    0.24 
   0   7   6   -0.06    0.04 
   0   7   6    0.02    0.09 
   1   7   6    1.46    0.18 
   1   7   6    1.34    0.14 
   2   7   6    1.35    0.15 
   2   7   6    1.35    0.18 
   3   7   6    0.76    0.15 
   3   7   6    0.82    0.15 
   4   7   6    8.14    0.43 
   4   7   6    7.85    0.41 
  -5  -7  -6   28.63    1.10 
   5   7   6   28.34    1.12 
   5   7   6   28.18    1.11 
  -6  -7  -6    0.30    0.15 
   6   7   6    0.25    0.15 
   7   7   6    2.63    0.26 
   7   7   6    2.35    0.24 
   8   7   6    0.62    0.19 
   9   7   6   -0.01    0.18 
 -13   8   6    0.05    0.19 
 -12   8   6    0.20    0.17 
 -11   8   6    1.49    0.21 
 -10   8   6    1.42    0.20 
  -9   8   6   -0.27    0.14 
  -9   8   6    0.15    0.11 
  -8   8   6   -0.08    0.13 
  -8   8   6    0.08    0.12 
  -7   8   6    6.51    0.36 
  -7   8   6    6.61    0.37 
  -6   8   6    0.63    0.15 
  -6   8   6    0.48    0.13 
  -5   8   6    7.13    0.36 
  -5   8   6    7.02    0.38 
  -4   8   6   11.64    0.51 
  -4   8   6   11.63    0.53 
  -3   8   6    1.24    0.16 
  -3   8   6    1.28    0.15 
  -2   8   6    3.56    0.22 
  -2   8   6    3.49    0.25 
   0   8   6    2.59    0.21 
   1   8   6    6.81    0.34 
   1   8   6    7.87    0.41 
   2   8   6    5.60    0.36 
   2   8   6    6.23    0.32 
   3   8   6   16.73    0.74 
   3   8   6   17.42    0.70 
   4   8   6   21.33    0.85 
   4   8   6   21.34    0.89 
   5   8   6    2.15    0.24 
   6   8   6    0.02    0.15 
   7   8   6    1.63    0.22 
   7   8   6    1.53    0.24 
   8   8   6   -0.14    0.17 
   9   8   6    0.32    0.20 
 -13   9   6    2.83    0.30 
 -12   9   6    2.89    0.30 
 -11   9   6   -0.15    0.14 
 -10   9   6    0.59    0.17 
  -9   9   6    0.56    0.18 
  -9   9   6    0.98    0.15 
  -8   9   6    2.81    0.26 
  -8   9   6    2.75    0.26 
  -7   9   6   -0.19    0.12 
  -7   9   6   -0.13    0.13 
  -6   9   6    0.99    0.17 
  -6   9   6    0.96    0.16 
  -5   9   6   10.90    0.52 
  -5   9   6   11.04    0.50 
  -4   9   6    2.03    0.21 
  -4   9   6    2.61    0.24 
  -3   9   6    2.90    0.21 
  -3   9   6    2.95    0.27 
  -2   9   6    0.47    0.12 
  -2   9   6    0.34    0.14 
  -1   9   6   -0.02    0.12 
  -1   9   6   -0.03    0.10 
   0   9   6   -0.07    0.10 
   0   9   6   -0.27    0.13 
   1   9   6    0.26    0.12 
   1   9   6    0.55    0.15 
   2   9   6    0.28    0.16 
   3   9   6    0.46    0.17 
   4   9   6    2.42    0.24 
   5   9   6    0.60    0.18 
   6   9   6    0.38    0.17 
   7   9   6    0.19    0.20 
   8   9   6   -0.23    0.18 
 -13  10   6    0.64    0.22 
 -12  10   6    0.15    0.19 
 -11  10   6    0.25    0.17 
 -10  10   6    1.41    0.21 
  -9  10   6    1.17    0.17 
  -9  10   6    1.35    0.20 
  -8  10   6    0.60    0.15 
  -8  10   6    0.24    0.15 
  -7  10   6    0.24    0.14 
  -7  10   6    0.14    0.14 
  -6  10   6    0.94    0.17 
  -6  10   6    0.71    0.16 
  -5  10   6   11.37    0.51 
  -5  10   6   11.15    0.54 
  -4  10   6    0.03    0.15 
  -4  10   6    0.11    0.13 
  -3  10   6   18.81    0.75 
  -3  10   6   18.93    0.80 
  -2  10   6    5.62    0.30 
  -2  10   6    5.53    0.35 
  -1  10   6    4.13    0.30 
   0  10   6    6.30    0.38 
   1  10   6    0.80    0.18 
   2  10   6    0.11    0.16 
   3  10   6    4.27    0.34 
   4  10   6   -0.16    0.15 
   5  10   6   -0.16    0.16 
   6  10   6    0.20    0.17 
   7  10   6   -0.05    0.21 
 -12  11   6    0.56    0.20 
 -11  11   6    0.20    0.18 
 -10  11   6    0.43    0.18 
  -9  11   6    1.73    0.22 
  -9  11   6    1.28    0.20 
  -8  11   6    0.04    0.14 
  -8  11   6   -0.24    0.13 
  -7  11   6    0.02    0.12 
  -7  11   6    0.24    0.15 
  -6  11   6    8.09    0.44 
  -6  11   6    8.73    0.43 
  -5  11   6    3.52    0.29 
  -5  11   6    3.81    0.28 
  -4  11   6   -0.12    0.15 
  -3  11   6    1.53    0.21 
  -2  11   6    0.08    0.14 
  -1  11   6    6.72    0.42 
   0  11   6    0.05    0.15 
   1  11   6    8.30    0.48 
   2  11   6   -0.08    0.16 
   3  11   6    0.82    0.20 
   4  11   6    0.58    0.20 
   5  11   6    0.60    0.20 
   6  11   6    0.14    0.19 
 -11  12   6    1.67    0.25 
 -10  12   6    0.02    0.17 
  -9  12   6    0.91    0.19 
  -9  12   6    0.63    0.18 
  -8  12   6    0.13    0.15 
  -7  12   6    1.81    0.23 
  -6  12   6    0.33    0.15 
  -5  12   6    0.61    0.18 
  -4  12   6    0.35    0.17 
  -3  12   6    1.06    0.20 
  -2  12   6    0.86    0.20 
  -1  12   6    0.65    0.19 
   0  12   6    8.70    0.49 
   1  12   6    0.82    0.20 
   2  12   6    0.10    0.17 
   3  12   6    2.97    0.30 
   4  12   6   -0.19    0.17 
   5  12   6    0.51    0.21 
  -9  13   6    0.27    0.17 
  -8  13   6    2.38    0.27 
  -7  13   6    0.54    0.17 
  -6  13   6    0.09    0.16 
  -5  13   6   -0.07    0.15 
  -4  13   6    0.41    0.18 
  -3  13   6    0.27    0.18 
  -2  13   6   -0.06    0.15 
  -1  13   6    0.06    0.16 
   0  13   6   -0.20    0.16 
   1  13   6    0.02    0.17 
   2  13   6    1.69    0.25 
   3  13   6    0.22    0.20 
  -9  14   6    1.27    0.23 
  -8  14   6    1.02    0.22 
  -7  14   6    1.11    0.22 
  -6  14   6    3.93    0.36 
  -5  14   6    0.05    0.18 
  -4  14   6    1.15    0.22 
  -3  14   6    1.27    0.23 
  -2  14   6    0.12    0.17 
  -1  14   6    0.44    0.21 
   0  14   6    2.90    0.32 
   1  14   6    2.02    0.28 
  -7  15   6    0.71    0.22 
  -6  15   6    0.23    0.20 
  -5  15   6    4.70    0.38 
  -4  15   6    0.71    0.21 
  -3  15   6    0.19    0.20 
  -2  15   6    0.16    0.20 
  -1  15   6    0.17    0.20 
   1  16  -7    0.00    0.17 
   1  16  -7    0.29    0.21 
   0  16  -7   -0.18    0.18 
  -1  16  -7    1.60    0.25 
  -2  16  -7    0.99    0.24 
  -3  16  -7    0.18    0.19 
  -4  16  -7    1.26    0.23 
  -5  16  -7    0.09    0.18 
  -6  16  -7    0.31    0.20 
   4  15  -7    0.39    0.20 
   4  15  -7    0.56    0.19 
   3  15  -7    0.99    0.21 
   3  15  -7    0.99    0.24 
   2  15  -7    0.05    0.18 
   2  15  -7    0.25    0.18 
   1  15  -7    1.42    0.23 
   1  15  -7    1.94    0.27 
   0  15  -7    1.14    0.23 
  -1  15  -7    0.34    0.18 
  -2  15  -7    1.49    0.23 
  -3  15  -7    2.69    0.29 
  -4  15  -7    0.05    0.16 
  -5  15  -7    0.78    0.21 
  -6  15  -7    1.77    0.25 
  -7  15  -7    2.01    0.27 
  -8  15  -7   -0.03    0.17 
   5  14  -7   -0.05    0.18 
   4  14  -7    0.62    0.18 
   4  14  -7    0.34    0.19 
   3  14  -7    0.05    0.17 
   3  14  -7    0.09    0.15 
   2  14  -7    0.58    0.18 
   2  14  -7    0.32    0.18 
   1  14  -7    0.95    0.20 
   0  14  -7    0.07    0.15 
  -1  14  -7    0.17    0.15 
  -2  14  -7   -0.07    0.15 
  -3  14  -7    0.53    0.18 
  -4  14  -7    0.22    0.17 
  -5  14  -7   13.69    0.66 
  -6  14  -7    0.14    0.17 
  -7  14  -7    1.28    0.23 
  -8  14  -7    1.94    0.26 
  -9  14  -7    0.17    0.19 
   6  13  -7   -0.11    0.16 
   5  13  -7   -0.25    0.17 
   4  13  -7    1.32    0.20 
   4  13  -7    1.32    0.23 
   3  13  -7    3.59    0.34 
   3  13  -7    3.50    0.31 
   2  13  -7    7.17    0.43 
   2  13  -7    7.90    0.45 
   1  13  -7    1.88    0.22 
   0  13  -7    4.53    0.33 
  -1  13  -7    0.02    0.14 
  -2  13  -7    3.23    0.29 
  -3  13  -7    4.58    0.33 
  -4  13  -7   10.82    0.55 
  -5  13  -7    0.52    0.17 
  -6  13  -7    0.66    0.18 
  -7  13  -7    0.85    0.20 
  -8  13  -7    2.26    0.26 
  -9  13  -7    0.18    0.18 
 -10  13  -7    0.27    0.19 
   8  12  -7    3.92    0.37 
   7  12  -7    0.41    0.20 
   6  12  -7    0.04    0.17 
   5  12  -7    1.55    0.19 
   5  12  -7    1.17    0.22 
   4  12  -7    1.16    0.18 
   4  12  -7    1.30    0.21 
   3  12  -7    3.39    0.29 
   3  12  -7    3.41    0.32 
   2  12  -7    7.21    0.45 
   2  12  -7    8.76    0.44 
   1  12  -7    4.22    0.30 
   0  12  -7    0.15    0.15 
  -1  12  -7    0.59    0.17 
  -2  12  -7    0.34    0.15 
  -3  12  -7   -0.05    0.13 
  -4  12  -7    2.88    0.27 
  -5  12  -7    0.36    0.15 
  -6  12  -7   13.38    0.63 
  -7  12  -7   -0.03    0.15 
  -8  12  -7    1.94    0.24 
  -9  12  -7    1.55    0.22 
 -10  12  -7    2.61    0.27 
 -11  12  -7    1.72    0.25 
   7  11  -7    0.00    0.17 
   6  11  -7    0.94    0.20 
   5  11  -7    0.19    0.12 
   5  11  -7    0.27    0.16 
   4  11  -7    1.57    0.19 
   4  11  -7    2.08    0.24 
   3  11  -7    4.46    0.31 
   3  11  -7    4.45    0.34 
   2  11  -7    0.01    0.14 
   2  11  -7   -0.12    0.12 
   1  11  -7   13.54    0.61 
   0  11  -7    5.15    0.34 
  -1  11  -7   20.80    0.86 
  -2  11  -7   -0.10    0.13 
  -3  11  -7    0.28    0.14 
  -4  11  -7    1.06    0.18 
  -5  11  -7    0.13    0.15 
  -6  11  -7    0.85    0.18 
  -7  11  -7   18.08    0.75 
  -7  11  -7   18.25    0.78 
  -8  11  -7    0.50    0.15 
  -8  11  -7    0.44    0.15 
  -9  11  -7    0.51    0.17 
  -9  11  -7    0.76    0.18 
 -10  11  -7    0.11    0.16 
 -10  11  -7   -0.01    0.16 
 -11  11  -7    1.55    0.24 
   9  10  -7    0.18    0.18 
   8  10  -7    0.24    0.17 
   7  10  -7    0.15    0.15 
   6  10  -7    0.70    0.17 
   5  10  -7    0.25    0.15 
   5  10  -7    0.27    0.12 
   4  10  -7    3.97    0.28 
   4  10  -7    3.48    0.29 
   3  10  -7    1.93    0.21 
   3  10  -7    1.82    0.19 
   2  10  -7    0.61    0.16 
   2  10  -7    0.25    0.12 
   1  10  -7    0.12    0.12 
   1  10  -7    0.21    0.13 
   0  10  -7   -0.01    0.12 
  -1  10  -7    3.04    0.27 
  -2  10  -7    0.21    0.07 
  -3  10  -7    0.98    0.17 
  -4  10  -7    1.47    0.19 
  -4  10  -7    1.68    0.15 
  -5  10  -7   12.42    0.57 
  -5  10  -7   12.00    0.52 
  -6  10  -7    1.00    0.16 
  -6  10  -7    0.88    0.17 
  -7  10  -7    7.17    0.40 
  -7  10  -7    7.05    0.39 
  -8  10  -7    1.21    0.18 
  -8  10  -7    1.06    0.18 
  -9  10  -7    0.37    0.16 
  -9  10  -7    0.25    0.14 
 -10  10  -7    0.15    0.15 
 -10  10  -7    0.13    0.16 
 -11  10  -7   -0.24    0.17 
 -12  10  -7    0.66    0.22 
  10   9  -7    0.43    0.19 
   9   9  -7    0.16    0.16 
   8   9  -7    0.00    0.14 
   7   9  -7    0.35    0.15 
   6   9  -7    0.59    0.16 
   5   9  -7    1.27    0.19 
   5   9  -7    1.36    0.16 
   4   9  -7   14.59    0.65 
   4   9  -7   15.00    0.62 
   3   9  -7   10.12    0.48 
   3   9  -7   10.00    0.46 
   2   9  -7   30.00    1.14 
   2   9  -7   29.58    1.13 
   1   9  -7    6.14    0.34 
   1   9  -7    6.15    0.33 
   0   9  -7    0.71    0.14 
  -1   9  -7   10.24    0.48 
  -3   9  -7   48.17    1.74 
  -4   9  -7    0.30    0.13 
  -4   9  -7    0.47    0.11 
  -5   9  -7   42.56    1.54 
  -5   9  -7   40.71    1.56 
  -6   9  -7    5.17    0.32 
  -6   9  -7    5.40    0.31 
  -7   9  -7    1.26    0.17 
  -7   9  -7    1.32    0.18 
  -8   9  -7    0.84    0.17 
  -8   9  -7    0.71    0.16 
  -9   9  -7    1.72    0.20 
  -9   9  -7    1.45    0.21 
 -10   9  -7    1.25    0.20 
 -10   9  -7    1.46    0.20 
 -11   9  -7    0.11    0.18 
 -12   9  -7   -0.18    0.19 
  11   8  -7    1.44    0.25 
  10   8  -7    0.12    0.19 
   9   8  -7   12.88    0.63 
   8   8  -7    0.90    0.18 
   7   8  -7    8.71    0.46 
   6   8  -7    5.91    0.30 
   6   8  -7    5.67    0.35 
   5   8  -7   -0.12    0.10 
   5   8  -7   -0.13    0.12 
   4   8  -7    4.73    0.32 
   4   8  -7    5.42    0.29 
   3   8  -7   16.29    0.67 
   3   8  -7   16.16    0.66 
   2   8  -7    0.00    0.10 
   2   8  -7    0.08    0.10 
   1   8  -7    7.49    0.36 
   1   8  -7    7.19    0.35 
   0   8  -7    0.13    0.09 
   0  -8   7    0.09    0.06 
  -1   8  -7   23.38    0.91 
   1  -8   7   23.47    0.86 
  -3   8  -7    0.26    0.11 
  -3   8  -7    0.20    0.08 
  -4   8  -7    3.89    0.26 
  -4   8  -7    3.40    0.23 
  -5   8  -7   54.23    2.01 
  -5   8  -7   56.39    2.03 
  -6   8  -7    0.79    0.16 
  -6   8  -7    0.78    0.15 
  -7   8  -7   27.75    1.08 
  -7   8  -7   27.86    1.09 
  -8   8  -7   -0.14    0.11 
  -8   8  -7   -0.01    0.14 
  -9   8  -7   -0.08    0.15 
  -9   8  -7    0.06    0.13 
 -10   8  -7    4.53    0.35 
 -10   8  -7    4.74    0.31 
 -11   8  -7    8.29    0.48 
 -12   8  -7   -0.12    0.19 
  11   7  -7    0.69    0.21 
  10   7  -7    0.04    0.17 
   9   7  -7    0.58    0.18 
   8   7  -7    2.47    0.25 
   7   7  -7    3.25    0.29 
   6   7  -7    3.59    0.22 
   6   7  -7    3.90    0.28 
   5   7  -7   14.10    0.62 
   5   7  -7   14.27    0.57 
   4   7  -7   21.94    0.85 
   4   7  -7   22.12    0.88 
  -4  -7   7   22.51    0.82 
   3   7  -7    9.55    0.41 
   3   7  -7    8.79    0.43 
  -3  -7   7    9.57    0.37 
   2   7  -7    8.09    0.38 
   2   7  -7    7.66    0.36 
  -2  -7   7    8.21    0.32 
   1   7  -7    9.37    0.41 
   1   7  -7    9.84    0.42 
  -1  -7   7    9.32    0.37 
   0   7  -7   31.74    1.18 
   0   7  -7   33.68    1.21 
   0  -7   7   31.94    1.17 
  -1   7  -7   11.08    0.47 
   1  -7   7   10.91    0.43 
  -2   7  -7    0.09    0.07 
  -2   7  -7    0.10    0.07 
  -3   7  -7    2.91    0.19 
  -3   7  -7    3.36    0.22 
  -4   7  -7    0.14    0.10 
  -4   7  -7    0.10    0.09 
  -5   7  -7   12.56    0.53 
  -5   7  -7   12.07    0.54 
  -6   7  -7   33.32    1.25 
  -6   7  -7   32.64    1.25 
  -7   7  -7    0.82    0.16 
  -7   7  -7    0.75    0.16 
  -8   7  -7    2.26    0.21 
  -8   7  -7    1.85    0.21 
  -9   7  -7    2.78    0.26 
  -9   7  -7    3.16    0.25 
 -10   7  -7    0.16    0.13 
 -10   7  -7    0.27    0.16 
 -11   7  -7    3.08    0.30 
 -12   7  -7    0.83    0.23 
 -13   7  -7    0.73    0.22 
  12   6  -7    0.82    0.22 
  11   6  -7    2.87    0.30 
  10   6  -7    0.16    0.16 
   9   6  -7    5.46    0.37 
   8   6  -7    0.04    0.13 
  -8  -6   7    0.21    0.13 
   7   6  -7    0.33    0.13 
  -7  -6   7    0.12    0.11 
   6   6  -7   -0.17    0.12 
   6   6  -7   -0.02    0.08 
  -6  -6   7   -0.15    0.09 
   5   6  -7    4.69    0.24 
   5   6  -7    4.64    0.29 
  -5  -6   7    4.69    0.25 
   4   6  -7   18.35    0.70 
   4   6  -7   18.32    0.74 
   3   6  -7    0.21    0.09 
   3   6  -7    0.19    0.08 
  -3  -6   7    0.43    0.07 
   2   6  -7   20.90    0.81 
   2   6  -7   21.50    0.81 
  -2  -6   7   21.22    0.78 
   1   6  -7    1.89    0.16 
   1   6  -7    1.92    0.16 
  -1  -6   7    1.86    0.13 
   0   6  -7    0.14    0.06 
   0   6  -7    0.20    0.09 
   0  -6   7    0.12    0.06 
  -1   6  -7    5.70    0.28 
  -1   6  -7    5.47    0.25 
   1  -6   7    5.76    0.26 
  -2   6  -7   13.35    0.51 
  -2   6  -7   13.64    0.56 
  -2   6  -7   13.85    0.53 
  -3   6  -7   15.63    0.61 
  -3   6  -7   15.75    0.63 
  -4   6  -7    2.74    0.20 
  -4   6  -7    2.76    0.21 
  -5   6  -7    2.64    0.20 
  -5   6  -7    2.30    0.21 
  -6   6  -7   27.17    1.06 
  -6   6  -7   27.59    1.05 
  -7   6  -7   14.13    0.61 
  -7   6  -7   14.33    0.61 
  -8   6  -7    0.89    0.15 
  -8   6  -7    0.89    0.17 
  -9   6  -7    7.34    0.42 
  -9   6  -7    7.44    0.38 
 -10   6  -7    0.72    0.19 
 -11   6  -7    0.19    0.17 
 -12   6  -7    0.84    0.23 
 -13   6  -7    0.01    0.19 
  12   5  -7    0.14    0.19 
  11   5  -7    2.39    0.27 
 -11  -5   7    3.11    0.30 
  10   5  -7    3.35    0.29 
 -10  -5   7    3.84    0.30 
   9   5  -7    1.51    0.20 
  -9  -5   7    1.83    0.20 
   8   5  -7   -0.01    0.13 
  -8  -5   7   -0.03    0.12 
   7   5  -7    0.18    0.11 
  -7  -5   7    0.09    0.11 
   6   5  -7    7.28    0.31 
  -6  -5   7    7.33    0.35 
   5   5  -7   45.96    1.68 
   5   5  -7   46.06    1.65 
  -5  -5   7   45.87    1.67 
   4   5  -7   44.72    1.62 
   4   5  -7   45.74    1.65 
   3   5  -7   69.28    2.47 
   3   5  -7   69.58    2.47 
  -3  -5   7   69.60    2.47 
   2   5  -7   14.26    0.56 
   2   5  -7   14.48    0.56 
  -2  -5   7   14.41    0.55 
   1   5  -7   19.01    0.73 
  -1  -5   7   19.18    0.71 
   0   5  -7   81.25    2.84 
   0   5  -7   78.31    2.80 
   0  -5   7   80.26    2.84 
  -1   5  -7   38.14    1.37 
   1  -5   7   39.02    1.40 
  -2   5  -7   53.90    1.88 
  -2   5  -7   54.24    1.94 
  -2   5  -7   52.86    1.93 
  -3   5  -7   53.14    1.87 
  -3   5  -7   54.56    1.94 
  -3   5  -7   53.88    1.95 
  -4   5  -7   20.34    0.79 
  -4   5  -7   20.23    0.79 
  -5   5  -7    3.73    0.24 
  -5   5  -7    3.46    0.24 
  -6   5  -7   24.33    0.94 
  -6   5  -7   23.67    0.92 
  -7   5  -7   19.99    0.77 
  -7   5  -7   18.68    0.79 
  -8   5  -7    1.08    0.18 
  -8   5  -7    1.20    0.16 
  -9   5  -7    0.22    0.16 
  -9   5  -7    0.13    0.12 
 -10   5  -7    2.18    0.26 
 -11   5  -7    0.14    0.18 
 -12   5  -7    0.03    0.19 
 -13   5  -7    0.05    0.19 
  13   4  -7    0.07    0.19 
 -13  -4   7   -0.09    0.19 
  12   4  -7    0.12    0.16 
 -12  -4   7    0.10    0.17 
  11   4  -7    0.53    0.17 
 -11  -4   7    0.35    0.18 
  10   4  -7   10.00    0.50 
 -10  -4   7   10.00    0.50 
   9   4  -7    7.63    0.41 
  -9  -4   7    6.28    0.38 
   8   4  -7    0.77    0.16 
  -8  -4   7    0.62    0.15 
  -7  -4   7    0.75    0.14 
   6   4  -7    0.91    0.09 
  -6  -4   7    0.95    0.13 
   5   4  -7   27.46    1.06 
   5   4  -7   28.37    1.02 
  -5  -4   7   28.51    1.05 
   4   4  -7   22.08    0.84 
   4   4  -7   21.98    0.81 
   3   4  -7    0.89    0.11 
   3   4  -7    0.91    0.09 
  -3  -4   7    0.83    0.09 
   2   4  -7    0.05    0.07 
   2   4  -7    0.09    0.07 
  -2  -4   7    0.04    0.07 
   1   4  -7   71.37    2.88 
   1   4  -7   88.24    2.92 
  -1  -4   7   87.68    2.92 
   0   4  -7    0.85    0.10 
   0   4  -7    0.89    0.08 
   0  -4   7    0.76    0.09 
  -1   4  -7  107.90    3.73 
  -1   4  -7  107.00    3.80 
  -2   4  -7    8.33    0.36 
  -2   4  -7    8.46    0.31 
  -2   4  -7    8.22    0.36 
  -3   4  -7   18.87    0.73 
  -3   4  -7   19.21    0.74 
  -4   4  -7    1.19    0.13 
  -4   4  -7    1.18    0.13 
  -5   4  -7   17.10    0.67 
  -5   4  -7   16.77    0.68 
  -6   4  -7    5.96    0.32 
  -6   4  -7    5.73    0.31 
  -7   4  -7   22.43    0.90 
  -7   4  -7   22.31    0.87 
  -8   4  -7    1.67    0.20 
  -8   4  -7    1.54    0.17 
  -9   4  -7   20.93    0.83 
  -9   4  -7   21.33    0.88 
 -10   4  -7   -0.16    0.14 
 -11   4  -7    2.55    0.27 
 -12   4  -7    4.66    0.37 
 -13   4  -7    0.08    0.21 
  13   3  -7    0.48    0.20 
 -13  -3   7    0.35    0.20 
  12   3  -7   -0.01    0.16 
 -12  -3   7    0.04    0.17 
  11   3  -7    3.27    0.31 
 -11  -3   7    3.13    0.30 
  10   3  -7    0.13    0.14 
 -10  -3   7    0.28    0.14 
   9   3  -7    0.18    0.14 
  -9  -3   7    0.10    0.14 
   8   3  -7    2.83    0.26 
  -8  -3   7    2.16    0.21 
   6   3  -7    1.53    0.11 
  -6  -3   7    1.68    0.15 
   5   3  -7    5.34    0.23 
   5   3  -7    5.23    0.28 
  -5  -3   7    5.50    0.27 
   4   3  -7    2.24    0.19 
   4   3  -7    2.44    0.14 
  -4  -3   7    2.18    0.16 
   3   3  -7    8.15    0.37 
   3   3  -7    8.65    0.34 
   2   3  -7   -0.01    0.03 
   2   3  -7    0.06    0.06 
  -2  -3   7    0.03    0.07 
   1   3  -7    0.24    0.06 
   1   3  -7    0.23    0.07 
  -1  -3   7    0.21    0.07 
   0   3  -7   28.55    1.05 
   0   3  -7   28.70    1.02 
   0  -3   7   28.55    1.05 
  -1   3  -7    5.09    0.20 
  -1   3  -7    5.11    0.24 
  -2   3  -7   58.86    2.10 
  -2   3  -7   58.06    2.09 
  -3   3  -7   65.58    2.38 
  -3   3  -7   66.61    2.36 
  -4   3  -7    0.58    0.09 
  -4   3  -7    0.56    0.11 
  -5   3  -7    0.27    0.11 
  -5   3  -7    0.08    0.09 
  -6   3  -7    6.37    0.31 
  -6   3  -7    6.50    0.34 
  -7   3  -7   16.05    0.65 
  -8   3  -7   12.88    0.59 
  -8   3  -7   12.85    0.55 
  -9   3  -7    7.42    0.43 
  -9   3  -7    7.50    0.37 
 -10   3  -7    0.74    0.18 
 -11   3  -7    0.03    0.16 
 -12   3  -7    0.35    0.19 
 -13   3  -7    1.58    0.28 
  13   2  -7    0.48    0.18 
 -13  -2   7    0.61    0.20 
  12   2  -7    0.90    0.20 
 -12  -2   7    1.15    0.21 
  11   2  -7    1.72    0.22 
 -11  -2   7    1.71    0.22 
  10   2  -7    3.67    0.28 
 -10  -2   7    3.27    0.27 
   9   2  -7    0.81    0.17 
  -9  -2   7    0.70    0.16 
   8   2  -7    3.35    0.26 
  -8  -2   7    3.08    0.26 
  -7  -2   7    1.46    0.16 
   6   2  -7   68.66    2.43 
  -6  -2   7   70.13    2.50 
   5   2  -7   32.55    1.19 
   5   2  -7   31.18    1.14 
  -5  -2   7   32.44    1.19 
   4   2  -7   22.51    0.84 
   4   2  -7   21.71    0.81 
  -4  -2   7   22.68    0.84 
   3   2  -7    0.07    0.06 
   3   2  -7    0.10    0.08 
  -3  -2   7   -0.03    0.03 
   2   2  -7   90.74    3.43 
  -2  -2   7  105.36    3.48 
   1   2  -7   19.64    0.71 
   1   2  -7   19.58    0.70 
  -1  -2   7   18.17    0.72 
   0   2  -7    0.00    0.04 
   0   2  -7    0.00    0.06 
   0  -2   7   -0.07    0.06 
  -1   2  -7    2.49    0.17 
  -1   2  -7    2.57    0.12 
  -2   2  -7   38.36    1.42 
  -2   2  -7   39.76    1.42 
  -3   2  -7    2.14    0.17 
  -3   2  -7    1.82    0.18 
  -4   2  -7   13.39    0.54 
  -4   2  -7   13.64    0.55 
  -5   2  -7    3.35    0.21 
   5  -2   7    3.29    0.14 
  -6   2  -7    1.12    0.13 
   6  -2   7    1.29    0.10 
  -7   2  -7   -0.10    0.10 
  -7   2  -7   -0.04    0.03 
  -8   2  -7   19.38    0.80 
  -8   2  -7   18.52    0.75 
  -9   2  -7   22.93    0.88 
  -9   2  -7   22.06    0.93 
 -10   2  -7    7.25    0.44 
 -11   2  -7    0.93    0.21 
 -12   2  -7    1.45    0.26 
  14   1  -7    0.10    0.19 
 -14  -1   7    0.12    0.19 
  13   1  -7   -0.24    0.16 
 -13  -1   7   -0.03    0.18 
  12   1  -7    0.32    0.17 
 -12  -1   7    0.05    0.17 
  11   1  -7   12.00    0.58 
 -11  -1   7   12.75    0.60 
  10   1  -7    1.65    0.21 
 -10  -1   7    1.69    0.20 
   9   1  -7    3.98    0.28 
  -9  -1   7    3.65    0.27 
   8   1  -7    3.85    0.29 
  -8  -1   7    4.09    0.29 
   7   1  -7    1.07    0.14 
  -7  -1   7    1.83    0.17 
  -6  -1   7    1.14    0.13 
   5   1  -7    1.48    0.10 
   5   1  -7    1.25    0.13 
  -5  -1   7    1.78    0.17 
   4   1  -7  111.25    4.01 
   4   1  -7  116.79    4.02 
  -4  -1   7  115.64    4.07 
   3   1  -7   69.64    2.59 
   3   1  -7   77.24    2.59 
   2   1  -7   36.03    1.25 
   2   1  -7   33.42    1.24 
   1   1  -7   40.05    1.42 
   1   1  -7   39.00    1.40 
   0   1  -7    0.66    0.08 
   0   1  -7    1.01    0.09 
   1  -1   7    7.06    0.31 
  -2   1  -7  220.55    7.72 
  -3   1  -7   85.36    3.03 
  -4   1  -7   96.68    3.52 
  -4   1  -7   99.91    3.48 
   4  -1   7   98.61    3.42 
  -5   1  -7    2.61    0.21 
  -5   1  -7    2.46    0.18 
   5  -1   7    2.55    0.14 
  -6   1  -7    2.62    0.22 
  -6   1  -7    3.40    0.22 
   6  -1   7    3.34    0.17 
  -7   1  -7   22.24    0.90 
  -7   1  -7   22.71    0.87 
  -8   1  -7    0.14    0.15 
  -8   1  -7   -0.02    0.11 
  -9   1  -7    0.15    0.12 
  -9   1  -7    0.18    0.15 
 -10   1  -7    2.08    0.25 
 -11   1  -7   -0.03    0.17 
 -12   1  -7    0.39    0.20 
  14   0  -7    0.38    0.20 
 -14   0   7    0.48    0.22 
  13   0  -7    0.14    0.17 
 -13   0   7    0.15    0.17 
  12   0  -7    5.29    0.36 
 -12   0   7    5.51    0.38 
  11   0  -7    0.34    0.15 
 -11   0   7    0.45    0.16 
  10   0  -7   19.47    0.80 
 -10   0   7   19.14    0.81 
   9   0  -7    0.64    0.14 
  -9   0   7    0.60    0.16 
   8   0  -7   59.96    2.16 
  -8   0   7   59.08    2.19 
   7   0  -7    0.61    0.12 
  -7   0   7    0.67    0.13 
  -6   0   7   40.02    1.48 
   5   0  -7    6.09    0.29 
  -5   0   7    6.08    0.31 
   4   0  -7    0.47    0.09 
  -4   0   7    0.88    0.11 
   3   0  -7   58.13    1.97 
   3   0  -7   49.58    1.97 
  -3   0   7   59.10    2.01 
   2   0  -7    1.07    0.10 
   2   0  -7    0.88    0.09 
   1   0  -7    3.30    0.17 
   1   0  -7    3.31    0.17 
   0   0  -7    0.50    0.07 
  -1   0  -7    0.07    0.05 
   1   0   7   -0.01    0.03 
  -2   0  -7   95.30    3.37 
  -2   0  -7   95.01    3.39 
  -3   0  -7    0.37    0.09 
  -3   0  -7    0.28    0.09 
  -4   0  -7    2.65    0.19 
  -4   0  -7    2.80    0.21 
  -5   0  -7    3.83    0.25 
  -5   0  -7    3.95    0.23 
   5   0   7    3.74    0.20 
  -6   0  -7   14.91    0.64 
  -6   0  -7   14.76    0.60 
   6   0   7   15.07    0.57 
  -7   0  -7    7.28    0.39 
  -7   0  -7    7.53    0.36 
   7   0   7    7.33    0.33 
  -8   0  -7    2.64    0.25 
  -9   0  -7    0.72    0.17 
 -10   0  -7    0.14    0.16 
 -11   0  -7    1.97    0.26 
 -12   0  -7    2.39    0.29 
  14  -1  -7   -0.02    0.17 
 -14   1   7    0.01    0.18 
  13  -1  -7    1.86    0.24 
 -13   1   7    1.75    0.24 
  12  -1  -7   11.31    0.56 
 -12   1   7   11.31    0.58 
  11  -1  -7   -0.16    0.15 
 -11   1   7   -0.08    0.14 
  10  -1  -7    4.90    0.34 
 -10   1   7    5.51    0.34 
   9  -1  -7    0.79    0.15 
  -9   1   7    0.66    0.16 
   8  -1  -7    6.73    0.36 
  -8   1   7    7.46    0.39 
   7  -1  -7   27.33    1.04 
  -7   1   7   27.77    1.05 
  -7   1   7   27.06    0.97 
  -6   1   7   66.96    2.42 
   5  -1  -7    5.17    0.26 
  -5   1   7    5.67    0.29 
   4  -1  -7   40.32    1.46 
  -4   1   7   40.37    1.48 
   3  -1  -7   13.03    0.50 
  -3   1   7   12.04    0.50 
   0   1   7    0.24    0.07 
  -1  -1  -7    3.80    0.21 
   1   1   7    4.22    0.22 
  -2  -1  -7    4.33    0.24 
  -2  -1  -7    4.35    0.24 
  -3  -1  -7    1.70    0.16 
  -3  -1  -7    1.72    0.15 
  -4  -1  -7    7.97    0.37 
  -5  -1  -7    2.17    0.21 
  -6  -1  -7   31.51    1.21 
   6   1   7   31.28    1.15 
  -7  -1  -7   40.14    1.55 
   7   1   7   41.80    1.49 
  -8  -1  -7    5.72    0.37 
  -9  -1  -7    3.16    0.28 
 -10  -1  -7    3.61    0.33 
 -11  -1  -7    0.28    0.20 
 -12  -1  -7    1.01    0.25 
  14  -2  -7   -0.05    0.18 
 -14   2   7    0.19    0.20 
  13  -2  -7    1.01    0.21 
 -13   2   7    1.28    0.23 
  12  -2  -7    9.68    0.50 
 -12   2   7    9.30    0.50 
  11  -2  -7    1.41    0.20 
 -11   2   7    1.24    0.20 
  10  -2  -7   -0.07    0.12 
 -10   2   7   -0.21    0.14 
   9  -2  -7   20.31    0.81 
  -9   2   7   19.72    0.83 
   8  -2  -7    1.39    0.17 
  -8   2   7    1.22    0.16 
   7  -2  -7    0.16    0.11 
  -7   2   7    0.02    0.06 
  -7   2   7    0.07    0.11 
   6  -2  -7    1.53    0.15 
  -6   2   7    2.28    0.13 
  -6   2   7    2.06    0.18 
   5  -2  -7    9.88    0.39 
  -5   2   7    8.35    0.39 
   4  -2  -7  237.86    8.27 
   3  -2  -7   29.45    1.03 
  -3   2   7   26.93    1.05 
  -2   2   7    0.04    0.08 
  -1   2   7   43.62    1.58 
   0   2   7    0.66    0.10 
   1   2   7   92.10    3.28 
  -2  -2  -7    0.85    0.12 
   2   2   7    1.47    0.14 
  -3  -2  -7    4.43    0.26 
  -4  -2  -7    4.68    0.28 
  -5  -2  -7    0.11    0.12 
  -6  -2  -7    0.45    0.15 
   6   2   7    0.51    0.12 
  -7  -2  -7   11.11    0.53 
   7   2   7   10.84    0.48 
  -8  -2  -7    4.88    0.34 
  -9  -2  -7    4.17    0.31 
 -10  -2  -7    2.08    0.26 
 -11  -2  -7    1.51    0.24 
  14  -3  -7    2.45    0.27 
 -14   3   7    2.56    0.30 
  13  -3  -7    7.86    0.45 
 -13   3   7    7.07    0.46 
  12  -3  -7   -0.24    0.15 
 -12   3   7    0.00    0.15 
  11  -3  -7    0.99    0.18 
 -11   3   7    1.03    0.20 
  10  -3  -7    0.28    0.14 
 -10   3   7    0.54    0.16 
   9  -3  -7    3.61    0.27 
  -9   3   7    3.81    0.28 
   7  -3  -7    6.37    0.33 
  -7   3   7    6.59    0.29 
  -6   3   7    4.12    0.23 
  -6   3   7    3.54    0.19 
  -5   3   7    3.21    0.23 
   4  -3  -7  133.69    4.71 
  -4   3   7  135.49    4.78 
  -3   3   7    2.91    0.21 
  -2   3   7   18.31    0.71 
  -1   3   7    3.32    0.20 
   0   3   7   92.92    3.31 
   1   3   7    3.44    0.21 
   2   3   7   -0.05    0.09 
  -3  -3  -7   26.11    0.99 
  -4  -3  -7    1.04    0.15 
  -5  -3  -7    2.08    0.20 
  -6  -3  -7   21.81    0.89 
  -7  -3  -7    1.96    0.22 
   7   3   7    2.27    0.21 
  -8  -3  -7   11.86    0.58 
   8   3   7   12.20    0.55 
  -9  -3  -7    0.75    0.19 
 -10  -3  -7    0.24    0.18 
 -11  -3  -7    0.10    0.20 
  14  -4  -7    1.40    0.23 
 -14   4   7    1.71    0.26 
  13  -4  -7    2.15    0.24 
 -13   4   7    2.13    0.26 
  12  -4  -7   -0.05    0.15 
 -12   4   7    0.21    0.17 
  11  -4  -7    2.39    0.24 
 -11   4   7    2.87    0.27 
  10  -4  -7    3.94    0.29 
 -10   4   7    3.90    0.30 
   9  -4  -7   37.82    1.45 
  -9   4   7   39.93    1.49 
   8  -4  -7    0.34    0.13 
  -8   4   7    0.03    0.03 
  -8   4   7    0.11    0.09 
   7  -4  -7   29.88    1.12 
  -7   4   7   30.88    1.15 
  -7   4   7   28.52    1.09 
   6  -4  -7   25.13    0.98 
  -6   4   7   27.20    0.97 
  -6   4   7   25.87    1.00 
  -5   4   7    0.07    0.08 
  -5   4   7    0.24    0.11 
  -4   4   7  102.53    3.66 
  -3   4   7    0.05    0.08 
  -2   4   7   65.16    2.35 
  -1   4   7    0.37    0.09 
   0   4   7    0.12    0.08 
   1   4   7    2.42    0.18 
   2   4   7    8.49    0.39 
  -3  -4  -7   11.18    0.49 
   3   4   7   11.29    0.49 
  -4  -4  -7    0.45    0.13 
  -5  -4  -7   18.23    0.76 
  -6  -4  -7    9.34    0.47 
  -7  -4  -7    0.10    0.15 
   7   4   7    0.25    0.14 
  -8  -4  -7    0.17    0.16 
   8   4   7    0.20    0.15 
  -9  -4  -7    3.17    0.31 
 -10  -4  -7    1.01    0.22 
 -11  -4  -7   -0.07    0.18 
  14  -5  -7    0.78    0.21 
 -14   5   7    1.05    0.24 
  13  -5  -7    0.22    0.18 
 -13   5   7    0.48    0.20 
  12  -5  -7    0.48    0.18 
 -12   5   7    0.52    0.18 
  11  -5  -7    0.11    0.15 
 -11   5   7    0.05    0.14 
  10  -5  -7    0.61    0.16 
 -10   5   7    0.84    0.17 
   9  -5  -7    1.06    0.17 
  -9   5   7    1.03    0.19 
   8  -5  -7    9.23    0.45 
  -8   5   7   10.13    0.42 
  -8   5   7    9.61    0.48 
  -7   5   7    4.18    0.24 
  -7   5   7    3.64    0.29 
  -6   5   7   12.64    0.52 
  -6   5   7   12.72    0.55 
  -5   5   7   13.92    0.56 
  -5   5   7   13.64    0.57 
  -4   5   7    8.42    0.38 
  -4   5   7    8.35    0.38 
  -3   5   7    5.82    0.30 
  -2   5   7    0.93    0.12 
  -1   5   7    0.11    0.09 
   0   5   7   15.80    0.63 
   1   5   7    0.03    0.09 
   2   5   7    2.29    0.20 
   3   5   7   18.31    0.74 
  -4  -5  -7   28.28    1.09 
   4   5   7   28.60    1.10 
  -5  -5  -7    3.95    0.29 
  -6  -5  -7   -0.24    0.13 
  -7  -5  -7    0.76    0.18 
   7   5   7    0.75    0.17 
  -8  -5  -7    1.53    0.21 
   8   5   7    2.11    0.22 
  -9  -5  -7    1.16    0.21 
 -10  -5  -7    0.29    0.19 
  14  -6  -7   -0.13    0.17 
 -14   6   7    0.05    0.20 
  13  -6  -7    1.73    0.24 
 -13   6   7    1.71    0.25 
  12  -6  -7    3.63    0.31 
 -12   6   7    3.40    0.30 
  11  -6  -7    0.20    0.14 
 -11   6   7    0.18    0.17 
 -10   6   7    4.88    0.35 
  -9   6   7    3.70    0.30 
  -8   6   7    5.72    0.36 
  -8   6   7    5.86    0.31 
  -7   6   7   11.10    0.48 
  -7   6   7   10.92    0.52 
  -6   6   7    4.74    0.28 
  -6   6   7    4.48    0.29 
  -5   6   7    0.76    0.14 
  -5   6   7    0.74    0.13 
  -4   6   7    3.24    0.23 
  -4   6   7    3.73    0.24 
  -3   6   7    2.78    0.21 
  -3   6   7    2.65    0.21 
  -2   6   7    5.84    0.31 
  -2   6   7    6.46    0.31 
  -1   6   7    0.77    0.12 
   0   6   7    0.04    0.09 
   1   6   7    0.06    0.10 
   2   6   7   15.38    0.63 
   3   6   7    0.50    0.14 
   4   6   7    5.52    0.34 
  -5  -6  -7    3.18    0.26 
   5   6   7    2.72    0.25 
  -6  -6  -7    0.26    0.15 
  -7  -6  -7    0.57    0.17 
   7   6   7    0.54    0.17 
  -8  -6  -7    0.68    0.19 
   8   6   7    0.77    0.19 
  -9  -6  -7    1.16    0.22 
 -14   7   7    0.87    0.23 
 -13   7   7   -0.17    0.18 
 -12   7   7   -0.09    0.16 
 -11   7   7    0.28    0.17 
 -10   7   7    6.10    0.39 
  -9   7   7    2.60    0.25 
  -8   7   7    2.71    0.24 
  -8   7   7    2.92    0.23 
  -7   7   7    4.87    0.33 
  -7   7   7    5.03    0.30 
  -6   7   7   27.84    1.07 
  -6   7   7   27.42    1.06 
  -5   7   7   13.58    0.58 
  -5   7   7   13.84    0.59 
  -4   7   7    1.39    0.16 
  -4   7   7    0.65    0.13 
  -3   7   7   11.52    0.52 
  -3   7   7   11.59    0.49 
  -2   7   7    3.36    0.25 
  -2   7   7    3.61    0.23 
  -1   7   7    0.04    0.10 
  -1   7   7   -0.01    0.03 
   1   7   7    0.41    0.12 
   1   7   7    0.13    0.13 
   2   7   7    0.35    0.14 
   2   7   7    0.37    0.13 
   3   7   7    7.07    0.39 
   3   7   7    7.38    0.39 
   4   7   7   12.68    0.59 
   4   7   7   12.96    0.57 
   5   7   7    2.27    0.23 
   5   7   7    2.18    0.23 
  -6  -7  -7    5.21    0.35 
   6   7   7    5.40    0.37 
   6   7   7    5.52    0.36 
   7   7   7    2.98    0.28 
   7   7   7    2.37    0.25 
   7   7   7    2.31    0.25 
   8   7   7    1.95    0.25 
 -13   8   7    1.29    0.25 
 -12   8   7    1.61    0.23 
 -11   8   7    0.36    0.18 
 -10   8   7   -0.12    0.15 
  -9   8   7    0.09    0.15 
  -8   8   7    1.29    0.19 
  -8   8   7    1.36    0.17 
  -7   8   7    3.42    0.27 
  -7   8   7    3.35    0.26 
  -6   8   7   13.57    0.59 
  -6   8   7   13.89    0.60 
  -5   8   7    2.93    0.24 
  -5   8   7    2.52    0.22 
  -4   8   7    1.85    0.19 
  -4   8   7    1.61    0.17 
  -3   8   7   -0.14    0.12 
  -3   8   7   -0.11    0.11 
  -2   8   7    0.75    0.16 
  -2   8   7    0.54    0.13 
  -1   8   7    4.16    0.26 
   0   8   7   -0.11    0.12 
   0   8   7   -0.03    0.11 
   1   8   7    7.64    0.38 
   1   8   7    8.49    0.43 
   2   8   7    2.42    0.23 
   2   8   7    2.23    0.20 
   3   8   7    2.45    0.25 
   3   8   7    2.91    0.25 
   4   8   7    4.27    0.30 
   4   8   7    3.67    0.30 
   5   8   7    2.74    0.26 
   6   8   7    0.16    0.16 
   7   8   7    2.52    0.28 
   7   8   7    2.05    0.25 
   8   8   7    0.49    0.20 
 -13   9   7    1.03    0.23 
 -12   9   7    0.38    0.20 
 -11   9   7    1.98    0.25 
 -10   9   7    0.81    0.20 
  -9   9   7    0.20    0.12 
  -9   9   7    0.20    0.15 
  -8   9   7    0.06    0.12 
  -8   9   7    0.14    0.15 
  -7   9   7    7.39    0.40 
  -7   9   7    6.82    0.39 
  -6   9   7    0.10    0.13 
  -6   9   7    0.15    0.14 
  -5   9   7   16.87    0.70 
  -5   9   7   16.55    0.71 
  -4   9   7   17.50    0.75 
  -4   9   7   17.77    0.72 
  -3   9   7    3.26    0.27 
  -3   9   7    3.06    0.23 
  -2   9   7    7.82    0.43 
  -2   9   7    7.82    0.37 
  -1   9   7    2.17    0.22 
  -1   9   7    2.32    0.21 
   0   9   7    3.80    0.29 
   0   9   7    3.92    0.26 
   1   9   7    0.92    0.19 
   1   9   7    0.80    0.15 
   2   9   7    2.32    0.24 
   3   9   7    0.01    0.14 
   4   9   7    0.30    0.16 
   5   9   7   -0.10    0.16 
   6   9   7    2.57    0.27 
   7   9   7    0.48    0.22 
 -12  10   7    0.34    0.19 
 -11  10   7    2.46    0.27 
 -10  10   7    1.35    0.21 
  -9  10   7    0.06    0.15 
  -9  10   7   -0.22    0.12 
  -8  10   7    7.52    0.41 
  -8  10   7    7.36    0.41 
  -7  10   7    0.57    0.16 
  -7  10   7    0.35    0.15 
  -6  10   7    1.34    0.19 
  -6  10   7    1.63    0.21 
  -5  10   7    4.43    0.31 
  -5  10   7    4.21    0.31 
  -4  10   7    1.19    0.17 
  -4  10   7    1.29    0.19 
  -3  10   7    3.03    0.23 
  -3  10   7    2.94    0.27 
  -2  10   7    2.67    0.22 
  -2  10   7    2.35    0.24 
  -1  10   7    0.27    0.16 
   0  10   7    0.50    0.17 
   1  10   7    0.10    0.15 
   2  10   7    1.24    0.22 
   3  10   7    0.87    0.20 
   4  10   7    2.99    0.29 
   5  10   7    3.63    0.34 
   6  10   7    0.06    0.18 
 -12  11   7    0.24    0.18 
 -11  11   7    0.06    0.18 
 -10  11   7    0.26    0.17 
  -9  11   7    4.10    0.31 
  -9  11   7    3.71    0.32 
  -8  11   7    1.02    0.18 
  -8  11   7    0.89    0.18 
  -7  11   7    0.17    0.15 
  -7  11   7    0.36    0.15 
  -6  11   7    7.03    0.38 
  -6  11   7    6.74    0.40 
  -5  11   7    0.59    0.17 
  -5  11   7    0.90    0.17 
  -4  11   7   -0.04    0.15 
  -3  11   7   16.38    0.73 
  -2  11   7    0.33    0.16 
  -1  11   7    0.13    0.16 
   0  11   7   14.95    0.70 
   1  11   7    1.90    0.25 
   2  11   7    1.65    0.24 
   3  11   7   -0.03    0.17 
   4  11   7   -0.22    0.17 
   5  11   7    0.15    0.18 
 -11  12   7    0.10    0.18 
 -10  12   7    0.50    0.19 
  -9  12   7    0.24    0.17 
  -9  12   7   -0.20    0.14 
  -8  12   7    1.04    0.20 
  -7  12   7    1.28    0.21 
  -6  12   7    0.31    0.16 
  -5  12   7    1.52    0.21 
  -4  12   7    0.28    0.16 
  -3  12   7   -0.16    0.14 
  -2  12   7   -0.14    0.14 
  -1  12   7    1.42    0.22 
   0  12   7    0.10    0.17 
   1  12   7    0.25    0.18 
   2  12   7   -0.02    0.16 
   3  12   7   -0.25    0.17 
   4  12   7    0.70    0.21 
  -9  13   7    0.31    0.18 
  -8  13   7    0.05    0.16 
  -7  13   7    0.25    0.18 
  -6  13   7    0.43    0.18 
  -5  13   7    1.53    0.24 
  -4  13   7    2.44    0.27 
  -3  13   7    1.83    0.24 
  -2  13   7   -0.07    0.16 
  -1  13   7    0.07    0.17 
   0  13   7    0.97    0.22 
   1  13   7    0.66    0.21 
   2  13   7    0.42    0.20 
   3  13   7    0.66    0.23 
  -8  14   7    0.45    0.20 
  -7  14   7    1.64    0.25 
  -6  14   7    0.68    0.20 
  -5  14   7    0.23    0.19 
  -4  14   7    0.14    0.18 
  -3  14   7    0.71    0.22 
  -2  14   7    0.23    0.20 
  -1  14   7    0.72    0.21 
   0  14   7   -0.25    0.19 
   1  14   7   -0.02    0.20 
  -5  15   7    0.25    0.19 
  -4  15   7    1.21    0.24 
  -3  15   7    0.18    0.21 
   1  16  -8    0.65    0.21 
   1  16  -8    0.85    0.23 
   0  16  -8    0.06    0.19 
   0  16  -8    0.05    0.20 
  -1  16  -8    1.27    0.25 
  -2  16  -8    2.29    0.28 
  -3  16  -8    0.06    0.17 
  -4  16  -8    3.64    0.34 
  -5  16  -8   -0.02    0.18 
  -6  16  -8    0.28    0.18 
   3  15  -8    0.53    0.20 
   3  15  -8    0.75    0.21 
   2  15  -8    0.98    0.23 
   2  15  -8    0.90    0.21 
   1  15  -8    0.73    0.22 
   1  15  -8    0.68    0.20 
   0  15  -8   -0.23    0.15 
   0  15  -8   -0.05    0.18 
  -1  15  -8    1.66    0.24 
  -2  15  -8    0.45    0.19 
  -3  15  -8    0.46    0.18 
  -4  15  -8    0.60    0.19 
  -5  15  -8   -0.02    0.17 
  -6  15  -8    3.76    0.34 
  -7  15  -8    0.03    0.18 
  -8  15  -8    0.02    0.19 
   5  14  -8    0.17    0.19 
   4  14  -8    0.09    0.15 
   4  14  -8    0.17    0.17 
   3  14  -8    2.64    0.29 
   3  14  -8    3.05    0.29 
   2  14  -8    1.34    0.22 
   2  14  -8    1.15    0.23 
   1  14  -8   -0.18    0.15 
   1  14  -8   -0.19    0.15 
   0  14  -8    8.38    0.48 
  -1  14  -8    0.38    0.16 
  -2  14  -8    0.81    0.19 
  -3  14  -8   -0.20    0.15 
  -4  14  -8    1.58    0.23 
  -5  14  -8    0.53    0.18 
  -6  14  -8    5.53    0.39 
  -7  14  -8    5.72    0.41 
  -8  14  -8   -0.18    0.18 
  -9  14  -8    2.95    0.31 
   6  13  -8    0.53    0.21 
   5  13  -8    0.31    0.18 
   4  13  -8    1.85    0.22 
   4  13  -8    1.84    0.25 
   3  13  -8    0.22    0.18 
   3  13  -8    0.23    0.15 
   2  13  -8   -0.01    0.15 
   2  13  -8   -0.15    0.15 
   1  13  -8    0.00    0.15 
   1  13  -8    0.17    0.16 
   0  13  -8    0.04    0.14 
  -1  13  -8   -0.12    0.15 
  -2  13  -8   -0.02    0.14 
  -3  13  -8    0.24    0.17 
  -4  13  -8    1.30    0.20 
  -5  13  -8    2.41    0.26 
  -6  13  -8    2.62    0.27 
  -7  13  -8    0.01    0.16 
  -8  13  -8    8.38    0.49 
  -9  13  -8    2.16    0.26 
 -10  13  -8    0.90    0.22 
   7  12  -8    0.46    0.19 
   6  12  -8    0.95    0.21 
   5  12  -8   -0.38    0.15 
   4  12  -8    0.88    0.17 
   4  12  -8    0.92    0.19 
   3  12  -8    1.32    0.19 
   3  12  -8    0.97    0.19 
   2  12  -8   10.54    0.53 
   2  12  -8   10.13    0.51 
   1  12  -8   -0.09    0.13 
   1  12  -8   -0.20    0.12 
   0  12  -8    1.01    0.18 
  -1  12  -8    0.05    0.14 
  -2  12  -8   -0.05    0.13 
  -3  12  -8   20.25    0.86 
  -4  12  -8    0.90    0.18 
  -5  12  -8    6.11    0.39 
  -6  12  -8    1.17    0.19 
  -7  12  -8    0.06    0.14 
  -8  12  -8    0.84    0.20 
  -9  12  -8    1.10    0.21 
 -10  12  -8    1.49    0.24 
   8  11  -8    0.44    0.20 
   7  11  -8    5.01    0.37 
   6  11  -8    0.38    0.17 
   5  11  -8    0.22    0.12 
   5  11  -8    0.18    0.16 
   4  11  -8    0.22    0.13 
   4  11  -8    0.08    0.14 
   3  11  -8   -0.02    0.12 
   3  11  -8    0.01    0.15 
   2  11  -8    1.18    0.19 
   2  11  -8    0.82    0.16 
   1  11  -8    1.17    0.18 
   1  11  -8    1.14    0.19 
   0  11  -8    0.35    0.15 
   0  11  -8    0.29    0.14 
  -1  11  -8    0.73    0.16 
  -2  11  -8   -0.05    0.12 
  -3  11  -8    0.62    0.15 
  -4  11  -8    0.43    0.15 
  -5  11  -8    9.54    0.50 
  -6  11  -8   19.66    0.84 
  -7  11  -8    3.17    0.30 
  -7  11  -8    3.14    0.26 
  -8  11  -8    0.46    0.16 
  -8  11  -8    0.51    0.17 
  -9  11  -8    2.87    0.27 
  -9  11  -8    2.54    0.25 
 -10  11  -8    0.65    0.19 
 -10  11  -8    0.50    0.17 
 -11  11  -8    0.43    0.20 
   9  10  -8   -0.11    0.16 
   8  10  -8    2.11    0.26 
   7  10  -8    0.37    0.18 
   6  10  -8    1.36    0.21 
   5  10  -8    1.83    0.23 
   5  10  -8    1.50    0.17 
   4  10  -8    0.85    0.18 
   4  10  -8    0.50    0.14 
   3  10  -8    2.99    0.25 
   3  10  -8    2.59    0.25 
   2  10  -8    0.08    0.13 
   2  10  -8   -0.10    0.11 
   1  10  -8   20.99    0.84 
   1  10  -8   20.76    0.85 
   0  10  -8    4.94    0.32 
   0  10  -8    5.14    0.32 
  -1  10  -8   16.61    0.71 
  -2  10  -8    0.04    0.12 
  -3  10  -8    2.69    0.24 
  -4  10  -8    0.17    0.10 
  -4  10  -8    0.21    0.15 
  -5  10  -8    4.60    0.29 
  -5  10  -8    4.22    0.31 
  -6  10  -8   12.64    0.54 
  -6  10  -8   11.76    0.57 
  -7  10  -8    1.08    0.19 
  -7  10  -8    1.29    0.18 
  -8  10  -8   -0.16    0.14 
  -8  10  -8    0.06    0.14 
  -9  10  -8    0.16    0.15 
  -9  10  -8    0.07    0.15 
 -10  10  -8   -0.12    0.14 
 -10  10  -8    0.08    0.17 
 -11  10  -8    1.22    0.23 
 -12  10  -8   -0.02    0.19 
  10   9  -8   -0.06    0.18 
   9   9  -8    0.00    0.15 
   8   9  -8    1.33    0.22 
   7   9  -8    5.10    0.35 
   6   9  -8    6.57    0.40 
   5   9  -8   13.33    0.57 
   5   9  -8   13.04    0.60 
   4   9  -8    2.76    0.23 
   4   9  -8    2.84    0.26 
   3   9  -8    1.19    0.16 
   3   9  -8    1.41    0.19 
   2   9  -8    6.99    0.37 
   2   9  -8    7.10    0.37 
   1   9  -8    0.47    0.13 
   1   9  -8    0.29    0.12 
   0   9  -8   -0.01    0.10 
   0   9  -8   -0.06    0.11 
  -1   9  -8    1.39    0.17 
   2  -9   8    0.50    0.07 
  -3   9  -8   -0.06    0.09 
  -3   9  -8   -0.04    0.06 
  -4   9  -8    1.70    0.20 
  -4   9  -8    1.72    0.16 
  -5   9  -8   48.40    1.82 
  -5   9  -8   49.27    1.80 
  -6   9  -8   16.97    0.69 
  -6   9  -8   16.36    0.71 
  -7   9  -8    0.47    0.15 
  -7   9  -8    0.72    0.16 
  -8   9  -8    0.41    0.15 
  -8   9  -8    0.28    0.15 
  -9   9  -8    4.40    0.33 
  -9   9  -8    4.26    0.31 
 -10   9  -8    0.15    0.14 
 -10   9  -8    0.07    0.17 
 -11   9  -8    0.01    0.18 
 -12   9  -8    0.21    0.21 
  11   8  -8    0.26    0.21 
  10   8  -8    1.64    0.24 
   9   8  -8    0.16    0.17 
   8   8  -8    0.37    0.16 
   7   8  -8    5.49    0.36 
   6   8  -8    1.57    0.21 
   5   8  -8   21.72    0.89 
   5   8  -8   22.32    0.86 
   4   8  -8   35.49    1.32 
   4   8  -8   35.28    1.35 
   3   8  -8   82.61    2.92 
   3   8  -8   80.41    2.91 
   2   8  -8    4.25    0.26 
   2   8  -8    4.75    0.28 
   1   8  -8    6.77    0.34 
   1   8  -8    7.05    0.35 
  -1  -8   8    6.77    0.28 
   0   8  -8    0.82    0.12 
   0   8  -8    0.70    0.12 
   0  -8   8    0.71    0.08 
  -1   8  -8    4.62    0.25 
  -1   8  -8    4.59    0.28 
   1  -8   8    4.57    0.23 
  -2   8  -8    0.13    0.08 
  -2   8  -8    0.00    0.02 
   2  -8   8    0.02    0.04 
  -3   8  -8   13.86    0.66 
  -3   8  -8   18.24    0.64 
  -4   8  -8   10.36    0.44 
  -4   8  -8    9.87    0.47 
  -5   8  -8   18.09    0.74 
  -5   8  -8   17.38    0.72 
  -6   8  -8   27.89    1.09 
  -6   8  -8   27.91    1.08 
  -7   8  -8    0.30    0.13 
  -7   8  -8    0.27    0.14 
  -8   8  -8    2.23    0.23 
  -8   8  -8    2.85    0.25 
  -9   8  -8    1.02    0.17 
  -9   8  -8    0.96    0.19 
 -10   8  -8    0.24    0.15 
 -10   8  -8    0.27    0.18 
 -11   8  -8   -0.02    0.18 
 -12   8  -8    0.17    0.20 
  11   7  -8    0.14    0.19 
  10   7  -8    1.03    0.21 
   9   7  -8    3.33    0.30 
   8   7  -8   -0.05    0.13 
   7   7  -8    4.61    0.33 
   6   7  -8    6.08    0.37 
   6   7  -8    5.49    0.28 
   5   7  -8    6.87    0.38 
   5   7  -8    7.07    0.33 
  -5  -7   8    7.14    0.33 
   4   7  -8   20.02    0.80 
   4   7  -8   19.72    0.77 
   3   7  -8    0.36    0.11 
   3   7  -8    0.56    0.10 
  -3  -7   8    0.70    0.09 
   2   7  -8    1.56    0.15 
   2   7  -8    1.48    0.14 
  -2  -7   8    1.52    0.13 
   1   7  -8   31.83    1.20 
   1   7  -8   32.06    1.19 
  -1  -7   8   32.89    1.17 
   0   7  -8    0.24    0.10 
   0   7  -8    0.27    0.09 
   0  -7   8    0.25    0.07 
  -1   7  -8   12.25    0.47 
  -1   7  -8    8.45    0.40 
   1  -7   8   10.40    0.41 
  -2   7  -8    0.05    0.07 
  -2   7  -8    0.01    0.06 
  -2   7  -8    0.00    0.02 
  -3   7  -8    0.03    0.08 
  -3   7  -8    0.06    0.09 
  -3   7  -8   -0.01    0.06 
  -4   7  -8    0.70    0.14 
  -4   7  -8    0.67    0.12 
  -5   7  -8   78.62    2.81 
  -5   7  -8   77.42    2.82 
  -6   7  -8   11.31    0.51 
  -6   7  -8   11.41    0.51 
  -7   7  -8   47.46    1.81 
  -7   7  -8   49.42    1.80 
  -8   7  -8    0.19    0.13 
  -8   7  -8    0.05    0.14 
  -9   7  -8    9.31    0.45 
  -9   7  -8    8.77    0.48 
 -10   7  -8    1.77    0.21 
 -10   7  -8    1.72    0.24 
 -11   7  -8    6.10    0.40 
 -12   7  -8    1.15    0.25 
  12   6  -8    0.56    0.22 
  11   6  -8    1.44    0.23 
  10   6  -8    0.18    0.16 
   9   6  -8    0.31    0.15 
   8   6  -8   -0.02    0.13 
  -8  -6   8   -0.06    0.11 
   7   6  -8    5.23    0.33 
  -7  -6   8    5.70    0.31 
   6   6  -8    5.13    0.26 
   6   6  -8    4.92    0.31 
  -6  -6   8    4.91    0.28 
   5   6  -8   15.92    0.62 
   5   6  -8   15.84    0.67 
  -5  -6   8   15.92    0.63 
   4   6  -8    0.51    0.10 
   4   6  -8    0.53    0.12 
   3   6  -8    0.11    0.08 
   3   6  -8    0.09    0.09 
  -3  -6   8    0.00    0.07 
   2   6  -8    0.81    0.11 
   2   6  -8    0.78    0.11 
  -2  -6   8    1.04    0.10 
   1   6  -8   12.72    0.51 
   1   6  -8   12.46    0.53 
  -1  -6   8   13.27    0.50 
   0   6  -8    5.91    0.29 
   0  -6   8    5.75    0.26 
  -1   6  -8   12.97    0.50 
  -1   6  -8   13.24    0.54 
  -2   6  -8   12.11    0.53 
  -2   6  -8   12.89    0.51 
  -2   6  -8   13.21    0.48 
  -3   6  -8    0.53    0.12 
  -3   6  -8    0.44    0.10 
  -3   6  -8    0.59    0.06 
  -4   6  -8    4.94    0.27 
  -4   6  -8    4.57    0.28 
  -5   6  -8    7.32    0.36 
  -5   6  -8    7.11    0.36 
  -6   6  -8    1.37    0.17 
  -6   6  -8    1.32    0.17 
  -7   6  -8   11.49    0.53 
  -7   6  -8   12.16    0.54 
  -8   6  -8    3.12    0.27 
  -8   6  -8    3.62    0.27 
  -9   6  -8    0.72    0.16 
  -9   6  -8    0.85    0.19 
 -10   6  -8    1.60    0.22 
 -10   6  -8    1.74    0.19 
 -11   6  -8    1.17    0.23 
 -12   6  -8   -0.32    0.19 
  12   5  -8    0.23    0.18 
  11   5  -8   -0.01    0.15 
 -11  -5   8    0.15    0.16 
  10   5  -8    0.23    0.16 
 -10  -5   8    0.24    0.15 
   9   5  -8    8.51    0.47 
  -9  -5   8    8.79    0.44 
   8   5  -8    4.32    0.30 
  -8  -5   8    4.40    0.28 
   7   5  -8    5.26    0.33 
  -7  -5   8    4.50    0.29 
   6   5  -8    0.49    0.14 
   6   5  -8    0.66    0.09 
  -6  -5   8    0.18    0.11 
   5   5  -8    0.85    0.10 
   5   5  -8    0.77    0.13 
  -5  -5   8    0.84    0.12 
   4   5  -8   -0.12    0.06 
   4   5  -8    0.01    0.09 
  -4  -5   8    0.15    0.08 
   3   5  -8    7.35    0.34 
   3   5  -8    7.14    0.32 
   2   5  -8   19.90    0.74 
   2   5  -8   19.38    0.74 
  -2  -5   8   19.08    0.73 
   1   5  -8   20.62    0.80 
   1   5  -8   22.12    0.81 
  -1  -5   8   21.65    0.80 
   0   5  -8    0.00    0.07 
   0   5  -8    0.24    0.06 
   0  -5   8    0.04    0.06 
  -1   5  -8   23.32    0.90 
  -1   5  -8   24.09    0.86 
  -2   5  -8   11.52    0.48 
  -2   5  -8   11.33    0.42 
  -2   5  -8   11.13    0.46 
  -3   5  -8    0.61    0.11 
  -3   5  -8    0.57    0.10 
  -4   5  -8   11.27    0.49 
  -4   5  -8   11.26    0.48 
  -5   5  -8    1.31    0.15 
  -5   5  -8    1.22    0.14 
  -6   5  -8    6.18    0.35 
  -6   5  -8    5.84    0.32 
  -7   5  -8    0.36    0.13 
  -7   5  -8    0.31    0.14 
  -8   5  -8    6.99    0.40 
  -8   5  -8    7.43    0.38 
  -9   5  -8   34.50    1.29 
  -9   5  -8   33.42    1.33 
 -10   5  -8    0.30    0.17 
 -11   5  -8    1.22    0.23 
 -12   5  -8    0.57    0.22 
  13   4  -8    0.47    0.22 
 -13  -4   8    0.82    0.22 
  12   4  -8   -0.05    0.18 
 -12  -4   8   -0.01    0.17 
  11   4  -8    4.08    0.32 
 -11  -4   8    4.17    0.33 
  10   4  -8    0.38    0.17 
 -10  -4   8    0.38    0.16 
   9   4  -8   14.46    0.67 
  -9  -4   8   15.95    0.66 
   8   4  -8    0.59    0.15 
  -8  -4   8    0.35    0.14 
  -7  -4   8    1.76    0.18 
   6   4  -8    1.22    0.15 
   6   4  -8    1.27    0.12 
  -6  -4   8    1.30    0.14 
   5   4  -8   20.88    0.81 
   5   4  -8   20.84    0.76 
  -5  -4   8   20.04    0.79 
   4   4  -8   27.40    1.00 
   4   4  -8   27.38    1.03 
  -4  -4   8   27.34    1.02 
   3   4  -8   38.74    1.40 
   3   4  -8   38.51    1.40 
   2   4  -8   62.40    2.23 
   2   4  -8   62.51    2.21 
  -1  -4   8   37.95    1.38 
   0   4  -8   71.45    2.53 
   0   4  -8   70.60    2.49 
  -1   4  -8   12.72    0.47 
  -2   4  -8   59.96    2.11 
  -2   4  -8   59.62    2.18 
  -2   4  -8   62.17    2.18 
  -3   4  -8    3.46    0.21 
  -3   4  -8    3.72    0.22 
  -4   4  -8   11.90    0.50 
  -4   4  -8   12.13    0.51 
  -5   4  -8    3.88    0.25 
  -5   4  -8    3.79    0.25 
  -6   4  -8    4.15    0.27 
  -6   4  -8    4.08    0.27 
  -7   4  -8   12.46    0.52 
  -7   4  -8   11.71    0.55 
  -8   4  -8    6.61    0.35 
  -8   4  -8    6.23    0.39 
  -9   4  -8    1.46    0.22 
  -9   4  -8    1.35    0.17 
 -10   4  -8    5.95    0.40 
 -11   4  -8    0.37    0.18 
 -12   4  -8   -0.19    0.17 
  13   3  -8    0.56    0.20 
 -13  -3   8    0.91    0.21 
  12   3  -8    0.10    0.17 
 -12  -3   8    0.31    0.18 
  11   3  -8    0.99    0.19 
 -11  -3   8    0.88    0.19 
  10   3  -8    2.24    0.24 
 -10  -3   8    2.12    0.23 
   9   3  -8   17.29    0.74 
  -9  -3   8   17.06    0.72 
   8   3  -8   65.15    2.32 
  -8  -3   8   61.99    2.32 
  -7  -3   8    0.41    0.13 
   6   3  -8    2.80    0.22 
   6   3  -8    3.03    0.16 
  -6  -3   8    3.33    0.23 
   5   3  -8   39.00    1.38 
   5   3  -8   38.20    1.41 
  -5  -3   8   38.11    1.41 
   4   3  -8    5.55    0.29 
   4   3  -8    5.79    0.25 
  -4  -3   8    5.47    0.27 
   3   3  -8    2.72    0.17 
   3   3  -8    3.08    0.16 
  -3  -3   8    2.15    0.16 
   2   3  -8    6.12    0.30 
   2   3  -8    8.48    0.32 
   1   3  -8   50.19    1.77 
   1   3  -8   49.79    1.79 
   0   3  -8    1.96    0.15 
   0   3  -8    1.81    0.13 
  -1   3  -8    7.01    0.27 
   1  -3   8    6.98    0.32 
  -2   3  -8   40.15    1.50 
  -2   3  -8   41.93    1.50 
  -3   3  -8   29.09    1.09 
  -3   3  -8   29.60    1.10 
  -4   3  -8   15.24    0.60 
  -4   3  -8   14.31    0.60 
  -5   3  -8   13.37    0.56 
  -5   3  -8   13.54    0.57 
  -6   3  -8   11.92    0.54 
  -6   3  -8   13.12    0.54 
  -7   3  -8    2.47    0.21 
  -7   3  -8    2.38    0.23 
  -8   3  -8   18.80    0.80 
  -8   3  -8   18.92    0.76 
  -9   3  -8    0.04    0.12 
  -9   3  -8    0.20    0.16 
 -10   3  -8    1.45    0.23 
 -11   3  -8    0.32    0.18 
 -12   3  -8    4.95    0.38 
  13   2  -8   -0.02    0.16 
 -13  -2   8   -0.21    0.17 
  12   2  -8   -0.02    0.15 
 -12  -2   8   -0.20    0.16 
  11   2  -8    0.31    0.16 
 -11  -2   8    0.28    0.17 
  10   2  -8    1.11    0.19 
 -10  -2   8    1.15    0.18 
   9   2  -8    0.31    0.15 
  -9  -2   8    0.49    0.15 
   8   2  -8   12.70    0.61 
  -8  -2   8   15.86    0.63 
   6   2  -8   55.66    1.94 
   6   2  -8   54.23    1.99 
  -6  -2   8   55.26    2.01 
   5   2  -8    2.94    0.15 
   5   2  -8    3.10    0.22 
  -5  -2   8    3.30    0.21 
   4   2  -8    1.80    0.17 
   4   2  -8    1.95    0.13 
  -4  -2   8    1.86    0.17 
   3   2  -8   18.62    0.69 
   3   2  -8   18.79    0.71 
  -3  -2   8   18.27    0.71 
   1   2  -8    2.82    0.17 
   1   2  -8    2.74    0.16 
   0   2  -8  109.25    3.55 
   0   2  -8  104.02    3.50 
   0  -2   8   87.82    3.56 
  -1   2  -8    0.49    0.05 
   1  -2   8    0.48    0.09 
  -2   2  -8   26.71    1.01 
  -2   2  -8   27.18    1.00 
  -3   2  -8  165.68    5.83 
  -3   2  -8  163.60    5.79 
  -4   2  -8    0.16    0.09 
  -4   2  -8    0.14    0.09 
  -7   2  -8    0.58    0.13 
  -7   2  -8    0.54    0.13 
  -8   2  -8   11.86    0.52 
  -8   2  -8   11.50    0.56 
  -9   2  -8    2.27    0.24 
  -9   2  -8    2.53    0.22 
 -10   2  -8    2.22    0.25 
 -11   2  -8   -0.24    0.16 
 -12   2  -8    1.31    0.25 
  14   1  -8   -0.18    0.17 
 -14  -1   8   -0.22    0.17 
  13   1  -8    1.01    0.22 
 -13  -1   8    1.31    0.24 
  12   1  -8    4.42    0.34 
 -12  -1   8    5.27    0.37 
  11   1  -8    0.04    0.15 
 -11  -1   8   -0.04    0.15 
  10   1  -8    0.64    0.17 
 -10  -1   8    0.60    0.16 
   9   1  -8   18.38    0.77 
  -9  -1   8   18.49    0.78 
   8   1  -8   44.63    1.90 
  -8  -1   8   59.80    1.94 
   7   1  -8    0.00    0.02 
  -7  -1   8   -0.19    0.10 
   6   1  -8    9.47    0.44 
  -6  -1   8   10.85    0.46 
   5   1  -8    2.23    0.19 
   5   1  -8    2.61    0.14 
  -5  -1   8    2.56    0.18 
   4   1  -8   81.23    2.94 
   4   1  -8   84.21    2.95 
  -4  -1   8   85.48    2.99 
   3   1  -8   12.88    0.52 
   3   1  -8   12.69    0.50 
  -3  -1   8   14.03    0.54 
   2   1  -8   16.66    0.66 
  -2  -1   8   18.39    0.68 
   1   1  -8    1.54    0.13 
   1   1  -8    1.75    0.13 
  -1  -1   8    1.59    0.15 
   0   1  -8    0.47    0.07 
   0   1  -8    0.53    0.09 
   0  -1   8    0.60    0.10 
  -1   1  -8    0.34    0.08 
   1  -1   8    0.54    0.10 
  -2   1  -8    0.23    0.06 
  -2   1  -8    0.49    0.09 
  -3   1  -8   45.89    1.66 
  -4   1  -8    0.34    0.10 
  -4   1  -8    0.44    0.10 
  -5   1  -8    2.41    0.19 
   5  -1   8    2.29    0.14 
  -6   1  -8    6.41    0.33 
  -7   1  -8    0.14    0.14 
  -7   1  -8    0.23    0.11 
  -8   1  -8    6.37    0.39 
  -8   1  -8    6.23    0.33 
  -9   1  -8    1.55    0.22 
 -10   1  -8    6.17    0.41 
 -11   1  -8    0.26    0.18 
 -12   1  -8    0.15    0.21 
  14   0  -8    0.22    0.19 
 -14   0   8    0.40    0.21 
  13   0  -8    1.02    0.21 
 -13   0   8    0.92    0.22 
  12   0  -8    0.55    0.18 
 -12   0   8    0.45    0.18 
  11   0  -8   12.11    0.58 
 -11   0   8   11.62    0.56 
  10   0  -8    0.22    0.14 
 -10   0   8    0.37    0.16 
   9   0  -8    1.48    0.19 
  -9   0   8    1.67    0.20 
   8   0  -8    0.02    0.13 
  -8   0   8   -0.03    0.13 
   6   0  -8    0.42    0.10 
  -6   0   8    0.29    0.10 
   5   0  -8    1.82    0.16 
  -5   0   8    1.73    0.16 
   4   0  -8  120.61    4.24 
  -4   0   8  121.41    4.30 
   3   0  -8    1.03    0.11 
   3   0  -8    1.03    0.10 
  -3   0   8    1.10    0.12 
   2   0  -8  244.04    8.67 
  -2   0   8  252.78    8.75 
   1   0  -8    0.11    0.07 
   1   0  -8    0.32    0.07 
  -1   0   8    0.20    0.08 
   0   0  -8   29.41    1.12 
   0   0   8   31.58    1.13 
  -1   0  -8   26.52    0.92 
   1   0   8   22.76    0.92 
  -2   0  -8    9.96    0.43 
  -2   0  -8   10.11    0.42 
  -3   0  -8   22.65    0.88 
  -3   0  -8   23.35    0.88 
  -4   0  -8   38.16    1.41 
  -4   0  -8   38.32    1.43 
  -5   0  -8    9.02    0.44 
  -5   0  -8    9.00    0.41 
   5   0   8    8.99    0.36 
  -6   0  -8    1.01    0.14 
  -6   0  -8    0.75    0.15 
   6   0   8    0.90    0.11 
  -7   0  -8    5.75    0.31 
  -7   0  -8    5.59    0.36 
  -8   0  -8    0.74    0.18 
  -9   0  -8    6.70    0.41 
 -10   0  -8    0.69    0.20 
 -11   0  -8    0.36    0.19 
 -12   0  -8    0.15    0.21 
  14  -1  -8    0.99    0.22 
 -14   1   8    0.80    0.22 
  13  -1  -8    0.42    0.17 
 -13   1   8    0.46    0.20 
  12  -1  -8    1.92    0.24 
 -12   1   8    1.73    0.23 
  11  -1  -8    9.45    0.48 
 -11   1   8    9.72    0.49 
  10  -1  -8    0.77    0.16 
 -10   1   8    0.75    0.16 
   9  -1  -8    6.72    0.38 
  -9   1   8    6.39    0.38 
   8  -1  -8    4.54    0.29 
  -8   1   8    5.18    0.32 
  -7   1   8    7.38    0.30 
  -7   1   8    7.88    0.39 
  -6   1   8   11.58    0.50 
   5  -1  -8    0.06    0.08 
  -5   1   8   -0.03    0.08 
   4  -1  -8    6.55    0.30 
  -4   1   8    6.39    0.32 
   3  -1  -8   24.25    0.91 
  -3   1   8   25.02    0.93 
   2  -1  -8   52.97    1.64 
  -2   1   8   38.42    1.65 
   0  -1  -8    0.00    0.04 
   0   1   8    0.04    0.06 
  -1  -1  -8    1.58    0.15 
   1   1   8    1.78    0.16 
  -2  -1  -8   23.64    0.91 
  -2  -1  -8   23.60    0.90 
   2   1   8   24.59    0.92 
  -3  -1  -8   17.90    0.71 
  -3  -1  -8   17.71    0.70 
  -4  -1  -8    0.07    0.10 
  -5  -1  -8    0.82    0.14 
  -6  -1  -8    1.63    0.19 
   6   1   8    1.85    0.18 
  -7  -1  -8    2.83    0.26 
  -8  -1  -8    1.08    0.18 
  -9  -1  -8    0.18    0.16 
 -10  -1  -8    0.33    0.18 
 -11  -1  -8    0.31    0.21 
  14  -2  -8    0.25    0.18 
 -14   2   8    0.16    0.20 
  13  -2  -8    0.28    0.16 
 -13   2   8    0.36    0.20 
  12  -2  -8    2.10    0.25 
 -12   2   8    2.06    0.25 
  11  -2  -8    0.87    0.19 
 -11   2   8    1.26    0.20 
  10  -2  -8   19.68    0.82 
 -10   2   8   20.05    0.84 
   9  -2  -8    2.36    0.23 
  -9   2   8    2.16    0.22 
   8  -2  -8    0.83    0.15 
  -8   2   8    1.00    0.16 
   7  -2  -8    0.00    0.08 
  -7   2   8    0.16    0.07 
  -7   2   8    0.09    0.10 
  -5   2   8    2.61    0.19 
   3  -2  -8   31.14    1.02 
  -3   2   8   23.98    1.02 
  -2   2   8    0.14    0.09 
  -1   2   8    4.88    0.26 
   0   2   8   13.74    0.56 
   1   2   8    3.89    0.24 
   2   2   8   11.61    0.49 
  -3  -2  -8    7.89    0.37 
  -4  -2  -8   21.87    0.87 
  -5  -2  -8    6.48    0.36 
  -6  -2  -8    3.64    0.27 
   6   2   8    3.51    0.25 
  -7  -2  -8    3.67    0.28 
   7   2   8    3.70    0.26 
  -8  -2  -8    1.41    0.21 
  -9  -2  -8    0.18    0.16 
 -10  -2  -8    6.07    0.42 
 -11  -2  -8    0.61    0.21 
  14  -3  -8    0.08    0.18 
 -14   3   8    0.15    0.20 
  13  -3  -8    2.11    0.24 
 -13   3   8    1.84    0.26 
  12  -3  -8    6.63    0.40 
 -12   3   8    7.14    0.41 
  11  -3  -8   -0.15    0.14 
 -11   3   8    0.10    0.15 
  10  -3  -8    2.08    0.22 
 -10   3   8    2.59    0.25 
   9  -3  -8    2.60    0.24 
  -9   3   8    2.52    0.24 
   6  -3  -8   -0.02    0.02 
  -6   3   8    0.01    0.03 
  -6   3   8    0.12    0.06 
   5  -3  -8    6.67    0.32 
  -5   3   8    6.89    0.33 
   4  -3  -8   18.52    0.72 
  -4   3   8   18.60    0.73 
  -3   3   8    1.00    0.13 
  -2   3   8    3.69    0.23 
  -1   3   8   40.44    1.49 
   0   3   8    0.45    0.10 
   1   3   8    0.34    0.10 
   2   3   8    8.45    0.39 
  -3  -3  -8    0.32    0.11 
   3   3   8    0.19    0.11 
  -4  -3  -8    3.87    0.27 
  -5  -3  -8    0.97    0.17 
  -6  -3  -8    0.13    0.14 
  -7  -3  -8   12.62    0.61 
   7   3   8   13.81    0.58 
  -8  -3  -8    6.73    0.41 
  -9  -3  -8    7.21    0.44 
 -10  -3  -8    1.69    0.24 
 -11  -3  -8    0.72    0.21 
  14  -4  -8    0.53    0.20 
 -14   4   8    0.36    0.20 
  13  -4  -8   -0.21    0.16 
 -13   4   8    0.04    0.16 
  12  -4  -8   -0.14    0.14 
 -12   4   8    0.09    0.17 
  11  -4  -8   -0.02    0.13 
 -11   4   8    0.10    0.16 
  10  -4  -8    8.02    0.42 
 -10   4   8    7.99    0.43 
   9  -4  -8    1.26    0.18 
  -9   4   8    1.02    0.18 
   8  -4  -8    7.52    0.38 
  -8   4   8    6.60    0.37 
   7  -4  -8    1.82    0.18 
  -7   4   8    2.03    0.20 
  -7   4   8    2.29    0.18 
  -6   4   8   11.92    0.49 
  -6   4   8   12.14    0.53 
  -5   4   8    0.85    0.13 
  -5   4   8    1.03    0.12 
  -4   4   8    0.11    0.10 
  -3   4   8   44.19    1.62 
  -2   4   8    5.21    0.28 
  -1   4   8   11.52    0.49 
   0   4   8   20.90    0.81 
   1   4   8   10.29    0.46 
   2   4   8    2.61    0.20 
   3   4   8   17.49    0.72 
  -4  -4  -8    0.31    0.14 
   4   4   8    0.32    0.15 
  -5  -4  -8   20.68    0.85 
  -6  -4  -8   10.78    0.51 
  -7  -4  -8    1.36    0.20 
   7   4   8    1.49    0.19 
  -8  -4  -8   21.60    0.91 
  -9  -4  -8    3.35    0.32 
 -10  -4  -8    0.01    0.19 
  14  -5  -8    1.11    0.22 
 -14   5   8    1.02    0.24 
  13  -5  -8    1.19    0.22 
 -13   5   8    1.53    0.24 
  12  -5  -8    1.55    0.22 
 -12   5   8    1.37    0.23 
  11  -5  -8    0.78    0.18 
 -11   5   8    0.75    0.19 
  10  -5  -8    0.83    0.16 
 -10   5   8    1.19    0.20 
   9  -5  -8    0.89    0.16 
  -9   5   8    0.93    0.19 
   8  -5  -8    1.67    0.19 
  -8   5   8    1.70    0.15 
  -8   5   8    1.22    0.19 
  -7   5   8   13.93    0.61 
  -7   5   8   14.52    0.58 
  -6   5   8  117.35    4.13 
  -6   5   8  116.33    4.18 
  -5   5   8    0.12    0.10 
  -5   5   8    0.24    0.12 
  -4   5   8   56.42    2.06 
  -3   5   8   17.57    0.70 
  -2   5   8    9.11    0.41 
  -1   5   8    0.03    0.09 
   0   5   8    0.11    0.10 
   1   5   8    0.09    0.11 
   2   5   8    0.86    0.14 
   3   5   8    3.16    0.24 
   4   5   8    1.05    0.18 
  -5  -5  -8    7.23    0.40 
   5   5   8    7.68    0.41 
  -6  -5  -8    0.14    0.15 
  -7  -5  -8    3.58    0.30 
   7   5   8    3.62    0.32 
  -8  -5  -8    0.48    0.18 
  -9  -5  -8    0.59    0.20 
 -10  -5  -8    1.09    0.24 
  14  -6  -8    2.33    0.28 
 -14   6   8    2.22    0.29 
  13  -6  -8    0.03    0.17 
 -13   6   8    0.15    0.17 
  12  -6  -8   -0.02    0.16 
 -12   6   8    0.05    0.15 
  11  -6  -8    0.07    0.15 
 -11   6   8    0.00    0.14 
 -10   6   8    0.09    0.14 
  -9   6   8    0.45    0.17 
  -8   6   8   11.24    0.55 
  -8   6   8   11.69    0.50 
  -7   6   8   15.50    0.63 
  -7   6   8   15.03    0.67 
  -6   6   8    3.55    0.29 
  -6   6   8    3.62    0.26 
  -5   6   8   37.79    1.42 
  -5   6   8   37.84    1.40 
  -4   6   8    3.58    0.24 
  -4   6   8    3.57    0.25 
  -3   6   8    2.62    0.21 
  -3   6   8    2.81    0.22 
  -2   6   8   -0.08    0.10 
  -1   6   8    0.98    0.14 
   0   6   8    8.19    0.38 
   1   6   8    0.32    0.12 
   2   6   8    1.45    0.17 
   3   6   8    1.17    0.17 
   4   6   8    1.12    0.18 
   5   6   8   -0.21    0.14 
  -6  -6  -8    0.60    0.16 
   6   6   8    0.38    0.16 
  -7  -6  -8    1.13    0.19 
   7   6   8    1.24    0.21 
  -8  -6  -8    0.15    0.17 
  -9  -6  -8    0.84    0.22 
 -13   7   8    0.15    0.19 
 -12   7   8   -0.01    0.17 
 -11   7   8    0.88    0.18 
 -10   7   8   -0.06    0.15 
  -9   7   8    0.82    0.17 
  -8   7   8   12.95    0.59 
  -8   7   8   13.05    0.56 
  -7   7   8   26.66    1.06 
  -7   7   8   26.60    1.03 
  -6   7   8    6.30    0.35 
  -6   7   8    5.84    0.35 
  -5   7   8   31.24    1.20 
  -5   7   8   31.77    1.20 
  -4   7   8   -0.04    0.11 
  -4   7   8    0.08    0.12 
  -3   7   8    4.23    0.28 
  -3   7   8    4.34    0.27 
  -2   7   8   17.76    0.72 
  -2   7   8   17.10    0.70 
  -1   7   8    0.50    0.13 
   0   7   8    0.24    0.12 
   1   7   8    2.19    0.21 
   2   7   8    7.54    0.39 
   3   7   8    0.96    0.18 
   4   7   8    4.33    0.31 
   5   7   8   -0.04    0.15 
   6   7   8   -0.03    0.15 
   6   7   8    0.04    0.15 
   7   7   8   -0.30    0.15 
   7   7   8    0.22    0.17 
 -13   8   8   -0.11    0.17 
 -12   8   8    0.66    0.19 
 -11   8   8    0.93    0.21 
 -10   8   8    2.81    0.27 
  -9   8   8    3.61    0.28 
  -8   8   8    1.48    0.18 
  -8   8   8    1.56    0.21 
  -7   8   8    3.28    0.27 
  -7   8   8    3.45    0.27 
  -6   8   8   12.30    0.56 
  -6   8   8   12.34    0.56 
  -5   8   8    0.83    0.16 
  -5   8   8    1.19    0.17 
  -4   8   8    5.47    0.32 
  -4   8   8    5.45    0.31 
  -3   8   8    7.74    0.42 
  -3   8   8    8.00    0.39 
  -2   8   8    1.36    0.18 
  -2   8   8    1.58    0.17 
  -1   8   8    0.01    0.12 
  -1   8   8    0.06    0.13 
   0   8   8   30.96    1.17 
   0   8   8   30.44    1.20 
   1   8   8    1.09    0.18 
   1   8   8    0.62    0.15 
   2   8   8   27.52    1.08 
   2   8   8   28.16    1.11 
   3   8   8    0.07    0.15 
   3   8   8    0.11    0.16 
   4   8   8    0.29    0.17 
   4   8   8   -0.08    0.14 
   5   8   8   -0.03    0.15 
   6   8   8    0.65    0.19 
   7   8   8    6.20    0.42 
 -13   9   8    0.82    0.23 
 -12   9   8    1.64    0.25 
 -11   9   8    0.33    0.19 
 -10   9   8    0.75    0.18 
  -9   9   8    0.29    0.14 
  -9   9   8    0.51    0.17 
  -8   9   8    1.43    0.19 
  -8   9   8    1.65    0.20 
  -7   9   8    4.99    0.33 
  -7   9   8    5.36    0.34 
  -6   9   8    4.64    0.32 
  -6   9   8    3.79    0.30 
  -5   9   8   17.76    0.73 
  -5   9   8   17.25    0.75 
  -4   9   8    0.47    0.17 
  -4   9   8    0.58    0.15 
  -3   9   8    3.59    0.27 
  -3   9   8    3.90    0.31 
  -2   9   8    1.73    0.21 
  -2   9   8    1.82    0.19 
  -1   9   8    4.76    0.29 
  -1   9   8    4.58    0.33 
   0   9   8   -0.13    0.12 
   0   9   8    0.02    0.14 
   1   9   8    0.11    0.14 
   1   9   8    0.65    0.18 
   2   9   8    9.26    0.49 
   3   9   8    0.36    0.18 
   4   9   8    1.09    0.21 
   5   9   8    0.34    0.18 
   6   9   8    0.07    0.17 
 -12  10   8   -0.03    0.18 
 -11  10   8    0.55    0.20 
 -10  10   8    0.14    0.17 
  -9  10   8    0.54    0.17 
  -9  10   8    0.34    0.15 
  -8  10   8    0.11    0.15 
  -8  10   8   -0.20    0.13 
  -7  10   8    1.41    0.20 
  -7  10   8    1.62    0.20 
  -6  10   8    0.06    0.15 
  -6  10   8    0.32    0.15 
  -5  10   8    0.10    0.14 
  -5  10   8    0.19    0.14 
  -4  10   8   19.59    0.80 
  -4  10   8   19.41    0.83 
  -3  10   8    4.91    0.30 
  -3  10   8    4.06    0.32 
  -2  10   8    1.89    0.23 
  -2  10   8    1.81    0.19 
  -1  10   8    2.89    0.28 
   0  10   8    8.37    0.46 
   1  10   8    1.59    0.22 
   2  10   8    1.89    0.25 
   3  10   8    6.03    0.39 
   4  10   8    0.05    0.17 
   5  10   8   -0.04    0.17 
   6  10   8    0.24    0.19 
 -11  11   8    0.79    0.21 
 -10  11   8    2.22    0.26 
  -9  11   8    1.53    0.21 
  -9  11   8    1.73    0.23 
  -8  11   8    2.09    0.23 
  -8  11   8    2.10    0.23 
  -7  11   8    0.44    0.17 
  -7  11   8    0.57    0.17 
  -6  11   8    0.51    0.16 
  -6  11   8    0.78    0.17 
  -5  11   8    0.14    0.16 
  -5  11   8   -0.05    0.13 
  -4  11   8    0.54    0.17 
  -3  11   8    0.23    0.16 
  -2  11   8    1.27    0.21 
  -1  11   8    1.47    0.22 
   0  11   8    0.19    0.19 
   1  11   8   -0.09    0.16 
   2  11   8    0.04    0.18 
   3  11   8    0.03    0.17 
   4  11   8    0.13    0.19 
   5  11   8    0.20    0.19 
 -11  12   8    0.03    0.19 
 -10  12   8    1.39    0.23 
  -9  12   8    0.08    0.16 
  -9  12   8    0.33    0.18 
  -8  12   8    2.35    0.26 
  -7  12   8    0.08    0.16 
  -6  12   8    0.89    0.19 
  -5  12   8   -0.02    0.16 
  -4  12   8   -0.08    0.16 
  -3  12   8    0.18    0.18 
  -2  12   8    1.37    0.22 
  -1  12   8    2.32    0.28 
   0  12   8    0.75    0.20 
   1  12   8    6.52    0.45 
   2  12   8    0.73    0.22 
   3  12   8   -0.10    0.19 
  -9  13   8    0.19    0.18 
  -8  13   8    0.34    0.18 
  -7  13   8    0.14    0.17 
  -6  13   8    0.56    0.19 
  -5  13   8    5.13    0.39 
  -4  13   8    0.08    0.17 
  -3  13   8    0.10    0.17 
  -2  13   8    0.38    0.19 
  -1  13   8    0.44    0.21 
   0  13   8   -0.13    0.19 
   1  13   8    1.26    0.25 
   2  13   8    0.01    0.20 
  -8  14   8    0.16    0.19 
  -7  14   8    1.40    0.25 
  -6  14   8    0.25    0.18 
  -5  14   8    1.16    0.24 
  -4  14   8    0.05    0.18 
  -3  14   8    2.36    0.29 
  -2  14   8    0.01    0.19 
  -1  14   8   -0.09    0.20 
   0  14   8    1.08    0.26 
   1  16  -9    0.68    0.23 
   1  16  -9    0.50    0.21 
   0  16  -9    0.03    0.19 
   0  16  -9    0.44    0.21 
  -1  16  -9    0.04    0.20 
  -2  16  -9    3.73    0.35 
  -3  16  -9    0.27    0.18 
  -4  16  -9    0.05    0.19 
  -5  16  -9    0.01    0.18 
   3  15  -9    0.27    0.19 
   3  15  -9    0.36    0.19 
   2  15  -9    4.61    0.37 
   2  15  -9    4.21    0.35 
   1  15  -9    0.35    0.18 
   1  15  -9    0.58    0.20 
   0  15  -9    2.13    0.26 
   0  15  -9    2.09    0.26 
  -1  15  -9    0.36    0.18 
  -1  15  -9    0.28    0.18 
  -2  15  -9    1.80    0.25 
  -3  15  -9    5.70    0.40 
  -4  15  -9    7.96    0.47 
  -5  15  -9    3.55    0.34 
  -6  15  -9    0.26    0.19 
  -7  15  -9    0.69    0.22 
   5  14  -9    0.64    0.21 
   4  14  -9    0.69    0.20 
   4  14  -9    0.54    0.18 
   3  14  -9    0.58    0.21 
   3  14  -9    0.82    0.19 
   2  14  -9    1.13    0.22 
   2  14  -9    1.07    0.20 
   1  14  -9    0.19    0.17 
   1  14  -9   -0.25    0.15 
   0  14  -9    0.03    0.15 
   0  14  -9   -0.19    0.14 
  -1  14  -9    0.16    0.15 
  -1  14  -9   -0.10    0.16 
  -2  14  -9    0.17    0.17 
  -3  14  -9    0.44    0.18 
  -4  14  -9   -0.01    0.15 
  -5  14  -9    1.99    0.25 
  -6  14  -9    2.36    0.27 
  -7  14  -9    0.23    0.19 
  -8  14  -9    0.17    0.18 
  -9  14  -9    0.60    0.20 
   6  13  -9    1.52    0.24 
   5  13  -9   -0.11    0.18 
   4  13  -9    0.29    0.16 
   4  13  -9    0.28    0.18 
   3  13  -9    1.10    0.21 
   3  13  -9    1.12    0.20 
   2  13  -9    1.14    0.19 
   2  13  -9    1.27    0.21 
   1  13  -9    0.38    0.17 
   1  13  -9    0.16    0.16 
   0  13  -9    2.54    0.26 
   0  13  -9    2.88    0.26 
  -1  13  -9    0.81    0.17 
  -1  13  -9    0.36    0.17 
  -2  13  -9    0.09    0.16 
  -3  13  -9   -0.16    0.13 
  -4  13  -9    0.85    0.19 
  -5  13  -9    0.84    0.19 
  -6  13  -9    0.33    0.17 
  -7  13  -9    5.67    0.41 
  -8  13  -9    0.09    0.18 
  -9  13  -9   -0.03    0.18 
 -10  13  -9    0.03    0.18 
   7  12  -9    2.16    0.27 
   6  12  -9    2.78    0.30 
   5  12  -9    6.89    0.45 
   4  12  -9   -0.06    0.14 
   4  12  -9    0.19    0.14 
   3  12  -9    1.08    0.18 
   3  12  -9    0.76    0.17 
   2  12  -9   -0.15    0.12 
   2  12  -9    0.00    0.14 
   1  12  -9    0.45    0.16 
   1  12  -9    0.47    0.16 
   0  12  -9    0.07    0.13 
   0  12  -9    0.18    0.13 
  -1  12  -9    0.73    0.15 
  -1  12  -9    0.19    0.15 
  -2  12  -9    0.15    0.14 
  -3  12  -9    2.14    0.23 
  -4  12  -9    1.22    0.20 
  -5  12  -9    5.92    0.37 
  -6  12  -9    8.29    0.47 
  -7  12  -9    0.89    0.20 
  -8  12  -9    5.46    0.39 
  -9  12  -9    6.13    0.41 
 -10  12  -9    0.04    0.17 
   8  11  -9    0.07    0.17 
   7  11  -9    1.04    0.22 
   6  11  -9    0.84    0.19 
   5  11  -9   -0.02    0.15 
   5  11  -9   -0.09    0.12 
   4  11  -9   14.62    0.68 
   4  11  -9   14.86    0.65 
   3  11  -9   15.50    0.67 
   3  11  -9   15.24    0.69 
   2  11  -9    0.14    0.13 
   2  11  -9    0.11    0.13 
   1  11  -9    0.44    0.14 
   1  11  -9    0.23    0.14 
   0  11  -9   24.68    0.99 
   0  11  -9   24.06    0.96 
  -1  11  -9    0.50    0.14 
  -1  11  -9    0.36    0.15 
  -2  11  -9    5.45    0.35 
  -3  11  -9   12.30    0.58 
  -4  11  -9    0.39    0.15 
  -5  11  -9   10.91    0.55 
  -6  11  -9    3.84    0.31 
  -7  11  -9   -0.27    0.13 
  -7  11  -9   -0.08    0.14 
  -8  11  -9    0.47    0.17 
  -8  11  -9    0.44    0.17 
  -9  11  -9    0.25    0.17 
  -9  11  -9    0.03    0.16 
 -10  11  -9    0.66    0.19 
 -10  11  -9    0.57    0.20 
 -11  11  -9    0.70    0.22 
   9  10  -9    2.68    0.30 
   8  10  -9    1.64    0.25 
   7  10  -9    3.72    0.34 
   6  10  -9    0.37    0.16 
   5  10  -9    5.58    0.33 
   5  10  -9    5.63    0.36 
   4  10  -9    6.24    0.35 
   4  10  -9    6.72    0.40 
   3  10  -9    0.15    0.14 
   3  10  -9    0.10    0.12 
   2  10  -9    0.48    0.15 
   2  10  -9    0.32    0.13 
   1  10  -9    8.28    0.42 
   1  10  -9    8.15    0.43 
   0  10  -9    0.39    0.15 
   0  10  -9    0.60    0.14 
  -1  10  -9    8.73    0.46 
  -1  10  -9    9.45    0.42 
  -2  10  -9    1.83    0.17 
  -2  10  -9    1.58    0.20 
  -3  10  -9    3.53    0.27 
  -4  10  -9    5.50    0.30 
  -4  10  -9    5.85    0.35 
  -5  10  -9   20.96    0.83 
  -5  10  -9   20.66    0.87 
  -6  10  -9    2.48    0.22 
  -6  10  -9    2.34    0.24 
  -7  10  -9    4.48    0.34 
  -7  10  -9    5.38    0.33 
  -8  10  -9    0.34    0.15 
  -8  10  -9    0.05    0.14 
  -9  10  -9    1.25    0.20 
  -9  10  -9    0.95    0.19 
 -10  10  -9    2.61    0.27 
 -10  10  -9    3.06    0.29 
 -11  10  -9   -0.09    0.19 
  10   9  -9    0.23    0.19 
   9   9  -9    0.15    0.16 
   8   9  -9    2.24    0.25 
   7   9  -9    2.27    0.24 
   6   9  -9    5.29    0.37 
   5   9  -9    3.32    0.25 
   5   9  -9    3.91    0.32 
   4   9  -9   -0.01    0.11 
   4   9  -9    0.18    0.14 
   3   9  -9    0.97    0.15 
   3   9  -9    1.35    0.18 
   2   9  -9    0.40    0.14 
   2   9  -9    0.16    0.11 
   1   9  -9    7.27    0.37 
   1   9  -9    7.35    0.37 
   0   9  -9    4.30    0.26 
   0   9  -9    3.89    0.27 
  -1   9  -9    9.84    0.47 
  -1   9  -9    9.68    0.42 
  -2   9  -9    0.36    0.10 
   2  -9   9    0.28    0.09 
  -3   9  -9    1.79    0.17 
  -3   9  -9    2.01    0.15 
  -3   9  -9    1.08    0.16 
  -4   9  -9    3.30    0.27 
  -4   9  -9    3.21    0.24 
  -5   9  -9    4.31    0.28 
  -5   9  -9    4.18    0.30 
  -6   9  -9    0.77    0.16 
  -6   9  -9    0.66    0.17 
  -7   9  -9    9.61    0.49 
  -7   9  -9    9.56    0.47 
  -8   9  -9    5.09    0.34 
  -8   9  -9    5.19    0.35 
  -9   9  -9    0.11    0.15 
  -9   9  -9    0.10    0.14 
 -10   9  -9    0.11    0.17 
 -10   9  -9    0.26    0.15 
 -11   9  -9    1.46    0.23 
 -12   9  -9    0.47    0.22 
  11   8  -9    1.08    0.25 
  10   8  -9   -0.10    0.15 
   9   8  -9    0.12    0.16 
   8   8  -9    0.20    0.15 
   7   8  -9    1.19    0.19 
   6   8  -9    7.72    0.43 
   5   8  -9   11.04    0.53 
   5   8  -9   11.69    0.50 
   4   8  -9    5.24    0.31 
   4   8  -9    5.80    0.34 
   3   8  -9    6.06    0.34 
   3   8  -9    6.96    0.37 
   2   8  -9    1.89    0.18 
   2   8  -9    1.79    0.18 
   1   8  -9   15.62    0.64 
   1   8  -9   15.80    0.65 
  -1  -8   9   15.91    0.60 
   0   8  -9    0.00    0.09 
   0   8  -9    0.21    0.11 
   0  -8   9    0.05    0.07 
  -1   8  -9   18.71    0.75 
  -1   8  -9   18.55    0.71 
  -2   8  -9    0.01    0.06 
  -2   8  -9    0.00    0.02 
   2  -8   9    0.11    0.09 
  -3   8  -9   15.79    0.59 
  -3   8  -9   14.99    0.61 
  -4   8  -9    2.95    0.24 
  -4   8  -9    2.74    0.22 
  -5   8  -9   -0.07    0.14 
  -5   8  -9    0.08    0.12 
  -6   8  -9    3.09    0.25 
  -6   8  -9    2.89    0.26 
  -7   8  -9    0.08    0.14 
  -7   8  -9    0.28    0.15 
  -8   8  -9    1.36    0.19 
  -8   8  -9    1.17    0.19 
  -9   8  -9   17.94    0.78 
  -9   8  -9   17.86    0.76 
 -10   8  -9    0.09    0.14 
 -10   8  -9   -0.06    0.15 
 -11   8  -9    3.01    0.31 
 -12   8  -9    1.33    0.26 
  11   7  -9    0.04    0.18 
  10   7  -9    1.37    0.23 
   9   7  -9    0.21    0.16 
   8   7  -9    1.28    0.21 
   7   7  -9    1.01    0.17 
   6   7  -9    6.01    0.37 
   6   7  -9    6.49    0.31 
   5   7  -9   44.51    1.66 
   5   7  -9   44.84    1.62 
  -5  -7   9   44.10    1.62 
   4   7  -9   -0.02    0.12 
   4   7  -9   -0.04    0.09 
  -4  -7   9    0.12    0.06 
   3   7  -9   24.65    0.97 
   3   7  -9   25.52    0.96 
   2   7  -9   -0.03    0.09 
   2   7  -9   -0.02    0.09 
  -2  -7   9    0.01    0.07 
   1   7  -9    0.39    0.10 
   1   7  -9    0.37    0.11 
  -1  -7   9    0.48    0.09 
   0   7  -9    8.76    0.41 
   0   7  -9    9.20    0.39 
  -1   7  -9   -0.02    0.05 
  -1   7  -9   -0.03    0.10 
   1  -7   9    0.15    0.07 
  -2   7  -9   29.88    1.05 
  -2   7  -9   28.13    1.07 
   2  -7   9   28.87    1.08 
  -3   7  -9   14.10    0.60 
  -3   7  -9   14.30    0.53 
  -3   7  -9   14.30    0.57 
  -4   7  -9   43.35    1.58 
  -4   7  -9   41.41    1.56 
  -5   7  -9    0.26    0.14 
  -5   7  -9    0.33    0.13 
  -6   7  -9   20.09    0.81 
  -6   7  -9   19.66    0.81 
  -7   7  -9    3.71    0.27 
  -7   7  -9    3.84    0.30 
  -8   7  -9   -0.09    0.12 
  -8   7  -9    0.21    0.14 
  -9   7  -9    0.99    0.17 
  -9   7  -9    0.74    0.19 
 -10   7  -9    0.03    0.14 
 -10   7  -9    0.19    0.16 
 -11   7  -9    1.93    0.26 
 -12   7  -9    0.05    0.20 
  12   6  -9    0.80    0.22 
  11   6  -9    0.21    0.17 
  10   6  -9    0.05    0.15 
   9   6  -9    3.31    0.30 
   8   6  -9    3.90    0.30 
  -8  -6   9    4.62    0.29 
   7   6  -9    0.68    0.18 
  -7  -6   9    0.77    0.14 
   6   6  -9    4.48    0.23 
   6   6  -9    3.63    0.28 
  -6  -6   9    3.22    0.25 
   5   6  -9   15.57    0.67 
   5   6  -9   16.48    0.63 
  -5  -6   9   16.14    0.64 
   4   6  -9    3.97    0.25 
   4   6  -9    3.27    0.22 
  -4  -6   9    4.05    0.23 
   3   6  -9    0.19    0.10 
   3   6  -9    0.24    0.09 
   2   6  -9    0.57    0.11 
   2   6  -9    0.67    0.11 
   1   6  -9    8.37    0.36 
   1   6  -9    8.40    0.38 
   0   6  -9    0.04    0.08 
   0   6  -9    0.02    0.06 
   0  -6   9   -0.03    0.03 
  -1   6  -9    1.34    0.11 
  -1   6  -9    1.25    0.14 
   1  -6   9    1.50    0.15 
  -2   6  -9    8.13    0.32 
  -2   6  -9    7.80    0.35 
   2  -6   9    8.36    0.36 
  -3   6  -9    0.45    0.05 
  -3   6  -9    0.21    0.10 
  -3   6  -9    0.31    0.10 
  -4   6  -9   58.28    2.07 
  -4   6  -9   54.84    2.06 
  -5   6  -9   31.52    1.19 
  -5   6  -9   30.75    1.19 
  -6   6  -9   14.59    0.61 
  -6   6  -9   13.81    0.61 
  -7   6  -9    1.69    0.21 
  -7   6  -9    1.46    0.18 
  -8   6  -9   10.13    0.48 
  -8   6  -9    9.22    0.49 
  -9   6  -9    2.86    0.26 
  -9   6  -9    3.72    0.29 
 -10   6  -9    1.97    0.25 
 -10   6  -9    1.59    0.20 
 -11   6  -9    8.14    0.49 
 -12   6  -9    6.22    0.45 
  12   5  -9   -0.10    0.18 
  11   5  -9    0.00    0.16 
 -11  -5   9    0.29    0.16 
  10   5  -9    0.45    0.17 
 -10  -5   9    0.57    0.16 
   9   5  -9    0.29    0.14 
  -9  -5   9    0.32    0.14 
   8   5  -9   14.05    0.65 
  -8  -5   9   15.29    0.63 
   7   5  -9   37.21    1.40 
  -7  -5   9   36.71    1.38 
   6   5  -9    4.33    0.29 
   6   5  -9    4.31    0.23 
  -6  -5   9    3.95    0.26 
   5   5  -9    6.75    0.36 
   5   5  -9    6.43    0.30 
  -5  -5   9    6.38    0.32 
   4   5  -9    1.98    0.17 
   4   5  -9    2.06    0.18 
  -4  -5   9    2.05    0.18 
   3   5  -9    3.52    0.22 
   3   5  -9    3.84    0.21 
  -3  -5   9    3.49    0.20 
   2   5  -9   12.14    0.50 
   2   5  -9   12.29    0.50 
   1   5  -9   22.93    0.86 
   1   5  -9   22.60    0.84 
   0   5  -9    0.05    0.06 
   0   5  -9    0.07    0.08 
   0  -5   9    0.06    0.07 
  -1   5  -9   42.05    1.47 
  -1   5  -9   42.63    1.53 
   1  -5   9   39.92    1.51 
  -2   5  -9   22.65    0.80 
  -2   5  -9   21.62    0.85 
  -2   5  -9   22.65    0.86 
  -3   5  -9   25.79    0.97 
  -3   5  -9   25.06    0.96 
  -4   5  -9   13.04    0.55 
  -4   5  -9   12.62    0.54 
  -5   5  -9    7.21    0.37 
  -5   5  -9    7.35    0.37 
  -6   5  -9    0.05    0.13 
  -6   5  -9   -0.10    0.10 
  -7   5  -9    0.32    0.14 
  -7   5  -9    0.70    0.16 
  -8   5  -9    7.41    0.39 
  -8   5  -9    7.81    0.42 
  -9   5  -9    7.75    0.43 
  -9   5  -9    7.04    0.39 
 -10   5  -9    0.40    0.19 
 -11   5  -9    0.73    0.22 
 -12   5  -9    0.10    0.20 
  13   4  -9    5.04    0.41 
 -13  -4   9    4.39    0.37 
  12   4  -9    4.35    0.35 
 -12  -4   9    4.50    0.37 
  11   4  -9    1.23    0.22 
 -11  -4   9    1.37    0.21 
  10   4  -9    2.28    0.25 
 -10  -4   9    2.79    0.27 
   9   4  -9    9.34    0.49 
  -9  -4   9    9.28    0.46 
   8   4  -9   39.70    1.53 
  -8  -4   9   41.41    1.53 
   7   4  -9   15.34    0.65 
  -7  -4   9   14.56    0.63 
   6   4  -9    0.24    0.07 
   6   4  -9    0.31    0.12 
  -6  -4   9    0.02    0.11 
   5   4  -9    6.40    0.34 
   5   4  -9    6.20    0.28 
  -5  -4   9    6.33    0.31 
   4   4  -9    2.19    0.20 
   4   4  -9    2.12    0.15 
  -4  -4   9    2.01    0.18 
   3   4  -9   10.04    0.43 
   3   4  -9    9.98    0.41 
  -3  -4   9    9.63    0.41 
   2   4  -9   11.52    0.46 
   2   4  -9   11.42    0.46 
  -2  -4   9   10.49    0.45 
   1   4  -9    3.17    0.20 
  -1  -4   9    2.93    0.19 
   0   4  -9    0.42    0.09 
   0   4  -9    0.52    0.07 
   0  -4   9    0.40    0.09 
  -1   4  -9    4.32    0.18 
  -1   4  -9    3.01    0.21 
   1  -4   9    4.29    0.23 
  -2   4  -9    3.92    0.16 
  -2   4  -9    3.94    0.23 
  -2   4  -9    4.02    0.23 
  -3   4  -9    3.63    0.24 
  -3   4  -9    3.72    0.22 
  -4   4  -9    1.93    0.17 
  -4   4  -9    1.86    0.18 
  -5   4  -9   12.32    0.53 
  -5   4  -9   12.00    0.52 
  -6   4  -9    0.12    0.12 
  -6   4  -9    0.12    0.14 
  -7   4  -9    2.06    0.19 
  -7   4  -9    1.84    0.22 
  -8   4  -9    7.84    0.44 
  -8   4  -9    7.57    0.39 
  -9   4  -9    1.66    0.19 
  -9   4  -9    1.57    0.23 
 -10   4  -9    4.89    0.36 
 -11   4  -9    0.00    0.17 
 -12   4  -9    0.06    0.18 
  13   3  -9    4.36    0.38 
 -13  -3   9    4.40    0.37 
  12   3  -9   -0.03    0.15 
 -12  -3   9   -0.26    0.15 
  11   3  -9    2.09    0.24 
 -11  -3   9    2.22    0.24 
  10   3  -9    3.88    0.30 
 -10  -3   9    4.02    0.30 
   9   3  -9    5.34    0.36 
  -9  -3   9    5.95    0.35 
   8   3  -9    3.24    0.29 
  -8  -3   9    2.98    0.27 
  -7  -3   9    2.96    0.24 
   6   3  -9   17.09    0.69 
   6   3  -9   16.59    0.62 
  -6  -3   9   16.60    0.68 
   5   3  -9    5.06    0.23 
   5   3  -9    4.91    0.28 
  -5  -3   9    5.25    0.28 
   4   3  -9   26.03    0.97 
   4   3  -9   26.04    0.95 
  -4  -3   9   25.37    0.97 
   3   3  -9   25.34    0.94 
   3   3  -9   24.85    0.93 
  -3  -3   9   24.91    0.94 
   2   3  -9   72.36    2.56 
   2   3  -9   72.34    2.58 
  -2  -3   9   72.83    2.60 
   1   3  -9    0.34    0.08 
   1   3  -9    0.25    0.06 
  -1  -3   9    0.33    0.08 
   0   3  -9   20.98    0.80 
   0   3  -9   20.81    0.76 
   0  -3   9   21.23    0.80 
  -1   3  -9   27.27    0.96 
   1  -3   9   27.09    1.02 
  -2   3  -9    0.66    0.11 
  -2   3  -9    0.64    0.10 
   2  -3   9    0.60    0.11 
  -3   3  -9    1.75    0.16 
  -3   3  -9    1.29    0.14 
  -4   3  -9   32.59    1.26 
  -4   3  -9   34.95    1.26 
  -5   3  -9    3.83    0.27 
  -5   3  -9    3.89    0.24 
  -6   3  -9    0.19    0.13 
  -6   3  -9    0.08    0.11 
  -7   3  -9    0.89    0.17 
  -7   3  -9    0.68    0.14 
  -8   3  -9    0.17    0.12 
  -8   3  -9    0.31    0.15 
  -9   3  -9    8.66    0.48 
  -9   3  -9    9.41    0.44 
 -10   3  -9    3.17    0.30 
 -11   3  -9   -0.15    0.17 
 -12   3  -9    0.18    0.21 
  13   2  -9   -0.03    0.18 
 -13  -2   9   -0.07    0.18 
  12   2  -9    1.78    0.24 
 -12  -2   9    1.45    0.23 
  11   2  -9    0.10    0.16 
 -11  -2   9    0.11    0.15 
  10   2  -9   -0.13    0.14 
 -10  -2   9   -0.04    0.13 
   9   2  -9    0.37    0.16 
  -9  -2   9    0.41    0.15 
   8   2  -9   16.06    0.73 
  -8  -2   9   19.40    0.75 
   6   2  -9   12.13    0.52 
   6   2  -9   11.64    0.45 
  -6  -2   9   11.43    0.51 
   5   2  -9    8.22    0.34 
   5   2  -9    8.34    0.38 
  -5  -2   9    8.32    0.38 
   4   2  -9    1.14    0.12 
   4   2  -9    0.97    0.10 
  -4  -2   9    1.13    0.13 
   3   2  -9   15.86    0.62 
   3   2  -9   17.04    0.64 
  -3  -2   9   16.29    0.65 
   2   2  -9   41.82    1.46 
   2   2  -9   36.39    1.44 
  -2  -2   9   42.74    1.48 
   1   2  -9    0.33    0.08 
   1   2  -9    0.36    0.07 
  -1  -2   9    0.51    0.09 
   0   2  -9    0.45    0.09 
   0   2  -9    0.64    0.07 
   0  -2   9    0.57    0.10 
   1  -2   9    0.87    0.12 
  -2   2  -9   61.72    2.19 
  -2   2  -9   59.78    2.20 
   2  -2   9   61.43    2.21 
  -3   2  -9    3.05    0.20 
  -3   2  -9    3.48    0.21 
  -4   2  -9    0.12    0.10 
  -4   2  -9    0.09    0.10 
  -7   2  -9    1.78    0.21 
  -7   2  -9    2.02    0.19 
  -8   2  -9    4.31    0.33 
  -8   2  -9    4.35    0.28 
  -9   2  -9   10.04    0.53 
  -9   2  -9   10.36    0.48 
 -10   2  -9    0.55    0.19 
 -11   2  -9    5.12    0.38 
 -12   2  -9    0.03    0.19 
  13   1  -9    0.09    0.18 
 -13  -1   9   -0.03    0.19 
  12   1  -9    0.54    0.19 
 -12  -1   9    0.32    0.18 
  11   1  -9    0.56    0.17 
 -11  -1   9    0.41    0.17 
  10   1  -9    1.31    0.20 
 -10  -1   9    1.33    0.19 
   9   1  -9    0.40    0.15 
  -9  -1   9    0.60    0.16 
  -8  -1   9    2.90    0.26 
  -7  -1   9    1.62    0.17 
   6   1  -9   30.16    1.13 
  -6  -1   9   29.91    1.14 
   5   1  -9    3.65    0.23 
   5   1  -9    3.30    0.17 
  -5  -1   9    3.34    0.22 
   4   1  -9    0.08    0.06 
   4   1  -9    0.05    0.08 
  -4  -1   9   -0.06    0.09 
   3   1  -9  214.33    7.34 
   3   1  -9  207.91    7.37 
  -3  -1   9  210.51    7.45 
   2   1  -9    6.87    0.29 
   2   1  -9    5.92    0.29 
  -2  -1   9    7.18    0.33 
   1   1  -9   10.00    0.45 
   1   1  -9   12.74    0.48 
  -1  -1   9   13.27    0.50 
   0   1  -9   37.26    1.35 
   0   1  -9   37.65    1.39 
   0  -1   9   39.40    1.40 
  -1   1  -9   14.32    0.65 
   1  -1   9   19.79    0.68 
  -2   1  -9    7.87    0.36 
   2  -1   9    7.86    0.37 
  -6   1  -9   -0.04    0.11 
  -6   1  -9   -0.13    0.11 
  -7   1  -9    5.05    0.29 
  -7   1  -9    4.46    0.32 
  -8   1  -9    1.02    0.19 
  -8   1  -9    1.29    0.16 
  -9   1  -9    2.32    0.26 
 -10   1  -9    3.47    0.33 
 -11   1  -9    0.64    0.21 
 -12   1  -9    0.32    0.22 
  14   0  -9    0.01    0.17 
 -14   0   9    0.24    0.21 
  13   0  -9   -0.05    0.17 
 -13   0   9   -0.09    0.18 
  12   0  -9    2.36    0.26 
 -12   0   9    2.14    0.26 
  11   0  -9    0.20    0.15 
 -11   0   9    0.02    0.16 
  10   0  -9   -0.15    0.14 
 -10   0   9    0.15    0.15 
   9   0  -9   24.89    0.99 
  -9   0   9   24.75    1.00 
   8   0  -9   -0.02    0.07 
  -8   0   9    0.24    0.13 
   6   0  -9    2.31    0.21 
  -6   0   9    2.22    0.20 
   5   0  -9   13.05    0.53 
  -5   0   9   12.84    0.54 
   4   0  -9    4.56    0.22 
   4   0  -9    5.06    0.26 
  -4   0   9    4.58    0.26 
   3   0  -9    2.06    0.16 
   3   0  -9    1.84    0.15 
  -3   0   9    2.08    0.17 
   2   0  -9    1.90    0.15 
   2   0  -9    2.07    0.16 
  -2   0   9    1.83    0.17 
   1   0  -9    1.12    0.12 
  -1   0   9    1.00    0.12 
   0   0  -9    1.29    0.12 
   0   0   9    1.34    0.13 
  -1   0  -9    0.25    0.08 
   1   0   9    0.21    0.09 
  -2   0  -9   11.64    0.49 
  -2   0  -9   11.97    0.50 
  -3   0  -9   15.90    0.65 
  -3   0  -9   16.95    0.67 
  -4   0  -9    0.06    0.09 
  -4   0  -9    0.23    0.11 
  -5   0  -9    8.33    0.44 
  -5   0  -9    9.23    0.41 
   5   0   9    9.17    0.37 
  -6   0  -9   16.73    0.68 
  -6   0  -9   16.29    0.70 
  -7   0  -9   -0.01    0.14 
  -8   0  -9    0.88    0.18 
  -9   0  -9    0.34    0.17 
 -10   0  -9    1.48    0.24 
 -11   0  -9    0.44    0.21 
  14  -1  -9    0.73    0.20 
 -14   1   9    0.46    0.20 
  13  -1  -9    1.10    0.20 
 -13   1   9    1.00    0.23 
  12  -1  -9   -0.04    0.16 
 -12   1   9    0.04    0.15 
  11  -1  -9    4.05    0.30 
 -11   1   9    3.83    0.33 
  10  -1  -9    1.77    0.21 
 -10   1   9    1.63    0.20 
   9  -1  -9    6.98    0.40 
  -9   1   9    7.59    0.41 
   8  -1  -9   14.08    0.60 
   6  -1  -9    0.24    0.10 
  -6   1   9    0.44    0.13 
   5  -1  -9    8.36    0.38 
  -5   1   9    8.52    0.39 
   4  -1  -9   96.44    3.40 
  -4   1   9   96.60    3.45 
   3  -1  -9   75.29    2.69 
  -3   1   9   77.19    2.74 
   2  -1  -9   17.79    0.66 
  -2   1   9   16.99    0.68 
   1  -1  -9   96.64    3.42 
   0  -1  -9    2.21    0.15 
   0   1   9    1.51    0.13 
  -1  -1  -9   86.15    3.08 
   1   1   9   87.02    3.11 
  -2  -1  -9    0.46    0.10 
   2   1   9    0.11    0.10 
  -3  -1  -9    5.70    0.29 
  -3  -1  -9    5.88    0.31 
  -4  -1  -9    4.86    0.30 
  -5  -1  -9   69.49    2.54 
  -6  -1  -9   10.11    0.50 
  -7  -1  -9    0.51    0.17 
  -8  -1  -9    4.98    0.35 
  -9  -1  -9   -0.01    0.16 
 -10  -1  -9    0.01    0.17 
 -11  -1  -9    0.57    0.21 
  14  -2  -9    1.13    0.23 
 -14   2   9    1.04    0.24 
  13  -2  -9    0.94    0.21 
 -13   2   9    1.13    0.22 
  12  -2  -9    0.59    0.19 
 -12   2   9    0.53    0.19 
  11  -2  -9   11.89    0.56 
 -11   2   9   11.69    0.58 
  10  -2  -9    0.22    0.14 
 -10   2   9    0.33    0.16 
   9  -2  -9    0.08    0.14 
  -9   2   9    0.00    0.14 
   8  -2  -9    0.10    0.12 
  -8   2   9    0.03    0.12 
  -7   2   9    2.12    0.18 
  -6   2   9    3.15    0.20 
  -5   2   9    2.81    0.20 
   3  -2  -9    1.93    0.15 
  -3   2   9    1.34    0.13 
  -2   2   9   15.43    0.62 
  -1   2   9    2.34    0.20 
   0   2   9    0.24    0.10 
   1   2   9    3.00    0.21 
   2   2   9    4.90    0.29 
  -3  -2  -9    0.52    0.12 
   3   2   9    0.96    0.14 
  -4  -2  -9   25.31    0.99 
  -5  -2  -9   10.59    0.50 
  -6  -2  -9    0.22    0.15 
  -7  -2  -9    4.04    0.32 
  -8  -2  -9    2.57    0.26 
  -9  -2  -9    0.74    0.20 
 -10  -2  -9    2.24    0.28 
 -11  -2  -9    0.25    0.20 
  14  -3  -9   -0.03    0.18 
 -14   3   9   -0.09    0.20 
  13  -3  -9    0.15    0.18 
 -13   3   9    0.30    0.19 
  12  -3  -9    0.23    0.15 
 -12   3   9    0.09    0.17 
  11  -3  -9    2.08    0.24 
 -11   3   9    2.31    0.25 
  10  -3  -9    4.19    0.29 
 -10   3   9    3.90    0.30 
   9  -3  -9    0.52    0.16 
  -9   3   9    0.61    0.15 
   8  -3  -9    3.62    0.28 
   7  -3  -9   -0.01    0.03 
  -7   3   9    0.26    0.09 
  -7   3   9   -0.02    0.02 
   6  -3  -9    0.01    0.03 
   5  -3  -9    5.62    0.29 
  -5   3   9    5.72    0.30 
  -4   3   9    9.73    0.43 
  -3   3   9   -0.11    0.09 
  -2   3   9   30.18    1.14 
  -1   3   9   14.22    0.58 
   0   3   9   11.02    0.47 
   1   3   9   22.55    0.88 
   2   3   9    0.25    0.12 
   3   3   9    3.28    0.26 
  -4  -3  -9    5.32    0.32 
   4   3   9    5.40    0.33 
  -5  -3  -9   19.66    0.82 
  -6  -3  -9    0.43    0.15 
  -7  -3  -9    1.24    0.19 
  -8  -3  -9    0.69    0.19 
  -9  -3  -9    0.59    0.20 
 -10  -3  -9    0.38    0.21 
  14  -4  -9    0.16    0.19 
 -14   4   9    0.47    0.22 
  13  -4  -9    0.28    0.18 
 -13   4   9    0.38    0.18 
  12  -4  -9    1.00    0.20 
 -12   4   9    1.39    0.22 
  11  -4  -9    4.78    0.34 
 -11   4   9    4.12    0.34 
  10  -4  -9   -0.15    0.14 
 -10   4   9    0.08    0.14 
   9  -4  -9    1.33    0.19 
  -9   4   9    1.22    0.18 
   8  -4  -9   18.24    0.76 
  -8   4   9   18.63    0.77 
  -7   4   9    0.87    0.12 
  -7   4   9    1.05    0.17 
  -6   4   9    1.79    0.16 
  -6   4   9    1.79    0.19 
  -5   4   9    3.08    0.25 
  -4   4   9    7.10    0.35 
  -3   4   9    0.36    0.12 
  -2   4   9   12.13    0.52 
  -1   4   9   10.43    0.45 
   0   4   9    0.04    0.10 
   1   4   9   17.38    0.71 
   2   4   9   11.21    0.50 
   3   4   9    5.33    0.33 
  -4  -4  -9    0.28    0.14 
   4   4   9    0.12    0.13 
  -5  -4  -9    6.30    0.38 
  -6  -4  -9    2.98    0.26 
  -7  -4  -9    1.79    0.23 
  -8  -4  -9    6.00    0.40 
  -9  -4  -9    8.00    0.47 
 -10  -4  -9    1.99    0.27 
  14  -5  -9    1.06    0.22 
 -14   5   9    1.22    0.24 
  13  -5  -9    0.90    0.19 
 -13   5   9    0.57    0.20 
  12  -5  -9    0.20    0.16 
 -12   5   9    0.08    0.17 
  11  -5  -9   -0.03    0.13 
 -11   5   9   -0.06    0.16 
  10  -5  -9    2.76    0.26 
 -10   5   9    2.73    0.26 
   9  -5  -9    0.11    0.14 
  -9   5   9   -0.03    0.14 
   8  -5  -9    1.48    0.19 
  -8   5   9    1.52    0.15 
  -8   5   9    1.31    0.20 
  -7   5   9    1.38    0.19 
  -7   5   9    1.39    0.15 
  -6   5   9    0.50    0.15 
  -6   5   9    0.43    0.13 
  -5   5   9    2.76    0.24 
  -5   5   9    2.54    0.22 
  -4   5   9    1.11    0.16 
  -3   5   9   17.16    0.70 
  -2   5   9   -0.03    0.11 
  -1   5   9   10.66    0.47 
   0   5   9   21.16    0.83 
   1   5   9    7.21    0.37 
   2   5   9   17.23    0.72 
   3   5   9    0.76    0.16 
   4   5   9    2.79    0.27 
  -5  -5  -9    2.41    0.24 
   5   5   9    2.46    0.24 
  -6  -5  -9    3.04    0.28 
   6   5   9    3.18    0.30 
  -7  -5  -9    1.60    0.22 
  -8  -5  -9    1.73    0.24 
  -9  -5  -9    0.40    0.20 
  14  -6  -9    0.09    0.19 
 -14   6   9   -0.01    0.20 
  13  -6  -9   -0.17    0.16 
 -13   6   9    0.12    0.19 
  12  -6  -9    3.60    0.32 
 -12   6   9    3.63    0.31 
 -11   6   9    1.49    0.22 
 -10   6   9    0.91    0.18 
  -9   6   9    0.14    0.14 
  -8   6   9    6.40    0.34 
  -8   6   9    5.83    0.36 
  -7   6   9   10.70    0.53 
  -7   6   9   11.71    0.51 
  -6   6   9  107.44    3.85 
  -6   6   9  106.19    3.80 
  -5   6   9    1.55    0.17 
  -5   6   9    1.64    0.19 
  -4   6   9    6.99    0.37 
  -4   6   9    7.27    0.37 
  -3   6   9    4.33    0.28 
  -2   6   9    1.43    0.16 
  -1   6   9    0.96    0.15 
   0   6   9    0.52    0.13 
   1   6   9    0.04    0.13 
   2   6   9    6.77    0.37 
   3   6   9    4.88    0.33 
   4   6   9    1.06    0.18 
   5   6   9    0.86    0.18 
  -6  -6  -9   -0.13    0.14 
   6   6   9    0.15    0.16 
  -7  -6  -9    0.03    0.16 
   7   6   9    0.14    0.17 
  -8  -6  -9    0.82    0.20 
  -9  -6  -9   -0.02    0.19 
 -13   7   9    0.04    0.17 
 -12   7   9   -0.09    0.16 
 -11   7   9   -0.10    0.15 
 -10   7   9    2.72    0.27 
  -9   7   9    0.29    0.16 
  -8   7   9    0.05    0.15 
  -8   7   9    0.09    0.12 
  -7   7   9   33.11    1.30 
  -7   7   9   34.02    1.27 
  -6   7   9    0.56    0.14 
  -6   7   9    0.50    0.17 
  -5   7   9    2.27    0.22 
  -5   7   9    2.31    0.22 
  -4   7   9   22.06    0.91 
  -4   7   9   24.14    0.92 
  -3   7   9    7.87    0.40 
  -3   7   9    8.11    0.42 
  -2   7   9    3.00    0.24 
  -2   7   9    2.94    0.25 
  -1   7   9    0.09    0.12 
   0   7   9    1.25    0.17 
   1   7   9    0.50    0.14 
   2   7   9   10.23    0.49 
   3   7   9   50.57    1.88 
   4   7   9    0.96    0.18 
   5   7   9   -0.06    0.14 
   6   7   9    0.07    0.16 
   7   7   9    0.04    0.17 
   7   7   9    0.26    0.18 
 -13   8   9    0.27    0.20 
 -12   8   9    0.06    0.17 
 -11   8   9    2.30    0.27 
 -10   8   9    2.55    0.26 
  -9   8   9   -0.07    0.15 
  -8   8   9   11.22    0.54 
  -8   8   9   11.71    0.53 
  -7   8   9    7.01    0.39 
  -7   8   9    7.07    0.40 
  -6   8   9    3.51    0.28 
  -6   8   9    3.66    0.29 
  -5   8   9   20.06    0.84 
  -5   8   9   21.14    0.85 
  -4   8   9    1.07    0.18 
  -4   8   9    1.08    0.17 
  -3   8   9    2.90    0.26 
  -3   8   9    2.90    0.25 
  -2   8   9    7.76    0.38 
  -2   8   9    7.04    0.41 
  -1   8   9    4.80    0.30 
  -1   8   9    4.67    0.31 
   0   8   9    0.84    0.17 
   0   8   9    0.90    0.16 
   1   8   9   -0.19    0.13 
   1   8   9    0.13    0.15 
   2   8   9    0.37    0.16 
   2   8   9    0.18    0.14 
   3   8   9    0.96    0.19 
   3   8   9    1.26    0.19 
   4   8   9    2.04    0.23 
   4   8   9    1.82    0.23 
   5   8   9   -0.06    0.17 
   6   8   9    1.00    0.21 
   7   8   9   -0.23    0.18 
 -12   9   9    0.62    0.20 
 -11   9   9    0.05    0.18 
 -10   9   9    1.19    0.20 
  -9   9   9    0.18    0.16 
  -8   9   9    0.13    0.13 
  -8   9   9    0.25    0.16 
  -7   9   9    3.78    0.30 
  -7   9   9    4.17    0.30 
  -6   9   9   12.41    0.57 
  -6   9   9   12.14    0.57 
  -5   9   9    0.43    0.16 
  -5   9   9    0.76    0.17 
  -4   9   9    1.82    0.21 
  -4   9   9    1.90    0.21 
  -3   9   9   -0.08    0.14 
  -3   9   9    0.00    0.14 
  -2   9   9   22.92    0.90 
  -2   9   9   22.19    0.93 
  -1   9   9    1.11    0.17 
  -1   9   9    1.00    0.19 
   0   9   9    8.46    0.46 
   0   9   9    8.03    0.42 
   1   9   9    7.01    0.39 
   1   9   9    7.32    0.43 
   2   9   9   25.47    1.06 
   3   9   9    0.94    0.20 
   4   9   9    1.83    0.24 
   5   9   9    0.28    0.19 
   6   9   9    0.08    0.18 
 -12  10   9    2.60    0.29 
 -11  10   9    0.26    0.17 
 -10  10   9    0.49    0.19 
  -9  10   9    0.96    0.20 
  -9  10   9    1.10    0.19 
  -8  10   9    0.03    0.15 
  -8  10   9    0.01    0.14 
  -7  10   9    2.10    0.23 
  -7  10   9    1.86    0.22 
  -6  10   9   -0.09    0.14 
  -6  10   9    0.04    0.15 
  -5  10   9   17.56    0.73 
  -5  10   9   17.13    0.76 
  -4  10   9   -0.13    0.14 
  -4  10   9   -0.15    0.14 
  -3  10   9    6.56    0.36 
  -3  10   9    6.15    0.40 
  -2  10   9    5.29    0.33 
  -2  10   9    4.83    0.35 
  -1  10   9    1.58    0.22 
   0  10   9    0.32    0.17 
   1  10   9    0.04    0.18 
   2  10   9    2.34    0.27 
   3  10   9    1.98    0.26 
   4  10   9    0.10    0.19 
   5  10   9    0.29    0.18 
 -11  11   9   -0.08    0.18 
 -10  11   9    0.46    0.19 
  -9  11   9    1.92    0.24 
  -9  11   9    1.45    0.21 
  -8  11   9    0.91    0.19 
  -8  11   9    1.09    0.20 
  -7  11   9    0.77    0.18 
  -7  11   9    0.41    0.15 
  -6  11   9    0.05    0.15 
  -6  11   9    0.29    0.16 
  -5  11   9    0.53    0.16 
  -5  11   9    0.76    0.18 
  -4  11   9    1.05    0.20 
  -3  11   9    3.16    0.29 
  -2  11   9    2.00    0.25 
  -1  11   9   -0.16    0.16 
   0  11   9    5.53    0.39 
   1  11   9   -0.12    0.18 
   2  11   9    0.93    0.22 
   3  11   9    0.96    0.23 
   4  11   9    0.66    0.22 
 -10  12   9   -0.02    0.18 
  -9  12   9    2.58    0.27 
  -9  12   9    2.71    0.28 
  -8  12   9   -0.04    0.16 
  -7  12   9    0.83    0.20 
  -6  12   9    0.20    0.17 
  -5  12   9    2.33    0.27 
  -4  12   9    2.83    0.28 
  -3  12   9    0.28    0.18 
  -2  12   9    0.39    0.19 
  -1  12   9   -0.04    0.16 
   0  12   9    0.20    0.20 
   1  12   9    0.32    0.20 
   2  12   9    0.30    0.20 
   3  12   9    0.19    0.21 
  -9  13   9    0.57    0.20 
  -8  13   9    0.41    0.19 
  -7  13   9    0.05    0.16 
  -6  13   9   -0.10    0.17 
  -5  13   9    0.37    0.19 
  -4  13   9    0.28    0.19 
  -3  13   9    0.02    0.18 
  -2  13   9    0.47    0.21 
  -1  13   9    4.18    0.37 
   0  13   9    0.04    0.19 
   1  13   9    2.82    0.33 
  -7  14   9    0.77    0.22 
  -6  14   9   -0.18    0.18 
  -5  14   9    0.21    0.20 
  -4  14   9    0.40    0.21 
  -3  14   9   -0.23    0.19 
  -2  14   9    0.20    0.22 
   0  16 -10    3.64    0.35 
   0  16 -10    4.19    0.38 
  -1  16 -10    0.92    0.22 
  -2  16 -10   -0.01    0.18 
  -3  16 -10    0.20    0.19 
  -4  16 -10    0.05    0.18 
  -5  16 -10    0.81    0.22 
   3  15 -10    0.19    0.18 
   3  15 -10   -0.16    0.16 
   2  15 -10    2.30    0.27 
   2  15 -10    2.47    0.29 
   1  15 -10    1.13    0.23 
   1  15 -10    1.09    0.22 
   0  15 -10   -0.07    0.16 
   0  15 -10    0.17    0.18 
  -1  15 -10    0.41    0.19 
  -2  15 -10    0.90    0.20 
  -3  15 -10    0.19    0.17 
  -4  15 -10   -0.04    0.17 
  -5  15 -10    0.21    0.18 
  -6  15 -10    0.18    0.19 
  -7  15 -10    0.14    0.20 
   5  14 -10   -0.03    0.19 
   4  14 -10    3.19    0.31 
   4  14 -10    3.01    0.32 
   3  14 -10    0.78    0.19 
   3  14 -10    0.84    0.21 
   2  14 -10    4.10    0.35 
   2  14 -10    4.88    0.38 
   1  14 -10    0.18    0.17 
   1  14 -10   -0.07    0.16 
   0  14 -10    0.35    0.17 
   0  14 -10    0.68    0.18 
  -1  14 -10    0.12    0.14 
  -1  14 -10    0.18    0.15 
  -2  14 -10    0.62    0.18 
  -3  14 -10    6.87    0.43 
  -4  14 -10    4.24    0.34 
  -5  14 -10    6.56    0.43 
  -6  14 -10    0.10    0.17 
  -7  14 -10   -0.12    0.17 
  -8  14 -10   -0.11    0.18 
   6  13 -10    0.96    0.23 
   5  13 -10    0.23    0.19 
   4  13 -10    0.29    0.16 
   4  13 -10    0.95    0.22 
   3  13 -10    1.02    0.21 
   3  13 -10    0.80    0.18 
   2  13 -10    0.93    0.19 
   2  13 -10    0.87    0.18 
   1  13 -10    0.08    0.15 
   1  13 -10    0.21    0.16 
   0  13 -10   -0.20    0.14 
   0  13 -10    0.05    0.14 
  -1  13 -10    0.15    0.15 
  -1  13 -10   -0.10    0.13 
  -2  13 -10    1.89    0.23 
  -3  13 -10    2.27    0.26 
  -4  13 -10    2.54    0.26 
  -5  13 -10    0.42    0.18 
  -6  13 -10    2.26    0.27 
  -7  13 -10    1.83    0.26 
  -8  13 -10   -0.04    0.17 
  -9  13 -10   -0.10    0.18 
   7  12 -10    2.76    0.31 
   6  12 -10    3.96    0.37 
   5  12 -10    0.19    0.18 
   4  12 -10    1.35    0.23 
   4  12 -10    1.62    0.20 
   3  12 -10   -0.17    0.13 
   3  12 -10   -0.06    0.15 
   2  12 -10    0.03    0.14 
   2  12 -10    0.15    0.14 
   1  12 -10    0.30    0.14 
   1  12 -10    0.48    0.15 
   0  12 -10    0.32    0.14 
   0  12 -10    0.52    0.15 
  -1  12 -10    0.51    0.15 
  -1  12 -10    0.51    0.16 
  -2  12 -10    0.70    0.17 
  -3  12 -10    2.42    0.24 
  -4  12 -10    1.35    0.20 
  -5  12 -10    3.46    0.30 
  -6  12 -10    0.16    0.16 
  -7  12 -10    9.12    0.51 
  -8  12 -10    0.43    0.19 
  -9  12 -10    0.00    0.16 
 -10  12 -10    1.55    0.24 
   8  11 -10    0.09    0.17 
   7  11 -10    2.20    0.27 
   6  11 -10    0.61    0.19 
   5  11 -10    7.81    0.42 
   5  11 -10    7.42    0.44 
   4  11 -10    2.21    0.24 
   4  11 -10    2.19    0.21 
   3  11 -10    3.00    0.27 
   3  11 -10    2.74    0.26 
   2  11 -10    0.17    0.13 
   2  11 -10    0.41    0.15 
   1  11 -10    1.17    0.17 
   1  11 -10    0.54    0.14 
   0  11 -10    0.48    0.14 
   0  11 -10    0.25    0.14 
  -1  11 -10    3.70    0.27 
  -1  11 -10    3.14    0.27 
  -2  11 -10    2.22    0.24 
  -2  11 -10    2.58    0.23 
  -3  11 -10    0.57    0.17 
  -4  11 -10    1.63    0.21 
  -5  11 -10   -0.07    0.14 
  -6  11 -10    7.43    0.43 
  -7  11 -10    1.23    0.19 
  -7  11 -10    1.31    0.21 
  -8  11 -10    1.03    0.19 
  -8  11 -10    0.81    0.19 
  -9  11 -10   12.01    0.59 
  -9  11 -10   12.12    0.61 
 -10  11 -10   -0.25    0.17 
 -10  11 -10    0.19    0.18 
   9  10 -10    0.52    0.20 
   8  10 -10    0.12    0.17 
   7  10 -10    0.86    0.20 
   6  10 -10    0.61    0.17 
   5  10 -10    1.25    0.17 
   5  10 -10    1.32    0.21 
   4  10 -10    1.55    0.18 
   4  10 -10    1.50    0.21 
   3  10 -10   17.49    0.73 
   3  10 -10   17.50    0.74 
   2  10 -10    6.71    0.37 
   2  10 -10    7.14    0.39 
   1  10 -10    6.68    0.37 
   1  10 -10    7.11    0.39 
   0  10 -10    4.08    0.27 
   0  10 -10    3.52    0.27 
  -1  10 -10    0.89    0.16 
  -1  10 -10    1.59    0.16 
  -2  10 -10   31.92    1.28 
  -2  10 -10   34.02    1.22 
  -3  10 -10   12.42    0.57 
  -4  10 -10   11.80    0.52 
  -4  10 -10   12.59    0.57 
  -5  10 -10    1.12    0.16 
  -5  10 -10    1.19    0.19 
  -6  10 -10    4.10    0.29 
  -6  10 -10    4.16    0.33 
  -7  10 -10    0.64    0.16 
  -7  10 -10    0.39    0.17 
  -8  10 -10    1.97    0.23 
  -8  10 -10    1.88    0.23 
  -9  10 -10    0.08    0.16 
  -9  10 -10   -0.02    0.14 
 -10  10 -10    0.17    0.18 
 -10  10 -10   -0.03    0.16 
 -11  10 -10    4.56    0.39 
  10   9 -10    2.30    0.29 
   9   9 -10    0.95    0.23 
   8   9 -10    4.22    0.35 
   7   9 -10   -0.04    0.14 
   6   9 -10   13.09    0.61 
   5   9 -10    1.17    0.16 
   5   9 -10    1.21    0.20 
   4   9 -10    1.87    0.18 
   4   9 -10    1.81    0.20 
   3   9 -10    4.02    0.30 
   3   9 -10    3.50    0.26 
   2   9 -10    5.17    0.33 
   2   9 -10    5.41    0.32 
   1   9 -10    5.39    0.31 
   1   9 -10    5.06    0.32 
   0   9 -10   -0.07    0.09 
   0   9 -10   -0.06    0.11 
  -1   9 -10    0.23    0.13 
  -1   9 -10    0.48    0.11 
  -2   9 -10    2.64    0.19 
  -2   9 -10    1.92    0.20 
   2  -9  10    2.67    0.19 
  -3   9 -10    3.57    0.23 
  -3   9 -10    3.71    0.29 
   3  -9  10    3.80    0.25 
  -4   9 -10    7.86    0.42 
  -4   9 -10    7.16    0.36 
  -5   9 -10   15.04    0.67 
  -5   9 -10   15.27    0.64 
  -6   9 -10    3.18    0.26 
  -6   9 -10    3.16    0.29 
  -7   9 -10   -0.12    0.14 
  -7   9 -10    0.08    0.14 
  -8   9 -10    0.30    0.17 
  -8   9 -10    0.23    0.16 
  -9   9 -10   -0.27    0.15 
  -9   9 -10   -0.03    0.14 
 -10   9 -10    0.21    0.18 
 -10   9 -10   -0.06    0.15 
 -11   9 -10    1.88    0.26 
  11   8 -10    0.18    0.20 
  10   8 -10    0.44    0.19 
   9   8 -10   -0.11    0.16 
   8   8 -10    0.17    0.17 
   7   8 -10   24.47    1.00 
   6   8 -10    0.44    0.17 
   5   8 -10    4.55    0.32 
   5   8 -10    4.80    0.29 
   4   8 -10    1.66    0.17 
   4   8 -10    1.46    0.18 
   3   8 -10    2.98    0.24 
   3   8 -10    3.03    0.24 
   2   8 -10    0.38    0.12 
   2   8 -10    0.21    0.11 
   1   8 -10    5.28    0.31 
   1   8 -10    5.18    0.29 
   0   8 -10   13.85    0.57 
   0   8 -10   14.03    0.59 
  -1   8 -10   10.87    0.45 
  -1   8 -10   10.82    0.50 
   1  -8  10   10.86    0.45 
  -3   8 -10    3.89    0.25 
  -4   8 -10   18.39    0.74 
  -4   8 -10   18.22    0.76 
  -5   8 -10   19.21    0.80 
  -5   8 -10   18.88    0.77 
  -6   8 -10    0.11    0.12 
  -6   8 -10   -0.17    0.14 
  -7   8 -10   11.77    0.55 
  -7   8 -10   11.79    0.55 
  -8   8 -10    6.35    0.38 
  -8   8 -10    6.09    0.37 
  -9   8 -10    0.13    0.17 
  -9   8 -10    0.16    0.14 
 -10   8 -10    0.15    0.18 
 -10   8 -10    0.52    0.17 
 -11   8 -10    0.57    0.21 
  11   7 -10    1.13    0.24 
  10   7 -10    0.28    0.18 
   9   7 -10    0.00    0.14 
   8   7 -10    6.34    0.40 
   7   7 -10    2.13    0.23 
   6   7 -10    0.03    0.14 
   5   7 -10   35.13    1.31 
   5   7 -10   35.23    1.35 
  -5  -7  10   36.27    1.31 
   4   7 -10   12.10    0.52 
   4   7 -10   11.39    0.53 
  -4  -7  10   12.43    0.50 
   3   7 -10    3.81    0.25 
   3   7 -10    4.35    0.27 
  -3  -7  10    3.28    0.20 
   2   7 -10    0.48    0.11 
   2   7 -10    0.54    0.12 
   1   7 -10   15.30    0.61 
   1   7 -10   14.97    0.62 
   0   7 -10   -0.14    0.07 
   0   7 -10    0.10    0.10 
   0  -7  10    0.13    0.08 
  -1   7 -10    9.66    0.44 
   1  -7  10    9.33    0.41 
  -2   7 -10   -0.03    0.06 
  -2   7 -10    0.00    0.02 
   2  -7  10   -0.04    0.09 
  -3   7 -10    3.58    0.26 
  -3   7 -10    5.14    0.27 
  -4   7 -10    1.34    0.16 
  -4   7 -10    1.53    0.18 
  -5   7 -10    0.44    0.14 
  -5   7 -10    0.24    0.15 
  -6   7 -10    3.82    0.29 
  -6   7 -10    3.74    0.29 
  -7   7 -10   11.36    0.54 
  -7   7 -10   11.09    0.52 
  -8   7 -10    0.78    0.16 
  -8   7 -10    0.90    0.19 
  -9   7 -10    3.42    0.29 
  -9   7 -10    3.59    0.30 
 -10   7 -10   10.30    0.55 
 -10   7 -10   10.36    0.51 
 -11   7 -10    0.20    0.19 
 -12   7 -10    1.34    0.27 
  12   6 -10    1.09    0.24 
  11   6 -10    0.27    0.17 
  10   6 -10    0.20    0.17 
   9   6 -10    0.17    0.15 
   8   6 -10    1.00    0.18 
  -8  -6  10    0.96    0.16 
   7   6 -10    1.22    0.19 
  -7  -6  10    1.13    0.16 
   6   6 -10    9.59    0.48 
   6   6 -10   10.18    0.43 
  -6  -6  10    9.92    0.45 
   5   6 -10   20.75    0.85 
   5   6 -10   21.44    0.81 
  -5  -6  10   21.21    0.82 
   4   6 -10   14.13    0.61 
   4   6 -10   13.88    0.58 
  -4  -6  10   14.72    0.58 
   3   6 -10   12.91    0.54 
   3   6 -10   13.66    0.56 
  -3  -6  10   13.07    0.53 
   2   6 -10   28.03    1.04 
   2   6 -10   27.70    1.05 
  -2  -6  10   27.97    1.04 
   1   6 -10    0.20    0.10 
   1   6 -10    0.25    0.08 
  -1  -6  10    0.22    0.08 
   0   6 -10    0.15    0.09 
   0   6 -10    0.22    0.07 
   0  -6  10    0.15    0.09 
  -1   6 -10    0.99    0.14 
  -1   6 -10    1.15    0.10 
   1  -6  10    0.99    0.12 
  -2   6 -10   17.15    0.62 
   2  -6  10   16.33    0.66 
  -3   6 -10   15.71    0.65 
  -3   6 -10   17.00    0.68 
  -4   6 -10   67.16    2.39 
  -4   6 -10   64.07    2.38 
  -5   6 -10    0.81    0.15 
  -5   6 -10    0.77    0.15 
  -6   6 -10    5.49    0.34 
  -6   6 -10    5.66    0.33 
  -7   6 -10   13.20    0.59 
  -7   6 -10   13.78    0.62 
  -8   6 -10    2.00    0.22 
  -8   6 -10    1.55    0.19 
  -9   6 -10   11.37    0.53 
  -9   6 -10   10.83    0.56 
 -10   6 -10    0.09    0.16 
 -10   6 -10   -0.01    0.14 
 -11   6 -10    0.00    0.19 
 -12   6 -10    0.22    0.20 
  12   5 -10    2.92    0.32 
  11   5 -10    0.51    0.19 
  10   5 -10   -0.10    0.13 
 -10  -5  10   -0.06    0.13 
   9   5 -10    0.06    0.13 
  -9  -5  10    0.09    0.13 
   8   5 -10    1.65    0.20 
  -8  -5  10    1.83    0.19 
   7   5 -10    4.13    0.32 
  -7  -5  10    3.93    0.27 
   6   5 -10    6.77    0.37 
   6   5 -10    6.54    0.31 
  -6  -5  10    6.87    0.35 
   5   5 -10   73.08    2.59 
   5   5 -10   73.46    2.62 
  -5  -5  10   71.71    2.62 
   4   5 -10    0.52    0.12 
   4   5 -10    0.42    0.10 
  -4  -5  10    0.48    0.11 
   3   5 -10    0.74    0.11 
   3   5 -10    0.65    0.12 
  -3  -5  10    0.80    0.11 
   2   5 -10    7.46    0.35 
   2   5 -10    7.31    0.34 
  -2  -5  10    7.67    0.34 
   1   5 -10    6.41    0.32 
   1   5 -10    6.71    0.31 
  -1  -5  10    6.87    0.31 
   0   5 -10    0.08    0.09 
   0   5 -10    0.06    0.04 
   0  -5  10    0.02    0.08 
  -1   5 -10    1.36    0.12 
  -1   5 -10    1.22    0.14 
   1  -5  10    1.15    0.13 
  -2   5 -10    1.67    0.15 
  -2   5 -10    1.46    0.10 
   2  -5  10    1.50    0.15 
  -3   5 -10    2.08    0.18 
  -3   5 -10    2.12    0.19 
  -4   5 -10   19.73    0.78 
  -4   5 -10   19.02    0.77 
  -5   5 -10    0.14    0.13 
  -5   5 -10   -0.18    0.10 
  -6   5 -10    5.47    0.34 
  -6   5 -10    5.38    0.32 
  -7   5 -10    1.22    0.18 
  -7   5 -10    1.08    0.17 
  -8   5 -10    8.37    0.43 
  -8   5 -10    8.35    0.45 
  -9   5 -10   14.07    0.62 
  -9   5 -10   14.14    0.67 
 -10   5 -10    7.15    0.44 
 -11   5 -10    0.71    0.21 
 -12   5 -10    2.60    0.32 
  12   4 -10    1.95    0.26 
 -12  -4  10    1.50    0.23 
  11   4 -10    1.26    0.22 
 -11  -4  10    1.33    0.21 
  10   4 -10    0.01    0.14 
 -10  -4  10   -0.07    0.14 
   9   4 -10   -0.03    0.13 
  -9  -4  10    0.17    0.14 
   8   4 -10    2.96    0.26 
  -8  -4  10    2.61    0.25 
   7   4 -10    0.69    0.16 
  -7  -4  10    0.62    0.15 
   6   4 -10   49.84    1.77 
   6   4 -10   51.52    1.83 
  -6  -4  10   47.46    1.82 
   5   4 -10   10.63    0.48 
   5   4 -10   10.39    0.43 
  -5  -4  10   10.39    0.46 
   4   4 -10    9.58    0.39 
   4   4 -10    9.12    0.41 
  -4  -4  10    8.87    0.40 
   3   4 -10   14.11    0.57 
   3   4 -10   14.10    0.56 
  -3  -4  10   14.35    0.57 
   2   4 -10   13.88    0.56 
   2   4 -10   13.85    0.56 
  -2  -4  10   14.91    0.57 
   1   4 -10   13.01    0.54 
  -1  -4  10   13.71    0.54 
   0   4 -10   11.89    0.49 
   0   4 -10   11.58    0.45 
   0  -4  10   11.49    0.48 
  -1   4 -10    1.43    0.10 
  -1   4 -10    1.20    0.13 
   1  -4  10    1.41    0.14 
  -2   4 -10    0.75    0.07 
  -2   4 -10    0.69    0.11 
  -2   4 -10    0.68    0.11 
   2  -4  10    0.68    0.12 
  -3   4 -10    2.35    0.19 
  -3   4 -10    2.39    0.19 
  -4   4 -10   27.65    1.06 
  -4   4 -10   27.38    1.06 
  -5   4 -10   14.06    0.60 
  -5   4 -10   13.69    0.59 
  -6   4 -10    3.44    0.26 
  -6   4 -10    3.49    0.28 
  -7   4 -10    0.91    0.15 
  -7   4 -10    0.69    0.18 
  -8   4 -10    5.97    0.37 
  -8   4 -10    5.78    0.34 
  -9   4 -10    5.48    0.37 
  -9   4 -10    5.39    0.33 
 -10   4 -10    0.53    0.19 
 -11   4 -10    0.80    0.21 
 -12   4 -10   -0.21    0.20 
  13   3 -10    0.42    0.21 
 -13  -3  10    0.29    0.20 
  12   3 -10    0.32    0.18 
 -12  -3  10    0.26    0.19 
  11   3 -10    1.02    0.20 
 -11  -3  10    0.90    0.19 
  10   3 -10    4.92    0.35 
 -10  -3  10    4.46    0.33 
   9   3 -10    9.82    0.49 
  -9  -3  10   10.18    0.48 
   8   3 -10    1.71    0.21 
  -8  -3  10    1.58    0.19 
   7   3 -10   35.01    1.32 
  -7  -3  10   34.49    1.32 
   6   3 -10    7.62    0.39 
   6   3 -10    7.35    0.31 
  -6  -3  10    6.95    0.37 
   5   3 -10    0.06    0.07 
   5   3 -10    0.16    0.11 
  -5  -3  10    0.13    0.11 
   4   3 -10   15.48    0.61 
   4   3 -10   15.85    0.63 
  -4  -3  10   15.89    0.63 
   3   3 -10    0.99    0.11 
   3   3 -10    0.81    0.10 
  -3  -3  10    1.06    0.12 
   2   3 -10    1.00    0.11 
   2   3 -10    1.11    0.11 
  -2  -3  10    1.17    0.12 
   1   3 -10   -0.01    0.03 
   1   3 -10   -0.01    0.08 
  -1  -3  10    0.14    0.09 
   0   3 -10    0.14    0.06 
   0   3 -10    0.11    0.08 
   0  -3  10    0.03    0.08 
  -1   3 -10    0.03    0.05 
  -1   3 -10    0.16    0.05 
   1  -3  10    0.16    0.08 
  -2   3 -10    2.51    0.19 
  -2   3 -10    2.36    0.19 
   2  -3  10    3.13    0.20 
  -3   3 -10    2.78    0.20 
  -3   3 -10    2.98    0.21 
  -4   3 -10    0.03    0.10 
  -4   3 -10    0.12    0.10 
  -5   3 -10    9.78    0.45 
  -5   3 -10    9.67    0.46 
  -6   3 -10    0.36    0.12 
  -6   3 -10    0.56    0.14 
  -7   3 -10    4.80    0.29 
  -7   3 -10    4.52    0.32 
  -8   3 -10    4.72    0.30 
  -8   3 -10    4.73    0.33 
  -9   3 -10   -0.16    0.16 
  -9   3 -10    0.21    0.13 
 -10   3 -10    2.65    0.28 
 -11   3 -10    1.31    0.24 
 -12   3 -10    1.36    0.27 
  13   2 -10    1.23    0.24 
 -13  -2  10    1.03    0.22 
  12   2 -10    0.16    0.16 
 -12  -2  10   -0.12    0.16 
  11   2 -10    1.26    0.21 
 -11  -2  10    1.24    0.19 
  10   2 -10    3.43    0.30 
 -10  -2  10    3.55    0.28 
   9   2 -10    0.41    0.15 
  -9  -2  10    0.51    0.16 
   8   2 -10    0.96    0.17 
  -8  -2  10    0.86    0.16 
   7   2 -10   41.13    1.55 
  -7  -2  10   41.79    1.55 
   6   2 -10   12.96    0.50 
   6   2 -10   13.39    0.57 
  -6  -2  10   13.02    0.56 
   5   2 -10    2.07    0.15 
   5   2 -10    2.04    0.19 
  -5  -2  10    2.03    0.18 
   4   2 -10    9.87    0.42 
   4   2 -10    9.21    0.39 
  -4  -2  10    9.89    0.42 
   3   2 -10    3.43    0.20 
   3   2 -10    3.76    0.22 
  -3  -2  10    3.84    0.23 
   2   2 -10    1.34    0.13 
   2   2 -10    1.26    0.11 
  -2  -2  10    1.30    0.14 
   1   2 -10  135.16    4.71 
  -1  -2  10  132.27    4.75 
   0   2 -10    8.77    0.38 
   0   2 -10    8.44    0.34 
   0  -2  10    8.54    0.39 
   1  -2  10  174.19    6.17 
  -2   2 -10   12.83    0.54 
  -2   2 -10   12.85    0.54 
   2  -2  10   13.30    0.55 
  -3   2 -10    5.15    0.28 
  -3   2 -10    5.01    0.27 
  -4   2 -10    4.25    0.25 
  -4   2 -10    3.64    0.25 
  -6   2 -10    1.47    0.18 
  -6   2 -10    2.18    0.19 
  -7   2 -10    0.00    0.12 
  -7   2 -10   -0.13    0.13 
  -8   2 -10    1.53    0.18 
  -8   2 -10    1.38    0.21 
  -9   2 -10    0.57    0.15 
  -9   2 -10    0.57    0.18 
 -10   2 -10    0.69    0.20 
 -11   2 -10    1.35    0.24 
  13   1 -10    1.82    0.25 
 -13  -1  10    1.73    0.26 
  12   1 -10    0.58    0.19 
 -12  -1  10    0.17    0.18 
  11   1 -10    8.22    0.45 
 -11  -1  10    7.91    0.44 
  10   1 -10    1.92    0.23 
 -10  -1  10    2.36    0.24 
   9   1 -10    0.06    0.14 
  -9  -1  10   -0.13    0.14 
   8   1 -10    0.52    0.15 
  -8  -1  10    0.76    0.15 
   7   1 -10   15.13    0.63 
   6   1 -10    5.12    0.30 
  -6  -1  10    4.96    0.29 
   5   1 -10   21.95    0.82 
   5   1 -10   22.15    0.86 
  -5  -1  10   22.75    0.87 
   4   1 -10   11.32    0.45 
   4   1 -10   11.43    0.48 
  -4  -1  10   11.43    0.48 
   3   1 -10    1.48    0.14 
   3   1 -10    1.47    0.13 
  -3  -1  10    1.32    0.14 
   2   1 -10   58.90    2.10 
   2   1 -10   58.75    2.08 
  -2  -1  10   58.44    2.13 
   1   1 -10   12.72    0.52 
  -1  -1  10   13.00    0.53 
   0   1 -10    0.05    0.08 
   0  -1  10    0.12    0.09 
   1  -1  10   15.67    0.64 
  -2   1 -10   55.67    2.00 
   2  -1  10   54.94    2.02 
  -3   1 -10    0.14    0.09 
  -4   1 -10    1.54    0.16 
  -6   1 -10    6.49    0.34 
  -6   1 -10    5.65    0.34 
  -7   1 -10    0.15    0.15 
  -7   1 -10    0.19    0.12 
  -8   1 -10    1.38    0.18 
  -8   1 -10    1.04    0.20 
  -9   1 -10    2.32    0.26 
 -10   1 -10    0.37    0.20 
 -11   1 -10    0.33    0.21 
  14   0 -10    0.84    0.21 
 -14   0  10    0.02    0.18 
  13   0 -10    0.43    0.18 
 -13   0  10    0.66    0.21 
  12   0 -10    0.10    0.15 
 -12   0  10    0.07    0.17 
  11   0 -10   -0.18    0.15 
 -11   0  10    0.05    0.15 
  10   0 -10   -0.08    0.14 
 -10   0  10   -0.04    0.13 
   9   0 -10    2.15    0.22 
  -9   0  10    2.06    0.22 
   8   0 -10    1.51    0.19 
  -8   0  10    1.52    0.18 
  -7   0  10   29.92    1.16 
   6   0 -10    4.52    0.27 
  -6   0  10    4.84    0.28 
   5   0 -10    5.23    0.28 
  -5   0  10    5.57    0.29 
   4   0 -10    0.03    0.07 
   4   0 -10   -0.10    0.08 
  -4   0  10    0.07    0.09 
   3   0 -10   49.53    1.77 
   3   0 -10   48.86    1.77 
  -3   0  10   49.84    1.81 
   2   0 -10   25.23    0.97 
   2   0 -10   26.36    0.96 
  -2   0  10   26.52    0.99 
   1   0 -10   25.39    0.91 
   1   0 -10   21.63    0.88 
  -1   0  10   25.34    0.92 
   0   0 -10    8.68    0.38 
   0   0  10    8.84    0.40 
  -1   0 -10   11.67    0.50 
   1   0  10   12.79    0.52 
  -3   0 -10    6.77    0.34 
  -3   0 -10    6.74    0.33 
  -4   0 -10   17.99    0.73 
  -4   0 -10   17.23    0.71 
  -5   0 -10   18.88    0.76 
  -5   0 -10   18.71    0.78 
  -6   0 -10    1.01    0.15 
  -6   0 -10    0.71    0.17 
  -7   0 -10    0.06    0.15 
  -8   0 -10    0.94    0.20 
  -9   0 -10   -0.12    0.15 
 -10   0 -10    1.27    0.24 
 -11   0 -10   -0.10    0.19 
  14  -1 -10    1.58    0.25 
 -14   1  10    1.90    0.28 
  13  -1 -10    0.11    0.17 
 -13   1  10    0.02    0.18 
  12  -1 -10    1.35    0.22 
 -12   1  10    1.41    0.23 
  11  -1 -10    4.76    0.34 
 -11   1  10    4.32    0.35 
  10  -1 -10    0.02    0.13 
 -10   1  10    0.01    0.15 
   9  -1 -10    4.45    0.31 
  -9   1  10    3.92    0.29 
   8  -1 -10    5.29    0.34 
  -8   1  10    7.08    0.38 
   6  -1 -10   -0.05    0.11 
  -6   1  10    0.10    0.11 
   5  -1 -10    1.52    0.15 
  -5   1  10    1.82    0.18 
   4  -1 -10    3.72    0.22 
  -4   1  10    3.60    0.24 
   3  -1 -10   33.96    1.26 
  -3   1  10   35.23    1.30 
   2  -1 -10   13.71    0.53 
  -2   1  10   13.29    0.56 
   0  -1 -10    0.10    0.08 
   0   1  10    0.00    0.04 
  -1  -1 -10   19.86    0.78 
   1   1  10   20.30    0.79 
  -2  -1 -10   19.31    0.76 
   2   1  10   19.14    0.77 
  -3  -1 -10    6.61    0.36 
  -3  -1 -10    7.43    0.37 
   3   1  10    7.72    0.38 
  -4  -1 -10   -0.06    0.12 
  -5  -1 -10   11.32    0.53 
  -6  -1 -10   21.23    0.88 
  -7  -1 -10    2.05    0.23 
  -8  -1 -10    0.54    0.18 
  -9  -1 -10    0.35    0.18 
 -10  -1 -10    0.10    0.19 
 -11  -1 -10    0.55    0.22 
  14  -2 -10   -0.09    0.16 
 -14   2  10   -0.17    0.18 
  13  -2 -10    0.27    0.18 
 -13   2  10    0.04    0.18 
  12  -2 -10   -0.03    0.16 
 -12   2  10    0.11    0.17 
  11  -2 -10    2.33    0.24 
 -11   2  10    2.37    0.25 
  10  -2 -10   -0.10    0.13 
 -10   2  10   -0.15    0.14 
   9  -2 -10    2.92    0.26 
  -9   2  10    3.18    0.27 
   8  -2 -10    1.89    0.20 
  -8   2  10    2.25    0.22 
   6  -2 -10    0.51    0.12 
  -3   2  10    7.06    0.33 
  -2   2  10    0.81    0.13 
  -1   2  10   45.72    1.68 
   0   2  10    5.57    0.31 
   1   2  10   13.97    0.59 
   2   2  10   14.08    0.60 
   3   2  10    0.07    0.13 
  -4  -2 -10    0.83    0.17 
   4   2  10    0.96    0.18 
  -5  -2 -10   25.91    1.03 
  -6  -2 -10    1.10    0.18 
  -7  -2 -10    4.90    0.35 
  -8  -2 -10    6.00    0.40 
  -9  -2 -10   -0.08    0.16 
 -10  -2 -10   -0.15    0.18 
  14  -3 -10   -0.10    0.18 
 -14   3  10    0.16    0.19 
  13  -3 -10    2.55    0.28 
 -13   3  10    2.79    0.30 
  12  -3 -10    5.62    0.38 
 -12   3  10    5.37    0.37 
  11  -3 -10    5.32    0.37 
 -11   3  10    5.87    0.39 
  10  -3 -10    0.94    0.18 
 -10   3  10    1.02    0.18 
   9  -3 -10    0.50    0.15 
  -9   3  10    0.70    0.17 
   8  -3 -10    1.01    0.17 
  -8   3  10    1.36    0.19 
   5  -3 -10    5.48    0.28 
  -5   3  10    4.04    0.26 
  -4   3  10    0.48    0.12 
  -3   3  10    8.71    0.40 
  -2   3  10    5.92    0.32 
  -1   3  10    0.53    0.12 
   0   3  10    1.05    0.15 
   1   3  10    2.30    0.21 
   2   3  10    0.85    0.14 
   3   3  10   14.41    0.63 
  -4  -3 -10    1.26    0.19 
   4   3  10    1.25    0.19 
  -5  -3 -10   12.13    0.57 
  -6  -3 -10    1.95    0.22 
  -7  -3 -10    1.64    0.22 
  -8  -3 -10    6.99    0.43 
  -9  -3 -10    3.78    0.33 
 -10  -3 -10    3.82    0.37 
  14  -4 -10    0.26    0.20 
 -14   4  10    0.39    0.21 
  13  -4 -10    0.10    0.17 
 -13   4  10   -0.07    0.18 
  12  -4 -10   -0.09    0.15 
 -12   4  10    0.28    0.18 
  11  -4 -10    1.70    0.23 
 -11   4  10    2.24    0.25 
  10  -4 -10    5.20    0.35 
 -10   4  10    5.25    0.36 
   9  -4 -10    0.74    0.17 
  -9   4  10    0.67    0.17 
   8  -4 -10   11.31    0.52 
  -8   4  10   11.62    0.55 
  -7   4  10   33.45    1.30 
  -7   4  10   34.08    1.25 
  -6   4  10   18.75    0.77 
  -5   4  10    4.75    0.31 
  -4   4  10    9.87    0.45 
  -3   4  10   10.39    0.47 
  -2   4  10    2.25    0.20 
  -1   4  10   14.63    0.61 
   0   4  10    0.17    0.11 
   1   4  10   -0.01    0.11 
   2   4  10   35.08    1.34 
   3   4  10   17.22    0.73 
   4   4  10    0.14    0.15 
  -5  -4 -10    0.05    0.15 
   5   4  10    0.24    0.15 
  -6  -4 -10    0.11    0.16 
  -7  -4 -10    0.05    0.17 
  -8  -4 -10    0.64    0.19 
  -9  -4 -10    1.64    0.26 
  13  -5 -10   -0.02    0.16 
 -13   5  10   -0.12    0.18 
  12  -5 -10    0.72    0.19 
 -12   5  10    0.84    0.21 
  11  -5 -10    3.00    0.29 
 -11   5  10    3.28    0.31 
  10  -5 -10    2.75    0.25 
 -10   5  10    2.47    0.25 
   9  -5 -10    4.44    0.30 
  -9   5  10    3.64    0.30 
  -8   5  10   44.46    1.69 
  -8   5  10   44.70    1.63 
  -7   5  10    2.12    0.18 
  -7   5  10    1.88    0.22 
  -6   5  10   -0.35    0.11 
  -6   5  10    0.12    0.15 
  -5   5  10    3.11    0.26 
  -4   5  10    1.87    0.19 
  -3   5  10    0.30    0.13 
  -2   5  10   14.09    0.60 
  -1   5  10    3.47    0.25 
   0   5  10    1.26    0.16 
   1   5  10    0.13    0.14 
   2   5  10    3.61    0.29 
   3   5  10    3.59    0.29 
   4   5  10    2.06    0.22 
   5   5  10    0.75    0.17 
  -6  -5 -10    1.38    0.21 
   6   5  10    1.44    0.22 
  -7  -5 -10    0.27    0.17 
   7   5  10    0.50    0.19 
  -8  -5 -10    0.28    0.20 
  -9  -5 -10    0.28    0.20 
 -13   6  10    0.38    0.19 
 -12   6  10    0.71    0.20 
 -11   6  10   -0.02    0.16 
 -10   6  10    0.66    0.18 
  -9   6  10    0.28    0.16 
  -8   6  10    0.58    0.17 
  -8   6  10    0.73    0.14 
  -7   6  10   12.63    0.59 
  -7   6  10   13.16    0.56 
  -6   6  10   45.70    1.70 
  -6   6  10   44.74    1.67 
  -5   6  10    1.00    0.16 
  -5   6  10    1.02    0.18 
  -4   6  10    2.19    0.21 
  -3   6  10   -0.09    0.11 
  -2   6  10   12.89    0.57 
  -1   6  10    5.20    0.31 
   0   6  10   25.20    0.99 
   1   6  10   -0.17    0.13 
   2   6  10   13.55    0.61 
   3   6  10    0.20    0.15 
   4   6  10   -0.01    0.14 
   5   6  10    2.40    0.25 
   6   6  10    1.32    0.21 
   7   6  10    2.15    0.26 
  -8  -6 -10    0.19    0.19 
   8   6  10    0.51    0.21 
 -13   7  10    0.39    0.20 
 -12   7  10    2.97    0.31 
 -11   7  10   -0.02    0.17 
 -10   7  10    0.48    0.18 
  -9   7  10    0.97    0.19 
  -8   7  10    4.35    0.29 
  -8   7  10    4.28    0.31 
  -7   7  10    0.65    0.15 
  -7   7  10    0.92    0.18 
  -6   7  10   15.20    0.64 
  -6   7  10   14.62    0.65 
  -5   7  10   30.17    1.18 
  -5   7  10   31.01    1.19 
  -4   7  10   10.55    0.49 
  -4   7  10   10.37    0.48 
  -3   7  10    9.72    0.48 
  -3   7  10    9.62    0.46 
  -2   7  10    5.58    0.33 
  -1   7  10    0.01    0.13 
   0   7  10    0.33    0.14 
   1   7  10   -0.03    0.14 
   2   7  10   19.76    0.82 
   3   7  10    7.36    0.41 
   4   7  10   -0.01    0.15 
   5   7  10    1.07    0.19 
   6   7  10    0.17    0.17 
   7   7  10    0.51    0.20 
   7   7  10    0.68    0.21 
 -13   8  10    0.92    0.23 
 -12   8  10    0.20    0.20 
 -11   8  10    0.05    0.16 
 -10   8  10    0.15    0.17 
  -9   8  10   -0.10    0.15 
  -8   8  10   -0.06    0.12 
  -8   8  10    0.06    0.15 
  -7   8  10    3.87    0.28 
  -7   8  10    3.33    0.28 
  -6   8  10   -0.02    0.13 
  -6   8  10    0.17    0.15 
  -5   8  10    0.40    0.15 
  -5   8  10    0.46    0.15 
  -4   8  10    2.09    0.22 
  -4   8  10    2.10    0.22 
  -3   8  10   25.35    1.03 
  -3   8  10   26.40    1.02 
  -2   8  10    9.85    0.47 
  -2   8  10    9.90    0.49 
  -1   8  10    0.24    0.15 
  -1   8  10    0.55    0.17 
   0   8  10    2.64    0.25 
   0   8  10    2.33    0.22 
   1   8  10    5.31    0.34 
   1   8  10    5.90    0.37 
   2   8  10    0.06    0.16 
   3   8  10    8.33    0.45 
   3   8  10    8.46    0.46 
   4   8  10    3.89    0.32 
   4   8  10    4.13    0.34 
   5   8  10    0.62    0.20 
   6   8  10    0.02    0.17 
   7   8  10    0.32    0.20 
 -12   9  10    0.49    0.21 
 -11   9  10   -0.23    0.17 
 -10   9  10    1.51    0.23 
  -9   9  10   -0.26    0.16 
  -8   9  10    0.12    0.14 
  -8   9  10   -0.15    0.14 
  -7   9  10    0.01    0.15 
  -7   9  10   -0.05    0.13 
  -6   9  10    0.40    0.16 
  -6   9  10    0.37    0.16 
  -5   9  10    0.37    0.16 
  -5   9  10    0.22    0.15 
  -4   9  10    5.63    0.35 
  -4   9  10    5.54    0.34 
  -3   9  10    0.52    0.17 
  -3   9  10    0.68    0.17 
  -2   9  10   -0.04    0.15 
  -2   9  10    0.15    0.15 
  -1   9  10    0.39    0.17 
  -1   9  10    0.29    0.16 
   0   9  10   -0.04    0.14 
   0   9  10   -0.02    0.17 
   1   9  10    1.73    0.24 
   1   9  10    1.43    0.19 
   2   9  10    3.53    0.34 
   3   9  10    0.04    0.17 
   4   9  10    0.12    0.18 
   5   9  10    0.32    0.19 
   6   9  10    0.48    0.21 
 -11  10  10    0.02    0.19 
 -10  10  10    0.58    0.20 
  -9  10  10    0.34    0.18 
  -8  10  10    0.61    0.19 
  -8  10  10    0.77    0.17 
  -7  10  10    1.40    0.21 
  -7  10  10    1.46    0.21 
  -6  10  10    2.17    0.24 
  -6  10  10    2.26    0.23 
  -5  10  10    1.49    0.21 
  -5  10  10    1.41    0.20 
  -4  10  10    2.06    0.24 
  -4  10  10    2.07    0.22 
  -3  10  10    0.17    0.16 
  -3  10  10    0.17    0.16 
  -2  10  10   12.83    0.58 
  -2  10  10   12.16    0.60 
  -1  10  10    4.89    0.35 
   0  10  10   10.28    0.54 
   1  10  10    2.79    0.29 
   2  10  10    1.02    0.22 
   3  10  10    2.04    0.28 
   4  10  10   -0.02    0.19 
   5  10  10   -0.10    0.18 
 -11  11  10    1.61    0.26 
 -10  11  10    0.78    0.22 
  -9  11  10    0.36    0.17 
  -9  11  10    0.52    0.19 
  -8  11  10    1.74    0.23 
  -8  11  10    1.57    0.23 
  -7  11  10    1.64    0.22 
  -7  11  10    1.79    0.23 
  -6  11  10    0.33    0.17 
  -6  11  10   -0.13    0.14 
  -5  11  10    0.17    0.15 
  -5  11  10    0.08    0.16 
  -4  11  10    1.24    0.22 
  -3  11  10   -0.05    0.15 
  -2  11  10    3.79    0.32 
  -1  11  10   -0.04    0.16 
   0  11  10   -0.14    0.16 
   1  11  10    1.77    0.26 
   2  11  10    0.13    0.18 
   3  11  10    1.56    0.26 
 -10  12  10    1.62    0.26 
  -9  12  10    0.50    0.20 
  -9  12  10    0.91    0.21 
  -8  12  10    0.91    0.21 
  -7  12  10    1.46    0.23 
  -6  12  10    0.97    0.22 
  -5  12  10    0.18    0.18 
  -4  12  10    0.03    0.16 
  -3  12  10    1.93    0.26 
  -2  12  10   -0.03    0.16 
  -1  12  10    0.09    0.19 
   0  12  10    5.24    0.42 
   1  12  10   -0.37    0.17 
   2  12  10    1.72    0.27 
  -8  13  10    0.06    0.18 
  -7  13  10    0.47    0.19 
  -6  13  10   -0.01    0.18 
  -5  13  10    1.25    0.23 
  -4  13  10    0.13    0.17 
  -3  13  10    0.16    0.19 
  -2  13  10    0.18    0.20 
  -1  13  10    0.96    0.23 
   0  13  10    0.18    0.20 
   0  16 -11    0.24    0.19 
  -1  16 -11    0.28    0.19 
  -2  16 -11    0.24    0.21 
  -3  16 -11   -0.04    0.19 
  -4  16 -11    0.20    0.20 
   3  15 -11    0.34    0.20 
   3  15 -11    0.61    0.19 
   2  15 -11   -0.10    0.17 
   2  15 -11   -0.19    0.17 
   1  15 -11    1.11    0.22 
   1  15 -11    0.90    0.22 
   0  15 -11    1.52    0.24 
  -1  15 -11    1.33    0.24 
  -2  15 -11    0.00    0.17 
  -3  15 -11    0.19    0.17 
  -4  15 -11    1.24    0.24 
  -5  15 -11    0.94    0.23 
  -6  15 -11    0.10    0.19 
   4  14 -11   -0.03    0.16 
   4  14 -11    0.09    0.18 
   3  14 -11    0.26    0.20 
   3  14 -11    0.56    0.19 
   2  14 -11    1.57    0.22 
   2  14 -11    1.50    0.23 
   1  14 -11    0.91    0.20 
   1  14 -11    0.62    0.19 
   0  14 -11    0.06    0.14 
   0  14 -11   -0.16    0.14 
  -1  14 -11    0.20    0.16 
  -2  14 -11    0.12    0.16 
  -3  14 -11    1.67    0.25 
  -4  14 -11    0.10    0.17 
  -5  14 -11   -0.06    0.16 
  -6  14 -11   -0.20    0.15 
  -7  14 -11    0.05    0.18 
  -8  14 -11    0.19    0.20 
   6  13 -11    0.92    0.22 
   5  13 -11    1.06    0.23 
   4  13 -11    6.16    0.44 
   4  13 -11    6.61    0.41 
   3  13 -11    6.31    0.41 
   3  13 -11    7.12    0.45 
   2  13 -11    0.67    0.18 
   2  13 -11    0.89    0.18 
   1  13 -11    1.32    0.20 
   1  13 -11    0.93    0.20 
   0  13 -11    1.07    0.19 
   0  13 -11    1.29    0.18 
  -1  13 -11    2.08    0.24 
  -2  13 -11    0.12    0.16 
  -3  13 -11    5.79    0.38 
  -4  13 -11    0.12    0.16 
  -5  13 -11    2.39    0.28 
  -6  13 -11    0.60    0.19 
  -7  13 -11    0.11    0.19 
  -8  13 -11   -0.31    0.15 
  -9  13 -11    0.17    0.18 
   7  12 -11    0.19    0.18 
   6  12 -11    2.70    0.30 
   5  12 -11    1.81    0.25 
   4  12 -11   -0.05    0.16 
   4  12 -11    0.28    0.15 
   3  12 -11    2.08    0.23 
   3  12 -11    1.77    0.23 
   2  12 -11    2.49    0.25 
   2  12 -11    2.57    0.25 
   1  12 -11    0.69    0.17 
   1  12 -11    0.87    0.17 
   0  12 -11   -0.04    0.13 
   0  12 -11    0.07    0.13 
  -1  12 -11    0.82    0.18 
  -2  12 -11    0.23    0.15 
  -3  12 -11    2.16    0.24 
  -4  12 -11    3.35    0.31 
  -5  12 -11   15.02    0.70 
  -6  12 -11    0.30    0.17 
  -7  12 -11    2.73    0.29 
  -8  12 -11   -0.21    0.17 
  -9  12 -11    0.04    0.18 
   8  11 -11    0.48    0.21 
   7  11 -11    6.89    0.44 
   6  11 -11    7.92    0.47 
   5  11 -11    2.41    0.27 
   4  11 -11    0.82    0.16 
   4  11 -11    0.85    0.18 
   3  11 -11    0.32    0.14 
   3  11 -11    0.07    0.13 
   2  11 -11    2.75    0.25 
   2  11 -11    2.52    0.24 
   1  11 -11    0.09    0.13 
   1  11 -11   -0.07    0.12 
   0  11 -11    0.01    0.11 
   0  11 -11    0.05    0.13 
  -1  11 -11    0.17    0.11 
  -1  11 -11    0.10    0.13 
  -2  11 -11    3.46    0.30 
  -3  11 -11    1.74    0.22 
  -4  11 -11   16.30    0.72 
  -5  11 -11    1.25    0.21 
  -6  11 -11    0.05    0.16 
  -7  11 -11    6.55    0.38 
  -7  11 -11    6.53    0.42 
  -8  11 -11    0.48    0.19 
  -8  11 -11    0.60    0.17 
  -9  11 -11    0.11    0.18 
  -9  11 -11    0.57    0.19 
 -10  11 -11    2.93    0.29 
 -10  11 -11    2.23    0.28 
   9  10 -11    0.51    0.21 
   8  10 -11    0.64    0.21 
   7  10 -11    0.24    0.17 
   6  10 -11    1.80    0.24 
   5  10 -11    4.91    0.35 
   5  10 -11    5.59    0.33 
   4  10 -11    4.96    0.31 
   4  10 -11    4.89    0.33 
   3  10 -11    3.16    0.27 
   3  10 -11    4.17    0.31 
   2  10 -11    5.97    0.34 
   2  10 -11    5.62    0.33 
   1  10 -11    0.49    0.14 
   1  10 -11    0.50    0.15 
   0  10 -11   -0.03    0.10 
   0  10 -11   -0.26    0.11 
  -1  10 -11    0.99    0.14 
  -1  10 -11    1.02    0.17 
  -2  10 -11    5.60    0.35 
  -3  10 -11    2.71    0.26 
  -4  10 -11    6.03    0.37 
  -4  10 -11    5.27    0.32 
  -5  10 -11    1.59    0.22 
  -5  10 -11    1.49    0.18 
  -6  10 -11   -0.10    0.14 
  -6  10 -11   -0.12    0.13 
  -7  10 -11    3.09    0.27 
  -7  10 -11    2.28    0.25 
  -8  10 -11    0.76    0.18 
  -8  10 -11    0.52    0.18 
  -9  10 -11    7.09    0.44 
  -9  10 -11    7.39    0.44 
 -10  10 -11    1.65    0.26 
 -10  10 -11    1.59    0.23 
  10   9 -11   -0.02    0.19 
   9   9 -11    0.02    0.17 
   8   9 -11    0.55    0.20 
   7   9 -11    0.53    0.17 
   6   9 -11    0.24    0.17 
   5   9 -11   10.35    0.49 
   5   9 -11   11.02    0.54 
   4   9 -11    0.73    0.17 
   4   9 -11    0.87    0.15 
   3   9 -11   11.42    0.53 
   3   9 -11   11.46    0.52 
   2   9 -11   22.00    0.85 
   2   9 -11   20.68    0.85 
   1   9 -11    1.12    0.17 
   1   9 -11    1.51    0.16 
   0   9 -11    3.44    0.23 
   0   9 -11    3.24    0.26 
  -1   9 -11   -0.12    0.12 
  -1   9 -11    0.10    0.09 
  -2   9 -11    6.25    0.36 
   2  -9  11    6.11    0.32 
  -3   9 -11   11.11    0.53 
   3  -9  11   11.51    0.50 
  -4   9 -11   15.25    0.67 
  -4   9 -11   14.59    0.62 
  -5   9 -11   -0.09    0.14 
  -5   9 -11   -0.12    0.12 
  -6   9 -11   15.77    0.68 
  -6   9 -11   16.21    0.71 
  -7   9 -11   14.89    0.67 
  -7   9 -11   14.90    0.66 
  -8   9 -11    0.38    0.17 
  -8   9 -11    0.27    0.15 
  -9   9 -11    2.52    0.26 
  -9   9 -11    2.33    0.26 
 -10   9 -11    0.94    0.22 
 -10   9 -11    0.68    0.19 
 -11   9 -11    0.69    0.22 
  10   8 -11    3.23    0.32 
   9   8 -11    0.72    0.20 
   8   8 -11    1.99    0.25 
   7   8 -11    0.75    0.18 
   6   8 -11   33.13    1.29 
   5   8 -11   14.98    0.66 
   5   8 -11   14.36    0.62 
   4   8 -11    7.76    0.39 
   4   8 -11    8.20    0.42 
   3   8 -11    2.29    0.21 
   3   8 -11    2.16    0.19 
   2   8 -11    4.46    0.29 
   2   8 -11    4.60    0.29 
   1   8 -11    2.46    0.22 
   1   8 -11    2.61    0.21 
  -1  -8  11    2.49    0.19 
   0   8 -11    0.11    0.12 
   0   8 -11   -0.03    0.09 
   0  -8  11    0.16    0.09 
  -1   8 -11    1.11    0.17 
  -1   8 -11    1.30    0.13 
   1  -8  11    1.28    0.14 
   2  -8  11    7.22    0.35 
  -3   8 -11    0.05    0.13 
  -3   8 -11   -0.05    0.11 
   3  -8  11    0.20    0.11 
  -4   8 -11   38.40    1.45 
  -4   8 -11   39.56    1.48 
  -5   8 -11    2.21    0.21 
  -5   8 -11    2.26    0.23 
  -6   8 -11   17.04    0.72 
  -6   8 -11   17.17    0.74 
  -7   8 -11    2.83    0.26 
  -7   8 -11    3.05    0.28 
  -8   8 -11    1.48    0.22 
  -8   8 -11    1.69    0.21 
  -9   8 -11    6.59    0.42 
  -9   8 -11    6.63    0.40 
 -10   8 -11    2.62    0.30 
 -10   8 -11    2.79    0.27 
 -11   8 -11    0.94    0.23 
  11   7 -11    0.46    0.21 
  10   7 -11    0.64    0.19 
   9   7 -11    0.14    0.16 
   8   7 -11    0.36    0.17 
   7   7 -11    6.79    0.41 
   6   7 -11   23.42    0.96 
   5   7 -11    9.56    0.47 
   5   7 -11    8.79    0.42 
  -5  -7  11    9.12    0.42 
   4   7 -11    4.93    0.29 
   4   7 -11    4.93    0.32 
  -4  -7  11    5.53    0.29 
   3   7 -11    3.25    0.24 
   3   7 -11    3.66    0.26 
  -3  -7  11    3.52    0.23 
   2   7 -11   10.52    0.47 
   2   7 -11   10.48    0.48 
  -2  -7  11   11.03    0.45 
   1   7 -11    2.53    0.19 
   1   7 -11    2.48    0.22 
  -1  -7  11    2.59    0.20 
   0   7 -11    0.30    0.11 
   0   7 -11    0.20    0.08 
   0  -7  11    0.05    0.09 
  -1   7 -11    6.86    0.36 
   1  -7  11    7.01    0.33 
  -3   7 -11   29.47    1.12 
   3  -7  11   29.60    1.12 
  -4   7 -11    0.00    0.12 
  -4   7 -11    0.12    0.12 
  -5   7 -11   25.81    1.01 
  -5   7 -11   24.93    1.00 
  -6   7 -11    4.48    0.31 
  -6   7 -11    4.32    0.31 
  -7   7 -11    0.01    0.15 
  -7   7 -11    0.22    0.14 
  -8   7 -11    0.31    0.17 
  -8   7 -11    0.26    0.15 
  -9   7 -11    0.87    0.18 
  -9   7 -11    0.70    0.20 
 -10   7 -11   -0.06    0.15 
 -10   7 -11    0.10    0.20 
  11   6 -11    0.81    0.20 
  10   6 -11    1.01    0.21 
   9   6 -11    0.59    0.18 
   8   6 -11    0.33    0.15 
  -8  -6  11    0.39    0.14 
   7   6 -11   -0.11    0.14 
  -7  -6  11    0.03    0.11 
   6   6 -11    3.93    0.30 
  -6  -6  11    4.31    0.28 
   5   6 -11   31.82    1.20 
   5   6 -11   31.72    1.23 
  -5  -6  11   33.02    1.21 
   4   6 -11    2.04    0.18 
   4   6 -11    2.43    0.22 
  -4  -6  11    2.32    0.19 
   3   6 -11    4.52    0.27 
   3   6 -11    4.60    0.27 
  -3  -6  11    4.74    0.26 
   2   6 -11    0.32    0.10 
   2   6 -11    0.45    0.11 
  -2  -6  11    0.31    0.10 
   1   6 -11   18.75    0.74 
   1   6 -11   18.16    0.71 
  -1  -6  11   18.70    0.72 
   0   6 -11   -0.03    0.07 
   0   6 -11   -0.11    0.10 
   0  -6  11    0.03    0.09 
  -1   6 -11   13.31    0.52 
  -1   6 -11   14.34    0.59 
   1  -6  11   13.34    0.56 
  -3   6 -11    3.22    0.24 
  -3   6 -11    3.08    0.25 
  -4   6 -11    3.02    0.25 
  -4   6 -11    3.54    0.26 
  -5   6 -11    0.51    0.15 
  -5   6 -11    0.70    0.15 
  -6   6 -11    1.82    0.20 
  -6   6 -11    1.64    0.20 
  -7   6 -11   10.50    0.52 
  -7   6 -11   10.64    0.51 
  -8   6 -11    0.28    0.17 
  -8   6 -11    0.19    0.14 
  -9   6 -11    8.20    0.46 
  -9   6 -11    8.00    0.44 
 -10   6 -11   12.96    0.66 
 -10   6 -11   14.10    0.63 
 -11   6 -11    8.35    0.52 
  12   5 -11   -0.01    0.17 
  11   5 -11   -0.15    0.15 
  10   5 -11    0.11    0.16 
 -10  -5  11    0.40    0.15 
   9   5 -11    0.64    0.18 
  -9  -5  11    0.48    0.15 
   8   5 -11    1.67    0.21 
  -8  -5  11    1.65    0.19 
   7   5 -11    0.72    0.17 
  -7  -5  11    0.70    0.15 
   6   5 -11   21.90    0.83 
   6   5 -11   22.26    0.89 
  -6  -5  11   21.88    0.87 
   5   5 -11    0.90    0.15 
   5   5 -11    0.88    0.12 
  -5  -5  11    0.84    0.14 
   4   5 -11   37.91    1.40 
   4   5 -11   38.89    1.41 
  -4  -5  11   37.29    1.41 
   3   5 -11   18.22    0.71 
   3   5 -11   17.81    0.71 
  -3  -5  11   18.09    0.71 
   2   5 -11   17.12    0.67 
   2   5 -11   17.30    0.68 
  -2  -5  11   17.13    0.68 
   1   5 -11   14.64    0.61 
   1   5 -11   15.00    0.58 
  -1  -5  11   14.78    0.59 
   0   5 -11   41.06    1.49 
   0  -5  11   39.49    1.48 
  -1   5 -11   34.15    1.20 
  -1   5 -11   33.40    1.26 
   1  -5  11   33.04    1.25 
  -2   5 -11    3.31    0.15 
   2  -5  11    3.19    0.23 
  -3   5 -11    4.11    0.27 
  -3   5 -11    3.93    0.26 
  -4   5 -11   29.12    1.13 
  -4   5 -11   29.50    1.12 
  -5   5 -11    0.27    0.13 
  -5   5 -11    0.30    0.14 
  -6   5 -11    7.84    0.41 
  -6   5 -11    7.07    0.40 
  -7   5 -11    3.22    0.26 
  -7   5 -11    2.79    0.26 
  -8   5 -11    7.80    0.42 
  -8   5 -11    7.93    0.45 
  -9   5 -11    1.24    0.19 
  -9   5 -11    0.56    0.19 
 -10   5 -11    0.62    0.20 
 -11   5 -11    0.30    0.21 
  12   4 -11    0.07    0.19 
 -12  -4  11    0.37    0.19 
  11   4 -11    7.51    0.46 
 -11  -4  11    7.55    0.43 
  10   4 -11    4.29    0.33 
 -10  -4  11    4.51    0.33 
   9   4 -11    1.12    0.19 
  -9  -4  11    1.27    0.19 
   8   4 -11    1.62    0.21 
  -8  -4  11    1.98    0.20 
   7   4 -11   43.77    1.62 
  -7  -4  11   42.41    1.61 
   6   4 -11   10.67    0.50 
   6   4 -11   10.29    0.43 
  -6  -4  11    9.74    0.47 
   5   4 -11   62.60    2.23 
   5   4 -11   63.23    2.26 
  -5  -4  11   61.64    2.27 
   4   4 -11   61.48    2.17 
   4   4 -11   61.13    2.18 
  -4  -4  11   59.02    2.20 
   3   4 -11    0.06    0.08 
   3   4 -11   -0.01    0.09 
  -3  -4  11    0.07    0.10 
   2   4 -11    0.53    0.10 
   2   4 -11    0.44    0.10 
  -2  -4  11    0.56    0.11 
   1   4 -11    1.05    0.11 
   1   4 -11    1.04    0.13 
  -1  -4  11    1.14    0.13 
   0   4 -11    0.08    0.09 
   0   4 -11    0.04    0.05 
   0  -4  11    0.02    0.09 
  -1   4 -11    2.33    0.13 
  -1   4 -11    2.01    0.17 
   1  -4  11    2.67    0.20 
  -2   4 -11    0.00    0.04 
   2  -4  11   -0.01    0.10 
  -3   4 -11   12.74    0.56 
  -3   4 -11   13.44    0.57 
  -4   4 -11    4.23    0.28 
  -4   4 -11    3.33    0.26 
  -5   4 -11    2.81    0.23 
  -5   4 -11    3.09    0.25 
  -6   4 -11    9.84    0.47 
  -6   4 -11    9.91    0.49 
  -7   4 -11    2.03    0.23 
  -7   4 -11    2.26    0.21 
  -8   4 -11   -0.03    0.16 
  -8   4 -11    0.14    0.14 
  -9   4 -11    5.51    0.34 
  -9   4 -11    5.56    0.37 
 -10   4 -11    0.78    0.21 
 -11   4 -11    2.64    0.30 
  13   3 -11    1.25    0.24 
 -13  -3  11    1.17    0.23 
  12   3 -11    1.77    0.25 
 -12  -3  11    1.79    0.24 
  11   3 -11    2.12    0.25 
 -11  -3  11    2.03    0.24 
  10   3 -11    0.37    0.16 
 -10  -3  11    0.16    0.15 
   9   3 -11    0.59    0.16 
  -9  -3  11    0.53    0.16 
   8   3 -11    1.75    0.21 
  -8  -3  11    1.61    0.19 
   7   3 -11    5.78    0.34 
  -7  -3  11    5.57    0.34 
   6   3 -11    1.55    0.19 
   6   3 -11    1.84    0.16 
  -6  -3  11    1.76    0.18 
   5   3 -11    0.16    0.08 
   5   3 -11    0.08    0.11 
  -5  -3  11    0.20    0.12 
   4   3 -11   26.59    1.02 
   4   3 -11   27.11    1.00 
  -4  -3  11   27.12    1.03 
   3   3 -11   15.67    0.62 
   3   3 -11   15.50    0.62 
  -3  -3  11   15.68    0.63 
   2   3 -11    4.64    0.24 
   2   3 -11    4.33    0.24 
  -2  -3  11    4.40    0.25 
   1   3 -11    5.86    0.28 
   1   3 -11    4.77    0.24 
  -1  -3  11    5.26    0.28 
   0   3 -11    0.84    0.12 
   0   3 -11    0.82    0.09 
   0  -3  11    0.77    0.12 
  -1   3 -11    8.07    0.32 
   1  -3  11    8.16    0.38 
  -2   3 -11    8.03    0.39 
   2  -3  11    9.48    0.42 
  -3   3 -11    3.33    0.23 
  -3   3 -11    3.12    0.23 
   3  -3  11    2.99    0.24 
  -4   3 -11   23.35    0.92 
  -4   3 -11   22.98    0.91 
  -5   3 -11    7.35    0.37 
  -5   3 -11    7.12    0.39 
  -6   3 -11    0.33    0.14 
  -6   3 -11    0.25    0.13 
  -7   3 -11    0.17    0.15 
  -7   3 -11   -0.06    0.12 
  -8   3 -11    0.02    0.14 
  -8   3 -11   -0.20    0.12 
  -9   3 -11    0.17    0.17 
  -9   3 -11   -0.25    0.13 
 -10   3 -11    0.07    0.17 
 -11   3 -11    1.23    0.24 
  13   2 -11    0.25    0.19 
 -13  -2  11   -0.20    0.17 
  12   2 -11    1.12    0.22 
 -12  -2  11    0.54    0.18 
  11   2 -11    0.28    0.18 
 -11  -2  11    0.23    0.17 
  10   2 -11    0.20    0.14 
 -10  -2  11    0.25    0.16 
   9   2 -11    3.55    0.30 
  -9  -2  11    3.71    0.29 
   8   2 -11    1.63    0.20 
  -8  -2  11    1.81    0.19 
   7   2 -11    7.11    0.38 
  -7  -2  11    7.17    0.38 
   6   2 -11    1.32    0.13 
   6   2 -11    1.24    0.17 
  -6  -2  11    1.11    0.16 
   5   2 -11    1.26    0.12 
   5   2 -11    1.23    0.15 
  -5  -2  11    1.30    0.16 
   4   2 -11    1.23    0.12 
   4   2 -11    1.45    0.14 
  -4  -2  11    1.39    0.15 
   3   2 -11    9.17    0.39 
   3   2 -11    9.10    0.39 
  -3  -2  11    9.38    0.41 
   2   2 -11    2.98    0.18 
   2   2 -11    2.82    0.18 
  -2  -2  11    2.88    0.20 
   1   2 -11   16.46    0.61 
   1   2 -11   12.62    0.57 
  -1  -2  11   16.53    0.62 
   0   2 -11    0.45    0.10 
   0   2 -11    0.39    0.07 
   0  -2  11    0.35    0.10 
   1  -2  11    7.76    0.38 
  -2   2 -11    0.29    0.10 
   2  -2  11    0.37    0.12 
  -3   2 -11    0.02    0.11 
  -3   2 -11   -0.12    0.10 
   3  -2  11   -0.16    0.11 
  -5   2 -11    2.11    0.18 
  -6   2 -11    0.06    0.12 
  -6   2 -11   -0.04    0.12 
  -7   2 -11    0.42    0.16 
  -7   2 -11    0.35    0.13 
  -8   2 -11    2.23    0.24 
  -8   2 -11    2.49    0.22 
  -9   2 -11    0.82    0.17 
  -9   2 -11    0.74    0.19 
 -10   2 -11    0.70    0.20 
 -11   2 -11    0.44    0.20 
  13   1 -11    0.82    0.22 
 -13  -1  11    0.56    0.21 
  12   1 -11    0.21    0.18 
 -12  -1  11    0.18    0.18 
  11   1 -11    1.23    0.22 
 -11  -1  11    1.52    0.22 
  10   1 -11    2.80    0.27 
 -10  -1  11    2.99    0.28 
   9   1 -11    0.25    0.14 
  -9  -1  11    0.00    0.13 
   8   1 -11    4.82    0.31 
  -8  -1  11    5.04    0.33 
   7   1 -11   18.48    0.76 
  -7  -1  11   18.02    0.76 
   6   1 -11    3.96    0.26 
  -6  -1  11    4.13    0.27 
   5   1 -11    7.49    0.33 
   5   1 -11    8.09    0.38 
  -5  -1  11    7.57    0.39 
   4   1 -11   21.48    0.85 
   4   1 -11   22.17    0.83 
  -4  -1  11   22.78    0.87 
   3   1 -11    0.03    0.08 
   3   1 -11    0.14    0.08 
  -3  -1  11   -0.12    0.09 
   2   1 -11    5.06    0.26 
   2   1 -11    5.08    0.25 
  -2  -1  11    5.00    0.28 
   1   1 -11   96.95    3.48 
   1   1 -11  101.74    3.53 
  -1  -1  11   99.78    3.56 
   0   1 -11   48.64    1.77 
   0  -1  11   48.48    1.78 
   1  -1  11   70.59    2.55 
  -2   1 -11    2.31    0.19 
   2  -1  11    2.21    0.21 
  -4   1 -11    1.23    0.16 
  -5   1 -11    4.72    0.29 
  -5   1 -11    4.12    0.29 
  -6   1 -11    0.10    0.14 
  -6   1 -11    0.42    0.14 
  -7   1 -11   14.98    0.67 
  -7   1 -11   14.83    0.65 
  -8   1 -11    8.38    0.47 
  -8   1 -11    8.81    0.44 
  -9   1 -11    0.67    0.19 
 -10   1 -11   -0.04    0.18 
 -11   1 -11    1.11    0.25 
  13   0 -11    2.86    0.30 
 -13   0  11    2.85    0.30 
  12   0 -11    1.94    0.25 
 -12   0  11    1.91    0.25 
  11   0 -11    9.86    0.50 
 -11   0  11    9.53    0.51 
  10   0 -11    0.10    0.15 
 -10   0  11   -0.03    0.15 
   9   0 -11    6.84    0.39 
  -9   0  11    5.80    0.36 
   8   0 -11    2.10    0.22 
  -8   0  11    2.39    0.23 
   7   0 -11    0.85    0.16 
  -7   0  11    0.94    0.16 
   6   0 -11    5.46    0.30 
  -6   0  11    5.33    0.33 
   5   0 -11   12.25    0.53 
  -5   0  11   13.33    0.56 
   4   0 -11   -0.07    0.07 
   4   0 -11   -0.07    0.08 
  -4   0  11    0.11    0.10 
   3   0 -11   12.83    0.52 
   3   0 -11   12.46    0.52 
  -3   0  11   12.82    0.54 
   2   0 -11   49.03    1.76 
   2   0 -11   47.66    1.74 
  -2   0  11   49.31    1.79 
   1   0 -11   11.24    0.48 
  -1   0  11   11.28    0.49 
   0   0 -11    0.86    0.12 
   0   0  11    0.79    0.13 
  -1   0 -11    0.04    0.05 
   1   0  11    0.07    0.08 
  -4   0 -11    0.48    0.13 
  -4   0 -11    0.35    0.15 
  -5   0 -11    3.86    0.28 
  -5   0 -11    3.84    0.26 
  -6   0 -11    5.16    0.32 
  -6   0 -11    5.72    0.35 
  -7   0 -11   -0.02    0.15 
  -8   0 -11    7.32    0.44 
  -9   0 -11    0.98    0.21 
 -10   0 -11    5.55    0.41 
 -11   0 -11    0.85    0.23 
  13  -1 -11    0.54    0.20 
 -13   1  11    0.66    0.20 
  12  -1 -11    1.08    0.20 
 -12   1  11    1.22    0.21 
  11  -1 -11    1.06    0.19 
 -11   1  11    1.52    0.22 
  10  -1 -11    0.01    0.14 
 -10   1  11    0.22    0.15 
   9  -1 -11    4.55    0.33 
  -9   1  11    5.28    0.35 
   8  -1 -11    9.40    0.46 
  -8   1  11    9.63    0.47 
   7  -1 -11    2.36    0.22 
  -7   1  11    2.19    0.21 
   6  -1 -11   11.78    0.49 
  -6   1  11   10.24    0.50 
   5  -1 -11   14.22    0.61 
  -5   1  11   15.53    0.63 
   4  -1 -11   13.64    0.56 
  -4   1  11   14.10    0.59 
   3  -1 -11   12.19    0.51 
  -3   1  11   12.68    0.54 
  -2   1  11    7.31    0.35 
  -1   1  11   -0.03    0.03 
   0  -1 -11    0.17    0.09 
   1   1  11    6.74    0.34 
  -2  -1 -11   20.48    0.80 
   2   1  11   19.66    0.80 
   3   1  11    0.70    0.16 
  -4  -1 -11   16.84    0.72 
   4   1  11   17.14    0.73 
  -5  -1 -11    3.42    0.28 
  -6  -1 -11    2.14    0.23 
  -7  -1 -11    0.06    0.14 
  -8  -1 -11    0.13    0.17 
  -9  -1 -11    0.95    0.21 
 -10  -1 -11    0.89    0.23 
  13  -2 -11    0.65    0.21 
 -13   2  11    0.81    0.20 
  12  -2 -11    0.29    0.17 
 -12   2  11    0.03    0.17 
  11  -2 -11    2.48    0.26 
 -11   2  11    2.21    0.25 
  10  -2 -11    0.79    0.18 
 -10   2  11    1.11    0.20 
   9  -2 -11   26.64    1.05 
  -9   2  11   26.15    1.06 
   8  -2 -11   32.76    1.27 
  -8   2  11   33.15    1.28 
   7  -2 -11   -0.06    0.12 
  -7   2  11   -0.07    0.13 
   6  -2 -11    1.65    0.18 
   4  -2 -11    1.31    0.14 
  -3   2  11   -0.03    0.01 
  -2   2  11   20.52    0.81 
  -1   2  11    2.97    0.22 
   0   2  11    0.97    0.15 
   1   2  11    4.54    0.30 
   2   2  11   19.83    0.80 
   3   2  11   13.94    0.61 
  -4  -2 -11   11.06    0.52 
   4   2  11   11.28    0.53 
  -5  -2 -11    4.69    0.32 
  -6  -2 -11    2.04    0.23 
  -7  -2 -11   -0.09    0.15 
  -8  -2 -11    0.20    0.16 
  -9  -2 -11    0.02    0.18 
 -10  -2 -11    0.17    0.19 
  13  -3 -11    1.46    0.24 
 -13   3  11    1.66    0.25 
  12  -3 -11    0.08    0.16 
 -12   3  11    0.03    0.17 
  11  -3 -11    0.27    0.16 
 -11   3  11    0.22    0.17 
  10  -3 -11    1.15    0.20 
 -10   3  11    1.25    0.19 
   9  -3 -11    3.23    0.27 
  -9   3  11    3.58    0.30 
   8  -3 -11    0.00    0.14 
  -8   3  11    0.07    0.15 
  -7   3  11   16.51    0.70 
   5  -3 -11   36.64    1.37 
  -4   3  11    1.32    0.17 
  -3   3  11    0.32    0.13 
  -2   3  11   11.93    0.53 
  -1   3  11    2.86    0.24 
   0   3  11   18.93    0.77 
   1   3  11    3.83    0.29 
   2   3  11    8.18    0.43 
   3   3  11    0.61    0.16 
   4   3  11    0.93    0.17 
  -5  -3 -11   -0.13    0.14 
   5   3  11   -0.11    0.15 
  -6  -3 -11    6.89    0.41 
  -7  -3 -11    0.61    0.19 
  -8  -3 -11    0.80    0.20 
  -9  -3 -11    3.19    0.32 
  13  -4 -11    0.95    0.22 
 -13   4  11    0.98    0.22 
  12  -4 -11    7.92    0.45 
 -12   4  11    6.96    0.44 
  11  -4 -11    0.99    0.20 
 -11   4  11    0.96    0.20 
  10  -4 -11    2.33    0.24 
 -10   4  11    1.96    0.23 
   9  -4 -11    2.27    0.24 
  -9   4  11    2.73    0.25 
   8  -4 -11    0.27    0.15 
  -8   4  11    0.50    0.16 
   7  -4 -11    5.00    0.32 
  -7   4  11    5.11    0.35 
  -7   4  11    5.21    0.28 
  -6   4  11    0.57    0.17 
  -5   4  11    1.62    0.20 
  -4   4  11   34.81    1.32 
  -3   4  11    4.87    0.31 
  -2   4  11    0.73    0.14 
  -1   4  11    0.62    0.14 
   0   4  11    1.64    0.19 
   1   4  11    4.48    0.31 
   2   4  11   15.72    0.69 
   3   4  11    9.42    0.48 
   4   4  11    2.98    0.29 
   5   4  11    2.42    0.24 
  -6  -4 -11    0.64    0.18 
   6   4  11    0.72    0.19 
  -7  -4 -11   -0.06    0.17 
   7   4  11   -0.16    0.17 
  -8  -4 -11    3.08    0.31 
  -9  -4 -11    0.15    0.20 
  13  -5 -11    0.13    0.19 
 -13   5  11   -0.03    0.17 
  12  -5 -11    0.17    0.16 
 -12   5  11    0.41    0.18 
  11  -5 -11    0.67    0.18 
 -11   5  11    0.80    0.19 
  10  -5 -11    3.43    0.31 
 -10   5  11    3.66    0.31 
   9  -5 -11    0.63    0.16 
  -9   5  11    0.60    0.18 
  -8   5  11    0.79    0.18 
  -8   5  11    0.87    0.14 
  -7   5  11    0.24    0.15 
  -7   5  11    0.37    0.13 
  -6   5  11    2.11    0.22 
  -6   5  11    1.99    0.20 
  -5   5  11   10.90    0.52 
  -4   5  11    4.60    0.30 
  -3   5  11    4.49    0.30 
  -2   5  11   27.95    1.09 
  -1   5  11   -0.06    0.13 
   0   5  11   -0.06    0.12 
   1   5  11    0.93    0.18 
   2   5  11    1.06    0.18 
   3   5  11    0.09    0.15 
   4   5  11   14.79    0.66 
   5   5  11    2.48    0.25 
   6   5  11    0.13    0.17 
  -7  -5 -11   -0.01    0.18 
   7   5  11   -0.25    0.17 
  -8  -5 -11    2.74    0.29 
   8   5  11    2.23    0.29 
 -13   6  11   -0.21    0.18 
 -12   6  11    1.40    0.23 
 -11   6  11   -0.03    0.15 
 -10   6  11    4.98    0.36 
  -9   6  11    0.54    0.18 
  -8   6  11    4.30    0.33 
  -8   6  11    3.77    0.27 
  -7   6  11    9.07    0.47 
  -7   6  11    8.52    0.43 
  -6   6  11    2.20    0.21 
  -6   6  11    2.00    0.22 
  -5   6  11    3.34    0.28 
  -5   6  11    2.52    0.24 
  -4   6  11   -0.14    0.13 
  -3   6  11    4.99    0.33 
  -2   6  11    3.10    0.27 
  -1   6  11   -0.13    0.13 
   0   6  11    0.33    0.14 
   1   6  11    0.85    0.16 
   2   6  11    1.07    0.18 
   3   6  11    0.72    0.18 
   4   6  11    0.91    0.19 
   5   6  11    0.12    0.16 
   6   6  11    1.87    0.24 
   7   6  11    0.60    0.20 
   8   6  11    0.00    0.19 
 -13   7  11    0.10    0.20 
 -12   7  11    0.09    0.18 
 -11   7  11   -0.01    0.16 
 -10   7  11    0.60    0.18 
  -9   7  11    0.02    0.16 
  -8   7  11    8.17    0.40 
  -8   7  11    7.26    0.44 
  -7   7  11    1.00    0.18 
  -7   7  11    0.72    0.15 
  -6   7  11   13.22    0.60 
  -6   7  11   13.50    0.60 
  -5   7  11   10.59    0.49 
  -5   7  11   10.04    0.50 
  -4   7  11    9.59    0.46 
  -4   7  11    8.17    0.44 
  -3   7  11    1.22    0.19 
  -2   7  11    3.53    0.28 
  -1   7  11    6.00    0.36 
   0   7  11   11.48    0.53 
   1   7  11    9.82    0.48 
   2   7  11    0.49    0.17 
   3   7  11    3.11    0.29 
   4   7  11   -0.06    0.16 
   5   7  11    0.62    0.19 
   6   7  11    0.21    0.18 
 -12   8  11    5.47    0.42 
 -11   8  11    1.28    0.22 
 -10   8  11    1.11    0.21 
  -9   8  11    0.18    0.18 
  -8   8  11    0.05    0.16 
  -8   8  11    0.07    0.14 
  -7   8  11    0.66    0.18 
  -7   8  11    0.78    0.17 
  -6   8  11    0.81    0.17 
  -6   8  11    0.62    0.16 
  -5   8  11    0.59    0.17 
  -5   8  11    0.46    0.16 
  -4   8  11    0.02    0.15 
  -4   8  11    0.27    0.15 
  -3   8  11    3.46    0.28 
  -3   8  11    3.35    0.31 
  -2   8  11   15.44    0.68 
  -2   8  11   16.24    0.71 
  -1   8  11    0.05    0.16 
  -1   8  11   -0.30    0.14 
   0   8  11   -0.17    0.14 
   1   8  11    1.77    0.21 
   2   8  11    0.51    0.17 
   3   8  11    8.90    0.47 
   4   8  11   -0.15    0.16 
   5   8  11    0.69    0.21 
   6   8  11    0.14    0.19 
 -12   9  11    0.28    0.21 
 -11   9  11    0.28    0.18 
 -10   9  11    4.78    0.37 
  -9   9  11    0.28    0.18 
  -8   9  11    4.21    0.34 
  -8   9  11    4.31    0.32 
  -7   9  11    0.35    0.16 
  -7   9  11    0.45    0.16 
  -6   9  11    0.07    0.14 
  -6   9  11    0.07    0.15 
  -5   9  11    0.31    0.15 
  -5   9  11    0.08    0.15 
  -4   9  11    1.16    0.19 
  -4   9  11    1.36    0.20 
  -3   9  11   19.55    0.81 
  -3   9  11   18.99    0.83 
  -2   9  11    0.45    0.17 
  -2   9  11    0.34    0.18 
  -1   9  11   12.53    0.57 
  -1   9  11   11.66    0.59 
   0   9  11    4.45    0.36 
   0   9  11    4.25    0.31 
   1   9  11    8.85    0.50 
   1   9  11    9.46    0.48 
   2   9  11    0.46    0.19 
   3   9  11    2.09    0.27 
   4   9  11   -0.03    0.19 
   5   9  11    1.22    0.23 
 -11  10  11    0.20    0.20 
 -10  10  11   -0.28    0.15 
  -9  10  11    0.24    0.18 
  -8  10  11    1.15    0.21 
  -8  10  11    1.34    0.21 
  -7  10  11    1.41    0.21 
  -7  10  11    1.78    0.23 
  -6  10  11    0.14    0.14 
  -6  10  11   -0.21    0.14 
  -5  10  11    0.32    0.17 
  -5  10  11    0.54    0.17 
  -4  10  11    0.31    0.17 
  -4  10  11    0.36    0.17 
  -3  10  11    0.24    0.16 
  -3  10  11    0.46    0.19 
  -2  10  11    0.25    0.17 
  -2  10  11    0.39    0.18 
  -1  10  11    0.81    0.20 
   0  10  11    0.06    0.17 
   1  10  11    3.03    0.31 
   2  10  11    0.08    0.20 
   3  10  11    0.00    0.18 
   4  10  11   -0.23    0.17 
 -10  11  11    0.95    0.23 
  -9  11  11    0.00    0.18 
  -8  11  11    0.59    0.18 
  -8  11  11    0.66    0.20 
  -7  11  11    4.34    0.34 
  -7  11  11    3.43    0.32 
  -6  11  11    0.90    0.20 
  -6  11  11    0.92    0.20 
  -5  11  11    0.08    0.16 
  -5  11  11    0.02    0.16 
  -4  11  11    1.91    0.24 
  -3  11  11    0.86    0.20 
  -2  11  11    0.22    0.18 
  -1  11  11   -0.11    0.17 
   0  11  11    3.69    0.34 
   1  11  11    0.00    0.20 
   2  11  11   -0.23    0.19 
   3  11  11    0.58    0.21 
  -9  12  11    0.58    0.20 
  -8  12  11    1.31    0.22 
  -7  12  11    0.31    0.19 
  -6  12  11    0.33    0.18 
  -5  12  11    0.06    0.17 
  -4  12  11    0.03    0.17 
  -3  12  11    0.80    0.21 
  -2  12  11   -0.01    0.18 
  -1  12  11    1.41    0.26 
   0  12  11    0.48    0.22 
   1  12  11    0.06    0.21 
  -7  13  11    0.04    0.18 
  -6  13  11   -0.09    0.18 
  -5  13  11    0.25    0.19 
  -4  13  11    0.01    0.19 
  -3  13  11    1.15    0.24 
  -2  13  11    1.45    0.27 
   2  15 -12    1.52    0.25 
   2  15 -12    1.29    0.24 
   1  15 -12    0.07    0.18 
   0  15 -12    0.32    0.20 
  -1  15 -12    0.47    0.20 
  -2  15 -12    1.01    0.22 
  -3  15 -12    0.53    0.20 
  -4  15 -12    1.55    0.26 
  -5  15 -12    0.57    0.21 
  -6  15 -12    3.25    0.34 
   4  14 -12    0.04    0.18 
   3  14 -12    0.81    0.19 
   3  14 -12    0.68    0.21 
   2  14 -12    0.35    0.19 
   2  14 -12    0.25    0.18 
   1  14 -12    1.16    0.22 
   1  14 -12    1.32    0.21 
   0  14 -12    0.86    0.21 
  -1  14 -12    0.76    0.20 
  -2  14 -12    0.43    0.18 
  -3  14 -12    0.66    0.21 
  -4  14 -12    6.78    0.44 
  -5  14 -12    0.13    0.17 
  -6  14 -12    0.00    0.18 
  -7  14 -12    3.13    0.33 
   6  13 -12    0.73    0.21 
   5  13 -12    0.18    0.19 
   4  13 -12    1.75    0.25 
   4  13 -12    1.81    0.23 
   3  13 -12    0.27    0.16 
   3  13 -12    0.14    0.17 
   2  13 -12   -0.03    0.15 
   2  13 -12   -0.04    0.15 
   1  13 -12    0.44    0.16 
   1  13 -12    0.28    0.15 
   0  13 -12    0.05    0.14 
  -1  13 -12    1.10    0.20 
  -2  13 -12    1.04    0.20 
  -3  13 -12    2.13    0.26 
  -4  13 -12   -0.01    0.15 
  -5  13 -12    0.35    0.19 
  -6  13 -12    3.72    0.33 
  -7  13 -12    0.32    0.19 
  -8  13 -12    0.12    0.19 
   7  12 -12    0.05    0.18 
   6  12 -12    0.04    0.18 
   5  12 -12    6.68    0.43 
   4  12 -12    3.17    0.31 
   4  12 -12    3.62    0.30 
   3  12 -12    6.44    0.39 
   3  12 -12    6.25    0.40 
   2  12 -12    0.14    0.15 
   2  12 -12    0.14    0.14 
   1  12 -12    2.40    0.24 
   1  12 -12    2.80    0.26 
   0  12 -12    3.23    0.29 
   0  12 -12    3.83    0.30 
  -1  12 -12    0.03    0.15 
  -2  12 -12    1.43    0.22 
  -3  12 -12    1.97    0.24 
  -4  12 -12    3.23    0.29 
  -5  12 -12    0.51    0.19 
  -6  12 -12    8.15    0.47 
  -7  12 -12   -0.04    0.18 
  -8  12 -12    0.42    0.18 
  -9  12 -12    0.30    0.19 
   8  11 -12   -0.36    0.17 
   7  11 -12    0.10    0.19 
   6  11 -12    3.76    0.36 
   5  11 -12    1.21    0.22 
   4  11 -12    1.85    0.21 
   4  11 -12    1.56    0.22 
   3  11 -12    0.76    0.17 
   3  11 -12    1.29    0.19 
   2  11 -12    0.14    0.13 
   2  11 -12    0.09    0.14 
   1  11 -12    3.38    0.29 
   1  11 -12    3.77    0.30 
   0  11 -12    0.12    0.11 
   0  11 -12    0.09    0.14 
  -1  11 -12    0.72    0.17 
  -2  11 -12    0.15    0.15 
  -3  11 -12    0.28    0.14 
  -4  11 -12    0.20    0.15 
  -5  11 -12   10.22    0.53 
  -6  11 -12    1.13    0.21 
  -7  11 -12    2.65    0.28 
  -8  11 -12    0.48    0.18 
  -8  11 -12    0.02    0.17 
  -9  11 -12    0.65    0.20 
  -9  11 -12    0.68    0.20 
 -10  11 -12    0.68    0.20 
   9  10 -12    0.36    0.19 
   8  10 -12   -0.03    0.18 
   7  10 -12    4.90    0.37 
   6  10 -12    1.13    0.21 
   5  10 -12    4.76    0.31 
   5  10 -12    4.54    0.33 
   4  10 -12    2.69    0.25 
   4  10 -12    2.23    0.24 
   3  10 -12    1.36    0.18 
   3  10 -12    1.63    0.20 
   2  10 -12    4.56    0.32 
   2  10 -12    4.74    0.32 
   1  10 -12    1.39    0.19 
   1  10 -12    1.59    0.18 
   0  10 -12    0.41    0.14 
   0  10 -12    0.75    0.13 
  -1  10 -12    0.36    0.14 
  -2  10 -12    4.58    0.31 
  -3  10 -12    8.00    0.43 
  -4  10 -12    3.99    0.30 
  -4  10 -12    3.63    0.27 
  -5  10 -12    1.40    0.21 
  -5  10 -12    1.62    0.19 
  -6  10 -12    1.26    0.19 
  -6  10 -12    0.94    0.19 
  -7  10 -12    0.18    0.15 
  -7  10 -12    0.23    0.17 
  -8  10 -12    0.44    0.18 
  -8  10 -12    0.38    0.17 
  -9  10 -12    2.44    0.27 
  -9  10 -12    2.02    0.26 
 -10  10 -12    0.25    0.19 
 -10  10 -12    0.30    0.20 
  10   9 -12    1.41    0.25 
   9   9 -12    0.60    0.21 
   8   9 -12    8.00    0.47 
   7   9 -12    0.76    0.19 
   6   9 -12    4.14    0.32 
   5   9 -12    6.89    0.37 
   5   9 -12    6.31    0.40 
   4   9 -12    1.29    0.19 
   4   9 -12    1.59    0.18 
   3   9 -12    0.22    0.13 
   3   9 -12    0.10    0.12 
   2   9 -12   10.53    0.48 
   2   9 -12   10.02    0.48 
   1   9 -12    1.09    0.18 
   1   9 -12    1.57    0.16 
   0   9 -12    0.28    0.14 
  -1   9 -12    5.54    0.35 
  -2   9 -12    0.00    0.13 
   2  -9  12   -0.01    0.11 
  -3   9 -12    1.19    0.18 
   3  -9  12    1.25    0.16 
  -4   9 -12    0.52    0.16 
  -4   9 -12    0.39    0.13 
   4  -9  12    0.46    0.15 
  -5   9 -12    4.11    0.28 
  -5   9 -12    4.07    0.31 
  -6   9 -12    0.53    0.15 
  -6   9 -12    0.30    0.16 
  -7   9 -12    0.98    0.18 
  -7   9 -12    0.78    0.17 
  -8   9 -12    0.18    0.15 
  -8   9 -12    0.05    0.16 
  -9   9 -12    4.52    0.36 
  -9   9 -12    5.26    0.38 
 -10   9 -12    1.92    0.27 
 -10   9 -12    1.81    0.24 
  10   8 -12    0.27    0.20 
   9   8 -12    1.33    0.23 
   8   8 -12    0.06    0.17 
   7   8 -12    0.16    0.16 
   6   8 -12    7.88    0.43 
   5   8 -12    1.75    0.22 
   5   8 -12    1.70    0.18 
   4   8 -12   13.14    0.59 
   4   8 -12   13.20    0.57 
   3   8 -12   19.79    0.80 
   3   8 -12   19.89    0.80 
   2   8 -12    1.65    0.17 
   2   8 -12    1.53    0.18 
   1   8 -12    3.80    0.25 
   1   8 -12    3.44    0.25 
  -1  -8  12    3.54    0.24 
   0   8 -12   63.21    2.20 
   0   8 -12   60.26    2.25 
   0  -8  12   61.31    2.22 
  -1   8 -12   10.88    0.45 
  -1   8 -12   10.96    0.51 
   1  -8  12   10.80    0.47 
  -2   8 -12    1.24    0.18 
   2  -8  12    1.28    0.15 
  -3   8 -12    0.44    0.15 
   3  -8  12    0.40    0.13 
  -4   8 -12    0.50    0.16 
  -4   8 -12    0.69    0.15 
  -5   8 -12   -0.16    0.13 
  -5   8 -12    0.05    0.13 
  -6   8 -12    0.15    0.14 
  -6   8 -12    0.38    0.16 
  -7   8 -12   13.79    0.64 
  -7   8 -12   14.56    0.65 
  -8   8 -12    1.61    0.21 
  -8   8 -12    1.57    0.21 
  -9   8 -12    0.12    0.16 
  -9   8 -12    0.09    0.17 
 -10   8 -12   -0.11    0.16 
 -10   8 -12   -0.08    0.18 
 -11   8 -12    0.32    0.22 
  11   7 -12    2.39    0.30 
  10   7 -12    3.00    0.30 
   9   7 -12    0.05    0.15 
   8   7 -12    0.05    0.16 
   7   7 -12    5.06    0.35 
   6   7 -12    3.29    0.31 
   5   7 -12   38.09    1.42 
   5   7 -12   38.39    1.45 
  -5  -7  12   37.90    1.42 
   4   7 -12   11.73    0.52 
   4   7 -12   12.15    0.54 
  -4  -7  12   11.73    0.50 
   3   7 -12    0.14    0.11 
   3   7 -12    0.10    0.11 
  -3  -7  12    0.25    0.11 
   2   7 -12    7.87    0.37 
   2   7 -12    7.34    0.37 
  -2  -7  12    7.25    0.35 
   1   7 -12    1.86    0.18 
   1   7 -12    1.83    0.19 
  -1  -7  12    1.90    0.17 
   0   7 -12    0.08    0.12 
   0   7 -12    0.02    0.08 
   0  -7  12    0.05    0.10 
  -1   7 -12    0.43    0.08 
  -1   7 -12    0.83    0.14 
   1  -7  12    0.74    0.13 
   2  -7  12   23.24    0.90 
  -3   7 -12   20.50    0.83 
   3  -7  12   19.90    0.81 
  -4   7 -12    3.20    0.25 
  -4   7 -12    2.65    0.25 
  -5   7 -12    0.37    0.14 
  -5   7 -12    0.05    0.13 
  -6   7 -12   19.97    0.83 
  -6   7 -12   19.91    0.84 
  -7   7 -12    0.24    0.16 
  -7   7 -12    0.12    0.15 
  -8   7 -12    2.37    0.25 
  -8   7 -12    2.66    0.27 
  -9   7 -12    8.55    0.49 
  -9   7 -12    8.18    0.46 
 -10   7 -12    1.99    0.28 
 -10   7 -12    2.27    0.25 
 -11   7 -12    5.47    0.41 
  11   6 -12    0.85    0.21 
  10   6 -12    0.38    0.18 
   9   6 -12    0.21    0.16 
   8   6 -12    0.16    0.15 
  -8  -6  12    0.31    0.13 
   7   6 -12    1.24    0.19 
  -7  -6  12    1.22    0.17 
   6   6 -12   -0.12    0.12 
  -6  -6  12    0.09    0.12 
   5   6 -12    2.05    0.19 
   5   6 -12    1.68    0.19 
  -5  -6  12    2.11    0.19 
   4   6 -12   26.45    1.01 
   4   6 -12   25.96    0.99 
  -4  -6  12   25.30    0.99 
   3   6 -12   34.13    1.28 
   3   6 -12   33.79    1.28 
  -3  -6  12   34.53    1.28 
   2   6 -12    1.98    0.18 
   2   6 -12    2.23    0.20 
  -2  -6  12    2.19    0.19 
   1   6 -12    0.19    0.11 
   1   6 -12    0.37    0.10 
  -1  -6  12    0.39    0.12 
   0   6 -12    6.29    0.33 
   0   6 -12    6.17    0.29 
   0  -6  12    6.07    0.31 
  -1   6 -12    0.15    0.07 
  -1   6 -12    0.12    0.11 
   1  -6  12    0.40    0.12 
   2  -6  12    1.48    0.16 
  -3   6 -12   30.91    1.20 
  -3   6 -12   31.37    1.19 
   3  -6  12   31.79    1.20 
  -4   6 -12    1.09    0.17 
  -4   6 -12    1.32    0.19 
  -5   6 -12    3.63    0.28 
  -5   6 -12    3.36    0.29 
  -6   6 -12    1.47    0.20 
  -6   6 -12    1.91    0.21 
  -7   6 -12   -0.09    0.12 
  -7   6 -12   -0.01    0.15 
  -8   6 -12    0.12    0.15 
  -8   6 -12    0.25    0.15 
  -9   6 -12    0.03    0.16 
  -9   6 -12   -0.12    0.14 
 -10   6 -12    0.42    0.17 
 -10   6 -12    0.44    0.20 
 -11   6 -12    2.35    0.30 
  12   5 -12    0.23    0.19 
  11   5 -12    0.16    0.16 
  10   5 -12    0.24    0.17 
 -10  -5  12    0.20    0.15 
   9   5 -12    0.39    0.16 
  -9  -5  12    0.75    0.17 
   8   5 -12    0.54    0.16 
  -8  -5  12    0.85    0.16 
   7   5 -12    1.87    0.22 
  -7  -5  12    1.77    0.19 
   6   5 -12    0.01    0.09 
   6   5 -12    0.06    0.14 
  -6  -5  12    0.19    0.13 
   5   5 -12    0.19    0.11 
   5   5 -12    0.09    0.12 
  -5  -5  12    0.33    0.13 
   4   5 -12    0.88    0.13 
   4   5 -12    0.84    0.14 
  -4  -5  12    0.87    0.15 
   3   5 -12    0.58    0.12 
   3   5 -12    0.60    0.12 
  -3  -5  12    0.53    0.13 
   2   5 -12    5.63    0.32 
   2   5 -12    6.62    0.32 
  -2  -5  12    6.31    0.32 
   1   5 -12   14.62    0.61 
   1   5 -12   14.78    0.58 
  -1  -5  12   14.81    0.60 
   0   5 -12    0.09    0.06 
   0   5 -12    0.12    0.11 
   0  -5  12    0.12    0.11 
  -1   5 -12    2.82    0.22 
  -1   5 -12    3.11    0.17 
   1  -5  12    2.81    0.23 
   2  -5  12    1.21    0.15 
  -3   5 -12    1.35    0.18 
  -3   5 -12    1.60    0.18 
   3  -5  12    1.21    0.16 
  -4   5 -12    9.29    0.46 
  -4   5 -12    9.70    0.46 
  -5   5 -12   -0.04    0.12 
  -5   5 -12   -0.04    0.13 
  -6   5 -12    0.37    0.15 
  -6   5 -12    0.26    0.13 
  -7   5 -12   -0.09    0.14 
  -7   5 -12   -0.11    0.13 
  -8   5 -12    0.85    0.16 
  -8   5 -12    0.59    0.18 
  -9   5 -12    4.47    0.32 
  -9   5 -12    4.43    0.34 
 -10   5 -12    1.86    0.23 
 -10   5 -12    2.31    0.27 
 -11   5 -12    1.91    0.29 
  12   4 -12    0.15    0.19 
 -12  -4  12   -0.17    0.17 
  11   4 -12    0.71    0.19 
 -11  -4  12    0.62    0.19 
  10   4 -12    1.22    0.21 
 -10  -4  12    1.21    0.19 
   9   4 -12    0.24    0.16 
  -9  -4  12    0.38    0.15 
   8   4 -12    6.87    0.40 
  -8  -4  12    7.10    0.38 
   7   4 -12    4.20    0.30 
  -7  -4  12    4.11    0.29 
   6   4 -12   17.68    0.75 
   6   4 -12   17.72    0.69 
  -6  -4  12   17.89    0.73 
   5   4 -12    6.66    0.33 
   5   4 -12    6.66    0.36 
  -5  -4  12    7.02    0.36 
   4   4 -12   32.15    1.19 
   4   4 -12   30.98    1.18 
  -4  -4  12   32.11    1.20 
   3   4 -12   19.51    0.75 
   3   4 -12   18.87    0.75 
  -3  -4  12   19.09    0.76 
   2   4 -12    4.59    0.26 
   2   4 -12    4.87    0.26 
  -2  -4  12    4.77    0.28 
   1   4 -12   23.97    0.88 
   1   4 -12   23.69    0.92 
  -1  -4  12   23.54    0.91 
   0   4 -12    0.29    0.11 
   0  -4  12    0.45    0.12 
  -1   4 -12   28.35    0.94 
  -1   4 -12   22.10    1.00 
   1  -4  12   27.67    1.01 
  -3   4 -12    0.95    0.16 
  -3   4 -12    0.91    0.15 
   3  -4  12    0.82    0.15 
  -4   4 -12    0.17    0.13 
  -4   4 -12   -0.02    0.13 
  -5   4 -12    0.07    0.14 
  -5   4 -12    0.15    0.14 
  -6   4 -12   -0.16    0.12 
  -6   4 -12    0.00    0.13 
  -7   4 -12    4.22    0.30 
  -7   4 -12    4.12    0.32 
  -8   4 -12    8.40    0.47 
  -8   4 -12    9.34    0.46 
  -9   4 -12    4.50    0.32 
  -9   4 -12    3.96    0.33 
 -10   4 -12   -0.05    0.16 
 -11   4 -12    0.56    0.21 
  12   3 -12    0.30    0.18 
 -12  -3  12   -0.03    0.15 
  11   3 -12   12.95    0.63 
 -11  -3  12   12.95    0.62 
  10   3 -12    3.80    0.30 
 -10  -3  12    3.72    0.29 
   9   3 -12    2.69    0.26 
  -9  -3  12    2.56    0.24 
   8   3 -12    0.20    0.15 
  -8  -3  12    0.02    0.14 
   7   3 -12   14.45    0.64 
  -7  -3  12   15.00    0.64 
   6   3 -12   20.02    0.82 
   6   3 -12   19.87    0.76 
  -6  -3  12   20.09    0.81 
   5   3 -12    5.04    0.28 
   5   3 -12    5.83    0.31 
  -5  -3  12    5.48    0.31 
   4   3 -12   29.72    1.11 
   4   3 -12   29.89    1.12 
  -4  -3  12   30.24    1.14 
   3   3 -12    3.42    0.22 
   3   3 -12    3.08    0.21 
  -3  -3  12    3.35    0.24 
   2   3 -12    0.86    0.11 
   2   3 -12    0.81    0.12 
  -2  -3  12    0.87    0.13 
   1   3 -12   14.78    0.58 
   1   3 -12   15.17    0.61 
  -1  -3  12   14.70    0.61 
   0   3 -12    0.01    0.09 
   0   3 -12    0.02    0.04 
   0  -3  12    0.05    0.10 
   1  -3  12   14.37    0.61 
  -2   3 -12   -0.01    0.03 
   2  -3  12    0.15    0.11 
  -3   3 -12   18.76    0.76 
  -3   3 -12   18.78    0.76 
   3  -3  12   18.78    0.78 
  -4   3 -12    1.11    0.16 
  -4   3 -12    1.44    0.19 
  -5   3 -12    6.62    0.37 
  -5   3 -12    6.62    0.38 
  -6   3 -12    9.56    0.48 
  -6   3 -12    9.93    0.48 
  -7   3 -12    6.87    0.38 
  -7   3 -12    6.33    0.38 
  -8   3 -12    3.11    0.28 
  -8   3 -12    3.82    0.32 
  -9   3 -12    4.16    0.35 
  -9   3 -12    4.15    0.31 
 -10   3 -12    4.29    0.35 
 -11   3 -12    0.38    0.22 
  13   2 -12    1.24    0.25 
 -13  -2  12    1.64    0.26 
  12   2 -12    0.53    0.20 
 -12  -2  12    0.41    0.18 
  11   2 -12    2.20    0.26 
 -11  -2  12    1.94    0.24 
  10   2 -12    0.05    0.14 
 -10  -2  12   -0.26    0.13 
   9   2 -12    5.78    0.35 
  -9  -2  12    4.94    0.33 
   8   2 -12    0.91    0.17 
  -8  -2  12    1.17    0.18 
   7   2 -12    6.58    0.36 
  -7  -2  12    6.02    0.36 
   6   2 -12    0.08    0.08 
   6   2 -12    0.04    0.12 
  -6  -2  12   -0.18    0.11 
   5   2 -12    7.84    0.35 
   5   2 -12    7.67    0.39 
  -5  -2  12    7.87    0.40 
   4   2 -12   21.60    0.83 
   4   2 -12   21.49    0.82 
  -4  -2  12   21.29    0.85 
   3   2 -12    7.55    0.34 
   3   2 -12    7.25    0.34 
  -3  -2  12    7.10    0.37 
   2   2 -12    6.11    0.30 
   2   2 -12    6.62    0.31 
  -2  -2  12    6.66    0.33 
   1   2 -12   11.78    0.47 
   1   2 -12   11.88    0.50 
  -1  -2  12   12.08    0.51 
   0   2 -12   11.59    0.50 
   0  -2  12   12.05    0.51 
   1  -2  12    1.71    0.17 
   2  -2  12   86.64    3.13 
  -3   2 -12   18.99    0.75 
  -3   2 -12   18.00    0.75 
   3  -2  12   18.16    0.76 
  -4   2 -12    6.28    0.33 
  -4   2 -12    5.13    0.32 
  -5   2 -12    0.81    0.15 
  -5   2 -12    1.20    0.18 
  -6   2 -12    0.32    0.15 
  -6   2 -12    0.55    0.14 
  -7   2 -12    0.76    0.16 
  -7   2 -12    0.80    0.19 
  -8   2 -12    1.51    0.20 
  -8   2 -12    1.15    0.20 
  -9   2 -12   -0.10    0.17 
  -9   2 -12   -0.20    0.13 
 -10   2 -12    1.61    0.25 
 -11   2 -12    0.91    0.24 
  13   1 -12    0.20    0.20 
 -13  -1  12    0.21    0.20 
  12   1 -12    1.79    0.24 
 -12  -1  12    2.28    0.27 
  11   1 -12   -0.07    0.15 
 -11  -1  12   -0.24    0.15 
  10   1 -12    0.15    0.15 
 -10  -1  12    0.08    0.16 
   9   1 -12   19.65    0.84 
  -9  -1  12   21.08    0.86 
   8   1 -12   13.39    0.61 
  -8  -1  12   13.30    0.60 
   7   1 -12    0.24    0.15 
  -7  -1  12    0.38    0.15 
   6   1 -12    1.69    0.19 
  -6  -1  12    1.73    0.18 
   5   1 -12   24.57    0.94 
   5   1 -12   24.31    0.91 
  -5  -1  12   23.68    0.95 
   4   1 -12    4.54    0.24 
   4   1 -12    4.73    0.27 
  -4  -1  12    3.88    0.27 
   3   1 -12    1.85    0.17 
   3   1 -12    1.87    0.16 
  -3  -1  12    1.87    0.18 
   2   1 -12    0.90    0.11 
   2   1 -12    0.69    0.12 
  -2  -1  12    0.63    0.13 
   1   1 -12   27.90    1.02 
   1   1 -12   25.28    0.98 
  -1  -1  12   26.92    1.02 
   0   1 -12    0.97    0.13 
   0  -1  12    1.09    0.14 
  -2   1 -12   22.85    0.96 
   2  -1  12   26.70    0.98 
  -4   1 -12    0.24    0.12 
  -4   1 -12    0.08    0.07 
   4  -1  12    0.00    0.11 
  -5   1 -12    0.43    0.16 
  -5   1 -12    0.37    0.13 
  -6   1 -12    1.42    0.20 
  -6   1 -12    1.45    0.19 
  -7   1 -12    0.68    0.16 
  -7   1 -12    0.79    0.18 
  -8   1 -12    0.81    0.17 
  -8   1 -12    0.59    0.20 
  -9   1 -12   -0.06    0.16 
 -10   1 -12    0.01    0.18 
  13   0 -12    1.02    0.23 
 -13   0  12    0.69    0.21 
  12   0 -12   -0.10    0.16 
 -12   0  12    0.03    0.18 
  11   0 -12    0.07    0.15 
 -11   0  12   -0.22    0.14 
  10   0 -12    0.48    0.17 
 -10   0  12    0.35    0.17 
   9   0 -12   -0.05    0.13 
  -9   0  12    0.26    0.15 
   8   0 -12    8.57    0.46 
  -8   0  12    9.25    0.47 
   7   0 -12   16.42    0.69 
  -7   0  12   16.23    0.70 
   6   0 -12    0.03    0.11 
  -6   0  12    0.09    0.13 
   5   0 -12   13.60    0.58 
  -5   0  12   14.14    0.60 
   4   0 -12    1.73    0.16 
  -4   0  12    1.56    0.18 
   3   0 -12    7.88    0.36 
   3   0 -12    7.70    0.36 
  -3   0  12    7.73    0.38 
   2   0 -12    0.06    0.08 
   2   0 -12    0.01    0.08 
  -2   0  12   -0.16    0.10 
   1   0 -12   36.12    1.34 
  -1   0  12   36.07    1.36 
   0   0 -12   95.07    3.29 
   0   0  12   88.92    3.31 
  -1   0 -12   -0.01    0.02 
   1   0  12   -0.04    0.03 
  -3   0 -12    0.16    0.12 
   3   0  12    0.03    0.03 
  -4   0 -12    1.34    0.18 
  -4   0 -12    1.40    0.17 
   4   0  12    1.40    0.19 
  -5   0 -12    1.88    0.20 
  -5   0 -12    1.74    0.21 
  -6   0 -12    0.52    0.14 
  -6   0 -12    0.68    0.17 
  -7   0 -12    2.43    0.26 
  -8   0 -12    5.19    0.38 
  -9   0 -12    0.47    0.20 
 -10   0 -12    0.14    0.19 
  13  -1 -12    3.73    0.36 
 -13   1  12    4.01    0.37 
  12  -1 -12    2.86    0.29 
 -12   1  12    2.65    0.28 
  11  -1 -12    4.00    0.31 
 -11   1  12    3.67    0.33 
  10  -1 -12    1.64    0.21 
 -10   1  12    1.75    0.23 
   9  -1 -12    1.76    0.22 
  -9   1  12    1.89    0.23 
   8  -1 -12   15.82    0.69 
  -8   1  12   16.43    0.71 
   7  -1 -12    1.80    0.20 
  -7   1  12    1.89    0.21 
   6  -1 -12    2.93    0.23 
  -6   1  12    3.06    0.27 
   5  -1 -12   41.97    1.55 
  -5   1  12   42.01    1.58 
   4  -1 -12    6.97    0.34 
  -4   1  12    6.80    0.37 
  -3   1  12    6.10    0.32 
  -2   1  12    0.04    0.04 
  -1   1  12    0.00    0.02 
   0  -1 -12    0.77    0.13 
  -1  -1 -12   -0.02    0.02 
   1   1  12    0.01    0.03 
   2   1  12    2.80    0.22 
   3   1  12    3.11    0.28 
  -4  -1 -12    5.68    0.35 
   4   1  12    6.06    0.36 
  -5  -1 -12    4.34    0.31 
   5   1  12    4.51    0.32 
  -6  -1 -12    1.09    0.19 
  -7  -1 -12    1.31    0.22 
  -8  -1 -12    2.47    0.27 
  -9  -1 -12    1.12    0.23 
 -10  -1 -12    3.97    0.36 
 -13   2  12    0.68    0.22 
  12  -2 -12    0.01    0.16 
 -12   2  12    0.15    0.18 
  11  -2 -12    0.25    0.16 
 -11   2  12    0.43    0.18 
  10  -2 -12    0.64    0.17 
 -10   2  12    0.86    0.19 
   9  -2 -12    0.15    0.15 
  -9   2  12    0.19    0.15 
   8  -2 -12    6.11    0.38 
  -8   2  12    6.28    0.37 
   7  -2 -12    2.16    0.21 
  -7   2  12    2.07    0.22 
   6  -2 -12   -0.04    0.12 
  -6   2  12   -0.01    0.10 
  -3   2  12   -0.01    0.02 
  -1   2  12    4.23    0.27 
   0   2  12    0.00    0.12 
   1   2  12    0.17    0.13 
   2   2  12    4.59    0.30 
   3   2  12    5.93    0.37 
   4   2  12   31.49    1.24 
  -5  -2 -12    5.22    0.34 
   5   2  12    4.83    0.34 
  -6  -2 -12    0.69    0.18 
   6   2  12    0.43    0.17 
  -7  -2 -12    1.43    0.22 
  -8  -2 -12    1.37    0.23 
  -9  -2 -12    1.65    0.25 
  13  -3 -12   -0.05    0.17 
 -13   3  12    0.06    0.18 
  12  -3 -12    0.09    0.18 
 -12   3  12    0.01    0.18 
  11  -3 -12    2.19    0.25 
 -11   3  12    2.27    0.26 
  10  -3 -12    6.50    0.39 
 -10   3  12    6.46    0.41 
   9  -3 -12    2.56    0.24 
  -9   3  12    2.21    0.24 
   8  -3 -12    6.94    0.38 
  -8   3  12    6.47    0.38 
   7  -3 -12    0.91    0.16 
  -7   3  12    0.68    0.17 
  -6   3  12    4.38    0.28 
  -4   3  12   -0.02    0.10 
  -3   3  12   19.27    0.79 
  -2   3  12   15.43    0.66 
  -1   3  12    1.01    0.16 
   0   3  12    0.79    0.16 
   1   3  12    0.21    0.14 
   2   3  12    5.08    0.35 
   3   3  12   -0.02    0.15 
   4   3  12   15.04    0.67 
   5   3  12    2.73    0.26 
  -6  -3 -12    1.61    0.22 
   6   3  12    1.62    0.23 
  -7  -3 -12    0.38    0.18 
   7   3  12    0.38    0.20 
  -8  -3 -12    0.00    0.19 
  -9  -3 -12    1.01    0.23 
  13  -4 -12    0.12    0.19 
 -13   4  12    0.06    0.19 
  12  -4 -12    1.64    0.24 
 -12   4  12    1.58    0.25 
  11  -4 -12    0.83    0.20 
 -11   4  12    0.71    0.20 
  10  -4 -12    3.36    0.30 
 -10   4  12    2.62    0.27 
   9  -4 -12    1.15    0.18 
  -9   4  12    1.59    0.22 
   8  -4 -12    0.38    0.15 
  -8   4  12    0.48    0.17 
  -7   4  12   -0.02    0.14 
  -6   4  12   20.07    0.84 
  -5   4  12   51.14    1.91 
  -4   4  12    0.08    0.15 
  -3   4  12    3.01    0.27 
  -2   4  12    2.52    0.23 
  -1   4  12   29.22    1.13 
   0   4  12   48.20    1.80 
   1   4  12   43.00    1.63 
   2   4  12    0.35    0.16 
   3   4  12    0.14    0.15 
   4   4  12   -0.09    0.14 
   5   4  12    1.53    0.21 
   6   4  12    1.39    0.22 
  -7  -4 -12    0.68    0.20 
   7   4  12    0.87    0.20 
  -8  -4 -12    0.51    0.21 
   8   4  12    0.29    0.22 
  13  -5 -12   -0.05    0.17 
 -13   5  12    0.52    0.20 
  12  -5 -12    7.00    0.44 
 -12   5  12    6.48    0.42 
  11  -5 -12    0.66    0.20 
 -11   5  12    1.15    0.20 
  10  -5 -12    0.04    0.16 
 -10   5  12    0.42    0.17 
  -9   5  12    3.69    0.30 
  -8   5  12    2.80    0.27 
  -7   5  12    4.40    0.28 
  -7   5  12    4.30    0.33 
  -6   5  12    0.88    0.18 
  -5   5  12   11.59    0.55 
  -4   5  12    1.99    0.22 
  -3   5  12   25.45    1.01 
  -2   5  12   14.85    0.65 
  -1   5  12    7.89    0.41 
   0   5  12   -0.08    0.14 
   1   5  12    4.91    0.34 
   2   5  12    7.83    0.43 
   3   5  12    0.58    0.18 
   4   5  12    0.61    0.18 
   5   5  12    1.34    0.22 
   6   5  12    0.14    0.18 
   7   5  12    0.66    0.21 
   8   5  12    1.21    0.25 
 -13   6  12    0.13    0.20 
 -12   6  12    0.04    0.17 
 -11   6  12    0.48    0.19 
 -10   6  12    5.63    0.39 
  -9   6  12    0.62    0.19 
  -8   6  12    0.10    0.17 
  -8   6  12    0.07    0.13 
  -7   6  12   10.61    0.53 
  -7   6  12   10.43    0.49 
  -6   6  12    0.63    0.18 
  -6   6  12    0.63    0.16 
  -5   6  12    1.28    0.19 
  -4   6  12    0.28    0.15 
  -3   6  12    2.04    0.21 
  -2   6  12    1.26    0.19 
  -1   6  12    1.51    0.20 
   0   6  12    1.02    0.18 
   1   6  12    3.19    0.28 
   2   6  12    1.14    0.19 
   3   6  12    1.32    0.21 
   4   6  12    0.80    0.20 
   5   6  12    0.68    0.19 
   6   6  12    0.21    0.19 
   7   6  12    1.10    0.23 
 -12   7  12    0.02    0.17 
 -11   7  12    1.85    0.26 
 -10   7  12    0.93    0.20 
  -9   7  12    0.91    0.21 
  -8   7  12   10.49    0.50 
  -8   7  12   10.64    0.54 
  -7   7  12   12.34    0.56 
  -7   7  12   11.99    0.58 
  -6   7  12    0.25    0.14 
  -6   7  12    0.08    0.15 
  -5   7  12    2.03    0.21 
  -5   7  12    1.76    0.21 
  -4   7  12    2.45    0.24 
  -4   7  12    2.81    0.25 
  -3   7  12   -0.12    0.14 
  -2   7  12    0.63    0.17 
  -1   7  12   -0.03    0.15 
   0   7  12    0.23    0.15 
   1   7  12   -0.30    0.14 
   2   7  12    4.69    0.33 
   3   7  12    1.58    0.22 
   4   7  12    0.38    0.18 
   5   7  12    0.29    0.19 
   6   7  12   -0.07    0.19 
 -12   8  12    0.05    0.20 
 -11   8  12   -0.05    0.17 
 -10   8  12    0.95    0.21 
  -9   8  12    0.70    0.20 
  -8   8  12   20.43    0.84 
  -8   8  12   19.63    0.86 
  -7   8  12    0.67    0.17 
  -7   8  12    0.78    0.18 
  -6   8  12    2.26    0.23 
  -6   8  12    1.96    0.23 
  -5   8  12    0.48    0.15 
  -5   8  12    0.32    0.16 
  -4   8  12    0.15    0.14 
  -4   8  12    0.28    0.15 
  -3   8  12    2.15    0.25 
  -3   8  12    2.40    0.24 
  -2   8  12    6.94    0.40 
  -2   8  12    6.79    0.42 
  -1   8  12    2.93    0.27 
   0   8  12    0.71    0.18 
   1   8  12    4.75    0.33 
   2   8  12    0.99    0.19 
   3   8  12    6.60    0.42 
   4   8  12    4.28    0.35 
   5   8  12    0.69    0.20 
 -11   9  12    0.36    0.20 
 -10   9  12    1.07    0.23 
  -9   9  12    0.49    0.20 
  -8   9  12    0.29    0.18 
  -8   9  12    0.14    0.16 
  -7   9  12    0.09    0.15 
  -7   9  12    0.08    0.17 
  -6   9  12   -0.09    0.14 
  -6   9  12    0.13    0.16 
  -5   9  12   -0.04    0.14 
  -5   9  12    0.05    0.15 
  -4   9  12    0.56    0.18 
  -4   9  12    0.72    0.18 
  -3   9  12    6.67    0.42 
  -3   9  12    6.10    0.38 
  -2   9  12    5.68    0.38 
  -2   9  12    5.83    0.36 
  -1   9  12    2.88    0.28 
  -1   9  12    2.58    0.25 
   0   9  12    0.45    0.18 
   0   9  12   -0.04    0.16 
   1   9  12    4.63    0.34 
   1   9  12    4.02    0.37 
   2   9  12    0.86    0.23 
   3   9  12    0.62    0.21 
   4   9  12   -0.16    0.16 
 -11  10  12    0.06    0.20 
 -10  10  12    0.61    0.20 
  -9  10  12    0.66    0.21 
  -8  10  12    0.29    0.18 
  -8  10  12   -0.02    0.16 
  -7  10  12    0.05    0.16 
  -7  10  12    0.03    0.17 
  -6  10  12    1.04    0.20 
  -6  10  12    0.83    0.20 
  -5  10  12    0.16    0.15 
  -5  10  12    0.07    0.16 
  -4  10  12    1.87    0.23 
  -4  10  12    1.58    0.23 
  -3  10  12    4.74    0.34 
  -3  10  12    5.33    0.38 
  -2  10  12    0.03    0.17 
  -2  10  12   -0.12    0.17 
  -1  10  12    6.86    0.45 
   0  10  12    0.33    0.20 
   1  10  12    1.79    0.26 
   2  10  12    0.32    0.20 
   3  10  12    0.25    0.22 
  -9  11  12    2.40    0.28 
  -8  11  12    1.17    0.22 
  -8  11  12    1.39    0.23 
  -7  11  12    0.33    0.18 
  -7  11  12    0.09    0.18 
  -6  11  12    1.05    0.21 
  -6  11  12    0.86    0.20 
  -5  11  12    0.00    0.15 
  -5  11  12   -0.17    0.16 
  -4  11  12    0.14    0.18 
  -3  11  12    0.15    0.17 
  -2  11  12    0.16    0.18 
  -1  11  12    5.41    0.42 
   0  11  12    0.21    0.21 
   1  11  12    1.09    0.24 
   2  11  12    0.69    0.23 
  -8  12  12    0.12    0.18 
  -7  12  12    2.45    0.28 
  -6  12  12    0.11    0.18 
  -5  12  12    0.27    0.18 
  -4  12  12    0.42    0.19 
  -3  12  12    0.48    0.21 
  -2  12  12    0.00    0.19 
  -1  12  12    0.11    0.20 
   0  12  12    0.47    0.22 
   2  15 -13    0.53    0.19 
   1  15 -13    3.53    0.33 
   0  15 -13    0.56    0.21 
  -1  15 -13    2.58    0.30 
  -2  15 -13    0.10    0.18 
  -3  15 -13    2.81    0.31 
  -4  15 -13    0.28    0.19 
  -5  15 -13    0.38    0.20 
   4  14 -13    0.10    0.18 
   3  14 -13    0.89    0.21 
   3  14 -13    0.94    0.21 
   2  14 -13    1.63    0.23 
   2  14 -13    1.28    0.22 
   1  14 -13    1.12    0.21 
   0  14 -13   -0.09    0.17 
  -1  14 -13    0.68    0.20 
  -2  14 -13    0.44    0.20 
  -3  14 -13    0.12    0.18 
  -4  14 -13    1.13    0.22 
  -5  14 -13    1.41    0.24 
  -6  14 -13    0.41    0.21 
   5  13 -13    2.64    0.29 
   4  13 -13    2.05    0.24 
   4  13 -13    2.09    0.27 
   3  13 -13    0.32    0.16 
   3  13 -13    0.46    0.19 
   2  13 -13    0.69    0.18 
   2  13 -13    0.46    0.18 
   1  13 -13   -0.12    0.15 
   0  13 -13    0.18    0.17 
  -1  13 -13    0.52    0.18 
  -2  13 -13    0.07    0.17 
  -3  13 -13   -0.01    0.16 
  -4  13 -13    2.30    0.27 
  -5  13 -13   -0.23    0.17 
  -6  13 -13    0.60    0.20 
  -7  13 -13    0.01    0.17 
  -8  13 -13   -0.18    0.17 
   7  12 -13   -0.10    0.19 
   6  12 -13    0.34    0.19 
   5  12 -13    0.04    0.18 
   4  12 -13    0.10    0.16 
   4  12 -13    0.09    0.15 
   3  12 -13    1.14    0.20 
   3  12 -13    0.44    0.17 
   2  12 -13    0.98    0.18 
   2  12 -13    0.96    0.19 
   1  12 -13    1.86    0.23 
   1  12 -13    2.09    0.21 
   0  12 -13   -0.06    0.15 
  -1  12 -13    2.37    0.25 
  -2  12 -13    0.91    0.19 
  -3  12 -13    6.78    0.43 
  -4  12 -13    1.64    0.23 
  -5  12 -13    1.31    0.23 
  -6  12 -13    3.37    0.32 
  -7  12 -13   -0.01    0.16 
  -8  12 -13    0.06    0.18 
   8  11 -13    1.30    0.24 
   7  11 -13   -0.01    0.18 
   6  11 -13    1.02    0.22 
   5  11 -13    3.44    0.31 
   4  11 -13    0.61    0.18 
   4  11 -13    0.73    0.16 
   3  11 -13    7.84    0.43 
   3  11 -13    7.12    0.41 
   2  11 -13    1.01    0.17 
   2  11 -13    1.08    0.19 
   1  11 -13    1.47    0.18 
   1  11 -13    1.33    0.20 
   0  11 -13   23.04    0.95 
  -1  11 -13    7.35    0.42 
  -2  11 -13    0.01    0.14 
  -3  11 -13    0.81    0.18 
  -4  11 -13    1.10    0.20 
  -5  11 -13    0.42    0.17 
  -6  11 -13    6.47    0.41 
  -7  11 -13    8.44    0.48 
  -8  11 -13    0.01    0.17 
  -8  11 -13    0.01    0.17 
  -9  11 -13    2.31    0.27 
  -9  11 -13    2.62    0.29 
   8  10 -13    0.08    0.17 
   7  10 -13    1.87    0.25 
   6  10 -13    0.73    0.20 
   5  10 -13    5.78    0.37 
   4  10 -13    5.95    0.36 
   4  10 -13    6.16    0.38 
   3  10 -13   -0.08    0.12 
   3  10 -13    0.09    0.13 
   2  10 -13    1.35    0.19 
   2  10 -13    1.46    0.18 
   1  10 -13    0.15    0.11 
   1  10 -13    0.05    0.13 
   0  10 -13    0.15    0.14 
  -1  10 -13   -0.13    0.13 
  -2  10 -13    4.21    0.31 
  -3  10 -13    5.19    0.35 
  -4  10 -13    0.17    0.14 
  -5  10 -13    8.98    0.45 
  -5  10 -13    8.30    0.47 
   5 -10  13    8.92    0.45 
  -6  10 -13    1.10    0.20 
  -6  10 -13    0.62    0.16 
  -7  10 -13    0.64    0.18 
  -7  10 -13    0.24    0.17 
  -8  10 -13    2.48    0.28 
  -8  10 -13    2.78    0.27 
  -9  10 -13    0.86    0.21 
  -9  10 -13    0.97    0.22 
   9   9 -13    1.95    0.27 
   8   9 -13    0.95    0.21 
   7   9 -13    5.16    0.39 
   6   9 -13    0.05    0.16 
   5   9 -13    0.12    0.15 
   5   9 -13    0.06    0.13 
   4   9 -13   24.33    0.98 
   4   9 -13   24.09    0.96 
   3   9 -13    8.16    0.42 
   3   9 -13    7.38    0.40 
   2   9 -13    6.72    0.38 
   2   9 -13    6.73    0.36 
   1   9 -13    3.43    0.26 
   1   9 -13    3.66    0.25 
   0   9 -13    2.56    0.24 
   0   9 -13    2.13    0.20 
  -1   9 -13    0.87    0.17 
  -2   9 -13    2.63    0.25 
   2  -9  13    2.59    0.24 
  -3   9 -13   10.96    0.55 
   3  -9  13   11.16    0.50 
  -4   9 -13    1.33    0.20 
   4  -9  13    0.95    0.16 
  -5   9 -13    0.63    0.17 
  -5   9 -13    0.73    0.16 
  -6   9 -13   -0.09    0.13 
  -6   9 -13   -0.19    0.14 
  -7   9 -13    0.10    0.15 
  -7   9 -13   -0.10    0.15 
  -8   9 -13   -0.10    0.16 
  -8   9 -13   -0.04    0.16 
  -9   9 -13    0.28    0.18 
  -9   9 -13    0.25    0.19 
 -10   9 -13    1.06    0.22 
 -10   9 -13    1.00    0.23 
  10   8 -13    0.34    0.19 
   9   8 -13    3.52    0.33 
   8   8 -13    5.30    0.39 
   7   8 -13    1.72    0.23 
   6   8 -13    3.42    0.29 
   5   8 -13    1.30    0.17 
   5   8 -13    1.39    0.19 
   4   8 -13    5.27    0.34 
   4   8 -13    4.90    0.31 
   3   8 -13    0.14    0.13 
   3   8 -13    0.15    0.13 
   2   8 -13   -0.04    0.10 
   2   8 -13   -0.12    0.12 
   1   8 -13    8.83    0.41 
   1   8 -13    8.32    0.43 
  -1  -8  13    8.35    0.40 
   0   8 -13    0.03    0.13 
   0   8 -13    0.09    0.10 
   0  -8  13   -0.04    0.11 
  -1   8 -13    0.76    0.16 
   1  -8  13    0.94    0.14 
  -2   8 -13    0.14    0.13 
   2  -8  13    0.31    0.13 
  -3   8 -13    0.13    0.14 
   3  -8  13    0.23    0.12 
  -4   8 -13    3.37    0.28 
  -4   8 -13    3.50    0.27 
   4  -8  13    3.97    0.28 
  -5   8 -13   12.16    0.54 
  -5   8 -13   11.05    0.55 
  -6   8 -13    0.36    0.16 
  -6   8 -13    0.31    0.15 
  -7   8 -13    1.95    0.24 
  -7   8 -13    1.75    0.23 
  -8   8 -13   -0.18    0.15 
  -8   8 -13    0.13    0.17 
  -9   8 -13    2.01    0.25 
  -9   8 -13    2.55    0.28 
 -10   8 -13    0.29    0.20 
 -10   8 -13    0.18    0.18 
  11   7 -13    0.34    0.21 
  10   7 -13    1.28    0.24 
   9   7 -13    0.49    0.18 
   8   7 -13    1.81    0.24 
   7   7 -13   -0.11    0.14 
   6   7 -13    6.10    0.38 
   5   7 -13    0.13    0.12 
   5   7 -13    0.29    0.15 
  -5  -7  13    0.46    0.13 
   4   7 -13    3.31    0.26 
   4   7 -13    3.17    0.28 
  -4  -7  13    3.19    0.24 
   3   7 -13    5.82    0.34 
   3   7 -13    5.62    0.33 
  -3  -7  13    6.29    0.32 
   2   7 -13    0.00    0.10 
   2   7 -13   -0.09    0.11 
  -2  -7  13   -0.22    0.11 
   1   7 -13    8.51    0.39 
   1   7 -13    8.28    0.41 
  -1  -7  13    8.35    0.39 
   0   7 -13    6.43    0.31 
   0   7 -13    6.04    0.35 
   0  -7  13    6.61    0.34 
  -1   7 -13   26.10    1.03 
   1  -7  13   25.70    1.00 
  -2   7 -13    8.24    0.42 
   2  -7  13    7.82    0.39 
  -3   7 -13    2.78    0.25 
   3  -7  13    3.12    0.26 
  -4   7 -13    0.11    0.12 
  -4   7 -13    0.18    0.14 
   4  -7  13    0.01    0.12 
  -5   7 -13    1.85    0.21 
  -5   7 -13    2.20    0.22 
  -6   7 -13    4.79    0.32 
  -6   7 -13    4.82    0.34 
  -7   7 -13    2.28    0.24 
  -7   7 -13    2.33    0.24 
  -8   7 -13   10.05    0.51 
  -8   7 -13   10.30    0.52 
  -9   7 -13    0.99    0.20 
  -9   7 -13    0.75    0.21 
 -10   7 -13    0.70    0.19 
 -10   7 -13    0.54    0.22 
  11   6 -13    2.41    0.29 
  10   6 -13   -0.03    0.18 
   9   6 -13    0.90    0.19 
   8   6 -13    0.05    0.14 
   7   6 -13    0.71    0.19 
  -7  -6  13    1.28    0.17 
   6   6 -13    4.88    0.32 
  -6  -6  13    4.79    0.30 
   5   6 -13    0.90    0.14 
   5   6 -13    1.22    0.19 
  -5  -6  13    1.22    0.16 
   4   6 -13   48.56    1.81 
   4   6 -13   48.68    1.80 
  -4  -6  13   50.44    1.81 
   3   6 -13    1.18    0.15 
   3   6 -13    0.86    0.14 
  -3  -6  13    0.83    0.14 
   2   6 -13   27.90    1.05 
   2   6 -13   27.15    1.07 
  -2  -6  13   28.22    1.06 
   1   6 -13   10.99    0.45 
   1   6 -13   10.54    0.49 
  -1  -6  13   10.29    0.47 
   0   6 -13   -0.01    0.09 
   0   6 -13    0.06    0.11 
   0  -6  13    0.13    0.11 
  -1   6 -13   17.08    0.70 
   1  -6  13   16.21    0.68 
   2  -6  13    9.78    0.46 
  -3   6 -13   40.91    1.54 
   3  -6  13   40.26    1.53 
  -4   6 -13   -0.08    0.13 
  -4   6 -13   -0.07    0.13 
   4  -6  13    0.06    0.13 
  -5   6 -13    0.07    0.14 
  -5   6 -13    0.18    0.13 
  -6   6 -13    3.33    0.29 
  -6   6 -13    3.13    0.27 
  -7   6 -13   -0.04    0.14 
  -7   6 -13   -0.10    0.13 
  -8   6 -13    0.72    0.17 
  -8   6 -13    0.81    0.19 
  -9   6 -13    5.28    0.38 
  -9   6 -13    5.61    0.37 
 -10   6 -13    0.52    0.19 
 -10   6 -13    0.40    0.20 
  12   5 -13    0.10    0.18 
  11   5 -13    0.67    0.20 
  10   5 -13    0.00    0.15 
 -10  -5  13    0.14    0.15 
   9   5 -13    0.91    0.19 
  -9  -5  13    1.32    0.19 
   8   5 -13    1.20    0.21 
  -8  -5  13    1.43    0.19 
   7   5 -13   11.02    0.54 
  -7  -5  13   11.70    0.53 
   6   5 -13    0.21    0.15 
   6   5 -13    0.35    0.11 
  -6  -5  13    0.15    0.13 
   5   5 -13   31.90    1.21 
   5   5 -13   31.66    1.18 
  -5  -5  13   30.67    1.20 
   4   5 -13    0.15    0.12 
   4   5 -13    0.21    0.13 
  -4  -5  13    0.42    0.14 
   3   5 -13   61.53    2.23 
   3   5 -13   62.04    2.22 
  -3  -5  13   61.05    2.24 
   2   5 -13    0.95    0.14 
   2   5 -13    0.86    0.13 
  -2  -5  13    0.95    0.15 
   1   5 -13    7.47    0.37 
   1   5 -13    7.37    0.34 
  -1  -5  13    7.02    0.36 
   0   5 -13   -0.06    0.11 
   0   5 -13    0.09    0.08 
   0  -5  13    0.05    0.11 
  -1   5 -13    1.24    0.16 
   1  -5  13    1.31    0.16 
  -3   5 -13   20.71    0.86 
   3  -5  13   21.52    0.86 
  -4   5 -13   -0.01    0.12 
  -4   5 -13    0.14    0.14 
   4  -5  13   -0.03    0.13 
  -5   5 -13    0.53    0.15 
  -5   5 -13    0.85    0.16 
  -6   5 -13    0.16    0.14 
  -6   5 -13    0.00    0.13 
  -7   5 -13    0.27    0.17 
  -7   5 -13    0.39    0.16 
  -8   5 -13    0.13    0.15 
  -8   5 -13    0.36    0.18 
  -9   5 -13    0.38    0.17 
  -9   5 -13    0.41    0.19 
 -10   5 -13    0.98    0.24 
 -10   5 -13    0.96    0.20 
  12   4 -13   -0.21    0.16 
 -12  -4  13   -0.14    0.17 
  11   4 -13   -0.04    0.15 
 -11  -4  13    0.01    0.16 
  10   4 -13    0.99    0.20 
 -10  -4  13    1.08    0.20 
   9   4 -13   10.45    0.53 
  -9  -4  13    9.91    0.50 
   8   4 -13    2.32    0.24 
  -8  -4  13    2.36    0.23 
   7   4 -13   -0.09    0.14 
  -7  -4  13    0.06    0.13 
   6   4 -13    1.85    0.16 
   6   4 -13    1.84    0.20 
  -6  -4  13    1.81    0.20 
   5   4 -13    6.15    0.35 
   5   4 -13    5.96    0.31 
  -5  -4  13    5.59    0.34 
   4   4 -13    0.19    0.12 
   4   4 -13    0.40    0.13 
  -4  -4  13    0.33    0.14 
   3   4 -13    0.27    0.11 
   3   4 -13    0.15    0.11 
  -3  -4  13    0.28    0.13 
   2   4 -13    0.07    0.11 
   2   4 -13    0.31    0.10 
  -2  -4  13    0.23    0.12 
   1   4 -13    6.97    0.35 
   1   4 -13    6.70    0.32 
  -1  -4  13    7.24    0.36 
   0   4 -13    0.35    0.12 
   0   4 -13    0.22    0.07 
   0  -4  13    0.38    0.12 
  -1   4 -13    2.92    0.16 
   1  -4  13    2.83    0.23 
  -3   4 -13    6.61    0.36 
   3  -4  13    6.65    0.39 
  -4   4 -13    0.38    0.15 
  -4   4 -13    0.18    0.13 
   4  -4  13    0.18    0.14 
  -5   4 -13    9.43    0.48 
  -5   4 -13    9.38    0.47 
  -6   4 -13    0.95    0.17 
  -6   4 -13    0.93    0.18 
  -7   4 -13    2.36    0.26 
  -7   4 -13    2.30    0.23 
  -8   4 -13    1.39    0.22 
  -8   4 -13    1.82    0.22 
  -9   4 -13    1.95    0.23 
  -9   4 -13    2.05    0.26 
 -10   4 -13    0.07    0.18 
  12   3 -13    0.43    0.19 
 -12  -3  13    0.35    0.19 
  11   3 -13    0.89    0.20 
 -11  -3  13    0.36    0.18 
  10   3 -13    0.69    0.19 
 -10  -3  13    0.47    0.17 
   9   3 -13    0.61    0.18 
  -9  -3  13    0.56    0.17 
   8   3 -13    0.21    0.14 
  -8  -3  13    0.15    0.14 
   7   3 -13   16.77    0.73 
  -7  -3  13   17.89    0.74 
   6   3 -13    9.27    0.40 
   6   3 -13    9.14    0.46 
  -6  -3  13    9.04    0.45 
   5   3 -13    0.34    0.13 
   5   3 -13    0.10    0.10 
  -5  -3  13    0.12    0.14 
   4   3 -13   23.31    0.90 
   4   3 -13   23.08    0.89 
  -4  -3  13   23.37    0.92 
   3   3 -13    1.42    0.15 
   3   3 -13    1.07    0.14 
  -3  -3  13    1.37    0.17 
   2   3 -13   21.03    0.82 
   2   3 -13   20.55    0.80 
  -2  -3  13   21.15    0.84 
   1   3 -13   17.32    0.66 
   1   3 -13   17.96    0.70 
  -1  -3  13   16.83    0.70 
   0   3 -13    7.42    0.37 
   0  -3  13    7.47    0.37 
   1  -3  13   19.36    0.79 
  -3   3 -13    0.59    0.14 
   3  -3  13    0.74    0.16 
  -4   3 -13    1.56    0.19 
  -4   3 -13    1.48    0.18 
   4  -3  13    1.49    0.20 
  -5   3 -13    0.12    0.13 
  -5   3 -13    0.00    0.14 
  -6   3 -13   -0.05    0.13 
  -6   3 -13    0.08    0.14 
  -7   3 -13    1.21    0.18 
  -7   3 -13    0.84    0.19 
  -8   3 -13    2.31    0.26 
  -8   3 -13    2.50    0.24 
  -9   3 -13    0.82    0.22 
  -9   3 -13    0.64    0.18 
 -10   3 -13    0.07    0.19 
  13   2 -13    3.72    0.35 
 -13  -2  13    3.05    0.32 
  12   2 -13    0.22    0.18 
 -12  -2  13    0.05    0.18 
  11   2 -13   10.93    0.56 
 -11  -2  13    9.57    0.53 
  10   2 -13    0.31    0.17 
 -10  -2  13    0.01    0.14 
   9   2 -13   15.64    0.69 
  -9  -2  13   15.41    0.68 
   8   2 -13   12.57    0.59 
  -8  -2  13   13.29    0.60 
   7   2 -13    0.06    0.14 
  -7  -2  13    0.17    0.14 
   6   2 -13    2.87    0.24 
   6   2 -13    2.81    0.20 
  -6  -2  13    3.14    0.26 
   5   2 -13    4.85    0.31 
   5   2 -13    5.63    0.28 
  -5  -2  13    5.35    0.33 
   4   2 -13   -0.10    0.11 
   4   2 -13    0.02    0.10 
  -4  -2  13    0.03    0.13 
   3   2 -13   18.89    0.75 
   3   2 -13   19.23    0.76 
  -3  -2  13   19.82    0.79 
   2   2 -13    4.24    0.24 
   2   2 -13    4.14    0.25 
  -2  -2  13    4.85    0.28 
   1   2 -13    5.42    0.31 
   1   2 -13    5.44    0.27 
  -1  -2  13    5.55    0.31 
   0   2 -13   -0.15    0.10 
   0  -2  13    0.01    0.11 
  -3   2 -13    4.91    0.32 
   3  -2  13    5.45    0.33 
  -4   2 -13    2.35    0.23 
  -4   2 -13    2.38    0.23 
   4  -2  13    2.35    0.24 
  -5   2 -13    8.37    0.44 
  -5   2 -13    8.73    0.43 
  -6   2 -13    4.90    0.32 
  -6   2 -13    4.60    0.32 
  -7   2 -13    3.15    0.30 
  -7   2 -13    3.29    0.28 
  -8   2 -13    0.46    0.16 
  -8   2 -13    0.80    0.19 
  -9   2 -13   -0.07    0.14 
  -9   2 -13   -0.22    0.17 
 -10   2 -13    4.71    0.40 
  13   1 -13    1.39    0.25 
 -13  -1  13    2.14    0.28 
  12   1 -13    1.50    0.24 
 -12  -1  13    1.29    0.23 
  11   1 -13    3.39    0.32 
 -11  -1  13    2.98    0.29 
  10   1 -13    1.31    0.20 
 -10  -1  13    1.37    0.21 
   9   1 -13    5.55    0.35 
  -9  -1  13    5.10    0.34 
   8   1 -13    2.78    0.26 
  -8  -1  13    2.68    0.26 
   7   1 -13    0.40    0.16 
  -7  -1  13    0.41    0.15 
   6   1 -13    1.82    0.19 
  -6  -1  13    1.82    0.20 
   5   1 -13   10.65    0.46 
   5   1 -13   10.79    0.49 
  -5  -1  13   10.92    0.50 
   4   1 -13   28.21    1.08 
   4   1 -13   28.15    1.07 
  -4  -1  13   28.84    1.11 
   3   1 -13   10.57    0.45 
   3   1 -13   10.12    0.45 
  -3  -1  13   10.40    0.48 
   2   1 -13   97.25    3.47 
   2   1 -13  101.22    3.51 
  -2  -1  13   97.24    3.54 
   1   1 -13    0.37    0.12 
   1   1 -13    0.23    0.09 
  -1  -1  13    0.19    0.12 
   0   1 -13   45.87    1.70 
   0  -1  13   46.39    1.72 
  -2   1 -13   11.88    0.52 
  -3   1 -13   14.79    0.63 
   3  -1  13   13.85    0.63 
  -4   1 -13    6.00    0.35 
  -4   1 -13    5.93    0.37 
   4  -1  13    6.07    0.36 
  -5   1 -13    0.36    0.15 
  -5   1 -13    0.16    0.13 
   5  -1  13    0.17    0.15 
  -6   1 -13    0.86    0.17 
  -6   1 -13    0.70    0.18 
  -7   1 -13    1.40    0.20 
  -7   1 -13    1.55    0.23 
  -8   1 -13   -0.11    0.16 
  -9   1 -13    0.76    0.22 
 -10   1 -13    1.53    0.26 
  13   0 -13    0.11    0.20 
 -13   0  13    0.16    0.20 
  12   0 -13    0.22    0.19 
 -12   0  13    0.07    0.17 
  11   0 -13    0.32    0.16 
 -11   0  13    0.15    0.18 
  10   0 -13    0.78    0.18 
 -10   0  13    0.34    0.17 
   9   0 -13   11.12    0.53 
  -9   0  13   10.71    0.54 
   8   0 -13    9.23    0.46 
  -8   0  13    8.84    0.46 
   7   0 -13    1.04    0.17 
  -7   0  13    1.23    0.19 
   6   0 -13    2.72    0.23 
  -6   0  13    2.22    0.22 
   5   0 -13    9.24    0.43 
  -5   0  13    8.53    0.45 
   4   0 -13    4.38    0.26 
  -4   0  13    4.19    0.31 
   3   0 -13    0.29    0.10 
   3   0 -13    0.36    0.11 
  -3   0  13    0.33    0.14 
   2   0 -13   16.16    0.64 
   2   0 -13   15.79    0.66 
  -2   0  13   16.93    0.68 
   1   0 -13    2.91    0.21 
  -1   0  13    2.09    0.20 
   0   0 -13    1.12    0.16 
  -1   0 -13   -0.01    0.02 
   1   0  13    0.00    0.03 
  -3   0 -13    2.87    0.26 
   3   0  13    2.72    0.24 
  -4   0 -13    4.32    0.29 
   4   0  13    4.49    0.33 
  -5   0 -13    0.28    0.16 
  -5   0 -13    0.29    0.14 
   5   0  13    0.23    0.17 
  -6   0 -13    1.44    0.22 
  -7   0 -13    1.86    0.24 
  -8   0 -13    0.08    0.16 
  -9   0 -13    1.99    0.27 
 -10   0 -13    0.34    0.21 
  13  -1 -13   -0.06    0.19 
 -13   1  13    0.35    0.18 
  12  -1 -13   -0.04    0.17 
 -12   1  13    0.03    0.17 
  11  -1 -13    0.57    0.19 
 -11   1  13    0.57    0.18 
  10  -1 -13    3.32    0.30 
 -10   1  13    2.91    0.28 
   9  -1 -13    3.61    0.31 
  -9   1  13    3.68    0.29 
   8  -1 -13    0.11    0.14 
  -8   1  13    0.16    0.15 
   7  -1 -13    0.08    0.13 
  -7   1  13    0.03    0.14 
   6  -1 -13    3.73    0.28 
  -6   1  13    4.11    0.31 
   5  -1 -13   19.97    0.82 
  -5   1  13   21.31    0.85 
   4  -1 -13    0.09    0.10 
  -4   1  13   -0.08    0.12 
   3  -1 -13    0.86    0.13 
  -2   1  13   -0.02    0.03 
  -1   1  13   -0.01    0.03 
   0   1  13   -0.02    0.02 
   1   1  13    0.02    0.04 
   2   1  13   11.34    0.53 
   3   1  13    3.93    0.31 
   4   1  13    0.32    0.15 
  -5  -1 -13    2.66    0.26 
   5   1  13    2.50    0.25 
  -6  -1 -13    3.63    0.31 
   6   1  13    3.43    0.30 
  -7  -1 -13    1.27    0.21 
  -8  -1 -13   -0.04    0.16 
  -9  -1 -13    2.00    0.28 
  13  -2 -13    0.31    0.21 
 -13   2  13    0.52    0.21 
  12  -2 -13    5.88    0.39 
 -12   2  13    5.26    0.38 
  11  -2 -13    0.14    0.16 
 -11   2  13    0.22    0.18 
  10  -2 -13    2.62    0.26 
 -10   2  13    2.92    0.28 
   9  -2 -13   11.73    0.55 
  -9   2  13   11.10    0.55 
   8  -2 -13    2.65    0.25 
  -8   2  13    2.76    0.26 
   7  -2 -13    0.21    0.14 
  -7   2  13    0.03    0.14 
   6  -2 -13    6.05    0.34 
  -6   2  13    6.00    0.36 
   5  -2 -13   10.95    0.49 
  -4   2  13   -0.01    0.03 
  -3   2  13   -0.03    0.02 
  -2   2  13   -0.02    0.03 
  -1   2  13   14.34    0.61 
   0   2  13    0.69    0.16 
   1   2  13   20.95    0.87 
   2   2  13   29.47    1.17 
   3   2  13   -0.05    0.15 
   4   2  13   12.95    0.61 
   5   2  13   -0.25    0.15 
  -6  -2 -13    1.70    0.23 
   6   2  13    1.38    0.23 
  -7  -2 -13    0.85    0.20 
   7   2  13    0.66    0.21 
  -8  -2 -13    1.74    0.25 
  -9  -2 -13    0.30    0.22 
  13  -3 -13    0.90    0.22 
 -13   3  13    0.79    0.22 
  12  -3 -13   -0.10    0.17 
 -12   3  13    0.42    0.20 
  11  -3 -13   -0.25    0.14 
 -11   3  13   -0.03    0.16 
  10  -3 -13    2.31    0.25 
 -10   3  13    2.27    0.25 
   9  -3 -13    4.06    0.31 
  -9   3  13    4.57    0.32 
   8  -3 -13    0.17    0.13 
  -8   3  13    0.11    0.15 
   7  -3 -13    4.59    0.30 
  -7   3  13    5.18    0.35 
   6  -3 -13    1.72    0.19 
  -6   3  13    1.79    0.22 
  -5   3  13    0.25    0.15 
  -4   3  13   16.06    0.69 
  -3   3  13    1.86    0.21 
  -2   3  13    6.15    0.37 
  -1   3  13    1.71    0.20 
   0   3  13    0.23    0.15 
   1   3  13    4.26    0.32 
   2   3  13    0.24    0.17 
   3   3  13    0.12    0.16 
   4   3  13   16.54    0.73 
   5   3  13    0.88    0.19 
   6   3  13    0.72    0.19 
  -7  -3 -13    0.73    0.20 
   7   3  13    0.50    0.19 
  -8  -3 -13    2.42    0.29 
   8   3  13    2.59    0.31 
  13  -4 -13    0.02    0.19 
 -13   4  13    0.31    0.21 
  12  -4 -13    0.59    0.21 
 -12   4  13    0.35    0.20 
  11  -4 -13    2.87    0.28 
 -11   4  13    2.35    0.27 
  10  -4 -13    1.88    0.23 
 -10   4  13    2.62    0.27 
   9  -4 -13    0.73    0.17 
  -9   4  13    0.57    0.18 
   8  -4 -13    0.78    0.17 
  -8   4  13    0.75    0.19 
  -7   4  13    1.16    0.20 
  -6   4  13   15.88    0.70 
  -5   4  13    2.06    0.23 
  -4   4  13   15.11    0.67 
  -3   4  13    4.55    0.33 
  -2   4  13    7.17    0.41 
  -1   4  13   10.57    0.51 
   0   4  13    0.05    0.15 
   1   4  13    3.51    0.30 
   2   4  13   -0.06    0.14 
   3   4  13   -0.09    0.16 
   4   4  13    4.57    0.35 
   5   4  13    0.15    0.16 
   6   4  13    1.89    0.24 
   7   4  13    0.17    0.18 
   8   4  13    0.15    0.21 
  13  -5 -13    1.06    0.24 
 -13   5  13    0.78    0.23 
  12  -5 -13    0.82    0.22 
 -12   5  13    0.98    0.21 
  11  -5 -13    2.52    0.28 
 -11   5  13    2.34    0.27 
 -10   5  13    2.01    0.25 
  -9   5  13    0.20    0.17 
  -8   5  13    3.66    0.30 
  -7   5  13    5.12    0.34 
  -7   5  13    4.69    0.31 
  -6   5  13    0.22    0.16 
  -5   5  13    0.21    0.17 
  -4   5  13    2.17    0.24 
  -3   5  13    1.81    0.22 
  -2   5  13    6.56    0.38 
  -1   5  13   23.11    0.94 
   0   5  13    0.99    0.18 
   1   5  13    8.37    0.45 
   2   5  13    0.44    0.16 
   3   5  13    7.89    0.45 
   4   5  13    3.05    0.29 
   5   5  13    4.94    0.37 
   6   5  13    0.08    0.18 
   7   5  13   -0.13    0.20 
 -12   6  13    2.69    0.30 
 -11   6  13    0.96    0.21 
 -10   6  13    0.25    0.19 
  -9   6  13    1.50    0.23 
  -8   6  13    4.24    0.34 
  -7   6  13    5.66    0.36 
  -7   6  13    5.77    0.37 
  -6   6  13    0.13    0.13 
  -6   6  13    0.00    0.15 
  -5   6  13    1.32    0.20 
  -4   6  13    1.28    0.20 
  -3   6  13    1.93    0.22 
  -2   6  13    9.95    0.49 
  -1   6  13    0.30    0.15 
   0   6  13    0.12    0.15 
   1   6  13    0.14    0.15 
   2   6  13    0.01    0.16 
   3   6  13    1.02    0.19 
   4   6  13    0.27    0.18 
   5   6  13    0.37    0.18 
   6   6  13    0.04    0.19 
 -12   7  13    1.03    0.22 
 -11   7  13    0.01    0.19 
 -10   7  13    7.63    0.46 
  -9   7  13    0.09    0.18 
  -8   7  13    1.28    0.22 
  -8   7  13    1.07    0.18 
  -7   7  13    4.83    0.36 
  -7   7  13    4.52    0.32 
  -6   7  13    1.76    0.22 
  -6   7  13    1.70    0.21 
  -5   7  13    1.05    0.20 
  -5   7  13    1.19    0.19 
  -4   7  13    9.08    0.48 
  -3   7  13   -0.03    0.15 
  -2   7  13    0.06    0.15 
  -1   7  13    1.22    0.20 
   0   7  13    4.35    0.32 
   1   7  13    0.62    0.17 
   2   7  13   -0.11    0.15 
   3   7  13    0.02    0.17 
   4   7  13   -0.23    0.17 
   5   7  13    0.12    0.18 
   6   7  13    1.59    0.26 
 -11   8  13    0.82    0.22 
 -10   8  13   -0.17    0.17 
  -9   8  13    6.99    0.43 
  -8   8  13   12.85    0.60 
  -8   8  13   12.68    0.63 
  -7   8  13    1.58    0.23 
  -7   8  13    1.82    0.22 
  -6   8  13    1.15    0.20 
  -6   8  13    1.34    0.21 
  -5   8  13    0.64    0.17 
  -5   8  13    0.71    0.17 
  -4   8  13    0.77    0.19 
  -4   8  13    0.53    0.17 
  -3   8  13    0.59    0.18 
  -3   8  13    0.63    0.19 
  -2   8  13    3.82    0.31 
  -1   8  13    2.24    0.24 
   0   8  13    0.01    0.16 
   1   8  13    1.54    0.21 
   2   8  13    2.37    0.25 
   3   8  13    0.04    0.17 
   4   8  13    0.05    0.19 
 -11   9  13    0.54    0.23 
 -10   9  13    0.42    0.22 
  -9   9  13    1.08    0.23 
  -8   9  13    1.36    0.21 
  -8   9  13    1.18    0.22 
  -7   9  13    1.27    0.23 
  -7   9  13    1.52    0.22 
  -6   9  13    1.88    0.22 
  -6   9  13    1.36    0.20 
  -5   9  13    1.02    0.20 
  -5   9  13    1.00    0.19 
  -4   9  13    0.08    0.16 
  -4   9  13    0.24    0.16 
  -3   9  13    3.97    0.33 
  -3   9  13    4.16    0.32 
  -2   9  13    2.15    0.25 
  -2   9  13    2.79    0.29 
  -1   9  13    1.91    0.24 
  -1   9  13    1.92    0.25 
   0   9  13    1.60    0.23 
   0   9  13    1.88    0.25 
   1   9  13    8.70    0.49 
   1   9  13    9.49    0.54 
   2   9  13    4.09    0.38 
   3   9  13   -0.01    0.18 
   4   9  13    2.67    0.31 
 -10  10  13    1.54    0.26 
  -9  10  13   -0.20    0.18 
  -8  10  13    2.73    0.28 
  -8  10  13    3.68    0.34 
  -7  10  13    0.90    0.21 
  -7  10  13    0.94    0.19 
  -6  10  13    0.06    0.17 
  -6  10  13    0.17    0.15 
  -5  10  13    0.13    0.17 
  -5  10  13    0.67    0.19 
  -4  10  13   -0.10    0.16 
  -4  10  13    0.07    0.17 
  -3  10  13    1.31    0.23 
  -3  10  13    1.10    0.22 
  -2  10  13    1.53    0.23 
  -2  10  13    2.10    0.27 
  -1  10  13    1.19    0.24 
   0  10  13    1.16    0.24 
   1  10  13    0.13    0.21 
   2  10  13    0.41    0.22 
  -9  11  13    0.01    0.20 
  -8  11  13    0.12    0.18 
  -8  11  13    0.13    0.20 
  -7  11  13   -0.06    0.17 
  -7  11  13    0.03    0.18 
  -6  11  13    0.53    0.20 
  -6  11  13    1.01    0.20 
  -5  11  13    0.04    0.18 
  -5  11  13   -0.14    0.16 
  -4  11  13   -0.16    0.15 
  -3  11  13    0.49    0.21 
  -2  11  13    0.87    0.23 
  -1  11  13    0.55    0.21 
   0  11  13   -0.30    0.18 
   1  11  13    0.79    0.25 
  -6  12  13    0.71    0.22 
  -5  12  13    0.02    0.18 
  -4  12  13    0.32    0.20 
  -3  12  13   -0.06    0.20 
  -2  12  13    0.41    0.21 
   0  15 -14   -0.14    0.18 
  -1  15 -14    0.03    0.19 
  -2  15 -14    1.29    0.24 
  -3  15 -14    1.02    0.24 
   3  14 -14    3.83    0.36 
   3  14 -14    3.37    0.31 
   2  14 -14    0.06    0.17 
   1  14 -14    1.20    0.23 
   0  14 -14    5.59    0.39 
  -1  14 -14    0.00    0.16 
  -2  14 -14    1.39    0.24 
  -3  14 -14    0.14    0.19 
  -4  14 -14   -0.01    0.17 
  -5  14 -14    0.25    0.20 
  -6  14 -14    2.83    0.31 
   5  13 -14    0.18    0.19 
   4  13 -14    1.99    0.25 
   3  13 -14    0.86    0.20 
   3  13 -14    0.57    0.18 
   2  13 -14    0.18    0.16 
   2  13 -14    0.43    0.18 
   1  13 -14    0.37    0.16 
   0  13 -14    0.27    0.17 
  -1  13 -14   -0.01    0.15 
  -2  13 -14    1.24    0.23 
  -3  13 -14    1.95    0.26 
  -4  13 -14   -0.13    0.15 
  -5  13 -14    2.89    0.30 
  -6  13 -14   -0.02    0.18 
  -7  13 -14    1.28    0.26 
   6  12 -14   -0.08    0.16 
   5  12 -14   -0.10    0.17 
   4  12 -14    8.53    0.47 
   4  12 -14    8.52    0.49 
   3  12 -14   -0.16    0.15 
   3  12 -14   -0.01    0.15 
   2  12 -14    1.71    0.21 
   2  12 -14    1.70    0.22 
   1  12 -14   -0.07    0.15 
   0  12 -14    2.18    0.25 
  -1  12 -14    0.09    0.16 
  -2  12 -14    1.79    0.24 
  -3  12 -14    3.68    0.34 
  -4  12 -14    1.84    0.25 
  -5  12 -14    2.20    0.27 
  -6  12 -14    0.20    0.17 
  -7  12 -14   -0.10    0.18 
  -8  12 -14    0.64    0.20 
   7  11 -14    0.37    0.20 
   6  11 -14    0.06    0.17 
   5  11 -14    1.94    0.25 
   4  11 -14    0.53    0.16 
   4  11 -14    0.43    0.17 
   3  11 -14    3.92    0.32 
   3  11 -14    3.86    0.31 
   2  11 -14    2.06    0.23 
   2  11 -14    2.10    0.22 
   1  11 -14    3.41    0.30 
   0  11 -14    0.02    0.15 
  -1  11 -14    0.39    0.16 
  -2  11 -14    0.16    0.16 
  -3  11 -14    3.58    0.30 
  -4  11 -14    6.15    0.39 
  -5  11 -14    0.32    0.17 
  -6  11 -14    0.26    0.19 
  -7  11 -14    0.13    0.18 
  -8  11 -14    0.89    0.21 
   8  10 -14    0.69    0.21 
   7  10 -14   -0.33    0.17 
   6  10 -14    1.75    0.24 
   5  10 -14    0.03    0.14 
   4  10 -14    3.02    0.27 
   4  10 -14    3.10    0.30 
   3  10 -14   -0.20    0.12 
   3  10 -14   -0.21    0.12 
   2  10 -14    0.06    0.14 
   2  10 -14    0.08    0.12 
   1  10 -14   12.26    0.58 
   1  10 -14   12.40    0.55 
   0  10 -14    2.47    0.25 
  -1  10 -14   34.18    1.34 
  -2  10 -14    0.32    0.16 
  -3  10 -14    0.64    0.17 
  -4  10 -14    0.10    0.15 
  -5  10 -14    0.89    0.17 
  -5  10 -14    0.35    0.17 
   5 -10  14    1.10    0.19 
  -6  10 -14    0.01    0.15 
  -6  10 -14    0.04    0.16 
  -7  10 -14    8.55    0.49 
  -7  10 -14    9.35    0.50 
  -8  10 -14    0.02    0.17 
  -8  10 -14    0.29    0.19 
  -9  10 -14    1.03    0.23 
  -9  10 -14    1.03    0.23 
   9   9 -14    0.12    0.20 
   8   9 -14    0.94    0.21 
   7   9 -14    0.45    0.19 
   6   9 -14    0.09    0.16 
   5   9 -14   13.25    0.59 
   5   9 -14   13.56    0.62 
   4   9 -14    0.05    0.13 
   4   9 -14   -0.04    0.13 
   3   9 -14    4.60    0.32 
   3   9 -14    4.78    0.32 
   2   9 -14    1.34    0.18 
   2   9 -14    1.47    0.17 
   1   9 -14    0.76    0.14 
   1   9 -14    0.78    0.16 
   0   9 -14    0.02    0.13 
  -1   9 -14    1.84    0.22 
  -2   9 -14    9.21    0.49 
   2  -9  14    9.40    0.45 
  -3   9 -14    0.05    0.14 
   3  -9  14    0.08    0.12 
  -4   9 -14   -0.04    0.13 
   4  -9  14    0.30    0.14 
  -5   9 -14    2.37    0.25 
  -5   9 -14    2.30    0.22 
   5  -9  14    2.54    0.24 
  -6   9 -14    0.13    0.15 
  -6   9 -14    0.23    0.15 
  -7   9 -14    0.09    0.16 
  -7   9 -14    0.16    0.17 
  -8   9 -14    2.11    0.26 
  -8   9 -14    1.73    0.24 
  -9   9 -14    3.87    0.33 
  -9   9 -14    4.26    0.37 
  10   8 -14   -0.30    0.18 
   9   8 -14   -0.14    0.17 
   8   8 -14    1.33    0.24 
   7   8 -14    6.75    0.43 
   6   8 -14    0.12    0.15 
   5   8 -14    0.91    0.18 
   5   8 -14    0.74    0.14 
   4   8 -14    4.16    0.29 
   4   8 -14    4.09    0.31 
   3   8 -14   14.84    0.63 
   3   8 -14   14.40    0.64 
   2   8 -14    2.35    0.22 
   2   8 -14    2.08    0.22 
   1   8 -14    4.21    0.26 
   1   8 -14    4.11    0.30 
  -1  -8  14    4.06    0.27 
   0   8 -14    0.54    0.15 
   0  -8  14    0.60    0.14 
  -1   8 -14    1.53    0.19 
   1  -8  14    1.57    0.17 
  -2   8 -14    0.78    0.16 
   2  -8  14    1.13    0.16 
  -3   8 -14    6.64    0.38 
   3  -8  14    6.43    0.36 
  -4   8 -14    0.39    0.16 
   4  -8  14    0.41    0.15 
  -5   8 -14   -0.06    0.14 
  -5   8 -14    0.18    0.14 
   5  -8  14    0.06    0.14 
  -6   8 -14    0.02    0.15 
  -6   8 -14    0.06    0.15 
  -7   8 -14    8.17    0.46 
  -7   8 -14    7.94    0.45 
  -8   8 -14   -0.28    0.15 
  -8   8 -14    0.05    0.17 
  -9   8 -14    0.64    0.20 
  -9   8 -14    0.53    0.21 
 -10   8 -14    0.61    0.20 
 -10   8 -14    0.32    0.20 
  10   7 -14    0.08    0.17 
   9   7 -14    6.14    0.43 
   8   7 -14    1.94    0.25 
   7   7 -14    1.45    0.21 
   6   7 -14    0.14    0.16 
   5   7 -14    0.47    0.13 
   5   7 -14    0.36    0.14 
   4   7 -14    0.32    0.14 
   4   7 -14    0.27    0.12 
  -4  -7  14    0.40    0.14 
   3   7 -14    0.19    0.13 
   3   7 -14   -0.01    0.12 
  -3  -7  14    0.10    0.12 
   2   7 -14    0.19    0.11 
   2   7 -14    0.13    0.12 
  -2  -7  14    0.36    0.13 
   1   7 -14    0.12    0.12 
   1   7 -14    0.17    0.11 
  -1  -7  14    0.10    0.12 
   0   7 -14   -0.08    0.12 
   0  -7  14   -0.06    0.11 
  -1   7 -14    2.01    0.21 
   1  -7  14    2.56    0.23 
  -2   7 -14    0.17    0.13 
   2  -7  14    0.24    0.13 
  -3   7 -14   -0.03    0.14 
   3  -7  14    0.08    0.13 
  -4   7 -14    4.39    0.32 
   4  -7  14    4.08    0.31 
  -5   7 -14   20.94    0.86 
  -5   7 -14   20.79    0.87 
   5  -7  14   20.29    0.86 
  -6   7 -14   -0.01    0.14 
  -6   7 -14    0.30    0.16 
  -7   7 -14    4.00    0.30 
  -7   7 -14    3.65    0.31 
  -8   7 -14    1.98    0.23 
  -8   7 -14    1.51    0.24 
  -9   7 -14    4.75    0.39 
  -9   7 -14    4.63    0.34 
 -10   7 -14   -0.06    0.17 
 -10   7 -14    0.16    0.19 
  11   6 -14   -0.07    0.18 
  10   6 -14    0.88    0.21 
   9   6 -14    0.66    0.19 
   8   6 -14    4.01    0.34 
   7   6 -14    7.54    0.42 
  -7  -6  14    7.27    0.39 
   6   6 -14   20.95    0.87 
  -6  -6  14   20.75    0.84 
   5   6 -14    0.02    0.11 
   5   6 -14   -0.24    0.12 
  -5  -6  14    0.03    0.13 
   4   6 -14    0.95    0.16 
   4   6 -14    0.62    0.14 
  -4  -6  14    0.79    0.15 
   3   6 -14    0.05    0.11 
   3   6 -14   -0.08    0.11 
  -3  -6  14    0.05    0.13 
   2   6 -14    5.28    0.29 
   2   6 -14    4.47    0.30 
  -2  -6  14    4.79    0.30 
   1   6 -14   24.39    0.91 
   1   6 -14   23.81    0.95 
  -1  -6  14   23.91    0.94 
   0   6 -14    3.49    0.27 
   0   6 -14    3.87    0.22 
   0  -6  14    3.43    0.28 
  -1   6 -14   38.56    1.48 
   1  -6  14   39.59    1.47 
  -2   6 -14    1.94    0.20 
   2  -6  14    1.84    0.19 
  -3   6 -14   10.81    0.52 
   3  -6  14   10.42    0.50 
  -4   6 -14    3.49    0.29 
  -4   6 -14    3.16    0.26 
   4  -6  14    3.61    0.29 
  -5   6 -14    0.30    0.15 
  -5   6 -14    0.43    0.16 
  -6   6 -14    0.42    0.16 
  -6   6 -14    0.51    0.17 
  -7   6 -14    1.57    0.21 
  -7   6 -14    1.81    0.22 
  -8   6 -14    3.85    0.33 
  -8   6 -14    3.69    0.32 
  -9   6 -14   -0.01    0.17 
  -9   6 -14   -0.19    0.15 
 -10   6 -14    4.05    0.39 
 -10   6 -14    3.58    0.34 
  11   5 -14    0.65    0.21 
  10   5 -14    0.63    0.21 
 -10  -5  14    0.89    0.19 
   9   5 -14    0.21    0.16 
  -9  -5  14    0.31    0.15 
   8   5 -14    1.16    0.20 
  -8  -5  14    1.36    0.19 
   7   5 -14    1.62    0.21 
  -7  -5  14    1.75    0.20 
   6   5 -14   18.89    0.80 
  -6  -5  14   18.82    0.78 
   5   5 -14    0.03    0.11 
   5   5 -14    0.04    0.13 
  -5  -5  14    0.06    0.12 
   4   5 -14    2.37    0.22 
   4   5 -14    2.62    0.22 
  -4  -5  14    2.70    0.24 
   3   5 -14   35.77    1.32 
   3   5 -14   35.63    1.33 
  -3  -5  14   34.99    1.34 
   2   5 -14   13.80    0.57 
   2   5 -14   13.96    0.60 
  -2  -5  14   13.76    0.60 
   1   5 -14   38.05    1.44 
   1   5 -14   39.03    1.39 
  -1  -5  14   37.39    1.43 
   0   5 -14    0.17    0.09 
   0   5 -14    0.06    0.13 
   0  -5  14   -0.09    0.13 
  -1   5 -14   42.38    1.59 
   1  -5  14   42.04    1.58 
  -2   5 -14   -0.05    0.13 
   2  -5  14    0.03    0.13 
  -3   5 -14   11.02    0.53 
   3  -5  14   11.80    0.54 
  -4   5 -14    5.25    0.32 
  -4   5 -14    4.90    0.33 
   4  -5  14    4.71    0.34 
  -5   5 -14    0.16    0.14 
  -5   5 -14   -0.17    0.14 
  -6   5 -14    0.37    0.16 
  -6   5 -14    0.46    0.15 
  -7   5 -14    0.77    0.19 
  -7   5 -14    0.92    0.18 
  -8   5 -14   -0.15    0.15 
  -8   5 -14    0.04    0.18 
  -9   5 -14    1.85    0.24 
  -9   5 -14    2.30    0.28 
 -10   5 -14    7.05    0.49 
 -10   5 -14    7.24    0.44 
  12   4 -14    0.07    0.18 
 -12  -4  14   -0.35    0.16 
  11   4 -14    1.54    0.24 
 -11  -4  14    1.38    0.22 
  10   4 -14    0.04    0.16 
 -10  -4  14    0.00    0.15 
   9   4 -14    0.67    0.19 
  -9  -4  14    0.84    0.18 
   8   4 -14    1.29    0.21 
  -8  -4  14    1.17    0.19 
   7   4 -14    1.10    0.19 
  -7  -4  14    1.28    0.19 
   6   4 -14    3.37    0.28 
   6   4 -14    3.42    0.23 
  -6  -4  14    2.99    0.27 
   5   4 -14   15.67    0.67 
   5   4 -14   16.21    0.65 
  -5  -4  14   16.19    0.68 
   4   4 -14    3.48    0.25 
   4   4 -14    3.41    0.26 
  -4  -4  14    3.15    0.27 
   3   4 -14   47.93    1.74 
   3   4 -14   47.59    1.75 
  -3  -4  14   47.56    1.77 
   2   4 -14   13.68    0.60 
   2   4 -14   14.32    0.57 
  -2  -4  14   14.21    0.61 
   1   4 -14    7.91    0.40 
   1   4 -14    8.17    0.37 
  -1  -4  14    8.48    0.41 
   0   4 -14    0.25    0.12 
   0   4 -14    0.19    0.08 
   0  -4  14    0.05    0.12 
  -1   4 -14    0.17    0.12 
   1  -4  14   -0.04    0.12 
  -2   4 -14    4.11    0.28 
   2  -4  14    5.35    0.31 
  -3   4 -14    1.82    0.21 
   3  -4  14    2.56    0.24 
  -4   4 -14   -0.06    0.12 
  -4   4 -14    0.03    0.13 
   4  -4  14    0.25    0.14 
  -5   4 -14    0.49    0.17 
  -5   4 -14    0.49    0.15 
   5  -4  14    0.38    0.16 
  -6   4 -14   -0.19    0.13 
  -6   4 -14   -0.03    0.14 
  -7   4 -14    3.63    0.31 
  -7   4 -14    4.04    0.29 
  -8   4 -14    0.61    0.18 
  -8   4 -14    0.69    0.21 
  -9   4 -14    0.25    0.20 
  -9   4 -14   -0.06    0.17 
 -10   4 -14    3.31    0.34 
  12   3 -14    0.40    0.19 
 -12  -3  14    0.61    0.21 
  11   3 -14    0.34    0.18 
 -11  -3  14    0.08    0.17 
  10   3 -14    0.42    0.17 
 -10  -3  14    0.02    0.15 
   9   3 -14    9.85    0.51 
  -9  -3  14    9.67    0.49 
   8   3 -14    2.37    0.24 
  -8  -3  14    2.16    0.23 
   7   3 -14   15.94    0.69 
  -7  -3  14   15.97    0.69 
   6   3 -14    4.81    0.27 
   6   3 -14    4.59    0.32 
  -6  -3  14    4.95    0.32 
   5   3 -14    2.02    0.18 
   5   3 -14    1.82    0.20 
  -5  -3  14    1.99    0.21 
   4   3 -14    3.18    0.23 
   4   3 -14    3.51    0.24 
  -4  -3  14    3.38    0.26 
   3   3 -14    0.45    0.12 
   3   3 -14    0.33    0.12 
  -3  -3  14    0.56    0.14 
   2   3 -14    9.87    0.45 
   2   3 -14    9.60    0.42 
  -2  -3  14    9.14    0.46 
   1   3 -14    3.76    0.26 
   1   3 -14    3.59    0.22 
  -1  -3  14    3.65    0.26 
   0   3 -14    0.28    0.13 
   0   3 -14    0.28    0.08 
   0  -3  14    0.22    0.13 
  -1   3 -14    0.78    0.13 
   1  -3  14    1.41    0.19 
  -2   3 -14   11.38    0.52 
  -3   3 -14    3.20    0.27 
   3  -3  14    2.51    0.24 
  -4   3 -14    5.09    0.32 
   4  -3  14    5.32    0.36 
  -5   3 -14   10.28    0.50 
  -5   3 -14    9.98    0.50 
   5  -3  14    9.51    0.50 
  -6   3 -14    2.00    0.23 
  -6   3 -14    2.11    0.22 
  -7   3 -14    0.19    0.14 
  -7   3 -14    0.38    0.18 
  -8   3 -14    0.07    0.16 
  -8   3 -14   -0.02    0.15 
  -9   3 -14   -0.22    0.15 
  -9   3 -14   -0.16    0.16 
 -10   3 -14    0.09    0.19 
  12   2 -14   -0.23    0.16 
 -12  -2  14   -0.17    0.18 
  11   2 -14    0.13    0.18 
 -11  -2  14    0.02    0.17 
  10   2 -14    0.38    0.16 
 -10  -2  14    0.14    0.17 
   9   2 -14    6.61    0.42 
  -9  -2  14    7.04    0.41 
   8   2 -14    1.92    0.22 
  -8  -2  14    2.28    0.24 
   7   2 -14    3.89    0.31 
  -7  -2  14    4.22    0.31 
   6   2 -14   10.25    0.49 
   6   2 -14    9.92    0.44 
  -6  -2  14   10.41    0.50 
   5   2 -14   -0.03    0.10 
   5   2 -14   -0.09    0.12 
  -5  -2  14   -0.08    0.13 
   4   2 -14   -0.01    0.10 
   4   2 -14   -0.05    0.10 
  -4  -2  14   -0.31    0.13 
   3   2 -14    0.43    0.12 
   3   2 -14    0.74    0.13 
  -3  -2  14    0.53    0.16 
   2   2 -14    2.09    0.19 
   2   2 -14    2.20    0.20 
  -2  -2  14    2.60    0.23 
   1   2 -14    0.74    0.13 
   1   2 -14    0.53    0.10 
  -1  -2  14    0.53    0.14 
   0   2 -14   28.30    1.09 
   0  -2  14   28.17    1.10 
   1  -2  14    0.40    0.14 
  -2   2 -14   44.01    1.74 
   2  -2  14   49.69    1.76 
  -3   2 -14    5.75    0.35 
   3  -2  14    5.30    0.34 
  -4   2 -14    0.86    0.16 
   4  -2  14    0.68    0.17 
  -5   2 -14    0.05    0.15 
  -5   2 -14    0.05    0.13 
   5  -2  14   -0.02    0.15 
  -6   2 -14    3.39    0.31 
  -6   2 -14    3.39    0.27 
  -7   2 -14   -0.01    0.13 
  -7   2 -14    0.06    0.15 
  -8   2 -14    0.24    0.17 
  -8   2 -14   -0.08    0.15 
  -9   2 -14    2.73    0.30 
  -9   2 -14    2.83    0.27 
 -10   2 -14    1.24    0.25 
  12   1 -14    0.52    0.21 
 -12  -1  14    0.53    0.21 
  11   1 -14    9.23    0.52 
 -11  -1  14    9.67    0.52 
  10   1 -14    5.15    0.36 
 -10  -1  14    5.21    0.37 
   9   1 -14    2.34    0.25 
  -9  -1  14    2.30    0.25 
   8   1 -14   12.81    0.58 
  -8  -1  14   12.25    0.58 
   7   1 -14    5.43    0.34 
  -7  -1  14    4.88    0.34 
   6   1 -14    4.31    0.29 
  -6  -1  14    4.72    0.31 
   5   1 -14    0.33    0.12 
   5   1 -14    0.40    0.11 
  -5  -1  14    0.39    0.16 
   4   1 -14    0.08    0.11 
   4   1 -14    0.11    0.10 
  -4  -1  14   -0.08    0.13 
   3   1 -14   10.52    0.47 
   3   1 -14   10.61    0.48 
  -3  -1  14   11.00    0.50 
   2   1 -14    0.67    0.12 
  -2  -1  14    0.53    0.16 
   1   1 -14   37.57    1.40 
  -1  -1  14   36.69    1.41 
   0   1 -14    0.23    0.14 
   0  -1  14    0.21    0.15 
   1  -1  14   23.47    0.95 
  -2   1 -14   16.32    0.70 
   2  -1  14   16.60    0.71 
  -3   1 -14    5.73    0.35 
   3  -1  14    5.40    0.34 
  -4   1 -14    0.76    0.16 
   4  -1  14    0.73    0.18 
  -5   1 -14    0.24    0.14 
  -5   1 -14    0.32    0.16 
   5  -1  14    0.51    0.18 
  -6   1 -14    0.12    0.14 
  -6   1 -14    0.03    0.16 
   6  -1  14   -0.02    0.16 
  -7   1 -14    1.13    0.19 
  -7   1 -14    0.88    0.21 
  -8   1 -14    1.05    0.22 
  -9   1 -14   -0.22    0.16 
  13   0 -14    2.03    0.27 
 -13   0  14    1.90    0.28 
  12   0 -14    0.05    0.16 
 -12   0  14   -0.20    0.16 
  11   0 -14    0.83    0.21 
 -11   0  14    0.44    0.18 
  10   0 -14    0.00    0.16 
 -10   0  14    0.16    0.16 
   9   0 -14   11.02    0.54 
  -9   0  14   10.15    0.53 
   8   0 -14    0.75    0.18 
  -8   0  14    0.87    0.19 
   7   0 -14   -0.11    0.12 
  -7   0  14   -0.11    0.13 
   6   0 -14    1.84    0.20 
  -6   0  14    1.93    0.22 
   5   0 -14    0.01    0.12 
  -5   0  14    0.08    0.15 
   4   0 -14    6.68    0.35 
  -4   0  14    6.51    0.37 
   3   0 -14   25.89    0.98 
   3   0 -14   24.06    0.96 
  -3   0  14   26.35    1.02 
   2   0 -14   46.63    1.74 
  -2   0  14   47.72    1.77 
   1   0 -14   33.57    1.27 
  -1   0  14   33.10    1.28 
   0   0  14   55.62    2.06 
   1   0  14   29.06    1.14 
  -2   0 -14    0.48    0.15 
   2   0  14    0.62    0.16 
  -3   0 -14    4.72    0.32 
   3   0  14    4.20    0.31 
  -4   0 -14    7.70    0.43 
   4   0  14    8.39    0.44 
  -5   0 -14    0.27    0.14 
   5   0  14    0.19    0.15 
  -6   0 -14   -0.10    0.15 
   6   0  14   -0.14    0.14 
  -7   0 -14    0.85    0.21 
  -8   0 -14    0.39    0.20 
  -9   0 -14    1.55    0.26 
  13  -1 -14    0.12    0.19 
 -13   1  14    0.58    0.21 
  12  -1 -14    0.42    0.19 
 -12   1  14    0.26    0.20 
  11  -1 -14    0.62    0.19 
 -11   1  14    0.71    0.19 
  10  -1 -14    1.80    0.24 
 -10   1  14    1.99    0.24 
   9  -1 -14    0.02    0.16 
  -9   1  14    0.16    0.16 
   8  -1 -14    1.37    0.21 
  -8   1  14    1.43    0.21 
   7  -1 -14    0.14    0.13 
  -7   1  14   -0.13    0.14 
   6  -1 -14   -0.06    0.12 
  -6   1  14    0.03    0.14 
   5  -1 -14    3.92    0.26 
  -5   1  14    3.77    0.31 
   4  -1 -14    0.49    0.13 
  -4   1  14    0.51    0.16 
  -3   1  14    1.37    0.17 
  -1   1  14    0.15    0.05 
   0   1  14    0.15    0.09 
   1   1  14    0.18    0.15 
   2   1  14   -0.05    0.14 
   3   1  14    6.01    0.37 
   4   1  14    0.06    0.14 
   5   1  14    0.19    0.16 
  -6  -1 -14    7.12    0.43 
   6   1  14    6.71    0.43 
  -7  -1 -14    0.36    0.19 
   7   1  14   -0.07    0.18 
  -8  -1 -14    0.17    0.18 
   8   1  14   -0.20    0.18 
  -9  -1 -14    1.32    0.26 
  13  -2 -14   -0.26    0.19 
 -13   2  14   -0.07    0.20 
  12  -2 -14    0.47    0.21 
 -12   2  14    0.63    0.20 
  11  -2 -14    2.29    0.26 
 -11   2  14    2.18    0.26 
  10  -2 -14    4.19    0.34 
 -10   2  14    4.29    0.35 
   9  -2 -14   -0.12    0.14 
  -9   2  14    0.04    0.15 
   8  -2 -14    1.27    0.20 
  -8   2  14    1.12    0.20 
   7  -2 -14    7.22    0.41 
  -7   2  14    8.03    0.44 
   6  -2 -14    0.10    0.12 
  -6   2  14    0.56    0.17 
   5  -2 -14    0.39    0.14 
  -5   2  14    0.34    0.16 
  -4   2  14    0.46    0.15 
  -3   2  14    0.67    0.14 
  -2   2  14    0.69    0.15 
  -1   2  14    6.53    0.37 
   0   2  14   27.66    1.09 
   1   2  14    3.27    0.28 
   2   2  14    7.06    0.42 
   3   2  14   11.15    0.54 
   4   2  14    0.56    0.17 
   5   2  14    9.06    0.50 
   6   2  14    0.15    0.17 
  -7  -2 -14    0.93    0.22 
   7   2  14    0.88    0.23 
  -8  -2 -14    0.06    0.19 
   8   2  14   -0.23    0.20 
  13  -3 -14    0.73    0.22 
 -13   3  14    0.72    0.22 
  12  -3 -14    4.34    0.36 
 -12   3  14    4.66    0.38 
  11  -3 -14    2.82    0.29 
 -11   3  14    3.09    0.30 
  10  -3 -14    1.07    0.20 
 -10   3  14    1.40    0.23 
   9  -3 -14    5.96    0.38 
  -9   3  14    5.75    0.38 
   8  -3 -14    0.96    0.18 
  -8   3  14    1.33    0.21 
   7  -3 -14    0.52    0.15 
  -7   3  14    0.29    0.16 
  -6   3  14    7.53    0.43 
  -5   3  14    3.27    0.28 
  -4   3  14    1.21    0.20 
  -3   3  14    0.07    0.16 
  -2   3  14   34.65    1.34 
  -1   3  14    1.90    0.22 
   0   3  14    0.98    0.18 
   1   3  14    0.62    0.17 
   2   3  14   14.13    0.66 
   3   3  14    1.13    0.20 
   4   3  14    7.18    0.43 
   5   3  14    2.24    0.25 
   6   3  14    0.03    0.16 
   7   3  14    0.91    0.22 
   8   3  14    0.46    0.21 
  12  -4 -14    0.22    0.19 
 -12   4  14    0.41    0.19 
  11  -4 -14    0.22    0.18 
 -11   4  14    0.09    0.18 
  10  -4 -14    4.43    0.33 
 -10   4  14    4.13    0.33 
   9  -4 -14    0.19    0.16 
  -9   4  14    0.30    0.17 
  -8   4  14    3.74    0.30 
  -7   4  14    0.46    0.17 
  -6   4  14   -0.15    0.14 
  -5   4  14    5.91    0.38 
  -4   4  14   16.55    0.72 
  -3   4  14    2.08    0.23 
  -2   4  14    0.28    0.17 
  -1   4  14    1.03    0.19 
   0   4  14   15.07    0.67 
   1   4  14    0.42    0.16 
   2   4  14    0.60    0.18 
   3   4  14    0.72    0.20 
   4   4  14    0.84    0.20 
   5   4  14    1.01    0.21 
   6   4  14    2.89    0.29 
   7   4  14    0.13    0.19 
  12  -5 -14    0.00    0.18 
 -12   5  14    0.28    0.20 
 -11   5  14    1.03    0.21 
 -10   5  14    0.03    0.17 
  -9   5  14   -0.04    0.17 
  -8   5  14    2.37    0.26 
  -7   5  14    0.36    0.16 
  -7   5  14    0.20    0.14 
  -6   5  14    1.27    0.20 
  -5   5  14    4.31    0.32 
  -4   5  14   25.22    1.03 
  -3   5  14    0.83    0.19 
  -2   5  14    0.42    0.16 
  -1   5  14    2.14    0.23 
   0   5  14    0.07    0.14 
   1   5  14    0.42    0.17 
   2   5  14    1.64    0.23 
   3   5  14    5.31    0.38 
   4   5  14    0.79    0.21 
   5   5  14    0.14    0.18 
   6   5  14    2.54    0.29 
   7   5  14    0.83    0.24 
 -12   6  14    0.76    0.23 
 -11   6  14    3.09    0.31 
 -10   6  14    1.16    0.22 
  -9   6  14    0.39    0.19 
  -8   6  14    2.47    0.27 
  -7   6  14    0.11    0.15 
  -7   6  14    0.49    0.18 
  -6   6  14    4.22    0.34 
  -5   6  14    0.66    0.19 
  -4   6  14    0.50    0.18 
  -3   6  14    5.39    0.34 
  -2   6  14    0.50    0.16 
  -1   6  14    0.79    0.18 
   0   6  14    0.22    0.16 
   1   6  14    2.61    0.26 
   2   6  14    3.14    0.31 
   3   6  14    0.31    0.18 
   4   6  14    2.04    0.26 
   5   6  14    0.48    0.21 
   6   6  14   -0.14    0.20 
 -11   7  14    0.12    0.20 
 -10   7  14    0.67    0.22 
  -9   7  14    3.34    0.32 
  -8   7  14   11.34    0.59 
  -7   7  14    1.23    0.23 
  -7   7  14    1.27    0.20 
  -6   7  14    0.18    0.15 
  -6   7  14   -0.11    0.16 
  -5   7  14    1.25    0.22 
  -5   7  14    1.68    0.20 
  -4   7  14    0.20    0.16 
  -3   7  14    1.20    0.20 
  -2   7  14    0.31    0.17 
  -1   7  14    0.05    0.16 
   0   7  14    0.74    0.19 
   1   7  14    0.58    0.19 
   2   7  14    0.48    0.18 
   3   7  14    0.09    0.18 
   4   7  14   -0.09    0.17 
   5   7  14   -0.22    0.19 
 -11   8  14    0.30    0.21 
 -10   8  14    0.86    0.23 
  -9   8  14    1.52    0.26 
  -8   8  14    1.16    0.22 
  -8   8  14    0.89    0.19 
  -7   8  14    0.70    0.20 
  -7   8  14    0.37    0.16 
  -6   8  14    2.33    0.26 
  -6   8  14    2.70    0.26 
  -5   8  14    0.32    0.18 
  -5   8  14    0.37    0.16 
  -4   8  14    0.36    0.18 
  -4   8  14    0.09    0.16 
  -3   8  14   -0.20    0.14 
  -3   8  14    0.05    0.16 
  -2   8  14    0.14    0.17 
  -1   8  14    2.23    0.25 
   0   8  14    3.59    0.32 
   1   8  14    0.26    0.18 
   2   8  14    2.76    0.28 
   3   8  14    0.26    0.19 
   4   8  14    0.08    0.19 
 -10   9  14    0.83    0.24 
  -9   9  14    1.08    0.24 
  -8   9  14    1.81    0.24 
  -8   9  14    1.18    0.23 
  -7   9  14    0.94    0.22 
  -7   9  14    1.32    0.21 
  -6   9  14    1.14    0.20 
  -6   9  14    1.15    0.21 
  -5   9  14   -0.25    0.16 
  -5   9  14    0.01    0.17 
  -4   9  14    2.25    0.26 
  -4   9  14    2.50    0.26 
  -3   9  14   -0.06    0.16 
  -3   9  14   -0.03    0.18 
  -2   9  14    0.48    0.19 
  -2   9  14    0.50    0.19 
  -1   9  14    0.27    0.18 
  -1   9  14    0.55    0.20 
   0   9  14   -0.08    0.18 
   0   9  14    0.22    0.20 
   1   9  14    1.65    0.24 
   1   9  14    1.22    0.25 
   2   9  14    1.57    0.28 
   3   9  14    0.40    0.21 
  -9  10  14   -0.05    0.20 
  -8  10  14    0.38    0.21 
  -8  10  14    0.19    0.18 
  -7  10  14    0.22    0.18 
  -7  10  14    0.15    0.19 
  -6  10  14   -0.16    0.17 
  -6  10  14    0.18    0.16 
  -5  10  14    0.49    0.19 
  -5  10  14    0.67    0.19 
  -4  10  14    3.42    0.31 
  -4  10  14    3.07    0.30 
  -3  10  14   -0.30    0.17 
  -3  10  14    0.27    0.19 
  -2  10  14    1.73    0.25 
  -2  10  14    1.71    0.25 
  -1  10  14    4.75    0.38 
   0  10  14    2.44    0.30 
   1  10  14    3.56    0.36 
  -7  11  14    0.08    0.19 
  -7  11  14    0.23    0.19 
  -6  11  14   -0.13    0.16 
  -6  11  14    0.04    0.18 
  -5  11  14   -0.24    0.17 
  -5  11  14   -0.12    0.17 
  -4  11  14    0.04    0.19 
  -3  11  14    0.69    0.21 
  -2  11  14    0.16    0.20 
  -1  11  14    0.19    0.21 
   2  14 -15    1.49    0.25 
   1  14 -15   -0.07    0.18 
   0  14 -15    0.07    0.18 
  -1  14 -15   -0.08    0.17 
  -2  14 -15    0.15    0.19 
  -3  14 -15    1.42    0.25 
  -4  14 -15    0.76    0.22 
   4  13 -15    0.61    0.20 
   3  13 -15    0.26    0.17 
   3  13 -15    0.20    0.17 
   2  13 -15    0.49    0.19 
   1  13 -15    0.36    0.18 
   0  13 -15    6.30    0.41 
  -1  13 -15    4.19    0.34 
  -2  13 -15    1.21    0.23 
  -3  13 -15    0.35    0.19 
  -4  13 -15    0.10    0.17 
  -5  13 -15   -0.19    0.17 
  -6  13 -15    1.20    0.24 
   6  12 -15    2.14    0.28 
   5  12 -15    0.39    0.19 
   4  12 -15    1.67    0.23 
   4  12 -15    1.90    0.25 
   3  12 -15    0.81    0.19 
   3  12 -15    0.83    0.19 
   2  12 -15    1.00    0.20 
   1  12 -15   -0.02    0.14 
   0  12 -15    0.00    0.15 
  -1  12 -15    0.11    0.15 
  -2  12 -15    5.93    0.41 
  -3  12 -15    0.54    0.19 
  -4  12 -15    3.66    0.33 
  -5  12 -15    2.75    0.30 
  -6  12 -15    0.27    0.20 
  -7  12 -15    0.92    0.23 
   7  11 -15    2.70    0.30 
   6  11 -15    0.04    0.18 
   5  11 -15    0.18    0.17 
   4  11 -15    1.29    0.21 
   4  11 -15    1.65    0.22 
   3  11 -15    6.37    0.40 
   3  11 -15    6.45    0.40 
   2  11 -15    3.35    0.29 
   2  11 -15    3.30    0.30 
   1  11 -15   -0.01    0.14 
   0  11 -15    1.27    0.20 
  -1  11 -15   -0.14    0.13 
  -2  11 -15   -0.14    0.14 
  -3  11 -15    2.07    0.25 
  -4  11 -15    1.74    0.24 
  -5  11 -15    6.16    0.41 
  -6  11 -15    1.95    0.26 
  -7  11 -15    0.76    0.20 
  -8  11 -15    3.14    0.32 
   8  10 -15    0.74    0.21 
   7  10 -15    0.27    0.19 
   6  10 -15    2.60    0.28 
   5  10 -15   -0.03    0.16 
   4  10 -15    3.34    0.28 
   4  10 -15    2.48    0.25 
   3  10 -15    4.90    0.34 
   3  10 -15    5.05    0.34 
   2  10 -15    0.33    0.13 
   2  10 -15    0.21    0.15 
   1  10 -15    0.50    0.17 
   0  10 -15    0.03    0.14 
  -1  10 -15   -0.01    0.14 
  -2  10 -15    0.04    0.14 
  -3  10 -15    0.67    0.18 
  -4  10 -15    9.39    0.50 
  -5  10 -15    0.79    0.18 
   5 -10  15    1.02    0.18 
  -6  10 -15    0.20    0.16 
  -6  10 -15    0.01    0.17 
   6 -10  15   -0.12    0.16 
  -7  10 -15    0.43    0.18 
  -7  10 -15    0.20    0.18 
  -8  10 -15    0.54    0.20 
  -8  10 -15    0.33    0.19 
   9   9 -15   -0.06    0.19 
   8   9 -15    0.01    0.17 
   7   9 -15   -0.12    0.15 
   6   9 -15   15.90    0.73 
   5   9 -15   -0.03    0.15 
   4   9 -15    1.09    0.18 
   4   9 -15    1.50    0.20 
   3   9 -15    1.63    0.20 
   3   9 -15    2.19    0.21 
   2   9 -15    0.13    0.13 
   2   9 -15   -0.01    0.11 
   1   9 -15   29.21    1.16 
   0   9 -15    3.12    0.29 
  -1   9 -15   29.38    1.17 
  -2   9 -15    3.37    0.30 
   2  -9  15    3.51    0.28 
  -3   9 -15    0.57    0.16 
   3  -9  15    0.85    0.16 
  -4   9 -15    2.97    0.27 
   4  -9  15    3.01    0.27 
  -5   9 -15    0.90    0.19 
   5  -9  15    1.44    0.20 
  -6   9 -15    0.04    0.16 
  -6   9 -15   -0.06    0.14 
   6  -9  15   -0.02    0.16 
  -7   9 -15    6.03    0.42 
  -7   9 -15    6.04    0.40 
  -8   9 -15    0.60    0.20 
  -8   9 -15    0.51    0.19 
  -9   9 -15   -0.37    0.17 
  -9   9 -15   -0.03    0.18 
   9   8 -15    0.11    0.18 
   8   8 -15    0.54    0.20 
   7   8 -15    0.85    0.19 
   6   8 -15    1.82    0.23 
   5   8 -15    4.90    0.31 
   5   8 -15    5.38    0.34 
   4   8 -15   -0.10    0.11 
   4   8 -15   -0.01    0.13 
   3   8 -15    1.70    0.19 
   3   8 -15    0.99    0.17 
   2   8 -15    7.43    0.41 
   2   8 -15    8.28    0.41 
   1   8 -15    5.91    0.36 
  -1  -8  15    5.75    0.34 
   0   8 -15    0.43    0.15 
   0  -8  15    0.39    0.13 
  -1   8 -15    5.07    0.33 
   1  -8  15    5.20    0.31 
  -2   8 -15    1.17    0.18 
   2  -8  15    1.12    0.17 
  -3   8 -15    3.60    0.30 
   3  -8  15    3.05    0.27 
  -4   8 -15    0.45    0.16 
   4  -8  15    0.09    0.14 
  -5   8 -15    0.08    0.16 
  -5   8 -15    0.09    0.14 
   5  -8  15    0.39    0.17 
  -6   8 -15    0.10    0.16 
  -6   8 -15    0.01    0.15 
   6  -8  15    0.15    0.16 
  -7   8 -15    0.67    0.19 
  -7   8 -15    0.63    0.19 
  -8   8 -15    0.29    0.19 
  -8   8 -15    0.03    0.18 
  -9   8 -15    5.34    0.42 
  -9   8 -15    5.44    0.40 
  10   7 -15    2.59    0.31 
   9   7 -15    0.27    0.20 
   8   7 -15    0.16    0.17 
   7   7 -15    0.26    0.18 
   6   7 -15    1.71    0.22 
   5   7 -15    0.18    0.15 
   5   7 -15    0.28    0.13 
   4   7 -15    0.74    0.15 
   4   7 -15    0.90    0.16 
  -4  -7  15    1.04    0.17 
   3   7 -15    8.96    0.43 
   3   7 -15    8.06    0.43 
  -3  -7  15    8.70    0.43 
   2   7 -15    0.77    0.14 
   2   7 -15    0.82    0.16 
  -2  -7  15    0.75    0.15 
   1   7 -15    4.75    0.32 
   1   7 -15    4.97    0.28 
  -1  -7  15    4.73    0.31 
   0   7 -15    1.28    0.18 
   0  -7  15    1.27    0.17 
  -1   7 -15    5.21    0.35 
   1  -7  15    5.33    0.32 
  -2   7 -15    0.45    0.15 
   2  -7  15    0.83    0.16 
  -3   7 -15    7.71    0.43 
   3  -7  15    7.79    0.41 
  -4   7 -15    0.31    0.15 
   4  -7  15    0.35    0.16 
  -5   7 -15    0.15    0.16 
  -5   7 -15    0.28    0.16 
   5  -7  15    0.29    0.17 
  -6   7 -15    1.14    0.21 
  -6   7 -15    1.06    0.19 
  -7   7 -15   12.81    0.62 
  -7   7 -15   12.21    0.61 
  -8   7 -15    0.02    0.17 
  -8   7 -15   -0.04    0.18 
  -9   7 -15    0.62    0.22 
  -9   7 -15    0.59    0.20 
  10   6 -15    0.06    0.19 
   9   6 -15   10.34    0.55 
   8   6 -15    1.26    0.22 
   7   6 -15    4.54    0.35 
  -7  -6  15    4.84    0.32 
   6   6 -15    0.62    0.17 
  -6  -6  15    0.71    0.16 
   5   6 -15    9.76    0.48 
   5   6 -15    9.65    0.45 
  -5  -6  15    9.15    0.46 
   4   6 -15    2.93    0.25 
   4   6 -15    3.10    0.24 
  -4  -6  15    2.62    0.25 
   3   6 -15    0.12    0.11 
   3   6 -15    0.07    0.12 
  -3  -6  15   -0.25    0.12 
   2   6 -15    1.45    0.18 
   2   6 -15    1.62    0.16 
  -2  -6  15    1.66    0.19 
   1   6 -15    0.15    0.11 
   1   6 -15    0.20    0.14 
  -1  -6  15    0.22    0.13 
   0   6 -15    0.56    0.15 
   0  -6  15    0.19    0.13 
  -1   6 -15    1.20    0.19 
   1  -6  15    1.54    0.19 
  -2   6 -15    0.87    0.16 
   2  -6  15    0.71    0.15 
  -3   6 -15    3.92    0.29 
   3  -6  15    3.62    0.29 
  -4   6 -15    0.44    0.15 
   4  -6  15    0.71    0.16 
  -5   6 -15   16.51    0.73 
  -5   6 -15   16.13    0.73 
   5  -6  15   16.80    0.73 
  -6   6 -15   -0.15    0.15 
  -6   6 -15   -0.08    0.15 
  -7   6 -15    1.75    0.24 
  -7   6 -15    1.63    0.23 
  -8   6 -15    0.54    0.18 
  -8   6 -15    0.35    0.20 
  -9   6 -15    0.16    0.18 
  -9   6 -15    0.29    0.21 
  11   5 -15    0.64    0.21 
  10   5 -15    0.42    0.19 
 -10  -5  15    0.26    0.17 
   9   5 -15    0.20    0.16 
  -9  -5  15    0.16    0.15 
   8   5 -15    0.23    0.16 
  -8  -5  15    0.18    0.15 
   7   5 -15   15.94    0.72 
  -7  -5  15   16.54    0.71 
   6   5 -15    2.69    0.25 
  -6  -5  15    2.57    0.24 
   5   5 -15    3.07    0.28 
   5   5 -15    3.71    0.26 
  -5  -5  15    3.41    0.27 
   4   5 -15    0.42    0.13 
   4   5 -15    0.30    0.13 
  -4  -5  15    0.41    0.14 
   3   5 -15    2.53    0.22 
   3   5 -15    2.35    0.23 
  -3  -5  15    2.50    0.24 
   2   5 -15    1.60    0.16 
   2   5 -15    1.78    0.19 
  -2  -5  15    1.38    0.19 
   1   5 -15   21.61    0.81 
   1   5 -15   20.80    0.86 
  -1  -5  15   20.52    0.85 
   0   5 -15    0.56    0.16 
   0  -5  15    0.54    0.16 
  -1   5 -15   51.44    1.90 
   1  -5  15   50.63    1.90 
  -2   5 -15   11.70    0.55 
   2  -5  15   11.91    0.54 
  -3   5 -15   -0.20    0.12 
   3  -5  15   -0.17    0.13 
  -4   5 -15    1.18    0.19 
   4  -5  15    1.21    0.19 
  -5   5 -15    0.03    0.14 
  -5   5 -15    0.40    0.16 
   5  -5  15    0.31    0.16 
  -6   5 -15    0.60    0.17 
  -6   5 -15    0.97    0.20 
  -7   5 -15    1.99    0.24 
  -7   5 -15    1.76    0.24 
  -8   5 -15   -0.18    0.17 
  -8   5 -15   -0.01    0.15 
  -9   5 -15    0.24    0.20 
  -9   5 -15    0.12    0.16 
  11   4 -15    1.58    0.25 
 -11  -4  15    1.46    0.24 
  10   4 -15    0.26    0.17 
 -10  -4  15    0.36    0.17 
   9   4 -15    0.40    0.17 
  -9  -4  15    0.62    0.18 
   8   4 -15    7.81    0.45 
  -8  -4  15    7.85    0.43 
   7   4 -15    7.41    0.42 
  -7  -4  15    7.77    0.42 
   6   4 -15   11.36    0.53 
   6   4 -15   10.93    0.49 
  -6  -4  15   10.88    0.52 
   5   4 -15   -0.12    0.10 
   5   4 -15    0.02    0.13 
  -5  -4  15    0.08    0.14 
   4   4 -15    0.08    0.11 
   4   4 -15    0.10    0.12 
  -4  -4  15    0.04    0.14 
   3   4 -15   18.92    0.77 
   3   4 -15   18.97    0.75 
  -3  -4  15   18.79    0.78 
   2   4 -15    0.28    0.11 
   2   4 -15    0.17    0.13 
  -2  -4  15    0.01    0.15 
   1   4 -15   73.23    2.61 
   1   4 -15   71.11    2.54 
  -1  -4  15   70.69    2.61 
   0   4 -15   -0.01    0.12 
   0  -4  15    0.08    0.13 
  -1   4 -15   22.09    0.90 
   1  -4  15   21.65    0.89 
  -2   4 -15    6.09    0.35 
   2  -4  15    5.91    0.37 
  -3   4 -15   10.80    0.51 
   3  -4  15   10.66    0.52 
  -4   4 -15    0.44    0.16 
   4  -4  15    0.16    0.15 
  -5   4 -15    0.61    0.17 
  -5   4 -15    0.66    0.17 
   5  -4  15    0.68    0.19 
  -6   4 -15    0.15    0.14 
  -6   4 -15    0.18    0.17 
   6  -4  15   -0.06    0.15 
  -7   4 -15    0.01    0.14 
  -7   4 -15   -0.04    0.16 
  -8   4 -15    2.62    0.27 
  -8   4 -15    2.92    0.29 
  -9   4 -15    0.94    0.23 
  -9   4 -15    0.90    0.21 
  12   3 -15    0.29    0.19 
 -12  -3  15    0.44    0.20 
  11   3 -15    1.41    0.24 
 -11  -3  15    0.74    0.20 
  10   3 -15   -0.10    0.17 
 -10  -3  15    0.07    0.17 
   9   3 -15    0.76    0.18 
  -9  -3  15    0.72    0.19 
   8   3 -15    0.22    0.15 
  -8  -3  15   -0.04    0.15 
   7   3 -15    0.28    0.16 
  -7  -3  15    0.28    0.16 
   6   3 -15    1.80    0.21 
   6   3 -15    2.02    0.19 
  -6  -3  15    2.10    0.22 
   5   3 -15   -0.18    0.12 
   5   3 -15    0.01    0.10 
  -5  -3  15   -0.12    0.13 
   4   3 -15    0.15    0.12 
   4   3 -15    0.02    0.11 
  -4  -3  15   -0.15    0.14 
   3   3 -15   20.49    0.82 
   3   3 -15   20.13    0.80 
  -3  -3  15   20.55    0.84 
   2   3 -15   24.27    0.97 
   2   3 -15   24.79    0.94 
  -2  -3  15   24.75    0.98 
   1   3 -15    7.17    0.34 
   1   3 -15    7.60    0.40 
  -1  -3  15    7.17    0.39 
   0   3 -15   78.51    2.81 
   0  -3  15   76.25    2.82 
  -1   3 -15   26.45    1.07 
   1  -3  15   27.79    1.08 
  -2   3 -15    1.70    0.20 
   2  -3  15    1.66    0.21 
  -3   3 -15    7.39    0.40 
   3  -3  15    6.78    0.39 
  -4   3 -15    8.18    0.45 
   4  -3  15    8.64    0.45 
  -5   3 -15    0.40    0.16 
  -5   3 -15    0.03    0.16 
   5  -3  15    0.37    0.18 
  -6   3 -15    0.08    0.14 
  -6   3 -15    0.14    0.16 
   6  -3  15   -0.09    0.16 
  -7   3 -15    2.25    0.26 
  -7   3 -15    2.66    0.26 
  -8   3 -15    0.93    0.20 
  -8   3 -15    1.23    0.23 
  -9   3 -15    0.52    0.21 
  -9   3 -15    0.19    0.18 
  12   2 -15    2.75    0.30 
 -12  -2  15    3.16    0.32 
  11   2 -15    0.96    0.21 
 -11  -2  15    0.67    0.21 
  10   2 -15    8.20    0.47 
 -10  -2  15    8.68    0.48 
   9   2 -15    2.55    0.25 
  -9  -2  15    1.97    0.24 
   8   2 -15   -0.26    0.14 
  -8  -2  15    0.06    0.15 
   7   2 -15    2.34    0.23 
  -7  -2  15    2.19    0.23 
   6   2 -15   -0.11    0.13 
   6   2 -15    0.10    0.10 
  -6  -2  15    0.23    0.14 
   5   2 -15    6.63    0.37 
   5   2 -15    6.64    0.33 
  -5  -2  15    6.46    0.38 
   4   2 -15    0.73    0.14 
   4   2 -15    0.77    0.13 
  -4  -2  15    0.62    0.17 
   3   2 -15    8.09    0.40 
   3   2 -15    7.68    0.38 
  -3  -2  15    7.81    0.43 
   2   2 -15   30.21    1.12 
   2   2 -15   30.93    1.16 
  -2  -2  15   29.14    1.17 
   1   2 -15    3.57    0.24 
   1   2 -15    4.32    0.29 
  -1  -2  15    3.56    0.30 
   0   2 -15   -0.14    0.13 
   0  -2  15    0.22    0.14 
  -1   2 -15    0.13    0.13 
   1  -2  15    0.03    0.15 
  -2   2 -15    4.66    0.31 
   2  -2  15    4.58    0.34 
  -3   2 -15    1.91    0.22 
   3  -2  15    1.78    0.21 
  -4   2 -15    0.10    0.13 
   4  -2  15   -0.05    0.14 
  -5   2 -15    4.26    0.32 
   5  -2  15    3.85    0.31 
  -6   2 -15    5.84    0.37 
  -6   2 -15    5.63    0.37 
   6  -2  15    5.56    0.38 
  -7   2 -15    0.57    0.18 
  -7   2 -15    0.55    0.19 
  -8   2 -15    0.39    0.18 
  -8   2 -15    0.53    0.18 
  -9   2 -15   -0.18    0.19 
  12   1 -15   -0.15    0.16 
 -12  -1  15    0.29    0.20 
  11   1 -15    0.98    0.22 
 -11  -1  15    0.83    0.22 
  10   1 -15    0.29    0.18 
 -10  -1  15   -0.08    0.17 
   9   1 -15    0.37    0.16 
  -9  -1  15    0.16    0.17 
   8   1 -15    8.70    0.46 
  -8  -1  15    9.08    0.47 
   7   1 -15    4.30    0.32 
  -7  -1  15    4.29    0.31 
   6   1 -15    0.08    0.14 
  -6  -1  15   -0.09    0.14 
   5   1 -15    0.17    0.11 
   5   1 -15    0.11    0.13 
  -5  -1  15    0.12    0.14 
   4   1 -15    2.84    0.22 
   4   1 -15    2.90    0.21 
  -4  -1  15    2.74    0.25 
   3   1 -15    1.45    0.16 
   3   1 -15    1.30    0.17 
  -3  -1  15    1.23    0.19 
   2   1 -15   28.38    1.06 
   2   1 -15   27.65    1.09 
  -2  -1  15   28.36    1.11 
   1   1 -15    5.03    0.31 
  -1  -1  15    4.91    0.32 
   0   1 -15   46.36    1.76 
   0  -1  15   48.29    1.78 
  -1   1 -15    8.43    0.44 
   1  -1  15    8.22    0.46 
  -2   1 -15   17.61    0.75 
   2  -1  15   17.41    0.76 
  -3   1 -15   10.78    0.52 
   3  -1  15   11.18    0.54 
  -4   1 -15    0.93    0.17 
   4  -1  15    0.67    0.18 
  -5   1 -15    4.85    0.33 
   5  -1  15    4.51    0.35 
  -6   1 -15    3.11    0.29 
  -6   1 -15    3.80    0.30 
   6  -1  15    3.30    0.32 
  -7   1 -15    0.55    0.19 
   7  -1  15    0.41    0.20 
  -8   1 -15   -0.19    0.18 
  -9   1 -15    0.62    0.23 
  12   0 -15    3.48    0.33 
 -12   0  15    2.94    0.31 
  11   0 -15    0.86    0.22 
 -11   0  15    0.91    0.20 
  10   0 -15   10.69    0.54 
 -10   0  15   10.01    0.54 
   9   0 -15   13.11    0.63 
  -9   0  15   12.97    0.62 
   8   0 -15    0.47    0.16 
  -8   0  15    0.64    0.17 
   7   0 -15    7.17    0.41 
  -7   0  15    7.40    0.42 
   6   0 -15    9.10    0.44 
  -6   0  15    8.78    0.46 
   5   0 -15    7.55    0.38 
  -5   0  15    6.54    0.39 
   4   0 -15    2.82    0.23 
  -4   0  15    2.51    0.24 
   3   0 -15    1.17    0.15 
  -3   0  15    1.27    0.20 
   2   0 -15   15.58    0.67 
  -2   0  15   15.78    0.68 
   1   0 -15   27.98    1.08 
  -1   0  15   27.60    1.10 
   0   0 -15    3.30    0.30 
   0   0  15    4.32    0.32 
  -1   0 -15    0.18    0.15 
   1   0  15    0.16    0.14 
  -2   0 -15    0.11    0.13 
   2   0  15    0.09    0.15 
  -3   0 -15   10.04    0.49 
   3   0  15    9.19    0.49 
  -4   0 -15   -0.11    0.13 
   4   0  15    0.25    0.16 
   5   0  15    3.03    0.28 
   6   0  15   -0.06    0.15 
  -7   0 -15    3.93    0.33 
   7   0  15    2.95    0.31 
  -8   0 -15    0.20    0.20 
   8   0  15    0.04    0.20 
  12  -1 -15   -0.03    0.17 
 -12   1  15   -0.05    0.18 
  11  -1 -15    0.38    0.18 
 -11   1  15    0.50    0.19 
  10  -1 -15    0.63    0.20 
 -10   1  15    0.64    0.19 
   9  -1 -15    1.52    0.21 
  -9   1  15    1.43    0.23 
   8  -1 -15    0.67    0.17 
  -8   1  15    0.97    0.20 
   7  -1 -15    0.94    0.18 
  -7   1  15    0.85    0.18 
   6  -1 -15    1.60    0.20 
  -6   1  15    1.46    0.21 
   5  -1 -15    0.24    0.13 
  -5   1  15    0.33    0.16 
   4  -1 -15    0.89    0.15 
  -4   1  15    0.95    0.18 
  -3   1  15    4.29    0.33 
  -2   1  15    2.66    0.25 
  -1   1  15   26.67    1.06 
   0   1  15   20.52    0.85 
   1   1  15   15.10    0.68 
   2   1  15    1.31    0.20 
   3   1  15    6.15    0.39 
   4   1  15    0.17    0.16 
   5   1  15    2.41    0.27 
   6   1  15    3.69    0.35 
   7   1  15   -0.04    0.19 
  -8  -1 -15    3.51    0.35 
   8   1  15    3.33    0.34 
  12  -2 -15   -0.05    0.17 
 -12   2  15    0.03    0.19 
  11  -2 -15    1.82    0.25 
 -11   2  15    1.92    0.26 
  10  -2 -15    0.16    0.17 
 -10   2  15    0.20    0.18 
   9  -2 -15    0.59    0.18 
  -9   2  15    0.70    0.20 
   8  -2 -15    0.80    0.19 
  -8   2  15    1.25    0.22 
   7  -2 -15    0.58    0.15 
  -7   2  15    0.77    0.19 
   6  -2 -15    1.50    0.18 
  -6   2  15    1.43    0.20 
  -5   2  15    0.21    0.15 
  -4   2  15   15.71    0.69 
  -3   2  15    3.14    0.27 
  -2   2  15   -0.10    0.15 
  -1   2  15    5.02    0.35 
   0   2  15    0.80    0.18 
   1   2  15    5.48    0.37 
   2   2  15    1.20    0.21 
   3   2  15    0.18    0.16 
   4   2  15    0.12    0.16 
   5   2  15    2.36    0.27 
   6   2  15    3.52    0.34 
   7   2  15    0.98    0.24 
   8   2  15    0.12    0.21 
  12  -3 -15    0.35    0.19 
 -12   3  15    0.61    0.21 
  11  -3 -15    3.29    0.31 
 -11   3  15    3.08    0.32 
  10  -3 -15    0.00    0.16 
 -10   3  15    0.04    0.16 
   9  -3 -15    4.35    0.34 
  -9   3  15    4.71    0.36 
   8  -3 -15    2.06    0.23 
  -8   3  15    1.97    0.24 
   7  -3 -15   10.51    0.51 
  -7   3  15   10.56    0.53 
  -6   3  15    1.59    0.21 
  -5   3  15    5.81    0.38 
  -4   3  15    0.37    0.17 
  -3   3  15   15.71    0.71 
  -2   3  15    0.54    0.17 
  -1   3  15    0.25    0.15 
   0   3  15    1.33    0.20 
   1   3  15    0.31    0.16 
   2   3  15    1.46    0.22 
   3   3  15    2.76    0.27 
   4   3  15    1.53    0.23 
   5   3  15    1.27    0.23 
   6   3  15    2.95    0.30 
   7   3  15    0.27    0.20 
  12  -4 -15    0.16    0.19 
 -12   4  15   -0.16    0.19 
  11  -4 -15    2.05    0.27 
 -11   4  15    2.26    0.28 
  10  -4 -15   -0.13    0.16 
 -10   4  15   -0.23    0.17 
  -9   4  15    4.96    0.38 
  -8   4  15    5.69    0.38 
  -7   4  15    1.25    0.21 
  -6   4  15    0.52    0.18 
  -5   4  15    2.67    0.27 
  -4   4  15    4.55    0.33 
  -3   4  15    0.11    0.16 
  -2   4  15   10.79    0.53 
  -1   4  15    1.14    0.20 
   0   4  15    1.40    0.21 
   1   4  15    0.01    0.15 
   2   4  15   16.09    0.73 
   3   4  15    1.02    0.22 
   4   4  15    2.65    0.30 
   5   4  15    2.20    0.28 
   6   4  15   -0.02    0.20 
 -12   5  15    0.10    0.19 
 -11   5  15    0.15    0.18 
 -10   5  15    2.03    0.26 
  -9   5  15   -0.02    0.18 
  -8   5  15    0.18    0.18 
  -7   5  15    1.13    0.20 
  -6   5  15    0.02    0.17 
  -5   5  15    1.58    0.22 
  -4   5  15   12.43    0.59 
  -3   5  15    0.48    0.17 
  -2   5  15    2.22    0.25 
  -1   5  15    2.54    0.25 
   0   5  15    2.53    0.26 
   1   5  15    1.24    0.21 
   2   5  15    0.31    0.17 
   3   5  15   -0.11    0.17 
   4   5  15    0.47    0.20 
   5   5  15    0.20    0.21 
   6   5  15    1.33    0.26 
 -11   6  15    0.03    0.19 
 -10   6  15   -0.05    0.19 
  -9   6  15    0.07    0.17 
  -8   6  15    0.08    0.18 
  -7   6  15    1.64    0.22 
  -7   6  15    1.51    0.23 
  -6   6  15    0.38    0.18 
  -5   6  15    1.40    0.23 
  -4   6  15    7.86    0.44 
  -3   6  15    3.11    0.30 
  -2   6  15    0.21    0.17 
  -1   6  15    0.98    0.20 
   0   6  15   -0.12    0.14 
   1   6  15    0.07    0.17 
   2   6  15    1.87    0.24 
   3   6  15    0.75    0.21 
   4   6  15   -0.08    0.18 
   5   6  15   -0.07    0.20 
 -11   7  15   -0.11    0.19 
 -10   7  15    1.49    0.26 
  -9   7  15    0.95    0.22 
  -8   7  15    0.28    0.20 
  -7   7  15    0.72    0.18 
  -7   7  15    0.62    0.20 
  -6   7  15    2.16    0.26 
  -6   7  15    2.36    0.24 
  -5   7  15    1.67    0.24 
  -4   7  15    4.06    0.34 
  -3   7  15    1.08    0.21 
  -2   7  15    3.77    0.33 
  -1   7  15    0.98    0.21 
   0   7  15    1.53    0.22 
   1   7  15    0.52    0.19 
   2   7  15    2.47    0.27 
   3   7  15   -0.05    0.18 
   4   7  15    3.20    0.32 
 -10   8  15    3.47    0.34 
  -9   8  15    2.23    0.29 
  -8   8  15    7.34    0.47 
  -7   8  15   -0.15    0.18 
  -7   8  15   -0.15    0.15 
  -6   8  15    0.77    0.19 
  -6   8  15    0.62    0.19 
  -5   8  15    0.23    0.17 
  -5   8  15    0.43    0.19 
  -4   8  15    0.04    0.17 
  -4   8  15    0.17    0.16 
  -3   8  15    0.35    0.19 
  -2   8  15    0.41    0.19 
  -1   8  15    0.93    0.21 
   0   8  15    0.45    0.19 
   1   8  15    0.31    0.19 
   2   8  15    0.22    0.19 
   3   8  15    0.22    0.20 
  -9   9  15    2.64    0.31 
  -8   9  15    0.94    0.21 
  -8   9  15    0.94    0.24 
  -7   9  15    0.56    0.19 
  -7   9  15    0.31    0.19 
  -6   9  15    1.09    0.21 
  -6   9  15    1.08    0.22 
  -5   9  15    0.25    0.19 
  -5   9  15    0.09    0.17 
  -4   9  15   -0.19    0.17 
  -4   9  15   -0.17    0.15 
  -3   9  15   -0.07    0.16 
  -3   9  15   -0.33    0.17 
  -2   9  15    1.35    0.24 
  -2   9  15    1.45    0.24 
  -1   9  15    0.36    0.20 
  -1   9  15    0.18    0.19 
   0   9  15    8.91    0.50 
   0   9  15    7.97    0.50 
   1   9  15    1.02    0.23 
   1   9  15    0.81    0.24 
   2   9  15    0.10    0.20 
  -8  10  15    0.29    0.21 
  -8  10  15    0.03    0.18 
  -7  10  15   -0.03    0.19 
  -7  10  15    0.04    0.16 
  -6  10  15   -0.19    0.18 
  -6  10  15   -0.02    0.19 
  -5  10  15    0.35    0.20 
  -5  10  15    0.05    0.18 
  -4  10  15    2.22    0.29 
  -4  10  15    2.32    0.28 
  -3  10  15   -0.11    0.18 
  -3  10  15   -0.08    0.17 
  -2  10  15   -0.12    0.19 
  -2  10  15    0.18    0.19 
  -1  10  15    0.91    0.24 
   0  10  15    0.17    0.20 
  -5  11  15    0.56    0.21 
  -4  11  15    1.99    0.28 
  -3  11  15    0.32    0.21 
   1  14 -16    0.01    0.18 
   0  14 -16    0.00    0.17 
  -1  14 -16    1.33    0.24 
  -2  14 -16    0.56    0.20 
  -3  14 -16   -0.16    0.17 
   4  13 -16    1.63    0.25 
   3  13 -16    0.45    0.19 
   2  13 -16   -0.14    0.14 
   1  13 -16   -0.06    0.17 
   0  13 -16    0.47    0.20 
  -1  13 -16    0.46    0.19 
  -2  13 -16    0.11    0.18 
  -3  13 -16   -0.14    0.18 
  -4  13 -16    1.78    0.26 
  -5  13 -16    0.26    0.20 
   5  12 -16    0.70    0.21 
   4  12 -16    0.26    0.17 
   4  12 -16   -0.05    0.16 
   3  12 -16    0.72    0.19 
   2  12 -16    0.14    0.17 
   1  12 -16    9.23    0.52 
   0  12 -16    0.86    0.20 
  -1  12 -16    8.43    0.48 
  -2  12 -16   -0.06    0.17 
  -3  12 -16    0.42    0.19 
  -4  12 -16    2.54    0.28 
  -5  12 -16   -0.09    0.16 
  -6  12 -16    0.14    0.18 
   6  11 -16    0.14    0.19 
   5  11 -16    1.02    0.20 
   4  11 -16   -0.29    0.14 
   4  11 -16    0.35    0.17 
   3  11 -16    3.79    0.33 
   3  11 -16    4.15    0.33 
   2  11 -16    4.23    0.32 
   1  11 -16    0.41    0.16 
   0  11 -16   -0.16    0.14 
  -1  11 -16   -0.09    0.15 
  -2  11 -16    4.08    0.33 
  -3  11 -16    0.89    0.21 
  -4  11 -16    4.24    0.36 
  -5  11 -16   -0.02    0.17 
  -6  11 -16    0.59    0.20 
  -7  11 -16    0.02    0.19 
   7  10 -16    0.51    0.20 
   6  10 -16    0.46    0.19 
   5  10 -16    0.65    0.19 
   4  10 -16    2.49    0.25 
   4  10 -16    1.89    0.23 
   3  10 -16    3.34    0.29 
   3  10 -16    3.07    0.29 
   2  10 -16    0.09    0.13 
   1  10 -16    0.25    0.14 
   0  10 -16    1.60    0.22 
  -1  10 -16   -0.06    0.15 
  -2  10 -16    0.01    0.15 
  -3  10 -16    5.30    0.36 
  -4  10 -16    0.53    0.17 
  -5  10 -16    0.65    0.19 
  -6  10 -16    4.19    0.35 
   6 -10  16    4.83    0.36 
  -7  10 -16    1.54    0.23 
  -7  10 -16    1.41    0.24 
   7 -10  16    1.00    0.23 
  -8  10 -16    0.97    0.22 
  -8  10 -16    1.23    0.24 
   8   9 -16    0.04    0.18 
   7   9 -16    0.28    0.19 
   6   9 -16    4.02    0.35 
   5   9 -16    1.63    0.22 
   4   9 -16    4.79    0.34 
   4   9 -16    5.12    0.35 
   3   9 -16    0.31    0.15 
   3   9 -16    0.27    0.15 
   2   9 -16   -0.06    0.13 
   1   9 -16    1.26    0.20 
   0   9 -16    0.16    0.15 
  -1   9 -16   -0.13    0.13 
  -2   9 -16    2.03    0.23 
   2  -9  16    2.04    0.21 
  -3   9 -16   -0.05    0.14 
   3  -9  16    0.20    0.14 
  -4   9 -16    0.95    0.20 
   4  -9  16    0.87    0.18 
  -5   9 -16    1.92    0.25 
   5  -9  16    2.17    0.24 
  -6   9 -16    0.00    0.16 
   6  -9  16   -0.16    0.16 
  -7   9 -16    1.17    0.22 
  -7   9 -16    1.03    0.21 
   7  -9  16    0.81    0.22 
  -8   9 -16    0.37    0.19 
  -8   9 -16    0.23    0.20 
   9   8 -16   -0.10    0.18 
   8   8 -16    0.76    0.20 
   7   8 -16    4.37    0.37 
   6   8 -16    7.76    0.46 
   5   8 -16    2.10    0.24 
   5   8 -16    2.07    0.21 
   4   8 -16    0.32    0.15 
   4   8 -16    0.50    0.15 
   3   8 -16    2.01    0.20 
   3   8 -16    1.53    0.20 
   2   8 -16    2.80    0.24 
   2   8 -16    2.48    0.24 
   1   8 -16   17.50    0.75 
  -1  -8  16   17.50    0.73 
   0   8 -16    1.90    0.23 
   0  -8  16    1.44    0.19 
  -1   8 -16   20.08    0.87 
   1  -8  16   20.66    0.84 
  -2   8 -16    7.78    0.43 
   2  -8  16    7.77    0.42 
  -3   8 -16    0.04    0.14 
   3  -8  16    0.12    0.14 
  -4   8 -16    6.01    0.38 
   4  -8  16    5.57    0.36 
  -5   8 -16   -0.01    0.15 
   5  -8  16   -0.04    0.15 
  -6   8 -16   -0.09    0.14 
  -6   8 -16    0.09    0.17 
   6  -8  16    0.01    0.17 
  -7   8 -16    1.28    0.23 
  -7   8 -16    1.48    0.24 
   7  -8  16    1.73    0.25 
  -8   8 -16    0.00    0.19 
  -8   8 -16    0.32    0.20 
  10   7 -16    0.00    0.19 
   9   7 -16    0.32    0.20 
   8   7 -16    1.51    0.23 
   7   7 -16    0.04    0.17 
   6   7 -16    0.86    0.18 
   5   7 -16    3.78    0.29 
   5   7 -16    3.78    0.31 
   4   7 -16   -0.08    0.12 
   4   7 -16   -0.05    0.13 
  -4  -7  16   -0.03    0.13 
   3   7 -16    0.31    0.14 
   3   7 -16    0.06    0.12 
  -3  -7  16    0.26    0.14 
   2   7 -16    0.63    0.16 
   2   7 -16    0.75    0.15 
  -2  -7  16    0.79    0.17 
   1   7 -16    9.40    0.47 
  -1  -7  16    9.27    0.45 
   0   7 -16    0.20    0.15 
   0  -7  16    0.15    0.14 
  -1   7 -16    8.81    0.47 
   1  -7  16    8.15    0.43 
  -2   7 -16    1.28    0.19 
   2  -7  16    1.18    0.18 
  -3   7 -16   16.93    0.73 
   3  -7  16   15.98    0.71 
  -4   7 -16    4.41    0.32 
   4  -7  16    4.31    0.31 
  -5   7 -16   -0.12    0.13 
   5  -7  16   -0.28    0.14 
  -6   7 -16   -0.15    0.16 
  -6   7 -16    0.02    0.16 
   6  -7  16   -0.16    0.15 
  -7   7 -16    2.50    0.27 
  -7   7 -16    2.74    0.29 
   7  -7  16    2.65    0.28 
  -8   7 -16    4.13    0.35 
  -8   7 -16    4.42    0.36 
  10   6 -16    4.41    0.39 
   9   6 -16    4.15    0.34 
   8   6 -16   -0.09    0.15 
   7   6 -16    0.91    0.20 
  -7  -6  16    0.73    0.17 
   6   6 -16    0.68    0.18 
  -6  -6  16    0.99    0.17 
   5   6 -16    1.01    0.18 
   5   6 -16    1.06    0.16 
  -5  -6  16    1.15    0.18 
   4   6 -16    1.57    0.18 
   4   6 -16    1.45    0.18 
  -4  -6  16    1.49    0.19 
   3   6 -16    8.19    0.42 
   3   6 -16    8.16    0.41 
  -3  -6  16    8.30    0.42 
   2   6 -16    1.72    0.17 
   2   6 -16    1.38    0.18 
  -2  -6  16    1.48    0.20 
   1   6 -16    2.11    0.22 
  -1  -6  16    1.92    0.21 
   0   6 -16   55.49    2.03 
   0  -6  16   53.63    2.02 
  -1   6 -16    1.01    0.18 
   1  -6  16    0.90    0.17 
  -2   6 -16    0.82    0.18 
   2  -6  16    0.91    0.18 
  -3   6 -16    2.42    0.24 
   3  -6  16    2.15    0.23 
  -4   6 -16   -0.01    0.14 
   4  -6  16   -0.06    0.14 
  -5   6 -16    0.03    0.14 
   5  -6  16    0.01    0.16 
  -6   6 -16    0.40    0.18 
  -6   6 -16    0.24    0.17 
   6  -6  16    0.20    0.18 
  -7   6 -16    3.98    0.33 
  -7   6 -16    3.54    0.33 
   7  -6  16    3.70    0.33 
  -8   6 -16   -0.15    0.18 
  -8   6 -16    0.03    0.18 
  -9   6 -16    0.96    0.22 
  -9   6 -16    0.66    0.22 
  11   5 -16    0.66    0.21 
  10   5 -16    1.05    0.23 
   9   5 -16    2.39    0.28 
  -9  -5  16    3.52    0.31 
   8   5 -16    0.60    0.18 
  -8  -5  16    0.47    0.17 
   7   5 -16    0.85    0.18 
  -7  -5  16    0.88    0.18 
   6   5 -16    1.95    0.22 
  -6  -5  16    1.68    0.21 
   5   5 -16   22.09    0.88 
   5   5 -16   21.31    0.86 
  -5  -5  16   21.59    0.89 
   4   5 -16    5.66    0.32 
   4   5 -16    5.47    0.33 
  -4  -5  16    5.10    0.34 
   3   5 -16    1.54    0.18 
   3   5 -16    2.01    0.19 
  -3  -5  16    1.87    0.21 
   2   5 -16    1.97    0.21 
   2   5 -16    2.42    0.21 
  -2  -5  16    1.43    0.20 
   1   5 -16   -0.01    0.13 
  -1  -5  16   -0.01    0.14 
   0   5 -16    0.12    0.14 
   0  -5  16    0.56    0.16 
  -1   5 -16    0.18    0.14 
   1  -5  16    0.49    0.16 
  -2   5 -16    2.44    0.25 
   2  -5  16    3.29    0.29 
  -3   5 -16    5.31    0.36 
   3  -5  16    5.37    0.35 
  -4   5 -16   -0.30    0.12 
   4  -5  16    0.18    0.15 
  -5   5 -16    5.25    0.35 
   5  -5  16    5.91    0.38 
  -6   5 -16    0.64    0.18 
  -6   5 -16    1.11    0.20 
   6  -5  16    0.85    0.19 
  -7   5 -16    4.76    0.35 
  -7   5 -16    5.17    0.39 
   7  -5  16    4.66    0.39 
  -8   5 -16    0.86    0.21 
  -8   5 -16    1.25    0.24 
  -9   5 -16    2.36    0.31 
  -9   5 -16    2.30    0.28 
  11   4 -16    3.13    0.33 
 -11  -4  16    3.54    0.33 
  10   4 -16   -0.01    0.18 
 -10  -4  16   -0.02    0.17 
   9   4 -16    0.34    0.18 
  -9  -4  16    0.60    0.18 
   8   4 -16    3.04    0.28 
  -8  -4  16    2.62    0.26 
   7   4 -16    6.99    0.41 
  -7  -4  16    6.07    0.39 
   6   4 -16    9.28    0.47 
  -6  -4  16    9.08    0.47 
   5   4 -16    3.50    0.26 
   5   4 -16    3.28    0.26 
  -5  -4  16    3.86    0.30 
   4   4 -16    5.25    0.31 
   4   4 -16    5.47    0.32 
  -4  -4  16    4.91    0.34 
   3   4 -16    2.20    0.21 
   3   4 -16    1.96    0.20 
  -3  -4  16    1.92    0.21 
   2   4 -16    9.83    0.47 
   2   4 -16    9.72    0.43 
  -2  -4  16    9.21    0.48 
   1   4 -16   12.83    0.58 
   1   4 -16   13.77    0.54 
  -1  -4  16   12.39    0.59 
   0   4 -16   39.74    1.48 
   0  -4  16   37.84    1.47 
  -1   4 -16    7.36    0.42 
   1  -4  16    8.22    0.44 
  -2   4 -16   12.41    0.57 
   2  -4  16   12.06    0.57 
  -3   4 -16    9.61    0.48 
   3  -4  16    9.60    0.49 
  -4   4 -16    0.33    0.15 
   4  -4  16    0.23    0.15 
  -5   4 -16    8.62    0.46 
   5  -4  16    8.17    0.46 
  -6   4 -16    0.96    0.21 
  -6   4 -16    0.60    0.19 
   6  -4  16    0.83    0.21 
  -7   4 -16    0.66    0.21 
  -7   4 -16    0.79    0.19 
   7  -4  16    0.67    0.20 
  -8   4 -16    0.63    0.20 
  -8   4 -16    0.88    0.23 
  -9   4 -16    0.04    0.18 
  -9   4 -16    0.15    0.21 
  11   3 -16    0.21    0.20 
 -11  -3  16    0.14    0.17 
  10   3 -16    8.27    0.48 
 -10  -3  16    7.93    0.47 
   9   3 -16   10.70    0.55 
  -9  -3  16   10.35    0.54 
   8   3 -16    3.41    0.29 
  -8  -3  16    2.80    0.27 
   7   3 -16    0.37    0.15 
  -7  -3  16    0.14    0.15 
   6   3 -16    0.49    0.13 
   6   3 -16    0.56    0.15 
  -6  -3  16    0.59    0.17 
   5   3 -16    0.75    0.15 
   5   3 -16    1.08    0.15 
  -5  -3  16    0.92    0.18 
   4   3 -16    1.32    0.17 
   4   3 -16    1.35    0.17 
  -4  -3  16    1.34    0.20 
   3   3 -16    7.81    0.38 
   3   3 -16    7.28    0.38 
  -3  -3  16    7.73    0.41 
   2   3 -16    4.78    0.28 
   2   3 -16    4.76    0.30 
  -2  -3  16    4.40    0.31 
   1   3 -16   16.93    0.66 
   1   3 -16   16.60    0.71 
  -1  -3  16   16.93    0.72 
   0   3 -16    0.88    0.18 
   0  -3  16    1.31    0.19 
  -1   3 -16    6.52    0.39 
   1  -3  16    6.55    0.38 
  -2   3 -16    0.11    0.13 
   2  -3  16    0.37    0.16 
  -3   3 -16    2.15    0.23 
   3  -3  16    2.20    0.23 
  -4   3 -16    1.24    0.19 
   4  -3  16    1.17    0.19 
  -5   3 -16    1.49    0.22 
   5  -3  16    1.39    0.21 
  -6   3 -16    0.12    0.16 
  -6   3 -16    0.18    0.16 
   6  -3  16    0.06    0.18 
  -7   3 -16    1.31    0.23 
  -7   3 -16    1.33    0.22 
   7  -3  16    1.05    0.24 
  -8   3 -16    2.99    0.30 
  -8   3 -16    3.64    0.33 
  -9   3 -16    0.00    0.18 
  12   2 -16    1.66    0.26 
 -12  -2  16    1.76    0.27 
  11   2 -16    0.57    0.20 
 -11  -2  16    0.84    0.22 
  10   2 -16    0.00    0.17 
 -10  -2  16    0.18    0.19 
   9   2 -16    0.62    0.18 
  -9  -2  16    0.66    0.20 
   8   2 -16   -0.32    0.14 
  -8  -2  16    0.05    0.14 
   7   2 -16   -0.13    0.14 
  -7  -2  16    0.07    0.14 
   6   2 -16    0.35    0.13 
   6   2 -16    0.47    0.15 
  -6  -2  16    0.59    0.16 
   5   2 -16    1.31    0.16 
   5   2 -16    1.52    0.19 
  -5  -2  16    1.25    0.20 
   4   2 -16    1.69    0.18 
   4   2 -16    1.74    0.19 
  -4  -2  16    2.03    0.23 
   3   2 -16   -0.09    0.10 
   3   2 -16   -0.12    0.12 
  -3  -2  16    0.06    0.16 
   2   2 -16    0.11    0.11 
   2   2 -16    0.01    0.12 
  -2  -2  16   -0.08    0.14 
   1   2 -16   46.55    1.74 
  -1  -2  16   46.66    1.76 
   0   2 -16    6.93    0.40 
   0  -2  16    6.49    0.39 
  -1   2 -16   59.31    2.21 
   1  -2  16   60.07    2.22 
  -2   2 -16    0.49    0.15 
   2  -2  16    0.23    0.17 
  -3   2 -16    3.53    0.29 
   3  -2  16    2.80    0.27 
  -4   2 -16    2.01    0.23 
   4  -2  16    2.00    0.23 
  -5   2 -16    4.12    0.31 
   5  -2  16    4.76    0.34 
  -6   2 -16    0.45    0.17 
   6  -2  16    0.49    0.18 
  -7   2 -16    1.74    0.24 
  -7   2 -16    1.73    0.24 
   7  -2  16    1.31    0.23 
  -8   2 -16    1.66    0.24 
  -8   2 -16    1.85    0.27 
   8  -2  16    1.57    0.27 
  12   1 -16    0.98    0.22 
 -12  -1  16    1.04    0.24 
  11   1 -16    5.24    0.40 
 -11  -1  16    5.10    0.40 
  10   1 -16    7.43    0.47 
 -10  -1  16    7.95    0.47 
   9   1 -16    7.90    0.47 
  -9  -1  16    8.20    0.47 
   8   1 -16   -0.05    0.15 
  -8  -1  16    0.28    0.17 
   7   1 -16    0.80    0.18 
  -7  -1  16    0.89    0.18 
   6   1 -16    0.78    0.16 
  -6  -1  16    0.39    0.16 
   5   1 -16    9.85    0.47 
  -5  -1  16    9.83    0.51 
   4   1 -16   10.94    0.50 
   4   1 -16   11.01    0.50 
  -4  -1  16   10.90    0.53 
   3   1 -16    0.10    0.11 
   3   1 -16    0.16    0.11 
  -3  -1  16    0.06    0.16 
   2   1 -16    0.08    0.13 
  -2  -1  16   -0.14    0.15 
   1   1 -16   13.41    0.62 
  -1  -1  16   14.45    0.64 
   0   1 -16    2.88    0.27 
   0  -1  16    3.61    0.31 
  -1   1 -16    8.68    0.45 
   1  -1  16    9.05    0.47 
  -2   1 -16    4.88    0.32 
   2  -1  16    5.37    0.36 
  -3   1 -16    4.64    0.33 
   3  -1  16    4.60    0.32 
  -4   1 -16    0.02    0.15 
   4  -1  16   -0.01    0.16 
  -5   1 -16    0.83    0.18 
   5  -1  16    0.91    0.19 
  -6   1 -16    2.01    0.24 
   6  -1  16    2.58    0.27 
  -7   1 -16    0.34    0.19 
   7  -1  16    0.48    0.19 
  -8   1 -16    0.39    0.22 
   8  -1  16    0.16    0.21 
  12   0 -16    0.08    0.20 
 -12   0  16    0.14    0.21 
  11   0 -16    0.17    0.20 
 -11   0  16    0.44    0.21 
  10   0 -16    1.23    0.22 
 -10   0  16    1.50    0.24 
   9   0 -16   10.90    0.56 
  -9   0  16   11.51    0.58 
   8   0 -16    4.10    0.31 
  -8   0  16    3.89    0.34 
   7   0 -16    3.71    0.30 
  -7   0  16    3.49    0.31 
   6   0 -16    1.16    0.17 
  -6   0  16    0.99    0.20 
   5   0 -16   -0.32    0.11 
  -5   0  16   -0.11    0.15 
   4   0 -16    0.54    0.13 
  -4   0  16    0.54    0.18 
  -3   0  16    9.81    0.51 
   2   0 -16   13.84    0.62 
  -2   0  16   14.22    0.65 
   1   0 -16    4.31    0.29 
  -1   0  16    3.54    0.30 
   0   0 -16   28.86    1.14 
   0   0  16   28.87    1.15 
  -1   0 -16    1.59    0.20 
   1   0  16    1.62    0.22 
  -2   0 -16    0.24    0.15 
   2   0  16    0.41    0.16 
  -3   0 -16    7.61    0.43 
   3   0  16    7.27    0.42 
   4   0  16    2.27    0.25 
   5   0  16    3.93    0.32 
   6   0  16    0.65    0.19 
   7   0  16    0.71    0.21 
  -8   0 -16    0.52    0.21 
   8   0  16    0.37    0.22 
  12  -1 -16    0.35    0.21 
 -12   1  16    0.60    0.23 
  11  -1 -16    3.80    0.36 
 -11   1  16    3.79    0.36 
  10  -1 -16    0.74    0.21 
 -10   1  16    0.59    0.21 
   9  -1 -16    6.45    0.40 
  -9   1  16    6.44    0.41 
   8  -1 -16    1.95    0.23 
  -8   1  16    2.02    0.25 
   7  -1 -16    5.98    0.36 
  -7   1  16    5.69    0.37 
   6  -1 -16    2.11    0.22 
  -6   1  16    2.39    0.25 
   5  -1 -16    4.89    0.32 
  -5   1  16    5.21    0.34 
  -4   1  16    1.22    0.21 
  -3   1  16    4.29    0.33 
  -2   1  16    0.02    0.14 
  -1   1  16    0.27    0.15 
   0   1  16    3.62    0.29 
   1   1  16    0.36    0.16 
   2   1  16    0.58    0.17 
   3   1  16    3.93    0.32 
   4   1  16   -0.04    0.16 
   5   1  16    0.39    0.19 
   6   1  16    0.38    0.19 
   7   1  16    4.38    0.39 
  12  -2 -16    0.34    0.21 
 -12   2  16    0.29    0.20 
  11  -2 -16    0.39    0.19 
 -11   2  16    0.52    0.21 
  10  -2 -16   -0.23    0.15 
 -10   2  16    0.07    0.18 
   9  -2 -16    0.35    0.18 
  -9   2  16    0.69    0.19 
   8  -2 -16    1.61    0.22 
  -8   2  16    1.26    0.23 
   7  -2 -16    1.31    0.19 
  -7   2  16    1.10    0.21 
   6  -2 -16    1.35    0.19 
  -6   2  16    1.15    0.21 
  -5   2  16    0.79    0.18 
  -4   2  16    3.15    0.28 
  -3   2  16    2.47    0.26 
  -2   2  16    0.95    0.19 
  -1   2  16    7.61    0.43 
   0   2  16   16.67    0.74 
   1   2  16   11.31    0.56 
   2   2  16    5.17    0.37 
   3   2  16    0.66    0.20 
   4   2  16    0.23    0.18 
   5   2  16    0.14    0.17 
   6   2  16    1.38    0.26 
   7   2  16    0.42    0.22 
  12  -3 -16    1.87    0.27 
 -12   3  16    1.90    0.27 
  11  -3 -16    0.40    0.20 
 -11   3  16    0.78    0.23 
  10  -3 -16   -0.04    0.16 
 -10   3  16    0.30    0.20 
   9  -3 -16    0.15    0.16 
  -9   3  16    0.15    0.18 
   8  -3 -16    0.46    0.17 
  -8   3  16    0.56    0.19 
  -7   3  16    2.08    0.25 
  -6   3  16   -0.11    0.16 
  -5   3  16    3.36    0.31 
  -4   3  16    2.36    0.26 
  -3   3  16    1.64    0.23 
  -2   3  16    0.44    0.17 
  -1   3  16    4.86    0.35 
   0   3  16    0.30    0.17 
   1   3  16    7.04    0.43 
   2   3  16    1.42    0.22 
   3   3  16    1.49    0.24 
   4   3  16   -0.02    0.19 
   5   3  16    0.22    0.19 
   6   3  16    0.63    0.23 
  11  -4 -16    1.25    0.24 
 -11   4  16    1.48    0.25 
 -10   4  16    1.02    0.22 
  -9   4  16    0.32    0.19 
  -8   4  16    0.90    0.20 
  -7   4  16   -0.10    0.15 
  -6   4  16    2.98    0.29 
  -5   4  16    4.70    0.36 
  -4   4  16    4.92    0.35 
  -3   4  16    5.42    0.38 
  -2   4  16    0.48    0.18 
  -1   4  16    2.35    0.25 
   0   4  16    7.38    0.44 
   1   4  16    2.10    0.25 
   2   4  16    0.22    0.17 
   3   4  16    1.22    0.23 
   4   4  16    5.58    0.41 
   5   4  16    1.81    0.28 
   6   4  16    0.13    0.21 
 -11   5  16    0.06    0.20 
 -10   5  16    2.09    0.28 
  -9   5  16    0.17    0.19 
  -8   5  16    3.52    0.34 
  -7   5  16    1.86    0.26 
  -6   5  16    2.40    0.27 
  -5   5  16    0.59    0.18 
  -4   5  16    5.64    0.39 
  -3   5  16    0.57    0.20 
  -2   5  16   15.57    0.72 
  -1   5  16    0.39    0.19 
   0   5  16    0.37    0.18 
   1   5  16    1.85    0.25 
   2   5  16    4.84    0.38 
   3   5  16   -0.25    0.16 
   4   5  16    0.31    0.21 
   5   5  16    1.54    0.27 
 -11   6  16    0.54    0.22 
 -10   6  16    0.69    0.23 
  -9   6  16    2.24    0.29 
  -8   6  16    1.01    0.23 
  -7   6  16    0.57    0.18 
  -7   6  16    0.43    0.18 
  -6   6  16    2.68    0.28 
  -5   6  16    0.60    0.21 
  -4   6  16    0.73    0.21 
  -3   6  16    0.26    0.18 
  -2   6  16    0.12    0.17 
  -1   6  16    0.42    0.19 
   0   6  16    4.80    0.36 
   1   6  16    0.62    0.20 
   2   6  16    2.06    0.26 
   3   6  16    0.07    0.18 
   4   6  16    0.58    0.23 
 -10   7  16   -0.04    0.21 
  -9   7  16    2.29    0.29 
  -8   7  16   -0.13    0.17 
  -7   7  16   -0.17    0.15 
  -7   7  16   -0.24    0.18 
  -6   7  16    1.39    0.24 
  -6   7  16    1.63    0.23 
  -5   7  16    0.20    0.18 
  -4   7  16    2.87    0.29 
  -3   7  16    1.18    0.23 
  -2   7  16    0.19    0.19 
  -1   7  16    0.14    0.17 
   0   7  16    0.06    0.18 
   1   7  16    0.09    0.18 
   2   7  16    0.42    0.20 
   3   7  16   -0.34    0.19 
  -9   8  16    0.80    0.24 
  -8   8  16    0.05    0.20 
  -7   8  16    0.01    0.19 
  -7   8  16    0.10    0.17 
  -6   8  16   -0.20    0.16 
  -6   8  16   -0.02    0.17 
  -5   8  16    1.47    0.23 
  -5   8  16    1.40    0.24 
  -4   8  16    1.12    0.21 
  -4   8  16    0.91    0.22 
  -3   8  16    0.07    0.19 
  -2   8  16    1.98    0.26 
  -1   8  16    0.10    0.19 
   0   8  16    3.88    0.35 
   1   8  16    0.24    0.20 
   2   8  16    0.72    0.22 
  -8   9  16    3.08    0.33 
  -7   9  16    0.05    0.20 
  -7   9  16   -0.14    0.17 
  -6   9  16   -0.13    0.18 
  -6   9  16   -0.37    0.18 
  -5   9  16    0.88    0.21 
  -5   9  16    0.97    0.23 
  -4   9  16    0.32    0.18 
  -4   9  16    0.16    0.19 
  -3   9  16    0.50    0.21 
  -3   9  16    0.13    0.19 
  -2   9  16    0.00    0.19 
  -2   9  16    0.11    0.20 
  -1   9  16    0.45    0.22 
  -1   9  16    0.22    0.20 
   0   9  16    0.07    0.21 
   0   9  16    0.42    0.21 
  -6  10  16    1.82    0.26 
  -6  10  16    1.63    0.27 
  -5  10  16    0.98    0.23 
  -5  10  16    1.01    0.24 
  -4  10  16   -0.08    0.20 
  -4  10  16   -0.25    0.19 
  -3  10  16    0.02    0.18 
  -3  10  16   -0.15    0.19 
  -2  10  16   -0.04    0.20 
  -2  10  16   -0.10    0.21 
   3  13 -17    0.34    0.20 
   2  13 -17    1.63    0.25 
   1  13 -17    2.94    0.31 
   0  13 -17    3.12    0.32 
  -1  13 -17    1.00    0.22 
  -2  13 -17    0.47    0.22 
  -3  13 -17    1.46    0.26 
  -4  13 -17   -0.35    0.18 
   3  12 -17    0.10    0.17 
   2  12 -17    0.16    0.16 
   1  12 -17    1.51    0.24 
   0  12 -17    0.07    0.17 
  -1  12 -17    0.12    0.17 
  -2  12 -17   -0.12    0.17 
  -3  12 -17    0.12    0.18 
  -4  12 -17    1.44    0.24 
  -5  12 -17    0.19    0.19 
   6  11 -17    4.47    0.39 
   5  11 -17   -0.06    0.17 
   4  11 -17   -0.08    0.15 
   4  11 -17    0.37    0.17 
   3  11 -17    1.62    0.23 
   2  11 -17    0.72    0.19 
   1  11 -17    4.09    0.33 
   0  11 -17   -0.15    0.15 
  -1  11 -17    4.93    0.38 
  -2  11 -17    0.15    0.16 
  -3  11 -17    0.52    0.18 
  -4  11 -17    2.48    0.28 
  -5  11 -17    0.10    0.18 
  -6  11 -17    0.50    0.21 
   7  10 -17    0.82    0.22 
   6  10 -17   -0.13    0.17 
   5  10 -17    3.95    0.34 
   4  10 -17    1.10    0.20 
   4  10 -17    1.28    0.20 
   3  10 -17    0.63    0.18 
   2  10 -17    3.85    0.32 
   1  10 -17    0.87    0.18 
   0  10 -17   -0.09    0.14 
  -1  10 -17    1.75    0.24 
  -2  10 -17   10.18    0.53 
  -3  10 -17   19.29    0.85 
  -4  10 -17    0.12    0.18 
  -5  10 -17    0.55    0.20 
  -6  10 -17    0.20    0.20 
  -7  10 -17    0.04    0.18 
   7 -10  17   -0.01    0.18 
   8   9 -17    0.29    0.21 
   7   9 -17    0.92    0.22 
   6   9 -17    1.66    0.24 
   5   9 -17    4.21    0.34 
   4   9 -17    0.62    0.17 
   4   9 -17    0.78    0.18 
   3   9 -17    7.48    0.43 
   3   9 -17    8.01    0.43 
   2   9 -17   -0.03    0.13 
   1   9 -17    0.78    0.18 
   0   9 -17   17.32    0.76 
  -1   9 -17    0.72    0.18 
  -2   9 -17    0.34    0.18 
   2  -9  17    0.49    0.17 
  -3   9 -17    4.17    0.35 
   3  -9  17    4.69    0.35 
  -4   9 -17    0.44    0.18 
   4  -9  17    0.70    0.18 
  -5   9 -17   -0.03    0.16 
   5  -9  17    0.11    0.16 
  -6   9 -17    5.84    0.42 
   6  -9  17    5.78    0.41 
  -7   9 -17    2.46    0.28 
   7  -9  17    1.80    0.27 
   8   8 -17   -0.08    0.17 
   7   8 -17    0.13    0.18 
   6   8 -17    0.34    0.16 
   5   8 -17    1.77    0.23 
   4   8 -17   12.15    0.56 
   4   8 -17   11.50    0.57 
   3   8 -17    0.18    0.14 
   3   8 -17    0.26    0.15 
   2   8 -17    3.70    0.30 
   1   8 -17    3.68    0.29 
  -1  -8  17    3.64    0.30 
   0   8 -17   -0.01    0.15 
   0  -8  17    0.18    0.15 
  -1   8 -17    4.19    0.34 
   1  -8  17    4.40    0.32 
  -2   8 -17    0.19    0.15 
   2  -8  17    0.57    0.16 
  -3   8 -17   -0.03    0.14 
   3  -8  17    0.17    0.16 
  -4   8 -17   -0.01    0.16 
   4  -8  17    0.05    0.15 
  -5   8 -17    2.88    0.29 
   5  -8  17    3.61    0.31 
  -6   8 -17    0.10    0.18 
   6  -8  17    0.05    0.17 
  -7   8 -17    1.63    0.24 
  -7   8 -17    1.36    0.24 
   7  -8  17    1.53    0.25 
  -8   8 -17    3.00    0.31 
  -8   8 -17    2.39    0.29 
   8  -8  17    2.60    0.31 
   9   7 -17    0.40    0.20 
   8   7 -17    0.09    0.18 
   7   7 -17    8.16    0.46 
   6   7 -17   -0.10    0.14 
   5   7 -17    3.72    0.28 
   5   7 -17    3.48    0.31 
   4   7 -17    2.38    0.23 
   4   7 -17    1.96    0.22 
  -4  -7  17    2.56    0.23 
   3   7 -17    0.21    0.13 
   3   7 -17    0.19    0.14 
  -3  -7  17    0.18    0.15 
   2   7 -17    5.91    0.36 
  -2  -7  17    5.81    0.36 
   1   7 -17    2.08    0.23 
  -1  -7  17    2.47    0.23 
   0   7 -17   26.43    1.07 
   0  -7  17   26.54    1.05 
  -1   7 -17    0.59    0.17 
   1  -7  17    0.76    0.17 
  -2   7 -17   14.05    0.65 
   2  -7  17   13.65    0.63 
  -3   7 -17    0.95    0.19 
   3  -7  17    1.12    0.20 
  -4   7 -17    3.18    0.29 
   4  -7  17    3.15    0.30 
  -5   7 -17    3.84    0.32 
   5  -7  17    3.89    0.31 
  -6   7 -17    0.00    0.16 
   6  -7  17    0.07    0.18 
  -7   7 -17   -0.12    0.15 
  -7   7 -17    0.03    0.19 
   7  -7  17   -0.06    0.19 
  -8   7 -17    0.49    0.22 
  -8   7 -17    0.16    0.18 
   8  -7  17    0.06    0.20 
  10   6 -17    1.63    0.25 
   9   6 -17    0.53    0.19 
   8   6 -17    4.62    0.37 
   7   6 -17   -0.12    0.14 
  -7  -6  17    0.12    0.15 
   6   6 -17    0.61    0.18 
  -6  -6  17    0.47    0.17 
   5   6 -17    0.04    0.13 
   5   6 -17    0.20    0.13 
  -5  -6  17    0.25    0.15 
   4   6 -17    0.17    0.13 
   4   6 -17   -0.13    0.11 
  -4  -6  17   -0.03    0.14 
   3   6 -17    4.56    0.31 
   3   6 -17    4.78    0.31 
  -3  -6  17    4.35    0.32 
   2   6 -17    0.87    0.16 
  -2  -6  17    0.36    0.17 
   1   6 -17    2.31    0.24 
  -1  -6  17    2.54    0.23 
   0   6 -17   -0.18    0.14 
   0  -6  17    0.13    0.14 
  -1   6 -17    1.51    0.22 
   1  -6  17    1.34    0.20 
  -2   6 -17    7.52    0.43 
   2  -6  17    7.73    0.43 
  -3   6 -17    6.39    0.38 
   3  -6  17    5.89    0.39 
  -4   6 -17    7.78    0.43 
   4  -6  17    6.84    0.41 
  -5   6 -17    1.35    0.21 
   5  -6  17    2.10    0.25 
  -6   6 -17    4.19    0.34 
   6  -6  17    3.96    0.34 
  -7   6 -17   -0.13    0.16 
  -7   6 -17   -0.04    0.19 
   7  -6  17   -0.18    0.18 
  -8   6 -17    2.77    0.31 
  -8   6 -17    2.92    0.30 
   8  -6  17    2.81    0.32 
  10   5 -17    0.59    0.22 
   9   5 -17    2.32    0.28 
  -9  -5  17    2.46    0.27 
   8   5 -17   -0.10    0.16 
  -8  -5  17    0.14    0.16 
   7   5 -17    2.18    0.25 
  -7  -5  17    2.30    0.24 
   6   5 -17    0.93    0.17 
  -6  -5  17    0.73    0.18 
   5   5 -17    1.74    0.21 
   5   5 -17    1.80    0.19 
  -5  -5  17    1.75    0.22 
   4   5 -17    0.11    0.13 
   4   5 -17   -0.09    0.12 
  -4  -5  17    0.27    0.15 
   3   5 -17    1.40    0.19 
   3   5 -17    1.22    0.17 
  -3  -5  17    1.40    0.20 
   2   5 -17    3.12    0.25 
   2   5 -17    2.95    0.24 
  -2  -5  17    2.90    0.28 
   1   5 -17    0.19    0.15 
  -1  -5  17   -0.17    0.14 
   0   5 -17   29.82    1.15 
   0  -5  17   27.84    1.13 
  -1   5 -17    6.89    0.39 
   1  -5  17    6.50    0.40 
  -2   5 -17    8.38    0.46 
   2  -5  17    8.59    0.46 
  -3   5 -17    1.38    0.21 
   3  -5  17    1.84    0.22 
  -4   5 -17    1.29    0.20 
   4  -5  17    1.11    0.20 
  -5   5 -17    2.65    0.27 
   5  -5  17    2.45    0.27 
  -6   5 -17    0.17    0.18 
   6  -5  17    0.43    0.18 
  -7   5 -17    1.77    0.25 
  -7   5 -17    1.51    0.24 
   7  -5  17    1.90    0.27 
  -8   5 -17    0.08    0.19 
   8  -5  17    0.19    0.20 
  11   4 -17    1.39    0.25 
 -11  -4  17    1.74    0.26 
  10   4 -17    1.02    0.24 
 -10  -4  17    1.23    0.22 
   9   4 -17    4.62    0.36 
  -9  -4  17    5.02    0.37 
   8   4 -17    0.17    0.16 
  -8  -4  17   -0.13    0.16 
   7   4 -17    1.39    0.20 
  -7  -4  17    1.61    0.21 
   6   4 -17    1.40    0.20 
  -6  -4  17    1.71    0.22 
   5   4 -17   14.80    0.66 
   5   4 -17   15.36    0.64 
  -5  -4  17   14.93    0.68 
   4   4 -17    0.70    0.15 
   4   4 -17    0.88    0.15 
  -4  -4  17    0.48    0.17 
   3   4 -17    9.37    0.43 
   3   4 -17    9.54    0.46 
  -3  -4  17    8.44    0.47 
   2   4 -17    1.16    0.15 
   2   4 -17    1.08    0.17 
  -2  -4  17    1.02    0.18 
   1   4 -17    7.19    0.39 
  -1  -4  17    7.47    0.42 
   0   4 -17    0.10    0.14 
   0  -4  17    0.03    0.13 
  -1   4 -17    6.31    0.38 
   1  -4  17    5.69    0.36 
  -2   4 -17    1.90    0.22 
   2  -4  17    2.52    0.24 
  -3   4 -17    0.02    0.15 
   3  -4  17    0.19    0.15 
  -4   4 -17   -0.07    0.15 
   4  -4  17   -0.15    0.14 
  -5   4 -17    1.80    0.24 
   5  -4  17    2.06    0.25 
  -6   4 -17    0.79    0.20 
   6  -4  17    0.73    0.21 
  -7   4 -17   -0.15    0.15 
  -7   4 -17   -0.10    0.19 
   7  -4  17    0.15    0.20 
  -8   4 -17    0.85    0.23 
  -8   4 -17    1.16    0.22 
   8  -4  17    1.00    0.25 
  11   3 -17    0.34    0.20 
 -11  -3  17    0.24    0.20 
  10   3 -17    0.78    0.22 
 -10  -3  17    1.12    0.23 
   9   3 -17    4.28    0.36 
  -9  -3  17    3.59    0.34 
   8   3 -17    8.70    0.48 
  -8  -3  17    8.66    0.49 
   7   3 -17    2.61    0.26 
  -7  -3  17    2.72    0.27 
   6   3 -17    0.11    0.12 
   6   3 -17    0.06    0.14 
  -6  -3  17    0.42    0.17 
   5   3 -17    2.20    0.21 
   5   3 -17    2.24    0.22 
  -5  -3  17    2.58    0.24 
   4   3 -17    3.52    0.27 
   4   3 -17    3.60    0.27 
  -4  -3  17    3.59    0.31 
   3   3 -17    3.59    0.26 
   3   3 -17    3.51    0.27 
  -3  -3  17    3.26    0.28 
   2   3 -17   10.19    0.49 
   2   3 -17    9.99    0.45 
  -2  -3  17    9.97    0.51 
   1   3 -17    2.55    0.24 
  -1  -3  17    2.97    0.29 
   0   3 -17    7.42    0.42 
   0  -3  17    7.34    0.42 
  -1   3 -17   -0.05    0.13 
   1  -3  17    0.01    0.15 
  -2   3 -17    0.13    0.14 
   2  -3  17    0.12    0.15 
  -3   3 -17   16.30    0.72 
   3  -3  17   16.02    0.73 
  -4   3 -17    1.62    0.22 
   4  -3  17    2.06    0.25 
  -5   3 -17    7.66    0.44 
   5  -3  17    6.42    0.42 
  -6   3 -17    1.82    0.24 
   6  -3  17    1.85    0.25 
  -7   3 -17    0.71    0.20 
   7  -3  17    0.83    0.23 
  -8   3 -17    0.01    0.16 
  -8   3 -17   -0.12    0.18 
   8  -3  17    0.12    0.20 
  11   2 -17    5.34    0.42 
 -11  -2  17    5.44    0.39 
  10   2 -17    1.49    0.24 
 -10  -2  17    2.24    0.28 
   9   2 -17   12.87    0.63 
  -9  -2  17   12.70    0.63 
   8   2 -17    0.05    0.16 
  -8  -2  17    0.17    0.17 
   7   2 -17    0.95    0.19 
  -7  -2  17    0.90    0.18 
   6   2 -17   -0.04    0.11 
   6   2 -17    0.13    0.14 
  -6  -2  17   -0.13    0.15 
   5   2 -17    1.91    0.19 
   5   2 -17    1.90    0.21 
  -5  -2  17    1.77    0.22 
   4   2 -17   -0.04    0.12 
   4   2 -17    0.07    0.12 
  -4  -2  17    0.05    0.14 
   3   2 -17    4.13    0.27 
   3   2 -17    3.75    0.28 
  -3  -2  17    3.73    0.32 
   2   2 -17    1.27    0.15 
   2   2 -17    1.66    0.19 
  -2  -2  17    1.42    0.21 
   1   2 -17    0.54    0.16 
  -1  -2  17    0.60    0.17 
   0   2 -17    1.88    0.23 
   0  -2  17    2.24    0.23 
  -1   2 -17    0.20    0.15 
   1  -2  17    0.72    0.17 
  -2   2 -17    1.60    0.21 
   2  -2  17    2.23    0.24 
  -3   2 -17    3.63    0.29 
   3  -2  17    3.41    0.30 
  -4   2 -17    1.49    0.22 
   4  -2  17    1.65    0.24 
  -5   2 -17    0.89    0.19 
   5  -2  17    1.32    0.21 
  -6   2 -17    0.13    0.18 
   6  -2  17    0.26    0.18 
  -7   2 -17    1.60    0.24 
   7  -2  17    1.86    0.26 
  -8   2 -17    0.96    0.25 
   8  -2  17    1.05    0.25 
  11   1 -17    0.06    0.18 
 -11  -1  17    0.10    0.20 
  10   1 -17    0.46    0.19 
 -10  -1  17    0.09    0.18 
   9   1 -17    1.55    0.23 
  -9  -1  17    1.27    0.23 
   8   1 -17   -0.03    0.16 
  -8  -1  17    0.01    0.17 
   7   1 -17    3.97    0.32 
  -7  -1  17    4.32    0.32 
   6   1 -17   -0.13    0.11 
  -6  -1  17   -0.11    0.16 
   5   1 -17    0.06    0.14 
  -5  -1  17    0.08    0.16 
   4   1 -17    4.30    0.28 
   4   1 -17    4.09    0.28 
  -4  -1  17    3.69    0.30 
   3   1 -17    4.92    0.29 
   3   1 -17    4.28    0.31 
  -3  -1  17    5.01    0.34 
   2   1 -17    0.00    0.12 
  -2  -1  17   -0.36    0.15 
   1   1 -17   40.79    1.54 
  -1  -1  17   40.34    1.56 
   0   1 -17   53.27    1.95 
   0  -1  17   50.82    1.96 
  -1   1 -17   28.76    1.15 
   1  -1  17   28.93    1.16 
  -2   1 -17    3.21    0.29 
   2  -1  17    2.49    0.26 
  -3   1 -17    0.35    0.16 
   3  -1  17    0.32    0.18 
  -4   1 -17   -0.11    0.14 
   4  -1  17    0.07    0.15 
  -5   1 -17    0.67    0.18 
   5  -1  17    1.19    0.22 
   6  -1  17    1.72    0.25 
   7  -1  17    3.73    0.34 
  11   0 -17    4.61    0.40 
 -11   0  17    5.00    0.39 
  10   0 -17   -0.26    0.16 
 -10   0  17    0.17    0.18 
   9   0 -17    0.16    0.18 
  -9   0  17    0.21    0.19 
   8   0 -17    1.85    0.23 
  -8   0  17    1.78    0.25 
   7   0 -17    0.01    0.13 
  -7   0  17    0.01    0.17 
   6   0 -17    0.55    0.15 
  -6   0  17    0.84    0.20 
   5   0 -17    9.55    0.47 
  -5   0  17    9.71    0.50 
   4   0 -17    0.88    0.16 
  -4   0  17    0.77    0.19 
  -3   0  17    8.90    0.47 
  -2   0  17    6.17    0.40 
   1   0 -17    1.20    0.18 
  -1   0  17    0.90    0.20 
   0   0 -17    2.16    0.23 
   0   0  17    2.27    0.25 
  -1   0 -17    0.02    0.13 
   1   0  17    0.13    0.15 
   2   0  17    0.63    0.18 
   3   0  17    1.84    0.23 
   4   0  17    1.22    0.21 
   5   0  17    0.62    0.20 
   6   0  17    0.39    0.19 
   7   0  17    0.77    0.22 
  11  -1 -17    0.21    0.20 
 -11   1  17    0.56    0.23 
  10  -1 -17    0.01    0.19 
 -10   1  17    0.20    0.20 
   9  -1 -17    2.62    0.27 
  -9   1  17    2.38    0.27 
   8  -1 -17   -0.14    0.15 
  -8   1  17   -0.18    0.17 
   7  -1 -17    0.08    0.15 
  -7   1  17    0.13    0.18 
   6  -1 -17    4.49    0.31 
  -6   1  17    3.86    0.34 
   5  -1 -17    0.50    0.14 
  -5   1  17    0.54    0.19 
  -4   1  17    0.80    0.19 
  -3   1  17   11.62    0.57 
  -2   1  17   -0.13    0.14 
  -1   1  17    4.08    0.33 
   0   1  17   16.15    0.72 
   1   1  17    0.74    0.19 
   2   1  17    0.37    0.17 
   3   1  17    4.83    0.35 
   4   1  17    1.42    0.23 
   5   1  17    0.45    0.19 
   6   1  17    0.72    0.23 
   7   1  17   -0.18    0.20 
  11  -2 -17   -0.22    0.18 
 -11   2  17    0.20    0.19 
  10  -2 -17    3.84    0.34 
 -10   2  17    4.04    0.37 
   9  -2 -17    2.45    0.26 
  -9   2  17    2.16    0.26 
   8  -2 -17    0.42    0.17 
  -8   2  17    0.37    0.18 
   7  -2 -17    3.45    0.28 
  -7   2  17    3.12    0.30 
  -6   2  17    0.28    0.18 
  -5   2  17    0.94    0.20 
  -4   2  17   -0.08    0.16 
  -3   2  17    9.46    0.50 
  -2   2  17   -0.03    0.15 
  -1   2  17    0.97    0.18 
   0   2  17    0.28    0.17 
   1   2  17    0.17    0.17 
   2   2  17    4.38    0.34 
   3   2  17    0.07    0.18 
   4   2  17    0.66    0.21 
   5   2  17    5.00    0.41 
   6   2  17    2.22    0.29 
  11  -3 -17    2.10    0.27 
 -11   3  17    1.91    0.28 
  10  -3 -17    0.37    0.20 
 -10   3  17    0.63    0.22 
   9  -3 -17   -0.23    0.15 
  -9   3  17   -0.17    0.17 
  -8   3  17   -0.06    0.18 
  -7   3  17    2.30    0.26 
  -6   3  17    0.66    0.20 
  -5   3  17    0.45    0.18 
  -4   3  17   -0.07    0.16 
  -3   3  17    0.09    0.16 
  -2   3  17    1.49    0.22 
  -1   3  17    3.81    0.31 
   0   3  17    4.28    0.35 
   1   3  17    6.30    0.40 
   2   3  17    7.10    0.45 
   3   3  17    0.07    0.19 
   4   3  17    1.63    0.26 
   5   3  17    3.35    0.34 
   6   3  17    0.77    0.24 
 -11   4  17    1.46    0.26 
 -10   4  17    0.34    0.21 
  -9   4  17    1.98    0.27 
  -8   4  17    0.04    0.19 
  -7   4  17    0.83    0.21 
  -6   4  17    4.18    0.36 
  -5   4  17    0.59    0.19 
  -4   4  17    0.47    0.18 
  -3   4  17    0.44    0.19 
  -2   4  17    1.52    0.24 
  -1   4  17    5.46    0.37 
   0   4  17   -0.40    0.15 
   1   4  17    1.67    0.24 
   2   4  17    3.07    0.31 
   3   4  17    2.21    0.28 
   4   4  17    0.18    0.20 
   5   4  17    0.47    0.22 
 -10   5  17    0.44    0.23 
  -9   5  17    0.00    0.18 
  -8   5  17    0.23    0.20 
  -7   5  17    0.11    0.19 
  -6   5  17    0.38    0.20 
  -5   5  17    1.81    0.25 
  -4   5  17    3.28    0.31 
  -3   5  17   -0.14    0.17 
  -2   5  17    1.84    0.24 
  -1   5  17    0.37    0.19 
   0   5  17   -0.01    0.16 
   1   5  17    0.26    0.19 
   2   5  17    0.09    0.18 
   3   5  17    0.15    0.19 
   4   5  17    6.89    0.48 
 -10   6  17    2.77    0.31 
  -9   6  17    0.15    0.21 
  -8   6  17    4.06    0.38 
  -7   6  17    0.23    0.17 
  -7   6  17   -0.20    0.18 
  -6   6  17    0.27    0.19 
  -5   6  17    3.16    0.31 
  -4   6  17    1.39    0.25 
  -3   6  17    0.59    0.20 
  -2   6  17   10.69    0.57 
  -1   6  17    1.83    0.26 
   0   6  17    0.35    0.19 
   1   6  17    0.31    0.19 
   2   6  17    0.52    0.21 
   3   6  17   -0.18    0.19 
  -9   7  17    0.05    0.19 
  -8   7  17    1.66    0.28 
  -7   7  17    0.02    0.16 
  -7   7  17    0.10    0.20 
  -6   7  17    2.23    0.27 
  -6   7  17    2.70    0.28 
  -5   7  17   -0.26    0.18 
  -4   7  17    1.30    0.23 
  -3   7  17    0.12    0.19 
  -2   7  17    0.11    0.20 
  -1   7  17    1.61    0.25 
   0   7  17    2.29    0.28 
   1   7  17    4.78    0.39 
   2   7  17    0.41    0.22 
  -8   8  17    0.12    0.22 
  -7   8  17    0.65    0.21 
  -7   8  17    0.75    0.24 
  -6   8  17    1.84    0.25 
  -6   8  17    1.74    0.27 
  -5   8  17    0.06    0.18 
  -5   8  17    0.25    0.19 
  -4   8  17    0.48    0.20 
  -4   8  17    0.41    0.20 
  -3   8  17   -0.07    0.18 
  -2   8  17    0.10    0.19 
  -1   8  17   -0.12    0.20 
   0   8  17   -0.07    0.20 
   1   8  17    0.24    0.21 
  -7   9  17    0.91    0.25 
  -7   9  17    0.61    0.21 
  -6   9  17    1.00    0.24 
  -6   9  17    0.93    0.24 
  -5   9  17    0.00    0.20 
  -5   9  17    0.36    0.19 
  -4   9  17    1.13    0.24 
  -4   9  17    0.91    0.24 
  -3   9  17    0.62    0.22 
  -3   9  17    0.37    0.22 
  -2   9  17    0.61    0.22 
  -2   9  17    0.73    0.23 
   1  13 -18    0.00    0.17 
   0  13 -18    0.11    0.19 
  -1  13 -18   -0.10    0.17 
  -2  13 -18    2.95    0.31 
   3  12 -18    0.96    0.21 
   2  12 -18    0.09    0.16 
   1  12 -18    1.63    0.25 
   0  12 -18    7.83    0.47 
  -1  12 -18   -0.17    0.16 
  -2  12 -18    3.67    0.36 
  -3  12 -18    2.13    0.27 
  -4  12 -18    0.06    0.17 
   5  11 -18    0.39    0.19 
   3  11 -18    0.29    0.17 
   2  11 -18    0.23    0.17 
   1  11 -18    0.57    0.19 
   0  11 -18    0.03    0.17 
  -1  11 -18   -0.10    0.17 
  -2  11 -18    0.13    0.16 
  -3  11 -18    0.46    0.20 
  -4  11 -18    0.69    0.20 
  -5  11 -18    0.73    0.22 
   6  10 -18    1.40    0.24 
   5  10 -18    0.62    0.19 
   4  10 -18    4.83    0.35 
   3  10 -18    1.34    0.22 
   2  10 -18    1.48    0.23 
   1  10 -18    1.22    0.22 
   0  10 -18    2.07    0.26 
  -1  10 -18    0.87    0.21 
  -2  10 -18    2.94    0.29 
  -3  10 -18   -0.03    0.18 
  -4  10 -18    2.02    0.26 
  -5  10 -18    1.62    0.26 
  -6  10 -18    0.77    0.23 
   7   9 -18    0.82    0.21 
   6   9 -18    1.35    0.23 
   5   9 -18    1.69    0.23 
   4   9 -18    2.79    0.26 
   4   9 -18    2.20    0.25 
   3   9 -18    5.98    0.39 
   2   9 -18   12.77    0.62 
   1   9 -18    1.70    0.22 
   0   9 -18    0.08    0.15 
  -1   9 -18    0.95    0.20 
  -2   9 -18    0.66    0.20 
  -3   9 -18   13.38    0.66 
   3  -9  18   13.80    0.64 
  -4   9 -18    1.94    0.25 
   4  -9  18    1.75    0.24 
  -5   9 -18   -0.03    0.18 
   5  -9  18   -0.05    0.17 
  -6   9 -18    4.86    0.39 
   6  -9  18    4.35    0.38 
   8   8 -18    0.51    0.21 
   7   8 -18   -0.07    0.15 
   6   8 -18    3.71    0.31 
   5   8 -18    1.14    0.20 
   4   8 -18    1.23    0.19 
   4   8 -18    1.55    0.21 
   3   8 -18    6.65    0.40 
   2   8 -18    0.22    0.16 
   1   8 -18    2.51    0.25 
  -1  -8  18    2.03    0.23 
   0   8 -18   15.59    0.72 
   0  -8  18   15.62    0.68 
  -1   8 -18    2.46    0.26 
   1  -8  18    2.32    0.24 
  -2   8 -18   12.12    0.62 
   2  -8  18   13.34    0.61 
  -3   8 -18   -0.10    0.16 
   3  -8  18    0.17    0.16 
  -4   8 -18    2.89    0.29 
   4  -8  18    3.23    0.31 
  -5   8 -18    0.06    0.17 
   5  -8  18   -0.26    0.15 
  -6   8 -18    0.89    0.23 
   6  -8  18    1.08    0.22 
  -7   8 -18    2.41    0.29 
   7  -8  18    2.54    0.29 
   9   7 -18    1.09    0.24 
   8   7 -18    0.54    0.19 
   7   7 -18    0.12    0.17 
   6   7 -18    0.12    0.16 
   5   7 -18    1.06    0.18 
   5   7 -18    1.25    0.20 
   4   7 -18    1.27    0.19 
   4   7 -18    1.32    0.19 
  -4  -7  18    0.87    0.19 
   3   7 -18    1.27    0.19 
  -3  -7  18    0.91    0.19 
   2   7 -18    0.37    0.15 
  -2  -7  18    0.51    0.17 
   1   7 -18    8.17    0.45 
  -1  -7  18    7.45    0.43 
   0   7 -18    0.40    0.16 
   0  -7  18    0.06    0.15 
  -1   7 -18    7.21    0.43 
   1  -7  18    6.68    0.40 
  -2   7 -18    1.79    0.23 
   2  -7  18    1.78    0.22 
  -3   7 -18    2.78    0.28 
   3  -7  18    3.66    0.31 
  -4   7 -18    0.08    0.16 
   4  -7  18   -0.10    0.16 
  -5   7 -18    0.70    0.19 
   5  -7  18    0.58    0.18 
  -6   7 -18    0.42    0.19 
   6  -7  18    0.42    0.21 
  -7   7 -18    0.02    0.18 
   7  -7  18    0.03    0.20 
   9   6 -18    0.57    0.20 
   8   6 -18    0.37    0.19 
   7   6 -18    4.19    0.35 
   6   6 -18   -0.09    0.14 
  -6  -6  18    0.00    0.15 
   5   6 -18    1.12    0.18 
   5   6 -18    1.52    0.21 
  -5  -6  18    1.34    0.21 
   4   6 -18    3.75    0.28 
   4   6 -18    3.68    0.28 
  -4  -6  18    3.23    0.30 
   3   6 -18    1.86    0.22 
   3   6 -18    2.35    0.21 
  -3  -6  18    2.20    0.24 
   2   6 -18    8.65    0.46 
  -2  -6  18    8.72    0.46 
   1   6 -18    0.89    0.18 
  -1  -6  18    1.01    0.19 
   0   6 -18    8.96    0.48 
   0  -6  18    9.16    0.47 
  -1   6 -18    3.34    0.29 
   1  -6  18    2.91    0.29 
  -2   6 -18    7.83    0.44 
   2  -6  18    7.44    0.44 
  -3   6 -18    9.92    0.51 
   3  -6  18    9.60    0.51 
  -4   6 -18    0.06    0.15 
   4  -6  18    0.12    0.17 
  -5   6 -18    5.43    0.37 
   5  -6  18    5.68    0.40 
  -6   6 -18    1.25    0.22 
   6  -6  18    1.54    0.24 
  -7   6 -18    1.33    0.24 
   7  -6  18    1.04    0.24 
  10   5 -18    0.58    0.20 
   9   5 -18    2.32    0.28 
  -9  -5  18    2.26    0.28 
   8   5 -18    2.90    0.29 
  -8  -5  18    3.10    0.29 
   7   5 -18    1.84    0.24 
  -7  -5  18    2.14    0.25 
   6   5 -18    1.08    0.19 
  -6  -5  18    1.01    0.20 
   5   5 -18    0.02    0.14 
   5   5 -18   -0.10    0.12 
  -5  -5  18   -0.08    0.15 
   4   5 -18    6.85    0.38 
   4   5 -18    6.93    0.38 
  -4  -5  18    7.18    0.40 
   3   5 -18    7.67    0.40 
   3   5 -18    7.42    0.41 
  -3  -5  18    7.34    0.43 
   2   5 -18   10.67    0.52 
  -2  -5  18   10.26    0.52 
   1   5 -18    1.55    0.21 
  -1  -5  18    1.86    0.22 
   0   5 -18   -0.16    0.14 
   0  -5  18   -0.02    0.14 
  -1   5 -18    0.14    0.15 
   1  -5  18    0.13    0.16 
  -2   5 -18    0.59    0.18 
   2  -5  18    0.55    0.18 
  -3   5 -18   -0.02    0.14 
   3  -5  18   -0.29    0.16 
  -4   5 -18    1.66    0.23 
   4  -5  18    1.64    0.23 
  -5   5 -18    2.14    0.26 
   5  -5  18    2.80    0.29 
  -6   5 -18    5.35    0.38 
   6  -5  18    5.09    0.40 
  -7   5 -18    0.45    0.20 
   7  -5  18    0.82    0.23 
  10   4 -18    0.17    0.19 
 -10  -4  18    0.28    0.20 
   9   4 -18   -0.05    0.16 
  -9  -4  18    0.09    0.18 
   8   4 -18    0.40    0.18 
  -8  -4  18    0.12    0.18 
   7   4 -18   15.06    0.69 
  -7  -4  18   14.83    0.69 
   6   4 -18    1.47    0.21 
  -6  -4  18    1.51    0.22 
   5   4 -18    1.19    0.18 
   5   4 -18    0.89    0.17 
  -5  -4  18    0.71    0.19 
   4   4 -18    0.09    0.13 
   4   4 -18    0.18    0.13 
  -4  -4  18    0.03    0.16 
   3   4 -18    1.69    0.20 
   3   4 -18    1.77    0.19 
  -3  -4  18    1.60    0.22 
   2   4 -18    7.78    0.43 
  -2  -4  18    7.70    0.44 
   1   4 -18    3.00    0.28 
  -1  -4  18    3.45    0.28 
   0   4 -18   -0.14    0.14 
   0  -4  18   -0.05    0.13 
  -1   4 -18    4.38    0.32 
   1  -4  18    4.90    0.35 
  -2   4 -18    0.06    0.14 
   2  -4  18    0.36    0.16 
  -3   4 -18   -0.01    0.14 
   3  -4  18    0.08    0.17 
  -4   4 -18    0.00    0.15 
   4  -4  18    0.09    0.16 
  -5   4 -18    0.05    0.17 
   5  -4  18   -0.18    0.15 
  -6   4 -18    1.11    0.23 
   6  -4  18    1.10    0.23 
  -7   4 -18    4.38    0.35 
   7  -4  18    4.18    0.39 
  10   3 -18    0.64    0.20 
 -10  -3  18    0.28    0.20 
   9   3 -18    0.21    0.19 
  -9  -3  18    0.03    0.18 
   8   3 -18    1.94    0.24 
  -8  -3  18    1.53    0.24 
   7   3 -18    0.14    0.15 
  -7  -3  18    0.38    0.17 
   6   3 -18    0.05    0.15 
  -6  -3  18   -0.07    0.15 
   5   3 -18   12.73    0.58 
   5   3 -18   12.74    0.58 
  -5  -3  18   13.13    0.62 
   4   3 -18    0.05    0.13 
   4   3 -18    0.20    0.14 
  -4  -3  18   -0.07    0.15 
   3   3 -18    9.82    0.46 
   3   3 -18    9.87    0.49 
  -3  -3  18   10.10    0.50 
   2   3 -18    7.33    0.41 
  -2  -3  18    7.85    0.44 
   1   3 -18    3.59    0.29 
  -1  -3  18    4.26    0.30 
   0   3 -18    0.30    0.15 
   0  -3  18    0.49    0.17 
  -1   3 -18    0.04    0.15 
   1  -3  18    0.07    0.16 
  -2   3 -18    2.11    0.24 
   2  -3  18    1.76    0.23 
  -3   3 -18    0.03    0.14 
   3  -3  18    0.09    0.16 
  -4   3 -18    0.32    0.17 
   4  -3  18    0.41    0.19 
  -5   3 -18    5.94    0.42 
   5  -3  18    6.98    0.44 
  -6   3 -18    1.28    0.23 
   6  -3  18    0.74    0.21 
  -7   3 -18    0.51    0.21 
   7  -3  18    0.86    0.23 
  11   2 -18    1.12    0.25 
 -11  -2  18    1.19    0.25 
  10   2 -18    1.73    0.26 
 -10  -2  18    1.26    0.25 
   9   2 -18    1.89    0.26 
  -9  -2  18    2.29    0.28 
   8   2 -18    0.80    0.20 
  -8  -2  18    0.74    0.21 
   7   2 -18    1.17    0.21 
  -7  -2  18    1.37    0.23 
   6   2 -18    0.42    0.16 
  -6  -2  18    0.36    0.17 
   5   2 -18    0.29    0.13 
   5   2 -18    0.04    0.14 
  -5  -2  18    0.46    0.18 
   4   2 -18    1.93    0.20 
   4   2 -18    1.42    0.18 
  -4  -2  18    1.86    0.23 
   3   2 -18   14.60    0.62 
   3   2 -18   14.55    0.65 
  -3  -2  18   14.93    0.67 
   2   2 -18    0.03    0.12 
  -2  -2  18   -0.06    0.15 
   1   2 -18    1.18    0.18 
  -1  -2  18    1.26    0.21 
   0   2 -18    2.47    0.24 
   0  -2  18    1.78    0.23 
  -1   2 -18    0.45    0.16 
   1  -2  18    0.85    0.19 
  -2   2 -18    1.93    0.23 
   2  -2  18    1.73    0.24 
  -3   2 -18    8.15    0.45 
   3  -2  18    7.90    0.48 
  -4   2 -18    6.75    0.42 
   4  -2  18    7.08    0.44 
  -5   2 -18    0.88    0.21 
   5  -2  18    0.86    0.21 
  -6   2 -18    2.51    0.28 
   6  -2  18    3.02    0.30 
  -7   2 -18    0.12    0.19 
   7  -2  18    0.24    0.19 
  11   1 -18    0.94    0.23 
 -11  -1  18    0.62    0.24 
  10   1 -18    1.36    0.25 
 -10  -1  18    1.37    0.24 
   9   1 -18    5.87    0.42 
  -9  -1  18    5.87    0.42 
   8   1 -18    0.47    0.18 
  -8  -1  18    0.24    0.19 
   7   1 -18    2.73    0.26 
  -7  -1  18    2.83    0.29 
   6   1 -18    0.30    0.16 
  -6  -1  18    0.35    0.18 
   5   1 -18    1.60    0.20 
  -5  -1  18    1.94    0.23 
   4   1 -18    0.29    0.13 
  -4  -1  18    0.27    0.18 
   3   1 -18    1.28    0.19 
  -3  -1  18    1.48    0.22 
   2   1 -18    0.55    0.16 
  -2  -1  18    0.83    0.19 
   1   1 -18    3.69    0.30 
  -1  -1  18    3.34    0.31 
   0   1 -18    1.24    0.19 
   0  -1  18    0.88    0.19 
  -1   1 -18    2.40    0.24 
   1  -1  18    2.46    0.27 
  -2   1 -18   10.78    0.54 
   2  -1  18   10.47    0.55 
  -3   1 -18    2.79    0.28 
   3  -1  18    2.76    0.28 
  -4   1 -18    0.53    0.18 
   4  -1  18    0.61    0.20 
   5  -1  18    2.88    0.30 
   6  -1  18    0.47    0.20 
   7  -1  18    0.49    0.21 
  11   0 -18    3.14    0.33 
 -11   0  18    2.90    0.32 
  10   0 -18    0.09    0.20 
 -10   0  18    0.21    0.19 
   9   0 -18    1.13    0.21 
  -9   0  18    0.90    0.22 
   8   0 -18    0.16    0.16 
  -8   0  18    0.26    0.18 
   7   0 -18    6.02    0.38 
  -7   0  18    6.64    0.43 
   6   0 -18    0.36    0.15 
  -6   0  18    0.26    0.18 
   5   0 -18    2.04    0.21 
  -5   0  18    2.05    0.25 
  -4   0  18    0.83    0.19 
  -3   0  18    1.31    0.22 
  -2   0  18    2.69    0.27 
  -1   0  18    8.44    0.46 
   0   0  18    0.15    0.17 
   1   0  18    9.03    0.50 
   2   0  18    8.38    0.47 
   3   0  18    0.53    0.20 
   4   0  18    3.23    0.32 
   5   0  18    0.33    0.20 
   6   0  18    1.49    0.25 
  11  -1 -18    2.25    0.30 
 -11   1  18    2.16    0.30 
  10  -1 -18    0.46    0.21 
 -10   1  18    0.49    0.22 
   9  -1 -18    0.00    0.18 
  -9   1  18    0.22    0.20 
   8  -1 -18   -0.12    0.14 
  -8   1  18   -0.17    0.16 
   7  -1 -18    0.04    0.14 
  -7   1  18    0.09    0.18 
   6  -1 -18    2.93    0.28 
  -6   1  18    2.54    0.27 
  -5   1  18    2.49    0.26 
  -4   1  18    0.17    0.17 
  -3   1  18    3.52    0.33 
  -2   1  18    0.07    0.15 
  -1   1  18    0.22    0.15 
   0   1  18    0.09    0.15 
   1   1  18    1.16    0.21 
   2   1  18    6.48    0.41 
   3   1  18    0.35    0.19 
   4   1  18    0.01    0.19 
   5   1  18   -0.05    0.19 
   6   1  18    0.77    0.22 
  11  -2 -18    1.68    0.27 
 -11   2  18    1.88    0.29 
  10  -2 -18   -0.10    0.16 
 -10   2  18    0.32    0.22 
   9  -2 -18    0.91    0.20 
  -9   2  18    0.65    0.23 
   8  -2 -18   -0.09    0.16 
  -8   2  18   -0.12    0.18 
  -7   2  18   -0.08    0.16 
  -6   2  18    2.21    0.27 
  -5   2  18    1.81    0.24 
  -4   2  18    1.60    0.24 
  -3   2  18    6.55    0.42 
  -2   2  18    0.76    0.21 
  -1   2  18    0.98    0.20 
   0   2  18    7.27    0.44 
   1   2  18    0.19    0.17 
   2   2  18    1.90    0.25 
   3   2  18    0.71    0.22 
   4   2  18    4.09    0.36 
   5   2  18    0.22    0.21 
  10  -3 -18    1.71    0.27 
 -10   3  18    2.18    0.28 
  -9   3  18   -0.05    0.19 
  -8   3  18    1.63    0.25 
  -7   3  18    0.15    0.17 
  -6   3  18    0.75    0.20 
  -5   3  18    4.39    0.34 
  -4   3  18   -0.20    0.17 
  -3   3  18   -0.28    0.16 
  -2   3  18    9.96    0.53 
  -1   3  18    0.02    0.18 
   0   3  18   -0.34    0.16 
   1   3  18   -0.06    0.16 
   2   3  18    1.58    0.25 
   3   3  18   -0.29    0.19 
   4   3  18    0.14    0.19 
   5   3  18   -0.12    0.19 
 -10   4  18    0.70    0.22 
  -9   4  18    0.27    0.21 
  -8   4  18   -0.05    0.19 
  -7   4  18    0.14    0.19 
  -6   4  18    6.93    0.45 
  -5   4  18    0.36    0.18 
  -4   4  18    1.81    0.25 
  -3   4  18   -0.13    0.16 
  -2   4  18    0.97    0.22 
  -1   4  18    1.63    0.25 
   0   4  18    2.28    0.26 
   1   4  18    0.10    0.19 
   2   4  18    2.53    0.29 
   3   4  18    0.90    0.24 
   4   4  18    0.82    0.23 
 -10   5  18    0.82    0.23 
  -9   5  18    3.19    0.34 
  -8   5  18    0.17    0.20 
  -7   5  18    0.23    0.21 
  -6   5  18    2.56    0.29 
  -5   5  18    0.13    0.18 
  -4   5  18    0.67    0.22 
  -3   5  18    3.73    0.33 
  -2   5  18    2.80    0.29 
  -1   5  18    0.13    0.18 
   0   5  18    0.27    0.20 
   1   5  18    0.25    0.20 
   2   5  18    0.50    0.22 
   3   5  18   -0.28    0.20 
  -9   6  18    1.05    0.26 
  -8   6  18    0.07    0.20 
  -7   6  18    0.05    0.19 
  -6   6  18    0.34    0.21 
  -5   6  18    1.02    0.22 
  -4   6  18    2.83    0.31 
  -3   6  18   -0.27    0.18 
  -2   6  18    0.15    0.20 
  -1   6  18   -0.08    0.18 
   0   6  18    6.83    0.45 
   1   6  18    0.07    0.19 
   2   6  18   -0.18    0.20 
  -8   7  18    1.09    0.26 
  -7   7  18    3.56    0.33 
  -7   7  18    3.78    0.36 
  -6   7  18    0.12    0.18 
  -6   7  18   -0.32    0.20 
  -5   7  18    4.85    0.40 
  -4   7  18    0.33    0.20 
  -3   7  18    0.22    0.20 
  -2   7  18    0.43    0.22 
  -1   7  18   -0.01    0.20 
   0   7  18    0.48    0.22 
   1   7  18   -0.08    0.20 
  -7   8  18   -0.05    0.21 
  -7   8  18    0.14    0.19 
  -6   8  18    1.08    0.26 
  -6   8  18    1.26    0.24 
  -5   8  18   -0.18    0.19 
  -5   8  18   -0.31    0.20 
  -4   8  18    0.75    0.22 
  -3   8  18    0.23    0.22 
  -2   8  18    0.23    0.20 
  -1   8  18    1.67    0.28 
   2  12 -19    4.92    0.37 
   1  12 -19    0.15    0.18 
   0  12 -19    0.18    0.18 
  -1  12 -19    0.12    0.19 
  -2  12 -19    2.03    0.28 
   3  11 -19    2.30    0.27 
   2  11 -19    2.70    0.29 
   1  11 -19    0.05    0.18 
   0  11 -19    8.38    0.51 
  -1  11 -19    0.93    0.21 
  -2  11 -19    6.45    0.45 
  -3  11 -19    0.06    0.18 
  -4  11 -19   -0.03    0.19 
   4  10 -19    2.76    0.28 
   3  10 -19    0.73    0.19 
   2  10 -19   -0.19    0.16 
   1  10 -19   -0.16    0.16 
   0  10 -19    0.25    0.18 
  -1  10 -19    0.01    0.16 
  -2  10 -19    3.75    0.36 
  -3  10 -19    0.44    0.18 
  -4  10 -19   -0.29    0.17 
  -5  10 -19    0.54    0.20 
   6   9 -19    0.22    0.18 
   5   9 -19    0.72    0.19 
   4   9 -19    2.53    0.26 
   3   9 -19    1.18    0.21 
   2   9 -19    7.01    0.42 
   1   9 -19   -0.12    0.16 
   0   9 -19    0.11    0.16 
  -1   9 -19    0.15    0.17 
  -2   9 -19    2.29    0.27 
  -3   9 -19    4.40    0.37 
   3  -9  19    4.61    0.36 
  -4   9 -19    5.07    0.38 
   4  -9  19    4.76    0.38 
  -5   9 -19    8.88    0.54 
   5  -9  19    9.77    0.53 
   7   8 -19    0.05    0.18 
   6   8 -19    1.43    0.23 
   5   8 -19   -0.34    0.14 
   4   8 -19   -0.04    0.15 
   3   8 -19   13.07    0.62 
   2   8 -19    0.36    0.17 
   1   8 -19    3.48    0.32 
   0   8 -19    0.25    0.16 
   0  -8  19    0.05    0.16 
  -1   8 -19    2.24    0.26 
   1  -8  19    2.48    0.25 
  -2   8 -19   -0.18    0.15 
   2  -8  19    0.27    0.17 
  -3   8 -19   -0.25    0.16 
   3  -8  19   -0.18    0.16 
  -4   8 -19    2.12    0.26 
   4  -8  19    1.77    0.26 
  -5   8 -19    0.99    0.23 
   5  -8  19    0.91    0.22 
  -6   8 -19    2.98    0.32 
   6  -8  19    3.38    0.32 
   8   7 -19    4.52    0.39 
   7   7 -19    1.05    0.22 
   6   7 -19    3.97    0.34 
   5   7 -19   -0.10    0.14 
   4   7 -19    0.29    0.16 
   3   7 -19    4.56    0.34 
  -3  -7  19    4.47    0.34 
   2   7 -19   12.16    0.60 
  -2  -7  19   12.64    0.60 
   1   7 -19    0.73    0.18 
  -1  -7  19    0.10    0.17 
   0   7 -19    0.80    0.20 
   0  -7  19    0.84    0.19 
  -1   7 -19    7.31    0.44 
   1  -7  19    7.50    0.43 
   2  -7  19    1.58    0.23 
  -3   7 -19    1.77    0.25 
   3  -7  19    2.16    0.25 
  -4   7 -19    0.74    0.20 
   4  -7  19    1.12    0.22 
  -5   7 -19   -0.01    0.18 
   5  -7  19    0.25    0.19 
  -6   7 -19    0.32    0.20 
   6  -7  19    0.39    0.21 
   8   6 -19    1.49    0.23 
   7   6 -19   -0.06    0.16 
   6   6 -19   -0.06    0.15 
  -6  -6  19   -0.05    0.16 
   5   6 -19    1.55    0.20 
   5   6 -19    1.30    0.19 
  -5  -6  19    1.08    0.21 
   4   6 -19   -0.05    0.13 
   4   6 -19    0.25    0.14 
  -4  -6  19    0.06    0.16 
   3   6 -19   -0.11    0.14 
  -3  -6  19    0.08    0.16 
   2   6 -19    4.60    0.34 
  -2  -6  19    4.96    0.35 
   1   6 -19    2.35    0.25 
  -1  -6  19    3.05    0.29 
   0   6 -19    0.29    0.17 
   0  -6  19    0.17    0.16 
  -1   6 -19   -0.09    0.14 
   1  -6  19    0.34    0.16 
  -2   6 -19    0.13    0.16 
   2  -6  19    0.21    0.17 
  -3   6 -19   -0.07    0.15 
   3  -6  19    0.14    0.17 
  -4   6 -19    0.57    0.18 
   4  -6  19    0.93    0.22 
  -5   6 -19    0.67    0.21 
   5  -6  19    0.86    0.22 
  -6   6 -19    1.31    0.25 
   6  -6  19    1.46    0.24 
   9   5 -19    0.15    0.19 
  -9  -5  19    0.15    0.19 
   8   5 -19    0.13    0.16 
  -8  -5  19   -0.03    0.18 
   7   5 -19    1.30    0.22 
  -7  -5  19    1.42    0.23 
   6   5 -19    1.22    0.20 
  -6  -5  19    1.14    0.21 
   5   5 -19    0.09    0.14 
   5   5 -19    0.07    0.13 
  -5  -5  19    0.05    0.17 
   4   5 -19    2.46    0.23 
   4   5 -19    1.86    0.22 
  -4  -5  19    2.23    0.25 
   3   5 -19    5.67    0.37 
  -3  -5  19    6.00    0.39 
   2   5 -19    7.38    0.42 
  -2  -5  19    7.41    0.44 
   1   5 -19    2.75    0.27 
  -1  -5  19    3.04    0.29 
   0   5 -19    3.78    0.32 
   0  -5  19    4.47    0.31 
  -1   5 -19    0.32    0.16 
   1  -5  19   -0.02    0.15 
  -2   5 -19    1.30    0.21 
   2  -5  19    1.51    0.23 
  -3   5 -19    9.31    0.51 
   3  -5  19    9.43    0.50 
  -4   5 -19    2.68    0.27 
   4  -5  19    1.88    0.25 
  -5   5 -19    1.67    0.25 
   5  -5  19    1.54    0.25 
  -6   5 -19    3.40    0.32 
   6  -5  19    2.63    0.31 
   9   4 -19    6.69    0.43 
  -9  -4  19    6.19    0.43 
   8   4 -19    0.19    0.18 
  -8  -4  19    0.02    0.18 
   7   4 -19    9.02    0.49 
  -7  -4  19    9.24    0.51 
   6   4 -19    0.43    0.17 
  -6  -4  19    0.08    0.17 
   5   4 -19    0.44    0.15 
   5   4 -19    0.42    0.16 
  -5  -4  19    0.37    0.18 
   4   4 -19    8.32    0.42 
   4   4 -19    7.84    0.43 
  -4  -4  19    7.86    0.46 
   3   4 -19   -0.19    0.13 
  -3  -4  19   -0.13    0.15 
   2   4 -19    0.16    0.15 
  -2  -4  19    0.11    0.17 
   1   4 -19    3.81    0.31 
  -1  -4  19    3.76    0.32 
   0   4 -19    0.03    0.15 
   0  -4  19    0.14    0.15 
  -1   4 -19    4.18    0.32 
   1  -4  19    4.36    0.32 
  -2   4 -19   -0.06    0.14 
   2  -4  19    0.09    0.16 
  -3   4 -19    0.61    0.18 
   3  -4  19    0.58    0.19 
  -4   4 -19    0.26    0.18 
   4  -4  19   -0.17    0.17 
  -5   4 -19    4.45    0.37 
   5  -4  19    3.80    0.36 
  -6   4 -19    0.00    0.18 
   6  -4  19   -0.18    0.19 
  10   3 -19    0.01    0.19 
 -10  -3  19   -0.17    0.19 
   9   3 -19    0.63    0.21 
  -9  -3  19    0.66    0.22 
   8   3 -19    0.06    0.18 
  -8  -3  19    0.51    0.21 
   7   3 -19   11.99    0.59 
  -7  -3  19   11.92    0.61 
   6   3 -19    0.24    0.15 
  -6  -3  19    0.06    0.16 
   5   3 -19    4.99    0.33 
   5   3 -19    5.03    0.33 
  -5  -3  19    4.57    0.36 
   4   3 -19    0.34    0.14 
   4   3 -19    0.37    0.15 
  -4  -3  19    0.37    0.17 
   3   3 -19    0.01    0.13 
   3   3 -19   -0.01    0.13 
  -3  -3  19    0.05    0.17 
   2   3 -19   -0.12    0.14 
  -2  -3  19   -0.07    0.16 
   1   3 -19    0.20    0.15 
  -1  -3  19    0.44    0.17 
   0   3 -19    0.56    0.16 
   0  -3  19    0.37    0.17 
  -1   3 -19    1.59    0.23 
   1  -3  19    1.16    0.20 
  -2   3 -19    1.76    0.24 
   2  -3  19    1.71    0.23 
  -3   3 -19   -0.18    0.14 
   3  -3  19    0.05    0.16 
  -4   3 -19    2.03    0.25 
   4  -3  19    2.06    0.27 
  -5   3 -19    1.44    0.24 
   5  -3  19    2.37    0.28 
  -6   3 -19    0.94    0.22 
   6  -3  19    1.06    0.24 
  10   2 -19    0.49    0.20 
 -10  -2  19    0.22    0.21 
   9   2 -19    2.55    0.28 
  -9  -2  19    1.88    0.26 
   8   2 -19    0.03    0.17 
  -8  -2  19    0.00    0.18 
   7   2 -19   -0.03    0.15 
  -7  -2  19   -0.01    0.18 
   6   2 -19    0.23    0.16 
  -6  -2  19    0.30    0.18 
   5   2 -19    4.18    0.29 
   5   2 -19    3.74    0.30 
  -5  -2  19    3.51    0.31 
   4   2 -19    0.07    0.13 
   4   2 -19    0.23    0.13 
  -4  -2  19    0.06    0.17 
   3   2 -19    2.31    0.24 
   3   2 -19    2.86    0.24 
  -3  -2  19    2.99    0.28 
   2   2 -19   -0.18    0.14 
  -2  -2  19    0.07    0.17 
   1   2 -19    0.01    0.15 
  -1  -2  19    0.21    0.17 
   0   2 -19   -0.03    0.15 
   0  -2  19    0.11    0.17 
  -1   2 -19    1.12    0.21 
   1  -2  19    1.37    0.21 
  -2   2 -19    0.13    0.16 
   2  -2  19    0.34    0.19 
  -3   2 -19    1.50    0.22 
   3  -2  19    1.70    0.25 
  -4   2 -19    1.69    0.25 
   4  -2  19    1.43    0.25 
  -5   2 -19   -0.34    0.15 
   5  -2  19    0.08    0.19 
  -6   2 -19    0.32    0.20 
   6  -2  19    0.15    0.20 
  10   1 -19    2.55    0.29 
 -10  -1  19    2.85    0.32 
   9   1 -19   -0.15    0.16 
  -9  -1  19   -0.17    0.19 
   8   1 -19    0.65    0.19 
  -8  -1  19    0.65    0.22 
   7   1 -19    3.73    0.33 
  -7  -1  19    4.13    0.36 
   6   1 -19    0.70    0.18 
  -6  -1  19    0.96    0.22 
   5   1 -19    4.36    0.31 
  -5  -1  19    4.30    0.36 
   4   1 -19    1.36    0.18 
  -4  -1  19    1.22    0.22 
   3   1 -19   20.59    0.85 
  -3  -1  19   19.82    0.87 
   2   1 -19    4.97    0.34 
  -2  -1  19    5.45    0.38 
   1   1 -19    8.49    0.45 
  -1  -1  19    7.74    0.46 
   0   1 -19   16.80    0.74 
   0  -1  19   16.25    0.74 
  -1   1 -19    4.46    0.33 
   1  -1  19    5.23    0.36 
  -2   1 -19    3.28    0.31 
   2  -1  19    3.26    0.31 
  -3   1 -19    3.21    0.30 
   3  -1  19    2.98    0.30 
   4  -1  19    9.91    0.55 
   5  -1  19    0.24    0.20 
   6  -1  19    3.48    0.35 
  10   0 -19    4.20    0.38 
 -10   0  19    3.92    0.37 
   9   0 -19    0.15    0.19 
  -9   0  19   -0.10    0.19 
   8   0 -19    4.28    0.35 
  -8   0  19    3.65    0.34 
   7   0 -19    0.11    0.16 
  -7   0  19    0.11    0.19 
   6   0 -19    1.16    0.19 
  -6   0  19    1.49    0.24 
   5   0 -19    2.35    0.24 
  -5   0  19    2.10    0.26 
  -4   0  19    0.16    0.19 
  -3   0  19    2.33    0.27 
  -2   0  19   16.35    0.75 
  -1   0  19    1.88    0.24 
   0   0  19   -0.09    0.17 
   1   0  19    5.27    0.37 
   2   0  19    9.25    0.51 
   3   0  19    0.24    0.20 
   4   0  19    2.59    0.30 
   5   0  19    0.44    0.21 
  10  -1 -19    1.81    0.27 
 -10   1  19    2.11    0.29 
   9  -1 -19   -0.14    0.17 
  -9   1  19   -0.11    0.18 
   8  -1 -19    0.26    0.18 
  -8   1  19    0.55    0.20 
   7  -1 -19    1.29    0.22 
  -7   1  19    1.81    0.26 
  -6   1  19    1.31    0.23 
  -5   1  19    5.43    0.38 
  -4   1  19    1.45    0.24 
  -3   1  19   -0.23    0.17 
  -2   1  19    1.74    0.25 
  -1   1  19    0.02    0.16 
   0   1  19    0.68    0.19 
   1   1  19    0.43    0.19 
   2   1  19    0.44    0.20 
   3   1  19    0.64    0.22 
   4   1  19   -0.08    0.18 
   5   1  19    0.16    0.20 
  10  -2 -19    1.22    0.23 
 -10   2  19    1.10    0.25 
   9  -2 -19    0.07    0.18 
  -9   2  19   -0.03    0.20 
  -8   2  19    0.09    0.20 
  -7   2  19    0.09    0.19 
  -6   2  19    0.73    0.20 
  -5   2  19    1.69    0.24 
  -4   2  19    2.10    0.26 
  -3   2  19   -0.15    0.16 
  -2   2  19    3.20    0.31 
  -1   2  19    0.51    0.19 
   0   2  19    0.25    0.19 
   1   2  19    0.12    0.18 
   2   2  19    4.74    0.39 
   3   2  19    0.35    0.22 
   4   2  19    2.13    0.30 
 -10   3  19    2.25    0.31 
  -9   3  19    2.21    0.29 
  -8   3  19    0.39    0.21 
  -7   3  19    0.00    0.19 
  -6   3  19   -0.22    0.18 
  -5   3  19    0.31    0.19 
  -4   3  19    0.58    0.20 
  -3   3  19    2.16    0.27 
  -2   3  19    7.11    0.44 
  -1   3  19    0.47    0.19 
   0   3  19    1.02    0.23 
   1   3  19    0.12    0.19 
   2   3  19    7.12    0.46 
   3   3  19    0.55    0.22 
   4   3  19    1.48    0.27 
  -9   4  19    0.05    0.20 
  -8   4  19    0.82    0.24 
  -7   4  19    7.39    0.47 
  -6   4  19    0.05    0.20 
  -5   4  19    4.15    0.35 
  -4   4  19    0.62    0.22 
  -3   4  19    0.60    0.21 
  -2   4  19    1.09    0.23 
  -1   4  19    0.39    0.19 
   0   4  19   -0.02    0.17 
   1   4  19   -0.09    0.17 
   2   4  19   -0.06    0.20 
   3   4  19    0.00    0.20 
  -9   5  19    0.06    0.22 
  -8   5  19    1.64    0.28 
  -7   5  19   -0.09    0.19 
  -6   5  19    1.94    0.29 
  -5   5  19    2.16    0.28 
  -4   5  19    0.98    0.23 
  -3   5  19    0.56    0.21 
  -2   5  19    0.74    0.22 
  -1   5  19    0.37    0.22 
   0   5  19    0.53    0.22 
   1   5  19    0.51    0.21 
   2   5  19    0.19    0.21 
  -8   6  19    0.20    0.23 
  -7   6  19    0.86    0.25 
  -6   6  19    0.03    0.20 
  -5   6  19    1.21    0.25 
  -4   6  19    0.17    0.20 
  -3   6  19    0.00    0.21 
  -2   6  19    0.16    0.21 
  -1   6  19    0.06    0.21 
   0   6  19    0.46    0.23 
  -6   7  19    0.77    0.24 
  -6   7  19    0.91    0.22 
  -5   7  19    2.62    0.31 
  -4   7  19    2.99    0.33 
  -3   7  19    0.64    0.24 
  -2   7  19    0.41    0.23 
  -1   7  19    0.38    0.23 
   2  11 -20    2.46    0.29 
   1  11 -20    1.28    0.23 
   0  11 -20    0.39    0.19 
  -1  11 -20    1.73    0.26 
  -2  11 -20    0.16    0.19 
   3  10 -20    0.92    0.21 
   2  10 -20    5.82    0.41 
   1  10 -20    0.49    0.19 
   0  10 -20    3.05    0.31 
  -1  10 -20    1.38    0.24 
  -2  10 -20    0.31    0.19 
  -3  10 -20    8.40    0.52 
   4   9 -20    1.89    0.24 
   3   9 -20    0.01    0.16 
   2   9 -20    4.95    0.37 
   1   9 -20    0.47    0.19 
   0   9 -20    0.18    0.18 
  -1   9 -20    0.27    0.17 
  -2   9 -20    0.53    0.20 
  -3   9 -20    1.35    0.24 
  -4   9 -20    0.08    0.18 
   4  -9  20    0.13    0.19 
   6   8 -20    0.05    0.17 
   4   8 -20    0.73    0.19 
   3   8 -20    1.99    0.24 
   2   8 -20    4.59    0.36 
   1   8 -20    0.10    0.17 
   0   8 -20    0.39    0.18 
   0  -8  20    0.66    0.19 
  -1   8 -20    1.20    0.22 
   1  -8  20    1.03    0.21 
  -2   8 -20    0.29    0.18 
   2  -8  20    0.38    0.18 
  -3   8 -20    8.41    0.52 
   3  -8  20    9.59    0.52 
  -4   8 -20    0.68    0.20 
   4  -8  20    0.55    0.22 
  -5   8 -20    6.29    0.46 
   5  -8  20    6.90    0.47 
   7   7 -20    0.74    0.21 
   6   7 -20    0.05    0.17 
   4   7 -20    1.25    0.21 
   3   7 -20    0.53    0.18 
  -3  -7  20    0.85    0.20 
   2   7 -20   -0.06    0.14 
  -2  -7  20   -0.06    0.16 
   1   7 -20    5.50    0.38 
  -1  -7  20    5.59    0.38 
   0   7 -20    0.04    0.16 
   0  -7  20    0.14    0.16 
  -1   7 -20    0.93    0.20 
   1  -7  20    0.88    0.20 
  -2   7 -20    0.03    0.17 
   2  -7  20   -0.14    0.16 
  -3   7 -20   -0.17    0.15 
   3  -7  20   -0.08    0.18 
  -4   7 -20    0.35    0.18 
   4  -7  20    0.02    0.19 
  -5   7 -20    1.60    0.26 
   5  -7  20    1.70    0.26 
   8   6 -20    0.75    0.22 
   7   6 -20    3.67    0.34 
   6   6 -20    5.75    0.39 
  -6  -6  20    5.35    0.39 
   5   6 -20    1.66    0.22 
  -5  -6  20    1.15    0.22 
   4   6 -20    1.63    0.21 
  -4  -6  20    1.79    0.23 
   3   6 -20   -0.34    0.14 
  -3  -6  20   -0.11    0.16 
   2   6 -20    2.31    0.24 
  -2  -6  20    1.92    0.25 
   1   6 -20    6.48    0.41 
  -1  -6  20    6.39    0.41 
   0   6 -20    4.44    0.34 
   0  -6  20    4.16    0.34 
  -1   6 -20   14.12    0.67 
   1  -6  20   14.10    0.66 
  -2   6 -20   -0.18    0.14 
   2  -6  20    0.14    0.17 
  -3   6 -20    0.07    0.17 
   3  -6  20    0.34    0.19 
  -4   6 -20    3.29    0.32 
   4  -6  20    2.90    0.30 
  -5   6 -20    0.91    0.22 
   5  -6  20    1.23    0.23 
   8   5 -20    1.67    0.26 
  -8  -5  20    1.19    0.24 
   7   5 -20   -0.27    0.15 
  -7  -5  20    0.03    0.19 
   6   5 -20    0.20    0.17 
  -6  -5  20    0.34    0.19 
   5   5 -20    2.21    0.25 
   5   5 -20    2.37    0.24 
  -5  -5  20    2.20    0.26 
   4   5 -20   -0.16    0.14 
  -4  -5  20   -0.11    0.16 
   3   5 -20    0.21    0.16 
  -3  -5  20    0.28    0.18 
   2   5 -20    0.19    0.17 
  -2  -5  20    0.44    0.18 
   1   5 -20   -0.24    0.14 
  -1  -5  20   -0.02    0.16 
   0   5 -20    0.11    0.16 
   0  -5  20   -0.09    0.15 
  -1   5 -20    0.22    0.17 
   1  -5  20    0.48    0.18 
  -2   5 -20   -0.01    0.15 
   2  -5  20   -0.08    0.17 
  -3   5 -20    0.07    0.17 
   3  -5  20    0.26    0.18 
  -4   5 -20   -0.07    0.18 
   4  -5  20    0.15    0.19 
  -5   5 -20    0.23    0.20 
   5  -5  20    0.30    0.19 
   9   4 -20    0.85    0.21 
  -9  -4  20    0.35    0.21 
   8   4 -20    0.51    0.19 
  -8  -4  20    1.07    0.22 
   7   4 -20    0.02    0.17 
  -7  -4  20    0.27    0.19 
   6   4 -20    0.69    0.19 
  -6  -4  20    0.88    0.22 
   5   4 -20    2.28    0.23 
   5   4 -20    2.46    0.24 
  -5  -4  20    2.15    0.26 
   4   4 -20    0.70    0.18 
  -4  -4  20    0.57    0.20 
   3   4 -20   14.07    0.66 
  -3  -4  20   14.95    0.69 
   2   4 -20    0.63    0.18 
  -2  -4  20    0.65    0.20 
   1   4 -20    2.29    0.24 
  -1  -4  20    2.21    0.25 
   0   4 -20    1.08    0.19 
   0  -4  20    0.82    0.19 
  -1   4 -20    0.93    0.20 
   1  -4  20    0.99    0.21 
  -2   4 -20   -0.13    0.14 
   2  -4  20   -0.17    0.16 
  -3   4 -20    4.19    0.35 
   3  -4  20    3.81    0.34 
  -4   4 -20    1.62    0.26 
   4  -4  20    1.59    0.25 
  -5   4 -20    0.32    0.19 
   5  -4  20    0.21    0.20 
   9   3 -20    2.35    0.29 
  -9  -3  20    2.28    0.29 
   8   3 -20    4.42    0.37 
  -8  -3  20    4.93    0.40 
   7   3 -20    3.00    0.29 
  -7  -3  20    3.39    0.32 
   6   3 -20    6.53    0.40 
  -6  -3  20    6.04    0.43 
   5   3 -20    1.00    0.18 
   5   3 -20    0.85    0.19 
  -5  -3  20    1.06    0.21 
   4   3 -20    1.31    0.19 
   4   3 -20    1.63    0.21 
  -4  -3  20    1.31    0.22 
   3   3 -20    0.86    0.18 
  -3  -3  20    1.12    0.21 
   2   3 -20   -0.02    0.15 
  -2  -3  20   -0.02    0.17 
   1   3 -20    3.20    0.29 
  -1  -3  20    2.43    0.27 
   0   3 -20    0.07    0.16 
   0  -3  20    0.11    0.17 
  -1   3 -20    1.53    0.23 
   1  -3  20    1.67    0.24 
  -2   3 -20    0.03    0.17 
   2  -3  20    0.07    0.17 
  -3   3 -20    0.03    0.16 
   3  -3  20   -0.06    0.18 
  -4   3 -20    0.74    0.20 
   4  -3  20    0.90    0.23 
  -5   3 -20    0.64    0.21 
   5  -3  20    0.91    0.23 
   9   2 -20    0.56    0.20 
  -9  -2  20    0.58    0.23 
   8   2 -20    0.18    0.19 
  -8  -2  20    0.34    0.20 
   7   2 -20    2.13    0.26 
  -7  -2  20    2.84    0.30 
   6   2 -20    0.03    0.16 
  -6  -2  20   -0.24    0.18 
   5   2 -20    4.69    0.33 
  -5  -2  20    4.85    0.38 
   4   2 -20    0.80    0.17 
   4   2 -20    0.84    0.18 
  -4  -2  20    0.82    0.20 
   3   2 -20    0.27    0.15 
  -3  -2  20    0.11    0.16 
   2   2 -20    1.79    0.23 
  -2  -2  20    1.88    0.24 
   1   2 -20    0.15    0.16 
  -1  -2  20    0.05    0.16 
   0   2 -20    0.57    0.18 
   0  -2  20    0.83    0.20 
  -1   2 -20    0.23    0.17 
   1  -2  20    0.18    0.18 
  -2   2 -20    3.17    0.30 
   2  -2  20    2.58    0.30 
  -3   2 -20    2.62    0.29 
   3  -2  20    2.38    0.29 
  -4   2 -20    3.28    0.32 
   4  -2  20    2.81    0.32 
  -5   2 -20    0.75    0.22 
   5  -2  20    1.00    0.24 
   9   1 -20    1.17    0.24 
  -9  -1  20    1.07    0.25 
   8   1 -20    0.20    0.19 
  -8  -1  20    0.77    0.22 
   7   1 -20   -0.05    0.16 
  -7  -1  20    0.32    0.20 
   6   1 -20   -0.04    0.15 
  -6  -1  20   -0.16    0.17 
   5   1 -20    6.88    0.40 
  -5  -1  20    7.12    0.45 
  -4  -1  20    1.90    0.25 
  -3  -1  20    0.10    0.18 
  -2  -1  20    0.66    0.20 
   1   1 -20    1.01    0.20 
  -1  -1  20    0.98    0.21 
   0   1 -20    0.44    0.17 
   0  -1  20    0.10    0.17 
  -1   1 -20    0.50    0.17 
   1  -1  20    0.29    0.19 
  -2   1 -20    0.50    0.18 
   2  -1  20    0.37    0.21 
   3  -1  20    1.63    0.25 
   4  -1  20    0.18    0.21 
   5  -1  20    0.28    0.22 
   9   0 -20    1.80    0.27 
  -9   0  20    2.34    0.30 
   8   0 -20   -0.04    0.17 
  -8   0  20    0.01    0.18 
   7   0 -20    1.18    0.21 
  -7   0  20    0.92    0.24 
   6   0 -20    0.53    0.18 
  -6   0  20    0.32    0.21 
  -5   0  20    0.06    0.17 
  -4   0  20    5.35    0.38 
  -3   0  20    8.50    0.50 
  -2   0  20   11.01    0.57 
  -1   0  20    2.16    0.27 
   0   0  20    6.36    0.41 
   1   0  20    0.23    0.19 
   2   0  20    8.88    0.52 
   3   0  20   -0.01    0.20 
   4   0  20    6.74    0.46 
   9  -1 -20    0.74    0.21 
  -9   1  20    1.00    0.24 
   8  -1 -20    3.94    0.35 
  -8   1  20    3.83    0.36 
  -7   1  20    2.24    0.28 
  -6   1  20    1.24    0.24 
  -5   1  20    2.45    0.28 
  -4   1  20    0.45    0.20 
  -3   1  20   -0.19    0.16 
  -2   1  20    7.42    0.47 
  -1   1  20    4.95    0.39 
   0   1  20   -0.15    0.16 
   1   1  20    2.05    0.26 
   2   1  20    0.11    0.20 
   3   1  20    0.07    0.21 
   4   1  20   -0.12    0.19 
  -9   2  20    0.43    0.24 
  -8   2  20    0.73    0.24 
  -7   2  20    1.37    0.24 
  -6   2  20    2.74    0.30 
  -5   2  20    0.15    0.18 
  -4   2  20    3.13    0.32 
  -3   2  20   -0.18    0.17 
  -2   2  20    0.30    0.19 
  -1   2  20    0.90    0.21 
   0   2  20   -0.09    0.18 
   1   2  20    0.35    0.21 
   2   2  20    0.47    0.22 
   3   2  20    7.59    0.51 
  -9   3  20    1.19    0.26 
  -8   3  20    0.11    0.21 
  -7   3  20    0.69    0.22 
  -6   3  20   -0.27    0.19 
  -5   3  20    0.08    0.18 
  -4   3  20    0.16    0.20 
  -3   3  20   -0.22    0.16 
  -2   3  20    0.85    0.23 
  -1   3  20    0.15    0.20 
   0   3  20   -0.22    0.19 
   1   3  20    0.15    0.19 
   2   3  20    0.22    0.21 
  -8   4  20    0.79    0.24 
  -7   4  20    0.53    0.23 
  -6   4  20    0.04    0.19 
  -5   4  20    0.82    0.23 
  -4   4  20    1.33    0.26 
  -3   4  20    0.10    0.19 
  -2   4  20    7.15    0.46 
  -1   4  20    0.31    0.22 
   0   4  20    0.09    0.20 
   1   4  20   -0.01    0.20 
  -7   5  20    1.11    0.27 
  -6   5  20    1.20    0.27 
  -5   5  20    8.24    0.53 
  -4   5  20    0.62    0.24 
  -3   5  20    0.76    0.24 
  -2   5  20    0.12    0.21 
  -1   5  20    0.19    0.20 
   0   5  20   -0.06    0.20 
  -6   6  20    1.38    0.27 
  -5   6  20    3.96    0.37 
  -4   6  20    1.73    0.30 
  -3   6  20    2.63    0.32 
  -2   6  20    0.04    0.22 
   2  10 -21   -0.07    0.16 
   1  10 -21    3.37    0.33 
   0  10 -21   -0.04    0.18 
  -1  10 -21    1.61    0.25 
   3   9 -21    0.82    0.21 
   2   9 -21    0.29    0.18 
   1   9 -21    0.02    0.18 
   0   9 -21    2.66    0.29 
  -1   9 -21    1.90    0.27 
  -2   9 -21    0.23    0.20 
  -3   9 -21    1.76    0.27 
   4   8 -21    0.19    0.17 
   3   8 -21   -0.10    0.16 
   2   8 -21    0.23    0.17 
   1   8 -21    0.40    0.19 
   0   8 -21   -0.32    0.16 
  -1   8 -21    0.24    0.18 
   1  -8  21    0.09    0.18 
  -2   8 -21    0.20    0.18 
   2  -8  21    0.39    0.20 
  -3   8 -21    0.81    0.23 
   3  -8  21    0.61    0.22 
   4   7 -21    2.26    0.26 
   3   7 -21    9.83    0.53 
  -3  -7  21   10.09    0.54 
   2   7 -21    0.34    0.18 
  -2  -7  21    0.55    0.19 
   1   7 -21    0.03    0.17 
  -1  -7  21    0.00    0.18 
   0   7 -21    0.25    0.18 
   0  -7  21    0.18    0.18 
  -1   7 -21    0.09    0.18 
   1  -7  21    0.31    0.19 
  -2   7 -21    0.18    0.18 
   2  -7  21    0.01    0.18 
  -3   7 -21    4.45    0.36 
   3  -7  21    4.96    0.40 
  -4   7 -21    0.03    0.19 
   4  -7  21    0.17    0.19 
   7   6 -21    0.90    0.22 
   6   6 -21    4.23    0.35 
  -5  -6  21    0.28    0.20 
   4   6 -21    2.20    0.25 
  -4  -6  21    2.47    0.28 
   3   6 -21    0.56    0.19 
  -3  -6  21    0.66    0.20 
   2   6 -21    0.11    0.15 
  -2  -6  21    0.06    0.17 
   1   6 -21    3.70    0.33 
  -1  -6  21    3.17    0.30 
   0   6 -21    0.10    0.16 
   0  -6  21   -0.09    0.17 
  -1   6 -21   -0.30    0.16 
   1  -6  21    0.00    0.17 
  -2   6 -21    0.11    0.18 
   2  -6  21   -0.11    0.16 
  -3   6 -21    0.54    0.20 
   3  -6  21    0.94    0.23 
  -4   6 -21    0.32    0.19 
   4  -6  21    0.34    0.21 
  -7  -5  21    2.38    0.29 
   6   5 -21    1.17    0.21 
  -6  -5  21    0.81    0.22 
  -5  -5  21    0.60    0.21 
   4   5 -21    0.83    0.19 
  -4  -5  21    0.90    0.21 
   3   5 -21    1.42    0.22 
  -3  -5  21    1.43    0.23 
   2   5 -21    0.07    0.15 
  -2  -5  21    0.04    0.18 
   1   5 -21   13.98    0.67 
  -1  -5  21   14.97    0.69 
   0   5 -21   -0.04    0.16 
   0  -5  21    0.00    0.16 
  -1   5 -21   13.55    0.66 
   1  -5  21   12.89    0.64 
  -2   5 -21    1.25    0.23 
   2  -5  21    1.13    0.23 
  -3   5 -21   -0.02    0.17 
   3  -5  21   -0.08    0.19 
  -4   5 -21    4.19    0.38 
   4  -5  21    3.67    0.35 
   8   4 -21    1.99    0.27 
  -8  -4  21    2.06    0.28 
   7   4 -21    0.25    0.18 
  -7  -4  21   -0.07    0.19 
   6   4 -21    0.52    0.19 
  -6  -4  21    0.43    0.20 
   5   4 -21    1.06    0.20 
  -5  -4  21    1.33    0.22 
   4   4 -21   -0.03    0.15 
  -4  -4  21    0.22    0.18 
   3   4 -21    1.16    0.21 
  -3  -4  21    1.24    0.23 
   2   4 -21   -0.03    0.15 
  -2  -4  21   -0.05    0.18 
   1   4 -21    0.12    0.17 
  -1  -4  21   -0.13    0.17 
   0   4 -21    0.09    0.16 
   0  -4  21   -0.03    0.16 
  -1   4 -21    0.40    0.20 
   1  -4  21    0.48    0.18 
  -2   4 -21    0.24    0.19 
   2  -4  21    0.45    0.19 
  -3   4 -21    0.50    0.20 
   3  -4  21    0.59    0.21 
  -4   4 -21    0.17    0.20 
   4  -4  21   -0.12    0.19 
   8   3 -21    0.01    0.19 
  -8  -3  21    0.11    0.19 
   7   3 -21   -0.14    0.16 
  -7  -3  21    0.00    0.20 
   6   3 -21    1.98    0.25 
  -6  -3  21    2.26    0.28 
   5   3 -21    0.20    0.16 
   5   3 -21    0.05    0.15 
  -5  -3  21    0.42    0.19 
   4   3 -21    3.15    0.30 
  -4  -3  21    2.91    0.31 
   3   3 -21    6.13    0.39 
  -3  -3  21    5.89    0.40 
   2   3 -21   -0.14    0.15 
  -2  -3  21    0.24    0.19 
   1   3 -21    0.46    0.18 
  -1  -3  21    0.27    0.17 
   0   3 -21    0.76    0.21 
   0  -3  21    0.95    0.22 
  -1   3 -21    0.23    0.17 
   1  -3  21    0.36    0.18 
  -2   3 -21    0.55    0.20 
   2  -3  21    0.57    0.20 
  -3   3 -21    0.20    0.18 
   3  -3  21   -0.26    0.19 
  -4   3 -21    0.82    0.23 
   4  -3  21    0.81    0.23 
   8   2 -21    2.32    0.28 
  -8  -2  21    1.79    0.27 
   7   2 -21    0.45    0.19 
  -7  -2  21    0.53    0.22 
   6   2 -21    7.37    0.43 
  -6  -2  21    6.63    0.45 
   5   2 -21    4.12    0.32 
  -5  -2  21    4.88    0.39 
  -4  -2  21    0.22    0.19 
   3   2 -21   -0.13    0.15 
  -3  -2  21    0.29    0.18 
   2   2 -21    0.62    0.19 
  -2  -2  21    0.77    0.20 
   1   2 -21    1.27    0.22 
  -1  -2  21    1.31    0.23 
   0   2 -21   -0.23    0.14 
   0  -2  21    0.19    0.18 
  -1   2 -21    2.66    0.28 
   1  -2  21    2.32    0.28 
  -2   2 -21   -0.09    0.16 
   2  -2  21   -0.01    0.20 
  -3   2 -21    0.17    0.18 
   3  -2  21    0.16    0.19 
  -4   2 -21    0.48    0.20 
   4  -2  21    0.43    0.23 
   8   1 -21    0.27    0.20 
  -8  -1  21   -0.02    0.21 
   7   1 -21    2.70    0.28 
  -7  -1  21    2.71    0.30 
   6   1 -21    0.89    0.19 
  -6  -1  21    0.69    0.21 
  -5  -1  21   -0.01    0.19 
  -4  -1  21    4.70    0.39 
  -3  -1  21    1.25    0.24 
  -2  -1  21    1.91    0.26 
  -1  -1  21    1.92    0.25 
   0  -1  21    4.55    0.36 
   1  -1  21    0.78    0.21 
   2  -1  21    0.72    0.23 
   3  -1  21   14.25    0.72 
   8   0 -21    0.68    0.21 
  -8   0  21    0.48    0.22 
   7   0 -21    1.28    0.23 
  -7   0  21    1.48    0.25 
  -6   0  21   -0.13    0.18 
  -5   0  21    2.23    0.28 
  -4   0  21    2.47    0.29 
  -3   0  21    0.05    0.19 
  -2   0  21    0.63    0.22 
  -1   0  21    0.32    0.20 
   0   0  21   -0.02    0.17 
   1   0  21    0.00    0.18 
   2   0  21    1.70    0.28 
   3   0  21    0.44    0.23 
  -8   1  21    0.49    0.23 
  -7   1  21   -0.12    0.20 
  -6   1  21    1.05    0.24 
  -5   1  21    0.11    0.19 
  -4   1  21    5.98    0.44 
  -3   1  21    1.25    0.24 
  -2   1  21   15.48    0.74 
  -1   1  21    0.10    0.19 
   0   1  21    0.03    0.17 
   1   1  21    0.05    0.20 
   2   1  21    0.20    0.20 
  -8   2  21    1.80    0.28 
  -7   2  21    0.11    0.22 
  -6   2  21    0.13    0.20 
  -5   2  21    5.24    0.42 
  -4   2  21    0.71    0.22 
  -3   2  21    1.06    0.23 
  -2   2  21    0.40    0.20 
  -1   2  21    0.28    0.21 
   0   2  21    0.19    0.20 
   1   2  21   -0.19    0.18 
   2   2  21    0.13    0.20 
  -7   3  21    0.63    0.24 
  -6   3  21    1.50    0.28 
  -5   3  21    0.70    0.22 
  -4   3  21   -0.20    0.18 
  -3   3  21    4.16    0.37 
  -2   3  21    1.78    0.28 
  -1   3  21    0.05    0.21 
   0   3  21    1.63    0.28 
   1   3  21    0.01    0.19 
  -6   4  21    1.31    0.27 
  -5   4  21    0.32    0.23 
  -4   4  21    0.72    0.25 
  -3   4  21    0.02    0.21 
  -2   4  21    1.02    0.26 
  -1   4  21   -0.19    0.21 
  -4   5  21    0.43    0.23 
  -3   5  21    0.33    0.23 
   1   9 -22    0.58    0.20 
   3   8 -22    3.06    0.30 
   2   8 -22    0.92    0.22 
   1   8 -22    2.33    0.28 
   0   8 -22    0.97    0.22 
  -1   8 -22    6.20    0.44 
   1  -8  22    6.39    0.43 
   4   7 -22    0.33    0.18 
   3   7 -22    0.18    0.18 
   2   7 -22    0.00    0.17 
  -2  -7  22    0.07    0.19 
   1   7 -22    0.17    0.18 
  -1  -7  22    0.07    0.19 
   0   7 -22   -0.09    0.17 
   0  -7  22   -0.10    0.17 
  -1   7 -22    0.03    0.17 
   1  -7  22   -0.08    0.18 
  -2   7 -22    0.38    0.19 
   2  -7  22    0.34    0.20 
  -5  -6  22    2.75    0.31 
   4   6 -22    0.38    0.18 
  -4  -6  22    0.06    0.19 
   3   6 -22    9.07    0.51 
  -3  -6  22    9.04    0.52 
   2   6 -22    0.10    0.17 
  -2  -6  22    0.02    0.19 
   1   6 -22    0.16    0.17 
  -1  -6  22    0.34    0.19 
   0   6 -22    0.13    0.17 
   0  -6  22    0.25    0.19 
  -1   6 -22   -0.02    0.18 
   1  -6  22    0.05    0.19 
  -2   6 -22    0.12    0.19 
   2  -6  22    0.42    0.20 
  -3   6 -22    0.46    0.22 
  -6  -5  22    4.39    0.39 
  -5  -5  22    4.06    0.38 
   4   5 -22    0.51    0.19 
  -4  -5  22    0.60    0.22 
   3   5 -22   -0.14    0.16 
  -3  -5  22   -0.17    0.18 
   2   5 -22    0.09    0.17 
  -2  -5  22    0.36    0.20 
   1   5 -22    2.10    0.27 
  -1  -5  22    2.38    0.28 
   0   5 -22    0.64    0.21 
   0  -5  22    0.11    0.17 
  -1   5 -22    1.59    0.24 
   1  -5  22    1.98    0.26 
  -2   5 -22   -0.05    0.17 
   2  -5  22    0.38    0.19 
  -3   5 -22    2.11    0.28 
   3  -5  22    1.81    0.28 
   7   4 -22    2.39    0.28 
  -7  -4  22    2.09    0.29 
   6   4 -22    0.98    0.21 
  -6  -4  22    0.83    0.24 
  -5  -4  22   -0.13    0.17 
   4   4 -22    2.87    0.28 
  -4  -4  22    2.85    0.31 
   3   4 -22    0.28    0.18 
  -3  -4  22    0.21    0.19 
   2   4 -22    0.88    0.20 
  -2  -4  22    0.57    0.20 
   1   4 -22    3.50    0.33 
  -1  -4  22    2.90    0.31 
   0   4 -22    3.93    0.35 
   0  -4  22    3.38    0.33 
  -1   4 -22    0.71    0.20 
   1  -4  22    0.49    0.21 
  -2   4 -22    5.34    0.40 
   2  -4  22    4.30    0.39 
  -3   4 -22    2.96    0.31 
   3  -4  22    2.51    0.31 
   7   3 -22    1.56    0.25 
  -7  -3  22    1.57    0.27 
   6   3 -22    0.95    0.21 
  -6  -3  22    0.87    0.24 
   5   3 -22    0.63    0.19 
  -5  -3  22    0.49    0.21 
   4   3 -22   -0.08    0.16 
  -4  -3  22    0.22    0.19 
   3   3 -22    0.18    0.16 
  -3  -3  22    0.37    0.20 
   2   3 -22    0.24    0.18 
  -2  -3  22    0.33    0.19 
   1   3 -22    0.09    0.17 
  -1  -3  22   -0.20    0.17 
   0   3 -22   -0.13    0.17 
   0  -3  22    0.14    0.17 
  -1   3 -22    0.08    0.16 
   1  -3  22    0.01    0.20 
  -2   3 -22    0.27    0.21 
   2  -3  22    0.11    0.20 
  -3   3 -22    0.69    0.21 
   3  -3  22    0.78    0.24 
   7   2 -22    0.33    0.20 
  -7  -2  22    0.55    0.22 
   6   2 -22    3.46    0.32 
  -6  -2  22    3.44    0.34 
  -5  -2  22    0.58    0.22 
  -4  -2  22    0.79    0.21 
  -3  -2  22    0.94    0.22 
   2   2 -22    2.05    0.25 
  -2  -2  22    2.29    0.29 
   1   2 -22    0.36    0.18 
  -1  -2  22    0.22    0.20 
   0   2 -22    0.56    0.20 
   0  -2  22    0.24    0.18 
  -1   2 -22    2.46    0.28 
   1  -2  22    2.37    0.30 
  -2   2 -22   -0.16    0.18 
   2  -2  22   -0.30    0.18 
   7   1 -22   -0.09    0.17 
  -7  -1  22    0.17    0.22 
  -6  -1  22    0.13    0.20 
  -5  -1  22    8.15    0.50 
  -4  -1  22    1.33    0.26 
  -3  -1  22    2.99    0.32 
  -2  -1  22   -0.29    0.19 
  -1  -1  22    0.57    0.22 
   0  -1  22   -0.23    0.18 
   1  -1  22   -0.08    0.19 
   2  -1  22    1.00    0.24 
  -7   0  22    1.18    0.25 
  -6   0  22    2.50    0.30 
  -5   0  22    0.90    0.25 
  -4   0  22    3.90    0.36 
  -3   0  22   12.24    0.64 
  -2   0  22   -0.04    0.19 
  -1   0  22    0.15    0.20 
   0   0  22    1.72    0.26 
   1   0  22    0.20    0.21 
  -7   1  22    2.36    0.32 
  -6   1  22    0.03    0.20 
  -5   1  22   -0.32    0.19 
  -4   1  22    0.20    0.22 
  -3   1  22    0.30    0.22 
  -2   1  22    2.18    0.30 
  -1   1  22   -0.09    0.18 
   0   1  22    0.00    0.19 
   1   1  22   -0.17    0.20 
  -6   2  22    0.58    0.23 
  -5   2  22    0.08    0.20 
  -4   2  22    3.16    0.33 
  -3   2  22    0.04    0.20 
  -2   2  22    0.28    0.21 
  -1   2  22    0.23    0.22 
   0   2  22   -0.07    0.21 
  -5   3  22   -0.05    0.22 
  -4   3  22    1.58    0.27 
  -3   3  22    0.35    0.23 
  -2   3  22    0.29    0.21 
   3   6 -23    0.05    0.18 
  -3  -6  23    0.18    0.20 
   2   6 -23    0.54    0.20 
  -2  -6  23    0.20    0.20 
   1   6 -23    0.56    0.21 
  -1  -6  23    0.42    0.22 
   0   6 -23    0.03    0.19 
   0  -6  23   -0.12    0.19 
   4   5 -23   -0.10    0.17 
  -4  -5  23    0.07    0.20 
   3   5 -23    3.30    0.32 
  -3  -5  23    3.15    0.32 
   2   5 -23    0.66    0.20 
  -2  -5  23    0.63    0.23 
   1   5 -23    0.72    0.22 
  -1  -5  23    0.77    0.23 
   0   5 -23    0.64    0.21 
   0  -5  23    0.45    0.21 
  -1   5 -23    0.32    0.21 
   1  -5  23    0.30    0.21 
  -5  -4  23    7.29    0.48 
   4   4 -23    0.66    0.20 
  -4  -4  23    0.65    0.22 
   3   4 -23   -0.11    0.16 
  -3  -4  23   -0.06    0.18 
   2   4 -23   -0.11    0.18 
  -2  -4  23   -0.05    0.20 
   1   4 -23    2.72    0.29 
  -1  -4  23    2.54    0.30 
   0   4 -23    0.55    0.21 
   0  -4  23    0.12    0.20 
  -1   4 -23    2.34    0.29 
   1  -4  23    2.32    0.29 
  -5  -3  23   -0.09    0.20 
   4   3 -23    3.83    0.34 
  -4  -3  23    3.56    0.35 
   3   3 -23    1.62    0.24 
  -3  -3  23    1.90    0.27 
   2   3 -23    2.95    0.31 
  -2  -3  23    3.01    0.33 
   1   3 -23    0.45    0.21 
  -1  -3  23    0.58    0.23 
   0   3 -23    0.80    0.23 
   0  -3  23    0.93    0.23 
  -1   3 -23    0.25    0.21 
   1  -3  23    0.18    0.19 
  -5  -2  23    0.12    0.21 
  -4  -2  23    0.22    0.22 
  -3  -2  23    0.08    0.21 
  -2  -2  23    0.01    0.19 
  -1  -2  23    1.42    0.26 
   0  -2  23    0.07    0.19 
  -5  -1  23    0.08    0.22 
  -4  -1  23   -0.25    0.18 
  -3  -1  23    0.89    0.23 
  -2  -1  23    0.18    0.20 
  -1  -1  23    1.75    0.28 
   0  -1  23   -0.20    0.20 
  -5   0  23    0.61    0.23 
  -4   0  23    0.56    0.22 
  -3   0  23    1.40    0.26 
  -2   0  23    0.04    0.22 
  -1   0  23   -0.10    0.19 
  -4   1  23    0.45    0.24 
  -3   1  23   10.80    0.62 
   0   0   0    0.00    0.00 
;
_shelx_hkl_checksum              81428
#END Tags that were not found in dictionaries
loop_
_space_group_symop_operation_xyz
'x, y, z'
'-x, -y, -z'
loop_
_atom_site_label
_atom_site_type_symbol
_atom_site_fract_x
_atom_site_fract_y
_atom_site_fract_z
_atom_site_U_iso_or_equiv
_atom_site_adp_type
_atom_site_occupancy
_atom_site_site_symmetry_order
_atom_site_calc_flag
_atom_site_refinement_flags_posn
_atom_site_refinement_flags_adp
S1 S 0.25754(5) 0.54576(4) 0.07601(3) 0.03632(15) Uani 1 1 d . .
S2 S 0.39970(5) 0.27241(5) 0.23849(3) 0.04464(16) Uani 1 1 d . .
N1 N 0.28868(16) 0.42381(15) 0.07635(9) 0.0351(4) Uani 1 1 d . .
O1 O 0.37360(14) 0.62248(13) 0.08882(9) 0.0443(4) Uani 1 1 d . .
O2 O 0.16810(15) 0.53180(14) 0.00725(9) 0.0478(4) Uani 1 1 d . .
C1 C 0.37427(19) 0.41422(17) 0.14219(11) 0.0351(4) Uani 1 1 d . .
C2 C 0.32457(19) 0.32506(18) 0.16662(11) 0.0359(4) Uani 1 1 d . .
C3 C 0.20269(19) 0.27352(17) 0.11851(11) 0.0351(4) Uani 1 1 d . .
C4 C 0.1135(2) 0.18074(18) 0.11819(13) 0.0402(5) Uani 1 1 d . .
H4 H 0.1277 0.1388 0.1546 0.048 Uiso 1 1 calc R U
C5 C 0.0043(2) 0.15120(19) 0.06390(13) 0.0440(5) Uani 1 1 d . .
C6 C -0.0124(2) 0.2141(2) 0.00924(13) 0.0483(6) Uani 1 1 d . .
H6 H -0.0865 0.1932 -0.0280 0.058 Uiso 1 1 calc R U
C7 C 0.0745(2) 0.3052(2) 0.00748(13) 0.0452(5) Uani 1 1 d . .
H7 H 0.0612 0.3456 -0.0300 0.054 Uiso 1 1 calc R U
C8 C 0.18246(19) 0.33456(18) 0.06351(11) 0.0358(4) Uani 1 1 d . .
C9 C 0.18873(19) 0.56954(17) 0.15605(12) 0.0342(4) Uani 1 1 d . .
C10 C 0.2628(2) 0.62632(18) 0.22627(13) 0.0405(5) Uani 1 1 d . .
H10 H 0.3481 0.6553 0.2306 0.049 Uiso 1 1 calc R U
C11 C 0.2089(2) 0.6395(2) 0.28960(13) 0.0454(5) Uani 1 1 d . .
H11 H 0.2584 0.6784 0.3372 0.055 Uiso 1 1 calc R U
C12 C 0.0833(2) 0.5965(2) 0.28453(14) 0.0448(5) Uani 1 1 d . .
C13 C 0.0120(2) 0.5407(2) 0.21351(15) 0.0496(6) Uani 1 1 d . .
H13 H -0.0733 0.5117 0.2094 0.060 Uiso 1 1 calc R U
C14 C 0.0620(2) 0.52641(19) 0.14875(14) 0.0429(5) Uani 1 1 d . .
H14 H 0.0120 0.4886 0.1011 0.051 Uiso 1 1 calc R U
C15 C 0.0267(3) 0.6121(3) 0.35443(16) 0.0655(8) Uani 1 1 d . .
H15A H -0.0001 0.6787 0.3595 0.098 Uiso 1 1 calc R U
H15B H 0.0879 0.6153 0.3997 0.098 Uiso 1 1 calc R U
H15C H -0.0442 0.5522 0.3492 0.098 Uiso 1 1 calc R U
C16 C 0.49752(19) 0.48933(19) 0.16909(13) 0.0396(5) Uani 1 1 d . .
C17 C 0.5391(2) 0.5377(2) 0.24641(13) 0.0457(5) Uani 1 1 d . .
H17 H 0.4886 0.5211 0.2815 0.055 Uiso 1 1 calc R U
C18 C 0.6538(2) 0.6100(2) 0.27236(18) 0.0600(7) Uani 1 1 d . .
H18 H 0.6809 0.6426 0.3247 0.072 Uiso 1 1 calc R U
C19 C 0.7285(2) 0.6340(2) 0.22061(19) 0.0639(8) Uani 1 1 d . .
H19 H 0.8060 0.6839 0.2377 0.077 Uiso 1 1 calc R U
C20 C 0.6894(2) 0.5849(3) 0.14453(18) 0.0633(7) Uani 1 1 d . .
H20 H 0.7411 0.6003 0.1098 0.076 Uiso 1 1 calc R U
C21 C 0.5746(2) 0.5131(2) 0.11844(16) 0.0537(6) Uani 1 1 d . .
H21 H 0.5486 0.4802 0.0661 0.064 Uiso 1 1 calc R U
C22 C 0.3090(2) 0.28961(17) 0.30975(12) 0.0362(4) Uani 1 1 d . .
C23 C 0.2316(2) 0.3583(2) 0.31300(13) 0.0464(6) Uani 1 1 d . .
H23 H 0.2232 0.3998 0.2756 0.056 Uiso 1 1 calc R U
C24 C 0.1660(2) 0.3664(2) 0.37122(14) 0.0542(6) Uani 1 1 d . .
H24 H 0.1132 0.4137 0.3727 0.065 Uiso 1 1 calc R U
C25 C 0.1755(2) 0.3070(2) 0.42731(13) 0.0510(6) Uani 1 1 d . .
C26 C 0.2562(3) 0.2403(2) 0.42417(15) 0.0584(7) Uani 1 1 d . .
H26 H 0.2661 0.2003 0.4624 0.070 Uiso 1 1 calc R U
C27 C 0.3221(2) 0.2308(2) 0.36690(14) 0.0494(6) Uani 1 1 d . .
H27 H 0.3762 0.1845 0.3661 0.059 Uiso 1 1 calc R U
C28 C 0.1014(3) 0.3163(3) 0.48995(16) 0.0760(10) Uani 1 1 d . .
H28A H 0.1522 0.3675 0.5352 0.114 Uiso 1 1 calc R U
H28B H 0.0762 0.2465 0.5025 0.114 Uiso 1 1 calc R U
H28C H 0.0283 0.3408 0.4723 0.114 Uiso 1 1 calc R U
C29 C -0.0962(3) 0.0523(2) 0.06170(16) 0.0569(7) Uani 1 1 d . .
H29A H -0.1674 0.0742 0.0771 0.085 Uiso 1 1 calc R U
H29B H -0.0646 0.0108 0.0966 0.085 Uiso 1 1 calc R U
H29C H -0.1208 0.0085 0.0100 0.085 Uiso 1 1 calc R U
S3 S 0.70302(5) -0.04259(5) 0.42529(3) 0.04280(16) Uani 1 1 d . .
S4 S 0.88572(5) 0.22654(5) 0.25573(4) 0.04732(17) Uani 1 1 d . .
N2 N 0.79049(16) 0.07882(16) 0.42090(10) 0.0406(4) Uani 1 1 d . .
O3 O 0.77591(16) -0.11890(15) 0.41391(10) 0.0550(5) Uani 1 1 d . .
O4 O 0.65846(17) -0.02498(17) 0.49470(10) 0.0584(5) Uani 1 1 d . .
C30 C 0.84365(19) 0.08589(19) 0.35401(12) 0.0397(5) Uani 1 1 d . .
C31 C 0.8248(2) 0.17488(19) 0.32923(13) 0.0408(5) Uani 1 1 d . .
C32 C 0.75731(19) 0.22902(19) 0.37867(13) 0.0409(5) Uani 1 1 d . .
C33 C 0.7171(2) 0.3239(2) 0.37964(14) 0.0455(5) Uani 1 1 d . .
H33 H 0.7327 0.3650 0.3428 0.055 Uiso 1 1 calc R U
C34 C 0.6544(2) 0.3563(2) 0.43534(14) 0.0494(6) Uani 1 1 d . .
C35 C 0.6336(2) 0.2948(2) 0.49046(13) 0.0538(6) Uani 1 1 d . .
H35 H 0.5909 0.3180 0.5283 0.065 Uiso 1 1 calc R U
C36 C 0.6731(2) 0.2014(2) 0.49148(13) 0.0514(6) Uani 1 1 d . .
H36 H 0.6586 0.1613 0.5291 0.062 Uiso 1 1 calc R U
C37 C 0.7357(2) 0.16902(19) 0.43414(12) 0.0406(5) Uani 1 1 d . .
C38 C 0.5798(2) -0.07010(18) 0.34643(13) 0.0392(5) Uani 1 1 d . .
C39 C 0.5903(2) -0.12916(18) 0.27733(13) 0.0437(5) Uani 1 1 d . .
H39 H 0.6592 -0.1587 0.2739 0.052 Uiso 1 1 calc R U
C40 C 0.4971(2) -0.1439(2) 0.21319(14) 0.0495(6) Uani 1 1 d . .
H40 H 0.5031 -0.1840 0.1660 0.059 Uiso 1 1 calc R U
C41 C 0.3953(2) -0.1001(2) 0.21782(14) 0.0493(6) Uani 1 1 d . .
C42 C 0.3874(2) -0.0423(2) 0.28806(16) 0.0523(6) Uani 1 1 d . .
H42 H 0.3183 -0.0132 0.2918 0.063 Uiso 1 1 calc R U
C43 C 0.4776(2) -0.0267(2) 0.35199(14) 0.0462(5) Uani 1 1 d . .
H43 H 0.4708 0.0128 0.3992 0.055 Uiso 1 1 calc R U
C44 C 0.2945(3) -0.1181(3) 0.14796(17) 0.0676(8) Uani 1 1 d . .
H44A H 0.2310 -0.1825 0.1457 0.101 Uiso 1 1 calc R U
H44B H 0.3295 -0.1267 0.1023 0.101 Uiso 1 1 calc R U
H44C H 0.2578 -0.0566 0.1509 0.101 Uiso 1 1 calc R U
C45 C 0.9157(2) 0.01075(19) 0.32628(14) 0.0425(5) Uani 1 1 d . .
C46 C 0.8913(2) -0.0377(2) 0.24870(15) 0.0491(6) Uani 1 1 d . .
H46 H 0.8287 -0.0219 0.2146 0.059 Uiso 1 1 calc R U
C47 C 0.9582(3) -0.1091(2) 0.22119(18) 0.0603(7) Uani 1 1 d . .
H47 H 0.9408 -0.1423 0.1689 0.072 Uiso 1 1 calc R U
C48 C 1.0514(3) -0.1308(2) 0.2724(2) 0.0655(8) Uani 1 1 d . .
H48 H 1.0978 -0.1786 0.2544 0.079 Uiso 1 1 calc R U
C49 C 1.0761(3) -0.0836(3) 0.3482(2) 0.0663(8) Uani 1 1 d . .
H49 H 1.1390 -0.0992 0.3822 0.080 Uiso 1 1 calc R U
C50 C 1.0093(2) -0.0129(2) 0.37527(17) 0.0545(6) Uani 1 1 d . .
H50 H 1.0274 0.0196 0.4277 0.065 Uiso 1 1 calc R U
C51 C 0.7489(2) 0.20638(17) 0.18451(13) 0.0390(5) Uani 1 1 d . .
C52 C 0.6393(2) 0.1321(2) 0.18018(14) 0.0477(6) Uani 1 1 d . .
H52 H 0.6325 0.0896 0.2171 0.057 Uiso 1 1 calc R U
C53 C 0.5400(2) 0.1206(2) 0.12132(14) 0.0532(6) Uani 1 1 d . .
H53 H 0.4659 0.0698 0.1192 0.064 Uiso 1 1 calc R U
C54 C 0.5444(3) 0.1803(2) 0.06536(14) 0.0499(6) Uani 1 1 d . .
C55 C 0.6560(3) 0.2539(2) 0.07086(16) 0.0585(7) Uani 1 1 d . .
H55 H 0.6629 0.2958 0.0336 0.070 Uiso 1 1 calc R U
C56 C 0.7562(3) 0.2676(2) 0.12881(15) 0.0533(6) Uani 1 1 d . .
H56 H 0.8303 0.3185 0.1309 0.064 Uiso 1 1 calc R U
C57 C 0.4337(3) 0.1676(3) 0.00246(17) 0.0724(9) Uani 1 1 d . .
H57A H 0.4440 0.2309 -0.0197 0.109 Uiso 1 1 calc R U
H57B H 0.3590 0.1593 0.0235 0.109 Uiso 1 1 calc R U
H57C H 0.4269 0.1044 -0.0369 0.109 Uiso 1 1 calc R U
C58 C 0.6063(3) 0.4571(2) 0.43772(17) 0.0637(7) Uani 1 1 d . .
H58A H 0.6333 0.4935 0.3987 0.096 Uiso 1 1 calc R U
H58B H 0.6385 0.5047 0.4878 0.096 Uiso 1 1 calc R U
H58C H 0.5163 0.4376 0.4282 0.096 Uiso 1 1 calc R U
loop_
_atom_site_aniso_label
_atom_site_aniso_U_11
_atom_site_aniso_U_22
_atom_site_aniso_U_33
_atom_site_aniso_U_23
_atom_site_aniso_U_13
_atom_site_aniso_U_12
S1 0.0367(3) 0.0435(3) 0.0285(3) 0.0140(2) 0.0036(2) 0.0063(2)
S2 0.0451(3) 0.0556(4) 0.0418(3) 0.0175(3) 0.0083(2) 0.0256(3)
N1 0.0356(9) 0.0433(10) 0.0251(8) 0.0077(7) 0.0045(7) 0.0075(7)
O1 0.0415(8) 0.0486(9) 0.0419(9) 0.0189(7) 0.0070(7) 0.0026(7)
O2 0.0483(9) 0.0593(10) 0.0330(8) 0.0182(7) -0.0026(7) 0.0086(8)
C1 0.0341(10) 0.0450(12) 0.0275(10) 0.0063(9) 0.0064(8) 0.0139(9)
C2 0.0380(11) 0.0436(12) 0.0295(10) 0.0081(9) 0.0078(8) 0.0164(9)
C3 0.0380(11) 0.0382(11) 0.0292(10) 0.0035(8) 0.0079(8) 0.0119(9)
C4 0.0475(12) 0.0388(12) 0.0370(11) 0.0075(9) 0.0136(9) 0.0135(10)
C5 0.0450(12) 0.0402(12) 0.0430(12) -0.0018(10) 0.0158(10) 0.0053(10)
C6 0.0405(12) 0.0547(15) 0.0388(12) -0.0002(11) -0.0010(9) 0.0029(10)
C7 0.0445(12) 0.0528(14) 0.0326(11) 0.0079(10) 0.0005(9) 0.0060(10)
C8 0.0384(11) 0.0411(11) 0.0267(10) 0.0031(8) 0.0075(8) 0.0096(9)
C9 0.0352(10) 0.0360(11) 0.0333(10) 0.0116(8) 0.0057(8) 0.0105(8)
C10 0.0363(11) 0.0420(12) 0.0411(12) 0.0101(10) 0.0030(9) 0.0082(9)
C11 0.0476(13) 0.0509(14) 0.0354(11) 0.0049(10) 0.0035(9) 0.0143(11)
C12 0.0516(13) 0.0467(13) 0.0434(13) 0.0104(10) 0.0167(10) 0.0216(11)
C13 0.0359(12) 0.0530(15) 0.0598(15) 0.0060(12) 0.0145(11) 0.0120(10)
C14 0.0343(11) 0.0451(13) 0.0443(12) 0.0044(10) 0.0016(9) 0.0083(9)
C15 0.0711(18) 0.081(2) 0.0576(17) 0.0152(15) 0.0310(15) 0.0335(16)
C16 0.0310(10) 0.0490(13) 0.0391(11) 0.0103(10) 0.0041(8) 0.0122(9)
C17 0.0414(12) 0.0535(14) 0.0411(12) 0.0131(11) 0.0023(10) 0.0112(10)
C18 0.0492(15) 0.0563(16) 0.0647(17) 0.0104(13) -0.0097(13) 0.0098(12)
C19 0.0354(13) 0.0650(18) 0.084(2) 0.0178(16) 0.0000(13) 0.0029(12)
C20 0.0414(13) 0.084(2) 0.0691(19) 0.0248(16) 0.0198(13) 0.0125(13)
C21 0.0396(12) 0.0705(18) 0.0547(15) 0.0160(13) 0.0160(11) 0.0147(12)
C22 0.0378(11) 0.0390(11) 0.0291(10) 0.0092(8) -0.0002(8) 0.0073(9)
C23 0.0531(14) 0.0556(15) 0.0388(12) 0.0202(11) 0.0096(10) 0.0232(11)
C24 0.0568(15) 0.0702(17) 0.0425(13) 0.0149(12) 0.0108(11) 0.0278(13)
C25 0.0490(14) 0.0625(16) 0.0337(12) 0.0092(11) 0.0076(10) -0.0020(12)
C26 0.0717(18) 0.0595(16) 0.0465(14) 0.0295(13) 0.0087(12) 0.0091(14)
C27 0.0615(15) 0.0456(14) 0.0454(13) 0.0202(11) 0.0063(11) 0.0176(11)
C28 0.0677(18) 0.113(3) 0.0403(15) 0.0132(16) 0.0193(13) 0.0036(18)
C29 0.0552(15) 0.0495(15) 0.0587(16) 0.0007(12) 0.0206(13) -0.0009(12)
S3 0.0431(3) 0.0553(4) 0.0351(3) 0.0206(3) 0.0086(2) 0.0139(3)
S4 0.0428(3) 0.0504(4) 0.0518(4) 0.0169(3) 0.0186(3) 0.0065(3)
N2 0.0378(9) 0.0535(12) 0.0299(9) 0.0099(8) 0.0037(7) 0.0116(8)
O3 0.0520(10) 0.0634(11) 0.0632(11) 0.0337(9) 0.0153(8) 0.0243(9)
O4 0.0633(11) 0.0843(14) 0.0378(9) 0.0292(9) 0.0178(8) 0.0215(10)
C30 0.0306(10) 0.0509(13) 0.0348(11) 0.0087(9) 0.0054(8) 0.0057(9)
C31 0.0347(11) 0.0473(13) 0.0388(12) 0.0092(10) 0.0072(9) 0.0067(9)
C32 0.0332(10) 0.0470(13) 0.0381(11) 0.0053(10) 0.0035(9) 0.0066(9)
C33 0.0410(12) 0.0453(13) 0.0464(13) 0.0080(10) 0.0039(10) 0.0078(10)
C34 0.0432(13) 0.0560(15) 0.0402(13) -0.0030(11) -0.0033(10) 0.0132(11)
C35 0.0507(14) 0.0763(18) 0.0303(11) -0.0052(11) 0.0064(10) 0.0216(13)
C36 0.0497(14) 0.0704(18) 0.0314(12) 0.0067(11) 0.0043(10) 0.0154(12)
C37 0.0358(11) 0.0522(14) 0.0277(10) 0.0020(9) -0.0010(8) 0.0087(9)
C38 0.0364(11) 0.0437(12) 0.0383(11) 0.0129(9) 0.0104(9) 0.0060(9)
C39 0.0432(12) 0.0402(12) 0.0458(13) 0.0054(10) 0.0116(10) 0.0072(10)
C40 0.0507(14) 0.0494(14) 0.0401(13) 0.0023(10) 0.0109(10) -0.0010(11)
C41 0.0431(12) 0.0466(14) 0.0475(14) 0.0121(11) -0.0021(10) -0.0057(10)
C42 0.0368(12) 0.0477(14) 0.0655(17) 0.0053(12) 0.0026(11) 0.0070(10)
C43 0.0406(12) 0.0499(14) 0.0471(13) 0.0056(11) 0.0115(10) 0.0109(10)
C44 0.0552(16) 0.076(2) 0.0538(16) 0.0112(14) -0.0096(13) -0.0047(14)
C45 0.0343(11) 0.0459(13) 0.0495(13) 0.0138(10) 0.0134(9) 0.0079(9)
C46 0.0479(13) 0.0529(15) 0.0535(14) 0.0174(12) 0.0183(11) 0.0163(11)
C47 0.0703(18) 0.0550(16) 0.0646(17) 0.0129(13) 0.0325(15) 0.0208(14)
C48 0.0589(17) 0.0591(17) 0.094(2) 0.0251(16) 0.0311(16) 0.0292(14)
C49 0.0462(15) 0.073(2) 0.086(2) 0.0251(17) 0.0101(14) 0.0244(14)
C50 0.0384(12) 0.0607(16) 0.0645(17) 0.0164(13) 0.0056(11) 0.0137(11)
C51 0.0494(12) 0.0333(11) 0.0400(12) 0.0102(9) 0.0200(10) 0.0122(9)
C52 0.0500(13) 0.0521(14) 0.0459(13) 0.0225(11) 0.0176(11) 0.0075(11)
C53 0.0515(14) 0.0615(16) 0.0480(14) 0.0175(12) 0.0170(11) 0.0071(12)
C54 0.0617(15) 0.0557(15) 0.0398(12) 0.0117(11) 0.0179(11) 0.0236(12)
C55 0.082(2) 0.0543(16) 0.0506(15) 0.0282(13) 0.0230(14) 0.0204(14)
C56 0.0657(16) 0.0444(13) 0.0548(15) 0.0200(12) 0.0249(13) 0.0071(12)
C57 0.081(2) 0.096(2) 0.0474(16) 0.0201(16) 0.0118(15) 0.0341(19)
C58 0.0633(17) 0.0640(18) 0.0593(17) -0.0043(13) 0.0046(13) 0.0258(14)
loop_
_atom_type_symbol
_atom_type_description
_atom_type_scat_dispersion_real
_atom_type_scat_dispersion_imag
_atom_type_scat_source
C C 0.0033 0.0016 'International Tables Vol C Tables 4.2.6.8 and 6.1.1.4'
H H 0.0000 0.0000 'International Tables Vol C Tables 4.2.6.8 and 6.1.1.4'
N N 0.0061 0.0033 'International Tables Vol C Tables 4.2.6.8 and 6.1.1.4'
O O 0.0106 0.0060 'International Tables Vol C Tables 4.2.6.8 and 6.1.1.4'
S S 0.1246 0.1234 'International Tables Vol C Tables 4.2.6.8 and 6.1.1.4'
loop_
_geom_angle_atom_site_label_1
_geom_angle_atom_site_label_2
_geom_angle_atom_site_label_3
_geom_angle
O1 S1 O2 119.54(9)
O1 S1 N1 107.21(9)
O2 S1 N1 105.93(10)
O1 S1 C9 109.26(10)
O2 S1 C9 109.82(10)
N1 S1 C9 103.87(9)
C2 S2 C22 101.39(10)
C8 N1 C1 106.22(16)
C8 N1 S1 115.80(14)
C1 N1 S1 117.44(14)
C2 C1 N1 109.01(18)
C2 C1 C16 129.68(19)
N1 C1 C16 121.12(18)
C1 C2 C3 109.04(18)
C1 C2 S2 125.84(17)
C3 C2 S2 124.87(17)
C8 C3 C4 120.2(2)
C8 C3 C2 107.05(19)
C4 C3 C2 132.7(2)
C5 C4 C3 119.4(2)
C4 C5 C6 118.8(2)
C4 C5 C29 121.5(2)
C6 C5 C29 119.7(2)
C7 C6 C5 123.2(2)
C6 C7 C8 117.1(2)
C7 C8 C3 121.4(2)
C7 C8 N1 129.96(19)
C3 C8 N1 108.67(18)
C10 C9 C14 121.2(2)
C10 C9 S1 119.38(16)
C14 C9 S1 119.38(17)
C11 C10 C9 118.9(2)
C10 C11 C12 121.4(2)
C13 C12 C11 118.2(2)
C13 C12 C15 121.4(2)
C11 C12 C15 120.4(2)
C14 C13 C12 122.2(2)
C13 C14 C9 118.1(2)
C21 C16 C17 118.7(2)
C21 C16 C1 121.2(2)
C17 C16 C1 120.1(2)
C18 C17 C16 120.8(2)
C17 C18 C19 119.6(3)
C20 C19 C18 120.0(3)
C19 C20 C21 120.5(3)
C20 C21 C16 120.4(3)
C23 C22 C27 118.9(2)
C23 C22 S2 124.49(16)
C27 C22 S2 116.57(18)
C22 C23 C24 119.9(2)
C25 C24 C23 122.0(2)
C24 C25 C26 117.2(2)
C24 C25 C28 121.0(3)
C26 C25 C28 121.8(2)
C27 C26 C25 121.8(2)
C26 C27 C22 120.1(2)
O3 S3 O4 119.49(11)
O3 S3 N2 107.43(10)
O4 S3 N2 105.79(11)
O3 S3 C38 109.48(11)
O4 S3 C38 109.94(11)
N2 S3 C38 103.43(10)
C31 S4 C51 101.76(10)
C37 N2 C30 106.42(17)
C37 N2 S3 116.61(15)
C30 N2 S3 117.87(15)
C31 C30 N2 108.92(19)
C31 C30 C45 128.9(2)
N2 C30 C45 121.88(19)
C30 C31 C32 109.04(19)
C30 C31 S4 126.40(18)
C32 C31 S4 124.23(18)
C37 C32 C33 120.3(2)
C37 C32 C31 107.3(2)
C33 C32 C31 132.3(2)
C34 C33 C32 119.2(2)
C33 C34 C35 119.5(2)
C33 C34 C58 121.2(2)
C35 C34 C58 119.3(2)
C36 C35 C34 122.7(2)
C35 C36 C37 117.1(2)
C32 C37 C36 121.2(2)
C32 C37 N2 108.30(19)
C36 C37 N2 130.5(2)
C39 C38 C43 120.9(2)
C39 C38 S3 118.65(17)
C43 C38 S3 120.32(18)
C38 C39 C40 118.8(2)
C39 C40 C41 120.9(2)
C42 C41 C40 118.7(2)
C42 C41 C44 121.1(3)
C40 C41 C44 120.2(2)
C43 C42 C41 121.6(2)
C42 C43 C38 119.2(2)
C50 C45 C46 118.5(2)
C50 C45 C30 121.7(2)
C46 C45 C30 119.8(2)
C47 C46 C45 120.8(2)
C46 C47 C48 118.9(3)
C49 C48 C47 120.7(3)
C48 C49 C50 120.2(3)
C49 C50 C45 120.9(3)
C52 C51 C56 118.9(2)
C52 C51 S4 124.12(17)
C56 C51 S4 116.97(19)
C53 C52 C51 119.5(2)
C52 C53 C54 122.9(2)
C53 C54 C55 116.3(2)
C53 C54 C57 121.9(3)
C55 C54 C57 121.8(2)
C56 C55 C54 122.2(2)
C55 C56 C51 120.2(2)
loop_
_geom_bond_atom_site_label_1
_geom_bond_atom_site_label_2
_geom_bond_distance
S1 O1 1.4250(16)
S1 O2 1.4268(15)
S1 N1 1.6943(19)
S1 C9 1.759(2)
S2 C2 1.752(2)
S2 C22 1.780(2)
N1 C8 1.437(3)
N1 C1 1.447(2)
C1 C2 1.355(3)
C1 C16 1.471(3)
C2 C3 1.455(3)
C3 C8 1.396(3)
C3 C4 1.397(3)
C4 C5 1.380(3)
C5 C6 1.403(3)
C5 C29 1.514(3)
C6 C7 1.377(3)
C7 C8 1.387(3)
C9 C10 1.389(3)
C9 C14 1.394(3)
C10 C11 1.381(3)
C11 C12 1.388(3)
C12 C13 1.387(3)
C12 C15 1.506(3)
C13 C14 1.380(3)
C16 C21 1.389(3)
C16 C17 1.390(3)
C17 C18 1.383(4)
C18 C19 1.388(4)
C19 C20 1.370(4)
C20 C21 1.382(4)
C22 C23 1.372(3)
C22 C27 1.396(3)
C23 C24 1.381(3)
C24 C25 1.381(3)
C25 C26 1.382(4)
C25 C28 1.514(3)
C26 C27 1.371(4)
S3 O3 1.4220(18)
S3 O4 1.4249(17)
S3 N2 1.698(2)
S3 C38 1.750(2)
S4 C31 1.760(2)
S4 C51 1.782(2)
N2 C37 1.436(3)
N2 C30 1.442(3)
C30 C31 1.355(3)
C30 C45 1.468(3)
C31 C32 1.448(3)
C32 C37 1.394(3)
C32 C33 1.397(3)
C33 C34 1.377(3)
C34 C35 1.401(4)
C34 C58 1.514(4)
C35 C36 1.379(4)
C36 C37 1.399(3)
C38 C39 1.385(3)
C38 C43 1.392(3)
C39 C40 1.389(3)
C40 C41 1.390(4)
C41 C42 1.385(4)
C41 C44 1.505(3)
C42 C43 1.365(3)
C45 C50 1.385(3)
C45 C46 1.392(3)
C46 C47 1.389(4)
C47 C48 1.393(4)
C48 C49 1.359(4)
C49 C50 1.379(4)
C51 C52 1.379(3)
C51 C56 1.390(3)
C52 C53 1.378(3)
C53 C54 1.379(3)
C54 C55 1.387(4)
C54 C57 1.505(4)
C55 C56 1.369(4)
loop_
_geom_torsion_atom_site_label_1
_geom_torsion_atom_site_label_2
_geom_torsion_atom_site_label_3
_geom_torsion_atom_site_label_4
_geom_torsion
O1 S1 N1 C8 -179.44(13)
O2 S1 N1 C8 -50.75(16)
C9 S1 N1 C8 64.95(15)
O1 S1 N1 C1 53.65(16)
O2 S1 N1 C1 -177.66(14)
C9 S1 N1 C1 -61.96(16)
C8 N1 C1 C2 0.9(2)
S1 N1 C1 C2 132.32(16)
C8 N1 C1 C16 176.37(18)
S1 N1 C1 C16 -52.2(2)
N1 C1 C2 C3 -1.2(2)
C16 C1 C2 C3 -176.1(2)
N1 C1 C2 S2 173.31(15)
C16 C1 C2 S2 -1.7(3)
C22 S2 C2 C1 115.01(19)
C22 S2 C2 C3 -71.38(19)
C1 C2 C3 C8 1.0(2)
S2 C2 C3 C8 -173.55(15)
C1 C2 C3 C4 179.6(2)
S2 C2 C3 C4 5.0(3)
C8 C3 C4 C5 -1.2(3)
C2 C3 C4 C5 -179.6(2)
C3 C4 C5 C6 1.6(3)
C3 C4 C5 C29 -179.1(2)
C4 C5 C6 C7 -0.8(4)
C29 C5 C6 C7 179.9(2)
C5 C6 C7 C8 -0.5(4)
C6 C7 C8 C3 0.9(3)
C6 C7 C8 N1 179.8(2)
C4 C3 C8 C7 -0.1(3)
C2 C3 C8 C7 178.71(19)
C4 C3 C8 N1 -179.20(18)
C2 C3 C8 N1 -0.4(2)
C1 N1 C8 C7 -179.3(2)
S1 N1 C8 C7 48.4(3)
C1 N1 C8 C3 -0.3(2)
S1 N1 C8 C3 -132.63(15)
O1 S1 C9 C10 -21.4(2)
O2 S1 C9 C10 -154.33(17)
N1 S1 C9 C10 92.75(18)
O1 S1 C9 C14 161.83(17)
O2 S1 C9 C14 28.9(2)
N1 S1 C9 C14 -84.02(18)
C14 C9 C10 C11 0.2(3)
S1 C9 C10 C11 -176.55(17)
C9 C10 C11 C12 0.6(3)
C10 C11 C12 C13 -0.9(4)
C10 C11 C12 C15 -180.0(2)
C11 C12 C13 C14 0.4(4)
C15 C12 C13 C14 179.5(2)
C12 C13 C14 C9 0.3(4)
C10 C9 C14 C13 -0.6(3)
S1 C9 C14 C13 176.11(18)
C2 C1 C16 C21 126.2(3)
N1 C1 C16 C21 -48.3(3)
C2 C1 C16 C17 -53.6(3)
N1 C1 C16 C17 131.9(2)
C21 C16 C17 C18 1.4(4)
C1 C16 C17 C18 -178.8(2)
C16 C17 C18 C19 -0.4(4)
C17 C18 C19 C20 -1.0(4)
C18 C19 C20 C21 1.3(4)
C19 C20 C21 C16 -0.3(4)
C17 C16 C21 C20 -1.1(4)
C1 C16 C21 C20 179.2(2)
C2 S2 C22 C23 -18.5(2)
C2 S2 C22 C27 163.52(19)
C27 C22 C23 C24 -1.5(4)
S2 C22 C23 C24 -179.4(2)
C22 C23 C24 C25 0.0(4)
C23 C24 C25 C26 1.5(4)
C23 C24 C25 C28 -179.2(3)
C24 C25 C26 C27 -1.6(4)
C28 C25 C26 C27 179.1(3)
C25 C26 C27 C22 0.2(4)
C23 C22 C27 C26 1.4(4)
S2 C22 C27 C26 179.5(2)
O3 S3 N2 C37 -177.56(15)
O4 S3 N2 C37 -48.88(17)
C38 S3 N2 C37 66.70(17)
O3 S3 N2 C30 53.94(17)
O4 S3 N2 C30 -177.38(15)
C38 S3 N2 C30 -61.80(17)
C37 N2 C30 C31 1.1(2)
S3 N2 C30 C31 134.26(17)
C37 N2 C30 C45 175.63(19)
S3 N2 C30 C45 -51.2(2)
N2 C30 C31 C32 -0.6(2)
C45 C30 C31 C32 -174.6(2)
N2 C30 C31 S4 173.03(16)
C45 C30 C31 S4 -1.0(4)
C51 S4 C31 C30 113.3(2)
C51 S4 C31 C32 -74.0(2)
C30 C31 C32 C37 -0.2(3)
S4 C31 C32 C37 -173.97(16)
C30 C31 C32 C33 178.4(2)
S4 C31 C32 C33 4.7(4)
C37 C32 C33 C34 -1.0(3)
C31 C32 C33 C34 -179.4(2)
C32 C33 C34 C35 0.9(3)
C32 C33 C34 C58 -178.6(2)
C33 C34 C35 C36 -0.3(4)
C58 C34 C35 C36 179.2(2)
C34 C35 C36 C37 -0.3(4)
C33 C32 C37 C36 0.4(3)
C31 C32 C37 C36 179.2(2)
C33 C32 C37 N2 -177.94(19)
C31 C32 C37 N2 0.9(2)
C35 C36 C37 C32 0.2(3)
C35 C36 C37 N2 178.2(2)
C30 N2 C37 C32 -1.2(2)
S3 N2 C37 C32 -135.05(16)
C30 N2 C37 C36 -179.4(2)
S3 N2 C37 C36 46.8(3)
O3 S3 C38 C39 -21.8(2)
O4 S3 C38 C39 -154.98(18)
N2 S3 C38 C39 92.43(19)
O3 S3 C38 C43 162.70(19)
O4 S3 C38 C43 29.6(2)
N2 S3 C38 C43 -83.0(2)
C43 C38 C39 C40 0.4(3)
S3 C38 C39 C40 -174.98(17)
C38 C39 C40 C41 0.2(3)
C39 C40 C41 C42 -0.8(4)
C39 C40 C41 C44 -179.2(2)
C40 C41 C42 C43 0.8(4)
C44 C41 C42 C43 179.2(2)
C41 C42 C43 C38 -0.1(4)
C39 C38 C43 C42 -0.5(4)
S3 C38 C43 C42 174.85(18)
C31 C30 C45 C50 125.5(3)
N2 C30 C45 C50 -47.9(3)
C31 C30 C45 C46 -53.9(3)
N2 C30 C45 C46 132.8(2)
C50 C45 C46 C47 0.7(4)
C30 C45 C46 C47 -179.9(2)
C45 C46 C47 C48 -0.7(4)
C46 C47 C48 C49 0.5(4)
C47 C48 C49 C50 -0.4(5)
C48 C49 C50 C45 0.4(4)
C46 C45 C50 C49 -0.5(4)
C30 C45 C50 C49 -179.9(2)
C31 S4 C51 C52 -22.1(2)
C31 S4 C51 C56 160.16(19)
C56 C51 C52 C53 -0.3(4)
S4 C51 C52 C53 -178.00(19)
C51 C52 C53 C54 0.2(4)
C52 C53 C54 C55 0.2(4)
C52 C53 C54 C57 -178.9(3)
C53 C54 C55 C56 -0.5(4)
C57 C54 C55 C56 178.6(3)
C54 C55 C56 C51 0.4(4)
C52 C51 C56 C55 0.1(4)
S4 C51 C56 C55 177.9(2)
