#------------------------------------------------------------------------------
#$Date: 2015-09-06 04:11:07 +0300 (Sun, 06 Sep 2015) $
#$Revision: 154775 $
#$URL: svn://www.crystallography.net/cod/cif/1/52/93/1529371.cif $
#------------------------------------------------------------------------------
#
# This file is available in the Crystallography Open Database (COD),
# http://www.crystallography.net/
#
# All data on this site have been placed in the public domain by the
# contributors.
#
data_1529371
loop_
_publ_author_name
'Xin, Xiaoyi'
'Wang, Haolong'
'Li, Xincheng'
'Wang, Dongping'
'Wan, Boshun'
_publ_section_title
;
 Base-Catalyzed Selective Synthesis of 2-Azabicyclo[3.2.0]hept-2-enes and
 Sulfonyl Vinyl-Substituted Pyrroles from 3-Aza-1,5-enynes.
;
_journal_issue                   16
_journal_name_full               'Organic letters'
_journal_page_first              3944
_journal_page_last               3947
_journal_paper_doi               10.1021/acs.orglett.5b01474
_journal_volume                  17
_journal_year                    2015
_chemical_formula_sum            'C28 H24 F3 N O5 S'
_chemical_formula_weight         543.54
_chemical_name_systematic
; 
 ? 
;
_space_group_crystal_system      triclinic
_space_group_IT_number           2
_space_group_name_Hall           '-P 1'
_space_group_name_H-M_alt        'P -1'
_symmetry_space_group_name_Hall  '-P 1'
_symmetry_space_group_name_H-M   'P -1'
_atom_sites_solution_hydrogens   geom
_audit_creation_method           SHELXL-2013
_cell_angle_alpha                84.126(6)
_cell_angle_beta                 79.909(7)
_cell_angle_gamma                65.828(7)
_cell_formula_units_Z            4
_cell_length_a                   12.978(4)
_cell_length_b                   13.576(4)
_cell_length_c                   16.636(5)
_cell_measurement_reflns_used    2514
_cell_measurement_temperature    293(2)
_cell_measurement_theta_max      56.173
_cell_measurement_theta_min      4.803
_cell_volume                     2631.2(14)
_computing_cell_refinement       'Bruker SMART'
_computing_data_collection       'Bruker SMART'
_computing_data_reduction        'Bruker SHELXTL'
_computing_molecular_graphics    'Bruker SHELXTL'
_computing_publication_material  'Bruker SHELXTL'
_computing_structure_refinement  'SHELXL-2013 (Sheldrick, 2013)'
_computing_structure_solution    'Bruker SHELXTL'
_diffrn_ambient_temperature      293(2)
_diffrn_measured_fraction_theta_full 0.994
_diffrn_measured_fraction_theta_max 0.994
_diffrn_measurement_device_type  'CCD area detector'
_diffrn_measurement_method       'phi and omega scans'
_diffrn_radiation_type           MoK\a
_diffrn_radiation_wavelength     0.71073
_diffrn_reflns_av_R_equivalents  0.0333
_diffrn_reflns_av_unetI/netI     0.0632
_diffrn_reflns_laue_measured_fraction_full 0.994
_diffrn_reflns_laue_measured_fraction_max 0.994
_diffrn_reflns_limit_h_max       8
_diffrn_reflns_limit_h_min       -15
_diffrn_reflns_limit_k_max       14
_diffrn_reflns_limit_k_min       -16
_diffrn_reflns_limit_l_max       20
_diffrn_reflns_limit_l_min       -20
_diffrn_reflns_number            15384
_diffrn_reflns_point_group_measured_fraction_full 0.994
_diffrn_reflns_point_group_measured_fraction_max 0.994
_diffrn_reflns_theta_full        25.242
_diffrn_reflns_theta_max         25.500
_diffrn_reflns_theta_min         1.739
_exptl_absorpt_coefficient_mu    0.183
_exptl_absorpt_correction_T_max  0.7457
_exptl_absorpt_correction_T_min  0.6109
_exptl_absorpt_correction_type   multi-scan
_exptl_absorpt_process_details   sadabs
_exptl_crystal_colour            colorless
_exptl_crystal_density_diffrn    1.372
_exptl_crystal_description       prismatic
_exptl_crystal_F_000             1128
_exptl_crystal_size_max          0.176
_exptl_crystal_size_mid          0.123
_exptl_crystal_size_min          0.087
_refine_diff_density_max         0.405
_refine_diff_density_min         -0.332
_refine_diff_density_rms         0.054
_refine_ls_extinction_method     none
_refine_ls_goodness_of_fit_ref   1.032
_refine_ls_hydrogen_treatment    constr
_refine_ls_matrix_type           full
_refine_ls_number_parameters     689
_refine_ls_number_reflns         9752
_refine_ls_number_restraints     12
_refine_ls_restrained_S_all      1.037
_refine_ls_R_factor_all          0.1123
_refine_ls_R_factor_gt           0.0691
_refine_ls_shift/su_max          0.003
_refine_ls_shift/su_mean         0.000
_refine_ls_structure_factor_coef Fsqd
_refine_ls_weighting_details
'w=1/[\s^2^(Fo^2^)+(0.0778P)^2^+1.4556P] where P=(Fo^2^+2Fc^2^)/3'
_refine_ls_weighting_scheme      calc
_refine_ls_wR_factor_gt          0.1698
_refine_ls_wR_factor_ref         0.1931
_reflns_Friedel_coverage         0.000
_reflns_number_gt                6140
_reflns_number_total             9752
_reflns_threshold_expression     'I > 2\s(I)'
_cod_data_source_file            ol5b01474_si_004.cif
_cod_data_source_block           cd214457
_cod_depositor_comments
'Adding full bibliography for 1529370--1529373.cif.'
_cod_original_cell_volume        2631.1(12)
_cod_database_code               1529371
_shelx_space_group_comment
; 
The symmetry employed for this shelxl refinement is uniquely defined 
by the following loop, which should always be used as a source of 
symmetry information in preference to the above space-group names. 
They are only intended as comments. 
;
_shelxl_version_number           2013-4
_shelx_res_file
; 
TITL cd214457 in P-1 
CELL 0.71073  12.9780  13.5756  16.6361  84.126  79.909  65.828 
ZERR    4.00   0.0035   0.0036   0.0045   0.006   0.007   0.007 
LATT 1 
SFAC C  H  N  O  F  S 
UNIT 112 96 4 20 12 4 
OMIT 0 1 0 
OMIT -8  -9   6 
OMIT    -3   1   0 
OMIT    -5  -6   3 
OMIT    -5   2   0 
OMIT  -3.00  51.00 
L.S. 10 
ACTA 
BOND  $H 
FMAP 2 
PLAN 20 
HTAB C55 O7_$4 
HTAB C37 O10_$5 
EQIV $5 -x, -y+2, -z+1 
HTAB C34 O10 
HTAB C33 O9_$4 
EQIV $4 -x+1, -y+1, -z+1 
HTAB C33 F3_$3 
EQIV $3 x, y, z-1 
HTAB C23 O2_$2 
EQIV $2 -x+1, -y+2, -z+2 
HTAB C9 O5_$1 
EQIV $1 -x+2, -y+1, -z+2 
HTAB C6 O5 
HTAB C5 F4 
conf 
htab 
mpla c10 > c15 
mpla c16 > c21 
mpla c22 > c27 
mpla c38 > c43 
mpla c44 > c49 
mpla c50 > c55 
wpdb -1 
isor 0.01 o2 o7 
WGHT    0.077800    1.455600 
FVAR       0.13491 
MOLE 1 
S1    6    0.798740    0.737408    1.130289    11.00000    0.06483    0.06204 = 
         0.05006   -0.01235   -0.01832   -0.02250 
S2    6    0.131572    0.740249    0.631091    11.00000    0.07177    0.05443 = 
         0.04286   -0.00349   -0.00230   -0.02654 
N1    3    0.742229    0.678002    1.081239    11.00000    0.04290    0.04612 = 
         0.04532   -0.00969   -0.01263   -0.00764 
N2    3    0.213364    0.799992    0.583840    11.00000    0.05587    0.04609 = 
         0.04979    0.00041   -0.01039   -0.01667 
O1    4    0.887040    0.647330    0.747285    11.00000    0.09884    0.06609 = 
         0.05214   -0.00904   -0.00916   -0.02520 
O2    4    0.432376    0.920560    0.990955    11.00000    0.10300    0.14846 = 
         0.12394   -0.05373   -0.05934    0.06012 
O3    4    0.503377    0.813697    0.888514    11.00000    0.06924    0.08162 = 
         0.07630   -0.00278   -0.03363   -0.02123 
O4    4    0.704479    0.820762    1.172765    11.00000    0.08406    0.08608 = 
         0.06447   -0.03744   -0.00223   -0.03280 
O5    4    0.880294    0.654165    1.172994    11.00000    0.09381    0.08315 = 
         0.06680    0.00870   -0.04779   -0.03566 
O6    4    0.119062    0.864920    0.270115    11.00000    0.07831    0.06648 = 
         0.06571   -0.00711   -0.03054   -0.01680 
O7    4    0.567669    0.573798    0.500835    11.00000    0.07911    0.17651 = 
         0.10784    0.03855   -0.00199    0.02878 
O8    4    0.527698    0.673226    0.390443    11.00000    0.05680    0.09360 = 
         0.07445    0.01495   -0.00198   -0.00959 
O9    4    0.205435    0.647532    0.671159    11.00000    0.10208    0.06572 = 
         0.05250    0.01139   -0.02643   -0.03643 
O10   4    0.036910    0.819977    0.676989    11.00000    0.08703    0.07246 = 
         0.05737   -0.02017    0.01783   -0.03687 
F1    5    0.459917    0.719452    1.093142    11.00000    0.09115    0.21795 = 
         0.12156   -0.04942    0.01858   -0.10227 
F2    5    0.476909    0.833282    1.158018    11.00000    0.08490    0.11732 = 
         0.11220   -0.05690    0.02987   -0.01589 
F3    5    0.566274    0.672731    1.184350    11.00000    0.09154    0.14711 = 
         0.09309    0.02960    0.01939   -0.01977 
F4    5    0.338056    0.784251    0.695251    11.00000    0.14056    0.11347 = 
         0.09238   -0.03465   -0.06762   -0.00668 
F5    5    0.447116    0.627258    0.660889    11.00000    0.11710    0.09541 = 
         0.08743    0.01210   -0.05570   -0.00077 
F6    5    0.485953    0.758333    0.606297    11.00000    0.11858    0.16815 = 
         0.16898    0.02781   -0.08395   -0.08620 
C1    1    0.631703    0.739405    1.059358    11.00000    0.04501    0.04656 = 
         0.04960   -0.01444   -0.00671   -0.01088 
C2    1    0.532332    0.741825    1.122760    11.00000    0.05833    0.07002 = 
         0.06665   -0.00603   -0.00250   -0.01338 
C3    1    0.616410    0.785314    0.986980    11.00000    0.04706    0.05340 = 
         0.05398   -0.00657   -0.01220   -0.01100 
AFIX  43 
H3    2    0.681881    0.777943    0.950338    11.00000   -1.20000 
AFIX   0 
C4    1    0.505968    0.847775    0.957162    11.00000    0.05945    0.06691 = 
         0.06681   -0.00449   -0.01933   -0.00513 
C5    1    0.402141    0.873697    0.849931    11.00000    0.08318    0.11502 = 
         0.10287    0.00486   -0.06084   -0.02757 
AFIX 137 
H5A   2    0.336308    0.870526    0.884938    11.00000   -1.50000 
H5B   2    0.410456    0.842533    0.798687    11.00000   -1.50000 
H5C   2    0.392811    0.947650    0.840692    11.00000   -1.50000 
AFIX   0 
C6    1    0.817259    0.576729    1.039082    11.00000    0.04175    0.04284 = 
         0.04442   -0.00532   -0.01155   -0.00839 
AFIX  13 
H6    2    0.881184    0.539773    1.070001    11.00000   -1.20000 
AFIX   0 
C7    1    0.866741    0.595018    0.955303    11.00000    0.04393    0.04357 = 
         0.05212   -0.00648   -0.00863   -0.01266 
C8    1    0.908613    0.607439    0.888587    11.00000    0.05070    0.04720 = 
         0.05876   -0.00534   -0.00376   -0.01604 
C9    1    0.961839    0.621987    0.805514    11.00000    0.06725    0.06121 = 
         0.05964   -0.00114    0.00162   -0.01794 
AFIX  23 
H9A   2    0.988159    0.679496    0.804674    11.00000   -1.20000 
H9B   2    1.027997    0.556148    0.790442    11.00000   -1.20000 
AFIX   0 
C10   1    0.799054    0.746990    0.748860    11.00000    0.07878    0.06706 = 
         0.05144    0.00797   -0.01055   -0.03920 
C11   1    0.781369    0.825776    0.800152    11.00000    0.07884    0.05904 = 
         0.06612    0.00799   -0.01503   -0.03352 
AFIX  43 
H11   2    0.831056    0.813537    0.837663    11.00000   -1.20000 
AFIX   0 
C12   1    0.689562    0.924261    0.796737    11.00000    0.09195    0.05747 = 
         0.09723    0.00908   -0.01745   -0.03224 
AFIX  43 
H12   2    0.677327    0.977242    0.832847    11.00000   -1.20000 
AFIX   0 
C13   1    0.617178    0.944761    0.741615    11.00000    0.10058    0.07779 = 
         0.12223    0.02056   -0.03725   -0.03789 
AFIX  43 
H13   2    0.555556    1.011129    0.739855    11.00000   -1.20000 
AFIX   0 
C14   1    0.635943    0.866829    0.688851    11.00000    0.10569    0.10358 = 
         0.09847    0.03184   -0.05195   -0.05159 
AFIX  43 
H14   2    0.587497    0.880890    0.650141    11.00000   -1.20000 
AFIX   0 
C15   1    0.726445    0.766522    0.691958    11.00000    0.11867    0.09648 = 
         0.07278    0.01107   -0.03042   -0.06397 
AFIX  43 
H15   2    0.737964    0.713325    0.656257    11.00000   -1.20000 
AFIX   0 
C16   1    0.753717    0.505061    1.044844    11.00000    0.04202    0.04149 = 
         0.04813   -0.00411   -0.00593   -0.00820 
C17   1    0.733077    0.454786    1.118574    11.00000    0.08062    0.06045 = 
         0.05871    0.00025   -0.00704   -0.02454 
AFIX  43 
H17   2    0.761891    0.463061    1.163657    11.00000   -1.20000 
AFIX   0 
C18   1    0.671153    0.393294    1.126187    11.00000    0.10118    0.07501 = 
         0.08400    0.00985    0.00749   -0.04291 
AFIX  43 
H18   2    0.657636    0.359908    1.176187    11.00000   -1.20000 
AFIX   0 
C19   1    0.629071    0.380880    1.060232    11.00000    0.08267    0.07992 = 
         0.12912    0.00200   -0.00499   -0.04999 
AFIX  43 
H19   2    0.585110    0.340370    1.065639    11.00000   -1.20000 
AFIX   0 
C20   1    0.650932    0.427360    0.986487    11.00000    0.08016    0.07409 = 
         0.10628   -0.00328   -0.02461   -0.04041 
AFIX  43 
H20   2    0.623927    0.416785    0.941273    11.00000   -1.20000 
AFIX   0 
C21   1    0.712454    0.489456    0.978903    11.00000    0.06382    0.05710 = 
         0.06280    0.00145   -0.01379   -0.02555 
AFIX  43 
H21   2    0.726606    0.521595    0.928463    11.00000   -1.20000 
AFIX   0 
C22   1    0.871759    0.795886    1.057106    11.00000    0.04889    0.05352 = 
         0.06306   -0.01676   -0.02130   -0.01302 
C23   1    0.812831    0.892266    1.018068    11.00000    0.05118    0.05615 = 
         0.08295   -0.00923   -0.02216   -0.01347 
AFIX  43 
H23   2    0.733979    0.926654    1.031441    11.00000   -1.20000 
AFIX   0 
C24   1    0.869878    0.937212    0.959954    11.00000    0.06654    0.06158 = 
         0.08657    0.00444   -0.03440   -0.02245 
AFIX  43 
H24   2    0.828952    1.002516    0.934418    11.00000   -1.20000 
AFIX   0 
C25   1    0.986714    0.888616    0.937865    11.00000    0.07709    0.07737 = 
         0.06708   -0.00805   -0.01907   -0.03824 
C26   1    1.043223    0.792572    0.978661    11.00000    0.05201    0.08354 = 
         0.09347   -0.01665   -0.01046   -0.01731 
AFIX  43 
H26   2    1.122136    0.758193    0.965712    11.00000   -1.20000 
AFIX   0 
C27   1    0.987713    0.746031    1.037346    11.00000    0.05548    0.06071 = 
         0.08341   -0.00625   -0.01987   -0.00907 
AFIX  43 
H27   2    1.028416    0.681182    1.063514    11.00000   -1.20000 
AFIX   0 
C28   1    1.050352    0.936462    0.873529    11.00000    0.10583    0.14028 = 
         0.08642    0.00664   -0.01650   -0.07121 
AFIX 137 
H28A  2    0.998691    1.005776    0.855439    11.00000   -1.50000 
H28B  2    1.083524    0.889526    0.828133    11.00000   -1.50000 
H28C  2    1.109689    0.944794    0.895719    11.00000   -1.50000 
AFIX   0 
C29   1    0.332888    0.738447    0.564682    11.00000    0.05942    0.04699 = 
         0.05084    0.00220   -0.01648   -0.01807 
C30   1    0.402529    0.726726    0.631784    11.00000    0.08985    0.07383 = 
         0.08184   -0.00572   -0.04046   -0.01720 
C31   1    0.378714    0.700140    0.492735    11.00000    0.05017    0.05830 = 
         0.05508    0.00330   -0.01338   -0.01001 
AFIX  43 
H31   2    0.328870    0.710334    0.455751    11.00000   -1.20000 
AFIX   0 
C32   1    0.501880    0.641924    0.463183    11.00000    0.06112    0.07180 = 
         0.07633    0.00613   -0.01703   -0.00317 
C33   1    0.647233    0.624272    0.354534    11.00000    0.06095    0.12153 = 
         0.10990    0.01496    0.01423   -0.01100 
AFIX 137 
H33A  2    0.694358    0.623683    0.393237    11.00000   -1.50000 
H33B  2    0.660369    0.665312    0.306304    11.00000   -1.50000 
H33C  2    0.665833    0.551524    0.340370    11.00000   -1.50000 
AFIX   0 
C34   1    0.160639    0.910740    0.547966    11.00000    0.04994    0.04635 = 
         0.04889   -0.00387   -0.00788   -0.01509 
AFIX  13 
H34   2    0.079897    0.940214    0.571981    11.00000   -1.20000 
AFIX   0 
C35   1    0.164242    0.912120    0.458986    11.00000    0.05129    0.04133 = 
         0.05764   -0.00136   -0.01068   -0.01699 
C36   1    0.166500    0.915973    0.387623    11.00000    0.06405    0.04650 = 
         0.05197    0.00043   -0.01519   -0.01885 
C37   1    0.167216    0.927001    0.299009    11.00000    0.09038    0.05555 = 
         0.05536    0.00367   -0.02093   -0.02294 
AFIX  23 
H37A  2    0.125477    1.002360    0.284351    11.00000   -1.20000 
H37B  2    0.245424    0.905852    0.272155    11.00000   -1.20000 
AFIX   0 
C38   1    0.181744    0.755537    0.264568    11.00000    0.06947    0.06464 = 
         0.03776   -0.00463   -0.00638   -0.02813 
C39   1    0.128435    0.700096    0.236088    11.00000    0.08429    0.10611 = 
         0.06164   -0.02471   -0.00568   -0.05140 
AFIX  43 
H39   2    0.054960    0.736301    0.223034    11.00000   -1.20000 
AFIX   0 
C40   1    0.183927    0.592361    0.227243    11.00000    0.13779    0.11304 = 
         0.08400   -0.04132    0.01451   -0.07922 
AFIX  43 
H40   2    0.148561    0.554379    0.207553    11.00000   -1.20000 
AFIX   0 
C41   1    0.290647    0.539065    0.246781    11.00000    0.15039    0.06568 = 
         0.08664   -0.02013    0.02052   -0.03802 
AFIX  43 
H41   2    0.327944    0.464825    0.240599    11.00000   -1.20000 
AFIX   0 
C42   1    0.343062    0.593400    0.275210    11.00000    0.09925    0.06566 = 
         0.07592   -0.00846   -0.00537   -0.01270 
AFIX  43 
H42   2    0.416096    0.556238    0.288865    11.00000   -1.20000 
AFIX   0 
C43   1    0.289638    0.702235    0.284000    11.00000    0.06924    0.06749 = 
         0.05818   -0.00418   -0.01389   -0.02286 
AFIX  43 
H43   2    0.326040    0.739786    0.302958    11.00000   -1.20000 
AFIX   0 
C44   1    0.212832    0.980340    0.574415    11.00000    0.05483    0.04150 = 
         0.05882   -0.00561   -0.01528   -0.01349 
C45   1    0.175347    1.019862    0.651936    11.00000    0.09850    0.07299 = 
         0.06158   -0.01700   -0.01521   -0.03645 
AFIX  43 
H45   2    0.115644    1.007071    0.684271    11.00000   -1.20000 
AFIX   0 
C46   1    0.223488    1.076750    0.681904    11.00000    0.12768    0.08755 = 
         0.08963   -0.02918   -0.02894   -0.03719 
AFIX  43 
H46   2    0.197099    1.102792    0.734424    11.00000   -1.20000 
AFIX   0 
C47   1    0.310834    1.095893    0.634984    11.00000    0.10292    0.07158 = 
         0.13155   -0.02640   -0.05852   -0.02712 
AFIX  43 
H47   2    0.345577    1.133439    0.655976    11.00000   -1.20000 
AFIX   0 
C48   1    0.347653    1.059952    0.556900    11.00000    0.07117    0.07275 = 
         0.13685   -0.01154   -0.01807   -0.03876 
AFIX  43 
H48   2    0.405900    1.074886    0.524386    11.00000   -1.20000 
AFIX   0 
C49   1    0.298359    1.001552    0.526401    11.00000    0.06656    0.06108 = 
         0.08210   -0.01602   -0.00872   -0.02505 
AFIX  43 
H49   2    0.323361    0.976861    0.473448    11.00000   -1.20000 
AFIX   0 
C50   1    0.080822    0.699265    0.555914    11.00000    0.05107    0.05079 = 
         0.04940   -0.00039   -0.00087   -0.02040 
C51   1   -0.029864    0.754263    0.542696    11.00000    0.06478    0.06573 = 
         0.08144   -0.01743   -0.00789   -0.01687 
AFIX  43 
H51   2   -0.078161    0.814495    0.572705    11.00000   -1.20000 
AFIX   0 
C52   1   -0.068619    0.718899    0.484137    11.00000    0.06705    0.08610 = 
         0.09320   -0.00296   -0.02568   -0.02482 
AFIX  43 
H52   2   -0.143817    0.756514    0.474929    11.00000   -1.20000 
AFIX   0 
C53   1   -0.000174    0.630165    0.438954    11.00000    0.07411    0.07520 = 
         0.06124    0.00182   -0.01370   -0.03792 
C54   1    0.111983    0.578326    0.452590    11.00000    0.07127    0.06511 = 
         0.06180   -0.01461   -0.00415   -0.02645 
AFIX  43 
H54   2    0.161178    0.519379    0.421574    11.00000   -1.20000 
AFIX   0 
C55   1    0.152330    0.611524    0.510467    11.00000    0.06014    0.05793 = 
         0.06078   -0.00799   -0.00895   -0.02034 
AFIX  43 
H55   2    0.227900    0.574882    0.519074    11.00000   -1.20000 
AFIX   0 
C56   1   -0.046274    0.591581    0.377839    11.00000    0.10694    0.12370 = 
         0.08067   -0.00455   -0.02666   -0.07548 
AFIX 137 
H56A  2   -0.123437    0.600849    0.398455    11.00000   -1.50000 
H56B  2   -0.000124    0.516511    0.368456    11.00000   -1.50000 
H56C  2   -0.044799    0.632660    0.327446    11.00000   -1.50000 
AFIX   0 
HKLF 4 
  
REM  cd214457 in P-1 
REM R1 =  0.0691 for    6140 Fo > 4sig(Fo)  and  0.1123 for all    9752 data 
REM    689 parameters refined using     12 restraints 
  
END 
  
WGHT      0.0746      1.5101 
  
REM Instructions for potential hydrogen bonds 
HTAB C5 F4 
HTAB C6 O5 
HTAB C9 O5_$1 
HTAB C23 O2_$2 
HTAB C33 F3_$3 
HTAB C33 O9_$4 
HTAB C34 O10 
HTAB C37 O10_$5 
HTAB C55 O7_$4 
  
REM Highest difference peak  0.405,  deepest hole -0.332,  1-sigma level  0.054 
Q1    1   0.4291  0.8279  1.0955  11.00000  0.05    0.41 
Q2    1   0.5419  0.6423  1.1321  11.00000  0.05    0.39 
Q3    1   0.5228  0.7636  1.1872  11.00000  0.05    0.29 
Q4    1   0.5844  0.6646  0.4972  11.00000  0.05    0.29 
Q5    1   0.8399  0.7796  1.0964  11.00000  0.05    0.27 
Q6    1   0.4382  0.7067  1.1000  11.00000  0.05    0.24 
Q7    1   0.0583  0.8808  0.6662  11.00000  0.05    0.24 
Q8    1   0.4745  0.9574  0.9438  11.00000  0.05    0.24 
Q9    1   0.1643  0.7807  0.5878  11.00000  0.05    0.23 
Q10   1   0.9019  0.6465  0.9268  11.00000  0.05    0.21 
Q11   1   1.0290  0.8609  0.9777  11.00000  0.05    0.20 
Q12   1   0.0788  0.6975  0.6054  11.00000  0.05    0.19 
Q13   1   0.0803  0.7387  0.2937  11.00000  0.05    0.19 
Q14   1   0.7845  0.5415  1.0218  11.00000  0.05    0.19 
Q15   1   0.0430  0.8435  0.7210  11.00000  0.05    0.19 
Q16   1   0.1787  0.6161  0.7188  11.00000  0.05    0.19 
Q17   1   0.4817  0.8628  0.7317  11.00000  0.05    0.19 
Q18   1   0.3974  0.8261  0.6414  11.00000  0.05    0.19 
Q19   1   0.8445  0.8473  1.0590  11.00000  0.05    0.18 
Q20   1   0.0502  0.7814  0.3841  11.00000  0.05    0.18 
;
_shelx_res_checksum              26324
_shelx_hkl_file
; 
  -1   0   0    0.00    0.01 
   1   0   0    0.01    0.01 
  -2   0   0    9.51    0.26 
  -3   0   0  109.29    2.65 
  -4   0   0   13.72    0.39 
  -4   0   0   14.29    0.78 
  -5   0   0    1.16    0.28 
  -5   0   0    1.32    0.09 
  -6   0   0   77.14    1.91 
  -6   0   0   75.60    3.02 
  -7   0   0    0.24    0.05 
  -7   0   0    0.13    0.22 
  -8   0   0    1.19    0.37 
  -8   0   0    1.61    0.11 
  -9   0   0    0.36    0.08 
  -9   0   0    0.22    0.31 
 -10   0   0    0.80    0.12 
 -10   0   0    0.40    0.35 
 -11   0   0   -0.01    0.30 
 -12   0   0    1.73    0.57 
 -13   0   0    0.16    0.40 
 -14   0   0    0.07    0.46 
 -15   0   0   -0.46    0.50 
 -15   1   0    0.07    0.59 
 -14   1   0   -0.57    0.44 
 -13   1   0    0.39    0.47 
 -12   1   0    0.35    0.45 
 -11   1   0    0.13    0.35 
 -10   1   0    0.33    0.07 
 -10   1   0    0.44    0.32 
  -9   1   0    4.94    0.23 
  -9   1   0    3.96    0.69 
  -8   1   0    4.45    0.21 
  -8   1   0    4.00    0.64 
  -7   1   0    1.46    0.10 
  -7   1   0    1.62    0.38 
  -6   1   0   36.16    0.97 
  -6   1   0   35.93    1.69 
  -5   1   0   50.67    1.30 
   4  -1   0    0.07    0.02 
   3  -1   0    0.00    0.01 
   2  -1   0    1.31    0.08 
   1  -1   0   -0.53    0.04 
   0  -1   0    2.89    0.11 
   0  -1   0    2.82    0.14 
  -1  -1   0    0.55    0.07 
  -1  -1   0    0.74    0.05 
  -2  -1   0    6.27    0.34 
  -2  -1   0    6.29    0.19 
  -3  -1   0   10.62    0.29 
  -3  -1   0    9.76    0.55 
  -4  -1   0    6.02    0.47 
  -4  -1   0    5.35    0.19 
  -5  -1   0    1.35    0.09 
  -5  -1   0    1.04    0.26 
  -6  -1   0    1.86    0.11 
  -6  -1   0    1.76    0.37 
  -7  -1   0    0.35    0.23 
  -7  -1   0    0.43    0.08 
  -8  -1   0    0.44    0.08 
  -8  -1   0    0.69    0.33 
  -9  -1   0    0.26    0.08 
  -9  -1   0    0.26    0.28 
 -10  -1   0    2.24    0.54 
 -10  -1   0    2.48    0.16 
 -11  -1   0    5.24    0.84 
 -12  -1   0    0.49    0.43 
 -13  -1   0    0.37    0.47 
 -14  -1   0    0.31    0.56 
 -15  -1   0    0.04    0.53 
 -14   2   0   -0.09    0.49 
 -13   2   0   -0.28    0.39 
 -12   2   0    0.82    0.51 
 -11   2   0    0.51    0.40 
 -10   2   0    1.41    0.46 
  -9   2   0    0.62    0.34 
  -9   2   0    1.46    0.15 
  -8   2   0    4.86    0.70 
  -8   2   0    5.51    0.25 
  -7   2   0    5.24    0.65 
  -7   2   0    5.00    0.23 
  -6   2   0    0.96    0.12 
   5  -2   0    3.71    0.19 
   4  -2   0    1.70    0.11 
   3  -2   0   20.76    0.60 
   2  -2   0  518.24   12.39 
   1  -2   0   57.93    1.46 
   0  -2   0  424.57   10.02 
   0  -2   0  414.34   13.89 
   0   2   0  417.87   12.22 
  -2  -2   0    1.34    0.09 
  -2  -2   0    1.61    0.17 
  -3  -2   0  345.12    8.11 
  -3  -2   0  332.09   11.27 
  -4  -2   0   49.07    1.22 
  -4  -2   0   47.61    1.88 
  -5  -2   0   57.28    1.43 
  -5  -2   0   56.87    2.26 
  -6  -2   0   15.79    0.90 
  -6  -2   0   13.46    0.42 
  -7  -2   0   18.10    1.08 
  -7  -2   0   19.20    0.55 
  -8  -2   0    0.79    0.31 
  -8  -2   0    0.72    0.10 
  -9  -2   0   -0.01    0.07 
  -9  -2   0    0.21    0.27 
 -10  -2   0    1.07    0.42 
 -10  -2   0    1.57    0.15 
 -11  -2   0    0.74    0.40 
 -12  -2   0    4.20    0.83 
 -13  -2   0    0.63    0.49 
 -14  -2   0    0.44    0.57 
 -15  -2   0    0.82    0.76 
 -16  -2   0   -0.57    0.66 
 -14   3   0    0.08    0.50 
 -13   3   0    0.11    0.45 
 -12   3   0   -0.25    0.36 
 -11   3   0    0.24    0.38 
 -10   3   0    0.55    0.39 
  -9   3   0    2.03    0.19 
  -9   3   0    2.53    0.58 
  -8   3   0    1.45    0.15 
  -8   3   0    0.82    0.38 
  -7   3   0    0.09    0.19 
  -7   3   0    0.17    0.06 
   6  -3   0    9.95    0.39 
   5  -3   0    0.67    0.10 
   4  -3   0    0.26    0.06 
   3  -3   0    0.95    0.12 
   2  -3   0    2.14    0.14 
   1  -3   0   -0.01    0.04 
  -1   3   0   -0.03    0.06 
   0  -3   0   65.39    1.64 
   0  -3   0   64.48    2.27 
   0   3   0   65.28    2.01 
  -1  -3   0   24.55    0.68 
  -1  -3   0   25.11    0.94 
   1   3   0   25.82    0.83 
  -2  -3   0    9.72    0.46 
  -3  -3   0   92.24    3.33 
  -3  -3   0   97.78    2.35 
  -4  -3   0  200.22    4.75 
  -4  -3   0  192.33    6.71 
  -5  -3   0    4.92    0.46 
  -5  -3   0    5.29    0.21 
  -6  -3   0    7.50    0.61 
  -6  -3   0    7.91    0.29 
  -7  -3   0    1.91    0.15 
  -7  -3   0    2.24    0.42 
  -8  -3   0    0.07    0.07 
  -8  -3   0   -0.23    0.15 
  -9  -3   0    0.84    0.13 
  -9  -3   0    0.64    0.32 
 -10  -3   0    5.00    0.78 
 -10  -3   0    5.99    0.27 
 -11  -3   0    0.84    0.44 
 -12  -3   0    0.02    0.36 
 -13  -3   0    0.30    0.53 
 -14  -3   0   -0.27    0.56 
 -15  -3   0    0.29    0.71 
 -16  -3   0   -0.94    0.75 
 -13   4   0   -0.02    0.43 
 -12   4   0    1.05    0.55 
 -11   4   0    0.29    0.42 
 -10   4   0    0.41    0.37 
  -9   4   0    1.21    0.46 
  -9   4   0    1.32    0.16 
  -8   4   0    3.49    0.62 
  -8   4   0    3.79    0.23 
   7  -4   0    0.13    0.05 
   6  -4   0    0.15    0.06 
   5  -4   0    6.12    0.29 
   4  -4   0   33.50    0.98 
   3  -4   0    0.04    0.03 
   2  -4   0  106.02    2.69 
  -2   4   0  108.00    3.39 
   1  -4   0    8.94    0.34 
  -1   4   0    9.50    0.45 
   0  -4   0    1.78    0.19 
   0  -4   0    1.45    0.13 
   0   4   0    1.48    0.16 
  -1  -4   0    9.53    0.46 
  -1  -4   0    9.88    0.34 
   1   4   0   10.30    0.41 
  -2  -4   0    5.56    0.31 
  -3  -4   0    9.04    0.51 
  -3  -4   0    9.61    0.33 
  -4  -4   0    3.85    0.20 
  -4  -4   0    3.78    0.36 
  -5  -4   0    3.91    0.42 
  -5  -4   0    3.15    0.19 
  -6  -4   0    5.17    0.48 
  -6  -4   0    5.50    0.23 
  -7  -4   0    1.18    0.13 
  -7  -4   0    1.31    0.35 
  -8  -4   0    4.44    0.61 
  -8  -4   0    3.84    0.20 
  -9  -4   0    3.00    0.18 
  -9  -4   0    2.46    0.53 
 -10  -4   0    0.32    0.08 
 -10  -4   0    0.34    0.32 
 -11  -4   0    0.44    0.42 
 -11  -4   0    0.32    0.08 
 -12  -4   0    6.97    1.02 
 -13  -4   0   -0.31    0.38 
 -14  -4   0    1.08    0.69 
 -15  -4   0   -0.43    0.64 
 -16  -4   0   -0.09    0.67 
 -13   5   0    0.21    0.52 
 -12   5   0    0.49    0.46 
 -11   5   0   -0.14    0.34 
 -10   5   0   -0.13    0.33 
  -9   5   0    0.14    0.31 
  -9   5   0    0.12    0.08 
   8  -5   0    0.24    0.08 
  -8   5   0    0.11    0.27 
   7  -5   0    0.64    0.11 
   6  -5   0   23.79    0.80 
   5  -5   0    0.56    0.12 
   4  -5   0    4.13    0.24 
   3  -5   0    0.05    0.04 
  -3   5   0    0.06    0.10 
   2  -5   0    1.26    0.15 
  -2   5   0    0.97    0.20 
   1  -5   0    2.27    0.19 
  -1   5   0    2.46    0.25 
   0  -5   0    1.52    0.21 
   0  -5   0    1.13    0.13 
   0   5   0    1.85    0.19 
  -1  -5   0    9.78    0.37 
  -1  -5   0    9.98    0.49 
   1   5   0   10.19    0.44 
  -2  -5   0   31.10    0.88 
  -2  -5   0   30.48    1.19 
  -3  -5   0   19.48    0.60 
  -4  -5   0   13.34    0.44 
  -4  -5   0   12.98    0.70 
  -5  -5   0    4.48    0.22 
  -5  -5   0    4.33    0.40 
  -6  -5   0   15.23    0.87 
  -6  -5   0   13.26    0.47 
  -7  -5   0   20.87    1.15 
  -8  -5   0    0.25    0.22 
  -8  -5   0    0.27    0.08 
  -9  -5   0    6.62    0.80 
  -9  -5   0    7.59    0.32 
 -10  -5   0    1.39    0.46 
 -10  -5   0    0.98    0.13 
 -11  -5   0    6.41    0.95 
 -11  -5   0    7.69    0.33 
 -12  -5   0    1.53    0.61 
 -13  -5   0    0.07    0.51 
 -14  -5   0   -0.35    0.46 
 -15  -5   0    0.21    0.60 
 -16  -5   0   -0.51    0.54 
 -11   6   0    0.25    0.42 
 -10   6   0   -0.07    0.37 
  -9   6   0    0.26    0.09 
  -9   6   0    0.23    0.32 
   8  -6   0    4.08    0.28 
  -8   6   0    4.28    0.71 
   7  -6   0   11.71    0.52 
   6  -6   0   25.09    0.87 
   5  -6   0   27.93    0.91 
  -5   6   0   27.17    1.30 
   4  -6   0   70.53    1.93 
  -4   6   0   70.53    2.55 
   3  -6   0   14.24    0.53 
  -3   6   0   12.26    0.71 
   2  -6   0   11.48    0.46 
  -2   6   0   12.06    0.63 
   1  -6   0    3.50    0.21 
  -1   6   0    3.51    0.28 
   0  -6   0   80.00    2.11 
   0  -6   0   80.18    2.90 
   0   6   0   80.96    2.56 
  -1  -6   0   50.63    1.94 
  -1  -6   0   54.01    1.44 
   1   6   0   52.94    1.72 
  -2  -6   0    2.45    0.22 
  -2  -6   0    2.31    0.19 
   2   6   0    2.50    0.20 
  -3  -6   0   11.22    0.41 
  -3  -6   0   10.69    0.56 
  -4  -6   0   16.97    0.56 
  -4  -6   0   16.19    0.81 
  -5  -6   0    5.11    0.25 
  -5  -6   0    5.07    0.45 
  -6  -6   0    0.57    0.11 
  -6  -6   0    0.54    0.24 
  -7  -6   0   30.80    0.91 
  -7  -6   0   30.89    1.50 
  -8  -6   0   -0.07    0.10 
  -8  -6   0   -0.47    0.13 
  -9  -6   0    2.44    0.54 
  -9  -6   0    1.44    0.19 
 -10  -6   0    1.16    0.45 
 -10  -6   0    0.52    0.17 
 -11  -6   0    1.05    0.19 
 -11  -6   0    1.43    0.56 
 -12  -6   0    0.08    0.40 
 -13  -6   0    0.48    0.56 
 -14  -6   0   -0.27    0.55 
 -15  -6   0    0.87    0.70 
 -16  -6   0    0.01    0.52 
 -11   7   0    0.31    0.37 
 -10   7   0    0.68    0.42 
  -9   7   0    0.53    0.38 
  -9   7   0    0.81    0.46 
   8  -7   0    0.08    0.07 
  -8   7   0    0.05    0.28 
  -8   7   0   -0.09    0.24 
   7  -7   0    2.54    0.28 
  -7   7   0    2.15    0.50 
   6  -7   0   11.13    0.52 
  -6   7   0   11.16    0.83 
   5  -7   0    6.85    0.38 
  -5   7   0    6.74    0.59 
   4  -7   0    4.64    0.30 
  -4   7   0    3.93    0.48 
   3  -7   0    2.82    0.26 
  -3   7   0    2.10    0.34 
   2  -7   0    0.17    0.06 
  -2   7   0   -0.03    0.08 
   1  -7   0    0.37    0.09 
  -1   7   0    0.20    0.12 
   0  -7   0    5.27    0.28 
   0   7   0    5.28    0.34 
  -1  -7   0    3.08    0.21 
  -1  -7   0    3.30    0.28 
   1   7   0    3.28    0.25 
  -2  -7   0    3.11    0.27 
  -2  -7   0    3.07    0.21 
   2   7   0    3.47    0.26 
  -3  -7   0    6.78    0.32 
  -3  -7   0    6.64    0.42 
  -4  -7   0    1.89    0.18 
  -5  -7   0   31.93    0.95 
  -5  -7   0   30.90    1.37 
  -6  -7   0   32.14    0.94 
  -6  -7   0   30.08    1.42 
  -7  -7   0    1.08    0.15 
  -7  -7   0    0.96    0.32 
  -8  -7   0    1.71    0.42 
  -8  -7   0    1.45    0.18 
  -9  -7   0    0.93    0.15 
  -9  -7   0    0.85    0.43 
 -10  -7   0    0.39    0.13 
 -10  -7   0    0.01    0.36 
 -11  -7   0    8.74    1.04 
 -11  -7   0    9.04    0.42 
 -12  -7   0    0.58    0.52 
 -13  -7   0    0.28    0.54 
 -14  -7   0    0.71    0.65 
 -15  -7   0    0.18    0.57 
 -16  -7   0   -0.07    0.55 
 -10   8   0   -0.28    0.33 
  -9   8   0    0.09    0.32 
   8  -8   0    0.95    0.14 
  -8   8   0    1.14    0.41 
   7  -8   0    0.60    0.14 
  -7   8   0    1.08    0.41 
  -7   8   0    0.88    0.40 
   6  -8   0    4.72    0.32 
  -6   8   0    4.96    0.66 
   5  -8   0    1.18    0.20 
  -5   8   0    1.53    0.40 
   4  -8   0    2.17    0.27 
  -4   8   0    2.92    0.43 
   3  -8   0    5.34    0.33 
  -3   8   0    5.26    0.45 
   2  -8   0    1.93    0.23 
  -2   8   0    1.11    0.23 
   1  -8   0    2.74    0.26 
  -1   8   0    2.63    0.31 
   0  -8   0    6.18    0.32 
   0   8   0    5.50    0.38 
  -1  -8   0    5.55    0.30 
  -1  -8   0    5.18    0.38 
   1   8   0    4.54    0.32 
  -2  -8   0    4.65    0.35 
  -2  -8   0    4.29    0.26 
   2   8   0    3.89    0.30 
  -3  -8   0    7.04    0.45 
  -3  -8   0    7.04    0.34 
  -4  -8   0    3.11    0.35 
  -4  -8   0    2.69    0.24 
  -5  -8   0    0.51    0.16 
  -5  -8   0    1.30    0.16 
  -6  -8   0    3.58    0.23 
  -6  -8   0    3.69    0.46 
  -7  -8   0    4.47    0.26 
  -7  -8   0    4.70    0.57 
  -8  -8   0   -0.23    0.15 
  -8  -8   0    0.17    0.08 
  -9  -8   0   11.78    0.47 
  -9  -8   0   10.52    0.89 
 -10  -8   0    9.06    0.41 
 -10  -8   0    9.26    0.89 
 -11  -8   0    2.10    0.23 
 -11  -8   0    1.75    0.62 
 -12  -8   0    0.80    0.52 
 -13  -8   0    0.08    0.47 
 -14  -8   0   -0.50    0.52 
 -15  -8   0    0.36    0.55 
 -16  -8   0    0.24    0.59 
   8  -9   0    0.04    0.08 
  -8   9   0    0.24    0.35 
   7  -9   0    1.90    0.25 
  -7   9   0    1.16    0.43 
   6  -9   0    1.72    0.24 
  -6   9   0    1.77    0.44 
   5  -9   0    0.43    0.15 
  -5   9   0    0.53    0.30 
   4  -9   0    0.13    0.08 
  -4   9   0   -0.06    0.23 
   3  -9   0    1.03    0.19 
  -3   9   0    1.33    0.27 
   2  -9   0    0.00    0.08 
  -2   9   0    0.16    0.12 
   1  -9   0   -0.05    0.07 
  -1   9   0    0.06    0.09 
   0  -9   0    7.19    0.40 
   0   9   0    8.29    0.48 
  -1  -9   0    0.67    0.18 
  -1  -9   0    0.54    0.13 
   1   9   0    0.28    0.11 
  -2  -9   0    2.88    0.28 
  -2  -9   0    3.73    0.32 
   2   9   0    4.02    0.31 
  -3  -9   0    1.65    0.20 
  -3  -9   0    2.17    0.31 
  -4  -9   0    1.94    0.30 
  -4  -9   0    1.72    0.19 
  -5  -9   0    0.65    0.12 
  -5  -9   0    0.55    0.17 
  -6  -9   0   21.30    0.72 
  -6  -9   0   18.45    1.01 
  -7  -9   0    0.21    0.07 
  -7  -9   0   -0.07    0.16 
  -8  -9   0    0.08    0.08 
  -8  -9   0   -0.10    0.16 
  -9  -9   0    0.03    0.36 
  -9  -9   0    0.28    0.09 
 -10  -9   0    5.35    0.84 
 -10  -9   0    4.81    0.29 
 -11  -9   0    0.36    0.10 
 -11  -9   0    0.42    0.45 
 -12  -9   0   -0.44    0.40 
 -13  -9   0    0.54    0.59 
 -14  -9   0    1.56    0.67 
 -15  -9   0    0.64    0.53 
 -16  -9   0   -0.01    0.56 
   7 -10   0    0.42    0.11 
   6 -10   0    2.38    0.28 
   5 -10   0    0.04    0.08 
  -5  10   0    0.00    0.27 
   4 -10   0    2.33    0.30 
  -4  10   0    2.12    0.44 
   3 -10   0    3.55    0.36 
  -3  10   0    3.07    0.45 
   2 -10   0    1.09    0.20 
  -2  10   0    1.42    0.26 
   1 -10   0    0.55    0.15 
  -1  10   0    0.69    0.19 
   0 -10   0    0.08    0.09 
   0  10   0    0.09    0.10 
  -1 -10   0    0.16    0.09 
   1  10   0    0.01    0.09 
  -2 -10   0    2.42    0.28 
  -2 -10   0    2.94    0.28 
   2  10   0    3.09    0.34 
  -3 -10   0    1.06    0.22 
  -3 -10   0    0.15    0.10 
  -4 -10   0    2.28    0.34 
  -4 -10   0    1.90    0.23 
  -5 -10   0   -0.10    0.08 
  -5 -10   0    0.07    0.08 
  -6 -10   0    2.63    0.27 
  -6 -10   0    1.22    0.27 
  -7 -10   0    0.22    0.12 
  -7 -10   0    0.18    0.17 
  -8 -10   0   20.64    0.77 
  -8 -10   0   22.47    1.20 
  -9 -10   0   11.41    0.51 
  -9 -10   0   11.43    0.91 
 -10 -10   0    0.61    0.14 
 -10 -10   0    0.03    0.40 
 -11 -10   0    1.39    0.19 
 -11 -10   0    1.20    0.49 
 -12 -10   0    0.52    0.12 
 -12 -10   0    0.39    0.50 
 -13 -10   0    0.12    0.58 
 -14 -10   0    0.02    0.55 
 -15 -10   0   -0.61    0.50 
 -16 -10   0   -0.71    0.44 
   7 -11   0    0.51    0.11 
   6 -11   0    0.46    0.16 
   5 -11   0    0.21    0.12 
   4 -11   0    0.52    0.14 
   3 -11   0    0.22    0.10 
   2 -11   0    0.44    0.13 
  -2  11   0    0.50    0.24 
   1 -11   0    0.45    0.15 
  -1  11   0    0.52    0.15 
   0 -11   0    5.40    0.38 
   0  11   0    6.59    0.45 
  -1 -11   0    4.22    0.38 
   1  11   0    4.13    0.34 
  -2 -11   0    4.49    0.39 
   2  11   0    4.00    0.35 
  -3 -11   0    5.94    0.38 
  -4 -11   0    0.75    0.18 
  -5 -11   0    4.25    0.37 
  -5 -11   0    4.55    0.39 
  -6 -11   0    6.33    0.39 
  -6 -11   0    7.31    0.53 
  -7 -11   0    0.16    0.13 
  -7 -11   0    0.11    0.09 
  -8 -11   0    5.20    0.64 
  -8 -11   0    4.58    0.32 
  -9 -11   0    0.15    0.33 
  -9 -11   0    0.33    0.10 
 -10 -11   0    1.18    0.51 
 -10 -11   0    0.94    0.17 
 -11 -11   0    0.65    0.50 
 -11 -11   0    0.76    0.15 
 -12 -11   0    0.31    0.09 
 -12 -11   0    0.50    0.53 
 -13 -11   0   -0.30    0.41 
 -14 -11   0    0.63    0.63 
 -15 -11   0    0.54    0.65 
 -16 -11   0    0.17    0.54 
   7 -12   0    0.61    0.15 
   6 -12   0    0.94    0.17 
   5 -12   0   -0.15    0.07 
   4 -12   0   -0.04    0.10 
   3 -12   0    1.44    0.23 
   2 -12   0    1.12    0.21 
   1 -12   0    0.91    0.21 
   0 -12   0    4.22    0.41 
  -1 -12   0    0.47    0.15 
  -2 -12   0    3.65    0.37 
   2  12   0    3.24    0.37 
  -3 -12   0    4.19    0.40 
  -4 -12   0    0.37    0.15 
  -5 -12   0    0.11    0.13 
  -7 -12   0    0.80    0.18 
  -8 -12   0    0.60    0.16 
  -8 -12   0    0.32    0.23 
  -9 -12   0    2.83    0.57 
  -9 -12   0    2.77    0.32 
 -10 -12   0    1.33    0.54 
 -10 -12   0    1.13    0.19 
 -11 -12   0    0.47    0.46 
 -11 -12   0    0.95    0.18 
 -12 -12   0    0.57    0.09 
 -12 -12   0   -0.10    0.48 
 -13 -12   0    0.28    0.56 
 -14 -12   0    0.15    0.54 
 -15 -12   0   -0.08    0.53 
 -16 -12   0   -0.26    0.43 
   6 -13   0    0.53    0.12 
   5 -13   0    0.03    0.10 
   4 -13   0   -0.14    0.09 
   3 -13   0    0.20    0.08 
   2 -13   0    0.09    0.10 
   1 -13   0    0.18    0.11 
   0 -13   0    0.50    0.17 
  -1 -13   0    0.57    0.18 
  -2 -13   0    0.07    0.12 
  -3 -13   0    4.03    0.41 
  -4 -13   0    0.08    0.11 
  -5 -13   0    7.44    0.47 
  -6 -13   0    0.66    0.17 
  -7 -13   0    0.44    0.15 
  -8 -13   0    0.07    0.10 
  -9 -13   0    0.46    0.15 
 -10 -13   0    0.16    0.33 
 -10 -13   0    0.45    0.15 
 -11 -13   0   -0.40    0.34 
 -11 -13   0    0.25    0.10 
 -12 -13   0    0.84    0.53 
 -12 -13   0    0.52    0.13 
 -13 -13   0    0.50    0.57 
 -14 -13   0    0.42    0.52 
 -15 -13   0    1.07    0.58 
   4 -14   0    0.07    0.10 
   3 -14   0    0.05    0.12 
   2 -14   0    0.28    0.12 
   1 -14   0    0.83    0.20 
   0 -14   0    0.05    0.11 
  -1 -14   0    0.19    0.12 
  -2 -14   0    0.13    0.11 
  -3 -14   0    0.05    0.15 
  -4 -14   0    2.51    0.33 
  -5 -14   0    0.54    0.17 
  -6 -14   0    0.00    0.09 
  -7 -14   0    0.00    0.11 
  -8 -14   0   -0.15    0.09 
  -9 -14   0    0.13    0.11 
 -10 -14   0    0.94    0.20 
 -11 -14   0   -0.16    0.16 
 -12 -14   0    0.80    0.15 
   3 -15   0    0.13    0.11 
   2 -15   0    0.02    0.10 
   1 -15   0    0.03    0.10 
   0 -15   0    0.83    0.19 
  -1 -15   0    0.14    0.12 
  -2 -15   0    0.56    0.20 
  -3 -15   0    0.17    0.17 
  -4 -15   0    1.71    0.29 
  -5 -15   0    0.00    0.10 
  -6 -15   0    0.95    0.24 
  -7 -15   0    0.31    0.14 
  -8 -15   0    0.12    0.14 
  -9 -15   0    0.08    0.11 
 -10 -15   0    0.10    0.13 
 -11 -15   0    0.16    0.12 
 -12 -15   0    0.13    0.09 
 -12 -15   0    0.11    0.09 
   1 -16   0    0.08    0.11 
   0 -16   0   -0.09    0.13 
  -1 -16   0    0.18    0.14 
  -2 -16   0    0.69    0.17 
  -3 -16   0    0.15    0.13 
  -4 -16   0    0.21    0.14 
  -5 -16   0    0.27    0.15 
  -6 -16   0    0.07    0.13 
  -7 -16   0   -0.15    0.12 
  -8 -16   0    1.02    0.22 
  -9 -16   0    0.76    0.20 
 -10 -16   0    0.13    0.13 
 -11 -16   0    0.24    0.14 
 -12 -16   0    0.17    0.11 
  -2 -17   0    0.32    0.15 
  -3 -17   0    0.97    0.21 
  -4 -17   0    0.12    0.16 
  -5 -17   0    0.24    0.15 
  -6 -17   0    0.17    0.15 
  -7 -17   0    0.05    0.12 
  -8 -17   0    0.17    0.14 
  -9 -17   0    0.12    0.15 
 -10 -17   0    0.46    0.14 
 -11 -17   0    0.40    0.12 
  -6 -18   0   -0.10    0.13 
  -7 -18   0    0.13    0.13 
 -11 -17   1    0.67    0.15 
 -10 -17   1   -0.06    0.12 
  -9 -17   1    0.12    0.15 
  -8 -17   1   -0.04    0.12 
  -7 -17   1    0.25    0.15 
  -6 -17   1   -0.11    0.13 
  -5 -17   1    0.05    0.12 
  -4 -17   1    0.29    0.18 
  -3 -17   1    0.50    0.14 
  -2 -17   1    0.24    0.15 
 -12 -16   1    0.03    0.09 
 -12 -16   1    0.05    0.09 
 -11 -16   1   -0.11    0.12 
 -10 -16   1    0.25    0.14 
  -9 -16   1    0.62    0.17 
  -8 -16   1   -0.08    0.13 
  -7 -16   1    0.10    0.12 
  -6 -16   1    0.43    0.17 
  -5 -16   1    0.29    0.15 
  -4 -16   1    0.10    0.14 
  -3 -16   1    0.24    0.11 
  -2 -16   1    0.49    0.16 
  -1 -16   1    0.62    0.19 
   0 -16   1   -0.05    0.11 
   1 -16   1    0.64    0.14 
 -12 -15   1    0.26    0.11 
 -11 -15   1    0.06    0.09 
 -10 -15   1    0.42    0.14 
  -9 -15   1    0.25    0.11 
  -8 -15   1    0.22    0.13 
  -7 -15   1   -0.04    0.15 
  -6 -15   1    0.47    0.15 
  -5 -15   1    0.03    0.13 
  -4 -15   1    1.21    0.25 
  -3 -15   1    0.19    0.12 
  -2 -15   1   -0.01    0.10 
  -1 -15   1    0.38    0.14 
   0 -15   1    0.20    0.10 
   1 -15   1    0.27    0.11 
   2 -15   1    0.10    0.15 
   3 -15   1   -0.18    0.14 
 -12 -14   1    0.11    0.15 
 -11 -14   1    0.30    0.12 
 -10 -14   1    0.16    0.11 
  -9 -14   1    0.61    0.17 
  -8 -14   1    0.28    0.12 
  -7 -14   1    0.68    0.17 
  -6 -14   1    1.32    0.26 
  -5 -14   1    1.28    0.24 
  -4 -14   1    0.22    0.15 
  -3 -14   1    0.31    0.15 
  -2 -14   1    0.24    0.14 
  -1 -14   1    0.63    0.17 
   0 -14   1   -0.01    0.08 
   1 -14   1    0.59    0.21 
   2 -14   1    0.22    0.15 
   3 -14   1   -0.06    0.09 
   4 -14   1   -0.05    0.11 
 -15 -13   1    0.26    0.45 
 -14 -13   1   -0.08    0.50 
 -13 -13   1    0.98    0.57 
 -12 -13   1    1.17    0.53 
 -12 -13   1    0.66    0.13 
 -11 -13   1    0.25    0.13 
 -10 -13   1    0.08    0.11 
  -9 -13   1    0.61    0.16 
  -8 -13   1    3.35    0.36 
  -7 -13   1    0.26    0.13 
  -6 -13   1    1.39    0.24 
  -5 -13   1    1.79    0.27 
  -4 -13   1    0.25    0.13 
  -3 -13   1   -0.12    0.11 
  -2 -13   1    0.72    0.20 
  -1 -13   1    0.70    0.20 
   0 -13   1    1.57    0.27 
   1 -13   1   -0.01    0.10 
   2 -13   1    0.40    0.11 
   3 -13   1    0.00    0.09 
   4 -13   1    0.13    0.10 
   5 -13   1    0.63    0.16 
   6 -13   1    0.71    0.19 
 -15 -12   1    0.31    0.52 
 -14 -12   1    0.29    0.56 
 -13 -12   1    0.33    0.52 
 -12 -12   1   -0.01    0.09 
 -12 -12   1   -0.01    0.45 
 -11 -12   1    2.29    0.65 
 -11 -12   1    2.31    0.27 
 -10 -12   1    1.36    0.21 
 -10 -12   1    1.58    0.50 
  -9 -12   1    0.25    0.10 
  -9 -12   1    0.39    0.37 
  -7 -12   1    2.37    0.29 
  -6 -12   1    0.79    0.17 
  -5 -12   1    0.72    0.18 
  -4 -12   1    1.53    0.25 
  -3 -12   1    0.19    0.13 
   2  12  -1    0.74    0.18 
  -2 -12   1    0.89    0.19 
   1  12  -1    1.92    0.30 
  -1 -12   1    2.51    0.32 
   0  12  -1    0.34    0.22 
   0 -12   1    0.57    0.14 
  -1  12  -1    0.53    0.25 
   1 -12   1    1.01    0.19 
   2 -12   1   -0.07    0.09 
   3 -12   1    0.19    0.11 
   4 -12   1   -0.07    0.09 
   5 -12   1   -0.08    0.10 
   6 -12   1   -0.13    0.09 
   7 -12   1   -0.15    0.08 
 -16 -11   1    0.24    0.54 
 -15 -11   1    0.27    0.59 
 -14 -11   1    0.15    0.58 
 -13 -11   1    0.59    0.62 
 -12 -11   1    0.36    0.52 
 -12 -11   1    0.66    0.13 
 -11 -11   1    0.68    0.50 
 -11 -11   1    1.00    0.17 
 -10 -11   1    0.44    0.11 
 -10 -11   1    0.26    0.40 
  -9 -11   1    0.39    0.11 
  -9 -11   1    0.37    0.37 
  -8 -11   1    0.49    0.13 
  -8 -11   1    1.22    0.29 
  -7 -11   1    4.30    0.41 
  -7 -11   1    4.12    0.36 
  -6 -11   1    3.29    0.34 
  -6 -11   1    3.84    0.31 
  -4 -11   1    1.31    0.22 
  -3 -11   1    0.17    0.11 
   2  11  -1    1.88    0.29 
  -2 -11   1    1.51    0.24 
   1  11  -1    4.42    0.37 
  -1 -11   1    4.45    0.39 
   0  11  -1    1.94    0.30 
   0 -11   1    1.79    0.27 
  -1  11  -1    0.09    0.16 
   1 -11   1   -0.11    0.07 
  -2  11  -1    0.87    0.29 
   2 -11   1    0.47    0.14 
  -3  11  -1    0.41    0.29 
   3 -11   1    0.68    0.17 
  -4  11  -1    0.30    0.28 
   4 -11   1    0.20    0.10 
   5 -11   1    0.69    0.15 
   6 -11   1   -0.04    0.09 
   7 -11   1    1.33    0.19 
 -16 -10   1    0.04    0.47 
 -15 -10   1    0.49    0.57 
 -14 -10   1    0.29    0.62 
 -13 -10   1   -0.06    0.49 
 -12 -10   1   -0.29    0.46 
 -12 -10   1    0.01    0.07 
 -11 -10   1    0.25    0.51 
 -11 -10   1    0.34    0.10 
 -10 -10   1    1.36    0.20 
 -10 -10   1    0.90    0.50 
  -9 -10   1    1.99    0.24 
  -9 -10   1    2.37    0.56 
  -8 -10   1    3.01    0.30 
  -8 -10   1    3.01    0.50 
  -7 -10   1    2.66    0.27 
  -6 -10   1    0.07    0.11 
  -6 -10   1    0.05    0.09 
  -5 -10   1    3.51    0.33 
  -5 -10   1    3.51    0.31 
  -4 -10   1    0.77    0.16 
   1  10  -1    0.63    0.16 
  -1 -10   1    0.32    0.12 
   0  10  -1    1.04    0.22 
   0 -10   1    1.52    0.23 
  -1  10  -1    2.37    0.33 
   1 -10   1    2.50    0.29 
  -2  10  -1    2.33    0.35 
   2 -10   1    2.39    0.28 
  -3  10  -1    0.06    0.22 
   3 -10   1    0.09    0.10 
  -4  10  -1    0.79    0.33 
   4 -10   1    0.63    0.17 
  -5  10  -1    0.53    0.31 
   5 -10   1    0.33    0.10 
  -6  10  -1    0.22    0.30 
   6 -10   1    0.43    0.11 
  -7  10  -1    0.09    0.33 
   7 -10   1    0.18    0.10 
 -16  -9   1   -0.05    0.46 
 -15  -9   1   -0.08    0.54 
 -14  -9   1    0.08    0.56 
 -13  -9   1    0.79    0.63 
 -12  -9   1    1.26    0.58 
 -12  -9   1    1.23    0.19 
 -11  -9   1    0.77    0.16 
 -11  -9   1    0.98    0.49 
 -10  -9   1    5.68    0.87 
 -10  -9   1    4.90    0.30 
  -9  -9   1    1.17    0.48 
  -9  -9   1    0.77    0.15 
  -8  -9   1   14.78    0.93 
  -8  -9   1   13.88    0.56 
  -7  -9   1    1.60    0.33 
  -7  -9   1    1.28    0.18 
  -6  -9   1    0.13    0.08 
  -6  -9   1    0.25    0.11 
  -5  -9   1    0.10    0.06 
  -5  -9   1    0.29    0.12 
  -4  -9   1    3.58    0.25 
  -4  -9   1    3.63    0.31 
  -3  -9   1    1.06    0.20 
  -3  -9   1    0.99    0.16 
   2   9  -1    1.83    0.26 
  -2  -9   1    1.42    0.20 
  -2  -9   1    2.03    0.26 
   1   9  -1    4.30    0.35 
  -1  -9   1    5.86    0.34 
  -1  -9   1    4.23    0.29 
   0   9  -1    0.72    0.18 
   0  -9   1    0.70    0.16 
  -1   9  -1    0.37    0.14 
   1  -9   1    0.58    0.14 
  -2   9  -1    2.61    0.36 
   2  -9   1    2.65    0.29 
  -3   9  -1    1.14    0.26 
   3  -9   1    0.95    0.18 
  -4   9  -1    4.17    0.55 
   4  -9   1    4.18    0.36 
  -5   9  -1    2.11    0.44 
   5  -9   1    2.31    0.29 
  -6   9  -1    0.33    0.29 
   6  -9   1    0.44    0.13 
  -7   9  -1    1.07    0.42 
   7  -9   1    2.14    0.26 
  -8   9  -1    0.22    0.39 
  -9   9  -1   -0.24    0.32 
 -16  -8   1    0.20    0.57 
 -15  -8   1    0.17    0.51 
 -14  -8   1    0.35    0.59 
 -13  -8   1    1.80    0.64 
 -12  -8   1    2.10    0.70 
 -12  -8   1    1.74    0.24 
 -11  -8   1    0.37    0.15 
 -11  -8   1    0.56    0.49 
 -10  -8   1    0.91    0.17 
 -10  -8   1    1.45    0.52 
  -9  -8   1    0.33    0.33 
  -9  -8   1    0.44    0.13 
  -8  -8   1    1.00    0.16 
  -8  -8   1    0.84    0.32 
  -7  -8   1    0.39    0.24 
  -7  -8   1    0.09    0.06 
  -6  -8   1    0.85    0.25 
  -6  -8   1    0.37    0.10 
  -5  -8   1   27.08    0.86 
  -5  -8   1   26.51    1.20 
  -4  -8   1   -0.12    0.04 
  -4  -8   1   -0.02    0.06 
  -3  -8   1    1.35    0.17 
  -3  -8   1    1.13    0.19 
   2   8  -1    1.31    0.22 
  -2  -8   1    1.82    0.22 
  -2  -8   1    1.41    0.18 
   1   8  -1    1.54    0.23 
  -1  -8   1    2.12    0.25 
  -1  -8   1    1.95    0.21 
   0   8  -1    2.36    0.29 
   0  -8   1    2.36    0.24 
  -1   8  -1    4.12    0.36 
   1  -8   1    4.43    0.27 
  -2   8  -1    0.07    0.11 
   2  -8   1   -0.01    0.07 
  -3   8  -1    0.42    0.19 
   3  -8   1    0.59    0.14 
  -4   8  -1    1.34    0.35 
   4  -8   1    1.30    0.21 
  -5   8  -1    0.60    0.31 
   5  -8   1    0.95    0.17 
  -6   8  -1    1.60    0.44 
   6  -8   1    1.48    0.22 
  -7   8  -1    0.34    0.32 
   7  -8   1    0.74    0.14 
  -8   8  -1   -0.10    0.30 
   8  -8   1    0.16    0.07 
  -9   8  -1   -0.15    0.37 
 -10   8  -1    0.67    0.43 
 -11   8  -1    0.40    0.50 
 -16  -7   1    0.16    0.52 
 -15  -7   1    0.18    0.61 
 -14  -7   1    0.47    0.58 
 -13  -7   1   -0.14    0.51 
 -12  -7   1    1.65    0.64 
 -12  -7   1    1.60    0.26 
 -11  -7   1    5.00    0.83 
 -10  -7   1    0.12    0.14 
 -10  -7   1    0.37    0.39 
  -9  -7   1    4.33    0.30 
  -9  -7   1    5.90    0.79 
  -8  -7   1   18.70    1.11 
  -8  -7   1   17.21    0.62 
  -7  -7   1    8.06    0.66 
  -7  -7   1    8.45    0.37 
  -6  -7   1    8.58    0.37 
  -6  -7   1    8.19    0.60 
  -5  -7   1   18.10    0.90 
  -4  -7   1    1.86    0.26 
  -4  -7   1    1.97    0.20 
  -3  -7   1    3.41    0.22 
  -3  -7   1    3.40    0.25 
   2   7  -1   -0.15    0.08 
  -2  -7   1    0.08    0.07 
  -2  -7   1    0.15    0.06 
   1   7  -1   12.65    0.60 
  -1  -7   1   12.83    0.49 
  -1  -7   1   12.61    0.61 
   0   7  -1    3.72    0.30 
   0  -7   1    4.12    0.24 
  -1   7  -1    5.38    0.38 
   1  -7   1    4.33    0.26 
  -2   7  -1    6.31    0.47 
   2  -7   1    7.40    0.35 
  -3   7  -1   15.43    0.84 
   3  -7   1   15.69    0.59 
  -4   7  -1   15.83    0.88 
   4  -7   1   13.85    0.57 
  -5   7  -1   16.33    0.99 
   5  -7   1   17.37    0.66 
  -6   7  -1   21.83    1.25 
  -6   7  -1   19.32    1.16 
   6  -7   1   20.65    0.76 
  -7   7  -1   10.67    0.96 
  -7   7  -1   11.76    0.90 
   7  -7   1   12.20    0.54 
  -8   7  -1    0.07    0.28 
  -8   7  -1    0.13    0.32 
   8  -7   1    0.23    0.08 
  -9   7  -1    1.10    0.42 
 -10   7  -1    0.43    0.37 
 -11   7  -1    0.24    0.38 
 -16  -6   1   -0.01    0.47 
 -15  -6   1   -0.14    0.52 
 -14  -6   1    0.22    0.57 
 -13  -6   1    0.45    0.58 
 -12  -6   1    0.12    0.43 
 -11  -6   1    1.10    0.50 
 -11  -6   1    1.92    0.20 
 -10  -6   1    0.68    0.42 
 -10  -6   1    0.47    0.11 
  -9  -6   1    0.30    0.34 
  -9  -6   1    0.15    0.08 
  -8  -6   1    0.15    0.09 
  -8  -6   1    0.02    0.21 
  -7  -6   1    2.24    0.43 
  -7  -6   1    1.13    0.17 
  -6  -6   1    2.55    0.22 
  -6  -6   1    2.94    0.44 
  -5  -6   1   75.33    2.87 
  -5  -6   1   78.44    2.01 
  -3  -6   1    2.13    0.16 
  -3  -6   1    2.31    0.21 
   2   6  -1    1.60    0.21 
  -2  -6   1    1.53    0.15 
  -2  -6   1    1.31    0.15 
   1   6  -1    8.31    0.43 
  -1  -6   1    7.87    0.34 
  -1  -6   1    8.49    0.42 
   0   6  -1   75.02    2.40 
   0  -6   1   72.84    1.95 
  -1   6  -1    2.24    0.27 
   1  -6   1    1.97    0.19 
  -2   6  -1    0.20    0.13 
   2  -6   1    0.14    0.06 
  -3   6  -1    4.49    0.40 
   3  -6   1    4.63    0.25 
  -4   6  -1    0.33    0.21 
   4  -6   1    0.59    0.11 
  -5   6  -1    2.61    0.43 
   5  -6   1    3.28    0.22 
  -6   6  -1    2.62    0.50 
  -6   6  -1    2.89    0.51 
   6  -6   1    2.51    0.24 
  -7   6  -1    0.98    0.39 
   7  -6   1    1.00    0.16 
  -8   6  -1    0.76    0.40 
   8  -6   1    1.50    0.20 
  -9   6  -1    0.06    0.35 
 -10   6  -1    0.05    0.35 
 -11   6  -1    0.93    0.53 
 -16  -5   1   -0.20    0.53 
 -15  -5   1    0.45    0.63 
 -14  -5   1   -0.21    0.46 
 -13  -5   1    0.19    0.52 
 -12  -5   1    0.80    0.50 
 -11  -5   1    7.76    0.99 
 -11  -5   1    8.68    0.38 
 -10  -5   1    1.09    0.46 
 -10  -5   1    1.51    0.17 
  -9  -5   1    7.05    0.32 
  -9  -5   1    7.64    0.85 
  -8  -5   1   13.85    0.49 
  -8  -5   1   14.31    0.94 
  -7  -5   1    0.38    0.25 
  -7  -5   1    0.56    0.11 
  -6  -5   1    6.63    0.29 
  -6  -5   1    6.93    0.57 
  -5  -5   1    1.27    0.28 
  -5  -5   1    0.88    0.14 
  -4  -5   1   96.42    2.42 
  -4  -5   1   94.49    3.42 
  -3  -5   1    0.60    0.10 
  -3  -5   1    0.78    0.16 
   2   5  -1   13.59    0.58 
  -2  -5   1   13.59    0.60 
  -2  -5   1   14.50    0.47 
   1   5  -1   37.16    1.28 
  -1  -5   1   37.53    1.04 
  -1  -5   1   37.40    1.37 
   0   5  -1   -0.03    0.07 
   0  -5   1    0.24    0.07 
  -1   5  -1    7.87    0.44 
   1  -5   1    7.26    0.31 
  -2   5  -1   11.74    0.62 
   2  -5   1   12.09    0.44 
  -3   5  -1    0.47    0.17 
   3  -5   1    0.58    0.10 
  -4   5  -1   38.69    1.60 
   4  -5   1   40.99    1.16 
   5  -5   1  102.77    2.67 
  -6   5  -1    0.91    0.32 
   6  -5   1    1.17    0.15 
  -7   5  -1    2.24    0.48 
   7  -5   1    2.10    0.22 
  -8   5  -1    3.65    0.65 
   8  -5   1    3.21    0.22 
  -9   5  -1    0.00    0.31 
 -10   5  -1    0.61    0.41 
 -11   5  -1   -0.11    0.37 
 -12   5  -1   -0.05    0.39 
 -16  -4   1    0.34    0.78 
 -15  -4   1   -0.64    0.54 
 -14  -4   1   -0.28    0.46 
 -13  -4   1   -0.07    0.40 
 -12  -4   1    0.15    0.41 
 -11  -4   1    0.95    0.48 
 -11  -4   1    1.91    0.19 
 -10  -4   1    0.13    0.10 
 -10  -4   1    0.04    0.31 
  -9  -4   1    3.04    0.57 
  -9  -4   1    2.69    0.20 
  -8  -4   1    0.67    0.27 
  -8  -4   1    1.21    0.15 
  -7  -4   1    8.41    0.69 
  -7  -4   1    8.94    0.34 
  -6  -4   1    1.39    0.14 
  -6  -4   1    1.88    0.37 
  -5  -4   1   43.99    1.83 
  -5  -4   1   45.55    1.20 
  -4  -4   1    0.20    0.07 
  -4  -4   1    0.31    0.15 
  -3  -4   1   -0.01    0.06 
  -3  -4   1   -0.07    0.06 
  -2  -4   1   44.45    1.17 
  -2  -4   1   43.79    1.59 
   1   4  -1   14.70    0.58 
  -1  -4   1   14.53    0.58 
  -1  -4   1   14.95    0.47 
   0   4  -1   40.59    1.38 
   0  -4   1   40.47    1.47 
   0  -4   1   42.03    1.11 
  -1   4  -1   22.38    0.89 
   1  -4   1   23.58    0.68 
  -2   4  -1   29.33    1.13 
   2  -4   1   28.47    0.83 
  -3   4  -1    5.98    0.44 
   3  -4   1    6.01    0.26 
   4  -4   1    0.10    0.04 
   5  -4   1    1.60    0.16 
  -6   4  -1    0.38    0.24 
   6  -4   1    0.44    0.08 
  -7   4  -1    0.05    0.20 
   7  -4   1   -0.04    0.03 
  -8   4  -1    0.27    0.29 
   8  -4   1    0.41    0.06 
  -9   4  -1    0.54    0.10 
  -9   4  -1    0.39    0.33 
 -10   4  -1   -0.06    0.30 
 -11   4  -1    0.03    0.35 
 -12   4  -1   -0.12    0.38 
 -13   4  -1   -0.44    0.40 
 -16  -3   1   -0.36    0.84 
 -15  -3   1    0.45    0.67 
 -14  -3   1    0.53    0.61 
 -13  -3   1    0.32    0.51 
 -12  -3   1    1.18    0.53 
 -11  -3   1    4.83    0.26 
 -11  -3   1    3.92    0.77 
 -10  -3   1    0.35    0.36 
 -10  -3   1   -0.03    0.08 
  -9  -3   1    3.48    0.21 
  -9  -3   1    3.58    0.63 
  -8  -3   1    6.40    0.62 
  -8  -3   1    6.06    0.27 
  -7  -3   1    1.98    0.16 
  -7  -3   1    1.56    0.38 
  -6  -3   1    2.00    0.38 
  -6  -3   1    1.91    0.15 
  -5  -3   1    7.01    0.27 
  -5  -3   1    6.82    0.52 
  -4  -3   1   53.00    2.06 
  -4  -3   1   54.16    1.38 
  -3  -3   1   21.41    0.94 
  -3  -3   1   22.65    0.63 
  -2  -3   1  116.14    3.94 
   1   3  -1   15.86    0.57 
  -1  -3   1   15.00    0.45 
  -1  -3   1   15.38    0.59 
   0   3  -1  258.96    7.52 
   0  -3   1  250.63    8.51 
   0  -3   1  256.24    6.16 
  -1   3  -1    0.06    0.07 
   1  -3   1   -0.04    0.03 
  -2   3  -1  303.00    8.85 
   2  -3   1  290.88    7.16 
   3  -3   1    3.04    0.16 
   4  -3   1   54.52    1.45 
   5  -3   1    9.23    0.35 
  -6   3  -1   37.06    1.74 
  -7   3  -1    6.09    0.69 
   7  -3   1    6.49    0.29 
  -8   3  -1    3.10    0.19 
  -8   3  -1    3.70    0.62 
  -9   3  -1    2.17    0.15 
  -9   3  -1    1.86    0.50 
 -10   3  -1    1.07    0.45 
 -11   3  -1    0.05    0.34 
 -12   3  -1    0.33    0.43 
 -13   3  -1    0.36    0.48 
 -14   3  -1   -0.55    0.42 
 -16  -2   1   -0.28    0.77 
 -15  -2   1    0.00    0.63 
 -14  -2   1    0.13    0.61 
 -13  -2   1    0.41    0.52 
 -12  -2   1    0.32    0.47 
 -11  -2   1    0.26    0.10 
 -11  -2   1    0.15    0.32 
 -10  -2   1    0.15    0.28 
 -10  -2   1    0.61    0.12 
  -9  -2   1    1.71    0.16 
  -9  -2   1    0.73    0.35 
  -8  -2   1    1.38    0.39 
  -8  -2   1    1.39    0.14 
  -7  -2   1   14.98    0.96 
  -7  -2   1   13.65    0.44 
  -6  -2   1    8.37    0.30 
  -6  -2   1    9.11    0.68 
  -5  -2   1    6.15    0.51 
  -5  -2   1    6.68    0.24 
  -4  -2   1    0.11    0.07 
  -4  -2   1    0.16    0.14 
  -3  -2   1  326.05    7.86 
  -3  -2   1  330.39   10.96 
  -2  -2   1    1.99    0.19 
  -2  -2   1    2.05    0.12 
   1   2  -1    6.89    0.30 
  -1  -2   1    7.36    0.32 
  -1  -2   1    7.76    0.24 
   0   2  -1   41.00    1.32 
   0   2  -1   42.20    1.48 
   0  -2   1   41.12    1.05 
  -1   2  -1   33.39    1.12 
   1  -2   1   33.07    0.86 
   2  -2   1   14.77    0.43 
   3  -2   1    0.11    0.02 
  -4   2  -1   -0.10    0.11 
   4  -2   1    0.04    0.02 
  -5   2  -1    0.52    0.21 
   5  -2   1    0.54    0.07 
  -6   2  -1    0.64    0.26 
   6  -2   1    0.94    0.11 
  -7   2  -1    0.80    0.30 
  -7   2  -1    1.04    0.11 
  -8   2  -1    3.27    0.60 
  -8   2  -1    3.34    0.18 
  -9   2  -1    0.19    0.05 
  -9   2  -1    0.09    0.28 
 -10   2  -1    2.50    0.60 
 -11   2  -1    0.96    0.46 
 -12   2  -1    0.36    0.40 
 -13   2  -1    0.08    0.44 
 -14   2  -1   -0.05    0.47 
 -15  -1   1   -0.31    0.63 
 -14  -1   1    0.13    0.51 
 -13  -1   1    0.28    0.52 
 -12  -1   1    0.16    0.40 
 -11  -1   1   13.57    1.19 
 -10  -1   1   -0.02    0.23 
 -10  -1   1    0.12    0.08 
  -9  -1   1    1.66    0.47 
  -9  -1   1    2.10    0.16 
  -8  -1   1    1.88    0.15 
  -8  -1   1    1.28    0.38 
  -7  -1   1   -0.22    0.15 
  -7  -1   1    0.07    0.06 
  -6  -1   1    8.91    0.69 
  -6  -1   1    8.22    0.29 
  -5  -1   1   61.71    2.44 
  -5  -1   1   61.16    1.54 
  -4  -1   1    3.36    0.15 
  -3  -1   1   42.10    1.06 
  -2  -1   1   54.69    1.35 
  -1  -1   1  237.99    5.72 
   0   1  -1    2.59    0.14 
   0  -1   1    2.51    0.10 
  -1   1  -1  223.43    7.46 
  -2   1  -1 1000.00   32.29 
   2  -1   1  966.46   23.44 
  -3   1  -1    0.65    0.18 
   3  -1   1    0.79    0.07 
  -4   1  -1    0.05    0.12 
   4  -1   1    0.16    0.03 
  -5   1  -1   19.59    1.04 
   5  -1   1   20.06    0.57 
  -6   1  -1    0.40    0.06 
  -6   1  -1    0.25    0.20 
  -7   1  -1    4.44    0.19 
  -7   1  -1    3.89    0.58 
  -8   1  -1    4.38    0.20 
  -8   1  -1    4.55    0.66 
  -9   1  -1    0.35    0.06 
  -9   1  -1   -0.06    0.25 
 -10   1  -1    0.94    0.42 
 -11   1  -1    0.16    0.34 
 -12   1  -1   -0.04    0.37 
 -13   1  -1    0.54    0.49 
 -14   1  -1   -0.25    0.45 
 -15   1  -1   -0.13    0.56 
 -15   0   1   -0.03    0.59 
 -14   0   1   -0.01    0.50 
 -13   0   1    0.17    0.50 
 -12   0   1    0.25    0.42 
 -11   0   1    0.63    0.38 
 -10   0   1    0.24    0.08 
 -10   0   1    0.19    0.34 
  -9   0   1    0.12    0.06 
  -9   0   1    0.31    0.29 
  -8   0   1    5.81    0.74 
  -8   0   1    6.13    0.25 
  -7   0   1    0.77    0.10 
  -7   0   1    0.40    0.24 
  -6   0   1   18.92    0.55 
  -5   0   1    7.47    0.26 
  -4   0   1   47.30    1.20 
  -3   0   1    0.53    0.06 
  -2   0   1   44.57    1.11 
  -1   0   1  100.70    2.44 
  -1   0  -1    0.86    0.10 
  -2   0  -1   30.16    0.76 
  -2   0  -1   29.90    1.15 
   2   0   1   31.19    0.77 
  -3   0  -1    8.41    0.24 
  -3   0  -1    8.87    0.50 
  -4   0  -1    6.10    0.19 
  -4   0  -1    6.48    0.47 
  -5   0  -1   21.24    0.57 
  -5   0  -1   21.51    1.08 
  -6   0  -1    0.05    0.18 
  -6   0  -1    0.06    0.04 
  -7   0  -1    3.98    0.55 
  -7   0  -1    3.34    0.15 
  -8   0  -1    0.42    0.06 
  -8   0  -1    0.15    0.21 
  -9   0  -1   -0.04    0.04 
  -9   0  -1    0.04    0.27 
 -10   0  -1    2.86    0.61 
 -11   0  -1    0.78    0.43 
 -12   0  -1    0.56    0.48 
 -13   0  -1    1.07    0.55 
 -14   0  -1    0.64    0.51 
 -15   0  -1   -0.04    0.58 
 -14   1   1    0.64    0.70 
 -13   1   1    0.18    0.51 
 -12   1   1   -0.36    0.31 
 -11   1   1    1.95    0.56 
 -10   1   1    0.16    0.29 
 -10   1   1    0.29    0.08 
  -9   1   1    2.29    0.16 
  -9   1   1    2.57    0.59 
  -8   1   1    2.11    0.49 
  -8   1   1    2.48    0.16 
  -7   1   1   -0.06    0.16 
  -7   1   1    0.06    0.04 
  -6   1   1    0.08    0.04 
  -5   1   1   45.85    1.20 
  -4   1   1   31.87    0.85 
  -3   1   1   47.09    1.20 
   2  -1  -1  455.69   10.90 
   1  -1  -1  144.60    3.50 
   0  -1  -1   13.42    0.35 
   0  -1  -1   12.58    0.52 
  -1  -1  -1  454.67   10.98 
  -1  -1  -1  449.57   14.94 
  -2  -1  -1   61.48    1.46 
  -2  -1  -1   55.48    2.06 
   2   1   1   57.62    1.44 
  -3  -1  -1   72.52    2.63 
  -3  -1  -1   74.53    1.79 
  -4  -1  -1  186.21    4.50 
  -4  -1  -1  188.65    6.44 
  -5  -1  -1   28.28    1.30 
  -5  -1  -1   28.41    0.73 
  -6  -1  -1    2.30    0.11 
  -6  -1  -1    3.16    0.44 
  -7  -1  -1   19.64    0.55 
  -7  -1  -1   20.86    1.16 
  -8  -1  -1    0.26    0.07 
  -8  -1  -1    0.08    0.22 
  -9  -1  -1    0.03    0.24 
  -9  -1  -1    0.28    0.07 
 -10  -1  -1    1.58    0.47 
 -11  -1  -1    0.31    0.38 
 -12  -1  -1    0.60    0.45 
 -13  -1  -1   -0.14    0.42 
 -14  -1  -1    0.14    0.57 
 -15  -1  -1    0.26    0.61 
 -14   2   1    0.07    0.56 
 -13   2   1   -0.32    0.36 
 -12   2   1    0.20    0.39 
 -11   2   1   -0.05    0.31 
 -10   2   1    0.07    0.06 
 -10   2   1    0.08    0.34 
  -9   2   1    0.69    0.11 
  -9   2   1    0.24    0.31 
  -8   2   1    0.18    0.28 
  -8   2   1    0.28    0.07 
  -7   2   1   11.32    0.41 
  -6   2   1    3.52    0.19 
  -5   2   1   74.48    1.91 
   4  -2  -1    6.18    0.26 
   3  -2  -1   -0.06    0.03 
   2  -2  -1   42.85    1.13 
   1  -2  -1  173.26    4.21 
   0  -2  -1   29.82    1.14 
   0  -2  -1   30.70    0.79 
   0   2   1   30.20    0.94 
  -1  -2  -1    5.05    0.17 
  -1  -2  -1    4.86    0.27 
  -2  -2  -1    0.04    0.08 
  -2  -2  -1    0.05    0.03 
  -3  -2  -1   16.54    0.79 
  -3  -2  -1   18.39    0.47 
  -4  -2  -1    2.69    0.12 
  -4  -2  -1    2.83    0.33 
  -5  -2  -1    1.16    0.09 
  -5  -2  -1    1.06    0.25 
  -6  -2  -1   10.59    0.33 
  -6  -2  -1   11.16    0.75 
  -7  -2  -1    4.39    0.18 
  -7  -2  -1    4.84    0.58 
  -8  -2  -1    0.22    0.07 
  -8  -2  -1    0.51    0.26 
  -9  -2  -1    0.72    0.10 
  -9  -2  -1    0.59    0.32 
 -10  -2  -1    0.57    0.10 
 -10  -2  -1    0.60    0.36 
 -11  -2  -1    1.94    0.57 
 -12  -2  -1    1.49    0.57 
 -13  -2  -1    0.07    0.40 
 -14  -2  -1    0.56    0.60 
 -15  -2  -1   -0.19    0.55 
 -16  -2  -1    0.21    0.74 
 -14   3   1    0.24    0.55 
 -13   3   1    0.20    0.49 
 -12   3   1   -0.28    0.33 
 -11   3   1    0.28    0.42 
 -10   3   1    1.83    0.55 
 -10   3   1    2.49    0.22 
  -9   3   1    0.40    0.34 
  -9   3   1    1.10    0.14 
  -8   3   1   12.42    1.02 
  -8   3   1   11.57    0.45 
  -7   3   1    4.20    0.23 
   6  -3  -1    1.82    0.18 
   5  -3  -1    0.01    0.03 
   4  -3  -1    0.15    0.05 
   3  -3  -1    6.38    0.27 
   2  -3  -1  127.68    3.17 
   1  -3  -1    6.29    0.25 
   0  -3  -1  117.90    2.72 
   0  -3  -1   93.97    3.75 
   0   3   1  116.84    3.28 
  -1  -3  -1  313.51    7.22 
  -1  -3  -1  296.11    9.96 
   1   3   1  290.17    8.76 
  -2  -3  -1  600.97   19.93 
  -2  -3  -1  609.37   14.45 
  -3  -3  -1    7.74    0.26 
  -3  -3  -1    7.90    0.49 
  -4  -3  -1  115.54    4.21 
  -4  -3  -1  123.12    2.92 
  -5  -3  -1    1.07    0.26 
  -5  -3  -1    1.41    0.10 
  -6  -3  -1   16.07    0.47 
  -6  -3  -1   15.79    0.93 
  -7  -3  -1    0.18    0.06 
  -7  -3  -1   -0.03    0.17 
  -8  -3  -1   23.09    1.31 
  -8  -3  -1   24.65    0.69 
  -9  -3  -1    5.43    0.24 
  -9  -3  -1    5.32    0.71 
 -10  -3  -1    3.14    0.18 
 -10  -3  -1    2.80    0.60 
 -11  -3  -1    0.50    0.37 
 -12  -3  -1    0.35    0.45 
 -13  -3  -1    0.96    0.57 
 -14  -3  -1    1.43    0.75 
 -15  -3  -1    0.13    0.64 
 -16  -3  -1   -0.68    0.65 
 -13   4   1    0.23    0.51 
 -12   4   1    0.20    0.44 
 -11   4   1    0.22    0.47 
 -10   4   1    1.30    0.53 
  -9   4   1    0.68    0.14 
  -9   4   1    0.51    0.36 
  -8   4   1    2.84    0.24 
   7  -4  -1    0.19    0.05 
  -7   4   1    0.04    0.07 
   6  -4  -1    1.60    0.19 
   5  -4  -1   21.68    0.72 
   4  -4  -1   21.15    0.69 
   3  -4  -1   33.46    0.98 
   2  -4  -1   41.08    1.14 
   1  -4  -1    2.35    0.15 
  -1   4   1    2.39    0.20 
   0  -4  -1   18.64    0.57 
   0   4   1   18.96    0.67 
  -1  -4  -1    5.42    0.23 
   1   4   1    5.68    0.25 
  -2  -4  -1   29.66    1.17 
  -2  -4  -1   29.76    0.81 
  -3  -4  -1    0.22    0.07 
  -3  -4  -1    0.19    0.14 
  -4  -4  -1   54.67    1.41 
  -4  -4  -1   55.33    2.10 
  -5  -4  -1    4.42    0.42 
  -5  -4  -1    4.61    0.20 
  -6  -4  -1    0.23    0.20 
  -6  -4  -1    0.14    0.08 
  -7  -4  -1    0.80    0.10 
  -7  -4  -1    0.34    0.26 
  -8  -4  -1   11.62    0.39 
  -8  -4  -1   11.02    0.83 
  -9  -4  -1    2.60    0.53 
  -9  -4  -1    2.58    0.16 
 -10  -4  -1   -0.03    0.27 
 -10  -4  -1    0.12    0.07 
 -11  -4  -1   13.07    1.14 
 -12  -4  -1    0.43    0.43 
 -13  -4  -1    0.24    0.51 
 -14  -4  -1    0.31    0.55 
 -15  -4  -1   -0.72    0.51 
 -16  -4  -1    0.26    0.73 
 -12   5   1    0.24    0.46 
 -11   5   1    0.83    0.47 
 -10   5   1   -0.03    0.31 
  -9   5   1    0.69    0.38 
  -9   5   1    1.12    0.17 
  -8   5   1    4.14    0.28 
   7  -5  -1    9.15    0.44 
   6  -5  -1    6.85    0.35 
   5  -5  -1    1.06    0.15 
   4  -5  -1   43.00    1.25 
   3  -5  -1    0.36    0.08 
   2  -5  -1    5.82    0.28 
  -2   5   1    5.90    0.39 
   1  -5  -1   12.00    0.44 
  -1   5   1   11.95    0.54 
   0  -5  -1    0.45    0.09 
   0  -5  -1    0.34    0.12 
   0   5   1    0.40    0.09 
  -1  -5  -1    1.52    0.15 
   1   5   1    1.49    0.13 
  -3  -5  -1   17.44    0.54 
  -3  -5  -1   17.14    0.80 
  -4  -5  -1    0.52    0.17 
  -4  -5  -1    0.51    0.09 
  -5  -5  -1   71.70    2.76 
  -5  -5  -1   74.59    1.87 
  -6  -5  -1    6.29    0.55 
  -6  -5  -1    7.05    0.28 
  -7  -5  -1    8.99    0.34 
  -7  -5  -1    8.82    0.70 
  -8  -5  -1    0.16    0.10 
  -8  -5  -1    0.13    0.23 
  -9  -5  -1    5.55    0.74 
 -10  -5  -1    0.15    0.09 
 -10  -5  -1    0.08    0.28 
 -11  -5  -1   -0.11    0.35 
 -12  -5  -1    0.90    0.50 
 -13  -5  -1    0.47    0.48 
 -14  -5  -1    0.54    0.56 
 -15  -5  -1    1.03    0.79 
 -16  -5  -1   -0.06    0.67 
 -12   6   1   -0.26    0.48 
 -11   6   1   -0.15    0.38 
 -10   6   1   -0.03    0.35 
  -9   6   1    0.37    0.38 
  -9   6   1    0.51    0.13 
   8  -6  -1    0.49    0.12 
   7  -6  -1    0.96    0.18 
   6  -6  -1    2.60    0.28 
   5  -6  -1    3.60    0.30 
   4  -6  -1    3.50    0.24 
   3  -6  -1    0.54    0.10 
  -3   6   1    0.48    0.17 
   2  -6  -1    0.62    0.11 
  -2   6   1    0.39    0.15 
   1  -6  -1    1.07    0.14 
  -1   6   1    1.02    0.17 
   0  -6  -1   26.33    0.81 
   0  -6  -1   25.33    1.14 
   0   6   1   25.86    0.94 
  -1  -6  -1    1.98    0.27 
  -1  -6  -1    1.78    0.18 
   1   6   1    1.57    0.16 
  -2  -6  -1    0.82    0.17 
  -3  -6  -1    5.72    0.39 
  -3  -6  -1    6.52    0.28 
  -4  -6  -1    0.06    0.06 
  -4  -6  -1    0.40    0.14 
  -5  -6  -1   14.58    0.49 
  -5  -6  -1   14.21    0.80 
  -6  -6  -1   15.57    0.91 
  -6  -6  -1   15.82    0.52 
  -7  -6  -1   31.29    1.52 
  -7  -6  -1   32.38    0.92 
  -8  -6  -1   36.20    1.75 
  -8  -6  -1   35.37    1.01 
  -9  -6  -1   15.74    1.11 
  -9  -6  -1   15.59    0.53 
 -10  -6  -1   13.70    0.49 
 -10  -6  -1   12.34    1.03 
 -11  -6  -1    6.49    0.32 
 -11  -6  -1    6.41    0.95 
 -12  -6  -1   17.58    1.34 
 -13  -6  -1    0.17    0.55 
 -14  -6  -1    0.40    0.63 
 -15  -6  -1    0.59    0.61 
 -16  -6  -1    0.14    0.65 
 -10   7   1    0.30    0.43 
  -9   7   1   -0.02    0.32 
  -9   7   1    0.25    0.10 
   8  -7  -1    0.31    0.10 
   7  -7  -1    0.39    0.12 
   6  -7  -1    4.42    0.31 
  -6   7   1    4.24    0.59 
   5  -7  -1    1.61    0.22 
  -5   7   1    1.54    0.32 
   4  -7  -1    7.17    0.39 
  -4   7   1    8.27    0.59 
   3  -7  -1    8.06    0.39 
  -3   7   1    8.53    0.56 
   2  -7  -1   10.05    0.44 
  -2   7   1    9.64    0.56 
   1  -7  -1   13.34    0.51 
  -1   7   1   12.79    0.62 
   0  -7  -1    1.00    0.15 
   0  -7  -1    1.12    0.25 
   0   7   1    1.27    0.18 
  -1  -7  -1    7.31    0.34 
  -1  -7  -1    7.87    0.50 
   1   7   1    7.25    0.37 
  -2  -7  -1   32.22    1.37 
  -2  -7  -1   33.12    0.99 
   2   7   1   33.24    1.15 
  -4  -7  -1    5.94    0.29 
  -4  -7  -1    6.59    0.47 
  -5  -7  -1   24.60    0.77 
  -5  -7  -1   24.52    1.16 
  -6  -7  -1   14.31    0.50 
  -6  -7  -1   13.55    0.83 
  -7  -7  -1   23.71    1.27 
  -7  -7  -1   25.50    0.78 
  -8  -7  -1   10.97    0.42 
  -8  -7  -1   10.37    0.79 
  -9  -7  -1    0.07    0.06 
  -9  -7  -1    0.06    0.33 
 -10  -7  -1    3.50    0.71 
 -10  -7  -1    3.58    0.22 
 -11  -7  -1    1.37    0.57 
 -11  -7  -1    1.34    0.18 
 -12  -7  -1    2.16    0.70 
 -13  -7  -1    0.08    0.49 
 -14  -7  -1    0.34    0.60 
 -15  -7  -1    0.28    0.63 
 -16  -7  -1   -0.42    0.51 
 -17  -7  -1   -0.19    0.55 
  -9   8   1    0.26    0.38 
   8  -8  -1    0.55    0.11 
  -8   8   1    0.20    0.34 
  -8   8   1    0.81    0.39 
   7  -8  -1    2.87    0.31 
  -7   8   1    2.59    0.53 
   6  -8  -1    0.12    0.09 
  -6   8   1    0.00    0.23 
   5  -8  -1    7.73    0.42 
  -5   8   1    7.65    0.65 
   4  -8  -1    6.36    0.38 
  -4   8   1    7.33    0.55 
   3  -8  -1    1.85    0.23 
  -3   8   1    1.72    0.30 
   2  -8  -1    0.26    0.11 
  -2   8   1    0.00    0.11 
   1  -8  -1    0.78    0.15 
  -1   8   1    0.78    0.16 
   0  -8  -1    0.12    0.10 
   0  -8  -1    0.02    0.04 
   0   8   1    0.03    0.08 
  -1  -8  -1    1.57    0.28 
  -1  -8  -1    1.85    0.21 
   1   8   1    2.02    0.22 
  -2  -8  -1    5.71    0.31 
  -2  -8  -1    5.65    0.43 
   2   8   1    6.24    0.35 
  -3  -8  -1    2.49    0.23 
  -3  -8  -1    2.28    0.32 
  -5  -8  -1   -0.11    0.09 
  -5  -8  -1    0.04    0.05 
  -6  -8  -1    1.85    0.20 
  -6  -8  -1    2.24    0.39 
  -7  -8  -1    5.37    0.61 
  -7  -8  -1    4.48    0.26 
  -8  -8  -1    9.33    0.40 
  -8  -8  -1   10.16    0.77 
  -9  -8  -1    1.61    0.18 
  -9  -8  -1    1.89    0.53 
 -10  -8  -1   -0.05    0.34 
 -10  -8  -1    0.24    0.07 
 -11  -8  -1    4.71    0.27 
 -11  -8  -1    4.48    0.80 
 -12  -8  -1    2.70    0.74 
 -13  -8  -1   -0.18    0.52 
 -14  -8  -1    0.02    0.50 
 -15  -8  -1   -0.16    0.56 
 -16  -8  -1   -0.05    0.64 
   8  -9  -1    0.64    0.13 
   7  -9  -1    0.11    0.09 
  -7   9   1   -0.21    0.30 
   6  -9  -1    0.11    0.11 
  -6   9   1    0.01    0.28 
   5  -9  -1    2.04    0.27 
  -5   9   1    1.80    0.42 
   4  -9  -1    0.72    0.15 
  -4   9   1    0.61    0.21 
   3  -9  -1    1.63    0.23 
  -3   9   1    1.23    0.25 
   2  -9  -1   -0.06    0.07 
  -2   9   1   -0.03    0.10 
   1  -9  -1    0.00    0.07 
  -1   9   1    0.04    0.08 
   0  -9  -1    5.52    0.34 
   0   9   1    6.24    0.39 
  -1  -9  -1    9.49    0.45 
  -1  -9  -1    9.55    0.63 
   1   9   1    9.86    0.50 
  -2  -9  -1    8.46    0.42 
  -2  -9  -1    9.13    0.59 
   2   9   1    9.99    0.49 
  -3  -9  -1    3.88    0.44 
  -3  -9  -1    3.66    0.25 
  -4  -9  -1    4.37    0.27 
  -4  -9  -1    4.54    0.38 
  -5  -9  -1    1.51    0.30 
  -5  -9  -1    2.08    0.22 
  -6  -9  -1    1.48    0.33 
  -6  -9  -1    1.65    0.19 
  -7  -9  -1    1.56    0.19 
  -7  -9  -1    1.92    0.39 
  -8  -9  -1    2.58    0.47 
  -8  -9  -1    1.77    0.20 
  -9  -9  -1    0.77    0.13 
  -9  -9  -1    0.87    0.43 
 -10  -9  -1    6.34    0.89 
 -10  -9  -1    4.53    0.27 
 -11  -9  -1    0.16    0.08 
 -11  -9  -1    0.13    0.44 
 -12  -9  -1    0.61    0.55 
 -13  -9  -1    0.87    0.60 
 -14  -9  -1    0.40    0.57 
 -15  -9  -1    0.16    0.52 
 -16  -9  -1    0.73    0.56 
   8 -10  -1    0.03    0.09 
   7 -10  -1   -0.03    0.08 
   6 -10  -1    0.38    0.13 
   5 -10  -1    1.08    0.21 
   4 -10  -1    0.18    0.13 
  -4  10   1    0.10    0.24 
   3 -10  -1    0.14    0.10 
  -3  10   1    0.20    0.11 
   2 -10  -1    1.11    0.20 
  -2  10   1    1.09    0.22 
   1 -10  -1    0.29    0.12 
  -1  10   1    0.42    0.14 
   0 -10  -1    0.73    0.16 
   0  10   1    1.20    0.20 
  -1 -10  -1    1.80    0.24 
  -1 -10  -1    2.01    0.36 
   1  10   1    1.63    0.23 
  -2 -10  -1    4.96    0.44 
  -2 -10  -1    4.47    0.32 
   2  10   1    5.27    0.35 
  -3 -10  -1    0.02    0.09 
  -3 -10  -1   -0.03    0.08 
  -4 -10  -1    1.50    0.21 
  -4 -10  -1    1.26    0.28 
  -5 -10  -1    3.94    0.38 
  -5 -10  -1    5.07    0.31 
  -6 -10  -1    0.13    0.09 
  -6 -10  -1    0.39    0.19 
  -7 -10  -1    4.56    0.30 
  -7 -10  -1    4.70    0.47 
  -8 -10  -1    9.22    0.45 
  -8 -10  -1   10.47    0.78 
  -9 -10  -1    0.39    0.12 
  -9 -10  -1    0.48    0.39 
 -10 -10  -1    1.02    0.16 
 -10 -10  -1    0.85    0.40 
 -11 -10  -1    4.18    0.27 
 -11 -10  -1    4.66    0.80 
 -12 -10  -1    0.55    0.53 
 -13 -10  -1    0.94    0.64 
 -14 -10  -1   -0.20    0.56 
 -15 -10  -1    0.10    0.60 
 -16 -10  -1   -0.17    0.52 
   7 -11  -1    0.09    0.08 
   6 -11  -1    0.15    0.09 
   5 -11  -1    0.25    0.10 
   4 -11  -1    0.08    0.10 
   3 -11  -1    0.30    0.12 
   2 -11  -1    0.21    0.14 
   1 -11  -1    3.91    0.40 
   0 -11  -1    4.55    0.42 
   0  11   1    4.49    0.34 
  -1 -11  -1    2.78    0.33 
   1  11   1    3.25    0.32 
  -3 -11  -1    0.51    0.15 
  -3 -11  -1    0.60    0.18 
  -4 -11  -1    0.23    0.12 
  -4 -11  -1    0.19    0.13 
  -5 -11  -1    7.28    0.41 
  -5 -11  -1    6.99    0.53 
  -6 -11  -1    1.64    0.24 
  -7 -11  -1    0.14    0.11 
  -7 -11  -1    0.08    0.12 
  -8 -11  -1    0.95    0.18 
  -8 -11  -1    0.62    0.33 
  -9 -11  -1    0.29    0.11 
  -9 -11  -1   -0.21    0.30 
 -10 -11  -1    0.83    0.15 
 -10 -11  -1    0.16    0.37 
 -11 -11  -1    1.80    0.63 
 -11 -11  -1    2.18    0.25 
 -12 -11  -1    1.39    0.59 
 -13 -11  -1    1.18    0.60 
 -14 -11  -1    0.37    0.54 
 -15 -11  -1   -0.10    0.52 
 -16 -11  -1    0.41    0.56 
   7 -12  -1   -0.15    0.09 
   6 -12  -1    0.00    0.14 
   5 -12  -1   -0.34    0.07 
   4 -12  -1    0.07    0.13 
   3 -12  -1    0.14    0.12 
   2 -12  -1   -0.03    0.09 
   1 -12  -1   -0.12    0.09 
   0 -12  -1    0.28    0.14 
  -1 -12  -1    4.32    0.41 
  -2 -12  -1   -0.13    0.09 
  -3 -12  -1    3.59    0.37 
  -4 -12  -1    7.67    0.45 
  -6 -12  -1    6.62    0.49 
  -6 -12  -1    5.64    0.38 
  -7 -12  -1    8.48    0.46 
  -8 -12  -1    0.14    0.10 
  -8 -12  -1   -0.08    0.27 
  -9 -12  -1    1.34    0.46 
  -9 -12  -1    1.10    0.19 
 -10 -12  -1    0.93    0.45 
 -10 -12  -1    1.14    0.20 
 -11 -12  -1    1.09    0.55 
 -11 -12  -1    1.23    0.20 
 -12 -12  -1   -0.13    0.49 
 -12 -12  -1    0.02    0.06 
 -13 -12  -1    0.74    0.55 
 -14 -12  -1    0.78    0.52 
 -15 -12  -1   -0.42    0.49 
 -16 -12  -1    0.66    0.47 
   5 -13  -1    0.49    0.15 
   4 -13  -1    0.16    0.10 
   3 -13  -1    0.11    0.11 
   2 -13  -1    1.50    0.29 
   1 -13  -1    1.00    0.21 
   0 -13  -1    0.15    0.13 
  -1 -13  -1    9.47    0.55 
  -2 -13  -1    1.87    0.29 
  -3 -13  -1    0.87    0.22 
  -4 -13  -1    1.28    0.24 
  -5 -13  -1    0.34    0.14 
  -6 -13  -1    1.07    0.23 
  -7 -13  -1    1.87    0.27 
  -8 -13  -1    0.60    0.14 
  -9 -13  -1    1.25    0.45 
  -9 -13  -1    0.39    0.13 
 -10 -13  -1    0.39    0.13 
 -10 -13  -1    0.46    0.38 
 -11 -13  -1    0.38    0.44 
 -11 -13  -1    0.27    0.13 
 -12 -13  -1   -0.18    0.46 
 -12 -13  -1    0.08    0.09 
 -13 -13  -1    0.19    0.58 
 -14 -13  -1    0.15    0.54 
 -15 -13  -1    0.87    0.61 
   4 -14  -1   -0.05    0.10 
   3 -14  -1    0.19    0.10 
   2 -14  -1    0.00    0.10 
   1 -14  -1    0.19    0.12 
   0 -14  -1    0.12    0.11 
  -1 -14  -1    0.24    0.12 
  -2 -14  -1    0.23    0.13 
  -3 -14  -1    0.72    0.20 
  -4 -14  -1    3.24    0.38 
  -5 -14  -1    0.05    0.13 
  -6 -14  -1    1.23    0.23 
  -7 -14  -1    0.45    0.16 
  -8 -14  -1    0.28    0.14 
  -9 -14  -1    0.03    0.12 
 -10 -14  -1    0.15    0.11 
 -11 -14  -1    0.69    0.18 
 -12 -14  -1    0.82    0.47 
 -13 -14  -1    0.77    0.52 
 -14 -14  -1    0.59    0.47 
 -15 -14  -1    1.16    0.52 
   3 -15  -1   -0.27    0.11 
   2 -15  -1    0.42    0.13 
   1 -15  -1    0.15    0.11 
   0 -15  -1    0.84    0.20 
  -1 -15  -1    0.57    0.14 
  -2 -15  -1    0.83    0.22 
  -3 -15  -1   -0.21    0.10 
  -4 -15  -1   -0.04    0.14 
  -5 -15  -1    0.22    0.16 
  -6 -15  -1    0.00    0.17 
  -7 -15  -1    0.17    0.14 
  -8 -15  -1   -0.07    0.10 
  -9 -15  -1    0.21    0.13 
 -10 -15  -1    0.36    0.13 
 -11 -15  -1    0.41    0.14 
 -12 -15  -1    0.03    0.10 
   1 -16  -1    0.14    0.14 
   0 -16  -1    0.26    0.13 
  -1 -16  -1   -0.14    0.12 
  -2 -16  -1    0.08    0.12 
  -3 -16  -1    0.03    0.14 
  -4 -16  -1    0.82    0.24 
  -5 -16  -1    0.93    0.21 
  -6 -16  -1   -0.01    0.15 
  -7 -16  -1    0.11    0.14 
  -8 -16  -1    0.28    0.15 
  -9 -16  -1    0.25    0.14 
 -10 -16  -1    0.17    0.12 
 -11 -16  -1    0.56    0.14 
 -12 -16  -1    0.04    0.12 
  -2 -17  -1    0.12    0.12 
  -3 -17  -1    0.30    0.17 
  -4 -17  -1    0.30    0.15 
  -5 -17  -1    0.21    0.17 
  -6 -17  -1    0.60    0.17 
  -7 -17  -1    0.70    0.19 
  -8 -17  -1    0.15    0.14 
  -9 -17  -1    0.12    0.13 
 -10 -17  -1    0.53    0.16 
 -11 -17  -1    0.08    0.13 
  -6 -18  -1   -0.15    0.13 
  -7 -18  -1    0.32    0.14 
  -8 -18  -1    0.21    0.14 
 -10 -17   2    0.22    0.14 
  -9 -17   2    0.25    0.14 
  -8 -17   2    0.48    0.17 
  -7 -17   2   -0.05    0.13 
  -6 -17   2    0.84    0.19 
  -5 -17   2    0.01    0.10 
  -4 -17   2    0.02    0.12 
  -3 -17   2    0.29    0.14 
  -2 -17   2    0.18    0.14 
 -12 -16   2    0.58    0.16 
 -11 -16   2   -0.02    0.10 
 -10 -16   2    0.23    0.10 
  -9 -16   2    0.24    0.13 
  -8 -16   2    0.36    0.14 
  -7 -16   2    0.44    0.16 
  -6 -16   2    0.12    0.12 
  -5 -16   2    0.89    0.25 
  -4 -16   2    0.15    0.14 
  -3 -16   2    0.38    0.14 
  -2 -16   2    0.32    0.13 
  -1 -16   2    0.24    0.16 
   0 -16   2    0.04    0.12 
   1 -16   2    0.12    0.17 
 -13 -15   2    0.05    0.09 
 -12 -15   2    0.71    0.14 
 -11 -15   2    0.71    0.17 
 -10 -15   2    0.22    0.11 
  -9 -15   2    0.04    0.11 
  -8 -15   2    0.70    0.18 
  -7 -15   2    0.34    0.16 
  -6 -15   2    1.09    0.24 
  -5 -15   2    0.68    0.22 
  -4 -15   2    0.08    0.11 
  -3 -15   2   -0.06    0.12 
  -2 -15   2    0.24    0.11 
  -1 -15   2    0.18    0.11 
   0 -15   2   -0.05    0.08 
   1 -15   2   -0.01    0.11 
   2 -15   2    0.48    0.15 
 -13 -14   2    0.16    0.09 
 -12 -14   2    0.44    0.12 
 -11 -14   2    0.07    0.09 
 -10 -14   2    0.11    0.10 
  -9 -14   2    0.25    0.14 
  -8 -14   2    0.23    0.12 
  -7 -14   2    0.24    0.12 
  -6 -14   2    2.13    0.30 
  -5 -14   2    0.31    0.14 
  -4 -14   2    0.19    0.15 
  -3 -14   2    0.70    0.18 
  -2 -14   2    1.55    0.27 
  -1 -14   2    0.20    0.12 
   0 -14   2    2.17    0.30 
   1 -14   2    0.23    0.13 
   2 -14   2    0.36    0.10 
   3 -14   2    0.41    0.11 
   4 -14   2   -0.30    0.09 
 -15 -13   2   17.85    0.76 
 -14 -13   2   26.70    0.97 
 -13 -13   2    0.84    0.15 
 -12 -13   2    0.34    0.12 
 -11 -13   2    0.69    0.16 
 -10 -13   2    0.21    0.10 
  -9 -13   2    2.47    0.30 
  -8 -13   2    2.31    0.29 
  -7 -13   2    0.38    0.14 
  -6 -13   2    0.91    0.20 
  -5 -13   2    0.08    0.11 
  -4 -13   2    2.21    0.30 
  -3 -13   2    0.93    0.20 
   2  13  -2    0.93    0.31 
  -2 -13   2    1.09    0.22 
   1  13  -2    0.03    0.22 
  -1 -13   2    0.36    0.13 
   0 -13   2    1.26    0.22 
   1 -13   2    0.41    0.12 
   2 -13   2    0.33    0.16 
   3 -13   2   -0.10    0.08 
   4 -13   2    0.26    0.09 
   5 -13   2    0.18    0.12 
 -15 -12   2   -0.21    0.46 
 -14 -12   2    0.38    0.57 
 -13 -12   2    0.34    0.53 
 -13 -12   2    0.16    0.09 
 -12 -12   2    0.99    0.54 
 -12 -12   2    0.87    0.16 
 -11 -12   2    0.67    0.47 
 -11 -12   2    0.63    0.15 
 -10 -12   2    0.04    0.33 
 -10 -12   2    0.86    0.18 
  -9 -12   2    0.27    0.11 
  -8 -12   2    0.53    0.14 
  -7 -12   2    1.04    0.19 
  -6 -12   2    4.75    0.35 
  -5 -12   2    8.88    0.49 
  -4 -12   2    3.03    0.33 
  -3 -12   2    2.57    0.31 
   2  12  -2    0.78    0.28 
  -2 -12   2    0.33    0.14 
   1  12  -2    0.16    0.21 
  -1 -12   2    0.12    0.10 
   0  12  -2    3.05    0.43 
   0 -12   2    3.18    0.35 
  -1  12  -2    0.81    0.31 
   1 -12   2    0.97    0.19 
  -2  12  -2    0.25    0.27 
   2 -12   2   -0.17    0.10 
   3 -12   2    0.56    0.15 
   4 -12   2    0.09    0.12 
   5 -12   2    0.13    0.09 
   6 -12   2    0.73    0.13 
 -15 -11   2    0.03    0.51 
 -14 -11   2   -0.02    0.52 
 -13 -11   2   -0.13    0.52 
 -12 -11   2   -0.27    0.48 
 -12 -11   2    0.42    0.12 
 -11 -11   2    0.51    0.48 
 -11 -11   2    0.09    0.09 
 -10 -11   2    0.47    0.46 
 -10 -11   2    0.69    0.15 
  -9 -11   2    1.22    0.20 
  -9 -11   2    0.86    0.42 
  -8 -11   2    4.35    0.25 
  -5 -11   2    0.49    0.15 
  -4 -11   2    2.02    0.28 
  -3 -11   2    0.50    0.15 
   2  11  -2    0.45    0.18 
  -2 -11   2    0.45    0.14 
   1  11  -2    0.06    0.11 
  -1 -11   2    0.11    0.11 
   0  11  -2    1.80    0.34 
   0 -11   2    2.03    0.27 
  -1  11  -2    0.11    0.20 
   1 -11   2    0.11    0.11 
  -2  11  -2    0.45    0.25 
   2 -11   2    0.08    0.09 
  -3  11  -2   -0.03    0.22 
   3 -11   2   -0.01    0.07 
  -4  11  -2    0.45    0.30 
   4 -11   2    0.58    0.15 
  -5  11  -2   -0.42    0.23 
   5 -11   2    0.07    0.10 
   6 -11   2   -0.07    0.08 
   7 -11   2   -0.06    0.08 
 -16 -10   2    1.03    0.59 
 -15 -10   2   -0.80    0.44 
 -14 -10   2   -0.17    0.56 
 -13 -10   2    0.07    0.45 
 -12 -10   2    1.29    0.21 
 -12 -10   2    0.85    0.56 
 -11 -10   2    0.30    0.12 
 -11 -10   2   -0.30    0.42 
 -10 -10   2    0.28    0.09 
 -10 -10   2   -0.16    0.36 
  -9 -10   2    0.41    0.13 
  -9 -10   2    0.33    0.41 
  -8 -10   2    2.08    0.40 
  -8 -10   2    1.68    0.23 
  -7 -10   2    0.89    0.25 
  -7 -10   2    0.92    0.17 
  -6 -10   2    0.25    0.11 
  -6 -10   2    0.67    0.21 
  -5 -10   2    9.28    0.46 
  -5 -10   2    9.70    0.56 
  -3 -10   2    4.65    0.32 
   2  10  -2    0.66    0.19 
  -2 -10   2    0.45    0.14 
   1  10  -2    0.60    0.17 
  -1 -10   2    0.18    0.10 
   0  10  -2   10.46    0.62 
   0 -10   2    9.63    0.49 
  -1  10  -2    3.39    0.42 
   1 -10   2    3.31    0.33 
  -2  10  -2    0.51    0.25 
   2 -10   2    0.71    0.18 
  -3  10  -2    3.56    0.51 
   3 -10   2    4.11    0.38 
  -4  10  -2    2.61    0.48 
   4 -10   2    2.75    0.32 
  -5  10  -2    0.34    0.30 
   5 -10   2    0.27    0.14 
  -6  10  -2    1.70    0.47 
   6 -10   2    1.74    0.25 
  -7  10  -2    0.24    0.37 
   7 -10   2    0.01    0.09 
  -8  10  -2    0.07    0.35 
 -16  -9   2   -0.32    0.48 
 -15  -9   2    0.19    0.58 
 -14  -9   2    0.37    0.52 
 -13  -9   2    0.32    0.55 
 -12  -9   2    0.60    0.20 
 -12  -9   2    0.98    0.58 
 -11  -9   2    1.98    0.64 
 -11  -9   2    1.89    0.24 
 -10  -9   2   -0.19    0.36 
 -10  -9   2   -0.06    0.10 
  -9  -9   2    7.39    0.86 
  -9  -9   2    5.39    0.34 
  -8  -9   2    4.91    0.63 
  -8  -9   2    3.99    0.28 
  -7  -9   2    1.78    0.21 
  -7  -9   2    2.02    0.38 
  -6  -9   2    0.72    0.22 
  -6  -9   2    0.54    0.13 
  -5  -9   2    0.84    0.16 
  -5  -9   2    1.03    0.20 
  -4  -9   2    2.15    0.24 
  -4  -9   2    2.44    0.28 
  -3  -9   2    0.34    0.10 
  -3  -9   2    0.00    0.08 
   2   9  -2    0.75    0.18 
  -2  -9   2    0.69    0.15 
   1   9  -2    0.20    0.11 
  -1  -9   2    0.21    0.09 
   0   9  -2   11.23    0.62 
   0  -9   2   10.03    0.48 
  -1   9  -2    0.17    0.14 
   1  -9   2    0.15    0.09 
  -2   9  -2    1.01    0.24 
   2  -9   2    0.92    0.17 
  -3   9  -2   11.10    0.76 
   3  -9   2   13.00    0.57 
  -4   9  -2    1.48    0.38 
   4  -9   2    1.55    0.22 
  -5   9  -2    1.76    0.42 
   5  -9   2    2.39    0.29 
  -6   9  -2    1.28    0.41 
   6  -9   2    1.46    0.21 
  -7   9  -2    0.48    0.36 
   7  -9   2    0.19    0.10 
  -8   9  -2    0.09    0.32 
  -9   9  -2   -0.02    0.34 
 -10   9  -2   -0.12    0.38 
 -16  -8   2   -0.51    0.53 
 -15  -8   2    0.56    0.53 
 -14  -8   2    0.17    0.59 
 -13  -8   2    0.27    0.58 
 -12  -8   2   -0.15    0.42 
 -12  -8   2   -0.14    0.15 
 -11  -8   2    1.74    0.63 
 -11  -8   2    0.65    0.20 
 -10  -8   2    0.23    0.16 
 -10  -8   2    0.52    0.46 
  -9  -8   2   -0.21    0.32 
  -9  -8   2    0.02    0.11 
  -8  -8   2    3.27    0.30 
  -8  -8   2    5.15    0.65 
  -7  -8   2    0.04    0.07 
  -7  -8   2   -0.07    0.19 
  -6  -8   2    2.17    0.23 
  -5  -8   2    3.37    0.34 
  -5  -8   2    3.72    0.24 
  -4  -8   2    8.32    0.39 
  -4  -8   2    8.48    0.48 
  -3  -8   2    8.99    0.47 
  -3  -8   2    8.87    0.40 
   2   8  -2    1.27    0.22 
  -2  -8   2    0.95    0.14 
   1   8  -2    0.31    0.13 
  -1  -8   2    0.33    0.08 
   0   8  -2    1.74    0.26 
   0  -8   2    1.97    0.21 
  -1   8  -2    0.05    0.11 
   1  -8   2   -0.06    0.04 
  -2   8  -2    0.04    0.11 
   2  -8   2    0.13    0.09 
  -3   8  -2    8.72    0.62 
   3  -8   2    8.45    0.43 
  -4   8  -2    0.71    0.28 
   4  -8   2    1.24    0.19 
  -5   8  -2   -0.16    0.22 
   5  -8   2   -0.05    0.07 
  -6   8  -2    0.32    0.30 
   6  -8   2    0.66    0.14 
  -7   8  -2    0.77    0.35 
   7  -8   2    1.15    0.18 
  -8   8  -2   -0.06    0.28 
  -9   8  -2    0.34    0.36 
 -10   8  -2    0.05    0.34 
 -11   8  -2   -0.15    0.39 
 -16  -7   2   -0.20    0.51 
 -15  -7   2    0.37    0.53 
 -14  -7   2    0.58    0.62 
 -13  -7   2    0.14    0.52 
 -12  -7   2    0.94    0.60 
 -12  -7   2    0.86    0.14 
 -11  -7   2    0.14    0.10 
 -11  -7   2   -0.13    0.35 
 -10  -7   2    0.54    0.12 
 -10  -7   2    0.14    0.39 
  -9  -7   2   -0.02    0.16 
  -9  -7   2    0.49    0.39 
  -8  -7   2    0.24    0.24 
  -8  -7   2   -0.22    0.12 
  -7  -7   2    5.35    0.31 
  -7  -7   2    6.22    0.58 
  -6  -7   2    1.13    0.17 
  -6  -7   2    1.80    0.35 
  -5  -7   2    0.27    0.09 
  -5  -7   2    0.19    0.11 
  -4  -7   2    0.40    0.12 
  -4  -7   2    0.05    0.06 
  -3  -7   2    0.45    0.11 
  -3  -7   2    0.36    0.09 
   2   7  -2   13.05    0.63 
  -2  -7   2   11.37    0.47 
  -2  -7   2   12.81    0.56 
   1   7  -2   10.93    0.57 
  -1  -7   2   11.15    0.50 
  -1  -7   2   11.09    0.45 
   0   7  -2    4.02    0.33 
   0  -7   2    3.88    0.24 
  -1   7  -2    3.63    0.38 
   1  -7   2    3.44    0.23 
  -2   7  -2    3.83    0.42 
   2  -7   2    3.07    0.21 
  -3   7  -2   24.25    1.13 
   3  -7   2   23.49    0.80 
  -4   7  -2    0.10    0.15 
   4  -7   2    0.23    0.07 
  -5   7  -2    0.16    0.17 
  -5   7  -2    0.22    0.26 
   5  -7   2    0.29    0.09 
  -6   7  -2    1.75    0.40 
  -6   7  -2    1.78    0.46 
   6  -7   2    1.89    0.23 
  -7   7  -2    0.42    0.35 
  -7   7  -2    0.12    0.28 
   7  -7   2    0.02    0.07 
  -8   7  -2    0.68    0.36 
   8  -7   2    0.82    0.12 
  -9   7  -2   -0.29    0.26 
 -10   7  -2   -0.22    0.30 
 -11   7  -2   -0.05    0.35 
 -16  -6   2    0.21    0.56 
 -15  -6   2    0.43    0.61 
 -14  -6   2   -0.09    0.54 
 -13  -6   2    0.27    0.55 
 -12  -6   2    0.69    0.13 
 -12  -6   2    0.57    0.53 
 -11  -6   2    4.39    0.81 
 -11  -6   2    4.88    0.28 
 -10  -6   2    1.52    0.48 
 -10  -6   2    1.38    0.19 
  -9  -6   2    8.55    0.79 
  -9  -6   2    7.70    0.36 
  -8  -6   2    0.47    0.29 
  -8  -6   2    0.72    0.14 
  -7  -6   2    0.04    0.20 
  -7  -6   2    0.23    0.09 
  -6  -6   2   29.45    1.37 
  -5  -6   2   12.15    0.46 
  -5  -6   2   11.91    0.70 
  -4  -6   2    1.66    0.25 
  -4  -6   2    1.37    0.16 
  -3  -6   2    4.18    0.29 
  -3  -6   2    3.93    0.22 
   2   6  -2    4.20    0.31 
  -2  -6   2    3.93    0.22 
  -2  -6   2    3.87    0.23 
   1   6  -2    0.13    0.09 
  -1  -6   2    0.25    0.05 
  -1  -6   2    0.14    0.05 
   0   6  -2    6.09    0.39 
   0  -6   2    6.61    0.30 
  -1   6  -2   14.30    0.69 
   1  -6   2   14.34    0.52 
  -2   6  -2   26.97    1.16 
   2  -6   2   28.98    0.88 
  -3   6  -2   11.34    0.70 
   3  -6   2   11.74    0.46 
  -4   6  -2   19.26    1.03 
   4  -6   2   21.19    0.70 
  -5   6  -2   11.80    0.79 
  -5   6  -2   10.22    0.76 
   5  -6   2   12.61    0.49 
  -6   6  -2    4.23    0.60 
  -6   6  -2    4.25    0.56 
   6  -6   2    3.39    0.23 
  -7   6  -2   22.82    1.33 
  -7   6  -2   21.82    1.27 
   7  -6   2   23.08    0.80 
  -8   6  -2    1.05    0.37 
  -8   6  -2    1.13    0.40 
   8  -6   2    1.05    0.14 
  -9   6  -2    0.04    0.28 
  -9   6  -2    0.10    0.31 
 -10   6  -2    0.70    0.47 
 -10   6  -2    1.03    0.43 
 -11   6  -2    0.89    0.42 
 -12   6  -2   -0.46    0.33 
 -16  -5   2    0.05    0.45 
 -15  -5   2   -0.35    0.57 
 -14  -5   2    0.13    0.54 
 -13  -5   2   -0.09    0.49 
 -12  -5   2    0.23    0.07 
 -12  -5   2   -0.12    0.42 
 -11  -5   2    0.62    0.13 
 -11  -5   2    0.57    0.44 
 -10  -5   2    0.77    0.14 
 -10  -5   2    0.58    0.38 
  -9  -5   2    0.63    0.13 
  -9  -5   2    0.96    0.42 
  -8  -5   2    3.57    0.59 
  -8  -5   2    3.24    0.22 
  -7  -5   2   15.52    0.95 
  -7  -5   2   15.94    0.54 
  -6  -5   2    0.71    0.13 
  -6  -5   2    0.68    0.26 
  -5  -5   2    6.79    0.51 
  -5  -5   2    6.37    0.29 
  -3  -5   2   10.41    0.39 
  -3  -5   2   10.41    0.53 
   2   5  -2    1.86    0.22 
  -2  -5   2    2.06    0.16 
  -2  -5   2    1.61    0.16 
   1   5  -2   24.70    0.93 
  -1  -5   2   24.17    0.73 
  -1  -5   2   24.02    0.89 
   0   5  -2   21.15    0.84 
   0  -5   2   20.31    0.65 
  -1   5  -2    0.58    0.15 
   1  -5   2    0.72    0.11 
  -2   5  -2    7.85    0.50 
   2  -5   2    7.94    0.33 
  -3   5  -2    8.14    0.55 
   3  -5   2    7.90    0.34 
  -4   5  -2    5.20    0.46 
  -4   5  -2    5.00    0.53 
   4  -5   2    6.05    0.28 
  -5   5  -2   12.15    0.80 
  -5   5  -2   13.34    0.82 
   5  -5   2   13.08    0.49 
  -6   5  -2    9.99    0.79 
   6  -5   2   10.45    0.43 
  -7   5  -2    2.80    0.52 
   7  -5   2    1.06    0.13 
  -8   5  -2    0.63    0.37 
   8  -5   2    0.68    0.10 
  -9   5  -2    0.07    0.29 
 -10   5  -2   -0.03    0.36 
 -11   5  -2    0.00    0.37 
 -12   5  -2    0.07    0.42 
 -16  -4   2   -0.14    0.56 
 -15  -4   2    0.00    0.53 
 -14  -4   2    0.42    0.54 
 -13  -4   2    0.56    0.51 
 -12  -4   2    3.17    0.74 
 -11  -4   2    1.37    0.53 
 -11  -4   2    1.47    0.19 
 -10  -4   2    0.07    0.11 
 -10  -4   2   -0.15    0.26 
  -9  -4   2    0.13    0.29 
  -9  -4   2    0.51    0.13 
  -8  -4   2   -0.01    0.17 
  -8  -4   2    0.08    0.09 
  -7  -4   2    5.54    0.62 
  -7  -4   2    3.75    0.23 
  -6  -4   2   12.74    0.80 
  -6  -4   2   13.69    0.47 
  -5  -4   2   79.59    2.03 
  -5  -4   2   79.64    2.99 
  -4  -4   2   11.12    0.40 
  -4  -4   2   11.54    0.64 
  -3  -4   2  157.71    5.36 
   2   4  -2   11.18    0.52 
  -2  -4   2   11.82    0.52 
  -2  -4   2   11.94    0.41 
   1   4  -2   23.32    0.84 
  -1  -4   2   22.66    0.66 
  -1  -4   2   21.44    0.80 
   0   4  -2   29.64    1.08 
   0  -4   2   30.29    0.84 
  -1   4  -2    6.45    0.39 
   1  -4   2    6.99    0.28 
  -2   4  -2    9.21    0.52 
   2  -4   2    9.29    0.35 
  -3   4  -2    2.55    0.34 
   3  -4   2    2.35    0.15 
  -4   4  -2    3.40    0.43 
  -4   4  -2    3.03    0.38 
   4  -4   2    3.24    0.18 
  -5   4  -2   11.61    0.78 
   5  -4   2   12.88    0.45 
  -7   4  -2    2.06    0.46 
   7  -4   2    1.93    0.14 
  -8   4  -2    2.29    0.53 
   8  -4   2    2.55    0.17 
  -9   4  -2    0.70    0.37 
 -10   4  -2    1.06    0.45 
 -11   4  -2    0.45    0.42 
 -12   4  -2    0.26    0.45 
 -13   4  -2    0.10    0.49 
 -16  -3   2    0.03    0.81 
 -15  -3   2   -0.06    0.63 
 -14  -3   2    0.95    0.77 
 -13  -3   2   -0.24    0.39 
 -12  -3   2    1.60    0.59 
 -11  -3   2    0.25    0.11 
 -11  -3   2    0.29    0.37 
 -10  -3   2    0.56    0.14 
 -10  -3   2    0.19    0.31 
  -9  -3   2    4.98    0.74 
  -9  -3   2    4.80    0.26 
  -8  -3   2    6.36    0.29 
  -8  -3   2    6.55    0.76 
  -7  -3   2    6.13    0.61 
  -7  -3   2    6.26    0.28 
  -6  -3   2   16.61    0.96 
  -6  -3   2   16.08    0.52 
  -5  -3   2   43.81    1.18 
  -5  -3   2   45.11    1.86 
  -4  -3   2    7.38    0.29 
  -4  -3   2    6.37    0.48 
  -3  -3   2  110.98    3.89 
  -3  -3   2  112.45    2.76 
  -2  -3   2    0.04    0.08 
  -2  -3   2    0.16    0.09 
   1   3  -2   38.64    1.30 
  -1  -3   2   39.33    1.37 
  -1  -3   2   40.19    1.04 
   0  -3   2  837.13   19.95 
  -1   3  -2    6.87    0.37 
  -1   3  -2    6.34    0.31 
   1  -3   2    6.67    0.25 
  -2   3  -2    0.45    0.14 
  -2   3  -2    0.66    0.14 
   2  -3   2    0.64    0.08 
  -3   3  -2    0.10    0.10 
  -3   3  -2    0.08    0.11 
   3  -3   2    0.11    0.04 
  -5   3  -2    0.37    0.19 
   5  -3   2    0.68    0.09 
  -6   3  -2    9.12    0.72 
   6  -3   2    9.87    0.37 
  -7   3  -2    0.03    0.20 
   7  -3   2    0.33    0.06 
  -8   3  -2    0.29    0.28 
   8  -3   2    0.14    0.04 
  -9   3  -2    0.34    0.31 
 -10   3  -2    0.72    0.40 
 -11   3  -2   -0.28    0.28 
 -12   3  -2   -0.17    0.34 
 -13   3  -2   -0.28    0.42 
 -14   3  -2    0.07    0.50 
 -15  -2   2   -0.34    0.62 
 -14  -2   2   -0.21    0.50 
 -13  -2   2    1.29    0.62 
 -12  -2   2    0.61    0.46 
 -11  -2   2    0.05    0.09 
 -11  -2   2    0.16    0.36 
 -10  -2   2    0.13    0.10 
 -10  -2   2    0.33    0.32 
  -9  -2   2    8.88    0.84 
  -9  -2   2    8.48    0.35 
  -8  -2   2    1.01    0.35 
  -8  -2   2    1.48    0.15 
  -7  -2   2   45.80    2.03 
  -7  -2   2   42.95    1.18 
  -6  -2   2    3.03    0.17 
  -6  -2   2    3.58    0.50 
  -5  -2   2   13.90    0.44 
  -5  -2   2   13.91    0.82 
  -4  -2   2   12.28    0.39 
  -3  -2   2  785.00   18.70 
  -2  -2   2  313.46    7.52 
   1   2  -2   17.35    0.63 
  -1  -2   2   17.20    0.49 
   0   2  -2   69.88    2.16 
   0  -2   2   69.10    1.73 
  -1   2  -2   25.96    0.97 
  -1   2  -2   27.94    0.99 
   1  -2   2   28.10    0.73 
  -2   2  -2   58.50    1.93 
  -2   2  -2   57.15    2.06 
  -3   2  -2    0.01    0.10 
   3  -2   2    0.14    0.03 
  -4   2  -2    5.21    0.43 
   4  -2   2    5.23    0.21 
  -5   2  -2    2.15    0.36 
   5  -2   2    2.63    0.14 
  -6   2  -2   13.85    0.89 
   6  -2   2   13.95    0.45 
  -7   2  -2    3.43    0.52 
   7  -2   2    3.67    0.18 
  -8   2  -2    9.50    0.80 
  -8   2  -2    9.34    0.34 
  -9   2  -2   15.10    0.48 
  -9   2  -2   14.45    1.11 
 -10   2  -2    0.36    0.33 
 -11   2  -2   -0.10    0.35 
 -12   2  -2   -0.22    0.36 
 -13   2  -2   -0.32    0.35 
 -14   2  -2    0.21    0.52 
 -15  -1   2    0.41    0.78 
 -14  -1   2    0.18    0.60 
 -13  -1   2    0.16    0.53 
 -12  -1   2    0.94    0.54 
 -11  -1   2    0.52    0.11 
 -11  -1   2    0.42    0.39 
 -10  -1   2    1.06    0.15 
 -10  -1   2    0.89    0.44 
  -9  -1   2    5.86    0.80 
  -9  -1   2    5.76    0.27 
  -8  -1   2    7.47    0.74 
  -8  -1   2    7.81    0.31 
  -7  -1   2    2.87    0.17 
  -7  -1   2    2.99    0.52 
  -6  -1   2    6.68    0.26 
  -5  -1   2    0.30    0.07 
  -4  -1   2    1.04    0.10 
  -3  -1   2    2.40    0.14 
  -2  -1   2    2.85    0.14 
  -1  -1   2   58.66    1.45 
   0   1  -2  324.07   10.94 
   0   1  -2  331.46    9.55 
   0  -1   2  322.89   10.89 
   0  -1   2  328.35    7.83 
  -1   1  -2    0.01    0.05 
  -1   1  -2    0.05    0.05 
   1  -1   2    0.03    0.01 
  -2   1  -2   57.58    2.04 
   2  -1   2   57.32    1.42 
  -3   1  -2  243.79    8.37 
   3  -1   2  254.48    6.00 
  -4   1  -2    0.12    0.13 
   4  -1   2    0.19    0.03 
  -5   1  -2    2.06    0.34 
   5  -1   2    2.33    0.11 
  -6   1  -2    3.66    0.48 
  -6   1  -2    3.92    0.17 
  -7   1  -2    0.49    0.25 
  -7   1  -2    0.91    0.09 
  -8   1  -2    0.76    0.08 
  -8   1  -2    0.47    0.26 
  -9   1  -2    0.64    0.08 
  -9   1  -2    0.17    0.30 
 -10   1  -2    0.60    0.36 
 -11   1  -2    0.24    0.41 
 -12   1  -2    1.51    0.60 
 -13   1  -2    0.31    0.45 
 -14   1  -2    0.24    0.47 
 -15   1  -2    0.19    0.57 
 -15   0   2    0.40    0.73 
 -14   0   2    0.22    0.56 
 -13   0   2   -0.26    0.40 
 -12   0   2    0.19    0.38 
 -11   0   2    0.74    0.13 
 -11   0   2    0.26    0.39 
 -10   0   2    0.12    0.28 
 -10   0   2    0.15    0.09 
  -9   0   2    0.35    0.09 
  -9   0   2    0.09    0.27 
  -8   0   2    0.46    0.30 
  -8   0   2    0.76    0.10 
  -7   0   2    6.72    0.27 
  -6   0   2    0.94    0.11 
  -5   0   2    7.86    0.28 
  -4   0   2    0.48    0.07 
  -3   0   2   40.67    1.04 
  -2   0   2  127.89    3.10 
  -1   0   2    0.65    0.06 
   0   0  -2   83.88    2.53 
   0   0  -2   83.60    2.89 
   0   0   2   86.71    2.06 
  -1   0  -2    4.03    0.22 
  -1   0  -2    4.01    0.21 
   1   0   2    4.15    0.12 
  -2   0  -2   80.76    1.94 
  -2   0  -2   78.62    2.73 
   2   0   2   74.97    1.93 
  -3   0  -2   55.22    2.08 
   3   0   2   57.22    1.39 
  -4   0  -2    2.30    0.31 
   4   0   2    2.62    0.10 
  -5   0  -2    0.23    0.16 
  -5   0  -2    0.23    0.04 
  -6   0  -2   14.57    0.41 
  -6   0  -2   14.83    0.90 
  -7   0  -2   13.71    0.91 
  -7   0  -2   13.95    0.40 
  -8   0  -2   23.55    0.65 
  -8   0  -2   25.55    1.39 
  -9   0  -2   11.02    0.34 
  -9   0  -2   10.25    0.89 
 -10   0  -2    2.82    0.60 
 -11   0  -2   -0.04    0.32 
 -12   0  -2    4.19    0.79 
 -13   0  -2   -0.06    0.42 
 -14   0  -2    0.25    0.52 
 -15   0  -2    0.23    0.55 
 -14   1   2   -0.06    0.56 
 -13   1   2   -0.19    0.41 
 -12   1   2    0.00    0.42 
 -11   1   2    0.02    0.37 
 -10   1   2    0.00    0.29 
 -10   1   2    0.26    0.09 
  -9   1   2    7.50    0.32 
  -9   1   2    6.65    0.87 
  -8   1   2    2.75    0.17 
  -7   1   2    1.93    0.14 
  -6   1   2    0.01    0.04 
  -5   1   2    1.65    0.13 
  -4   1   2    1.58    0.12 
  -3   1   2  185.89    4.51 
  -2   1   2    1.14    0.09 
  -1   1   2   25.30    0.67 
   0  -1  -2  188.97    4.52 
   0  -1  -2  185.77    6.28 
   0   1   2  186.98    5.54 
  -1  -1  -2   26.13    0.66 
  -1  -1  -2   26.03    0.99 
  -2  -1  -2    6.69    0.37 
  -2  -1  -2    6.71    0.18 
  -3  -1  -2   20.44    0.91 
  -4  -1  -2    0.45    0.04 
  -4  -1  -2    0.64    0.20 
  -4  -1  -2    0.57    0.03 
  -5  -1  -2   15.24    0.85 
  -5  -1  -2   15.88    0.41 
  -6  -1  -2    1.72    0.35 
  -6  -1  -2    1.83    0.09 
  -7  -1  -2    2.14    0.11 
  -7  -1  -2    2.45    0.45 
  -8  -1  -2    6.43    0.22 
  -8  -1  -2    6.65    0.66 
  -9  -1  -2    1.79    0.11 
  -9  -1  -2    2.02    0.49 
 -10  -1  -2    0.09    0.27 
 -11  -1  -2    0.64    0.43 
 -12  -1  -2    3.32    0.73 
 -13  -1  -2    0.17    0.47 
 -14  -1  -2    0.00    0.46 
 -15  -1  -2    0.45    0.59 
 -14   2   2    0.22    0.51 
 -13   2   2    0.21    0.44 
 -12   2   2    0.04    0.37 
 -11   2   2    0.92    0.46 
 -10   2   2    0.13    0.09 
 -10   2   2   -0.04    0.28 
  -9   2   2    0.33    0.09 
  -9   2   2   -0.01    0.29 
  -8   2   2    1.47    0.16 
  -7   2   2    0.05    0.04 
  -6   2   2    7.88    0.32 
  -5   2   2   32.31    0.91 
  -4   2   2   18.53    0.57 
   3  -2  -2    7.97    0.31 
   2  -2  -2    7.95    0.30 
   1  -2  -2    0.23    0.06 
   0  -2  -2    3.46    0.15 
   0  -2  -2    3.51    0.26 
  -1  -2  -2    3.25    0.24 
  -1  -2  -2    3.42    0.14 
  -2  -2  -2  138.87    3.29 
  -2  -2  -2  132.46    4.62 
  -3  -2  -2    4.97    0.16 
  -3  -2  -2    5.05    0.39 
  -4  -2  -2   30.99    0.77 
  -4  -2  -2   29.54    1.30 
  -5  -2  -2    0.90    0.06 
  -5  -2  -2    0.93    0.25 
  -6  -2  -2    2.39    0.11 
  -6  -2  -2    2.82    0.43 
  -7  -2  -2   13.81    0.90 
  -7  -2  -2   13.24    0.38 
  -8  -2  -2    0.87    0.08 
  -8  -2  -2    1.37    0.38 
  -9  -2  -2    1.99    0.49 
  -9  -2  -2    2.12    0.13 
 -10  -2  -2    0.32    0.34 
 -11  -2  -2    1.21    0.46 
 -12  -2  -2    4.40    0.83 
 -13  -2  -2    0.16    0.48 
 -14  -2  -2    0.18    0.50 
 -15  -2  -2   -0.09    0.58 
 -16  -2  -2   -0.08    0.81 
 -13   3   2    0.29    0.51 
 -12   3   2    0.40    0.47 
 -11   3   2    0.22    0.35 
 -10   3   2   -0.06    0.36 
 -10   3   2    0.24    0.10 
  -9   3   2    3.88    0.25 
  -9   3   2    4.02    0.72 
  -8   3   2    2.93    0.20 
  -7   3   2    0.43    0.09 
  -6   3   2    7.54    0.33 
   5  -3  -2    0.00    0.04 
   4  -3  -2    0.06    0.03 
   3  -3  -2    2.20    0.15 
   2  -3  -2    8.38    0.33 
   1  -3  -2   10.17    0.36 
   0  -3  -2  842.77   27.77 
   0  -3  -2  853.60   20.13 
   0   3   2  835.25   24.64 
  -1  -3  -2   77.33    1.92 
  -1  -3  -2   78.99    2.33 
  -1  -3  -2   74.30    2.73 
  -2  -3  -2   13.85    0.40 
  -2  -3  -2   13.24    0.64 
  -3  -3  -2   40.49    1.04 
  -3  -3  -2   41.63    1.60 
  -4  -3  -2   67.39    1.67 
  -4  -3  -2   67.54    2.51 
  -5  -3  -2    3.55    0.14 
  -5  -3  -2    4.35    0.45 
  -6  -3  -2   -0.02    0.06 
  -6  -3  -2   -0.22    0.11 
  -7  -3  -2    5.93    0.57 
  -7  -3  -2    5.90    0.21 
  -8  -3  -2    0.09    0.21 
  -8  -3  -2    0.37    0.06 
  -9  -3  -2    0.18    0.05 
  -9  -3  -2    0.26    0.29 
 -10  -3  -2    0.07    0.27 
 -11  -3  -2    1.20    0.50 
 -12  -3  -2    1.30    0.52 
 -13  -3  -2    0.69    0.51 
 -14  -3  -2    0.15    0.60 
 -15  -3  -2   -0.06    0.58 
 -16  -3  -2   -0.29    0.75 
 -13   4   2    0.10    0.51 
 -12   4   2    0.85    0.52 
 -11   4   2    0.09    0.38 
 -10   4   2    0.12    0.08 
 -10   4   2    0.20    0.37 
  -9   4   2    1.84    0.21 
  -8   4   2    3.63    0.25 
  -7   4   2    7.94    0.37 
   6  -4  -2   31.28    0.99 
   5  -4  -2   18.73    0.66 
   4  -4  -2    5.64    0.29 
   3  -4  -2    0.46    0.09 
   2  -4  -2    8.34    0.34 
   1  -4  -2    1.78    0.16 
   0  -4  -2   18.91    0.58 
   0  -4  -2   18.34    0.88 
   0   4   2   19.38    0.65 
  -1  -4  -2    8.75    0.32 
  -1  -4  -2    8.82    0.50 
   1   4   2    9.05    0.32 
  -2  -4  -2    3.95    0.18 
  -2  -4  -2    3.26    0.29 
  -3  -4  -2   24.25    1.06 
  -3  -4  -2   25.18    0.69 
  -4  -4  -2   22.90    0.65 
  -4  -4  -2   24.06    1.07 
  -5  -4  -2    9.85    0.63 
  -5  -4  -2    9.18    0.31 
  -6  -4  -2   14.95    0.89 
  -6  -4  -2   15.81    0.46 
  -7  -4  -2    2.74    0.14 
  -7  -4  -2    2.01    0.42 
  -8  -4  -2    3.16    0.18 
  -8  -4  -2    4.02    0.59 
  -9  -4  -2    1.10    0.39 
  -9  -4  -2    1.01    0.13 
 -10  -4  -2    0.98    0.43 
 -10  -4  -2    1.26    0.12 
 -11  -4  -2    0.28    0.34 
 -12  -4  -2    0.17    0.43 
 -13  -4  -2    0.38    0.53 
 -14  -4  -2   -0.09    0.60 
 -15  -4  -2    0.52    0.65 
 -16  -4  -2    0.31    0.85 
 -12   5   2   -0.19    0.43 
 -11   5   2    0.59    0.47 
 -10   5   2    0.79    0.49 
  -9   5   2    1.04    0.18 
  -8   5   2    2.83    0.27 
   7  -5  -2    0.34    0.12 
  -7   5   2    0.00    0.11 
   6  -5  -2   12.82    0.54 
   5  -5  -2    0.28    0.08 
   4  -5  -2   12.34    0.49 
   3  -5  -2    3.46    0.21 
   2  -5  -2   15.83    0.56 
   1  -5  -2   19.20    0.64 
  -1   5   2   20.27    0.77 
   0  -5  -2    9.07    0.35 
   0  -5  -2    8.40    0.55 
   0   5   2    8.97    0.38 
  -1  -5  -2   53.97    2.05 
  -1  -5  -2   53.24    1.43 
   1   5   2   53.79    1.65 
  -2  -5  -2    2.72    0.17 
  -2  -5  -2    2.79    0.27 
  -3  -5  -2   46.72    1.80 
  -3  -5  -2   45.39    1.22 
  -4  -5  -2    0.03    0.04 
  -4  -5  -2    0.19    0.12 
  -5  -5  -2    0.52    0.20 
  -5  -5  -2    0.35    0.07 
  -6  -5  -2    3.98    0.19 
  -6  -5  -2    4.67    0.52 
  -7  -5  -2    0.62    0.26 
  -7  -5  -2    1.07    0.11 
  -8  -5  -2    5.43    0.67 
  -8  -5  -2    5.55    0.24 
  -9  -5  -2    2.26    0.15 
  -9  -5  -2    2.39    0.55 
 -10  -5  -2    7.65    0.91 
 -10  -5  -2    8.63    0.34 
 -11  -5  -2    2.85    0.69 
 -12  -5  -2    7.46    1.07 
 -13  -5  -2    0.04    0.43 
 -14  -5  -2    0.54    0.66 
 -15  -5  -2   -0.30    0.59 
 -16  -5  -2    0.04    0.85 
 -12   6   2   -0.17    0.46 
 -11   6   2    0.26    0.41 
 -10   6   2   -0.31    0.32 
  -9   6   2    0.54    0.13 
  -8   6   2    1.41    0.21 
   7  -6  -2    2.98    0.31 
   6  -6  -2    2.80    0.29 
   5  -6  -2    0.61    0.14 
   4  -6  -2    1.26    0.17 
   3  -6  -2    0.18    0.06 
   2  -6  -2   43.05    1.29 
  -2   6   2   46.08    1.60 
   1  -6  -2   19.18    0.65 
  -1   6   2   18.68    0.76 
   0  -6  -2   55.68    1.52 
   0  -6  -2   53.61    2.20 
   0   6   2   57.45    1.79 
  -1  -6  -2    3.84    0.35 
  -1  -6  -2    4.31    0.24 
   1   6   2    4.45    0.23 
  -2  -6  -2   18.28    0.89 
  -2  -6  -2   18.25    0.60 
  -3  -6  -2   10.87    0.41 
  -3  -6  -2   11.48    0.64 
  -4  -6  -2  222.85    7.58 
  -4  -6  -2  219.28    5.40 
  -5  -6  -2    0.28    0.08 
  -5  -6  -2    0.60    0.22 
  -6  -6  -2  105.95    2.70 
  -6  -6  -2  108.74    3.97 
  -7  -6  -2   24.05    1.28 
  -7  -6  -2   23.87    0.71 
  -8  -6  -2    2.62    0.16 
  -8  -6  -2    2.82    0.52 
  -9  -6  -2   -0.11    0.29 
  -9  -6  -2    0.13    0.06 
 -10  -6  -2   20.77    0.64 
 -10  -6  -2   19.67    1.34 
 -11  -6  -2    1.68    0.61 
 -12  -6  -2    0.42    0.48 
 -13  -6  -2    0.13    0.49 
 -14  -6  -2    0.09    0.56 
 -15  -6  -2   -0.34    0.54 
 -16  -6  -2    0.16    0.74 
 -17  -6  -2   -0.11    0.81 
 -11   7   2   -0.05    0.45 
 -10   7   2   -0.06    0.36 
  -9   7   2    0.82    0.42 
  -9   7   2    0.72    0.14 
  -8   7   2    0.10    0.11 
   7  -7  -2    0.71    0.15 
   6  -7  -2    9.13    0.47 
   5  -7  -2    0.14    0.10 
   4  -7  -2    0.04    0.06 
  -4   7   2    0.18    0.14 
   3  -7  -2   17.98    0.69 
  -3   7   2   19.69    0.91 
   2  -7  -2    2.22    0.23 
  -2   7   2    1.72    0.26 
   1  -7  -2    0.00    0.05 
  -1   7   2   -0.01    0.07 
   0  -7  -2    0.29    0.08 
   0  -7  -2    0.11    0.08 
   0   7   2    0.23    0.08 
  -1  -7  -2   14.60    0.54 
   1   7   2   15.09    0.58 
  -2  -7  -2   10.17    0.61 
  -2  -7  -2    9.84    0.41 
  -3  -7  -2   24.70    1.14 
  -3  -7  -2   25.11    0.78 
  -4  -7  -2    4.33    0.39 
  -4  -7  -2    4.45    0.24 
  -5  -7  -2    1.74    0.17 
  -5  -7  -2    2.28    0.35 
  -6  -7  -2    2.24    0.19 
  -6  -7  -2    2.70    0.42 
  -7  -7  -2    0.80    0.29 
  -7  -7  -2    0.47    0.09 
  -8  -7  -2   29.12    0.86 
  -8  -7  -2   28.40    1.49 
  -9  -7  -2    3.08    0.19 
  -9  -7  -2    2.55    0.57 
 -10  -7  -2    0.60    0.10 
 -10  -7  -2    0.53    0.40 
 -11  -7  -2    6.59    0.94 
 -12  -7  -2    3.77    0.79 
 -13  -7  -2    0.41    0.52 
 -14  -7  -2    0.74    0.62 
 -15  -7  -2   -0.16    0.56 
 -16  -7  -2    0.12    0.59 
 -17  -7  -2   -0.53    0.49 
  -9   8   2   -0.26    0.38 
  -9   8   2    0.24    0.10 
   8  -8  -2    1.38    0.21 
  -8   8   2    0.40    0.36 
   7  -8  -2    0.30    0.11 
  -7   8   2   -0.25    0.23 
   6  -8  -2    1.58    0.23 
  -6   8   2    1.61    0.40 
   5  -8  -2    0.25    0.11 
  -5   8   2   -0.06    0.16 
   4  -8  -2    8.23    0.44 
  -4   8   2    8.99    0.62 
   3  -8  -2    8.60    0.45 
  -3   8   2    8.95    0.57 
   2  -8  -2    4.20    0.29 
  -2   8   2    4.63    0.35 
   1  -8  -2    0.17    0.10 
  -1   8   2    0.13    0.08 
   0  -8  -2    3.00    0.21 
   0   8   2    2.50    0.21 
  -1  -8  -2    5.55    0.31 
   1   8   2    5.06    0.29 
  -3  -8  -2    0.33    0.14 
  -3  -8  -2    0.29    0.08 
  -4  -8  -2   12.04    0.48 
  -4  -8  -2   11.65    0.70 
  -5  -8  -2    5.88    0.29 
  -5  -8  -2    5.21    0.47 
  -6  -8  -2   88.46    2.32 
  -6  -8  -2   88.32    3.37 
  -7  -8  -2    8.18    0.36 
  -7  -8  -2    7.08    0.62 
  -8  -8  -2   15.99    1.05 
  -8  -8  -2   18.28    0.61 
  -9  -8  -2    2.34    0.56 
  -9  -8  -2    2.17    0.16 
 -10  -8  -2    0.17    0.06 
 -10  -8  -2    0.53    0.43 
 -11  -8  -2    1.64    0.18 
 -11  -8  -2    1.92    0.60 
 -12  -8  -2    0.07    0.41 
 -13  -8  -2    2.81    0.71 
 -14  -8  -2    0.02    0.53 
 -15  -8  -2    0.08    0.54 
 -16  -8  -2   -0.28    0.43 
 -17  -8  -2    0.85    0.53 
   8  -9  -2    0.33    0.14 
   7  -9  -2    0.48    0.13 
   6  -9  -2    3.80    0.39 
   5  -9  -2    1.39    0.23 
  -5   9   2    1.11    0.33 
   4  -9  -2    0.35    0.12 
  -4   9   2    0.52    0.18 
   3  -9  -2    6.24    0.38 
  -3   9   2    6.26    0.47 
   2  -9  -2    2.52    0.29 
  -2   9   2    2.79    0.33 
   1  -9  -2    0.14    0.09 
  -1   9   2    0.10    0.10 
   0  -9  -2   13.59    0.58 
   0   9   2   13.84    0.63 
  -1  -9  -2    0.44    0.12 
  -1  -9  -2    0.51    0.20 
   1   9   2    0.38    0.11 
  -2  -9  -2    1.89    0.34 
  -2  -9  -2    1.52    0.20 
  -3  -9  -2   -0.15    0.07 
  -3  -9  -2    0.09    0.08 
  -4  -9  -2    1.45    0.30 
  -4  -9  -2    1.55    0.19 
  -5  -9  -2    2.35    0.38 
  -5  -9  -2    1.87    0.20 
  -6  -9  -2    0.63    0.22 
  -6  -9  -2    0.53    0.11 
  -7  -9  -2    9.88    0.73 
  -7  -9  -2   10.42    0.44 
  -8  -9  -2    0.20    0.21 
  -8  -9  -2   -0.03    0.05 
  -9  -9  -2    3.39    0.22 
  -9  -9  -2    4.40    0.69 
 -10  -9  -2    3.55    0.70 
 -10  -9  -2    2.90    0.20 
 -11  -9  -2    2.78    0.69 
 -11  -9  -2    3.40    0.22 
 -12  -9  -2    2.02    0.69 
 -13  -9  -2    0.62    0.53 
 -14  -9  -2    1.50    0.67 
 -15  -9  -2    0.06    0.60 
 -16  -9  -2    0.03    0.57 
 -17  -9  -2    0.41    0.59 
   8 -10  -2    0.10    0.09 
   7 -10  -2    0.56    0.15 
   6 -10  -2    0.21    0.11 
   5 -10  -2    0.36    0.12 
   4 -10  -2    0.88    0.18 
   3 -10  -2    1.24    0.22 
   2 -10  -2    3.39    0.35 
   1 -10  -2    9.48    0.50 
  -1  10   2    9.86    0.53 
   0 -10  -2    4.60    0.32 
   0  10   2    3.96    0.29 
  -1 -10  -2    0.43    0.13 
  -1 -10  -2    0.28    0.19 
   1  10   2    0.16    0.07 
  -2 -10  -2   11.06    0.73 
  -2 -10  -2   10.69    0.51 
  -3 -10  -2    0.12    0.09 
  -3 -10  -2    0.14    0.11 
  -4 -10  -2    0.00    0.09 
  -4 -10  -2    0.04    0.08 
  -5 -10  -2    0.51    0.20 
  -5 -10  -2    0.64    0.15 
  -6 -10  -2    7.06    0.56 
  -6 -10  -2    6.34    0.36 
  -7 -10  -2    5.84    0.65 
  -7 -10  -2    3.74    0.31 
  -8 -10  -2    0.00    0.27 
  -8 -10  -2    0.09    0.07 
  -9 -10  -2    0.15    0.31 
  -9 -10  -2    0.19    0.09 
 -10 -10  -2    0.86    0.15 
 -10 -10  -2    1.11    0.50 
 -11 -10  -2    0.44    0.43 
 -11 -10  -2    0.83    0.14 
 -12 -10  -2    0.28    0.44 
 -13 -10  -2    0.07    0.53 
 -14 -10  -2   -0.09    0.53 
 -15 -10  -2    0.56    0.60 
 -16 -10  -2    0.62    0.59 
   8 -11  -2    0.17    0.09 
   7 -11  -2    0.59    0.12 
   6 -11  -2    0.52    0.13 
   5 -11  -2    0.39    0.13 
   4 -11  -2    0.09    0.10 
   3 -11  -2    0.19    0.11 
   2 -11  -2    0.17    0.13 
   1 -11  -2   -0.06    0.11 
   0 -11  -2    5.02    0.43 
  -1 -11  -2    7.62    0.43 
  -2 -11  -2    1.50    0.31 
  -2 -11  -2    0.58    0.15 
  -3 -11  -2   -0.14    0.07 
  -3 -11  -2    0.43    0.17 
  -4 -11  -2    2.05    0.38 
  -4 -11  -2    2.03    0.27 
  -5 -11  -2   -0.08    0.08 
  -5 -11  -2    0.51    0.14 
  -6 -11  -2    4.39    0.57 
  -6 -11  -2    4.35    0.32 
  -7 -11  -2    2.53    0.45 
  -7 -11  -2    1.56    0.23 
  -8 -11  -2    0.71    0.36 
  -8 -11  -2    0.61    0.15 
  -9 -11  -2    0.57    0.35 
  -9 -11  -2    0.35    0.10 
 -10 -11  -2    6.65    0.91 
 -11 -11  -2    0.36    0.12 
 -11 -11  -2   -0.17    0.40 
 -12 -11  -2    1.61    0.61 
 -13 -11  -2    0.53    0.57 
 -14 -11  -2   -0.06    0.56 
 -15 -11  -2    0.05    0.58 
 -16 -11  -2    0.50    0.51 
   7 -12  -2    0.11    0.10 
   6 -12  -2   -0.14    0.09 
   4 -12  -2   -0.10    0.08 
   3 -12  -2   -0.06    0.08 
   2 -12  -2    1.25    0.23 
   1 -12  -2    0.07    0.09 
   0 -12  -2    5.78    0.40 
  -1 -12  -2    2.39    0.31 
  -2 -12  -2    0.08    0.11 
  -4 -12  -2    9.69    0.49 
  -5 -12  -2    0.54    0.18 
  -5 -12  -2    0.73    0.19 
  -6 -12  -2    0.95    0.18 
  -7 -12  -2    0.99    0.39 
  -7 -12  -2    0.61    0.17 
  -8 -12  -2    1.75    0.49 
  -8 -12  -2    1.30    0.21 
  -9 -12  -2    0.17    0.10 
  -9 -12  -2    0.11    0.34 
 -10 -12  -2   -0.16    0.36 
 -10 -12  -2   -0.10    0.08 
 -11 -12  -2    0.96    0.53 
 -11 -12  -2    0.97    0.17 
 -12 -12  -2   -0.10    0.46 
 -13 -12  -2    0.66    0.58 
 -14 -12  -2   -0.01    0.53 
 -15 -12  -2   -0.53    0.53 
 -16 -12  -2    0.26    0.50 
   5 -13  -2    0.13    0.11 
   4 -13  -2   -0.11    0.08 
   3 -13  -2   -0.15    0.10 
   2 -13  -2    0.26    0.13 
   1 -13  -2    0.17    0.11 
   0 -13  -2    0.55    0.18 
  -1 -13  -2    1.07    0.24 
  -2 -13  -2    0.30    0.15 
  -3 -13  -2    0.48    0.17 
  -4 -13  -2    0.42    0.17 
  -5 -13  -2    0.85    0.21 
  -7 -13  -2    0.37    0.20 
  -7 -13  -2    0.17    0.14 
  -8 -13  -2    4.20    0.66 
  -8 -13  -2    3.23    0.34 
  -9 -13  -2   -0.05    0.27 
  -9 -13  -2   -0.02    0.10 
 -10 -13  -2    0.97    0.50 
 -10 -13  -2    0.49    0.13 
 -11 -13  -2    0.89    0.52 
 -12 -13  -2    0.71    0.53 
 -13 -13  -2    0.05    0.52 
 -14 -13  -2    0.33    0.53 
 -15 -13  -2    0.68    0.55 
   4 -14  -2    0.08    0.12 
   3 -14  -2    0.19    0.14 
   2 -14  -2    0.29    0.13 
   1 -14  -2    1.24    0.23 
   0 -14  -2    0.77    0.19 
  -1 -14  -2    0.00    0.11 
  -2 -14  -2    5.90    0.53 
  -3 -14  -2    3.02    0.36 
  -4 -14  -2    0.15    0.13 
  -5 -14  -2    2.29    0.32 
  -6 -14  -2    1.25    0.22 
  -7 -14  -2    0.60    0.16 
  -8 -14  -2    0.29    0.13 
  -9 -14  -2    0.36    0.14 
 -10 -14  -2    0.20    0.12 
 -10 -14  -2    0.05    0.37 
 -11 -14  -2    0.68    0.46 
 -11 -14  -2    0.47    0.13 
 -12 -14  -2   -0.27    0.46 
 -13 -14  -2    0.67    0.53 
 -14 -14  -2   -0.13    0.43 
 -15 -14  -2    0.60    0.54 
   2 -15  -2    0.04    0.10 
   1 -15  -2   -0.06    0.18 
   0 -15  -2    0.32    0.13 
  -1 -15  -2    0.23    0.11 
  -2 -15  -2    0.14    0.14 
  -3 -15  -2    0.14    0.14 
  -4 -15  -2    0.16    0.15 
  -5 -15  -2    0.26    0.15 
  -6 -15  -2    0.00    0.12 
  -7 -15  -2    0.32    0.16 
  -8 -15  -2    0.12    0.11 
  -9 -15  -2    0.09    0.13 
 -10 -15  -2    0.06    0.09 
 -11 -15  -2    0.31    0.19 
   1 -16  -2    0.27    0.16 
   0 -16  -2    0.16    0.12 
  -1 -16  -2   -0.05    0.11 
  -2 -16  -2    0.04    0.13 
  -3 -16  -2    0.47    0.18 
  -4 -16  -2    0.26    0.17 
  -5 -16  -2    0.52    0.20 
  -6 -16  -2    0.79    0.19 
  -7 -16  -2    0.54    0.15 
  -8 -16  -2    0.56    0.17 
  -9 -16  -2    0.31    0.13 
 -10 -16  -2    0.53    0.15 
 -11 -16  -2    0.39    0.14 
  -2 -17  -2    0.02    0.14 
  -3 -17  -2    0.07    0.17 
  -4 -17  -2    0.37    0.16 
  -5 -17  -2    0.41    0.15 
  -6 -17  -2    0.55    0.17 
  -7 -17  -2    0.30    0.16 
  -8 -17  -2    0.04    0.12 
  -9 -17  -2    0.09    0.16 
 -10 -17  -2    0.15    0.13 
 -11 -17  -2    0.17    0.14 
  -6 -18  -2   -0.06    0.15 
  -7 -18  -2    0.70    0.18 
  -8 -18  -2    0.09    0.13 
 -10 -17   3    0.23    0.11 
  -8 -17   3    0.63    0.19 
  -7 -17   3    0.02    0.13 
  -6 -17   3    0.12    0.14 
  -5 -17   3    0.25    0.15 
  -4 -17   3    0.17    0.17 
  -3 -17   3    0.42    0.14 
  -2 -17   3    0.22    0.13 
 -12 -16   3    0.15    0.11 
 -11 -16   3    0.03    0.12 
 -10 -16   3    0.21    0.09 
  -9 -16   3    0.11    0.13 
  -8 -16   3    0.54    0.16 
  -7 -16   3    0.09    0.10 
  -6 -16   3    0.52    0.18 
  -5 -16   3    0.11    0.13 
  -4 -16   3    0.17    0.13 
  -3 -16   3    0.05    0.09 
  -2 -16   3    0.23    0.10 
  -1 -16   3    0.14    0.13 
   0 -16   3    0.09    0.16 
 -13 -15   3    0.33    0.10 
 -12 -15   3    0.59    0.15 
 -11 -15   3    0.61    0.17 
 -10 -15   3    0.58    0.15 
  -9 -15   3    0.43    0.17 
  -8 -15   3    0.67    0.21 
  -7 -15   3    0.24    0.17 
  -6 -15   3    0.29    0.18 
  -5 -15   3    1.42    0.25 
  -4 -15   3    0.15    0.14 
  -3 -15   3    0.88    0.20 
  -2 -15   3    0.09    0.11 
  -1 -15   3    0.46    0.14 
   0 -15   3   -0.12    0.09 
   1 -15   3    0.53    0.15 
   2 -15   3    0.15    0.11 
 -13 -14   3   -0.03    0.09 
 -12 -14   3    0.22    0.10 
 -11 -14   3    0.66    0.15 
 -10 -14   3    0.24    0.10 
  -9 -14   3    0.34    0.13 
  -8 -14   3    0.57    0.14 
  -7 -14   3    0.93    0.20 
  -6 -14   3    0.01    0.09 
  -5 -14   3    0.91    0.22 
  -4 -14   3    0.39    0.17 
  -3 -14   3    0.22    0.11 
  -2 -14   3    2.13    0.31 
  -1 -14   3    0.27    0.12 
   0 -14   3    0.65    0.16 
   1 -14   3    0.00    0.09 
   2 -14   3    0.04    0.09 
   3 -14   3   -0.02    0.10 
   4 -14   3    0.18    0.11 
 -13 -13   3    0.69    0.13 
 -12 -13   3    0.59    0.15 
 -11 -13   3    1.05    0.20 
 -10 -13   3    1.35    0.23 
  -9 -13   3    0.32    0.12 
  -8 -13   3    0.33    0.13 
  -7 -13   3    1.64    0.24 
  -6 -13   3    1.50    0.25 
  -5 -13   3    0.90    0.19 
  -4 -13   3    2.47    0.32 
  -3 -13   3   -0.18    0.07 
   2  13  -3    2.60    0.46 
  -2 -13   3    2.34    0.32 
   1  13  -3   -0.01    0.22 
  -1 -13   3    0.33    0.14 
   0  13  -3    0.89    0.32 
   0 -13   3    0.63    0.16 
  -1  13  -3    1.03    0.36 
   1 -13   3    1.61    0.26 
   2 -13   3    0.17    0.13 
   3 -13   3    0.29    0.14 
   4 -13   3   -0.11    0.08 
   5 -13   3    0.12    0.11 
 -15 -12   3    0.03    0.48 
 -14 -12   3    0.26    0.55 
 -13 -12   3    0.88    0.59 
 -13 -12   3    1.38    0.20 
 -12 -12   3    0.08    0.10 
 -12 -12   3    0.25    0.47 
 -11 -12   3    0.15    0.12 
 -11 -12   3    0.78    0.45 
 -10 -12   3    0.40    0.13 
  -9 -12   3    0.22    0.12 
  -8 -12   3    2.34    0.29 
  -7 -12   3    0.62    0.15 
  -6 -12   3    0.52    0.14 
  -5 -12   3    0.08    0.09 
  -4 -12   3    1.14    0.22 
  -3 -12   3    3.75    0.37 
   2  12  -3    0.29    0.24 
  -2 -12   3    0.36    0.14 
   1  12  -3    0.24    0.22 
  -1 -12   3    0.28    0.13 
   0  12  -3    0.33    0.24 
   0 -12   3    0.54    0.13 
  -1  12  -3    0.13    0.22 
   1 -12   3    0.19    0.13 
  -2  12  -3    0.55    0.30 
   2 -12   3    0.43    0.15 
  -3  12  -3    0.30    0.29 
   3 -12   3    0.11    0.12 
  -4  12  -3    0.26    0.30 
   4 -12   3    0.12    0.10 
   5 -12   3    0.12    0.10 
   6 -12   3    0.35    0.09 
 -15 -11   3   -0.41    0.47 
 -14 -11   3    0.18    0.55 
 -13 -11   3    1.05    0.18 
 -13 -11   3    0.84    0.55 
 -12 -11   3    0.14    0.11 
 -12 -11   3    0.12    0.48 
 -11 -11   3    0.08    0.09 
 -11 -11   3   -0.64    0.41 
 -10 -11   3    0.74    0.17 
 -10 -11   3    0.85    0.45 
  -9 -11   3    1.88    0.25 
  -9 -11   3    1.16    0.44 
  -7 -11   3    1.19    0.21 
  -6 -11   3    0.31    0.11 
  -5 -11   3   13.37    0.59 
  -4 -11   3    0.22    0.13 
  -3 -11   3    0.12    0.10 
   2  11  -3    0.97    0.29 
  -2 -11   3    1.17    0.20 
   1  11  -3    5.49    0.48 
  -1 -11   3    5.56    0.37 
   0  11  -3    0.06    0.20 
   0 -11   3    0.11    0.12 
  -1  11  -3    6.07    0.59 
   1 -11   3    5.33    0.37 
  -2  11  -3    0.85    0.30 
   2 -11   3    1.02    0.20 
  -3  11  -3    0.91    0.32 
   3 -11   3    0.44    0.15 
  -4  11  -3    1.14    0.40 
   4 -11   3    1.58    0.23 
  -5  11  -3    0.04    0.29 
   5 -11   3    0.08    0.11 
  -6  11  -3    0.05    0.32 
   6 -11   3    0.22    0.09 
  -7  11  -3    0.36    0.41 
 -16 -10   3    0.85    0.55 
 -15 -10   3    0.46    0.62 
 -14 -10   3    0.07    0.55 
 -13 -10   3    0.10    0.51 
 -13 -10   3   -0.01    0.10 
 -12 -10   3    0.06    0.52 
 -12 -10   3    0.50    0.15 
 -11 -10   3    0.47    0.51 
 -11 -10   3    0.18    0.12 
 -10 -10   3    0.54    0.14 
 -10 -10   3   -0.26    0.40 
  -9 -10   3    3.37    0.63 
  -9 -10   3    3.34    0.32 
  -8 -10   3    4.65    0.31 
  -7 -10   3    2.94    0.43 
  -7 -10   3    2.28    0.26 
  -6 -10   3    1.73    0.29 
  -6 -10   3    1.87    0.25 
  -4 -10   3    4.75    0.32 
   3  10  -3    3.02    0.39 
  -3 -10   3    2.67    0.29 
   2  10  -3    0.91    0.21 
  -2 -10   3    0.58    0.15 
   1  10  -3    0.72    0.19 
  -1 -10   3    0.73    0.16 
   0  10  -3    0.11    0.16 
   0 -10   3    0.12    0.09 
  -1  10  -3    0.65    0.25 
   1 -10   3    0.63    0.16 
  -2  10  -3   -0.05    0.20 
   2 -10   3    0.08    0.08 
  -3  10  -3   -0.18    0.20 
   3 -10   3    0.27    0.12 
  -4  10  -3    0.59    0.29 
   4 -10   3    0.61    0.14 
  -5  10  -3    3.67    0.60 
   5 -10   3    4.13    0.39 
  -6  10  -3    0.11    0.31 
   6 -10   3    0.18    0.09 
  -7  10  -3    0.02    0.31 
   7 -10   3    0.20    0.08 
  -8  10  -3    0.16    0.36 
  -9  10  -3   -0.48    0.38 
 -16  -9   3    0.66    0.58 
 -15  -9   3    0.23    0.56 
 -14  -9   3    1.09    0.64 
 -13  -9   3    0.57    0.20 
 -13  -9   3    0.63    0.56 
 -12  -9   3    0.22    0.18 
 -12  -9   3   -0.05    0.49 
 -11  -9   3    0.56    0.17 
 -11  -9   3    0.66    0.52 
 -10  -9   3    0.56    0.18 
 -10  -9   3    0.91    0.50 
  -9  -9   3   -0.03    0.35 
  -9  -9   3   -0.08    0.11 
  -8  -9   3    4.68    0.63 
  -8  -9   3    2.65    0.29 
  -7  -9   3    0.57    0.17 
  -7  -9   3    1.37    0.19 
  -6  -9   3    8.97    0.44 
  -6  -9   3   10.07    0.62 
  -5  -9   3    6.94    0.37 
  -5  -9   3    7.08    0.46 
  -4  -9   3    6.35    0.33 
   3   9  -3    5.13    0.42 
  -3  -9   3    4.22    0.29 
   2   9  -3    1.20    0.24 
  -2  -9   3    1.07    0.18 
   1   9  -3    5.50    0.43 
  -1  -9   3    5.93    0.35 
   0   9  -3    0.73    0.18 
   0  -9   3    0.64    0.14 
  -1   9  -3    3.65    0.42 
   1  -9   3    3.51    0.31 
  -2   9  -3    5.77    0.58 
   2  -9   3    6.24    0.37 
  -3   9  -3    1.33    0.34 
   3  -9   3    1.30    0.22 
  -4   9  -3    0.52    0.29 
   4  -9   3    0.45    0.14 
  -5   9  -3    0.84    0.35 
   5  -9   3    0.94    0.18 
  -6   9  -3    0.04    0.27 
   6  -9   3    0.01    0.08 
  -7   9  -3    0.26    0.33 
   7  -9   3    0.30    0.08 
  -8   9  -3   -0.03    0.30 
  -9   9  -3    0.15    0.36 
 -10   9  -3    0.30    0.42 
 -16  -8   3   -0.29    0.41 
 -15  -8   3    0.03    0.50 
 -14  -8   3   -0.36    0.49 
 -13  -8   3    0.22    0.46 
 -12  -8   3    0.64    0.54 
 -12  -8   3   -0.42    0.20 
 -11  -8   3   -0.49    0.18 
 -11  -8   3    0.45    0.48 
 -10  -8   3    0.47    0.45 
 -10  -8   3   -0.36    0.17 
  -9  -8   3   -0.36    0.14 
  -9  -8   3   -0.41    0.29 
  -8  -8   3   11.85    0.84 
  -7  -8   3    0.17    0.11 
  -7  -8   3    0.60    0.24 
  -6  -8   3    0.10    0.12 
  -6  -8   3    0.09    0.10 
  -5  -8   3    2.72    0.34 
  -5  -8   3    2.45    0.24 
  -4  -8   3    1.49    0.21 
  -4  -8   3    1.28    0.18 
  -3  -8   3   11.78    0.48 
  -3  -8   3   11.25    0.51 
   1   8  -3    7.20    0.48 
  -1  -8   3    7.19    0.36 
   0   8  -3   15.75    0.78 
   0  -8   3   15.02    0.59 
  -1   8  -3    0.06    0.11 
   1  -8   3    0.07    0.05 
  -2   8  -3    0.14    0.14 
   2  -8   3    0.11    0.07 
  -3   8  -3    0.69    0.27 
   3  -8   3    0.50    0.12 
  -4   8  -3    6.53    0.67 
   4  -8   3    6.78    0.38 
  -5   8  -3   14.12    0.95 
   5  -8   3   13.29    0.58 
  -6   8  -3   -0.05    0.25 
   6  -8   3    0.10    0.07 
  -7   8  -3    1.08    0.40 
   7  -8   3    1.93    0.24 
  -8   8  -3    0.44    0.35 
 -10   8  -3    0.31    0.39 
 -11   8  -3    0.34    0.39 
 -16  -7   3   -0.12    0.51 
 -15  -7   3   -0.10    0.56 
 -14  -7   3    0.19    0.55 
 -13  -7   3   -0.03    0.54 
 -12  -7   3    0.14    0.10 
 -12  -7   3    0.06    0.50 
 -11  -7   3    0.69    0.17 
 -11  -7   3    0.59    0.47 
 -10  -7   3    1.15    0.20 
 -10  -7   3    1.08    0.46 
  -9  -7   3   -0.20    0.29 
  -9  -7   3    0.15    0.10 
  -8  -7   3    0.27    0.23 
  -8  -7   3    0.06    0.07 
  -7  -7   3   -0.01    0.14 
  -7  -7   3    0.67    0.30 
  -6  -7   3    3.76    0.46 
  -6  -7   3    2.69    0.25 
  -5  -7   3    1.60    0.20 
  -5  -7   3    2.50    0.35 
  -4  -7   3   12.75    0.50 
  -4  -7   3   12.38    0.64 
  -3  -7   3    0.78    0.13 
  -3  -7   3    0.75    0.13 
   2   7  -3    1.92    0.28 
  -2  -7   3    2.19    0.22 
  -2  -7   3    3.02    0.16 
   1   7  -3    0.20    0.12 
  -1  -7   3    0.45    0.10 
   0   7  -3   17.70    0.82 
   0  -7   3   16.89    0.62 
  -1   7  -3    4.54    0.39 
   1  -7   3    4.28    0.25 
  -2   7  -3    3.85    0.43 
  -2   7  -3    4.40    0.31 
   2  -7   3    4.22    0.25 
  -3   7  -3    0.26    0.12 
  -3   7  -3    0.15    0.16 
   3  -7   3    0.14    0.06 
  -4   7  -3    0.05    0.20 
  -4   7  -3   -0.14    0.11 
   4  -7   3    0.20    0.06 
  -5   7  -3    0.06    0.22 
  -5   7  -3    0.16    0.15 
   5  -7   3    0.16    0.09 
  -6   7  -3    2.21    0.41 
  -6   7  -3    2.78    0.51 
   6  -7   3    2.39    0.25 
  -7   7  -3    0.63    0.34 
   7  -7   3    0.94    0.14 
  -8   7  -3    0.04    0.27 
  -9   7  -3    0.42    0.36 
 -10   7  -3    0.67    0.41 
 -11   7  -3    0.35    0.40 
 -16  -6   3    0.61    0.51 
 -15  -6   3   -0.10    0.53 
 -14  -6   3    0.44    0.66 
 -13  -6   3   -0.32    0.51 
 -12  -6   3    1.30    0.64 
 -11  -6   3    1.97    0.23 
 -11  -6   3    1.52    0.59 
 -10  -6   3    1.65    0.53 
 -10  -6   3    1.50    0.20 
  -9  -6   3    1.30    0.19 
  -9  -6   3    1.55    0.47 
  -8  -6   3   13.72    0.53 
  -8  -6   3   14.64    0.96 
  -7  -6   3    0.82    0.31 
  -7  -6   3    0.60    0.13 
  -6  -6   3   12.51    0.48 
  -6  -6   3   13.04    0.79 
  -5  -6   3    3.39    0.34 
  -4  -6   3   14.52    0.72 
  -4  -6   3   13.42    0.51 
  -3  -6   3    3.51    0.22 
  -3  -6   3    3.34    0.25 
   2   6  -3   22.10    0.91 
  -2  -6   3   21.68    0.83 
  -2  -6   3   21.98    0.70 
   1   6  -3   12.65    0.62 
  -1  -6   3   12.22    0.46 
   0   6  -3   15.40    0.73 
   0  -6   3   15.36    0.54 
  -1   6  -3   11.45    0.49 
  -1   6  -3   11.21    0.62 
   1  -6   3   11.64    0.45 
  -2   6  -3    4.91    0.33 
  -2   6  -3    4.74    0.40 
   2  -6   3    5.22    0.27 
  -3   6  -3    5.76    0.41 
  -3   6  -3    5.61    0.48 
   3  -6   3    5.96    0.30 
  -4   6  -3   12.08    0.76 
  -4   6  -3   12.02    0.71 
   4  -6   3   11.40    0.47 
  -5   6  -3    7.23    0.59 
  -5   6  -3    7.56    0.72 
   5  -6   3    7.62    0.35 
  -6   6  -3    4.77    0.63 
  -6   6  -3    4.63    0.55 
   6  -6   3    4.79    0.27 
  -7   6  -3   21.91    1.21 
  -7   6  -3   19.65    1.20 
   7  -6   3   18.89    0.70 
  -8   6  -3    1.38    0.43 
  -8   6  -3    1.72    0.46 
  -9   6  -3    0.18    0.35 
  -9   6  -3    0.12    0.30 
 -10   6  -3    0.38    0.33 
 -11   6  -3    0.01    0.34 
 -12   6  -3   -0.23    0.34 
 -16  -5   3    0.20    0.54 
 -15  -5   3    0.02    0.58 
 -14  -5   3    0.12    0.54 
 -13  -5   3   -0.26    0.44 
 -12  -5   3    0.06    0.45 
 -12  -5   3    0.48    0.12 
 -11  -5   3    1.06    0.19 
 -11  -5   3    0.77    0.51 
 -10  -5   3    6.54    0.35 
 -10  -5   3    6.41    0.89 
  -9  -5   3    0.08    0.11 
  -9  -5   3    0.09    0.35 
  -8  -5   3    0.64    0.13 
  -8  -5   3    0.52    0.25 
  -7  -5   3    4.01    0.57 
  -7  -5   3    3.48    0.23 
  -6  -5   3   16.74    0.95 
  -6  -5   3   16.92    0.58 
  -5  -5   3    7.59    0.55 
  -5  -5   3    7.82    0.34 
  -4  -5   3    0.08    0.08 
  -4  -5   3    0.01    0.07 
  -3  -5   3   19.22    0.83 
  -3  -5   3   19.13    0.62 
   2   5  -3    1.42    0.23 
  -2  -5   3    1.22    0.13 
  -2  -5   3    1.08    0.15 
   1   5  -3   15.18    0.67 
  -1  -5   3   14.28    0.49 
   0   5  -3    2.56    0.29 
   0  -5   3    2.78    0.18 
  -1   5  -3    2.91    0.32 
  -1   5  -3    2.67    0.17 
   1  -5   3    2.42    0.16 
  -2   5  -3   22.66    1.01 
  -2   5  -3   23.66    0.95 
   2  -5   3   23.73    0.73 
  -3   5  -3    3.31    0.31 
  -3   5  -3    3.37    0.41 
   3  -5   3    3.08    0.19 
  -4   5  -3    5.87    0.51 
  -4   5  -3    6.47    0.49 
   4  -5   3    6.53    0.30 
  -5   5  -3    0.82    0.27 
  -5   5  -3    0.63    0.23 
   5  -5   3    1.32    0.15 
  -6   5  -3    2.77    0.44 
  -6   5  -3    3.23    0.52 
   6  -5   3    1.67    0.16 
  -7   5  -3   -0.05    0.20 
  -7   5  -3   -0.05    0.20 
   7  -5   3    0.25    0.05 
  -8   5  -3    1.49    0.45 
  -8   5  -3    1.90    0.47 
   8  -5   3    2.00    0.19 
  -9   5  -3    0.01    0.32 
 -10   5  -3    0.56    0.41 
 -11   5  -3    0.01    0.40 
 -13   5  -3    0.29    0.39 
 -16  -4   3   -0.30    0.44 
 -15  -4   3   -0.33    0.56 
 -14  -4   3   -0.31    0.52 
 -13  -4   3    0.18    0.53 
 -12  -4   3    0.13    0.51 
 -12  -4   3    0.36    0.12 
 -11  -4   3    4.52    0.29 
 -11  -4   3    4.64    0.85 
 -10  -4   3    1.20    0.18 
 -10  -4   3    1.16    0.47 
  -9  -4   3    0.00    0.29 
  -9  -4   3    0.04    0.11 
  -8  -4   3    5.55    0.29 
  -8  -4   3    5.89    0.73 
  -7  -4   3   26.54    1.40 
  -7  -4   3   27.09    0.82 
  -6  -4   3   30.37    1.47 
  -6  -4   3   31.18    0.91 
  -5  -4   3   15.31    0.52 
  -5  -4   3   14.83    0.85 
  -4  -4   3   53.09    1.42 
  -4  -4   3   53.49    2.07 
  -3  -4   3    8.64    0.33 
  -3  -4   3    8.54    0.48 
   2   4  -3    0.77    0.16 
  -2  -4   3    0.61    0.10 
  -2  -4   3    0.87    0.13 
   1   4  -3   16.46    0.69 
  -1  -4   3   16.25    0.61 
  -1  -4   3   17.15    0.53 
   0   4  -3   10.01    0.50 
   0  -4   3   10.47    0.37 
  -1   4  -3  142.99    4.53 
  -1   4  -3  149.90    4.94 
   1  -4   3  148.26    3.64 
  -2   4  -3   16.35    0.78 
  -2   4  -3   16.55    0.70 
   2  -4   3   16.26    0.52 
  -3   4  -3    2.20    0.32 
  -3   4  -3    2.28    0.26 
   3  -4   3    1.85    0.13 
  -4   4  -3   19.73    0.97 
  -4   4  -3   22.17    1.04 
   4  -4   3   20.11    0.64 
  -5   4  -3    1.23    0.28 
  -5   4  -3    1.22    0.29 
  -6   4  -3    0.52    0.25 
   6  -4   3    0.92    0.11 
  -7   4  -3   18.99    1.15 
   7  -4   3   20.03    0.65 
  -8   4  -3    0.90    0.37 
   8  -4   3    1.56    0.16 
  -9   4  -3   -0.22    0.26 
 -10   4  -3   -0.07    0.32 
 -11   4  -3   -0.06    0.34 
 -12   4  -3    0.11    0.43 
 -13   4  -3    0.10    0.52 
 -15  -3   3   -0.97    0.66 
 -14  -3   3    1.44    0.69 
 -13  -3   3    0.14    0.49 
 -12  -3   3   -0.20    0.37 
 -11  -3   3   -0.10    0.33 
 -11  -3   3    0.13    0.11 
 -10  -3   3    0.20    0.12 
 -10  -3   3    0.17    0.36 
  -9  -3   3    0.36    0.13 
  -9  -3   3    0.38    0.30 
  -8  -3   3    1.96    0.19 
  -8  -3   3    2.16    0.49 
  -7  -3   3   13.16    0.47 
  -7  -3   3   14.45    0.93 
  -6  -3   3    3.58    0.50 
  -6  -3   3    3.75    0.22 
  -5  -3   3   19.82    0.61 
  -5  -3   3   19.75    1.03 
  -4  -3   3    8.25    0.32 
  -3  -3   3   91.31    2.30 
  -2  -3   3  215.18    5.22 
   1   3  -3  291.51    8.82 
  -1  -3   3  307.01    7.22 
   0   3  -3   22.29    0.85 
   0  -3   3   22.06    0.64 
  -1   3  -3   35.15    1.28 
  -1   3  -3   36.37    1.26 
   1  -3   3   36.31    0.97 
  -2   3  -3   11.20    0.59 
  -2   3  -3   12.27    0.55 
   2  -3   3   12.22    0.39 
  -3   3  -3   36.58    1.41 
  -3   3  -3   35.49    1.41 
  -4   3  -3   19.26    0.91 
  -4   3  -3   21.01    0.95 
   4  -3   3   16.00    0.54 
  -5   3  -3    0.02    0.15 
   5  -3   3    0.08    0.03 
  -6   3  -3    0.35    0.20 
   6  -3   3    0.27    0.04 
  -7   3  -3    6.51    0.61 
   7  -3   3    5.72    0.26 
  -8   3  -3    0.08    0.22 
   8  -3   3    0.05    0.04 
  -9   3  -3    1.94    0.49 
 -10   3  -3    0.94    0.42 
 -11   3  -3    1.83    0.57 
 -12   3  -3   -0.02    0.41 
 -13   3  -3    0.15    0.45 
 -14   3  -3   -0.17    0.47 
 -15  -2   3   -0.38    0.74 
 -14  -2   3   -0.08    0.60 
 -13  -2   3    0.18    0.50 
 -12  -2   3   -0.19    0.45 
 -11  -2   3    1.88    0.21 
 -11  -2   3    1.54    0.54 
 -10  -2   3    2.84    0.65 
 -10  -2   3    3.08    0.24 
  -9  -2   3    1.01    0.39 
  -9  -2   3    1.25    0.16 
  -8  -2   3    0.23    0.10 
  -8  -2   3    0.14    0.26 
  -7  -2   3   14.61    0.99 
  -7  -2   3   14.65    0.49 
  -6  -2   3    0.31    0.10 
  -5  -2   3   13.33    0.44 
  -4  -2   3  141.33    3.47 
  -3  -2   3  177.61    4.32 
  -2  -2   3  357.69    8.58 
   1   2  -3   43.93    1.43 
  -1  -2   3   43.25    1.13 
   0   2  -3   23.80    0.87 
   0   2  -3   24.61    0.87 
   0  -2   3   23.74    0.66 
  -1   2  -3    0.02    0.07 
  -1   2  -3    0.03    0.06 
   1  -2   3   -0.05    0.05 
  -2   2  -3   20.56    0.87 
  -2   2  -3   22.10    0.87 
  -3   2  -3   51.97    1.85 
  -3   2  -3   53.54    1.95 
   3  -2   3   51.43    1.33 
  -4   2  -3   38.34    1.56 
   4  -2   3   37.85    1.01 
  -5   2  -3   26.44    1.25 
   5  -2   3   27.24    0.75 
  -6   2  -3    0.91    0.29 
   6  -2   3    1.29    0.09 
  -7   2  -3    5.21    0.62 
   7  -2   3    4.99    0.22 
  -8   2  -3    0.10    0.04 
  -8   2  -3    0.04    0.22 
  -9   2  -3    0.38    0.35 
 -10   2  -3    0.51    0.34 
 -11   2  -3   -0.11    0.35 
 -12   2  -3    0.22    0.42 
 -13   2  -3   -0.11    0.42 
 -14   2  -3    0.03    0.47 
 -15  -1   3   -0.02    0.76 
 -14  -1   3    0.32    0.65 
 -13  -1   3    0.39    0.61 
 -12  -1   3    0.65    0.52 
 -11  -1   3    1.71    0.58 
 -11  -1   3    2.16    0.22 
 -10  -1   3    2.24    0.58 
 -10  -1   3    2.80    0.20 
  -9  -1   3    0.23    0.30 
  -9  -1   3    0.03    0.09 
  -8  -1   3    3.67    0.21 
  -8  -1   3    3.25    0.61 
  -7  -1   3   21.02    0.64 
  -6  -1   3    2.73    0.17 
  -5  -1   3   12.87    0.42 
  -4  -1   3   48.56    1.26 
  -3  -1   3   35.67    0.94 
  -2  -1   3   84.95    2.10 
   1   1  -3  194.39    5.75 
  -1  -1   3  194.33    4.68 
   0   1  -3   25.87    0.99 
   0   1  -3   26.61    0.91 
   0  -1   3   27.08    0.70 
  -1   1  -3    0.32    0.08 
  -1   1  -3    0.36    0.09 
  -2   1  -3    1.18    0.17 
  -2   1  -3    1.18    0.17 
  -2   1  -3    0.88    0.16 
   2  -1   3    0.86    0.07 
  -3   1  -3   56.89    2.09 
   3  -1   3   56.23    1.40 
  -4   1  -3   22.07    1.03 
   4  -1   3   22.70    0.60 
  -5   1  -3   59.00    2.34 
   5  -1   3   60.68    1.51 
  -6   1  -3    0.01    0.16 
   6  -1   3    0.14    0.02 
  -7   1  -3    0.93    0.08 
  -7   1  -3    0.63    0.26 
  -8   1  -3    0.43    0.27 
  -8   1  -3    0.77    0.08 
  -9   1  -3   -0.07    0.26 
 -10   1  -3    1.04    0.45 
 -11   1  -3    2.00    0.57 
 -12   1  -3    0.06    0.37 
 -13   1  -3    0.42    0.46 
 -14   1  -3    0.57    0.56 
 -15   1  -3   -0.23    0.53 
 -15   0   3    0.36    0.78 
 -14   0   3    0.30    0.60 
 -13   0   3    0.03    0.49 
 -12   0   3    0.07    0.46 
 -11   0   3    0.20    0.37 
 -11   0   3    0.73    0.14 
 -10   0   3    1.14    0.16 
 -10   0   3    0.88    0.44 
  -9   0   3    0.43    0.10 
  -9   0   3    0.47    0.34 
  -8   0   3   13.42    0.47 
  -7   0   3    0.34    0.08 
  -6   0   3    0.10    0.05 
  -5   0   3   20.31    0.60 
  -4   0   3    7.64    0.27 
  -3   0   3   16.04    0.47 
  -2   0   3   54.07    1.36 
  -1   0   3  623.46   14.85 
   0   0  -3   41.64    1.28 
   0   0  -3   39.06    1.49 
   0   0   3   40.68    1.01 
  -1   0  -3  866.88   28.92 
  -1   0  -3  895.99   25.57 
  -2   0  -3    3.80    0.25 
  -2   0  -3    4.32    0.30 
   2   0   3    4.22    0.14 
  -3   0  -3    2.01    0.26 
   3   0   3    1.34    0.06 
  -4   0  -3   22.58    1.07 
   4   0   3   24.99    0.61 
  -5   0  -3    2.04    0.08 
  -5   0  -3    2.11    0.35 
  -6   0  -3   18.89    0.49 
  -6   0  -3   18.77    1.04 
  -7   0  -3    1.51    0.08 
  -7   0  -3    1.64    0.38 
  -8   0  -3    0.33    0.04 
  -8   0  -3    0.15    0.21 
  -9   0  -3    0.15    0.29 
 -10   0  -3    2.03    0.53 
 -11   0  -3    1.35    0.49 
 -12   0  -3    0.22    0.40 
 -13   0  -3    0.77    0.52 
 -14   0  -3    0.33    0.46 
 -15   0  -3   -0.22    0.54 
 -14   1   3    0.29    0.62 
 -13   1   3    0.55    0.62 
 -12   1   3    0.57    0.49 
 -11   1   3    0.27    0.10 
 -11   1   3    0.07    0.36 
 -10   1   3    3.75    0.73 
 -10   1   3    5.69    0.29 
  -9   1   3    6.89    0.31 
  -8   1   3    0.40    0.09 
  -7   1   3    1.09    0.13 
  -6   1   3    0.72    0.11 
  -5   1   3    3.25    0.18 
  -4   1   3    9.61    0.34 
  -3   1   3   48.75    1.26 
  -2   1   3    3.06    0.15 
   1  -1  -3    1.81    0.24 
  -1   1   3    1.97    0.11 
   0  -1  -3    2.39    0.24 
   0   1   3    2.21    0.11 
   1   1   3   34.16    0.86 
  -2  -1  -3   44.59    1.65 
   2   1   3   44.72    1.10 
  -3  -1  -3    3.04    0.30 
  -4  -1  -3    0.29    0.16 
  -5  -1  -3   94.10    3.47 
  -6  -1  -3    4.14    0.49 
  -6  -1  -3    3.85    0.12 
  -7  -1  -3    4.29    0.54 
  -7  -1  -3    3.79    0.13 
  -8  -1  -3    3.50    0.55 
  -8  -1  -3    3.37    0.13 
  -9  -1  -3    1.32    0.46 
 -10  -1  -3    4.80    0.72 
 -11  -1  -3    6.47    0.88 
 -12  -1  -3   -0.07    0.39 
 -14  -1  -3    1.02    0.57 
 -15  -1  -3   -0.08    0.56 
 -16  -1  -3    0.61    0.70 
 -14   2   3    1.53    0.74 
 -13   2   3    0.15    0.46 
 -12   2   3    0.07    0.45 
 -11   2   3    1.29    0.55 
 -10   2   3    0.00    0.09 
 -10   2   3   -0.30    0.27 
  -9   2   3    0.00    0.08 
  -8   2   3   17.70    0.61 
  -7   2   3    3.66    0.21 
  -6   2   3    2.10    0.15 
  -5   2   3    2.14    0.15 
  -4   2   3   98.41    2.49 
  -3   2   3   11.59    0.40 
   2  -2  -3    3.85    0.19 
   1  -2  -3    6.66    0.46 
   1  -2  -3    6.70    0.26 
   0  -2  -3   14.40    0.44 
   0  -2  -3   14.40    0.71 
  -1  -2  -3  211.46    5.12 
  -1  -2  -3  203.64    7.14 
  -1  -2  -3  221.50    6.30 
  -2  -2  -3  356.99   12.17 
  -2  -2  -3  376.41    8.79 
  -3  -2  -3   64.25    2.36 
  -3  -2  -3   63.84    1.57 
  -4  -2  -3   22.56    1.05 
  -4  -2  -3   22.61    0.58 
   4   2   3   23.24    0.58 
  -5  -2  -3    8.84    0.61 
  -6  -2  -3    0.16    0.20 
  -7  -2  -3    0.18    0.03 
  -7  -2  -3    0.06    0.22 
  -8  -2  -3    8.79    0.76 
  -8  -2  -3    8.76    0.26 
  -9  -2  -3    0.43    0.33 
  -9  -2  -3    0.60    0.06 
 -10  -2  -3   -0.01    0.30 
 -11  -2  -3    0.38    0.39 
 -12  -2  -3    0.30    0.40 
 -13  -2  -3    0.76    0.53 
 -14  -2  -3    0.90    0.58 
 -15  -2  -3   -0.21    0.56 
 -16  -2  -3    0.50    0.69 
 -13   3   3    0.07    0.55 
 -12   3   3    0.35    0.52 
 -11   3   3    0.15    0.36 
 -10   3   3    0.69    0.14 
 -10   3   3    0.49    0.39 
  -9   3   3    0.30    0.12 
  -8   3   3    0.58    0.14 
  -7   3   3    1.13    0.15 
  -6   3   3    4.42    0.25 
  -5   3   3   13.17    0.48 
   4  -3  -3    2.83    0.19 
   3  -3  -3   57.10    1.55 
   2  -3  -3  113.05    2.86 
   1  -3  -3    0.91    0.11 
   1  -3  -3    0.94    0.22 
   0  -3  -3   42.08    1.69 
   0  -3  -3   43.08    1.14 
  -1  -3  -3  117.70    4.15 
  -1  -3  -3  119.42    2.92 
  -2  -3  -3  210.64    7.27 
  -2  -3  -3  219.41    5.20 
  -3  -3  -3    3.10    0.14 
  -3  -3  -3    3.18    0.30 
  -4  -3  -3   28.75    1.26 
  -4  -3  -3   28.68    0.74 
  -5  -3  -3    0.74    0.05 
  -5  -3  -3    0.83    0.24 
  -6  -3  -3    0.82    0.26 
  -6  -3  -3    0.77    0.05 
  -7  -3  -3    1.86    0.09 
  -7  -3  -3    1.89    0.41 
  -8  -3  -3    1.26    0.09 
  -8  -3  -3    1.26    0.38 
  -9  -3  -3    1.55    0.44 
  -9  -3  -3    2.48    0.14 
 -10  -3  -3    1.18    0.46 
 -11  -3  -3    2.09    0.60 
 -12  -3  -3    3.25    0.71 
 -13  -3  -3    0.14    0.45 
 -14  -3  -3   -0.05    0.50 
 -15  -3  -3    0.25    0.66 
 -16  -3  -3    0.02    0.70 
 -13   4   3   -0.29    0.50 
 -12   4   3    0.07    0.43 
 -11   4   3    0.12    0.40 
 -10   4   3    0.28    0.11 
 -10   4   3    0.15    0.38 
  -9   4   3    0.48    0.13 
  -8   4   3    7.84    0.39 
  -7   4   3    2.54    0.25 
  -6   4   3    4.11    0.25 
   5  -4  -3    6.59    0.34 
   4  -4  -3   39.23    1.17 
   3  -4  -3    0.30    0.07 
   2  -4  -3   19.87    0.65 
   1  -4  -3   72.60    2.84 
   1  -4  -3   77.30    1.96 
   0  -4  -3   52.35    2.09 
   0  -4  -3   53.58    1.43 
   0   4   3   54.21    1.64 
  -1  -4  -3    0.06    0.08 
  -1  -4  -3    0.06    0.06 
  -2  -4  -3   45.07    1.77 
  -2  -4  -3   46.11    1.20 
  -3  -4  -3   12.59    0.68 
  -3  -4  -3   13.00    0.41 
  -4  -4  -3   54.19    2.12 
  -4  -4  -3   54.82    1.39 
  -5  -4  -3   21.10    0.58 
  -5  -4  -3   21.49    1.06 
  -6  -4  -3   -0.06    0.15 
  -6  -4  -3    0.24    0.04 
  -7  -4  -3    0.37    0.05 
  -7  -4  -3    0.52    0.24 
  -8  -4  -3   14.39    0.99 
  -8  -4  -3   15.66    0.44 
  -9  -4  -3   14.79    1.08 
  -9  -4  -3   15.17    0.44 
 -10  -4  -3    0.02    0.32 
 -11  -4  -3    0.95    0.47 
 -12  -4  -3    0.79    0.50 
 -13  -4  -3    0.06    0.45 
 -14  -4  -3    0.77    0.62 
 -15  -4  -3    0.21    0.65 
 -16  -4  -3    0.44    0.80 
 -12   5   3   -0.11    0.45 
 -11   5   3    0.42    0.48 
 -10   5   3    0.24    0.08 
 -10   5   3   -0.42    0.32 
  -9   5   3    0.11    0.08 
  -8   5   3   -0.01    0.11 
  -7   5   3   18.05    0.68 
   6  -5  -3    0.01    0.08 
   5  -5  -3   18.81    0.70 
   4  -5  -3    0.37    0.08 
   3  -5  -3    2.69    0.24 
   2  -5  -3   15.14    0.55 
   1  -5  -3    0.48    0.09 
   1  -5  -3    0.40    0.17 
  -1   5   3    0.56    0.11 
   0  -5  -3    2.85    0.19 
   0  -5  -3    3.47    0.41 
   0   5   3    3.41    0.18 
  -1  -5  -3   13.75    0.48 
  -1  -5  -3   12.97    0.74 
   1   5   3   13.98    0.46 
  -2  -5  -3    0.15    0.11 
  -2  -5  -3    0.15    0.06 
  -3  -5  -3   12.58    0.69 
  -3  -5  -3   12.73    0.43 
  -4  -5  -3  200.87    4.91 
  -4  -5  -3  202.14    6.95 
  -5  -5  -3   13.04    0.42 
  -5  -5  -3   13.28    0.78 
  -6  -5  -3    9.20    0.31 
  -6  -5  -3    9.28    0.68 
  -7  -5  -3    0.68    0.27 
  -7  -5  -3    0.71    0.08 
  -8  -5  -3   13.54    0.93 
  -8  -5  -3   13.89    0.43 
  -9  -5  -3    0.44    0.06 
  -9  -5  -3    0.59    0.35 
 -10  -5  -3    1.56    0.49 
 -11  -5  -3    3.86    0.76 
 -12  -5  -3    1.13    0.56 
 -13  -5  -3    0.09    0.50 
 -14  -5  -3    0.17    0.57 
 -15  -5  -3   -0.50    0.62 
 -16  -5  -3   -0.01    0.78 
 -12   6   3    0.39    0.51 
 -11   6   3    0.01    0.40 
 -10   6   3    0.36    0.44 
 -10   6   3   -0.03    0.07 
  -9   6   3    0.33    0.12 
  -8   6   3   -0.01    0.10 
  -7   6   3    1.01    0.20 
   6  -6  -3    0.06    0.08 
   5  -6  -3   12.90    0.57 
   4  -6  -3    1.52    0.21 
   3  -6  -3    3.32    0.23 
   2  -6  -3    0.15    0.06 
  -2   6   3    0.17    0.10 
   1  -6  -3   29.26    0.91 
  -1   6   3   28.73    1.04 
   0  -6  -3    8.95    0.63 
   0  -6  -3    7.90    0.36 
   0   6   3    8.99    0.37 
  -1  -6  -3   12.84    0.49 
  -1  -6  -3   13.80    0.78 
   1   6   3   14.12    0.48 
  -2  -6  -3    0.18    0.07 
  -2  -6  -3    0.16    0.12 
  -3  -6  -3   18.11    0.58 
  -3  -6  -3   17.31    0.89 
  -4  -6  -3    4.48    0.46 
  -4  -6  -3    3.86    0.21 
  -5  -6  -3   22.70    0.68 
  -5  -6  -3   22.08    1.11 
  -6  -6  -3    6.36    0.57 
  -6  -6  -3    6.98    0.28 
  -7  -6  -3    1.28    0.13 
  -7  -6  -3    1.47    0.35 
  -8  -6  -3    3.30    0.56 
  -8  -6  -3    3.16    0.17 
  -9  -6  -3    2.40    0.14 
  -9  -6  -3    2.38    0.55 
 -10  -6  -3    0.56    0.38 
 -10  -6  -3    0.61    0.08 
 -11  -6  -3    0.08    0.38 
 -12  -6  -3    1.25    0.56 
 -13  -6  -3   -0.06    0.45 
 -14  -6  -3    0.22    0.58 
 -15  -6  -3    0.30    0.64 
 -16  -6  -3    0.50    0.83 
 -17  -6  -3    0.79    0.89 
 -11   7   3    0.35    0.49 
 -10   7   3    0.24    0.42 
  -9   7   3    0.65    0.15 
  -8   7   3    0.45    0.15 
   7  -7  -3    0.41    0.12 
   6  -7  -3    0.13    0.10 
   5  -7  -3    0.09    0.09 
   4  -7  -3   11.45    0.53 
   3  -7  -3    2.88    0.29 
  -3   7   3    3.48    0.39 
   2  -7  -3    4.87    0.29 
  -2   7   3    5.17    0.36 
   1  -7  -3    0.08    0.05 
  -1   7   3    0.00    0.05 
   0  -7  -3    8.63    0.62 
   0  -7  -3    7.77    0.37 
   0   7   3    7.84    0.37 
  -1  -7  -3   22.71    0.76 
  -1  -7  -3   23.05    1.16 
   1   7   3   23.89    0.79 
  -2  -7  -3    8.91    0.39 
  -2  -7  -3    9.19    0.61 
  -3  -7  -3    6.08    0.48 
  -3  -7  -3    6.20    0.30 
  -4  -7  -3    8.42    0.35 
  -4  -7  -3    7.65    0.57 
  -5  -7  -3   25.65    0.78 
  -5  -7  -3   25.40    1.24 
  -6  -7  -3   22.61    0.72 
  -6  -7  -3   25.70    1.25 
  -7  -7  -3   12.11    0.85 
  -7  -7  -3   13.21    0.46 
  -8  -7  -3   55.89    2.42 
  -8  -7  -3   55.48    1.49 
  -9  -7  -3    6.40    0.79 
  -9  -7  -3    6.23    0.27 
 -10  -7  -3    3.39    0.67 
 -10  -7  -3    2.82    0.17 
 -11  -7  -3    2.06    0.62 
 -12  -7  -3    4.27    0.81 
 -13  -7  -3    0.56    0.49 
 -14  -7  -3   -0.23    0.44 
 -15  -7  -3    0.04    0.56 
 -16  -7  -3    0.40    0.55 
 -17  -7  -3    0.11    0.57 
 -10   8   3    0.72    0.48 
  -9   8   3    0.17    0.10 
  -8   8   3    0.39    0.14 
   7  -8  -3    0.36    0.10 
  -7   8   3    0.10    0.30 
   6  -8  -3    1.54    0.23 
  -6   8   3    1.37    0.39 
   5  -8  -3    4.15    0.39 
  -5   8   3    5.35    0.55 
   4  -8  -3    1.73    0.24 
  -4   8   3    1.34    0.28 
   3  -8  -3    0.45    0.13 
  -3   8   3    0.12    0.13 
   2  -8  -3    1.19    0.20 
  -2   8   3    1.23    0.22 
   1  -8  -3   14.84    0.60 
  -1   8   3   14.60    0.64 
   0  -8  -3    0.29    0.09 
   0  -8  -3    0.76    0.25 
   0   8   3    0.52    0.10 
  -1  -8  -3    0.06    0.11 
  -1  -8  -3    0.12    0.06 
  -2  -8  -3    1.34    0.30 
  -2  -8  -3    1.33    0.17 
  -3  -8  -3   -0.01    0.06 
  -3  -8  -3    0.05    0.11 
  -4  -8  -3    0.48    0.19 
  -4  -8  -3    0.46    0.11 
  -5  -8  -3    0.40    0.09 
  -5  -8  -3    0.15    0.17 
  -6  -8  -3    1.04    0.31 
  -6  -8  -3    0.78    0.14 
  -7  -8  -3    0.74    0.27 
  -7  -8  -3    0.73    0.12 
  -8  -8  -3   -0.03    0.06 
  -8  -8  -3    0.30    0.23 
  -9  -8  -3    0.57    0.36 
  -9  -8  -3    0.49    0.08 
 -10  -8  -3    0.12    0.36 
 -10  -8  -3    0.10    0.04 
 -11  -8  -3    5.58    0.88 
 -12  -8  -3    1.17    0.59 
 -13  -8  -3    0.03    0.49 
 -14  -8  -3    0.35    0.61 
 -15  -8  -3   -0.01    0.51 
 -16  -8  -3   -0.23    0.61 
 -17  -8  -3    0.62    0.64 
  -9   9   3    0.41    0.14 
  -8   9   3    0.39    0.14 
   7  -9  -3    1.77    0.26 
   6  -9  -3    2.63    0.32 
   5  -9  -3    0.98    0.18 
   4  -9  -3    4.85    0.42 
   3  -9  -3    0.08    0.09 
  -3   9   3    0.06    0.09 
   2  -9  -3   10.78    0.52 
  -2   9   3   10.55    0.57 
   1  -9  -3    1.08    0.19 
  -1   9   3    1.32    0.20 
   0  -9  -3    2.66    0.29 
   0  -9  -3    3.03    0.51 
   0   9   3    2.52    0.21 
  -1  -9  -3    2.43    0.45 
  -1  -9  -3    1.55    0.22 
   1   9   3    2.03    0.16 
  -2  -9  -3   20.52    1.06 
  -2  -9  -3   17.10    0.68 
  -3  -9  -3    0.17    0.08 
  -3  -9  -3   -0.02    0.11 
  -4  -9  -3    1.91    0.37 
  -4  -9  -3    1.58    0.19 
  -5  -9  -3   13.45    0.53 
  -5  -9  -3   13.19    0.83 
  -6  -9  -3    5.90    0.55 
  -6  -9  -3    7.32    0.35 
  -7  -9  -3   30.68    0.94 
  -7  -9  -3   29.26    1.49 
  -8  -9  -3    8.80    0.79 
  -8  -9  -3    9.06    0.40 
  -9  -9  -3    0.02    0.29 
  -9  -9  -3    0.18    0.05 
 -10  -9  -3    3.85    0.72 
 -10  -9  -3    2.76    0.19 
 -11  -9  -3    8.90    0.90 
 -12  -9  -3    0.21    0.52 
 -13  -9  -3   -0.16    0.49 
 -14  -9  -3    0.82    0.62 
 -15  -9  -3   -0.01    0.57 
 -16  -9  -3   -0.09    0.65 
 -17  -9  -3    0.16    0.57 
   8 -10  -3   -0.02    0.07 
  -8  10   3    0.30    0.13 
   7 -10  -3    0.20    0.10 
   6 -10  -3    0.11    0.11 
   5 -10  -3    1.40    0.24 
   4 -10  -3    0.34    0.12 
   3 -10  -3    1.18    0.22 
   2 -10  -3    0.73    0.17 
   1 -10  -3    3.25    0.34 
   0 -10  -3    0.09    0.09 
  -2 -10  -3    4.19    0.35 
  -3 -10  -3    0.43    0.20 
  -3 -10  -3    0.35    0.13 
  -4 -10  -3    5.99    0.52 
  -4 -10  -3    5.33    0.34 
  -5 -10  -3    0.45    0.13 
  -5 -10  -3    0.57    0.21 
  -6 -10  -3    2.88    0.48 
  -6 -10  -3    1.89    0.23 
  -7 -10  -3    0.06    0.15 
  -7 -10  -3    0.13    0.06 
  -8 -10  -3    0.38    0.10 
  -8 -10  -3    0.30    0.31 
  -9 -10  -3    0.20    0.07 
  -9 -10  -3    0.08    0.33 
 -10 -10  -3    0.11    0.06 
 -10 -10  -3    0.26    0.38 
 -11 -10  -3    6.33    0.31 
 -11 -10  -3    5.49    0.87 
 -12 -10  -3    0.34    0.51 
 -13 -10  -3    0.81    0.57 
 -14 -10  -3   -0.23    0.45 
 -15 -10  -3   -0.39    0.50 
 -16 -10  -3    0.21    0.56 
   7 -11  -3    0.15    0.10 
   6 -11  -3    0.36    0.13 
   5 -11  -3    0.20    0.13 
   4 -11  -3    3.45    0.38 
   3 -11  -3   -0.03    0.10 
   2 -11  -3    2.16    0.28 
   1 -11  -3    1.29    0.23 
   0 -11  -3    7.70    0.46 
  -1 -11  -3    0.23    0.14 
  -1 -11  -3    0.19    0.17 
  -2 -11  -3    1.03    0.20 
  -2 -11  -3    1.42    0.32 
  -3 -11  -3    0.02    0.10 
  -3 -11  -3    0.03    0.10 
  -4 -11  -3    0.17    0.12 
  -4 -11  -3   -0.08    0.09 
  -5 -11  -3    1.34    0.21 
  -5 -11  -3    1.95    0.38 
  -6 -11  -3    0.44    0.14 
  -6 -11  -3    0.36    0.15 
  -7 -11  -3    2.42    0.52 
  -7 -11  -3    2.06    0.26 
  -8 -11  -3    0.25    0.10 
  -8 -11  -3    0.28    0.30 
  -9 -11  -3    0.57    0.14 
  -9 -11  -3    0.39    0.36 
 -10 -11  -3    1.38    0.18 
 -10 -11  -3    2.12    0.59 
 -11 -11  -3    0.36    0.09 
 -11 -11  -3    0.53    0.48 
 -12 -11  -3    0.01    0.50 
 -13 -11  -3    0.97    0.60 
 -14 -11  -3   -0.02    0.51 
 -15 -11  -3    0.01    0.51 
 -16 -11  -3    0.54    0.59 
   6 -12  -3    0.11    0.10 
   5 -12  -3    0.09    0.09 
   4 -12  -3   -0.04    0.08 
   3 -12  -3   -0.04    0.09 
   2 -12  -3    0.37    0.13 
   1 -12  -3    0.13    0.11 
   0 -12  -3    0.77    0.20 
  -1 -12  -3    7.70    0.47 
  -2 -12  -3    1.12    0.23 
  -3 -12  -3    1.92    0.38 
  -3 -12  -3    1.03    0.21 
  -4 -12  -3    5.42    0.37 
  -5 -12  -3    0.19    0.14 
  -5 -12  -3    0.10    0.11 
  -6 -12  -3    1.08    0.40 
  -6 -12  -3    0.93    0.19 
  -7 -12  -3    0.27    0.12 
  -7 -12  -3    0.20    0.28 
  -8 -12  -3    0.20    0.10 
  -8 -12  -3    0.12    0.29 
  -9 -12  -3   -0.08    0.09 
  -9 -12  -3   -0.13    0.29 
 -10 -12  -3    0.24    0.12 
 -10 -12  -3   -0.15    0.36 
 -11 -12  -3    2.63    0.65 
 -11 -12  -3    1.38    0.19 
 -12 -12  -3    0.27    0.51 
 -13 -12  -3    0.64    0.54 
 -14 -12  -3    0.54    0.56 
 -15 -12  -3    0.90    0.62 
 -16 -12  -3    0.82    0.59 
   5 -13  -3    0.11    0.11 
   4 -13  -3    0.33    0.12 
   3 -13  -3    0.02    0.10 
   2 -13  -3    0.03    0.08 
   1 -13  -3    0.05    0.10 
   0 -13  -3    0.64    0.16 
  -1 -13  -3    1.76    0.28 
  -2 -13  -3    1.22    0.24 
  -3 -13  -3    0.70    0.19 
  -4 -13  -3    7.39    0.47 
  -5 -13  -3    1.29    0.36 
  -5 -13  -3    0.95    0.20 
  -6 -13  -3    4.00    0.39 
  -6 -13  -3    3.87    0.66 
  -7 -13  -3    4.18    0.68 
  -7 -13  -3    3.11    0.34 
  -8 -13  -3    0.12    0.29 
  -8 -13  -3    0.11    0.11 
  -9 -13  -3    0.13    0.12 
  -9 -13  -3    0.09    0.34 
 -10 -13  -3    0.85    0.46 
 -10 -13  -3    0.25    0.13 
 -11 -13  -3    0.82    0.14 
 -11 -13  -3    1.06    0.51 
 -12 -13  -3    0.48    0.53 
 -13 -13  -3    0.51    0.58 
 -14 -13  -3    0.14    0.51 
 -15 -13  -3    0.67    0.58 
   4 -14  -3    0.21    0.10 
   3 -14  -3    0.09    0.09 
   2 -14  -3    0.20    0.12 
   1 -14  -3    1.25    0.24 
   0 -14  -3   -0.03    0.12 
  -1 -14  -3    2.14    0.31 
  -2 -14  -3    1.02    0.22 
  -3 -14  -3    0.17    0.15 
  -4 -14  -3    1.05    0.24 
  -5 -14  -3    0.69    0.21 
  -6 -14  -3    0.05    0.12 
  -7 -14  -3    0.01    0.11 
  -8 -14  -3    0.29    0.32 
  -8 -14  -3   -0.17    0.10 
  -9 -14  -3    0.19    0.32 
  -9 -14  -3    0.12    0.11 
 -10 -14  -3    0.01    0.12 
 -10 -14  -3    0.09    0.38 
 -11 -14  -3    1.04    0.53 
 -11 -14  -3    0.52    0.14 
 -12 -14  -3    0.81    0.53 
 -13 -14  -3    0.42    0.52 
 -14 -14  -3    0.59    0.53 
 -15 -14  -3    0.56    0.51 
   2 -15  -3    1.07    0.23 
   1 -15  -3    0.40    0.16 
   0 -15  -3   -0.23    0.12 
  -1 -15  -3    0.91    0.19 
  -2 -15  -3    0.16    0.20 
  -3 -15  -3    0.90    0.23 
  -4 -15  -3    0.90    0.23 
  -5 -15  -3    1.47    0.27 
  -6 -15  -3   -0.09    0.11 
  -7 -15  -3    1.59    0.27 
  -8 -15  -3    0.71    0.20 
  -9 -15  -3   -0.09    0.10 
 -10 -15  -3    0.32    0.14 
 -11 -15  -3    0.10    0.10 
 -13 -15  -3    9.85    0.54 
   1 -16  -3    0.43    0.14 
   0 -16  -3    0.12    0.14 
  -1 -16  -3    0.68    0.20 
  -2 -16  -3    0.82    0.24 
  -3 -16  -3   -0.22    0.12 
  -4 -16  -3    0.33    0.15 
  -5 -16  -3    0.18    0.17 
  -6 -16  -3    0.17    0.14 
  -7 -16  -3    0.24    0.16 
  -8 -16  -3    0.11    0.13 
  -9 -16  -3    0.22    0.12 
 -10 -16  -3    0.08    0.13 
 -11 -16  -3    0.40    0.11 
  -2 -17  -3   -0.01    0.14 
  -3 -17  -3    0.27    0.17 
  -4 -17  -3    0.22    0.16 
  -5 -17  -3    0.17    0.16 
  -6 -17  -3    0.04    0.17 
  -7 -17  -3    0.06    0.15 
  -8 -17  -3    0.02    0.20 
  -9 -17  -3    0.34    0.12 
 -10 -17  -3   -0.02    0.10 
 -11 -17  -3    0.18    0.11 
  -6 -18  -3    0.42    0.16 
  -8 -18  -3   -0.21    0.12 
  -9 -17   4    0.39    0.11 
  -8 -17   4    0.23    0.15 
  -7 -17   4    0.33    0.14 
  -6 -17   4    0.31    0.15 
  -5 -17   4    0.36    0.13 
  -4 -17   4    0.40    0.13 
  -3 -17   4    0.09    0.13 
 -11 -16   4    0.45    0.15 
 -10 -16   4    0.37    0.14 
  -9 -16   4    1.44    0.24 
  -8 -16   4    0.51    0.16 
  -7 -16   4    0.25    0.14 
  -6 -16   4    0.16    0.11 
  -5 -16   4    0.12    0.11 
  -4 -16   4   -0.23    0.10 
  -3 -16   4    0.25    0.11 
  -2 -16   4    0.16    0.13 
  -1 -16   4    0.11    0.11 
   0 -16   4    0.12    0.13 
 -13 -15   4    0.36    0.12 
 -12 -15   4    0.23    0.11 
 -11 -15   4    0.22    0.10 
 -10 -15   4    0.54    0.13 
  -9 -15   4    0.23    0.12 
  -8 -15   4   -0.05    0.09 
  -7 -15   4    0.29    0.17 
  -6 -15   4    0.23    0.15 
  -5 -15   4    0.49    0.18 
  -4 -15   4   -0.16    0.07 
  -3 -15   4    0.45    0.15 
  -2 -15   4    0.65    0.15 
  -1 -15   4    0.49    0.14 
   0 -15   4    0.35    0.12 
   1 -15   4    0.34    0.14 
   2 -15   4    0.32    0.13 
 -13 -14   4    0.34    0.11 
 -12 -14   4    0.33    0.11 
 -11 -14   4    0.07    0.09 
 -10 -14   4    0.07    0.11 
  -9 -14   4    0.85    0.19 
  -8 -14   4    2.52    0.32 
  -7 -14   4    0.39    0.15 
  -6 -14   4    0.10    0.10 
  -5 -14   4    3.18    0.37 
  -4 -14   4    0.03    0.09 
  -3 -14   4    1.33    0.23 
   2  14  -4   -0.15    0.26 
  -2 -14   4    0.15    0.11 
   1  14  -4    0.22    0.27 
  -1 -14   4    0.46    0.14 
   0 -14   4    1.04    0.21 
   1 -14   4    0.67    0.15 
   2 -14   4    0.16    0.11 
   3 -14   4   -0.06    0.10 
   4 -14   4    0.14    0.11 
 -13 -13   4    0.30    0.09 
 -12 -13   4    0.66    0.19 
 -11 -13   4    1.49    0.23 
 -10 -13   4    0.77    0.18 
  -9 -13   4    0.72    0.17 
  -8 -13   4    0.17    0.10 
  -7 -13   4    1.23    0.22 
  -6 -13   4    0.13    0.11 
  -5 -13   4    0.33    0.12 
  -4 -13   4    1.40    0.25 
  -3 -13   4    1.88    0.28 
   2  13  -4    0.21    0.26 
  -2 -13   4    0.37    0.12 
   1  13  -4    0.81    0.30 
  -1 -13   4    0.70    0.17 
   0  13  -4    0.53    0.29 
   0 -13   4    0.13    0.09 
  -1  13  -4    0.10    0.26 
   1 -13   4   -0.11    0.08 
  -2  13  -4    0.24    0.29 
   2 -13   4    0.13    0.11 
   3 -13   4    0.47    0.12 
   4 -13   4    0.07    0.14 
   5 -13   4   -0.05    0.09 
 -15 -12   4   20.90    0.83 
 -14 -12   4   26.75    0.99 
 -13 -12   4    0.07    0.10 
 -12 -12   4    0.60    0.17 
 -11 -12   4    0.58    0.16 
 -10 -12   4    0.20    0.11 
  -9 -12   4    0.28    0.13 
  -8 -12   4    0.93    0.19 
  -7 -12   4    1.54    0.25 
  -6 -12   4    0.28    0.12 
  -5 -12   4    0.48    0.14 
  -4 -12   4    2.72    0.33 
  -3 -12   4    0.41    0.15 
   2  12  -4    2.66    0.46 
  -2 -12   4    2.77    0.34 
   1  12  -4    0.36    0.24 
  -1 -12   4    0.68    0.16 
   0  12  -4    0.15    0.20 
   0 -12   4    0.29    0.11 
  -1  12  -4    0.94    0.32 
   1 -12   4    1.94    0.27 
  -2  12  -4    0.94    0.34 
   2 -12   4    0.63    0.16 
  -3  12  -4    0.42    0.31 
   3 -12   4    0.40    0.13 
  -4  12  -4    0.54    0.34 
   4 -12   4    0.57    0.18 
  -5  12  -4    0.17    0.34 
   5 -12   4    0.12    0.08 
   6 -12   4    0.48    0.09 
 -15 -11   4    0.14    0.51 
 -14 -11   4   -0.48    0.48 
 -13 -11   4    0.29    0.55 
 -13 -11   4    0.67    0.16 
 -12 -11   4    0.20    0.56 
 -12 -11   4    1.31    0.23 
 -11 -11   4    0.47    0.47 
 -11 -11   4    0.26    0.12 
 -10 -11   4    0.16    0.14 
 -10 -11   4   -0.30    0.36 
  -8 -11   4    0.40    0.15 
  -7 -11   4    0.98    0.19 
  -6 -11   4    1.77    0.25 
  -5 -11   4    0.25    0.11 
  -4 -11   4    3.48    0.34 
   3  11  -4    6.74    0.58 
  -3 -11   4    6.60    0.40 
   2  11  -4    5.69    0.59 
  -2 -11   4    4.77    0.34 
   1  11  -4   -0.09    0.16 
  -1 -11   4    0.16    0.09 
   0  11  -4    6.03    0.59 
   0 -11   4    6.00    0.39 
  -1  11  -4    0.20    0.24 
   1 -11   4    0.33    0.12 
  -2  11  -4    0.13    0.22 
   2 -11   4    0.16    0.11 
  -3  11  -4    2.52    0.48 
   3 -11   4    2.85    0.33 
  -4  11  -4    0.17    0.28 
   4 -11   4    0.40    0.12 
  -5  11  -4   -0.22    0.26 
   5 -11   4    0.26    0.11 
  -6  11  -4    0.16    0.31 
   6 -11   4    0.44    0.11 
  -7  11  -4    0.40    0.39 
  -8  11  -4    0.44    0.43 
 -15 -10   4    0.01    0.45 
 -14 -10   4   -0.09    0.55 
 -13 -10   4    0.12    0.15 
 -13 -10   4    0.13    0.53 
 -12 -10   4    2.00    0.29 
 -12 -10   4    2.09    0.68 
 -11 -10   4    0.17    0.15 
 -11 -10   4   -0.14    0.47 
 -10 -10   4    0.19    0.14 
 -10 -10   4    0.29    0.44 
  -9 -10   4    0.60    0.46 
  -9 -10   4    0.52    0.15 
  -8 -10   4    0.30    0.13 
  -6 -10   4    1.01    0.18 
  -5 -10   4    0.19    0.10 
  -4 -10   4   -0.03    0.08 
   3  10  -4    0.84    0.28 
  -3 -10   4    0.72    0.16 
   2  10  -4    0.78    0.25 
  -2 -10   4    0.88    0.17 
   1  10  -4    0.23    0.18 
  -1 -10   4    0.12    0.08 
   0  10  -4    1.22    0.30 
   0 -10   4    1.13    0.20 
  -1  10  -4   -0.05    0.17 
   1 -10   4    0.16    0.10 
  -2  10  -4    2.41    0.42 
   2 -10   4    2.97    0.32 
  -3  10  -4    0.20    0.25 
   3 -10   4    0.66    0.15 
  -4  10  -4    1.90    0.43 
   4 -10   4    2.09    0.27 
  -5  10  -4    0.06    0.26 
   5 -10   4    0.33    0.11 
  -6  10  -4    0.20    0.30 
   6 -10   4    0.38    0.10 
  -7  10  -4   -0.08    0.32 
  -8  10  -4    0.16    0.36 
  -9  10  -4    0.05    0.39 
 -15  -9   4    0.08    0.55 
 -14  -9   4    0.31    0.56 
 -13  -9   4    0.17    0.51 
 -13  -9   4   -0.14    0.19 
 -12  -9   4   -0.16    0.50 
 -12  -9   4   -0.37    0.18 
 -11  -9   4    0.81    0.52 
 -11  -9   4   -0.12    0.17 
 -10  -9   4    0.22    0.18 
 -10  -9   4    0.83    0.54 
  -9  -9   4    0.85    0.47 
  -9  -9   4   -0.02    0.14 
  -8  -9   4    2.26    0.44 
  -8  -9   4    1.24    0.22 
  -7  -9   4    0.34    0.19 
  -7  -9   4    0.05    0.12 
  -6  -9   4    5.38    0.34 
  -6  -9   4    5.13    0.44 
  -5  -9   4    6.13    0.36 
   3   9  -4    7.26    0.52 
  -3  -9   4    6.24    0.36 
   2   9  -4    2.73    0.37 
  -2  -9   4    3.46    0.30 
   1   9  -4    0.43    0.18 
  -1  -9   4    0.61    0.14 
   0   9  -4    4.76    0.42 
   0  -9   4    5.92    0.35 
  -1   9  -4    0.24    0.20 
   1  -9   4    0.23    0.11 
  -2   9  -4   -0.15    0.17 
   2  -9   4   -0.04    0.06 
  -3   9  -4    0.89    0.31 
   3  -9   4    0.86    0.18 
  -4   9  -4    1.35    0.40 
   4  -9   4    1.81    0.24 
  -5   9  -4    0.43    0.32 
   5  -9   4    0.57    0.14 
  -6   9  -4    0.53    0.32 
   6  -9   4    1.18    0.18 
  -7   9  -4    0.60    0.37 
   7  -9   4    0.93    0.13 
  -8   9  -4    0.06    0.32 
  -9   9  -4    0.24    0.38 
 -10   9  -4    2.79    0.74 
 -16  -8   4   -0.02    0.40 
 -15  -8   4   -0.11    0.54 
 -14  -8   4   -0.09    0.45 
 -13  -8   4   -0.40    0.42 
 -13  -8   4    0.37    0.09 
 -12  -8   4    0.71    0.56 
 -12  -8   4    1.28    0.20 
 -11  -8   4    0.37    0.44 
 -11  -8   4    0.25    0.11 
 -10  -8   4    0.61    0.13 
 -10  -8   4   -0.15    0.36 
  -9  -8   4    8.41    0.93 
  -8  -8   4    0.26    0.26 
  -7  -8   4   -0.14    0.14 
  -7  -8   4   -0.13    0.13 
  -6  -8   4    1.03    0.19 
  -6  -8   4    1.14    0.28 
  -5  -8   4    4.24    0.28 
  -5  -8   4    5.18    0.40 
  -4  -8   4   11.11    0.56 
  -4  -8   4   11.16    0.48 
   3   8  -4    4.56    0.40 
  -3  -8   4    3.98    0.26 
   2   8  -4    5.51    0.43 
  -2  -8   4    5.08    0.30 
   1   8  -4    6.89    0.49 
  -1  -8   4    7.53    0.37 
   0   8  -4    8.51    0.54 
   0  -8   4    7.29    0.38 
  -1   8  -4    0.04    0.11 
   1  -8   4    0.07    0.07 
  -2   8  -4    1.61    0.33 
   2  -8   4    1.69    0.22 
  -3   8  -4    2.22    0.40 
   3  -8   4    2.12    0.25 
  -4   8  -4    6.29    0.67 
   4  -8   4    4.97    0.32 
  -5   8  -4    0.31    0.29 
   5  -8   4    0.54    0.13 
  -6   8  -4   -0.07    0.24 
   6  -8   4    0.21    0.08 
  -7   8  -4    0.56    0.36 
   7  -8   4    0.49    0.10 
  -8   8  -4    1.23    0.45 
  -9   8  -4    0.04    0.33 
 -10   8  -4    0.17    0.37 
 -16  -7   4    0.01    0.47 
 -15  -7   4    0.02    0.48 
 -14  -7   4    0.09    0.55 
 -13  -7   4    0.98    0.63 
 -13  -7   4    1.07    0.16 
 -12  -7   4    0.14    0.44 
 -12  -7   4    0.29    0.12 
 -11  -7   4   -0.17    0.39 
 -11  -7   4    0.05    0.12 
 -10  -7   4    0.19    0.41 
 -10  -7   4    0.31    0.14 
  -9  -7   4    0.91    0.18 
  -9  -7   4    1.23    0.45 
  -8  -7   4    2.01    0.43 
  -8  -7   4    1.54    0.23 
  -7  -7   4    0.24    0.10 
  -7  -7   4    0.82    0.28 
  -6  -7   4   -0.14    0.08 
  -6  -7   4   -0.45    0.12 
  -5  -7   4    1.16    0.20 
  -5  -7   4    1.42    0.28 
  -4  -7   4    5.51    0.38 
  -4  -7   4    5.51    0.31 
  -3  -7   4    8.08    0.41 
  -3  -7   4    8.01    0.37 
   2   7  -4    1.30    0.24 
  -2  -7   4    1.21    0.16 
   1   7  -4    0.36    0.14 
  -1  -7   4    0.35    0.08 
   0   7  -4    0.11    0.13 
   0  -7   4    0.28    0.08 
  -1   7  -4   12.19    0.68 
   1  -7   4   10.81    0.46 
  -2   7  -4   14.19    0.81 
  -2   7  -4   16.09    0.65 
   2  -7   4   15.01    0.58 
  -3   7  -4    0.52    0.13 
  -3   7  -4    0.35    0.20 
   3  -7   4    0.48    0.11 
  -4   7  -4    2.13    0.40 
   4  -7   4    2.28    0.23 
  -5   7  -4    2.11    0.45 
   5  -7   4    3.39    0.30 
  -6   7  -4    6.13    0.74 
   6  -7   4    7.31    0.37 
  -7   7  -4    0.39    0.30 
   7  -7   4    0.32    0.08 
  -8   7  -4    1.11    0.41 
  -9   7  -4    0.49    0.38 
 -10   7  -4    0.15    0.36 
 -11   7  -4    0.25    0.38 
 -16  -6   4   -0.21    0.47 
 -15  -6   4    0.97    0.63 
 -14  -6   4    0.51    0.62 
 -13  -6   4   -0.18    0.51 
 -12  -6   4    0.27    0.13 
 -12  -6   4    0.72    0.51 
 -11  -6   4    0.62    0.50 
 -11  -6   4    0.29    0.14 
 -10  -6   4    0.07    0.12 
 -10  -6   4   -0.11    0.31 
  -9  -6   4    0.28    0.15 
  -9  -6   4    0.62    0.39 
  -8  -6   4    5.96    0.73 
  -8  -6   4    4.03    0.28 
  -7  -6   4    4.13    0.57 
  -7  -6   4    3.61    0.25 
  -6  -6   4    9.99    0.42 
  -6  -6   4    9.88    0.68 
  -5  -6   4   25.43    0.81 
  -4  -6   4    1.13    0.18 
  -4  -6   4    1.95    0.27 
  -3  -6   4   15.00    0.67 
  -3  -6   4   14.13    0.53 
   2   6  -4    0.61    0.16 
  -2  -6   4    0.90    0.08 
  -2  -6   4    0.45    0.11 
   1   6  -4    3.41    0.35 
  -1  -6   4    3.03    0.20 
   0   6  -4    9.90    0.58 
   0  -6   4   11.22    0.43 
  -1   6  -4    5.07    0.41 
   1  -6   4    4.99    0.26 
  -2   6  -4    0.52    0.18 
  -2   6  -4    0.75    0.13 
   2  -6   4    0.55    0.10 
  -3   6  -4    0.29    0.12 
  -3   6  -4    0.25    0.15 
   3  -6   4    0.31    0.07 
  -4   6  -4    2.16    0.40 
  -4   6  -4    2.49    0.32 
   4  -6   4    2.43    0.22 
  -5   6  -4    9.02    0.61 
  -5   6  -4    7.69    0.68 
   5  -6   4    8.11    0.37 
  -6   6  -4    0.07    0.17 
  -6   6  -4   -0.06    0.20 
   6  -6   4    0.12    0.05 
  -7   6  -4    0.19    0.23 
  -7   6  -4    0.17    0.16 
   7  -6   4    0.02    0.04 
  -8   6  -4   -0.06    0.26 
  -9   6  -4    0.20    0.28 
 -10   6  -4    0.23    0.36 
 -11   6  -4   -0.07    0.31 
 -12   6  -4    0.45    0.43 
 -16  -5   4   -0.43    0.47 
 -15  -5   4    0.42    0.56 
 -14  -5   4    0.19    0.49 
 -13  -5   4    0.19    0.48 
 -12  -5   4    0.52    0.15 
 -12  -5   4    0.51    0.49 
 -11  -5   4    0.36    0.16 
 -11  -5   4   -0.01    0.42 
 -10  -5   4    2.22    0.26 
 -10  -5   4    1.88    0.54 
  -9  -5   4    5.56    0.33 
  -9  -5   4    6.71    0.83 
  -8  -5   4    1.49    0.40 
  -8  -5   4    1.14    0.19 
  -7  -5   4    2.58    0.24 
  -7  -5   4    3.55    0.56 
  -6  -5   4    0.05    0.18 
  -6  -5   4    0.08    0.10 
  -5  -5   4   -0.13    0.06 
  -5  -5   4    0.12    0.16 
  -4  -5   4   36.50    0.99 
  -4  -5   4   30.21    1.37 
  -3  -5   4  113.12    2.79 
  -3  -5   4  106.17    3.80 
   2   5  -4   34.77    1.27 
  -2  -5   4   32.45    1.21 
  -2  -5   4   32.13    0.95 
   1   5  -4    1.29    0.22 
  -1  -5   4    1.38    0.16 
   0   5  -4   70.16    2.37 
   0  -5   4   71.70    1.86 
  -1   5  -4    7.56    0.49 
   1  -5   4    8.54    0.34 
  -2   5  -4    4.18    0.27 
  -2   5  -4    4.05    0.43 
   2  -5   4    4.14    0.22 
  -3   5  -4   65.90    2.39 
  -3   5  -4   64.11    2.37 
   3  -5   4   67.04    1.76 
  -4   5  -4    1.55    0.26 
  -4   5  -4    1.02    0.27 
   4  -5   4    1.27    0.14 
  -5   5  -4    0.13    0.20 
  -5   5  -4    0.29    0.17 
   5  -5   4    0.35    0.05 
  -6   5  -4    9.17    0.74 
  -6   5  -4    9.09    0.69 
  -7   5  -4    0.53    0.25 
  -7   5  -4    0.48    0.29 
   7  -5   4    0.46    0.06 
  -8   5  -4    2.01    0.48 
  -8   5  -4    1.18    0.40 
  -9   5  -4    2.24    0.52 
  -9   5  -4    1.78    0.52 
 -10   5  -4   -0.06    0.26 
 -10   5  -4    0.26    0.41 
 -11   5  -4    0.23    0.30 
 -12   5  -4    0.07    0.40 
 -13   5  -4   -0.18    0.36 
 -15  -4   4    0.16    0.55 
 -14  -4   4   -0.43    0.53 
 -13  -4   4   -0.73    0.45 
 -12  -4   4    0.62    0.18 
 -12  -4   4    0.44    0.45 
 -11  -4   4    1.50    0.22 
 -11  -4   4    1.17    0.55 
 -10  -4   4    1.59    0.51 
 -10  -4   4    1.37    0.22 
  -9  -4   4    0.42    0.33 
  -9  -4   4    0.68    0.15 
  -8  -4   4    8.17    0.37 
  -8  -4   4    6.86    0.82 
  -7  -4   4    1.58    0.19 
  -7  -4   4    2.65    0.48 
  -6  -4   4    3.15    0.50 
  -6  -4   4    3.26    0.24 
  -5  -4   4   65.78    2.57 
  -5  -4   4   65.10    1.74 
  -4  -4   4   52.75    2.05 
  -4  -4   4   52.16    1.41 
  -3  -4   4    0.22    0.11 
  -3  -4   4    0.08    0.09 
   2   4  -4   16.83    0.73 
  -2  -4   4   16.34    0.54 
  -2  -4   4   16.52    0.70 
   1   4  -4    0.10    0.09 
  -1  -4   4    0.17    0.10 
  -1  -4   4    0.20    0.05 
   0   4  -4   17.27    0.76 
   0  -4   4   17.78    0.56 
  -1   4  -4   17.81    0.81 
   1  -4   4   18.65    0.58 
  -2   4  -4   23.90    1.02 
  -2   4  -4   24.14    0.92 
   2  -4   4   23.44    0.71 
  -3   4  -4   97.80    3.40 
  -3   4  -4   97.80    3.26 
   3  -4   4   95.76    2.46 
  -4   4  -4   24.92    1.17 
  -4   4  -4   24.02    1.09 
  -5   4  -4    3.94    0.44 
  -5   4  -4    3.87    0.51 
   5  -4   4    4.38    0.22 
  -6   4  -4    2.11    0.40 
  -6   4  -4    2.33    0.43 
   6  -4   4    1.85    0.13 
  -7   4  -4    3.86    0.57 
  -7   4  -4    4.16    0.55 
   7  -4   4    4.48    0.22 
  -8   4  -4   -0.01    0.22 
  -9   4  -4    3.28    0.60 
 -10   4  -4    0.09    0.34 
 -11   4  -4    0.22    0.41 
 -12   4  -4    0.05    0.44 
 -15  -3   4    0.53    0.57 
 -14  -3   4   -0.24    0.48 
 -13  -3   4    0.38    0.53 
 -12  -3   4    0.14    0.13 
 -12  -3   4   -0.14    0.44 
 -11  -3   4    0.22    0.46 
 -11  -3   4    0.14    0.14 
 -10  -3   4    2.96    0.67 
 -10  -3   4    3.13    0.27 
  -9  -3   4    6.87    0.34 
  -9  -3   4    6.79    0.86 
  -8  -3   4    3.78    0.65 
  -8  -3   4    4.46    0.26 
  -7  -3   4    0.03    0.17 
  -7  -3   4    0.14    0.10 
  -6  -3   4    7.03    0.32 
  -5  -3   4    7.49    0.32 
  -4  -3   4    2.44    0.19 
  -3  -3   4   65.27    1.69 
  -2  -3   4  177.94    4.35 
   1   3  -4    0.93    0.17 
  -1  -3   4    0.89    0.12 
   0   3  -4    1.46    0.21 
   0  -3   4    1.33    0.13 
  -1   3  -4    2.47    0.16 
  -1   3  -4    2.68    0.28 
   1  -3   4    2.37    0.15 
  -2   3  -4    3.56    0.32 
  -2   3  -4    4.19    0.27 
   2  -3   4    3.75    0.18 
  -3   3  -4   36.13    1.45 
  -3   3  -4   38.75    1.47 
  -4   3  -4   15.33    0.83 
  -4   3  -4   15.18    0.78 
   4  -3   4   14.99    0.48 
  -5   3  -4    0.02    0.15 
  -5   3  -4    0.23    0.15 
   5  -3   4    0.08    0.03 
  -6   3  -4   14.84    0.89 
   6  -3   4   14.74    0.48 
  -7   3  -4    2.46    0.45 
   7  -3   4    3.07    0.16 
  -8   3  -4    8.39    0.75 
   8  -3   4    8.31    0.32 
  -9   3  -4    1.71    0.49 
 -10   3  -4    1.09    0.46 
 -11   3  -4    0.24    0.39 
 -12   3  -4    0.36    0.42 
 -13   3  -4    0.14    0.45 
 -14   3  -4   -0.01    0.55 
 -15  -2   4   -0.07    0.78 
 -14  -2   4   -0.07    0.63 
 -13  -2   4    0.11    0.54 
 -12  -2   4    0.04    0.10 
 -12  -2   4   -0.06    0.39 
 -11  -2   4    0.03    0.39 
 -11  -2   4   -0.18    0.10 
 -10  -2   4    2.11    0.23 
 -10  -2   4    1.42    0.52 
  -9  -2   4    0.19    0.31 
  -9  -2   4    0.41    0.13 
  -8  -2   4    4.64    0.69 
  -8  -2   4    5.40    0.28 
  -7  -2   4    1.10    0.15 
  -6  -2   4   12.93    0.45 
  -5  -2   4   34.14    0.95 
  -4  -2   4   38.57    1.05 
  -3  -2   4   12.28    0.41 
  -2  -2   4   10.06    0.35 
   1   2  -4  288.88    8.51 
  -1  -2   4  287.75    6.94 
   0   2  -4   38.70    1.32 
   0   2  -4   38.95    1.39 
   0  -2   4   37.38    1.01 
  -1   2  -4   58.90    1.92 
  -1   2  -4   55.32    2.01 
   1  -2   4   60.68    1.48 
  -2   2  -4    0.97    0.15 
  -2   2  -4    1.10    0.20 
  -3   2  -4    2.70    0.28 
  -3   2  -4    2.40    0.31 
   3  -2   4    2.42    0.12 
  -4   2  -4   10.69    0.63 
  -4   2  -4   10.75    0.64 
   4  -2   4   10.34    0.34 
  -5   2  -4    6.42    0.53 
   5  -2   4    6.59    0.24 
  -6   2  -4   16.17    0.95 
   6  -2   4   16.60    0.50 
  -7   2  -4    0.35    0.21 
   7  -2   4    0.17    0.03 
  -8   2  -4    1.87    0.44 
   8  -2   4    1.64    0.10 
  -9   2  -4    2.14    0.52 
 -10   2  -4    5.20    0.78 
 -11   2  -4    0.29    0.38 
 -12   2  -4   -0.16    0.35 
 -13   2  -4   -0.19    0.39 
 -14   2  -4    0.31    0.53 
 -15  -1   4    0.00    0.84 
 -14  -1   4    0.18    0.71 
 -13  -1   4    0.05    0.57 
 -12  -1   4   -0.14    0.42 
 -11  -1   4   -0.03    0.11 
 -11  -1   4    0.20    0.39 
 -10  -1   4    0.51    0.37 
 -10  -1   4    0.34    0.14 
  -9  -1   4    0.18    0.31 
  -9  -1   4    0.57    0.13 
  -8  -1   4    0.21    0.10 
  -7  -1   4    1.58    0.17 
  -6  -1   4    5.78    0.26 
  -5  -1   4   11.39    0.40 
  -4  -1   4    0.05    0.07 
  -3  -1   4   29.92    0.82 
  -2  -1   4   42.01    1.10 
   1   1  -4    0.90    0.14 
  -1  -1   4    1.28    0.11 
   0   1  -4    7.63    0.37 
   0   1  -4    8.02    0.42 
   0  -1   4    8.32    0.28 
  -1   1  -4  112.04    3.42 
  -1   1  -4  110.77    3.80 
   1  -1   4  111.83    2.72 
  -2   1  -4   43.76    1.64 
  -2   1  -4   44.51    1.55 
   2  -1   4   46.49    1.14 
  -3   1  -4   13.72    0.68 
  -3   1  -4   13.95    0.68 
   3  -1   4   13.88    0.39 
  -4   1  -4    1.10    0.24 
   4  -1   4    0.96    0.06 
  -5   1  -4    1.11    0.26 
   5  -1   4    1.11    0.06 
  -6   1  -4   10.97    0.75 
   6  -1   4   11.46    0.34 
  -7   1  -4    0.16    0.22 
   7  -1   4    0.12    0.02 
  -8   1  -4    2.57    0.49 
  -8   1  -4    2.38    0.11 
  -9   1  -4    0.61    0.36 
 -10   1  -4    0.96    0.43 
 -11   1  -4    0.14    0.36 
 -12   1  -4    1.23    0.50 
 -13   1  -4    0.00    0.44 
 -14   1  -4   -0.44    0.44 
 -15   1  -4    0.06    0.55 
 -14   0   4    0.70    0.78 
 -13   0   4   -0.38    0.44 
 -12   0   4    0.89    0.54 
 -11   0   4   -0.10    0.35 
 -11   0   4   -0.12    0.10 
 -10   0   4    0.01    0.11 
 -10   0   4   -0.15    0.30 
  -9   0   4    8.26    0.37 
  -8   0   4    1.01    0.15 
  -7   0   4    3.57    0.20 
  -6   0   4   25.37    0.74 
  -5   0   4    1.42    0.13 
  -4   0   4   37.65    1.00 
  -3   0   4   52.15    1.34 
  -2   0   4   62.54    1.57 
   1   0  -4   47.24    1.81 
  -1   0   4   46.71    1.19 
   0   0  -4    0.14    0.10 
   0   0  -4    0.08    0.05 
   0   0   4    0.14    0.05 
  -1   0  -4   24.51    0.97 
  -1   0  -4   25.72    0.86 
   1   0   4   22.18    0.62 
  -2   0  -4    8.58    0.47 
  -2   0  -4    7.78    0.41 
   2   0   4    8.71    0.25 
  -3   0  -4   17.81    0.82 
  -4   0  -4  102.83    3.68 
   4   0   4  103.93    2.51 
  -5   0  -4   17.73    0.94 
  -6   0  -4   16.70    0.44 
  -6   0  -4   17.71    0.99 
  -7   0  -4   16.65    1.02 
  -7   0  -4   17.66    0.45 
  -8   0  -4    0.35    0.26 
  -8   0  -4    0.70    0.05 
  -9   0  -4    0.52    0.34 
 -10   0  -4    0.23    0.30 
 -11   0  -4    0.00    0.30 
 -12   0  -4    0.32    0.39 
 -13   0  -4    0.39    0.47 
 -14   0  -4    0.10    0.49 
 -15   0  -4    1.19    0.69 
 -14   1   4   -0.06    0.70 
 -13   1   4    0.05    0.50 
 -12   1   4    0.02    0.42 
 -11   1   4    0.39    0.43 
 -11   1   4    0.45    0.13 
 -10   1   4    0.22    0.13 
 -10   1   4   -0.28    0.31 
  -9   1   4    3.29    0.23 
  -8   1   4    0.51    0.11 
  -7   1   4    9.38    0.37 
  -6   1   4    0.91    0.13 
  -5   1   4    3.15    0.18 
  -4   1   4    6.19    0.26 
  -3   1   4   20.55    0.61 
  -2   1   4   14.35    0.44 
   1  -1  -4   20.09    0.96 
  -1   1   4   20.35    0.57 
   0  -1  -4   41.04    1.54 
   0  -1  -4   34.80    1.20 
   0   1   4   40.10    0.99 
  -1  -1  -4    1.45    0.21 
   1   1   4    1.16    0.08 
  -2  -1  -4   12.01    0.51 
  -2  -1  -4   11.84    0.60 
   2   1   4   12.27    0.33 
  -3  -1  -4   12.52    0.66 
   3   1   4   12.97    0.34 
  -4  -1  -4   29.96    1.29 
  -5  -1  -4    3.73    0.43 
  -6  -1  -4   19.61    1.06 
  -7  -1  -4    3.95    0.55 
  -8  -1  -4    3.44    0.55 
  -9  -1  -4    0.49    0.32 
 -10  -1  -4    1.95    0.53 
 -11  -1  -4    0.13    0.36 
 -12  -1  -4    0.02    0.39 
 -13  -1  -4   -0.08    0.39 
 -14  -1  -4    0.58    0.55 
 -15  -1  -4    0.19    0.57 
 -14   2   4   -0.08    0.68 
 -13   2   4    0.47    0.55 
 -12   2   4    0.25    0.55 
 -11   2   4    0.08    0.35 
 -11   2   4    0.01    0.08 
 -10   2   4    0.14    0.10 
  -9   2   4   21.05    0.72 
  -8   2   4    0.11    0.09 
  -7   2   4    3.95    0.23 
  -6   2   4    9.50    0.38 
  -5   2   4    6.63    0.29 
  -4   2   4    1.53    0.15 
  -3   2   4  161.96    3.99 
  -2   2   4    5.76    0.24 
   1  -2  -4   20.38    1.00 
  -1   2   4   20.19    0.59 
   0  -2  -4  162.06    5.69 
   0   2   4  167.07    4.00 
  -1  -2  -4  112.11    4.09 
  -1  -2  -4  114.46    2.86 
  -1  -2  -4  123.17    3.47 
  -2  -2  -4   19.22    0.53 
  -2  -2  -4   18.66    0.87 
  -2  -2  -4   20.28    0.70 
  -3  -2  -4  629.47   20.81 
  -4  -2  -4   25.76    1.15 
   4   2   4   25.49    0.64 
  -5  -2  -4   14.60    0.83 
  -6  -2  -4   77.93    3.01 
  -7  -2  -4    6.70    0.63 
  -8  -2  -4   -0.16    0.19 
  -9  -2  -4    0.22    0.28 
 -10  -2  -4    5.80    0.79 
 -11  -2  -4    4.05    0.75 
 -12  -2  -4    1.74    0.58 
 -13  -2  -4   -0.10    0.44 
 -14  -2  -4    0.02    0.45 
 -15  -2  -4   -0.18    0.55 
 -16  -2  -4    0.59    0.73 
 -13   3   4   -0.15    0.47 
 -12   3   4   -0.14    0.44 
 -11   3   4    0.05    0.07 
 -11   3   4    0.00    0.39 
 -10   3   4    0.13    0.11 
  -9   3   4    5.64    0.33 
  -8   3   4    4.12    0.28 
  -7   3   4    3.10    0.25 
  -6   3   4    1.00    0.15 
  -5   3   4    2.58    0.19 
  -4   3   4    5.28    0.27 
  -3   3   4    0.65    0.12 
   2  -3  -4    1.98    0.18 
   1  -3  -4    1.09    0.26 
   1  -3  -4    1.14    0.13 
   0  -3  -4   35.08    0.97 
   0  -3  -4   34.24    1.49 
  -1  -3  -4    1.51    0.13 
  -1  -3  -4    1.44    0.25 
  -2  -3  -4   72.99    2.74 
  -2  -3  -4   76.47    1.88 
  -3  -3  -4   13.15    0.40 
  -3  -3  -4   13.89    0.72 
  -4  -3  -4    5.77    0.19 
  -4  -3  -4    5.47    0.45 
  -5  -3  -4   21.39    1.08 
  -5  -3  -4   22.21    0.57 
  -6  -3  -4    3.55    0.48 
  -6  -3  -4    3.64    0.12 
  -7  -3  -4    6.51    0.60 
  -8  -3  -4   -0.02    0.22 
  -9  -3  -4    1.90    0.49 
 -10  -3  -4    0.60    0.39 
 -11  -3  -4    2.63    0.64 
 -12  -3  -4    0.02    0.41 
 -13  -3  -4   -0.02    0.41 
 -14  -3  -4    0.33    0.58 
 -15  -3  -4   -0.42    0.56 
 -16  -3  -4   -0.25    0.63 
 -13   4   4    0.12    0.53 
 -12   4   4   -0.05    0.45 
 -11   4   4    0.44    0.44 
 -10   4   4    0.71    0.16 
  -9   4   4    7.91    0.41 
  -8   4   4    0.86    0.17 
  -7   4   4    0.23    0.12 
  -6   4   4    0.16    0.10 
  -5   4   4    8.81    0.39 
   4  -4  -4   45.31    1.33 
   3  -4  -4   75.93    2.04 
   2  -4  -4    1.92    0.19 
   1  -4  -4    0.54    0.10 
   1  -4  -4    0.66    0.23 
   0  -4  -4    3.68    0.42 
   0  -4  -4    3.06    0.19 
  -1  -4  -4   17.87    0.91 
  -1  -4  -4   18.52    0.58 
  -2  -4  -4    3.30    0.33 
  -2  -4  -4    3.33    0.18 
  -3  -4  -4  405.59   13.62 
  -3  -4  -4  408.09    9.76 
  -4  -4  -4   19.86    0.56 
  -4  -4  -4   19.59    0.99 
  -5  -4  -4   74.83    1.87 
  -5  -4  -4   75.93    2.89 
  -6  -4  -4   17.32    1.00 
  -6  -4  -4   18.64    0.50 
  -7  -4  -4   13.50    0.90 
  -7  -4  -4   13.20    0.37 
  -8  -4  -4    2.42    0.10 
  -8  -4  -4    2.28    0.47 
  -9  -4  -4    0.67    0.37 
  -9  -4  -4    0.73    0.04 
 -10  -4  -4    0.53    0.38 
 -11  -4  -4    2.32    0.61 
 -12  -4  -4    0.54    0.50 
 -13  -4  -4    2.64    0.76 
 -14  -4  -4    0.01    0.56 
 -15  -4  -4    1.12    0.69 
 -16  -4  -4    0.55    0.74 
 -12   5   4   -0.08    0.45 
 -11   5   4   -0.02    0.42 
 -10   5   4    0.59    0.13 
  -9   5   4    0.96    0.17 
  -8   5   4    0.79    0.17 
  -7   5   4    6.44    0.37 
  -6   5   4    0.73    0.16 
   5  -5  -4    0.00    0.07 
   4  -5  -4    5.41    0.31 
   3  -5  -4   12.79    0.52 
   2  -5  -4    4.76    0.27 
   1  -5  -4    4.04    0.24 
   1  -5  -4    4.33    0.53 
   0  -5  -4   56.04    1.51 
   0  -5  -4   54.68    2.25 
   0   5   4   54.49    1.68 
  -1  -5  -4   13.56    0.48 
  -1  -5  -4   13.36    0.78 
  -2  -5  -4   12.06    0.72 
  -2  -5  -4   12.37    0.43 
  -3  -5  -4    5.23    0.24 
  -3  -5  -4    5.00    0.43 
  -4  -5  -4    0.68    0.10 
  -4  -5  -4    0.90    0.24 
  -5  -5  -4   29.66    1.37 
  -5  -5  -4   28.82    0.80 
  -6  -5  -4   82.11    3.19 
  -6  -5  -4   82.40    2.06 
  -7  -5  -4   30.04    0.82 
  -7  -5  -4   30.97    1.50 
  -8  -5  -4    4.76    0.64 
  -8  -5  -4    4.54    0.18 
  -9  -5  -4    2.86    0.57 
  -9  -5  -4    2.16    0.11 
 -10  -5  -4    0.17    0.32 
 -11  -5  -4    0.16    0.38 
 -12  -5  -4    1.26    0.59 
 -13  -5  -4   -0.02    0.46 
 -14  -5  -4    0.33    0.57 
 -15  -5  -4   -0.06    0.59 
 -16  -5  -4   -0.43    0.71 
 -11   6   4   -0.18    0.52 
 -10   6   4    0.34    0.10 
  -9   6   4    0.04    0.08 
  -8   6   4    0.09    0.11 
  -7   6   4    0.28    0.14 
   6  -6  -4    0.59    0.15 
  -6   6   4    0.60    0.16 
   5  -6  -4    0.31    0.12 
   4  -6  -4    0.18    0.09 
   3  -6  -4    1.56    0.20 
   2  -6  -4    9.75    0.43 
   1  -6  -4   27.18    1.41 
   1  -6  -4   28.26    0.90 
  -1   6   4   29.29    1.01 
   0  -6  -4   27.21    1.36 
   0  -6  -4   27.45    0.87 
   0   6   4   28.00    0.91 
  -1  -6  -4    2.44    0.39 
  -1  -6  -4    2.47    0.21 
  -2  -6  -4    0.25    0.07 
  -2  -6  -4    0.23    0.13 
  -3  -6  -4    6.33    0.51 
  -3  -6  -4    6.21    0.28 
  -4  -6  -4    3.17    0.41 
  -4  -6  -4    2.60    0.17 
  -5  -6  -4    0.00    0.05 
  -5  -6  -4    0.10    0.15 
  -6  -6  -4    0.26    0.06 
  -6  -6  -4    0.30    0.23 
  -7  -6  -4    2.70    0.15 
  -7  -6  -4    2.80    0.48 
  -8  -6  -4    0.89    0.10 
  -8  -6  -4    0.79    0.29 
  -9  -6  -4    6.92    0.26 
  -9  -6  -4    7.43    0.83 
 -10  -6  -4    0.38    0.37 
 -11  -6  -4   33.63    1.91 
 -12  -6  -4    4.63    0.85 
 -13  -6  -4    0.41    0.49 
 -14  -6  -4   -0.04    0.51 
 -15  -6  -4    0.29    0.70 
 -16  -6  -4   -0.18    0.72 
 -17  -6  -4   -0.77    0.71 
 -11   7   4   -0.08    0.48 
  -9   7   4   -0.10    0.08 
  -8   7   4    0.89    0.18 
  -7   7   4    0.20    0.14 
   6  -7  -4    0.01    0.10 
   5  -7  -4    0.97    0.20 
   4  -7  -4    0.10    0.09 
   3  -7  -4    2.14    0.26 
   2  -7  -4    8.07    0.40 
  -2   7   4    7.56    0.45 
   1  -7  -4   11.07    0.48 
  -1   7   4   12.10    0.52 
   0  -7  -4    5.47    0.30 
   0  -7  -4    5.19    0.51 
   0   7   4    5.43    0.26 
  -1  -7  -4    0.17    0.08 
  -1  -7  -4   -0.07    0.11 
   1   7   4    0.26    0.05 
  -2  -7  -4    4.88    0.53 
  -2  -7  -4    4.17    0.25 
  -3  -7  -4    0.22    0.14 
  -3  -7  -4    0.13    0.07 
  -4  -7  -4    0.37    0.09 
  -4  -7  -4    0.24    0.15 
  -5  -7  -4   10.76    0.41 
  -5  -7  -4   10.03    0.71 
  -6  -7  -4   41.46    1.86 
  -6  -7  -4   41.64    1.16 
  -7  -7  -4    7.98    0.32 
  -7  -7  -4    7.35    0.65 
  -8  -7  -4    9.80    0.36 
  -8  -7  -4    9.05    0.80 
  -9  -7  -4    8.58    0.93 
  -9  -7  -4    9.31    0.34 
 -10  -7  -4   -0.24    0.29 
 -11  -7  -4    1.69    0.59 
 -12  -7  -4    0.88    0.52 
 -13  -7  -4    0.26    0.47 
 -14  -7  -4    0.66    0.56 
 -15  -7  -4    0.17    0.62 
 -16  -7  -4    0.65    0.68 
 -17  -7  -4    0.17    0.82 
  -9   8   4    0.20    0.10 
  -8   8   4    0.29    0.14 
  -7   8   4   -0.07    0.11 
   6  -8  -4    1.45    0.24 
   5  -8  -4    0.29    0.11 
  -5   8   4    0.52    0.15 
   4  -8  -4    4.67    0.33 
  -4   8   4    4.99    0.42 
   3  -8  -4    1.94    0.26 
  -3   8   4    2.32    0.31 
   2  -8  -4   -0.05    0.07 
  -2   8   4    0.05    0.08 
   1  -8  -4    0.98    0.18 
  -1   8   4    0.70    0.13 
   0  -8  -4    0.97    0.17 
   0  -8  -4    1.14    0.33 
   0   8   4    1.10    0.13 
  -1  -8  -4    1.84    0.21 
  -1  -8  -4    1.62    0.38 
   1   8   4    1.68    0.12 
  -2  -8  -4    0.88    0.25 
  -2  -8  -4    0.86    0.14 
  -3  -8  -4    5.84    0.53 
  -3  -8  -4    6.27    0.32 
  -4  -8  -4    7.27    0.34 
  -4  -8  -4    6.95    0.57 
  -5  -8  -4    1.61    0.18 
  -5  -8  -4    1.52    0.36 
  -6  -8  -4   13.44    0.50 
  -6  -8  -4   13.88    0.87 
  -7  -8  -4    0.05    0.06 
  -7  -8  -4    0.03    0.16 
  -8  -8  -4    4.55    0.67 
  -8  -8  -4    3.58    0.21 
  -9  -8  -4    1.86    0.17 
  -9  -8  -4    1.18    0.42 
 -10  -8  -4    1.26    0.13 
 -10  -8  -4    0.86    0.44 
 -11  -8  -4    1.41    0.54 
 -12  -8  -4    5.52    0.94 
 -13  -8  -4    0.21    0.46 
 -14  -8  -4    0.33    0.52 
 -15  -8  -4    0.51    0.64 
 -16  -8  -4   -0.21    0.52 
 -17  -8  -4    0.42    0.60 
  -9   9   4    1.29    0.21 
  -8   9   4    0.15    0.12 
   7  -9  -4    0.56    0.14 
   6  -9  -4   -0.06    0.07 
   5  -9  -4    1.58    0.25 
   4  -9  -4    0.43    0.14 
   3  -9  -4    4.27    0.39 
   2  -9  -4    0.21    0.11 
   1  -9  -4    0.80    0.17 
   0  -9  -4    2.73    0.29 
   0  -9  -4    3.68    0.60 
  -1  -9  -4    0.18    0.10 
  -1  -9  -4   -0.05    0.13 
   1   9   4    0.27    0.06 
  -2  -9  -4    8.87    0.68 
  -2  -9  -4    7.69    0.40 
  -3  -9  -4    2.38    0.25 
  -3  -9  -4    3.03    0.48 
  -4  -9  -4    4.67    0.28 
  -4  -9  -4    5.00    0.50 
  -5  -9  -4    2.09    0.41 
  -5  -9  -4    2.42    0.24 
  -6  -9  -4    1.35    0.34 
  -6  -9  -4    1.84    0.20 
  -7  -9  -4    2.00    0.42 
  -7  -9  -4    2.47    0.23 
  -8  -9  -4    3.61    0.62 
  -8  -9  -4    3.50    0.22 
  -9  -9  -4    6.19    0.84 
  -9  -9  -4    5.65    0.28 
 -10  -9  -4    1.37    0.15 
 -10  -9  -4    0.91    0.44 
 -11  -9  -4    0.76    0.51 
 -12  -9  -4    0.00    0.43 
 -13  -9  -4    0.13    0.53 
 -14  -9  -4    1.12    0.63 
 -15  -9  -4    0.77    0.66 
 -16  -9  -4    0.44    0.54 
 -17  -9  -4    0.21    0.46 
  -8  10   4    0.15    0.11 
   7 -10  -4    0.27    0.10 
   6 -10  -4    0.10    0.12 
   5 -10  -4    0.42    0.14 
   4 -10  -4    0.38    0.12 
   3 -10  -4    5.07    0.37 
   2 -10  -4    1.44    0.25 
   1 -10  -4    0.12    0.11 
   0 -10  -4    4.27    0.38 
  -1 -10  -4    0.61    0.27 
  -1 -10  -4    0.30    0.13 
  -2 -10  -4    0.04    0.11 
  -2 -10  -4    0.26    0.17 
  -3 -10  -4    0.10    0.12 
  -3 -10  -4    0.21    0.10 
  -4 -10  -4    0.34    0.11 
  -4 -10  -4    0.47    0.19 
  -5 -10  -4    0.50    0.22 
  -5 -10  -4    0.40    0.13 
  -6 -10  -4    1.43    0.37 
  -6 -10  -4    0.80    0.14 
  -7 -10  -4    0.00    0.23 
  -7 -10  -4    0.02    0.09 
  -8 -10  -4    0.21    0.07 
  -8 -10  -4    0.46    0.33 
  -9 -10  -4    1.62    0.19 
  -9 -10  -4    1.71    0.54 
 -10 -10  -4    1.29    0.17 
 -10 -10  -4    1.26    0.54 
 -11 -10  -4    1.70    0.61 
 -12 -10  -4    0.64    0.53 
 -13 -10  -4    0.16    0.52 
 -14 -10  -4    0.81    0.64 
 -15 -10  -4    0.10    0.58 
 -16 -10  -4    0.04    0.46 
   7 -11  -4    0.16    0.11 
   6 -11  -4   -0.03    0.09 
   5 -11  -4   -0.20    0.07 
   4 -11  -4    0.14    0.10 
   3 -11  -4    3.42    0.37 
   2 -11  -4    0.09    0.10 
   1 -11  -4    0.17    0.15 
   0 -11  -4    3.46    0.37 
  -1 -11  -4    2.56    0.54 
  -1 -11  -4    1.19    0.21 
  -2 -11  -4    2.99    0.33 
  -2 -11  -4    3.30    0.55 
  -3 -11  -4    4.55    0.62 
  -3 -11  -4    3.58    0.35 
  -4 -11  -4    2.80    0.50 
  -4 -11  -4    2.19    0.27 
  -5 -11  -4    8.40    0.45 
  -5 -11  -4    8.83    0.68 
  -6 -11  -4    7.29    0.40 
  -6 -11  -4    7.55    0.70 
  -7 -11  -4    0.52    0.14 
  -7 -11  -4    0.27    0.32 
  -8 -11  -4    0.93    0.39 
  -8 -11  -4    0.26    0.10 
  -9 -11  -4    4.41    0.74 
  -9 -11  -4    2.98    0.29 
 -10 -11  -4   -0.02    0.08 
 -10 -11  -4   -0.17    0.32 
 -11 -11  -4    0.04    0.36 
 -12 -11  -4    1.20    0.58 
 -13 -11  -4    1.02    0.61 
 -14 -11  -4    0.18    0.51 
 -15 -11  -4    0.26    0.60 
 -16 -11  -4    0.58    0.58 
   6 -12  -4    0.07    0.10 
   5 -12  -4    0.19    0.09 
   4 -12  -4    0.04    0.10 
   3 -12  -4    1.31    0.23 
   2 -12  -4    0.20    0.11 
   1 -12  -4    0.49    0.14 
   0 -12  -4    0.77    0.20 
  -1 -12  -4    0.10    0.32 
  -1 -12  -4    0.85    0.21 
  -2 -12  -4    2.39    0.32 
  -2 -12  -4    2.16    0.57 
  -3 -12  -4    1.15    0.23 
  -3 -12  -4    0.78    0.36 
  -4 -12  -4    0.45    0.33 
  -4 -12  -4    0.71    0.17 
  -5 -12  -4    5.65    0.75 
  -5 -12  -4    4.59    0.40 
  -6 -12  -4    5.63    0.75 
  -6 -12  -4    5.35    0.36 
  -7 -12  -4    0.25    0.29 
  -7 -12  -4    0.56    0.15 
  -8 -12  -4    2.88    0.30 
  -8 -12  -4    2.91    0.61 
  -9 -12  -4   -0.02    0.08 
  -9 -12  -4    0.06    0.31 
 -10 -12  -4    0.40    0.44 
 -10 -12  -4    0.38    0.14 
 -11 -12  -4    1.93    0.65 
 -11 -12  -4    1.52    0.19 
 -12 -12  -4    0.91    0.55 
 -13 -12  -4    0.40    0.56 
 -14 -12  -4    0.90    0.61 
 -15 -12  -4    0.43    0.58 
 -16 -12  -4    0.98    0.55 
   5 -13  -4    0.32    0.12 
   4 -13  -4    0.44    0.12 
   3 -13  -4    0.00    0.08 
   2 -13  -4    0.14    0.09 
   1 -13  -4    0.41    0.14 
   0 -13  -4    2.58    0.34 
  -1 -13  -4    0.22    0.14 
  -2 -13  -4    4.09    0.42 
  -3 -13  -4    0.37    0.15 
  -4 -13  -4    0.13    0.24 
  -4 -13  -4    0.12    0.14 
  -5 -13  -4    3.78    0.68 
  -5 -13  -4    2.66    0.33 
  -6 -13  -4    3.91    0.72 
  -6 -13  -4    3.15    0.34 
  -7 -13  -4   -0.13    0.28 
  -7 -13  -4    0.12    0.13 
  -8 -13  -4    0.27    0.13 
  -8 -13  -4    0.32    0.34 
  -9 -13  -4    0.80    0.43 
  -9 -13  -4    0.47    0.14 
 -10 -13  -4    0.19    0.12 
 -10 -13  -4    0.20    0.38 
 -11 -13  -4    0.16    0.47 
 -11 -13  -4    0.15    0.08 
 -12 -13  -4    0.60    0.52 
 -13 -13  -4    0.34    0.58 
 -14 -13  -4    0.98    0.61 
 -15 -13  -4    0.39    0.61 
   4 -14  -4    0.37    0.14 
   3 -14  -4    0.52    0.15 
   2 -14  -4   -0.03    0.12 
   1 -14  -4   -0.09    0.10 
   0 -14  -4    1.43    0.25 
  -1 -14  -4    0.69    0.20 
  -2 -14  -4    0.42    0.17 
  -3 -14  -4    0.15    0.13 
  -4 -14  -4    0.62    0.19 
  -5 -14  -4    6.70    0.45 
  -6 -14  -4    1.13    0.22 
  -7 -14  -4    0.63    0.39 
  -7 -14  -4    0.55    0.15 
  -8 -14  -4    0.70    0.18 
  -8 -14  -4    0.67    0.38 
  -9 -14  -4    0.12    0.34 
  -9 -14  -4    0.04    0.12 
 -10 -14  -4    1.20    0.52 
 -10 -14  -4    1.03    0.20 
 -11 -14  -4    1.21    0.18 
 -11 -14  -4    1.40    0.58 
 -12 -14  -4    1.18    0.59 
 -13 -14  -4    0.95    0.58 
 -14 -14  -4    0.28    0.58 
 -15 -14  -4   -0.01    0.47 
   2 -15  -4   -0.16    0.11 
   1 -15  -4    0.12    0.14 
   0 -15  -4    0.74    0.20 
  -1 -15  -4    0.85    0.23 
  -2 -15  -4   -0.27    0.09 
  -3 -15  -4    0.37    0.18 
  -4 -15  -4    0.98    0.25 
  -5 -15  -4    0.28    0.22 
  -6 -15  -4    0.17    0.14 
  -7 -15  -4    0.18    0.14 
  -8 -15  -4    0.53    0.16 
  -9 -15  -4    0.28    0.14 
 -10 -15  -4    0.39    0.14 
 -11 -15  -4   -0.01    0.09 
 -11 -15  -4   -0.08    0.35 
 -12 -15  -4   -0.20    0.44 
 -13 -15  -4    0.61    0.48 
 -14 -15  -4    0.50    0.40 
   0 -16  -4    0.07    0.12 
  -1 -16  -4    0.12    0.14 
  -2 -16  -4   -0.08    0.10 
  -3 -16  -4    0.26    0.16 
  -4 -16  -4    0.18    0.15 
  -5 -16  -4    0.79    0.23 
  -6 -16  -4    0.81    0.24 
  -7 -16  -4    0.34    0.17 
  -8 -16  -4    0.02    0.11 
  -9 -16  -4    0.40    0.15 
 -10 -16  -4   -0.12    0.10 
 -11 -16  -4    0.09    0.10 
  -2 -17  -4    0.56    0.24 
  -3 -17  -4    0.38    0.18 
  -4 -17  -4    0.52    0.18 
  -5 -17  -4    0.07    0.14 
  -6 -17  -4    1.18    0.25 
  -7 -17  -4   -0.04    0.15 
  -8 -17  -4    0.30    0.14 
  -9 -17  -4    0.16    0.13 
 -10 -17  -4    0.20    0.15 
 -11 -17  -4    0.60    0.20 
  -6 -18  -4    0.62    0.17 
  -7 -18  -4   -0.22    0.12 
  -8 -18  -4    0.16    0.15 
  -8 -17   5    0.32    0.12 
  -7 -17   5    0.39    0.16 
  -6 -17   5   -0.01    0.12 
  -5 -17   5   -0.09    0.09 
  -4 -17   5    0.01    0.14 
 -11 -16   5    0.28    0.12 
 -10 -16   5    0.74    0.17 
  -9 -16   5    0.28    0.12 
  -8 -16   5    0.18    0.12 
  -7 -16   5    0.34    0.14 
  -6 -16   5    0.28    0.14 
  -5 -16   5    0.51    0.15 
  -4 -16   5    0.39    0.14 
  -3 -16   5    0.21    0.10 
  -2 -16   5    0.20    0.11 
  -1 -16   5    0.17    0.12 
   0 -16   5    0.29    0.13 
 -12 -15   5    0.10    0.11 
 -11 -15   5    0.46    0.13 
 -10 -15   5    0.06    0.16 
  -9 -15   5    0.17    0.11 
  -8 -15   5    0.56    0.16 
  -7 -15   5    0.99    0.22 
  -6 -15   5    0.18    0.13 
  -5 -15   5    0.20    0.13 
  -4 -15   5    0.87    0.19 
  -3 -15   5    0.18    0.11 
  -2 -15   5    0.67    0.20 
  -1 -15   5    0.18    0.12 
   0 -15   5    0.06    0.09 
   1 -15   5    0.11    0.11 
   2 -15   5   -0.04    0.11 
 -13 -14   5    0.28    0.11 
 -12 -14   5    0.13    0.11 
 -11 -14   5    0.38    0.12 
 -10 -14   5    0.52    0.16 
  -9 -14   5    0.55    0.14 
  -8 -14   5    0.24    0.12 
  -7 -14   5    0.52    0.15 
  -6 -14   5    0.25    0.12 
  -5 -14   5    0.19    0.12 
  -4 -14   5    1.12    0.23 
  -3 -14   5    0.57    0.16 
   2  14  -5    0.23    0.28 
  -2 -14   5    0.11    0.10 
   1  14  -5    0.95    0.37 
  -1 -14   5    0.56    0.15 
   0  14  -5    0.09    0.27 
   0 -14   5    0.28    0.14 
   1 -14   5    0.76    0.18 
   2 -14   5    0.41    0.14 
   3 -14   5    0.44    0.14 
   4 -14   5    0.07    0.10 
 -13 -13   5    0.57    0.13 
 -12 -13   5    0.28    0.11 
 -11 -13   5    0.81    0.15 
 -10 -13   5    0.20    0.10 
  -9 -13   5    0.23    0.11 
  -8 -13   5    0.40    0.14 
  -7 -13   5    0.66    0.16 
  -6 -13   5    0.17    0.13 
  -5 -13   5    0.54    0.15 
  -4 -13   5    1.87    0.27 
  -3 -13   5    1.77    0.26 
   2  13  -5    0.08    0.24 
  -2 -13   5    0.31    0.11 
   1  13  -5   -0.19    0.23 
  -1 -13   5    0.29    0.11 
   0  13  -5    0.24    0.25 
   0 -13   5    0.29    0.14 
  -1  13  -5    0.13    0.26 
   1 -13   5    0.23    0.12 
  -2  13  -5    1.04    0.39 
   2 -13   5    0.87    0.17 
  -3  13  -5   -0.01    0.28 
   3 -13   5   -0.05    0.08 
  -4  13  -5    0.06    0.32 
   4 -13   5    0.12    0.09 
   5 -13   5   -0.21    0.09 
 -13 -12   5    0.89    0.18 
 -12 -12   5    0.28    0.13 
 -11 -12   5    1.39    0.23 
 -10 -12   5    0.99    0.21 
  -9 -12   5    0.89    0.17 
  -8 -12   5    1.37    0.22 
  -7 -12   5    0.93    0.19 
  -6 -12   5    0.26    0.12 
  -5 -12   5    5.41    0.37 
  -4 -12   5    0.58    0.17 
   3  12  -5    2.71    0.47 
  -3 -12   5    3.17    0.36 
   2  12  -5    0.05    0.23 
  -2 -12   5    0.16    0.09 
   1  12  -5    0.30    0.25 
  -1 -12   5    0.60    0.14 
   0  12  -5    0.33    0.25 
   0 -12   5    0.63    0.16 
  -1  12  -5    1.29    0.36 
   1 -12   5    1.68    0.27 
  -2  12  -5    2.95    0.52 
   2 -12   5    3.53    0.36 
  -3  12  -5    0.04    0.27 
   3 -12   5   -0.08    0.08 
  -4  12  -5    0.01    0.29 
   4 -12   5    0.29    0.15 
  -5  12  -5    0.43    0.34 
  -6  12  -5   -0.09    0.33 
 -15 -11   5    0.79    0.51 
 -14 -11   5   -0.18    0.47 
 -13 -11   5   -0.40    0.46 
 -13 -11   5    0.23    0.21 
 -12 -11   5    0.09    0.48 
 -12 -11   5    0.16    0.14 
 -11 -11   5    0.20    0.13 
 -11 -11   5    0.20    0.50 
 -10 -11   5    0.53    0.14 
  -9 -11   5    0.85    0.20 
  -8 -11   5    0.32    0.14 
  -7 -11   5    0.23    0.10 
  -6 -11   5    0.12    0.10 
  -5 -11   5    3.70    0.36 
  -4 -11   5    4.51    0.39 
   3  11  -5    0.10    0.21 
  -3 -11   5    0.31    0.11 
   2  11  -5    0.65    0.28 
  -2 -11   5    0.57    0.16 
   1  11  -5    2.96    0.44 
  -1 -11   5    3.62    0.35 
   0  11  -5    0.00    0.20 
   0 -11   5   -0.02    0.07 
  -1  11  -5    0.71    0.29 
   1 -11   5    0.77    0.17 
  -2  11  -5    3.12    0.51 
   2 -11   5    3.87    0.38 
  -3  11  -5    1.95    0.43 
   3 -11   5    2.62    0.33 
  -4  11  -5    0.37    0.31 
   4 -11   5    0.99    0.19 
  -5  11  -5    0.43    0.34 
   5 -11   5    0.56    0.12 
  -6  11  -5   -0.05    0.29 
   6 -11   5    0.16    0.09 
  -7  11  -5    0.23    0.34 
 -15 -10   5    0.18    0.52 
 -14 -10   5    0.25    0.54 
 -13 -10   5    0.24    0.20 
 -13 -10   5    0.19    0.56 
 -12 -10   5    0.17    0.52 
 -12 -10   5   -0.10    0.17 
 -11 -10   5    0.61    0.22 
 -11 -10   5    0.56    0.55 
 -10 -10   5    0.07    0.38 
 -10 -10   5    0.03    0.14 
  -9 -10   5    0.07    0.38 
  -9 -10   5    0.39    0.17 
  -8 -10   5    0.63    0.17 
  -7 -10   5    1.98    0.26 
  -6 -10   5   -0.18    0.07 
  -5 -10   5    3.57    0.34 
  -4 -10   5   18.27    0.72 
   3  10  -5    0.97    0.30 
  -3 -10   5    1.15    0.19 
   2  10  -5    8.34    0.62 
  -2 -10   5    8.57    0.44 
   1  10  -5    2.11    0.38 
  -1 -10   5    2.89    0.31 
   0  10  -5   -0.14    0.15 
   0 -10   5    0.01    0.09 
  -1  10  -5    3.77    0.51 
   1 -10   5    4.56    0.38 
  -2  10  -5    7.30    0.64 
   2 -10   5    8.58    0.47 
  -3  10  -5    0.96    0.34 
   3 -10   5    0.72    0.16 
  -4  10  -5   -0.03    0.25 
   4 -10   5    0.15    0.10 
  -5  10  -5    0.52    0.31 
   5 -10   5    0.68    0.16 
  -6  10  -5    0.50    0.35 
   6 -10   5    0.41    0.10 
  -7  10  -5    0.24    0.34 
  -8  10  -5    0.24    0.35 
  -9  10  -5    0.36    0.44 
 -15  -9   5    0.30    0.55 
 -14  -9   5   -0.10    0.50 
 -13  -9   5   -0.17    0.43 
 -13  -9   5    0.19    0.27 
 -12  -9   5   -0.77    0.22 
 -12  -9   5    0.53    0.55 
 -11  -9   5    0.85    0.59 
 -11  -9   5   -0.38    0.22 
 -10  -9   5    0.63    0.47 
 -10  -9   5   -0.39    0.18 
  -9  -9   5    0.93    0.47 
  -9  -9   5   -0.03    0.16 
  -8  -9   5    3.76    0.55 
  -8  -9   5    2.76    0.30 
  -7  -9   5    9.41    0.65 
  -7  -9   5    7.27    0.43 
  -6  -9   5    0.81    0.22 
  -6  -9   5    0.57    0.16 
  -4  -9   5    0.27    0.11 
   3   9  -5    0.64    0.23 
  -3  -9   5    1.08    0.18 
   2   9  -5    1.08    0.28 
  -2  -9   5    1.01    0.18 
   1   9  -5    0.02    0.16 
  -1  -9   5   -0.03    0.07 
   0   9  -5    0.06    0.16 
   0  -9   5    0.14    0.09 
  -1   9  -5    0.67    0.26 
   1  -9   5    0.83    0.16 
  -2   9  -5    1.84    0.38 
   2  -9   5    2.01    0.25 
  -3   9  -5    1.87    0.41 
   3  -9   5    1.88    0.24 
  -4   9  -5    0.54    0.30 
   4  -9   5    0.96    0.17 
  -5   9  -5    2.03    0.47 
   5  -9   5    1.87    0.24 
  -6   9  -5    0.15    0.29 
   6  -9   5    0.13    0.08 
  -7   9  -5    2.73    0.59 
  -8   9  -5    0.20    0.36 
  -9   9  -5    0.07    0.36 
 -15  -8   5    0.71    0.63 
 -14  -8   5    0.73    0.59 
 -13  -8   5    0.62    0.12 
 -13  -8   5   -0.56    0.52 
 -12  -8   5    0.24    0.13 
 -12  -8   5    0.00    0.50 
 -11  -8   5   -0.39    0.41 
 -11  -8   5   -0.10    0.11 
 -10  -8   5    0.16    0.13 
 -10  -8   5    0.20    0.40 
  -9  -8   5    9.24    0.47 
  -9  -8   5    9.73    0.85 
  -8  -8   5    1.29    0.20 
  -8  -8   5    1.09    0.33 
  -7  -8   5   -0.54    0.16 
  -7  -8   5   -0.03    0.12 
  -6  -8   5    0.52    0.21 
  -6  -8   5   -0.33    0.13 
  -5  -8   5    2.03    0.31 
  -5  -8   5    1.24    0.20 
  -4  -8   5    0.10    0.12 
   2   8  -5   10.86    0.65 
  -2  -8   5   10.65    0.47 
   1   8  -5    4.60    0.40 
  -1  -8   5    4.74    0.29 
   0   8  -5    1.02    0.23 
   0  -8   5    0.83    0.16 
  -1   8  -5    7.21    0.56 
   1  -8   5    8.08    0.40 
  -2   8  -5    6.28    0.61 
   2  -8   5    6.33    0.35 
  -3   8  -5    3.32    0.50 
   3  -8   5    3.96    0.28 
  -4   8  -5   17.36    1.06 
   4  -8   5   19.15    0.72 
  -5   8  -5    0.14    0.24 
   5  -8   5    0.14    0.08 
  -6   8  -5    0.17    0.25 
   6  -8   5    0.38    0.08 
  -7   8  -5    0.62    0.35 
  -8   8  -5    1.54    0.49 
  -9   8  -5   -0.31    0.28 
 -10   8  -5   -0.14    0.32 
 -15  -7   5    0.53    0.53 
 -14  -7   5    0.31    0.54 
 -13  -7   5    0.11    0.53 
 -13  -7   5    0.61    0.14 
 -12  -7   5    0.39    0.49 
 -12  -7   5    0.87    0.19 
 -11  -7   5    0.16    0.47 
 -11  -7   5    0.74    0.18 
 -10  -7   5    0.55    0.17 
 -10  -7   5    0.88    0.47 
  -9  -7   5    1.46    0.24 
  -9  -7   5    2.07    0.56 
  -8  -7   5    4.61    0.64 
  -8  -7   5    3.10    0.30 
  -7  -7   5   -0.03    0.10 
  -7  -7   5   -0.06    0.17 
  -6  -7   5    0.24    0.16 
  -6  -7   5    0.80    0.16 
  -5  -7   5    5.45    0.45 
  -4  -7   5    5.44    0.33 
  -4  -7   5    5.82    0.39 
  -3  -7   5   24.10    0.84 
  -3  -7   5   27.55    1.00 
   2   7  -5    4.71    0.40 
  -2  -7   5    4.89    0.28 
   1   7  -5    0.23    0.14 
  -1  -7   5    0.31    0.10 
   0   7  -5    1.44    0.26 
   0  -7   5    1.80    0.20 
  -1   7  -5    1.19    0.25 
   1  -7   5    1.55    0.18 
  -2   7  -5    0.15    0.15 
   2  -7   5    0.44    0.08 
  -3   7  -5    0.61    0.24 
   3  -7   5    0.75    0.11 
  -4   7  -5    2.36    0.45 
   4  -7   5    2.24    0.22 
  -5   7  -5   -0.05    0.20 
   5  -7   5    0.29    0.10 
  -6   7  -5    0.12    0.25 
   6  -7   5    0.29    0.09 
  -7   7  -5    0.32    0.32 
   7  -7   5    0.03    0.05 
  -8   7  -5    0.14    0.29 
  -9   7  -5    0.25    0.34 
 -10   7  -5    0.02    0.33 
 -11   7  -5    0.20    0.38 
 -15  -6   5    0.30    0.57 
 -14  -6   5   -0.40    0.51 
 -13  -6   5    0.06    0.55 
 -13  -6   5    0.76    0.14 
 -12  -6   5    0.06    0.44 
 -12  -6   5    0.70    0.18 
 -11  -6   5    0.00    0.13 
 -11  -6   5    0.12    0.41 
 -10  -6   5    3.56    0.70 
 -10  -6   5    3.88    0.32 
  -9  -6   5    0.42    0.17 
  -9  -6   5    0.76    0.44 
  -8  -6   5    0.06    0.14 
  -8  -6   5    0.25    0.26 
  -7  -6   5    0.34    0.21 
  -7  -6   5   -0.19    0.09 
  -6  -6   5   20.30    0.72 
  -6  -6   5   22.25    1.13 
  -5  -6   5    4.93    0.29 
  -5  -6   5    4.14    0.46 
  -4  -6   5    6.18    0.42 
  -4  -6   5    5.26    0.29 
  -3  -6   5    6.24    0.36 
  -3  -6   5    5.63    0.32 
   2   6  -5   30.62    1.25 
  -2  -6   5   30.37    0.95 
  -2  -6   5   32.60    1.13 
   1   6  -5   19.09    0.88 
  -1  -6   5   18.80    0.64 
   0   6  -5   10.53    0.61 
   0  -6   5   10.83    0.43 
  -1   6  -5   13.90    0.75 
   1  -6   5   15.06    0.54 
  -2   6  -5    4.74    0.48 
   2  -6   5    4.65    0.26 
  -3   6  -5    0.10    0.14 
  -3   6  -5    0.16    0.11 
   3  -6   5   -0.02    0.04 
  -4   6  -5    4.85    0.57 
  -4   6  -5    5.49    0.40 
   4  -6   5    4.94    0.27 
  -5   6  -5    0.22    0.15 
  -5   6  -5    0.02    0.20 
   5  -6   5    0.16    0.06 
  -6   6  -5    1.31    0.37 
  -7   6  -5    0.15    0.25 
   7  -6   5    0.00    0.04 
  -8   6  -5   -0.15    0.24 
  -9   6  -5    0.16    0.31 
 -10   6  -5    0.04    0.32 
 -11   6  -5    0.13    0.36 
 -12   6  -5    0.73    0.46 
 -15  -5   5    0.14    0.53 
 -14  -5   5    0.15    0.51 
 -13  -5   5    0.42    0.60 
 -12  -5   5    0.52    0.54 
 -12  -5   5    1.09    0.22 
 -11  -5   5   -0.43    0.31 
 -11  -5   5    0.53    0.16 
 -10  -5   5    1.98    0.58 
 -10  -5   5    2.01    0.26 
  -9  -5   5    0.25    0.35 
  -9  -5   5   -0.06    0.14 
  -8  -5   5    6.16    0.36 
  -8  -5   5    7.16    0.84 
  -7  -5   5    9.78    0.77 
  -7  -5   5    9.79    0.44 
  -6  -5   5    0.03    0.16 
  -6  -5   5    0.01    0.09 
  -5  -5   5   74.23    1.97 
  -5  -5   5   73.45    2.83 
  -4  -5   5   18.28    0.62 
  -4  -5   5   17.44    0.88 
  -3  -5   5    5.79    0.29 
  -3  -5   5    6.47    0.41 
   2   5  -5    2.59    0.32 
  -2  -5   5    2.03    0.19 
  -2  -5   5    2.21    0.18 
   1   5  -5   39.01    1.47 
  -1  -5   5   40.72    1.14 
   0   5  -5    3.96    0.38 
   0  -5   5    3.43    0.21 
  -1   5  -5    0.99    0.23 
   1  -5   5    0.98    0.13 
  -2   5  -5   10.92    0.46 
  -2   5  -5   10.30    0.63 
   2  -5   5   11.00    0.41 
  -3   5  -5    5.87    0.37 
  -3   5  -5    6.77    0.52 
   3  -5   5    5.57    0.27 
  -4   5  -5   27.47    1.19 
  -4   5  -5   27.29    1.30 
   4  -5   5   27.42    0.84 
  -5   5  -5   14.36    0.79 
  -5   5  -5   12.57    0.86 
  -6   5  -5    0.45    0.28 
  -6   5  -5    0.56    0.25 
   6  -5   5    0.69    0.09 
  -7   5  -5    8.84    0.71 
  -7   5  -5    8.64    0.77 
   7  -5   5    9.41    0.38 
  -8   5  -5    0.38    0.22 
  -8   5  -5    0.13    0.27 
  -9   5  -5    0.56    0.37 
  -9   5  -5   -0.24    0.22 
 -10   5  -5    0.03    0.28 
 -11   5  -5    0.06    0.31 
 -12   5  -5    0.77    0.45 
 -13   5  -5    0.25    0.45 
 -15  -4   5    0.19    0.46 
 -14  -4   5   -0.32    0.41 
 -13  -4   5    0.04    0.45 
 -12  -4   5    0.78    0.19 
 -12  -4   5   -0.22    0.43 
 -11  -4   5    0.41    0.16 
 -11  -4   5    0.16    0.40 
 -10  -4   5    0.28    0.16 
 -10  -4   5    0.41    0.42 
  -9  -4   5    0.57    0.37 
  -9  -4   5    0.50    0.18 
  -8  -4   5   12.06    0.49 
  -8  -4   5   12.04    0.95 
  -7  -4   5   -0.11    0.16 
  -7  -4   5    0.12    0.12 
  -6  -4   5    5.24    0.29 
  -5  -4   5    5.48    0.30 
  -4  -4   5   57.98    1.57 
  -3  -4   5   49.85    1.36 
   2   4  -5   11.68    0.60 
  -2  -4   5   11.76    0.43 
   1   4  -5    5.08    0.36 
  -1  -4   5    4.99    0.24 
   0   4  -5   10.05    0.55 
   0  -4   5   10.08    0.38 
  -1   4  -5    6.16    0.43 
   1  -4   5    6.22    0.28 
  -2   4  -5   10.03    0.45 
  -2   4  -5    8.91    0.57 
   2  -4   5    9.55    0.36 
  -3   4  -5    2.44    0.37 
  -3   4  -5    2.24    0.25 
   3  -4   5    2.31    0.15 
  -4   4  -5    4.90    0.40 
  -4   4  -5    3.98    0.48 
  -5   4  -5   -0.06    0.14 
  -5   4  -5   -0.05    0.15 
   5  -4   5    0.14    0.03 
  -6   4  -5    7.87    0.67 
  -6   4  -5    7.90    0.62 
   6  -4   5    7.75    0.31 
  -7   4  -5    0.46    0.27 
  -7   4  -5    0.33    0.26 
   7  -4   5    0.35    0.05 
  -8   4  -5   -0.21    0.20 
  -8   4  -5    0.10    0.21 
  -9   4  -5    2.36    0.51 
  -9   4  -5    2.38    0.54 
 -10   4  -5    0.09    0.35 
 -10   4  -5    0.78    0.37 
 -11   4  -5    0.02    0.36 
 -11   4  -5   -0.08    0.27 
 -12   4  -5   -0.29    0.23 
 -13   4  -5   -0.39    0.29 
 -15  -3   5   -0.53    0.56 
 -14  -3   5    0.49    0.58 
 -13  -3   5   -0.32    0.49 
 -12  -3   5    0.01    0.14 
 -12  -3   5   -0.28    0.40 
 -11  -3   5    2.27    0.25 
 -11  -3   5    0.93    0.52 
 -10  -3   5    2.60    0.67 
 -10  -3   5    3.93    0.28 
  -9  -3   5    0.52    0.38 
  -9  -3   5    0.28    0.15 
  -8  -3   5    5.56    0.77 
  -8  -3   5    5.25    0.30 
  -7  -3   5   13.52    0.51 
  -6  -3   5    0.05    0.10 
  -5  -3   5    6.02    0.29 
  -4  -3   5  173.95    4.30 
  -3  -3   5   11.54    0.42 
  -2  -3   5   40.99    1.12 
   1   3  -5    0.03    0.08 
  -1  -3   5   -0.02    0.06 
   0   3  -5    9.64    0.50 
   0  -3   5    9.30    0.34 
  -1   3  -5   19.47    0.76 
  -1   3  -5   19.31    0.84 
  -2   3  -5  125.77    4.26 
  -2   3  -5  124.99    3.99 
   2  -3   5  125.88    3.11 
  -3   3  -5   22.47    0.94 
  -3   3  -5   22.33    1.03 
  -4   3  -5    0.38    0.18 
  -4   3  -5    0.51    0.19 
   4  -3   5    0.48    0.07 
  -5   3  -5   10.26    0.70 
  -5   3  -5   10.44    0.66 
   5  -3   5    9.87    0.35 
  -6   3  -5    3.34    0.46 
  -6   3  -5    2.66    0.45 
   6  -3   5    3.42    0.16 
  -7   3  -5   20.02    1.13 
  -7   3  -5   19.54    1.14 
   7  -3   5   19.77    0.61 
  -8   3  -5   23.34    1.31 
  -9   3  -5    0.05    0.30 
 -10   3  -5    1.99    0.54 
 -11   3  -5   -0.16    0.33 
 -12   3  -5    0.13    0.40 
 -13   3  -5   -0.20    0.43 
 -15  -2   5   -0.20    0.79 
 -14  -2   5    0.35    0.63 
 -13  -2   5    0.10    0.61 
 -12  -2   5    0.04    0.51 
 -12  -2   5   -0.26    0.11 
 -11  -2   5    0.08    0.14 
 -11  -2   5   -0.10    0.31 
 -10  -2   5    0.05    0.34 
 -10  -2   5    0.40    0.16 
  -9  -2   5    0.50    0.16 
  -9  -2   5    0.59    0.36 
  -8  -2   5    1.92    0.21 
  -7  -2   5    1.24    0.17 
  -6  -2   5    7.88    0.33 
  -5  -2   5    3.47    0.21 
  -4  -2   5  116.68    2.92 
  -3  -2   5   15.39    0.50 
  -2  -2   5  100.59    2.52 
   1   2  -5   50.54    1.70 
  -1  -2   5   51.05    1.33 
   0   2  -5   43.20    1.61 
   0   2  -5   43.05    1.49 
   0  -2   5   44.23    1.15 
  -1   2  -5    2.59    0.27 
  -1   2  -5    2.15    0.20 
   1  -2   5    2.27    0.14 
  -2   2  -5    0.57    0.16 
  -2   2  -5    0.48    0.12 
   2  -2   5    0.28    0.06 
  -3   2  -5    2.80    0.27 
  -3   2  -5    2.69    0.33 
   3  -2   5    2.46    0.14 
  -4   2  -5   36.15    1.49 
  -4   2  -5   35.32    1.47 
   4  -2   5   37.81    0.98 
  -5   2  -5    0.29    0.18 
  -5   2  -5    0.52    0.20 
   5  -2   5    0.26    0.04 
  -6   2  -5    9.56    0.68 
   6  -2   5    8.88    0.30 
  -7   2  -5    1.72    0.39 
   7  -2   5    1.99    0.11 
  -8   2  -5    6.24    0.70 
  -9   2  -5    4.19    0.65 
 -10   2  -5    0.87    0.41 
 -11   2  -5    2.04    0.57 
 -12   2  -5    0.13    0.42 
 -13   2  -5    0.18    0.47 
 -14   2  -5   -0.08    0.50 
 -14  -1   5   -0.21    0.73 
 -13  -1   5    0.45    0.68 
 -12  -1   5    0.13    0.12 
 -12  -1   5    0.22    0.54 
 -11  -1   5    0.04    0.12 
 -11  -1   5   -0.35    0.33 
 -10  -1   5    0.81    0.18 
 -10  -1   5    0.30    0.40 
  -9  -1   5    0.31    0.15 
  -8  -1   5    4.84    0.27 
  -7  -1   5   31.94    0.94 
  -6  -1   5    2.41    0.19 
  -5  -1   5    1.77    0.17 
  -4  -1   5    3.29    0.19 
  -3  -1   5   14.19    0.46 
  -2  -1   5    8.70    0.31 
   1   1  -5  138.76    4.19 
  -1  -1   5  137.46    3.38 
   0   1  -5    2.56    0.21 
   0   1  -5    2.46    0.27 
   0  -1   5    2.88    0.16 
  -1   1  -5    0.02    0.06 
  -1   1  -5   -0.03    0.07 
   1  -1   5    0.00    0.06 
  -2   1  -5   86.67    2.74 
  -2   1  -5   85.89    3.00 
   2  -1   5   83.89    2.11 
  -3   1  -5    0.35    0.15 
  -3   1  -5    0.41    0.13 
   3  -1   5    0.37    0.07 
  -4   1  -5   17.80    0.88 
  -4   1  -5   18.23    0.88 
   4  -1   5   18.93    0.51 
  -5   1  -5    1.78    0.32 
   5  -1   5    2.06    0.09 
  -6   1  -5   23.37    1.21 
   6  -1   5   24.15    0.64 
  -7   1  -5    0.04    0.20 
  -8   1  -5   20.18    1.21 
  -9   1  -5    1.67    0.49 
 -10   1  -5    1.34    0.48 
 -11   1  -5    0.49    0.43 
 -12   1  -5    0.46    0.45 
 -13   1  -5    0.10    0.45 
 -14   1  -5    0.14    0.51 
 -15   1  -5    1.43    0.69 
 -14   0   5    0.57    0.79 
 -13   0   5   -0.53    0.54 
 -12   0   5    0.02    0.12 
 -12   0   5   -0.85    0.38 
 -11   0   5    0.22    0.44 
 -11   0   5    0.02    0.12 
 -10   0   5    3.60    0.29 
  -9   0   5    0.54    0.15 
  -8   0   5    0.86    0.14 
  -7   0   5    3.18    0.21 
  -6   0   5    3.55    0.20 
  -5   0   5    1.89    0.16 
  -4   0   5    3.77    0.20 
  -3   0   5   14.81    0.47 
  -2   0   5   41.17    1.08 
   1   0  -5  277.92    9.29 
  -1   0   5  270.66    6.59 
   0   0  -5   11.44    0.48 
   0   0  -5   11.54    0.62 
   0   0   5   11.68    0.36 
  -1   0  -5  193.87    5.68 
  -1   0  -5  186.76    6.45 
   1   0   5  189.18    4.58 
  -2   0  -5    4.06    0.32 
  -2   0  -5    3.72    0.28 
   2   0   5    4.06    0.16 
  -3   0  -5   77.66    2.84 
  -3   0  -5   79.34    2.58 
   3   0   5   78.80    1.92 
  -4   0  -5    6.85    0.49 
   4   0   5    6.53    0.20 
  -5   0  -5    7.70    0.58 
   5   0   5    7.92    0.22 
  -6   0  -5   20.00    1.07 
  -7   0  -5    1.27    0.35 
  -8   0  -5    0.73    0.30 
  -9   0  -5    0.62    0.37 
 -10   0  -5    2.53    0.59 
 -11   0  -5   11.71    1.06 
 -12   0  -5    0.42    0.44 
 -13   0  -5    0.20    0.45 
 -14   0  -5    0.28    0.47 
 -15   0  -5   -0.26    0.52 
 -14   1   5   -0.08    0.76 
 -13   1   5    0.28    0.62 
 -12   1   5   -0.30    0.51 
 -11   1   5   -0.13    0.10 
 -11   1   5   -0.03    0.39 
 -10   1   5    1.00    0.19 
  -9   1   5    0.10    0.12 
  -8   1   5    7.72    0.36 
  -7   1   5    9.38    0.38 
  -6   1   5    0.04    0.05 
  -5   1   5    1.35    0.15 
  -4   1   5    2.24    0.15 
  -3   1   5    0.04    0.06 
  -2   1   5   29.95    0.83 
   1  -1  -5   27.59    1.25 
  -1   1   5   27.00    0.75 
   0  -1  -5   11.26    0.64 
   0   1   5   10.70    0.34 
  -1  -1  -5    0.43    0.16 
   1   1   5    0.60    0.07 
  -2  -1  -5    0.16    0.08 
  -2  -1  -5    0.19    0.13 
   2   1   5    0.26    0.04 
  -3  -1  -5    8.81    0.54 
  -3  -1  -5    7.75    0.44 
   3   1   5    8.01    0.24 
  -4  -1  -5   26.19    1.18 
   4   1   5   26.00    0.66 
  -5  -1  -5    5.87    0.48 
  -6  -1  -5   18.29    1.02 
  -7  -1  -5    6.04    0.64 
  -8  -1  -5    1.38    0.36 
  -9  -1  -5    0.07    0.28 
 -10  -1  -5    0.08    0.32 
 -11  -1  -5    0.34    0.38 
 -12  -1  -5    1.07    0.51 
 -13  -1  -5    0.41    0.47 
 -14  -1  -5    0.76    0.53 
 -15  -1  -5   -0.54    0.54 
 -13   2   5    0.11    0.67 
 -12   2   5   -0.21    0.37 
 -11   2   5   -0.03    0.38 
 -11   2   5   -0.02    0.09 
 -10   2   5    0.99    0.18 
  -9   2   5    0.16    0.12 
  -8   2   5    0.48    0.14 
  -7   2   5    7.31    0.35 
  -6   2   5    2.09    0.20 
  -5   2   5    0.37    0.08 
  -4   2   5   11.21    0.41 
  -3   2   5    1.05    0.13 
  -2   2   5    3.73    0.19 
   1  -2  -5    0.19    0.15 
  -1   2   5    0.39    0.07 
   0  -2  -5   12.12    0.71 
   0   2   5   11.75    0.38 
  -1  -2  -5   35.67    1.10 
  -1  -2  -5   33.72    1.44 
   1   2   5   33.76    0.90 
  -2  -2  -5    2.56    0.32 
  -2  -2  -5    2.57    0.18 
  -3  -2  -5   15.19    0.67 
  -3  -2  -5   18.41    0.87 
   3   2   5   17.40    0.46 
  -4  -2  -5  316.39   10.60 
   4   2   5  311.19    7.51 
  -5  -2  -5    7.59    0.56 
  -6  -2  -5    0.65    0.27 
  -7  -2  -5    0.15    0.20 
  -8  -2  -5    4.12    0.59 
  -9  -2  -5    0.11    0.28 
 -10  -2  -5    0.10    0.33 
 -11  -2  -5    6.06    0.87 
 -12  -2  -5    0.43    0.46 
 -13  -2  -5    1.34    0.58 
 -14  -2  -5    0.34    0.56 
 -15  -2  -5    0.84    0.66 
 -16  -2  -5   -0.23    0.53 
 -13   3   5    0.07    0.56 
 -12   3   5    0.11    0.46 
 -11   3   5    0.17    0.09 
 -11   3   5    0.18    0.41 
 -10   3   5    1.22    0.19 
  -9   3   5    4.35    0.29 
  -8   3   5    8.48    0.42 
  -7   3   5    0.33    0.12 
  -6   3   5    0.23    0.08 
  -5   3   5    0.82    0.13 
  -4   3   5    2.24    0.20 
  -3   3   5    1.89    0.18 
  -2   3   5  168.45    4.16 
   1  -3  -5   26.44    0.79 
   1  -3  -5   26.20    1.28 
  -1   3   5   25.48    0.76 
   0  -3  -5    2.25    0.15 
   0  -3  -5    2.77    0.39 
  -1  -3  -5   67.21    2.56 
  -1  -3  -5   66.66    2.00 
  -1  -3  -5   66.84    1.72 
  -2  -3  -5   89.43    2.61 
  -2  -3  -5   86.50    2.16 
  -2  -3  -5   81.91    3.15 
  -3  -3  -5    3.71    0.16 
  -3  -3  -5    3.82    0.38 
  -4  -3  -5   74.07    1.85 
  -4  -3  -5   76.04    2.84 
  -5  -3  -5   10.87    0.72 
  -5  -3  -5   11.80    0.32 
  -6  -3  -5    9.29    0.69 
  -7  -3  -5   35.95    1.69 
  -8  -3  -5    4.45    0.62 
  -9  -3  -5   -0.05    0.26 
 -10  -3  -5    0.21    0.34 
 -11  -3  -5    0.04    0.35 
 -12  -3  -5    1.63    0.57 
 -13  -3  -5    0.83    0.55 
 -14  -3  -5    1.09    0.62 
 -15  -3  -5    0.26    0.64 
 -16  -3  -5    0.39    0.64 
 -12   4   5    0.31    0.50 
 -11   4   5    0.32    0.09 
 -10   4   5    1.12    0.19 
  -9   4   5    0.94    0.18 
  -8   4   5    5.01    0.32 
  -7   4   5    4.05    0.28 
  -6   4   5    0.33    0.13 
  -5   4   5    0.95    0.15 
  -4   4   5   22.25    0.74 
   3  -4  -5    0.74    0.13 
   2  -4  -5    7.52    0.35 
   1  -4  -5   12.21    0.47 
   1  -4  -5   12.74    0.82 
   0  -4  -5   13.70    0.83 
   0  -4  -5   14.11    0.50 
  -1  -4  -5   -0.01    0.09 
  -1  -4  -5    0.02    0.06 
  -2  -4  -5    1.53    0.14 
  -2  -4  -5    1.75    0.09 
  -2  -4  -5    1.78    0.32 
  -3  -4  -5    7.69    0.55 
  -3  -4  -5    7.67    0.29 
  -4  -4  -5   95.53    3.49 
  -4  -4  -5   92.95    2.34 
  -5  -4  -5    0.14    0.03 
  -5  -4  -5    0.33    0.18 
  -6  -4  -5    0.27    0.23 
  -6  -4  -5    0.37    0.05 
  -7  -4  -5   24.83    1.32 
  -7  -4  -5   24.61    0.64 
  -8  -4  -5   13.51    0.95 
  -9  -4  -5    0.11    0.28 
 -10  -4  -5    3.41    0.67 
 -11  -4  -5   10.85    1.02 
 -12  -4  -5    0.06    0.37 
 -13  -4  -5    0.18    0.48 
 -14  -4  -5    1.71    0.72 
 -15  -4  -5    0.30    0.55 
 -16  -4  -5   -0.24    0.58 
 -12   5   5    0.21    0.53 
 -10   5   5    1.19    0.19 
  -9   5   5    0.23    0.13 
  -8   5   5    3.25    0.31 
  -7   5   5    1.55    0.22 
  -6   5   5    0.19    0.12 
  -5   5   5    1.98    0.24 
   4  -5  -5    6.03    0.35 
   3  -5  -5    0.71    0.13 
   2  -5  -5   12.79    0.52 
   1  -5  -5    9.32    0.40 
   1  -5  -5    9.58    0.73 
   0  -5  -5    2.01    0.21 
   0  -5  -5    1.85    0.37 
  -1  -5  -5   48.44    1.31 
  -1  -5  -5   45.55    1.98 
  -2  -5  -5   10.34    0.69 
  -2  -5  -5   10.18    0.39 
  -3  -5  -5    6.88    0.29 
  -3  -5  -5    6.27    0.51 
  -4  -5  -5   38.73    1.06 
  -4  -5  -5   39.80    1.71 
  -5  -5  -5    0.24    0.06 
  -5  -5  -5    0.05    0.15 
  -6  -5  -5   13.46    0.86 
  -6  -5  -5   14.08    0.43 
  -7  -5  -5   -0.01    0.19 
  -7  -5  -5    0.14    0.04 
  -8  -5  -5    7.72    0.71 
  -8  -5  -5    8.33    0.26 
  -9  -5  -5    2.48    0.54 
 -10  -5  -5    0.47    0.36 
 -11  -5  -5   21.53    1.44 
 -12  -5  -5    3.40    0.75 
 -13  -5  -5    1.64    0.65 
 -14  -5  -5    0.69    0.57 
 -15  -5  -5   -0.31    0.61 
 -16  -5  -5   -0.53    0.70 
 -11   6   5    0.36    0.54 
 -10   6   5   -0.04    0.08 
  -9   6   5    0.29    0.13 
  -8   6   5    0.39    0.14 
  -7   6   5    0.86    0.19 
  -6   6   5    1.03    0.20 
   5  -6  -5    0.57    0.15 
   4  -6  -5   23.83    0.86 
   3  -6  -5    0.86    0.17 
   2  -6  -5    0.83    0.13 
   1  -6  -5    6.37    0.71 
   1  -6  -5    6.40    0.33 
   0  -6  -5    3.62    0.53 
   0  -6  -5    3.06    0.21 
   0   6   5    3.27    0.16 
  -1  -6  -5    0.33    0.17 
  -1  -6  -5    0.40    0.09 
  -2  -6  -5   16.86    0.97 
  -2  -6  -5   17.58    0.59 
  -3  -6  -5   13.69    0.83 
  -3  -6  -5   14.03    0.49 
  -4  -6  -5    4.37    0.22 
  -4  -6  -5    3.98    0.49 
  -5  -6  -5   41.94    1.14 
  -5  -6  -5   41.30    1.83 
  -6  -6  -5    0.34    0.07 
  -6  -6  -5    0.18    0.16 
  -7  -6  -5    8.29    0.69 
  -7  -6  -5    8.91    0.32 
  -8  -6  -5   34.27    0.90 
  -8  -6  -5   31.14    1.66 
  -9  -6  -5    7.36    0.84 
  -9  -6  -5    7.91    0.27 
 -10  -6  -5    1.45    0.49 
 -11  -6  -5   12.35    1.08 
 -12  -6  -5   -0.45    0.34 
 -13  -6  -5   -0.10    0.43 
 -14  -6  -5   -0.06    0.55 
 -15  -6  -5    0.05    0.60 
 -16  -6  -5    0.57    0.81 
 -17  -6  -5   -0.09    0.91 
 -10   7   5    0.25    0.11 
  -9   7   5    0.06    0.10 
  -8   7   5    0.04    0.09 
  -7   7   5    1.24    0.22 
  -6   7   5   -0.12    0.11 
   5  -7  -5    0.01    0.10 
   4  -7  -5    0.14    0.11 
   3  -7  -5    1.73    0.24 
   2  -7  -5    0.67    0.15 
  -2   7   5    0.61    0.14 
   1  -7  -5    8.26    0.42 
   1  -7  -5   10.17    0.78 
  -1   7   5    9.81    0.43 
   0  -7  -5   10.13    0.78 
   0  -7  -5   10.77    0.47 
   0   7   5   11.21    0.41 
  -1  -7  -5    0.64    0.12 
  -1  -7  -5    0.94    0.29 
  -2  -7  -5   17.18    0.61 
  -2  -7  -5   17.54    1.01 
  -3  -7  -5    0.04    0.14 
  -3  -7  -5    0.28    0.08 
  -4  -7  -5   22.32    0.71 
  -4  -7  -5   21.94    1.17 
  -5  -7  -5    5.13    0.50 
  -5  -7  -5    5.12    0.25 
  -6  -7  -5    5.88    0.56 
  -6  -7  -5    5.55    0.26 
  -7  -7  -5    0.65    0.10 
  -7  -7  -5    0.42    0.22 
  -8  -7  -5    0.27    0.06 
  -8  -7  -5    0.22    0.27 
  -9  -7  -5    2.26    0.13 
  -9  -7  -5    1.70    0.49 
 -10  -7  -5    3.08    0.65 
 -11  -7  -5    6.22    0.93 
 -12  -7  -5    0.71    0.48 
 -13  -7  -5    0.48    0.49 
 -14  -7  -5    1.11    0.65 
 -15  -7  -5   -0.14    0.60 
 -16  -7  -5    0.45    0.73 
 -17  -7  -5    0.39    0.87 
  -9   8   5    0.08    0.09 
  -8   8   5    1.07    0.21 
  -7   8   5    2.23    0.29 
   6  -8  -5    0.55    0.14 
   5  -8  -5   -0.06    0.08 
   4  -8  -5    7.47    0.45 
   3  -8  -5    4.24    0.38 
   2  -8  -5   11.28    0.54 
  -2   8   5   12.46    0.58 
   1  -8  -5    5.36    0.34 
  -1   8   5    5.31    0.30 
   0  -8  -5    0.78    0.16 
   0  -8  -5    0.48    0.26 
   0   8   5    0.79    0.09 
  -1  -8  -5    2.13    0.24 
  -1  -8  -5    1.83    0.44 
  -2  -8  -5    0.25    0.17 
  -2  -8  -5    0.37    0.09 
  -3  -8  -5    6.25    0.32 
  -3  -8  -5    7.05    0.59 
  -4  -8  -5    0.39    0.09 
  -4  -8  -5    0.40    0.19 
  -5  -8  -5    9.85    0.41 
  -5  -8  -5   10.03    0.74 
  -6  -8  -5    0.09    0.16 
  -6  -8  -5   -0.07    0.06 
  -7  -8  -5    0.48    0.09 
  -7  -8  -5    0.27    0.19 
  -8  -8  -5    8.28    0.34 
  -8  -8  -5    7.90    0.76 
  -9  -8  -5    1.20    0.46 
  -9  -8  -5    1.30    0.13 
 -10  -8  -5    1.36    0.51 
 -11  -8  -5    2.45    0.66 
 -12  -8  -5    0.17    0.42 
 -13  -8  -5    0.02    0.42 
 -14  -8  -5    0.02    0.51 
 -15  -8  -5   -0.01    0.52 
 -16  -8  -5    0.01    0.56 
 -17  -8  -5    0.00    0.58 
  -9   9   5    0.01    0.09 
  -8   9   5    0.37    0.17 
  -7   9   5    0.13    0.13 
   6  -9  -5    0.03    0.07 
   5  -9  -5    1.38    0.23 
   4  -9  -5    0.15    0.11 
   3  -9  -5    0.15    0.11 
   2  -9  -5    0.79    0.19 
   1  -9  -5    4.22    0.31 
   0  -9  -5    0.51    0.16 
   0  -9  -5    0.59    0.28 
  -1  -9  -5    6.16    0.74 
  -1  -9  -5    5.14    0.33 
  -2  -9  -5    7.13    0.61 
  -2  -9  -5    6.00    0.35 
  -3  -9  -5    1.27    0.18 
  -3  -9  -5    1.94    0.40 
  -4  -9  -5    1.51    0.37 
  -4  -9  -5    1.73    0.21 
  -5  -9  -5    0.63    0.13 
  -5  -9  -5    0.40    0.23 
  -6  -9  -5    1.53    0.40 
  -6  -9  -5    1.27    0.16 
  -7  -9  -5    3.91    0.24 
  -7  -9  -5    4.44    0.66 
  -8  -9  -5    4.81    0.72 
  -8  -9  -5    3.21    0.20 
  -9  -9  -5    1.52    0.16 
  -9  -9  -5    1.62    0.51 
 -10  -9  -5    0.09    0.05 
 -10  -9  -5   -0.06    0.32 
 -11  -9  -5    4.24    0.82 
 -12  -9  -5    0.64    0.51 
 -13  -9  -5    0.10    0.52 
 -14  -9  -5    0.17    0.55 
 -15  -9  -5    0.11    0.57 
 -16  -9  -5    0.36    0.61 
 -17  -9  -5    0.48    0.57 
  -8  10   5    1.19    0.22 
  -7  10   5    0.00    0.12 
   6 -10  -5    0.10    0.09 
   5 -10  -5   -0.13    0.09 
   4 -10  -5    0.69    0.17 
   3 -10  -5    0.25    0.12 
   2 -10  -5   13.42    0.63 
   1 -10  -5    3.73    0.38 
   0 -10  -5    0.16    0.12 
   0 -10  -5    0.15    0.35 
  -1 -10  -5    4.34    0.38 
  -1 -10  -5    5.20    0.73 
  -2 -10  -5   -0.04    0.09 
  -2 -10  -5    0.06    0.13 
  -3 -10  -5    8.10    0.67 
  -3 -10  -5    7.71    0.42 
  -4 -10  -5   -0.10    0.13 
  -4 -10  -5    0.05    0.10 
  -5 -10  -5   12.05    0.86 
  -5 -10  -5   11.92    0.52 
  -6 -10  -5    0.26    0.11 
  -6 -10  -5    0.02    0.22 
  -7 -10  -5    5.29    0.30 
  -7 -10  -5    6.23    0.77 
  -8 -10  -5    6.62    0.85 
  -8 -10  -5    6.20    0.32 
  -9 -10  -5   -0.22    0.24 
  -9 -10  -5    0.22    0.07 
 -10 -10  -5    2.61    0.23 
 -10 -10  -5    2.61    0.63 
 -11 -10  -5    3.14    0.77 
 -12 -10  -5    1.32    0.61 
 -13 -10  -5    1.10    0.59 
 -14 -10  -5   -0.08    0.60 
 -15 -10  -5    0.24    0.51 
 -16 -10  -5    0.06    0.58 
  -7  11   5    0.04    0.13 
   6 -11  -5    0.26    0.12 
   5 -11  -5    0.50    0.11 
   4 -11  -5    0.13    0.09 
   3 -11  -5    0.19    0.11 
   2 -11  -5    0.11    0.09 
   1 -11  -5    0.78    0.18 
   0 -11  -5    0.38    0.14 
  -1 -11  -5    4.13    0.40 
  -1 -11  -5    5.28    0.84 
  -2 -11  -5    0.51    0.34 
  -2 -11  -5    0.15    0.12 
  -3 -11  -5    1.79    0.25 
  -3 -11  -5    1.83    0.50 
  -4 -11  -5    0.32    0.29 
  -4 -11  -5    0.21    0.14 
  -5 -11  -5    3.00    0.32 
  -5 -11  -5    3.38    0.64 
  -6 -11  -5    0.31    0.30 
  -6 -11  -5    0.01    0.10 
  -7 -11  -5    1.14    0.43 
  -7 -11  -5    1.34    0.20 
  -8 -11  -5    0.36    0.12 
  -8 -11  -5    0.52    0.39 
  -9 -11  -5    0.64    0.40 
  -9 -11  -5    0.43    0.13 
 -10 -11  -5    0.39    0.40 
 -10 -11  -5    0.58    0.12 
 -11 -11  -5    1.14    0.56 
 -12 -11  -5    0.33    0.54 
 -13 -11  -5    0.14    0.45 
 -14 -11  -5    0.10    0.47 
 -15 -11  -5    0.96    0.57 
 -16 -11  -5    0.52    0.50 
   6 -12  -5    0.32    0.11 
   5 -12  -5    0.71    0.14 
   4 -12  -5    0.32    0.12 
   3 -12  -5    0.26    0.12 
   2 -12  -5    3.95    0.41 
   1 -12  -5    0.17    0.11 
   0 -12  -5    0.06    0.11 
  -1 -12  -5    0.10    0.37 
  -1 -12  -5    0.11    0.14 
  -2 -12  -5    0.45    0.38 
  -2 -12  -5    0.15    0.13 
  -3 -12  -5    0.42    0.17 
  -3 -12  -5   -0.06    0.27 
  -4 -12  -5    3.40    0.36 
  -4 -12  -5    3.24    0.65 
  -5 -12  -5    4.38    0.40 
  -5 -12  -5    4.01    0.70 
  -6 -12  -5    0.35    0.35 
  -6 -12  -5    0.69    0.19 
  -7 -12  -5    1.39    0.23 
  -7 -12  -5    1.82    0.52 
  -8 -12  -5    4.47    0.75 
  -8 -12  -5    3.71    0.34 
  -9 -12  -5    0.25    0.09 
  -9 -12  -5    0.14    0.33 
 -10 -12  -5    1.26    0.54 
 -10 -12  -5    1.07    0.17 
 -11 -12  -5    2.29    0.69 
 -12 -12  -5    0.22    0.51 
 -13 -12  -5    0.77    0.60 
 -14 -12  -5    0.36    0.49 
 -15 -12  -5   -1.07    0.49 
 -16 -12  -5    0.79    0.50 
   5 -13  -5    0.21    0.12 
   4 -13  -5    0.01    0.10 
   3 -13  -5    0.20    0.12 
   2 -13  -5    0.16    0.09 
   1 -13  -5    0.56    0.14 
   0 -13  -5    0.72    0.19 
  -1 -13  -5    0.73    0.21 
  -2 -13  -5    4.33    0.44 
  -2 -13  -5    4.31    0.81 
  -3 -13  -5    1.33    0.26 
  -3 -13  -5    1.79    0.51 
  -4 -13  -5    0.34    0.36 
  -4 -13  -5    0.40    0.15 
  -5 -13  -5    0.36    0.15 
  -5 -13  -5    0.00    0.32 
  -6 -13  -5    1.05    0.24 
  -6 -13  -5    2.08    0.61 
  -7 -13  -5    2.46    0.29 
  -7 -13  -5    2.47    0.61 
  -8 -13  -5    0.04    0.31 
  -8 -13  -5    0.17    0.11 
  -9 -13  -5    0.36    0.13 
  -9 -13  -5    0.29    0.37 
 -10 -13  -5   -0.06    0.10 
 -10 -13  -5    0.20    0.42 
 -11 -13  -5    2.43    0.66 
 -12 -13  -5    0.13    0.45 
 -13 -13  -5    0.54    0.53 
 -14 -13  -5    0.49    0.57 
 -15 -13  -5    0.77    0.58 
   3 -14  -5    0.42    0.15 
   2 -14  -5    0.19    0.11 
   1 -14  -5    0.00    0.10 
   0 -14  -5    0.63    0.18 
  -1 -14  -5    0.12    0.14 
  -2 -14  -5    0.53    0.17 
  -3 -14  -5    0.09    0.11 
  -4 -14  -5    0.82    0.20 
  -5 -14  -5    0.72    0.43 
  -5 -14  -5    1.01    0.22 
  -6 -14  -5    0.27    0.35 
  -6 -14  -5    0.25    0.13 
  -7 -14  -5    0.26    0.13 
  -7 -14  -5    0.56    0.41 
  -8 -14  -5    0.10    0.11 
  -8 -14  -5   -0.03    0.38 
  -9 -14  -5    0.01    0.39 
  -9 -14  -5    0.36    0.14 
 -10 -14  -5    0.34    0.13 
 -10 -14  -5    0.90    0.53 
 -11 -14  -5    0.35    0.48 
 -12 -14  -5    0.51    0.46 
 -13 -14  -5    0.05    0.49 
 -14 -14  -5    0.51    0.55 
 -15 -14  -5    0.72    0.49 
   2 -15  -5    0.55    0.15 
   1 -15  -5    0.01    0.13 
   0 -15  -5    0.08    0.10 
  -1 -15  -5    0.50    0.18 
  -2 -15  -5    0.45    0.18 
  -3 -15  -5    0.56    0.22 
  -4 -15  -5    0.55    0.20 
  -5 -15  -5    0.48    0.15 
  -6 -15  -5    0.35    0.18 
  -7 -15  -5    0.68    0.17 
  -8 -15  -5   -0.07    0.13 
  -9 -15  -5    0.16    0.36 
  -9 -15  -5   -0.17    0.10 
 -10 -15  -5    0.24    0.45 
 -10 -15  -5    0.03    0.12 
 -11 -15  -5    0.33    0.49 
 -12 -15  -5    0.00    0.42 
 -13 -15  -5    0.40    0.48 
 -14 -15  -5    1.10    0.57 
   0 -16  -5   -0.01    0.12 
  -1 -16  -5    0.69    0.19 
  -2 -16  -5    0.61    0.21 
  -3 -16  -5    0.11    0.14 
  -4 -16  -5    0.55    0.20 
  -5 -16  -5    1.47    0.26 
  -6 -16  -5    0.16    0.14 
  -7 -16  -5    0.83    0.20 
  -8 -16  -5    0.33    0.15 
  -9 -16  -5    0.28    0.13 
 -10 -16  -5    0.21    0.12 
 -13 -16  -5   32.67    1.19 
  -2 -17  -5    0.15    0.13 
  -3 -17  -5    0.14    0.16 
  -4 -17  -5    0.20    0.19 
  -5 -17  -5    0.11    0.13 
  -6 -17  -5    0.35    0.19 
  -7 -17  -5    0.16    0.14 
  -8 -17  -5    0.28    0.16 
  -9 -17  -5    0.27    0.16 
 -10 -17  -5   -0.18    0.12 
 -10 -16   6    0.48    0.13 
  -9 -16   6    0.67    0.16 
  -8 -16   6    0.28    0.14 
  -7 -16   6    0.27    0.11 
  -6 -16   6    0.26    0.14 
  -5 -16   6    0.06    0.12 
  -4 -16   6   -0.12    0.10 
  -3 -16   6    0.05    0.10 
  -2 -16   6    0.06    0.10 
  -1 -16   6    0.00    0.10 
 -11 -15   6    0.36    0.12 
 -10 -15   6    0.10    0.12 
  -9 -15   6    0.48    0.13 
  -8 -15   6    0.06    0.10 
  -7 -15   6    0.42    0.14 
  -6 -15   6   -0.08    0.11 
  -5 -15   6    0.18    0.11 
  -4 -15   6    0.16    0.09 
  -3 -15   6    0.19    0.10 
   2  15  -6   -0.21    0.29 
  -2 -15   6    0.28    0.11 
  -1 -15   6   -0.07    0.08 
   0 -15   6    0.15    0.11 
   1 -15   6    0.12    0.09 
 -13 -14   6    1.94    0.31 
 -12 -14   6    0.29    0.12 
 -11 -14   6    0.84    0.19 
 -10 -14   6    0.37    0.13 
  -9 -14   6    0.28    0.11 
  -8 -14   6    0.37    0.12 
  -7 -14   6    0.44    0.16 
  -6 -14   6    0.43    0.14 
  -5 -14   6    0.12    0.11 
  -4 -14   6    1.38    0.24 
  -3 -14   6    2.14    0.30 
   2  14  -6    0.18    0.29 
  -2 -14   6    0.06    0.10 
   1  14  -6    1.72    0.47 
  -1 -14   6    1.96    0.30 
   0  14  -6    0.02    0.29 
   0 -14   6   -0.01    0.08 
  -1  14  -6   -0.01    0.30 
   1 -14   6    0.44    0.13 
  -2  14  -6    0.20    0.31 
   2 -14   6    0.16    0.12 
   3 -14   6    0.17    0.10 
 -13 -13   6    0.16    0.13 
 -12 -13   6    0.81    0.18 
 -11 -13   6    0.46    0.14 
 -10 -13   6    0.14    0.10 
  -9 -13   6    1.62    0.24 
  -8 -13   6    1.08    0.20 
  -7 -13   6    0.74    0.19 
  -6 -13   6    1.47    0.25 
  -5 -13   6    0.25    0.13 
  -4 -13   6    0.22    0.09 
  -3 -13   6   -0.02    0.12 
   2  13  -6    0.19    0.26 
  -2 -13   6    0.12    0.09 
   1  13  -6    0.03    0.24 
  -1 -13   6    0.10    0.08 
   0  13  -6   -0.05    0.25 
   0 -13   6    0.66    0.15 
  -1  13  -6   -0.05    0.25 
   1 -13   6    0.45    0.12 
  -2  13  -6    0.16    0.30 
   2 -13   6    0.29    0.14 
  -3  13  -6    0.50    0.34 
   3 -13   6    0.27    0.12 
  -4  13  -6    0.71    0.43 
   4 -13   6    0.43    0.14 
  -5  13  -6    0.21    0.40 
   5 -13   6   -0.13    0.09 
 -14 -12   6    0.36    0.15 
 -13 -12   6    0.47    0.14 
 -12 -12   6    0.76    0.18 
 -11 -12   6    0.32    0.14 
 -10 -12   6    0.64    0.17 
  -8 -12   6    0.43    0.14 
  -7 -12   6    1.04    0.22 
  -6 -12   6    0.14    0.09 
  -5 -12   6    1.24    0.21 
  -4 -12   6    0.29    0.12 
   3  12  -6    0.00    0.24 
  -3 -12   6    0.26    0.11 
   2  12  -6    0.44    0.29 
  -2 -12   6    0.28    0.11 
   1  12  -6    0.12    0.22 
  -1 -12   6    0.21    0.10 
   0  12  -6    0.12    0.23 
   0 -12   6    0.15    0.09 
  -1  12  -6    1.61    0.41 
   1 -12   6    1.10    0.20 
  -2  12  -6    0.45    0.29 
   2 -12   6   -0.01    0.09 
  -3  12  -6    0.10    0.26 
   3 -12   6   -0.10    0.09 
  -4  12  -6   -0.15    0.27 
   4 -12   6    0.08    0.09 
  -5  12  -6   -0.09    0.32 
   5 -12   6    0.18    0.10 
  -6  12  -6    0.05    0.38 
 -13 -11   6    0.60    0.23 
 -12 -11   6   -0.12    0.14 
 -11 -11   6    0.22    0.16 
 -10 -11   6    0.24    0.15 
  -9 -11   6    1.48    0.24 
  -8 -11   6    0.19    0.12 
  -7 -11   6    0.38    0.15 
  -6 -11   6    0.35    0.12 
  -5 -11   6    6.20    0.39 
  -4 -11   6    2.15    0.27 
   3  11  -6    0.80    0.30 
  -3 -11   6    0.43    0.12 
   2  11  -6    0.70    0.29 
  -2 -11   6    0.66    0.16 
   1  11  -6    0.15    0.21 
  -1 -11   6    0.07    0.09 
   0  11  -6    0.50    0.27 
   0 -11   6    0.58    0.13 
  -1  11  -6   -0.03    0.22 
   1 -11   6    0.08    0.09 
  -2  11  -6    0.47    0.29 
   2 -11   6    0.71    0.15 
  -3  11  -6    2.17    0.46 
   3 -11   6    2.21    0.28 
  -4  11  -6    0.52    0.33 
   4 -11   6    0.35    0.13 
  -5  11  -6    0.56    0.35 
   5 -11   6    0.11    0.09 
  -6  11  -6   -0.27    0.30 
  -7  11  -6    0.06    0.36 
 -15 -10   6   -0.35    0.41 
 -14 -10   6   -0.10    0.52 
 -13 -10   6   -0.03    0.21 
 -13 -10   6   -0.43    0.52 
 -12 -10   6   -0.24    0.18 
 -12 -10   6    0.04    0.54 
 -11 -10   6   -0.27    0.52 
 -11 -10   6   -0.15    0.19 
 -10 -10   6    0.03    0.18 
 -10 -10   6   -0.01    0.47 
  -9 -10   6    0.10    0.15 
  -8 -10   6    0.87    0.20 
  -7 -10   6    0.05    0.12 
  -6 -10   6    1.74    0.25 
  -5 -10   6    4.45    0.31 
  -4 -10   6    0.45    0.15 
   3  10  -6    8.00    0.65 
  -3 -10   6    9.03    0.46 
   2  10  -6    0.91    0.28 
  -2 -10   6    0.41    0.12 
   1  10  -6    0.45    0.24 
  -1 -10   6    0.70    0.15 
   0  10  -6    3.69    0.49 
   0 -10   6    4.07    0.30 
  -1  10  -6    0.05    0.18 
   1 -10   6    0.13    0.08 
  -2  10  -6    0.00    0.22 
   2 -10   6    0.10    0.09 
  -3  10  -6    2.07    0.46 
   3 -10   6    2.62    0.31 
  -4  10  -6    2.26    0.50 
   4 -10   6    3.24    0.33 
  -5  10  -6   -0.07    0.25 
   5 -10   6   -0.07    0.08 
  -6  10  -6    0.08    0.31 
   6 -10   6    0.29    0.07 
  -7  10  -6   -0.18    0.28 
  -8  10  -6   -0.12    0.36 
 -15  -9   6   -0.11    0.48 
 -14  -9   6    0.20    0.55 
 -13  -9   6    0.51    0.12 
 -13  -9   6    0.68    0.64 
 -12  -9   6    0.18    0.53 
 -12  -9   6    0.57    0.13 
 -11  -9   6    0.19    0.11 
 -11  -9   6   -0.16    0.51 
 -10  -9   6   -0.45    0.38 
 -10  -9   6   -0.44    0.19 
  -9  -9   6   -0.66    0.18 
  -9  -9   6   -0.01    0.34 
  -8  -9   6    5.13    0.23 
  -7  -9   6   13.99    0.71 
  -5  -9   6   -0.08    0.10 
  -4  -9   6    3.96    0.34 
   3   9  -6    5.41    0.57 
  -3  -9   6    5.30    0.33 
   2   9  -6    0.78    0.26 
  -2  -9   6    0.86    0.17 
   1   9  -6    0.18    0.19 
  -1  -9   6    0.35    0.12 
   0   9  -6    1.70    0.35 
   0  -9   6    1.69    0.23 
  -1   9  -6   -0.22    0.15 
   1  -9   6    0.10    0.07 
  -2   9  -6    4.14    0.55 
   2  -9   6    3.30    0.32 
  -3   9  -6    3.26    0.52 
   3  -9   6    3.75    0.34 
  -4   9  -6    0.36    0.28 
   4  -9   6    0.96    0.17 
  -5   9  -6   -0.18    0.21 
   5  -9   6    0.22    0.08 
  -6   9  -6    1.04    0.39 
   6  -9   6    0.54    0.12 
  -7   9  -6    0.33    0.35 
  -8   9  -6    0.14    0.35 
  -9   9  -6   -0.06    0.34 
 -15  -8   6    0.11    0.52 
 -14  -8   6   -0.02    0.51 
 -13  -8   6    0.30    0.11 
 -13  -8   6   -0.43    0.48 
 -12  -8   6    0.19    0.52 
 -12  -8   6    0.95    0.18 
 -11  -8   6   -0.03    0.46 
 -11  -8   6    0.08    0.14 
 -10  -8   6    1.16    0.22 
 -10  -8   6    0.92    0.49 
  -9  -8   6    1.75    0.53 
  -9  -8   6    1.52    0.25 
  -8  -8   6    4.49    0.64 
  -8  -8   6    3.43    0.33 
  -7  -8   6    7.64    0.40 
  -7  -8   6    4.80    0.58 
  -6  -8   6    1.06    0.28 
  -6  -8   6    0.18    0.17 
  -5  -8   6    1.99    0.30 
  -5  -8   6    1.05    0.22 
   3   8  -6   12.60    0.78 
  -3  -8   6   13.26    0.55 
   2   8  -6   14.45    0.81 
  -2  -8   6   13.68    0.56 
   1   8  -6    3.40    0.43 
  -1  -8   6    3.69    0.26 
   0   8  -6    6.34    0.53 
   0  -8   6    6.46    0.35 
  -1   8  -6    0.64    0.24 
   1  -8   6    0.61    0.13 
  -2   8  -6   -0.04    0.15 
   2  -8   6    0.15    0.07 
  -3   8  -6    1.44    0.36 
   3  -8   6    1.76    0.23 
  -4   8  -6    2.15    0.46 
   4  -8   6    1.89    0.24 
  -5   8  -6    1.13    0.39 
   5  -8   6    0.88    0.16 
  -6   8  -6    0.24    0.32 
   6  -8   6    0.45    0.10 
  -7   8  -6    0.21    0.29 
  -8   8  -6   -0.21    0.30 
  -9   8  -6    0.35    0.39 
 -10   8  -6    0.47    0.44 
 -15  -7   6    0.35    0.49 
 -14  -7   6    0.01    0.47 
 -13  -7   6    0.14    0.56 
 -13  -7   6    1.66    0.23 
 -12  -7   6    0.66    0.55 
 -12  -7   6    2.20    0.28 
 -11  -7   6   -0.42    0.42 
 -11  -7   6    0.21    0.15 
 -10  -7   6    0.88    0.20 
 -10  -7   6    0.88    0.49 
  -9  -7   6   -0.02    0.13 
  -9  -7   6   -0.15    0.35 
  -8  -7   6    2.65    0.29 
  -8  -7   6    2.14    0.53 
  -7  -7   6    0.49    0.17 
  -7  -7   6    1.20    0.34 
  -6  -7   6    4.53    0.44 
  -6  -7   6    4.68    0.32 
  -5  -7   6    7.63    0.54 
  -5  -7   6    7.59    0.39 
  -4  -7   6    0.00    0.14 
  -4  -7   6    0.89    0.19 
   3   7  -6    6.97    0.52 
  -3  -7   6    6.39    0.35 
   2   7  -6    1.15    0.25 
  -2  -7   6    1.15    0.17 
   1   7  -6    1.79    0.30 
  -1  -7   6    1.69    0.20 
   0   7  -6   14.21    0.77 
   0  -7   6   14.34    0.55 
  -1   7  -6    0.00    0.12 
   1  -7   6   -0.03    0.03 
  -2   7  -6    0.14    0.20 
   2  -7   6    0.02    0.05 
  -3   7  -6   16.96    0.97 
   3  -7   6   17.25    0.64 
  -4   7  -6    0.13    0.24 
   4  -7   6    0.24    0.10 
  -5   7  -6    0.14    0.24 
   5  -7   6    0.30    0.10 
  -6   7  -6    0.07    0.26 
   6  -7   6    0.40    0.10 
  -7   7  -6    1.11    0.40 
  -8   7  -6    0.34    0.33 
  -9   7  -6    0.45    0.38 
 -10   7  -6   -0.19    0.28 
 -11   7  -6    0.20    0.45 
 -15  -6   6   -0.25    0.39 
 -14  -6   6   -0.19    0.52 
 -13  -6   6   -0.51    0.50 
 -13  -6   6    0.41    0.13 
 -12  -6   6    0.31    0.55 
 -12  -6   6    0.20    0.15 
 -11  -6   6    0.76    0.20 
 -11  -6   6    0.87    0.52 
 -10  -6   6    0.03    0.14 
 -10  -6   6    0.20    0.44 
  -9  -6   6    0.08    0.37 
  -9  -6   6    0.35    0.18 
  -8  -6   6   -0.03    0.15 
  -8  -6   6   -0.16    0.31 
  -7  -6   6    0.38    0.16 
  -7  -6   6    0.88    0.31 
  -6  -6   6    0.68    0.28 
  -6  -6   6    0.68    0.17 
  -5  -6   6    2.15    0.24 
  -5  -6   6    3.41    0.44 
  -4  -6   6    5.21    0.41 
  -4  -6   6    5.32    0.30 
  -3  -6   6   27.24    1.11 
  -3  -6   6   27.19    0.86 
   2   6  -6   15.77    0.83 
  -2  -6   6   18.10    0.66 
   1   6  -6    0.70    0.19 
  -1  -6   6    0.74    0.14 
   0   6  -6    0.96    0.21 
   0  -6   6    0.77    0.13 
  -1   6  -6    2.81    0.38 
   1  -6   6    2.57    0.22 
  -2   6  -6    4.11    0.47 
   2  -6   6    4.87    0.26 
  -3   6  -6    0.72    0.25 
   3  -6   6    1.25    0.15 
  -4   6  -6    1.11    0.32 
   4  -6   6    0.73    0.11 
  -5   6  -6    0.06    0.22 
   5  -6   6    0.61    0.09 
  -6   6  -6    4.47    0.66 
  -7   6  -6    0.25    0.30 
  -8   6  -6    0.43    0.33 
  -9   6  -6    0.11    0.29 
 -10   6  -6   -0.07    0.32 
 -11   6  -6    0.42    0.42 
 -12   6  -6    0.33    0.43 
 -15  -5   6   -0.35    0.39 
 -14  -5   6   -0.37    0.41 
 -13  -5   6    0.63    0.14 
 -13  -5   6    0.07    0.54 
 -12  -5   6    0.76    0.56 
 -12  -5   6    1.90    0.27 
 -11  -5   6   -0.20    0.41 
 -11  -5   6    0.35    0.18 
 -10  -5   6   -0.13    0.14 
 -10  -5   6    0.42    0.46 
  -9  -5   6    2.92    0.67 
  -9  -5   6    3.32    0.32 
  -8  -5   6    0.22    0.31 
  -8  -5   6    0.01    0.16 
  -7  -5   6    0.10    0.23 
  -7  -5   6   -0.05    0.12 
  -6  -5   6    0.71    0.27 
  -6  -5   6    0.66    0.15 
  -5  -5   6   34.53    1.56 
  -5  -5   6   36.13    1.07 
  -4  -5   6    4.27    0.26 
  -3  -5   6   11.64    0.46 
   2   5  -6   14.23    0.72 
  -2  -5   6   12.95    0.49 
   1   5  -6    2.28    0.32 
  -1  -5   6    1.33    0.18 
   0   5  -6   17.01    0.82 
   0  -5   6   17.31    0.59 
  -1   5  -6    0.04    0.12 
   1  -5   6    0.15    0.06 
  -2   5  -6    8.08    0.56 
   2  -5   6    7.67    0.34 
  -3   5  -6    7.61    0.58 
  -3   5  -6    7.99    0.43 
   3  -5   6    8.38    0.35 
  -4   5  -6    8.84    0.67 
  -4   5  -6   10.07    0.56 
   4  -5   6    9.44    0.39 
  -5   5  -6    2.42    0.46 
  -5   5  -6    2.03    0.31 
  -6   5  -6    0.62    0.29 
  -6   5  -6    0.44    0.20 
   6  -5   6    0.49    0.06 
  -7   5  -6    6.46    0.77 
  -7   5  -6    6.77    0.60 
   7  -5   6    5.83    0.27 
  -8   5  -6    1.40    0.42 
  -9   5  -6    0.66    0.36 
 -10   5  -6    1.48    0.52 
 -11   5  -6   -0.28    0.27 
 -12   5  -6    0.25    0.38 
 -13   5  -6    0.37    0.45 
 -15  -4   6   -0.22    0.60 
 -14  -4   6   -0.12    0.58 
 -13  -4   6   -0.42    0.45 
 -13  -4   6    0.24    0.10 
 -12  -4   6    0.41    0.54 
 -12  -4   6    0.77    0.20 
 -11  -4   6    0.63    0.19 
 -11  -4   6    0.26    0.48 
 -10  -4   6    0.57    0.47 
 -10  -4   6    0.95    0.21 
  -9  -4   6   12.48    0.54 
  -8  -4   6    0.49    0.36 
  -8  -4   6    0.85    0.20 
  -7  -4   6    0.57    0.16 
  -6  -4   6    7.57    0.37 
  -5  -4   6    5.72    0.31 
  -4  -4   6    2.33    0.22 
  -3  -4   6    0.39    0.12 
   2   4  -6   76.25    2.55 
  -2  -4   6   75.90    1.99 
   1   4  -6   44.34    1.58 
  -1  -4   6   41.62    1.18 
   0   4  -6    0.95    0.21 
   0  -4   6    1.06    0.13 
  -1   4  -6    1.15    0.23 
  -1   4  -6    1.39    0.13 
   1  -4   6    1.69    0.17 
  -2   4  -6   10.11    0.46 
  -2   4  -6    8.79    0.57 
   2  -4   6    9.89    0.37 
  -3   4  -6   36.70    1.52 
  -3   4  -6   37.12    1.42 
   3  -4   6   37.57    1.05 
  -4   4  -6    1.10    0.23 
  -4   4  -6    1.05    0.28 
  -5   4  -6    5.94    0.63 
  -5   4  -6    6.73    0.49 
   5  -4   6    6.44    0.28 
  -6   4  -6    0.60    0.24 
  -6   4  -6    0.20    0.22 
   6  -4   6    0.26    0.04 
  -7   4  -6    1.24    0.35 
  -7   4  -6    1.14    0.36 
   7  -4   6    1.49    0.10 
  -8   4  -6    9.69    0.82 
  -8   4  -6    9.11    0.76 
  -9   4  -6    1.73    0.49 
  -9   4  -6    1.17    0.44 
 -10   4  -6    2.14    0.54 
 -10   4  -6    2.00    0.59 
 -11   4  -6   -0.03    0.28 
 -12   4  -6    0.36    0.39 
 -13   4  -6    0.22    0.37 
 -15  -3   6    0.70    0.49 
 -14  -3   6    0.28    0.62 
 -13  -3   6   -0.48    0.51 
 -12  -3   6    0.32    0.16 
 -12  -3   6   -0.04    0.49 
 -11  -3   6    0.70    0.19 
 -11  -3   6    0.32    0.49 
 -10  -3   6   -0.04    0.38 
 -10  -3   6   -0.12    0.14 
  -9  -3   6    0.25    0.34 
  -9  -3   6    0.43    0.18 
  -8  -3   6    0.33    0.16 
  -7  -3   6    3.02    0.26 
  -6  -3   6   -0.02    0.09 
  -5  -3   6    1.20    0.17 
  -4  -3   6    0.12    0.10 
  -3  -3   6    6.06    0.30 
   2   3  -6   42.08    1.53 
  -2  -3   6   41.92    1.16 
   1   3  -6    0.30    0.12 
  -1  -3   6    0.15    0.08 
   0   3  -6   22.83    0.96 
   0   3  -6   24.14    0.98 
   0  -3   6   24.66    0.71 
  -1   3  -6    0.70    0.18 
  -1   3  -6    0.69    0.13 
   1  -3   6    0.49    0.09 
  -2   3  -6    0.17    0.09 
  -2   3  -6    0.08    0.12 
   2  -3   6   -0.01    0.07 
  -3   3  -6    0.63    0.21 
  -3   3  -6    0.62    0.14 
  -4   3  -6    0.58    0.22 
  -4   3  -6    0.66    0.19 
   4  -3   6    0.61    0.09 
  -5   3  -6    5.37    0.47 
  -5   3  -6    6.45    0.55 
   5  -3   6    5.87    0.24 
  -6   3  -6    0.92    0.27 
  -6   3  -6    0.61    0.26 
   6  -3   6    0.82    0.08 
  -7   3  -6    0.99    0.33 
  -7   3  -6    0.85    0.30 
   7  -3   6    1.10    0.08 
  -8   3  -6    3.43    0.55 
  -8   3  -6    3.34    0.55 
  -9   3  -6    4.79    0.70 
  -9   3  -6    4.38    0.68 
 -10   3  -6    1.16    0.41 
 -10   3  -6    0.60    0.39 
 -11   3  -6    1.46    0.61 
 -11   3  -6    0.23    0.29 
 -12   3  -6    0.69    0.37 
 -12   3  -6    0.31    0.46 
 -13   3  -6    0.24    0.41 
 -14   3  -6    0.09    0.38 
 -14  -2   6    0.04    0.53 
 -13  -2   6    0.09    0.56 
 -12  -2   6    1.06    0.20 
 -12  -2   6    0.03    0.50 
 -11  -2   6    0.56    0.48 
 -11  -2   6    1.68    0.24 
 -10  -2   6    0.28    0.38 
 -10  -2   6    0.55    0.17 
  -9  -2   6   13.18    0.53 
  -8  -2   6    2.25    0.24 
  -7  -2   6    0.00    0.09 
  -6  -2   6   11.37    0.44 
  -5  -2   6    0.27    0.10 
  -4  -2   6   18.94    0.61 
  -3  -2   6    3.72    0.22 
  -2  -2   6   32.20    0.91 
   1   2  -6    7.22    0.42 
  -1  -2   6    7.43    0.30 
   0   2  -6    6.67    0.40 
   0   2  -6    6.76    0.42 
   0  -2   6    6.94    0.28 
  -1   2  -6    0.39    0.13 
  -1   2  -6    0.40    0.12 
   1  -2   6    0.44    0.09 
  -2   2  -6    5.52    0.36 
  -2   2  -6    5.40    0.39 
   2  -2   6    5.34    0.22 
  -3   2  -6  195.45    6.63 
  -3   2  -6  193.41    6.05 
   3  -2   6  196.70    4.75 
  -4   2  -6    2.83    0.38 
  -4   2  -6    2.48    0.31 
   4  -2   6    2.15    0.12 
  -5   2  -6    3.92    0.40 
  -5   2  -6    4.85    0.53 
   5  -2   6    4.39    0.18 
  -6   2  -6   11.86    0.80 
  -6   2  -6   13.02    0.79 
   6  -2   6   13.32    0.41 
  -7   2  -6    0.67    0.27 
  -7   2  -6    0.78    0.30 
   7  -2   6    0.85    0.08 
  -8   2  -6   25.52    1.40 
  -9   2  -6    0.91    0.41 
 -10   2  -6    2.71    0.62 
 -11   2  -6    0.29    0.38 
 -12   2  -6    1.07    0.56 
 -13   2  -6   -0.25    0.41 
 -14   2  -6   -0.26    0.46 
 -14  -1   6    0.41    0.71 
 -13  -1   6   -0.36    0.57 
 -12  -1   6    0.83    0.61 
 -12  -1   6    1.02    0.20 
 -11  -1   6    0.19    0.15 
 -11  -1   6   -0.40    0.37 
 -10  -1   6    1.10    0.20 
  -9  -1   6    2.14    0.24 
  -8  -1   6    0.59    0.16 
  -7  -1   6    0.19    0.11 
  -6  -1   6    3.88    0.23 
  -5  -1   6   -0.08    0.06 
  -4  -1   6    5.00    0.25 
  -3  -1   6    1.80    0.16 
  -2  -1   6    3.50    0.19 
   1   1  -6    0.33    0.11 
  -1  -1   6    0.44    0.09 
   0   1  -6   19.66    0.90 
   0   1  -6   19.42    0.78 
   0  -1   6   19.08    0.57 
  -1   1  -6    3.50    0.29 
  -1   1  -6    3.17    0.26 
   1  -1   6    3.33    0.17 
  -2   1  -6   -0.04    0.08 
  -2   1  -6    0.08    0.09 
   2  -1   6    0.03    0.01 
  -3   1  -6   75.06    2.72 
  -3   1  -6   73.01    2.51 
   3  -1   6   75.24    1.86 
  -4   1  -6    2.31    0.34 
  -4   1  -6    1.75    0.28 
   4  -1   6    1.72    0.10 
  -5   1  -6    5.12    0.46 
  -5   1  -6    5.15    0.52 
   5  -1   6    5.25    0.19 
  -6   1  -6    3.16    0.44 
   6  -1   6    2.81    0.12 
   7  -1   6    1.92    0.08 
  -8   1  -6    0.74    0.31 
  -9   1  -6    4.24    0.67 
 -10   1  -6    1.50    0.49 
 -11   1  -6    0.56    0.43 
 -12   1  -6    0.08    0.41 
 -13   1  -6    0.32    0.45 
 -14   1  -6   -0.25    0.43 
 -15   1  -6    0.30    0.58 
 -14   0   6   -0.33    0.78 
 -13   0   6    0.32    0.60 
 -12   0   6    1.24    0.20 
 -12   0   6    0.08    0.56 
 -11   0   6   -0.10    0.48 
 -11   0   6    0.56    0.18 
 -10   0   6    0.02    0.13 
  -9   0   6    6.87    0.36 
  -8   0   6    5.02    0.30 
  -7   0   6    7.47    0.34 
  -6   0   6    4.99    0.26 
  -5   0   6    6.62    0.29 
  -4   0   6    0.97    0.13 
  -3   0   6    7.45    0.30 
  -2   0   6    2.51    0.15 
   1   0  -6   24.22    1.16 
  -1   0   6   24.49    0.69 
   0   0  -6   23.65    0.88 
   0   0  -6   23.35    1.09 
   0   0   6   24.23    0.67 
  -1   0  -6   20.42    0.80 
  -1   0  -6   20.47    0.95 
   1   0   6   21.19    0.59 
  -2   0  -6    2.43    0.26 
  -2   0  -6    2.25    0.28 
  -3   0  -6  121.97    3.77 
  -3   0  -6  117.58    4.18 
   3   0   6  116.90    2.89 
  -4   0  -6   15.32    0.78 
  -4   0  -6   15.23    0.81 
   4   0   6   16.26    0.44 
  -5   0  -6   13.05    0.77 
  -5   0  -6   12.60    0.73 
   5   0   6   12.97    0.36 
  -6   0  -6   31.60    1.46 
  -7   0  -6    0.17    0.22 
  -8   0  -6    3.48    0.54 
  -9   0  -6    2.18    0.51 
 -10   0  -6    0.48    0.37 
 -11   0  -6   -0.12    0.34 
 -12   0  -6   -0.76    0.29 
 -13   0  -6    0.33    0.49 
 -14   0  -6   -0.08    0.45 
 -15   0  -6    0.31    0.58 
 -13   1   6    0.30    0.62 
 -12   1   6    0.30    0.57 
 -12   1   6    1.14    0.19 
 -11   1   6    0.71    0.18 
 -10   1   6    0.00    0.12 
  -9   1   6    4.54    0.29 
  -8   1   6    3.32    0.27 
  -7   1   6    0.15    0.11 
  -6   1   6    0.09    0.07 
  -5   1   6    4.35    0.23 
  -4   1   6    1.45    0.15 
  -3   1   6   53.36    1.42 
  -2   1   6    1.95    0.13 
   1  -1  -6   21.56    1.09 
  -1   1   6   21.23    0.62 
   0  -1  -6    3.05    0.38 
   0   1   6    2.12    0.13 
  -1  -1  -6   17.31    0.83 
  -1  -1  -6   12.81    0.58 
   1   1   6   16.12    0.44 
  -2  -1  -6    2.56    0.33 
  -2  -1  -6    2.68    0.22 
  -3  -1  -6   94.74    3.05 
  -3  -1  -6   97.16    3.48 
   3   1   6   96.90    2.35 
  -4  -1  -6    0.89    0.23 
  -4  -1  -6    1.36    0.23 
   4   1   6    1.01    0.07 
  -5  -1  -6   11.33    0.73 
   5   1   6   11.45    0.31 
  -6  -1  -6    0.14    0.19 
  -7  -1  -6    0.47    0.26 
  -8  -1  -6    0.57    0.30 
  -9  -1  -6   -0.18    0.23 
 -10  -1  -6    1.39    0.47 
 -11  -1  -6    0.72    0.44 
 -12  -1  -6    2.46    0.65 
 -13  -1  -6    0.28    0.44 
 -14  -1  -6    1.07    0.58 
 -15  -1  -6    0.19    0.57 
 -13   2   6    0.22    0.70 
 -12   2   6    0.18    0.52 
 -11   2   6   -0.04    0.11 
 -10   2   6    0.03    0.12 
  -9   2   6    1.65    0.21 
  -8   2   6    3.01    0.27 
  -7   2   6    0.70    0.15 
  -6   2   6    6.33    0.32 
  -5   2   6    5.44    0.28 
  -4   2   6    2.07    0.19 
  -3   2   6   12.91    0.45 
  -2   2   6    8.33    0.32 
   1  -2  -6   15.08    0.89 
  -1   2   6   14.02    0.46 
   0  -2  -6    1.46    0.31 
   0   2   6    1.39    0.10 
  -1  -2  -6  102.22    3.70 
  -1  -2  -6  103.21    3.07 
   1   2   6   98.90    2.50 
  -2  -2  -6    2.85    0.20 
  -2  -2  -6    2.16    0.33 
   2   2   6    2.65    0.12 
  -3  -2  -6    1.51    0.29 
  -3  -2  -6    1.30    0.18 
   3   2   6    1.41    0.08 
  -4  -2  -6    2.03    0.34 
   4   2   6    1.94    0.08 
  -5  -2  -6    0.29    0.20 
   5   2   6    0.34    0.03 
  -6  -2  -6   84.58    3.26 
  -7  -2  -6    5.53    0.56 
  -8  -2  -6    3.67    0.57 
  -9  -2  -6   10.93    0.93 
 -10  -2  -6    0.26    0.30 
 -11  -2  -6    1.75    0.55 
 -12  -2  -6    0.25    0.39 
 -13  -2  -6    0.11    0.40 
 -14  -2  -6    0.06    0.48 
 -15  -2  -6    0.01    0.54 
 -16  -2  -6   -0.30    0.54 
 -13   3   6   -0.12    0.58 
 -12   3   6   -0.19    0.41 
 -11   3   6    0.25    0.12 
 -10   3   6    0.57    0.16 
  -9   3   6    0.03    0.13 
  -8   3   6    2.86    0.28 
  -7   3   6    0.07    0.10 
  -6   3   6    0.26    0.11 
  -5   3   6    2.65    0.23 
  -4   3   6    0.71    0.12 
  -3   3   6   79.72    2.09 
  -2   3   6    0.61    0.11 
   1  -3  -6    3.04    0.47 
  -1   3   6    3.34    0.18 
   0  -3  -6    1.56    0.33 
   0   3   6    1.69    0.12 
  -1  -3  -6    1.65    0.33 
  -1  -3  -6    1.37    0.10 
   1   3   6    1.49    0.13 
  -2  -3  -6  146.33    5.30 
  -2  -3  -6  156.72    4.47 
   2   3   6  145.54    3.65 
  -3  -3  -6   73.55    2.83 
  -3  -3  -6   75.29    2.35 
  -4  -3  -6   22.34    1.12 
   4   3   6   22.68    0.60 
  -5  -3  -6   43.55    1.88 
   5   3   6   44.07    1.09 
  -6  -3  -6    5.16    0.58 
  -7  -3  -6    0.70    0.30 
  -8  -3  -6   17.56    1.10 
  -9  -3  -6    1.75    0.48 
 -10  -3  -6   -0.18    0.29 
 -11  -3  -6    0.45    0.41 
 -12  -3  -6    0.91    0.47 
 -13  -3  -6    0.12    0.43 
 -14  -3  -6    0.03    0.48 
 -15  -3  -6    0.58    0.56 
 -16  -3  -6   -0.14    0.56 
 -12   4   6   -0.22    0.50 
 -11   4   6    0.33    0.11 
 -10   4   6    0.75    0.16 
  -9   4   6    2.85    0.30 
  -8   4   6    0.85    0.18 
  -7   4   6    4.57    0.30 
  -6   4   6    1.04    0.18 
  -5   4   6    0.15    0.09 
  -4   4   6    0.69    0.13 
  -3   4   6    5.41    0.29 
  -2   4   6   15.96    0.56 
   1  -4  -6   14.97    0.95 
   1  -4  -6   15.05    0.55 
   0  -4  -6   66.89    2.72 
   0  -4  -6   68.02    1.80 
  -1  -4  -6   38.79    1.10 
  -1  -4  -6   39.38    1.73 
  -2  -4  -6    3.00    0.14 
  -2  -4  -6    3.16    0.44 
  -2  -4  -6    2.50    0.16 
  -3  -4  -6    1.21    0.29 
  -3  -4  -6    1.34    0.13 
  -3  -4  -6    1.53    0.13 
  -4  -4  -6   29.36    0.81 
  -4  -4  -6   29.75    1.40 
  -5  -4  -6    3.99    0.17 
  -5  -4  -6    4.33    0.52 
  -6  -4  -6   10.23    0.31 
  -6  -4  -6   10.01    0.73 
  -7  -4  -6    3.63    0.54 
  -8  -4  -6   40.34    1.92 
  -9  -4  -6    9.14    0.82 
 -10  -4  -6    0.16    0.31 
 -11  -4  -6    0.42    0.40 
 -12  -4  -6    0.46    0.43 
 -13  -4  -6    2.13    0.70 
 -14  -4  -6   -0.20    0.51 
 -15  -4  -6    0.35    0.62 
 -16  -4  -6   -0.34    0.63 
 -11   5   6    0.12    0.08 
 -10   5   6    0.31    0.13 
  -9   5   6    0.19    0.13 
  -8   5   6    0.57    0.18 
  -7   5   6    0.86    0.17 
  -6   5   6    0.26    0.12 
  -5   5   6   -0.06    0.08 
  -4   5   6    2.37    0.25 
   3  -5  -6    8.90    0.43 
  -3   5   6    9.21    0.42 
   2  -5  -6    0.99    0.15 
   1  -5  -6    6.93    0.63 
   1  -5  -6    5.96    0.32 
   0  -5  -6    0.25    0.08 
   0  -5  -6    0.24    0.17 
  -1  -5  -6    5.37    0.27 
  -1  -5  -6    5.15    0.58 
  -2  -5  -6   22.11    0.69 
  -2  -5  -6   21.70    1.15 
  -3  -5  -6  153.67    3.85 
  -3  -5  -6  151.75    5.55 
  -3  -5  -6  159.88    4.60 
  -4  -5  -6   95.61    3.60 
  -4  -5  -6   94.77    2.40 
  -5  -5  -6   23.97    1.23 
  -5  -5  -6   23.99    0.69 
  -6  -5  -6    8.09    0.28 
  -6  -5  -6    7.90    0.65 
  -7  -5  -6    0.05    0.20 
  -8  -5  -6    0.95    0.36 
  -8  -5  -6    1.28    0.07 
  -9  -5  -6    3.28    0.61 
 -10  -5  -6    5.83    0.81 
 -11  -5  -6    1.96    0.56 
 -12  -5  -6    6.16    0.96 
 -13  -5  -6    0.21    0.51 
 -14  -5  -6    1.27    0.67 
 -15  -5  -6    0.39    0.67 
 -16  -5  -6    0.33    0.68 
 -10   6   6    0.10    0.10 
  -9   6   6    0.07    0.09 
  -8   6   6    0.34    0.13 
  -7   6   6    1.17    0.20 
  -6   6   6    4.76    0.33 
  -5   6   6    2.80    0.30 
   4  -6  -6    0.42    0.15 
   3  -6  -6    0.94    0.17 
   2  -6  -6    0.34    0.12 
   1  -6  -6    0.52    0.25 
   1  -6  -6    0.56    0.12 
   0  -6  -6    9.64    0.42 
   0  -6  -6    9.20    0.75 
  -1  -6  -6    1.81    0.39 
  -1  -6  -6    1.66    0.19 
  -2  -6  -6    1.61    0.35 
  -2  -6  -6    1.79    0.19 
  -3  -6  -6    0.30    0.08 
  -3  -6  -6    0.40    0.20 
  -4  -6  -6    3.45    0.20 
  -4  -6  -6    3.74    0.50 
  -5  -6  -6    1.43    0.34 
  -5  -6  -6    1.85    0.16 
  -6  -6  -6    0.64    0.09 
  -6  -6  -6    0.60    0.23 
  -7  -6  -6    4.85    0.61 
  -7  -6  -6    3.78    0.18 
  -8  -6  -6   22.58    0.64 
  -8  -6  -6   22.58    1.34 
  -9  -6  -6    0.22    0.29 
 -10  -6  -6    3.78    0.70 
 -11  -6  -6    2.23    0.60 
 -12  -6  -6    0.76    0.49 
 -13  -6  -6    0.24    0.45 
 -14  -6  -6    0.80    0.68 
 -15  -6  -6    0.62    0.70 
 -16  -6  -6    0.95    0.77 
 -17  -6  -6   -0.70    0.78 
 -10   7   6    0.33    0.12 
  -9   7   6    0.22    0.12 
  -8   7   6   -0.01    0.09 
  -7   7   6    0.06    0.09 
  -6   7   6    0.13    0.11 
  -5   7   6    0.39    0.15 
   4  -7  -6    1.58    0.24 
   3  -7  -6   17.38    0.71 
   2  -7  -6    0.84    0.17 
   1  -7  -6    0.67    0.16 
   1  -7  -6    0.83    0.32 
  -1   7   6    0.74    0.11 
   0  -7  -6    3.93    0.26 
   0  -7  -6    4.11    0.65 
  -1  -7  -6    1.44    0.18 
  -1  -7  -6    2.12    0.44 
  -2  -7  -6    0.37    0.29 
  -2  -7  -6    0.76    0.14 
  -3  -7  -6    6.17    0.67 
  -3  -7  -6    4.85    0.27 
  -4  -7  -6    2.33    0.21 
  -4  -7  -6    2.78    0.47 
  -5  -7  -6    3.70    0.21 
  -5  -7  -6    3.98    0.54 
  -6  -7  -6    3.78    0.20 
  -6  -7  -6    3.65    0.54 
  -7  -7  -6    0.64    0.09 
  -7  -7  -6    0.74    0.28 
  -8  -7  -6    7.80    0.30 
  -8  -7  -6    8.18    0.75 
  -9  -7  -6    2.65    0.14 
  -9  -7  -6    2.05    0.53 
 -10  -7  -6   -0.13    0.29 
 -11  -7  -6    0.34    0.39 
 -12  -7  -6   -0.24    0.39 
 -13  -7  -6    0.36    0.43 
 -14  -7  -6    0.14    0.53 
 -15  -7  -6    0.56    0.70 
 -16  -7  -6    1.12    0.86 
 -17  -7  -6    0.26    0.86 
 -10   8   6    0.08    0.09 
  -9   8   6    1.85    0.25 
  -8   8   6    0.43    0.14 
  -7   8   6    0.93    0.20 
  -6   8   6    0.19    0.12 
   5  -8  -6    1.61    0.25 
   4  -8  -6    0.01    0.09 
   3  -8  -6    0.86    0.18 
   2  -8  -6    0.17    0.10 
   1  -8  -6    0.12    0.08 
   0  -8  -6    8.61    0.44 
   0  -8  -6    9.80    0.79 
  -1  -8  -6    0.29    0.11 
  -1  -8  -6    0.22    0.21 
  -2  -8  -6    0.33    0.09 
  -2  -8  -6    0.58    0.24 
  -3  -8  -6    5.95    0.58 
  -3  -8  -6    6.08    0.32 
  -4  -8  -6    4.67    0.27 
  -4  -8  -6    4.60    0.62 
  -5  -8  -6    1.92    0.20 
  -5  -8  -6    1.94    0.41 
  -6  -8  -6    0.68    0.10 
  -6  -8  -6    0.90    0.31 
  -7  -8  -6   13.45    0.96 
  -7  -8  -6   13.34    0.48 
  -8  -8  -6    0.13    0.28 
  -8  -8  -6    0.22    0.06 
  -9  -8  -6    2.69    0.16 
  -9  -8  -6    3.10    0.66 
 -10  -8  -6   -0.01    0.34 
 -11  -8  -6    0.26    0.39 
 -12  -8  -6    0.44    0.47 
 -13  -8  -6   -0.22    0.53 
 -14  -8  -6    0.28    0.56 
 -15  -8  -6   -0.37    0.47 
 -16  -8  -6   -0.15    0.60 
 -17  -8  -6   -0.98    0.68 
  -9   9   6    0.35    0.13 
  -8   9   6    0.30    0.13 
  -7   9   6    0.42    0.14 
  -6   9   6    0.44    0.17 
   5  -9  -6    0.77    0.17 
   4  -9  -6    0.20    0.11 
   3  -9  -6   11.07    0.57 
   2  -9  -6    4.72    0.42 
   1  -9  -6    3.94    0.38 
   0  -9  -6    6.24    0.38 
   0  -9  -6    8.01    0.97 
  -1  -9  -6    0.43    0.25 
  -1  -9  -6    0.26    0.10 
  -2  -9  -6    2.87    0.55 
  -2  -9  -6    1.88    0.24 
  -3  -9  -6   13.22    0.56 
  -3  -9  -6   13.01    0.92 
  -4  -9  -6   14.55    0.57 
  -4  -9  -6   14.94    0.99 
  -5  -9  -6    4.18    0.60 
  -5  -9  -6    3.18    0.23 
  -6  -9  -6    1.06    0.36 
  -6  -9  -6    1.49    0.18 
  -7  -9  -6    2.12    0.50 
  -7  -9  -6    2.64    0.23 
  -8  -9  -6    0.93    0.14 
  -8  -9  -6    1.25    0.44 
  -9  -9  -6    2.58    0.59 
  -9  -9  -6    2.64    0.18 
 -10  -9  -6   -0.06    0.32 
 -11  -9  -6    5.27    0.89 
 -12  -9  -6    0.17    0.48 
 -13  -9  -6   -0.35    0.39 
 -14  -9  -6    1.57    0.65 
 -15  -9  -6    0.42    0.55 
 -16  -9  -6    0.37    0.63 
 -17  -9  -6    0.98    0.62 
  -8  10   6   -0.04    0.11 
  -7  10   6    0.24    0.13 
  -6  10   6   -0.01    0.11 
   5 -10  -6    0.27    0.10 
   4 -10  -6    1.10    0.21 
   3 -10  -6    3.16    0.37 
   2 -10  -6    0.31    0.16 
   1 -10  -6    0.13    0.11 
   0 -10  -6    6.86    0.96 
   0 -10  -6    4.88    0.36 
  -1 -10  -6    0.37    0.16 
  -1 -10  -6    0.65    0.40 
  -2 -10  -6    7.38    0.42 
  -2 -10  -6    9.16    0.85 
  -3 -10  -6    8.40    0.45 
  -3 -10  -6    9.43    0.82 
  -4 -10  -6    0.11    0.11 
  -4 -10  -6    0.57    0.31 
  -5 -10  -6   15.79    1.07 
  -5 -10  -6   13.43    0.58 
  -6 -10  -6    6.15    0.79 
  -6 -10  -6    5.23    0.32 
  -7 -10  -6    0.36    0.31 
  -7 -10  -6    0.07    0.06 
  -8 -10  -6    7.91    0.79 
  -8 -10  -6    7.95    0.37 
  -9 -10  -6    3.86    0.24 
  -9 -10  -6    4.67    0.79 
 -10 -10  -6   -0.13    0.35 
 -11 -10  -6    0.10    0.44 
 -12 -10  -6    0.44    0.53 
 -13 -10  -6    0.32    0.56 
 -14 -10  -6    0.77    0.53 
 -15 -10  -6    0.32    0.59 
 -16 -10  -6    0.25    0.60 
  -7  11   6    0.52    0.16 
   6 -11  -6    0.20    0.11 
   5 -11  -6    0.24    0.10 
   4 -11  -6    0.52    0.13 
   3 -11  -6    6.77    0.45 
   2 -11  -6    0.53    0.15 
   1 -11  -6    3.70    0.40 
   0 -11  -6    7.07    0.44 
  -1 -11  -6    0.29    0.14 
  -1 -11  -6    0.41    0.43 
  -2 -11  -6    5.18    0.81 
  -2 -11  -6    4.63    0.41 
  -3 -11  -6    3.44    0.35 
  -3 -11  -6    4.16    0.72 
  -4 -11  -6    0.01    0.27 
  -4 -11  -6    0.08    0.11 
  -5 -11  -6   10.99    0.53 
  -5 -11  -6   11.19    0.94 
  -6 -11  -6    4.92    0.33 
  -6 -11  -6    4.29    0.73 
  -7 -11  -6    1.42    0.48 
  -7 -11  -6    1.50    0.22 
  -8 -11  -6    1.79    0.23 
  -8 -11  -6    2.32    0.58 
  -9 -11  -6    2.45    0.25 
  -9 -11  -6    2.54    0.64 
 -10 -11  -6    3.18    0.72 
 -10 -11  -6    2.66    0.24 
 -11 -11  -6    3.65    0.80 
 -12 -11  -6    1.33    0.59 
 -13 -11  -6    0.37    0.57 
 -14 -11  -6   -0.27    0.61 
 -15 -11  -6    0.52    0.59 
 -16 -11  -6    1.20    0.58 
   6 -12  -6    0.23    0.10 
   5 -12  -6   -0.33    0.09 
   4 -12  -6    0.30    0.11 
   3 -12  -6    0.36    0.12 
   2 -12  -6    0.22    0.12 
   1 -12  -6    0.16    0.11 
   0 -12  -6   -0.09    0.09 
  -1 -12  -6    0.54    0.47 
  -1 -12  -6    0.69    0.19 
  -2 -12  -6    0.70    0.45 
  -2 -12  -6   -0.06    0.13 
  -3 -12  -6    5.96    0.90 
  -4 -12  -6    1.35    0.48 
  -4 -12  -6    0.81    0.20 
  -5 -12  -6    1.85    0.27 
  -5 -12  -6    2.76    0.63 
  -6 -12  -6    0.39    0.15 
  -6 -12  -6    0.53    0.42 
  -7 -12  -6    0.10    0.26 
  -7 -12  -6   -0.19    0.09 
  -8 -12  -6    2.05    0.25 
  -8 -12  -6    1.97    0.56 
  -9 -12  -6    4.43    0.30 
  -9 -12  -6    5.20    0.85 
 -10 -12  -6    0.22    0.44 
 -10 -12  -6    0.44    0.10 
 -11 -12  -6    0.31    0.50 
 -12 -12  -6    0.32    0.55 
 -13 -12  -6    0.74    0.60 
 -14 -12  -6    0.20    0.44 
 -15 -12  -6    0.49    0.54 
 -16 -12  -6    0.16    0.53 
   5 -13  -6   -0.19    0.11 
   4 -13  -6    0.14    0.11 
   3 -13  -6    0.65    0.17 
   2 -13  -6    0.98    0.19 
   1 -13  -6    0.13    0.10 
   0 -13  -6    0.36    0.14 
  -1 -13  -6    1.86    0.30 
  -2 -13  -6    0.47    0.18 
  -2 -13  -6   -0.12    0.39 
  -3 -13  -6    1.17    0.46 
  -3 -13  -6    1.14    0.23 
  -4 -13  -6    0.45    0.38 
  -4 -13  -6    0.41    0.16 
  -5 -13  -6    3.25    0.72 
  -5 -13  -6    2.21    0.30 
  -6 -13  -6    1.35    0.55 
  -6 -13  -6    1.54    0.26 
  -7 -13  -6    0.01    0.10 
  -7 -13  -6    0.39    0.37 
  -8 -13  -6    0.39    0.41 
  -8 -13  -6    0.45    0.15 
  -9 -13  -6    0.22    0.10 
  -9 -13  -6   -0.19    0.32 
 -10 -13  -6    0.76    0.16 
 -10 -13  -6    1.08    0.54 
 -11 -13  -6    0.05    0.47 
 -12 -13  -6    1.08    0.59 
 -13 -13  -6    0.48    0.55 
 -14 -13  -6   -0.04    0.48 
 -15 -13  -6    0.22    0.53 
   3 -14  -6    0.17    0.12 
   2 -14  -6    0.42    0.14 
   1 -14  -6    0.27    0.11 
   0 -14  -6    1.23    0.21 
  -1 -14  -6   -0.11    0.12 
  -2 -14  -6    0.36    0.18 
  -3 -14  -6    0.84    0.22 
  -4 -14  -6    1.86    0.61 
  -4 -14  -6    1.21    0.24 
  -5 -14  -6    0.08    0.13 
  -5 -14  -6    0.24    0.40 
  -6 -14  -6    0.09    0.14 
  -6 -14  -6    0.37    0.40 
  -7 -14  -6    0.00    0.37 
  -7 -14  -6    0.01    0.12 
  -8 -14  -6    0.48    0.17 
  -8 -14  -6    0.59    0.48 
  -9 -14  -6    0.45    0.13 
  -9 -14  -6   -0.30    0.38 
 -10 -14  -6    0.44    0.13 
 -10 -14  -6   -0.17    0.41 
 -11 -14  -6   -0.01    0.46 
 -12 -14  -6    0.15    0.50 
 -13 -14  -6    0.00    0.50 
 -14 -14  -6    0.41    0.56 
 -15 -14  -6    0.59    0.53 
   2 -15  -6    0.38    0.15 
   1 -15  -6    0.94    0.18 
   0 -15  -6   -0.20    0.13 
  -1 -15  -6    0.35    0.17 
  -2 -15  -6   -0.31    0.10 
  -3 -15  -6   -0.08    0.24 
  -4 -15  -6    0.50    0.17 
  -5 -15  -6    0.12    0.14 
  -6 -15  -6    0.30    0.16 
  -7 -15  -6    0.44    0.12 
  -7 -15  -6    0.70    0.34 
  -8 -15  -6    0.11    0.12 
  -8 -15  -6   -0.30    0.45 
  -9 -15  -6    0.45    0.52 
  -9 -15  -6    0.38    0.16 
 -10 -15  -6    0.00    0.46 
 -10 -15  -6    0.05    0.10 
 -11 -15  -6    0.17    0.45 
 -12 -15  -6    0.14    0.48 
 -13 -15  -6    0.70    0.53 
 -14 -15  -6    0.15    0.48 
   0 -16  -6   -0.02    0.12 
  -1 -16  -6    0.25    0.16 
  -2 -16  -6    0.59    0.16 
  -3 -16  -6    0.86    0.23 
  -4 -16  -6    0.25    0.17 
  -5 -16  -6    0.74    0.21 
  -6 -16  -6    0.84    0.19 
  -7 -16  -6    0.18    0.15 
  -8 -16  -6    0.74    0.17 
  -9 -16  -6    0.43    0.16 
 -10 -16  -6    0.19    0.11 
 -11 -16  -6   30.21    1.07 
 -12 -16  -6   11.61    0.54 
  -3 -17  -6   -0.40    0.11 
  -4 -17  -6    0.07    0.16 
  -5 -17  -6    0.67    0.17 
  -6 -17  -6    0.32    0.16 
  -7 -17  -6    0.34    0.19 
  -8 -17  -6    0.53    0.17 
  -9 -17  -6    1.15    0.19 
 -10 -17  -6    0.61    0.14 
  -9 -16   7    0.31    0.13 
  -8 -16   7    0.32    0.13 
  -7 -16   7    0.09    0.13 
  -6 -16   7   -0.20    0.13 
  -5 -16   7    0.07    0.10 
  -4 -16   7    0.13    0.12 
  -3 -16   7   -0.18    0.16 
  -2 -16   7    0.30    0.14 
 -11 -15   7    0.34    0.10 
 -10 -15   7    0.27    0.13 
  -9 -15   7    0.11    0.10 
  -8 -15   7    0.25    0.11 
  -7 -15   7    0.62    0.16 
  -6 -15   7    0.12    0.12 
  -5 -15   7    0.30    0.13 
  -4 -15   7    0.57    0.15 
  -3 -15   7    0.28    0.13 
   2  15  -7    0.04    0.33 
  -2 -15   7    0.36    0.12 
   1  15  -7   -0.01    0.33 
  -1 -15   7   -0.03    0.08 
   0  15  -7    0.33    0.37 
   0 -15   7    0.01    0.09 
   1 -15   7    1.08    0.18 
 -12 -14   7    0.29    0.14 
 -11 -14   7    0.22    0.14 
 -10 -14   7    0.32    0.18 
  -9 -14   7    0.63    0.20 
  -8 -14   7    1.20    0.23 
  -7 -14   7    0.93    0.21 
  -6 -14   7    0.28    0.13 
  -5 -14   7    0.38    0.11 
  -4 -14   7    0.39    0.12 
  -3 -14   7   -0.14    0.07 
   2  14  -7    0.37    0.31 
  -2 -14   7    0.15    0.08 
   1  14  -7    0.20    0.34 
  -1 -14   7    0.33    0.11 
   0  14  -7    0.73    0.37 
   0 -14   7    0.85    0.18 
  -1  14  -7    0.10    0.31 
   1 -14   7    0.40    0.13 
  -2  14  -7    0.04    0.30 
   2 -14   7    0.28    0.14 
  -3  14  -7    0.04    0.38 
   3 -14   7    0.05    0.11 
 -12 -13   7    0.32    0.13 
 -11 -13   7    0.25    0.12 
 -10 -13   7    0.88    0.20 
  -9 -13   7    0.17    0.13 
  -8 -13   7    0.60    0.16 
  -7 -13   7    0.49    0.15 
  -6 -13   7    1.22    0.23 
  -5 -13   7    0.25    0.12 
  -4 -13   7    0.09    0.08 
  -3 -13   7    0.78    0.18 
   2  13  -7    0.42    0.30 
  -2 -13   7    0.53    0.13 
   1  13  -7    0.22    0.27 
  -1 -13   7    0.50    0.13 
   0  13  -7    0.16    0.28 
   0 -13   7    0.04    0.09 
  -1  13  -7   -0.01    0.26 
   1 -13   7   -0.09    0.10 
  -2  13  -7    0.81    0.37 
   2 -13   7    0.91    0.16 
  -3  13  -7    0.02    0.32 
   3 -13   7    0.07    0.10 
  -4  13  -7   -0.31    0.30 
   4 -13   7   -0.29    0.14 
 -13 -12   7    0.47    0.18 
 -12 -12   7    0.08    0.15 
 -11 -12   7    0.50    0.16 
 -10 -12   7    0.54    0.17 
  -9 -12   7    0.57    0.16 
  -8 -12   7    2.60    0.33 
  -7 -12   7    2.24    0.29 
  -6 -12   7    0.18    0.11 
  -5 -12   7    1.14    0.22 
  -4 -12   7    1.04    0.20 
   3  12  -7    1.98    0.45 
  -3 -12   7    1.83    0.26 
   2  12  -7    0.14    0.27 
  -2 -12   7    0.19    0.09 
   1  12  -7    0.59    0.31 
  -1 -12   7    0.74    0.17 
   0  12  -7    1.38    0.38 
   0 -12   7    1.52    0.24 
  -1  12  -7   -0.14    0.23 
   1 -12   7    0.06    0.08 
  -2  12  -7   -0.01    0.23 
   2 -12   7   -0.06    0.09 
  -3  12  -7   -0.07    0.28 
   3 -12   7    0.11    0.12 
  -4  12  -7    0.22    0.33 
   4 -12   7   -0.16    0.08 
  -5  12  -7    0.22    0.33 
   5 -12   7    0.25    0.09 
  -6  12  -7    0.15    0.38 
 -14 -11   7    0.78    0.27 
 -13 -11   7   -0.20    0.16 
 -12 -11   7   -0.01    0.15 
 -11 -11   7    0.03    0.16 
 -10 -11   7    0.43    0.20 
  -8 -11   7    0.15    0.13 
  -7 -11   7    0.25    0.14 
  -6 -11   7    0.39    0.13 
  -5 -11   7    0.85    0.18 
  -4 -11   7    0.33    0.13 
   3  11  -7    1.51    0.39 
  -3 -11   7    1.16    0.22 
   2  11  -7    3.56    0.55 
  -2 -11   7    3.80    0.36 
   1  11  -7    0.66    0.29 
  -1 -11   7    1.15    0.20 
   0  11  -7    0.08    0.21 
   0 -11   7   -0.14    0.08 
  -1  11  -7    0.17    0.24 
   1 -11   7    0.39    0.12 
  -2  11  -7    1.30    0.38 
   2 -11   7    1.49    0.22 
  -3  11  -7    0.00    0.25 
   3 -11   7    0.27    0.10 
  -4  11  -7   -0.03    0.28 
   4 -11   7    0.26    0.11 
  -5  11  -7    0.03    0.32 
   5 -11   7    0.24    0.11 
  -6  11  -7   -0.07    0.36 
  -7  11  -7    0.03    0.38 
 -14 -10   7    0.57    0.29 
 -14 -10   7    0.70    0.46 
 -13 -10   7   -0.19    0.47 
 -13 -10   7   -0.27    0.24 
 -12 -10   7   -0.11    0.26 
 -12 -10   7   -0.32    0.48 
 -11 -10   7   -0.31    0.21 
 -10 -10   7   -0.16    0.19 
  -9 -10   7   -0.21    0.16 
  -8 -10   7    0.58    0.20 
  -7 -10   7   -0.29    0.10 
  -6 -10   7    0.01    0.10 
  -5 -10   7    4.65    0.34 
  -4 -10   7    3.73    0.35 
   3  10  -7    0.79    0.30 
  -3 -10   7    0.49    0.13 
   2  10  -7    0.41    0.26 
  -2 -10   7    0.18    0.12 
   1  10  -7    0.31    0.21 
  -1 -10   7    0.33    0.12 
   0  10  -7    0.19    0.19 
   0 -10   7    0.10    0.09 
  -1  10  -7    0.98    0.32 
   1 -10   7    0.84    0.17 
  -2  10  -7    0.04    0.22 
   2 -10   7    0.23    0.11 
  -3  10  -7    0.01    0.24 
   3 -10   7   -0.01    0.07 
  -4  10  -7    0.39    0.31 
   4 -10   7    0.60    0.14 
  -5  10  -7    0.38    0.33 
   5 -10   7    0.71    0.13 
  -6  10  -7    0.04    0.30 
  -7  10  -7   -0.03    0.33 
  -8  10  -7    0.34    0.43 
 -14  -9   7    0.64    0.57 
 -14  -9   7    0.24    0.10 
 -13  -9   7    0.45    0.56 
 -13  -9   7    1.12    0.17 
 -12  -9   7    0.13    0.11 
 -12  -9   7    0.24    0.57 
 -11  -9   7   -0.05    0.46 
 -11  -9   7    0.72    0.17 
 -10  -9   7    2.95    0.68 
 -10  -9   7    2.40    0.29 
  -9  -9   7   -0.01    0.13 
  -9  -9   7    0.20    0.40 
  -8  -9   7   -0.52    0.21 
  -7  -9   7    1.61    0.28 
  -6  -9   7    0.74    0.20 
  -5  -9   7    4.06    0.37 
  -4  -9   7   -0.04    0.10 
   3   9  -7    1.26    0.36 
  -3  -9   7    1.50    0.22 
   2   9  -7   11.02    0.74 
  -2  -9   7   10.71    0.50 
   1   9  -7    8.60    0.64 
  -1  -9   7    8.50    0.44 
   0   9  -7    0.11    0.20 
   0  -9   7    0.54    0.13 
  -1   9  -7    1.71    0.35 
   1  -9   7    2.57    0.28 
  -2   9  -7    3.06    0.49 
   2  -9   7    3.59    0.32 
  -3   9  -7    0.35    0.27 
   3  -9   7    0.25    0.09 
  -4   9  -7    2.29    0.50 
   4  -9   7    2.38    0.27 
  -5   9  -7    0.17    0.27 
   5  -9   7    0.15    0.10 
  -6   9  -7    1.07    0.42 
  -7   9  -7    0.11    0.33 
  -8   9  -7    0.04    0.33 
  -9   9  -7    0.68    0.49 
 -14  -8   7    0.15    0.55 
 -13  -8   7    0.17    0.56 
 -13  -8   7    0.31    0.12 
 -12  -8   7   -0.04    0.49 
 -12  -8   7    0.26    0.14 
 -11  -8   7   -0.07    0.12 
 -11  -8   7    0.06    0.48 
 -10  -8   7    1.54    0.57 
 -10  -8   7    0.93    0.20 
  -9  -8   7    1.15    0.50 
  -9  -8   7    0.76    0.20 
  -8  -8   7   -0.03    0.13 
  -8  -8   7    0.23    0.35 
  -7  -8   7    0.16    0.21 
  -7  -8   7    0.30    0.16 
  -6  -8   7    0.09    0.17 
  -6  -8   7    0.05    0.10 
  -4  -8   7   10.25    0.50 
   3   8  -7   -0.02    0.18 
  -3  -8   7    0.18    0.12 
   2   8  -7    1.12    0.28 
  -2  -8   7    1.58    0.23 
   1   8  -7    1.35    0.31 
  -1  -8   7    0.94    0.18 
   0   8  -7    0.09    0.16 
   0  -8   7    0.15    0.09 
  -1   8  -7    0.66    0.25 
   1  -8   7    0.83    0.16 
  -2   8  -7   -0.01    0.18 
   2  -8   7    0.21    0.09 
  -3   8  -7    3.21    0.51 
   3  -8   7    3.26    0.29 
  -4   8  -7   -0.08    0.21 
   4  -8   7    0.05    0.08 
  -5   8  -7   -0.04    0.23 
   5  -8   7    0.09    0.07 
  -6   8  -7    0.26    0.29 
   6  -8   7    0.65    0.10 
  -7   8  -7    0.62    0.40 
  -8   8  -7   -0.08    0.32 
  -9   8  -7    0.01    0.35 
 -10   8  -7    0.67    0.48 
 -15  -7   7    0.57    0.53 
 -14  -7   7   -0.02    0.51 
 -13  -7   7    0.08    0.54 
 -13  -7   7    0.61    0.15 
 -12  -7   7   -0.44    0.52 
 -12  -7   7    0.04    0.13 
 -11  -7   7    0.39    0.17 
 -11  -7   7   -0.76    0.38 
 -10  -7   7    1.40    0.26 
 -10  -7   7    1.65    0.60 
  -9  -7   7    3.90    0.37 
  -9  -7   7    4.97    0.78 
  -8  -7   7    0.47    0.19 
  -8  -7   7    1.02    0.46 
  -7  -7   7    9.92    0.73 
  -7  -7   7    8.32    0.46 
  -6  -7   7    0.50    0.16 
  -6  -7   7    0.91    0.27 
  -5  -7   7    1.01    0.26 
  -5  -7   7    0.48    0.16 
  -4  -7   7   11.16    0.60 
  -4  -7   7   10.41    0.47 
   2   7  -7    8.90    0.61 
  -2  -7   7    8.29    0.41 
   1   7  -7   18.03    0.91 
  -1  -7   7   16.80    0.64 
   0   7  -7    3.20    0.43 
   0  -7   7    3.00    0.27 
  -1   7  -7    7.33    0.57 
   1  -7   7    5.84    0.32 
  -2   7  -7    8.21    0.63 
   2  -7   7    7.97    0.38 
  -3   7  -7    0.01    0.19 
   3  -7   7    0.21    0.08 
  -4   7  -7   11.28    0.84 
   4  -7   7   12.06    0.51 
  -5   7  -7    4.26    0.65 
   5  -7   7    4.36    0.28 
  -6   7  -7    0.38    0.30 
   6  -7   7    0.31    0.08 
  -7   7  -7   -0.20    0.22 
  -8   7  -7    0.38    0.34 
  -9   7  -7   -0.07    0.31 
 -10   7  -7   -0.06    0.32 
 -11   7  -7   -0.06    0.40 
 -15  -6   7    0.05    0.42 
 -14  -6   7    0.02    0.52 
 -13  -6   7    0.50    0.15 
 -13  -6   7   -0.77    0.46 
 -12  -6   7    1.01    0.22 
 -12  -6   7    0.60    0.58 
 -11  -6   7   -0.18    0.47 
 -11  -6   7   -0.15    0.16 
 -10  -6   7    3.14    0.33 
  -9  -6   7    1.04    0.22 
  -9  -6   7    1.62    0.55 
  -8  -6   7    0.95    0.21 
  -8  -6   7    0.96    0.44 
  -7  -6   7   19.63    1.13 
  -7  -6   7   17.77    0.70 
  -6  -6   7    5.34    0.50 
  -6  -6   7    5.08    0.34 
  -5  -6   7    0.81    0.18 
  -5  -6   7    0.95    0.27 
  -4  -6   7   16.67    0.66 
  -4  -6   7   20.39    0.94 
  -3  -6   7    2.49    0.24 
  -3  -6   7    2.15    0.23 
   2   6  -7    1.34    0.27 
  -2  -6   7    0.56    0.16 
   1   6  -7    0.21    0.14 
  -1  -6   7    0.23    0.11 
   0   6  -7    2.40    0.35 
   0  -6   7    3.23    0.26 
  -1   6  -7    6.15    0.49 
   1  -6   7    6.83    0.32 
  -2   6  -7    2.20    0.38 
   2  -6   7    2.99    0.20 
  -3   6  -7   11.67    0.79 
   3  -6   7   12.51    0.49 
  -4   6  -7    0.03    0.19 
   4  -6   7    0.20    0.06 
  -5   6  -7    0.58    0.29 
   5  -6   7    0.77    0.11 
  -6   6  -7   10.40    0.87 
   6  -6   7    9.78    0.42 
  -7   6  -7    0.30    0.31 
  -8   6  -7    0.52    0.35 
  -9   6  -7    0.11    0.33 
 -10   6  -7   -0.09    0.29 
 -11   6  -7    0.09    0.35 
 -12   6  -7    0.71    0.48 
 -15  -5   7    0.09    0.41 
 -14  -5   7   -0.23    0.51 
 -13  -5   7   -0.39    0.50 
 -13  -5   7    0.48    0.14 
 -12  -5   7    0.32    0.17 
 -12  -5   7   -0.12    0.51 
 -11  -5   7    1.02    0.59 
 -11  -5   7    1.75    0.27 
 -10  -5   7   -0.04    0.43 
 -10  -5   7    0.13    0.15 
  -9  -5   7    0.44    0.40 
  -9  -5   7    0.48    0.20 
  -8  -5   7    0.21    0.19 
  -8  -5   7    0.15    0.32 
  -7  -5   7    0.17    0.16 
  -7  -5   7    0.02    0.22 
  -6  -5   7    0.18    0.15 
  -5  -5   7    3.65    0.30 
  -4  -5   7    1.67    0.21 
  -3  -5   7    5.11    0.29 
   2   5  -7    0.13    0.12 
  -2  -5   7    0.04    0.07 
   1   5  -7    1.90    0.30 
  -1  -5   7    1.77    0.19 
   0   5  -7    3.32    0.38 
   0  -5   7    2.31    0.21 
  -1   5  -7    0.42    0.17 
   1  -5   7    0.13    0.07 
  -2   5  -7    1.01    0.26 
  -2   5  -7    0.99    0.12 
   2  -5   7    0.68    0.11 
  -3   5  -7    3.71    0.49 
  -3   5  -7    4.86    0.30 
   3  -5   7    4.48    0.24 
  -4   5  -7    0.10    0.19 
  -4   5  -7    0.10    0.10 
   4  -5   7    0.00    0.04 
  -5   5  -7    3.23    0.35 
  -5   5  -7    2.61    0.46 
   5  -5   7    2.22    0.16 
  -6   5  -7    0.24    0.17 
  -6   5  -7   -0.06    0.22 
   6  -5   7    0.11    0.04 
  -7   5  -7    0.71    0.35 
  -8   5  -7    0.27    0.30 
  -9   5  -7    0.41    0.34 
 -10   5  -7    0.18    0.38 
 -11   5  -7    0.58    0.39 
 -12   5  -7    0.23    0.37 
 -14  -4   7   -0.34    0.43 
 -13  -4   7   -0.02    0.52 
 -13  -4   7    0.35    0.14 
 -12  -4   7    0.06    0.14 
 -12  -4   7    0.14    0.51 
 -11  -4   7    0.10    0.47 
 -11  -4   7    0.84    0.21 
 -10  -4   7    0.13    0.16 
 -10  -4   7    0.45    0.44 
  -9  -4   7    1.30    0.49 
  -9  -4   7    2.15    0.28 
  -8  -4   7   -0.05    0.17 
  -7  -4   7    9.25    0.44 
  -6  -4   7    0.05    0.13 
  -5  -4   7    0.13    0.11 
  -4  -4   7   25.68    0.83 
  -3  -4   7    4.27    0.26 
   2   4  -7    0.22    0.12 
  -2  -4   7    0.20    0.10 
   1   4  -7    3.96    0.39 
  -1  -4   7    3.07    0.21 
   0   4  -7    2.34    0.32 
   0  -4   7    2.45    0.20 
  -1   4  -7   16.37    0.68 
  -1   4  -7   15.34    0.79 
  -2   4  -7   30.72    1.17 
  -2   4  -7   29.35    1.28 
   2  -4   7   30.26    0.89 
  -3   4  -7    6.05    0.37 
  -3   4  -7    5.81    0.49 
   3  -4   7    5.09    0.25 
  -4   4  -7   43.27    1.62 
  -4   4  -7   36.41    1.65 
  -5   4  -7    1.26    0.27 
  -5   4  -7    1.21    0.33 
   5  -4   7    1.40    0.14 
  -6   4  -7    8.34    0.62 
  -6   4  -7    8.21    0.72 
   6  -4   7    8.75    0.34 
  -7   4  -7    0.77    0.31 
  -7   4  -7    1.14    0.34 
  -8   4  -7    9.80    0.95 
  -8   4  -7    9.12    0.72 
  -9   4  -7    2.35    0.51 
  -9   4  -7    2.26    0.54 
 -10   4  -7    1.09    0.41 
 -11   4  -7    0.27    0.35 
 -12   4  -7    0.43    0.41 
 -13   4  -7    0.06    0.40 
 -14  -3   7   -0.25    0.44 
 -13  -3   7   -0.18    0.47 
 -13  -3   7    0.11    0.11 
 -12  -3   7   -0.25    0.13 
 -12  -3   7   -0.26    0.50 
 -11  -3   7   -0.12    0.45 
 -11  -3   7    0.26    0.17 
 -10  -3   7    0.94    0.49 
 -10  -3   7    2.34    0.28 
  -9  -3   7    6.51    0.38 
  -8  -3   7    5.00    0.34 
  -7  -3   7    5.47    0.33 
  -6  -3   7    0.13    0.13 
  -5  -3   7   -0.04    0.10 
  -4  -3   7    0.74    0.15 
  -3  -3   7    1.01    0.16 
   2   3  -7    7.66    0.50 
  -2  -3   7    8.48    0.36 
   1   3  -7   20.67    0.91 
  -1  -3   7   21.38    0.67 
   0   3  -7   24.92    1.08 
   0   3  -7   25.80    1.06 
   0  -3   7   26.76    0.77 
  -1   3  -7    0.16    0.09 
  -1   3  -7    0.02    0.11 
   1  -3   7    0.02    0.05 
  -2   3  -7    2.21    0.32 
  -2   3  -7    2.67    0.25 
   2  -3   7    2.63    0.19 
  -3   3  -7    2.55    0.28 
  -3   3  -7    2.64    0.37 
  -4   3  -7    1.21    0.24 
  -4   3  -7    0.92    0.25 
   4  -3   7    1.05    0.12 
  -5   3  -7    1.10    0.30 
  -5   3  -7    1.46    0.30 
   5  -3   7    1.40    0.10 
  -6   3  -7    0.38    0.21 
  -6   3  -7    0.37    0.24 
  -7   3  -7    0.89    0.32 
  -7   3  -7    1.19    0.36 
  -8   3  -7    0.44    0.28 
  -8   3  -7    0.21    0.22 
  -9   3  -7    0.50    0.34 
  -9   3  -7    0.19    0.33 
 -10   3  -7    0.87    0.39 
 -10   3  -7    0.68    0.42 
 -11   3  -7    3.14    0.64 
 -11   3  -7    2.40    0.61 
 -12   3  -7   -0.04    0.30 
 -13   3  -7    0.10    0.34 
 -14   3  -7    1.31    0.58 
 -14  -2   7    0.28    0.56 
 -13  -2   7    0.02    0.52 
 -12  -2   7   -0.36    0.48 
 -12  -2   7    0.13    0.15 
 -11  -2   7    0.24    0.47 
 -11  -2   7    0.10    0.15 
 -10  -2   7    0.03    0.15 
  -9  -2   7    0.27    0.16 
  -8  -2   7   11.83    0.50 
  -7  -2   7    7.56    0.37 
  -6  -2   7    7.67    0.36 
  -5  -2   7    3.52    0.23 
  -4  -2   7   55.46    1.50 
  -3  -2   7   29.07    0.86 
  -2  -2   7   74.74    1.94 
   1   2  -7   23.44    0.96 
  -1  -2   7   23.51    0.71 
   0   2  -7    1.51    0.23 
   0   2  -7    1.69    0.26 
   0  -2   7    1.49    0.15 
  -1   2  -7    2.13    0.26 
  -1   2  -7    1.89    0.27 
   1  -2   7    2.10    0.15 
  -2   2  -7    1.12    0.21 
  -2   2  -7    0.87    0.20 
   2  -2   7    1.11    0.12 
  -3   2  -7   12.24    0.65 
  -3   2  -7   12.51    0.69 
  -4   2  -7   53.88    2.03 
  -4   2  -7   53.24    2.06 
   4  -2   7   52.44    1.38 
  -5   2  -7    0.61    0.22 
  -5   2  -7    0.68    0.22 
   5  -2   7    0.45    0.07 
  -6   2  -7    0.50    0.25 
  -6   2  -7    0.13    0.20 
   6  -2   7    0.27    0.04 
  -7   2  -7    2.92    0.50 
  -7   2  -7    2.95    0.48 
  -8   2  -7    7.87    0.83 
  -8   2  -7   10.23    0.81 
  -9   2  -7    0.01    0.23 
  -9   2  -7    0.13    0.30 
 -10   2  -7    3.36    0.63 
 -10   2  -7    2.56    0.54 
 -11   2  -7    0.12    0.39 
 -12   2  -7    0.29    0.43 
 -13   2  -7   -0.01    0.44 
 -14   2  -7   -0.07    0.38 
 -14  -1   7   -0.16    0.49 
 -13  -1   7    0.34    0.54 
 -12  -1   7    0.15    0.14 
 -12  -1   7    0.29    0.62 
 -11  -1   7    0.58    0.52 
 -11  -1   7    1.78    0.25 
 -10  -1   7    3.48    0.31 
  -9  -1   7    1.85    0.24 
  -8  -1   7    6.64    0.36 
  -7  -1   7    0.61    0.15 
  -6  -1   7   -0.01    0.10 
  -5  -1   7   32.75    0.96 
  -4  -1   7   10.27    0.40 
  -3  -1   7    4.66    0.25 
  -2  -1   7    0.34    0.09 
   1   1  -7    3.87    0.40 
   1   1  -7    4.40    0.32 
  -1  -1   7    4.63    0.22 
   0   1  -7   68.74    2.23 
   0   1  -7   65.70    2.56 
   0  -1   7   68.55    1.74 
  -1   1  -7    8.84    0.54 
  -1   1  -7    8.84    0.49 
   1  -1   7    9.04    0.33 
  -2   1  -7    1.96    0.28 
  -2   1  -7    2.29    0.29 
   2  -1   7    1.37    0.12 
  -3   1  -7    2.64    0.32 
  -3   1  -7    2.96    0.35 
   3  -1   7    2.73    0.14 
  -4   1  -7   10.62    0.64 
  -4   1  -7   10.84    0.65 
   4  -1   7   10.86    0.36 
  -5   1  -7   27.00    1.23 
  -5   1  -7   26.05    1.24 
   5  -1   7   26.43    0.72 
  -6   1  -7    2.43    0.39 
  -6   1  -7    2.82    0.42 
   6  -1   7    2.53    0.11 
  -7   1  -7    1.18    0.33 
  -7   1  -7    1.08    0.32 
  -8   1  -7    0.55    0.30 
  -9   1  -7   -0.09    0.32 
 -10   1  -7    7.84    0.87 
 -11   1  -7    2.72    0.61 
 -12   1  -7    0.44    0.41 
 -13   1  -7    0.82    0.50 
 -14   1  -7    0.31    0.50 
 -13   0   7    0.18    0.69 
 -12   0   7    0.13    0.53 
 -12   0   7    0.16    0.14 
 -11   0   7    1.63    0.24 
 -10   0   7    3.37    0.31 
  -9   0   7    2.44    0.27 
  -8   0   7    4.05    0.29 
  -7   0   7    8.91    0.41 
  -6   0   7    0.48    0.12 
  -5   0   7    0.20    0.09 
  -4   0   7    7.74    0.33 
  -3   0   7    1.84    0.17 
  -2   0   7   22.40    0.67 
   1   0  -7   39.72    1.73 
  -1   0   7   39.75    1.07 
   0   0  -7    3.05    0.23 
   0   0  -7    3.55    0.41 
   0   0   7    3.12    0.17 
  -1   0  -7   35.00    1.26 
  -1   0  -7   33.09    1.47 
   1   0   7   36.34    0.94 
  -2   0  -7    1.08    0.18 
  -2   0  -7    1.21    0.25 
   2   0   7    0.61    0.08 
  -3   0  -7   16.71    0.78 
  -3   0  -7   17.63    0.88 
   3   0   7   17.36    0.50 
  -4   0  -7    0.09    0.12 
  -4   0  -7   -0.04    0.11 
   4   0   7    0.02    0.03 
  -5   0  -7    0.19    0.19 
  -5   0  -7    0.34    0.17 
   5   0   7    0.28    0.05 
  -6   0  -7    2.93    0.44 
  -6   0  -7    3.51    0.45 
   6   0   7    3.07    0.11 
  -7   0  -7   13.99    0.91 
  -8   0  -7    7.10    0.68 
  -9   0  -7    1.48    0.47 
 -10   0  -7    3.60    0.67 
 -11   0  -7    0.03    0.34 
 -12   0  -7    0.43    0.39 
 -13   0  -7    0.01    0.41 
 -14   0  -7    0.04    0.45 
 -15   0  -7   -0.50    0.47 
 -13   1   7   -0.40    0.68 
 -12   1   7    0.08    0.12 
 -12   1   7    0.22    0.60 
 -11   1   7    0.13    0.15 
 -10   1   7    0.02    0.13 
  -9   1   7   -0.28    0.10 
  -8   1   7    0.33    0.14 
  -7   1   7    0.74    0.16 
  -6   1   7    0.71    0.14 
  -5   1   7    1.64    0.17 
  -4   1   7   67.45    1.77 
  -3   1   7   10.83    0.40 
  -2   1   7   25.93    0.75 
   1  -1  -7   14.00    0.85 
  -1   1   7   13.01    0.43 
   0  -1  -7   21.19    1.07 
   0   1   7   19.94    0.58 
  -1  -1  -7    0.06    0.06 
  -1  -1  -7   -0.19    0.09 
   1   1   7    0.06    0.04 
  -2  -1  -7    3.39    0.26 
  -2  -1  -7    3.53    0.40 
   2   1   7    3.28    0.15 
  -3  -1  -7   59.78    2.39 
  -3  -1  -7   63.02    2.09 
   3   1   7   62.60    1.55 
  -4  -1  -7   26.58    1.08 
  -4  -1  -7   25.24    1.20 
   4   1   7   25.55    0.68 
  -5  -1  -7    2.03    0.31 
  -5  -1  -7    2.35    0.38 
   5   1   7    2.17    0.09 
  -6  -1  -7    3.99    0.51 
  -7  -1  -7    0.82    0.30 
  -8  -1  -7   16.27    1.03 
  -9  -1  -7    0.44    0.33 
 -10  -1  -7    1.15    0.46 
 -11  -1  -7    3.18    0.67 
 -12  -1  -7    0.11    0.40 
 -13  -1  -7    0.28    0.44 
 -14  -1  -7    0.22    0.43 
 -15  -1  -7   -0.12    0.51 
 -13   2   7    0.11    0.79 
 -12   2   7   -0.28    0.59 
 -12   2   7   -0.02    0.09 
 -11   2   7    1.11    0.20 
 -10   2   7    0.76    0.19 
  -9   2   7    0.21    0.14 
  -8   2   7    3.56    0.30 
  -7   2   7    0.44    0.15 
  -6   2   7   -0.05    0.10 
  -5   2   7    0.07    0.08 
  -4   2   7   33.28    0.99 
  -3   2   7    0.33    0.09 
  -2   2   7    2.92    0.17 
   1  -2  -7   25.01    1.31 
  -1   2   7   25.75    0.75 
   0  -2  -7    2.53    0.41 
   0   2   7    2.07    0.14 
  -1  -2  -7    0.15    0.14 
  -1  -2  -7    0.23    0.06 
   1   2   7    0.16    0.05 
  -2  -2  -7    3.94    0.46 
  -2  -2  -7    3.43    0.24 
   2   2   7    4.09    0.17 
  -3  -2  -7   16.18    0.74 
  -3  -2  -7   19.24    0.97 
   3   2   7   19.26    0.51 
  -4  -2  -7   79.45    2.58 
  -4  -2  -7   78.54    2.97 
   4   2   7   75.76    1.91 
  -5  -2  -7    3.10    0.44 
  -5  -2  -7    3.67    0.39 
   5   2   7    3.27    0.12 
  -6  -2  -7    4.12    0.51 
  -7  -2  -7    1.03    0.33 
  -8  -2  -7    0.77    0.30 
  -9  -2  -7    0.55    0.33 
 -10  -2  -7    6.07    0.80 
 -11  -2  -7    1.01    0.47 
 -12  -2  -7    3.94    0.77 
 -13  -2  -7    0.29    0.46 
 -14  -2  -7    0.44    0.54 
 -15  -2  -7   -0.10    0.50 
 -16  -2  -7    0.01    0.60 
 -12   3   7    0.11    0.61 
 -11   3   7    0.30    0.15 
 -10   3   7    0.34    0.14 
  -9   3   7    1.00    0.18 
  -8   3   7    1.34    0.21 
  -7   3   7    1.88    0.23 
  -6   3   7    1.24    0.18 
  -5   3   7    0.97    0.16 
  -4   3   7   28.67    0.89 
  -3   3   7    6.54    0.31 
  -2   3   7    5.54    0.27 
   1  -3  -7    5.35    0.63 
  -1   3   7    4.59    0.23 
   0  -3  -7   18.52    1.06 
   0   3   7   18.10    0.57 
  -1  -3  -7  102.67    3.10 
  -1  -3  -7  104.69    3.87 
   1   3   7  102.38    2.58 
  -2  -3  -7    1.34    0.14 
  -2  -3  -7    1.07    0.29 
   2   3   7    0.88    0.10 
  -3  -3  -7   75.30    2.94 
  -3  -3  -7   77.02    2.41 
  -4  -3  -7    6.13    0.54 
   4   3   7    7.00    0.23 
  -5  -3  -7    1.45    0.33 
   5   3   7    1.41    0.07 
  -6  -3  -7   11.71    0.81 
   6   3   7   11.94    0.32 
  -7  -3  -7   15.25    1.00 
  -8  -3  -7   10.74    0.86 
  -9  -3  -7    1.43    0.44 
 -10  -3  -7    3.61    0.64 
 -11  -3  -7   13.39    1.15 
 -12  -3  -7    0.75    0.46 
 -14  -3  -7    0.79    0.60 
 -15  -3  -7    0.36    0.56 
 -16  -3  -7   -0.47    0.51 
 -12   4   7    0.17    0.63 
 -11   4   7    0.15    0.10 
 -10   4   7    0.22    0.13 
  -9   4   7   -0.13    0.10 
  -8   4   7    4.69    0.33 
  -7   4   7    2.08    0.26 
  -6   4   7    0.08    0.11 
  -5   4   7    4.44    0.29 
  -4   4   7    2.22    0.23 
  -3   4   7   28.60    0.90 
  -2   4   7    1.74    0.19 
   1  -4  -7   17.17    1.08 
  -1   4   7   17.79    0.60 
   0  -4  -7    1.41    0.34 
   0   4   7    1.65    0.16 
  -1  -4  -7    3.53    0.50 
   1   4   7    3.17    0.18 
  -2  -4  -7   23.99    1.27 
  -2  -4  -7   26.33    0.84 
  -3  -4  -7    8.34    0.38 
  -3  -4  -7    7.67    0.62 
  -4  -4  -7   57.99    1.89 
  -4  -4  -7   55.77    2.34 
  -5  -4  -7   74.55    2.94 
   5   4   7   74.21    1.85 
  -6  -4  -7    1.08    0.33 
   6   4   7    0.97    0.06 
  -7  -4  -7    2.65    0.49 
   7   4   7    2.32    0.08 
  -8  -4  -7    0.11    0.27 
  -9  -4  -7    0.04    0.24 
 -10  -4  -7    3.05    0.60 
 -11  -4  -7    7.82    0.96 
 -12  -4  -7    0.86    0.50 
 -13  -4  -7    0.16    0.40 
 -14  -4  -7    1.90    0.67 
 -15  -4  -7    0.08    0.55 
 -16  -4  -7    0.13    0.60 
 -11   5   7    0.28    0.11 
 -10   5   7    0.17    0.11 
  -9   5   7    0.76    0.17 
  -8   5   7    1.36    0.23 
  -7   5   7    2.76    0.31 
  -6   5   7    0.19    0.12 
  -5   5   7    1.89    0.25 
  -4   5   7    3.24    0.30 
  -3   5   7    8.92    0.42 
  -2   5   7    6.54    0.34 
   1  -5  -7    0.89    0.29 
   1  -5  -7    0.90    0.15 
   0  -5  -7    1.89    0.41 
   0  -5  -7    2.39    0.23 
  -1  -5  -7    0.00    0.15 
  -1  -5  -7    0.06    0.06 
  -2  -5  -7    6.32    0.59 
  -2  -5  -7    7.37    0.32 
  -3  -5  -7   16.50    0.56 
  -3  -5  -7   14.50    0.93 
  -3  -5  -7   15.19    0.53 
  -4  -5  -7   36.20    1.69 
  -4  -5  -7   36.29    1.25 
  -4  -5  -7   37.33    1.03 
  -5  -5  -7    0.24    0.20 
  -5  -5  -7    0.52    0.08 
  -6  -5  -7    0.20    0.04 
  -6  -5  -7    0.49    0.24 
  -7  -5  -7    0.47    0.28 
  -7  -5  -7    0.56    0.06 
  -8  -5  -7   25.42    1.45 
  -9  -5  -7    0.81    0.37 
 -10  -5  -7    3.44    0.67 
 -11  -5  -7    1.45    0.54 
 -12  -5  -7    0.89    0.48 
 -13  -5  -7    0.49    0.50 
 -14  -5  -7    0.52    0.49 
 -15  -5  -7    0.23    0.62 
 -16  -5  -7    0.47    0.68 
 -10   6   7    0.72    0.16 
  -9   6   7   -0.07    0.13 
  -8   6   7    0.81    0.19 
  -7   6   7    0.34    0.13 
  -6   6   7    0.10    0.12 
  -5   6   7    4.55    0.32 
  -4   6   7    0.86    0.18 
  -3   6   7    4.97    0.33 
   2  -6  -7    1.06    0.19 
   1  -6  -7    3.88    0.63 
   1  -6  -7    3.49    0.26 
   0  -6  -7    0.18    0.06 
   0  -6  -7    0.10    0.18 
  -1  -6  -7   11.70    0.47 
  -1  -6  -7   10.72    0.83 
  -2  -6  -7   63.30    2.71 
  -2  -6  -7   66.76    1.78 
  -3  -6  -7    0.66    0.11 
  -3  -6  -7    0.72    0.27 
  -4  -6  -7    0.12    0.13 
  -4  -6  -7    0.16    0.05 
  -4  -6  -7    0.10    0.05 
  -5  -6  -7   52.56    2.26 
  -5  -6  -7   50.73    1.38 
  -6  -6  -7    1.52    0.11 
  -6  -6  -7    1.57    0.35 
  -7  -6  -7    6.85    0.26 
  -7  -6  -7    6.14    0.72 
  -8  -6  -7   13.65    0.97 
  -8  -6  -7   11.85    0.38 
  -9  -6  -7    2.77    0.59 
 -10  -6  -7   27.83    1.66 
 -11  -6  -7    1.31    0.53 
 -12  -6  -7    1.28    0.56 
 -13  -6  -7    0.09    0.50 
 -14  -6  -7    0.44    0.56 
 -15  -6  -7    1.52    0.70 
 -16  -6  -7    0.12    0.72 
 -10   7   7    0.32    0.14 
  -9   7   7    0.41    0.14 
  -8   7   7    0.37    0.14 
  -7   7   7    0.67    0.18 
  -6   7   7    0.43    0.15 
  -5   7   7    2.04    0.28 
  -4   7   7    4.75    0.34 
   3  -7  -7    0.88    0.20 
   2  -7  -7   11.21    0.53 
   1  -7  -7    8.01    0.94 
   1  -7  -7    6.31    0.38 
   0  -7  -7    0.07    0.09 
   0  -7  -7    0.28    0.17 
  -1  -7  -7    0.71    0.27 
  -1  -7  -7    1.10    0.16 
  -2  -7  -7    1.57    0.38 
  -2  -7  -7    1.54    0.19 
  -3  -7  -7    8.87    0.72 
  -3  -7  -7    8.74    0.39 
  -4  -7  -7    5.87    0.29 
  -4  -7  -7    5.70    0.57 
  -5  -7  -7    1.57    0.35 
  -5  -7  -7    1.16    0.14 
  -6  -7  -7    2.08    0.15 
  -6  -7  -7    1.92    0.41 
  -7  -7  -7    1.14    0.38 
  -7  -7  -7    1.58    0.15 
  -8  -7  -7    0.23    0.30 
  -8  -7  -7    0.34    0.06 
  -9  -7  -7    0.80    0.37 
 -10  -7  -7    1.09    0.46 
 -11  -7  -7    0.38    0.42 
 -12  -7  -7    0.94    0.52 
 -13  -7  -7    2.68    0.76 
 -14  -7  -7    0.42    0.54 
 -15  -7  -7   -0.26    0.60 
 -16  -7  -7   -0.51    0.61 
  -9   8   7   -0.10    0.08 
  -8   8   7    0.12    0.11 
  -7   8   7    0.18    0.12 
  -6   8   7    0.18    0.12 
  -5   8   7    0.60    0.17 
   4  -8  -7    0.11    0.10 
   3  -8  -7    1.48    0.23 
   2  -8  -7    0.30    0.11 
   1  -8  -7    0.18    0.10 
   0  -8  -7    0.48    0.14 
   0  -8  -7    0.72    0.37 
  -1  -8  -7    3.87    0.34 
  -1  -8  -7    3.85    0.66 
  -2  -8  -7    5.47    0.71 
  -2  -8  -7    3.61    0.26 
  -3  -8  -7    4.30    0.63 
  -3  -8  -7    4.22    0.26 
  -4  -8  -7    2.29    0.47 
  -4  -8  -7    2.60    0.24 
  -5  -8  -7    4.04    0.62 
  -5  -8  -7    5.54    0.29 
  -6  -8  -7    0.46    0.09 
  -6  -8  -7    0.34    0.29 
  -7  -8  -7    5.60    0.27 
  -7  -8  -7    6.56    0.79 
  -8  -8  -7   15.12    0.52 
  -8  -8  -7   15.19    1.10 
  -9  -8  -7    0.36    0.06 
  -9  -8  -7    0.03    0.29 
 -10  -8  -7    1.39    0.53 
 -11  -8  -7   -0.07    0.35 
 -12  -8  -7    1.34    0.59 
 -13  -8  -7    0.69    0.55 
 -14  -8  -7    0.04    0.54 
 -15  -8  -7    0.75    0.64 
 -16  -8  -7   -0.15    0.71 
  -8   9   7    0.74    0.17 
  -7   9   7    0.04    0.12 
  -6   9   7    0.43    0.17 
  -5   9   7    0.49    0.18 
   4  -9  -7    2.74    0.35 
   3  -9  -7    0.19    0.13 
   2  -9  -7    0.88    0.20 
   1  -9  -7    4.84    0.42 
   0  -9  -7    0.50    0.42 
   0  -9  -7    0.41    0.14 
  -1  -9  -7    0.02    0.29 
  -1  -9  -7   -0.04    0.08 
  -2  -9  -7    2.68    0.60 
  -2  -9  -7    2.35    0.27 
  -3  -9  -7    0.08    0.10 
  -3  -9  -7    0.13    0.27 
  -4  -9  -7   17.98    1.16 
  -4  -9  -7   15.31    0.62 
  -5  -9  -7    6.62    0.34 
  -5  -9  -7    6.60    0.81 
  -6  -9  -7    0.12    0.25 
  -6  -9  -7    0.29    0.08 
  -7  -9  -7    2.89    0.58 
  -7  -9  -7    2.73    0.24 
  -8  -9  -7   10.31    0.91 
  -8  -9  -7   10.98    0.43 
  -9  -9  -7    2.31    0.57 
  -9  -9  -7    2.21    0.15 
 -10  -9  -7    1.69    0.55 
 -11  -9  -7    0.89    0.48 
 -12  -9  -7    0.00    0.39 
 -13  -9  -7    0.51    0.54 
 -14  -9  -7    0.60    0.56 
 -15  -9  -7    0.45    0.59 
 -16  -9  -7    0.73    0.63 
  -7  10   7    0.27    0.13 
  -6  10   7    0.35    0.15 
   5 -10  -7    0.32    0.12 
   4 -10  -7    0.05    0.10 
   3 -10  -7    0.38    0.13 
   2 -10  -7    3.01    0.35 
   1 -10  -7    1.56    0.24 
   0 -10  -7    1.60    0.59 
   0 -10  -7    1.04    0.22 
  -1 -10  -7    4.65    0.34 
  -1 -10  -7    5.95    0.96 
  -2 -10  -7    3.96    0.75 
  -2 -10  -7    3.89    0.37 
  -3 -10  -7    0.21    0.33 
  -3 -10  -7    0.03    0.10 
  -4 -10  -7    4.75    0.77 
  -4 -10  -7    4.34    0.31 
  -5 -10  -7    0.61    0.16 
  -5 -10  -7    0.98    0.41 
  -6 -10  -7    1.05    0.42 
  -6 -10  -7    1.34    0.20 
  -7 -10  -7   -0.11    0.25 
  -7 -10  -7    0.04    0.06 
  -8 -10  -7    1.95    0.21 
  -8 -10  -7    1.93    0.53 
  -9 -10  -7    2.12    0.20 
  -9 -10  -7    2.25    0.57 
 -10 -10  -7   -0.20    0.36 
 -11 -10  -7    0.05    0.41 
 -12 -10  -7    0.18    0.50 
 -13 -10  -7    0.03    0.51 
 -14 -10  -7    0.78    0.59 
 -15 -10  -7   -0.49    0.51 
 -16 -10  -7   -0.26    0.52 
  -6  11   7    0.20    0.14 
   5 -11  -7    0.06    0.11 
   4 -11  -7    0.81    0.18 
   3 -11  -7    0.45    0.15 
   2 -11  -7    2.93    0.37 
   1 -11  -7    0.71    0.19 
   0 -11  -7    0.90    0.22 
  -1 -11  -7    1.46    0.26 
  -1 -11  -7    1.26    0.58 
  -2 -11  -7    0.10    0.34 
  -2 -11  -7    0.00    0.12 
  -3 -11  -7    3.76    0.36 
  -3 -11  -7    5.64    0.87 
  -4 -11  -7   18.49    1.27 
  -4 -11  -7   17.15    0.71 
  -5 -11  -7    6.26    0.38 
  -5 -11  -7    7.91    0.96 
  -6 -11  -7    0.43    0.16 
  -6 -11  -7    0.73    0.42 
  -7 -11  -7    0.49    0.14 
  -7 -11  -7    0.66    0.41 
  -8 -11  -7    1.17    0.48 
  -8 -11  -7    1.31    0.19 
  -9 -11  -7   -0.13    0.26 
  -9 -11  -7   -0.02    0.08 
 -10 -11  -7    4.23    0.83 
 -11 -11  -7    3.49    0.81 
 -12 -11  -7    0.21    0.48 
 -13 -11  -7    2.20    0.72 
 -14 -11  -7    0.41    0.55 
 -15 -11  -7    0.52    0.55 
 -16 -11  -7    0.96    0.58 
   5 -12  -7    0.06    0.11 
   4 -12  -7    0.18    0.11 
   3 -12  -7    0.12    0.10 
   2 -12  -7    1.92    0.29 
   1 -12  -7    0.46    0.14 
   0 -12  -7    0.80    0.21 
  -1 -12  -7    0.31    0.15 
  -1 -12  -7    0.01    0.42 
  -2 -12  -7    0.33    0.15 
  -2 -12  -7    0.93    0.48 
  -3 -12  -7    4.36    0.42 
  -3 -12  -7    6.57    0.97 
  -4 -12  -7    1.15    0.23 
  -4 -12  -7    0.97    0.52 
  -5 -12  -7    1.44    0.24 
  -5 -12  -7    1.71    0.56 
  -6 -12  -7    9.25    0.49 
  -6 -12  -7    9.98    0.94 
  -7 -12  -7    0.65    0.15 
  -7 -12  -7    0.98    0.48 
  -8 -12  -7    1.38    0.21 
  -8 -12  -7    0.93    0.47 
  -9 -12  -7    0.29    0.42 
  -9 -12  -7    0.33    0.12 
 -10 -12  -7    0.02    0.41 
 -11 -12  -7    0.67    0.47 
 -12 -12  -7   -0.01    0.52 
 -13 -12  -7    0.79    0.64 
 -14 -12  -7    2.20    0.71 
 -15 -12  -7    1.12    0.63 
 -16 -12  -7    0.99    0.51 
   4 -13  -7   -0.18    0.09 
   3 -13  -7   -0.14    0.10 
   2 -13  -7    1.42    0.23 
   1 -13  -7    0.09    0.11 
   0 -13  -7    0.13    0.14 
  -1 -13  -7    0.10    0.13 
  -2 -13  -7   -0.03    0.47 
  -2 -13  -7    0.07    0.14 
  -3 -13  -7    0.30    0.41 
  -3 -13  -7    0.08    0.14 
  -4 -13  -7    0.36    0.15 
  -4 -13  -7    0.95    0.49 
  -5 -13  -7    1.85    0.65 
  -5 -13  -7    2.12    0.30 
  -6 -13  -7   -0.12    0.11 
  -6 -13  -7    0.04    0.42 
  -7 -13  -7    1.01    0.51 
  -7 -13  -7    1.12    0.21 
  -8 -13  -7    0.31    0.46 
  -8 -13  -7    0.21    0.11 
  -9 -13  -7    0.27    0.42 
  -9 -13  -7    0.11    0.11 
 -10 -13  -7    0.20    0.07 
 -10 -13  -7    0.22    0.53 
 -11 -13  -7    0.49    0.46 
 -12 -13  -7   -0.20    0.49 
 -13 -13  -7    0.07    0.42 
 -14 -13  -7    0.61    0.58 
 -15 -13  -7    1.07    0.63 
   3 -14  -7   -0.07    0.11 
   2 -14  -7    0.56    0.17 
   1 -14  -7    0.60    0.16 
   0 -14  -7    0.18    0.10 
  -1 -14  -7    1.65    0.28 
  -2 -14  -7    1.20    0.26 
  -3 -14  -7   -0.08    0.14 
  -3 -14  -7    0.54    0.52 
  -4 -14  -7    1.48    0.28 
  -4 -14  -7    1.85    0.63 
  -5 -14  -7    0.15    0.40 
  -5 -14  -7    0.37    0.14 
  -6 -14  -7    0.42    0.46 
  -6 -14  -7    0.14    0.15 
  -7 -14  -7    0.24    0.47 
  -7 -14  -7    0.39    0.16 
  -8 -14  -7    0.17    0.13 
  -8 -14  -7    0.22    0.44 
  -9 -14  -7    0.29    0.47 
  -9 -14  -7    0.39    0.13 
 -10 -14  -7    0.31    0.09 
 -10 -14  -7   -0.12    0.39 
 -11 -14  -7    0.17    0.47 
 -12 -14  -7    0.20    0.52 
 -13 -14  -7    0.15    0.49 
 -14 -14  -7    0.45    0.52 
 -15 -14  -7    0.68    0.44 
   1 -15  -7    0.27    0.15 
   0 -15  -7   -0.06    0.11 
  -1 -15  -7    0.21    0.14 
  -2 -15  -7    0.08    0.16 
  -3 -15  -7    0.32    0.15 
  -4 -15  -7    1.42    0.30 
  -5 -15  -7    0.13    0.15 
  -6 -15  -7    0.05    0.45 
  -6 -15  -7    0.46    0.16 
  -7 -15  -7    0.59    0.17 
  -7 -15  -7    0.37    0.45 
  -8 -15  -7    0.38    0.13 
  -8 -15  -7    0.25    0.49 
  -9 -15  -7    0.73    0.54 
  -9 -15  -7    0.30    0.13 
 -10 -15  -7    0.46    0.53 
 -10 -15  -7    0.10    0.12 
 -11 -15  -7    0.09    0.51 
 -12 -15  -7    0.36    0.50 
 -13 -15  -7    0.72    0.53 
 -14 -15  -7    1.04    0.55 
  -1 -16  -7    0.20    0.13 
  -2 -16  -7    0.09    0.14 
  -3 -16  -7    0.13    0.14 
  -4 -16  -7    0.11    0.16 
  -5 -16  -7   -0.19    0.13 
  -6 -16  -7    0.04    0.12 
  -7 -16  -7    0.20    0.15 
  -8 -16  -7    0.35    0.15 
  -9 -16  -7    0.10    0.14 
 -11 -16  -7    1.14    0.45 
 -12 -16  -7   -0.12    0.38 
  -3 -17  -7    0.53    0.18 
  -4 -17  -7    0.36    0.16 
  -5 -17  -7   -0.01    0.13 
  -6 -17  -7    0.05    0.13 
  -7 -17  -7    0.57    0.17 
  -8 -17  -7    0.94    0.18 
  -9 -17  -7    1.05    0.22 
 -10 -17  -7    0.65    0.14 
  -7 -16   8    0.34    0.13 
  -6 -16   8    0.94    0.19 
  -5 -16   8    0.15    0.13 
  -4 -16   8    0.44    0.17 
  -3 -16   8    0.20    0.09 
 -10 -15   8    0.09    0.10 
  -9 -15   8    0.25    0.14 
  -8 -15   8    0.24    0.12 
  -7 -15   8    0.22    0.11 
  -6 -15   8    0.36    0.13 
  -5 -15   8    0.08    0.11 
  -4 -15   8    0.19    0.08 
  -3 -15   8    0.43    0.12 
   2  15  -8    0.10    0.34 
  -2 -15   8    0.31    0.11 
   1  15  -8    0.45    0.39 
  -1 -15   8    0.44    0.12 
   0  15  -8   -0.08    0.34 
   0 -15   8    0.52    0.15 
 -11 -14   8    0.51    0.14 
 -10 -14   8    0.36    0.13 
  -9 -14   8    1.06    0.22 
  -8 -14   8   -0.01    0.09 
  -7 -14   8    0.36    0.16 
  -6 -14   8    0.09    0.13 
  -5 -14   8    0.54    0.15 
  -4 -14   8   -0.04    0.08 
  -3 -14   8    0.01    0.07 
   2  14  -8    0.52    0.36 
  -2 -14   8   -0.02    0.08 
   1  14  -8    0.28    0.35 
  -1 -14   8    0.46    0.13 
   0  14  -8    0.12    0.30 
   0 -14   8    0.21    0.11 
  -1  14  -8   -0.04    0.28 
   1 -14   8   -0.17    0.10 
  -2  14  -8    0.54    0.40 
   2 -14   8    0.14    0.12 
 -12 -13   8    0.43    0.16 
 -11 -13   8    0.13    0.13 
 -10 -13   8    0.02    0.14 
  -9 -13   8    0.11    0.11 
  -8 -13   8    0.04    0.11 
  -7 -13   8    0.21    0.13 
  -6 -13   8    0.87    0.19 
  -5 -13   8    0.26    0.11 
  -4 -13   8    0.16    0.09 
  -3 -13   8    0.24    0.10 
   2  13  -8    0.26    0.29 
  -2 -13   8    0.05    0.08 
   1  13  -8    0.24    0.29 
  -1 -13   8    0.45    0.11 
   0  13  -8    0.85    0.36 
   0 -13   8    1.26    0.20 
  -1  13  -8    0.74    0.38 
   1 -13   8    0.77    0.16 
  -2  13  -8    0.30    0.33 
   2 -13   8    0.28    0.11 
  -3  13  -8    0.16    0.32 
   3 -13   8    0.07    0.11 
  -4  13  -8    0.20    0.38 
   4 -13   8    0.06    0.08 
 -13 -12   8    0.06    0.14 
 -12 -12   8    0.19    0.15 
 -11 -12   8    0.31    0.15 
 -10 -12   8    0.10    0.11 
  -9 -12   8    0.47    0.15 
  -8 -12   8    0.09    0.10 
  -7 -12   8    1.05    0.21 
  -6 -12   8    0.40    0.13 
  -5 -12   8    0.54    0.15 
  -4 -12   8    0.12    0.08 
  -3 -12   8    0.58    0.14 
   2  12  -8    0.46    0.30 
  -2 -12   8    0.62    0.15 
   1  12  -8    0.12    0.25 
  -1 -12   8    0.26    0.09 
   0  12  -8   -0.20    0.20 
   0 -12   8    0.08    0.12 
  -1  12  -8    1.10    0.38 
   1 -12   8    1.33    0.21 
  -2  12  -8    0.12    0.27 
   2 -12   8    0.09    0.10 
  -3  12  -8    0.79    0.38 
   3 -12   8    1.14    0.22 
  -4  12  -8    0.10    0.33 
   4 -12   8   -0.11    0.08 
  -5  12  -8    0.03    0.38 
 -13 -11   8    0.13    0.22 
 -12 -11   8    0.03    0.20 
 -11 -11   8   -0.11    0.19 
 -10 -11   8   -0.25    0.16 
  -9 -11   8   -0.08    0.16 
  -8 -11   8    0.18    0.15 
  -7 -11   8    1.44    0.26 
  -6 -11   8    0.17    0.10 
  -5 -11   8    0.92    0.20 
  -4 -11   8    0.69    0.17 
   3  11  -8    1.84    0.42 
  -3 -11   8    1.93    0.26 
   2  11  -8    1.32    0.37 
  -2 -11   8    1.57    0.22 
   1  11  -8   -0.02    0.20 
  -1 -11   8    0.13    0.08 
   0  11  -8    1.61    0.38 
   0 -11   8    1.55    0.24 
  -1  11  -8    0.75    0.31 
   1 -11   8    0.85    0.17 
  -2  11  -8    0.39    0.29 
   2 -11   8    0.45    0.13 
  -3  11  -8    0.46    0.36 
   3 -11   8    0.50    0.15 
  -4  11  -8   -0.14    0.26 
   4 -11   8    0.15    0.09 
  -5  11  -8   -0.04    0.30 
   5 -11   8   -0.05    0.07 
  -6  11  -8    0.19    0.38 
  -7  11  -8    0.13    0.43 
 -14 -10   8    0.61    0.33 
 -13 -10   8   -0.32    0.31 
 -12 -10   8   -0.37    0.27 
 -11 -10   8   -0.28    0.28 
 -10 -10   8   -0.08    0.23 
  -9 -10   8    0.16    0.22 
  -8 -10   8    0.14    0.18 
  -7 -10   8    0.05    0.15 
  -6 -10   8    0.34    0.17 
  -5 -10   8    0.13    0.12 
  -4 -10   8    1.18    0.22 
   3  10  -8    2.78    0.50 
  -3 -10   8    2.33    0.29 
   2  10  -8    0.68    0.29 
  -2 -10   8    0.63    0.15 
   1  10  -8    2.42    0.45 
  -1 -10   8    2.61    0.30 
   0  10  -8    0.20    0.23 
   0 -10   8    0.08    0.08 
  -1  10  -8    0.43    0.27 
   1 -10   8    0.45    0.13 
  -2  10  -8    0.12    0.26 
   2 -10   8    0.12    0.08 
  -3  10  -8    1.25    0.41 
   3 -10   8    1.91    0.26 
  -4  10  -8   -0.10    0.25 
   4 -10   8    0.12    0.09 
  -5  10  -8   -0.11    0.29 
   5 -10   8    0.17    0.08 
  -6  10  -8    0.30    0.34 
  -7  10  -8    0.29    0.34 
  -8  10  -8    0.10    0.41 
 -14  -9   8    0.01    0.48 
 -14  -9   8    0.50    0.10 
 -13  -9   8    0.69    0.16 
 -13  -9   8    0.33    0.53 
 -12  -9   8    0.39    0.15 
 -12  -9   8    0.17    0.54 
 -11  -9   8    0.06    0.15 
 -11  -9   8   -0.10    0.49 
 -10  -9   8    0.55    0.17 
 -10  -9   8    0.17    0.42 
  -9  -9   8    0.19    0.12 
  -8  -9   8    0.61    0.18 
  -7  -9   8    1.13    0.28 
  -6  -9   8   -0.42    0.15 
  -5  -9   8   -0.20    0.12 
  -4  -9   8    6.74    0.41 
   3   9  -8    2.80    0.48 
  -3  -9   8    2.86    0.30 
   2   9  -8    0.70    0.27 
  -2  -9   8    0.75    0.16 
   1   9  -8    4.80    0.56 
  -1  -9   8    4.51    0.31 
   0   9  -8    2.03    0.40 
   0  -9   8    1.71    0.24 
  -1   9  -8    1.62    0.37 
   1  -9   8    1.78    0.23 
  -2   9  -8    0.27    0.25 
   2  -9   8    0.28    0.10 
  -3   9  -8    0.25    0.28 
   3  -9   8    0.61    0.13 
  -4   9  -8    0.15    0.27 
   4  -9   8    0.05    0.07 
  -5   9  -8    0.49    0.33 
   5  -9   8    0.73    0.13 
  -6   9  -8    1.30    0.44 
  -7   9  -8    0.20    0.31 
  -8   9  -8    0.42    0.40 
  -9   9  -8    1.12    0.50 
 -14  -8   8    0.33    0.10 
 -14  -8   8    0.21    0.54 
 -13  -8   8    1.03    0.20 
 -13  -8   8   -0.69    0.49 
 -12  -8   8    1.66    0.26 
 -12  -8   8    0.48    0.56 
 -11  -8   8   -0.33    0.47 
 -11  -8   8    0.20    0.16 
 -10  -8   8    0.62    0.20 
 -10  -8   8    0.56    0.51 
  -9  -8   8    1.37    0.56 
  -9  -8   8    1.65    0.27 
  -8  -8   8    2.18    0.54 
  -8  -8   8    2.19    0.29 
   3   8  -8   11.97    0.80 
  -3  -8   8   11.00    0.52 
   2   8  -8    3.55    0.50 
  -2  -8   8    2.81    0.29 
   1   8  -8    8.57    0.63 
  -1  -8   8    8.21    0.42 
   0   8  -8    4.02    0.51 
   0  -8   8    3.89    0.32 
  -1   8  -8    2.03    0.38 
   1  -8   8    2.20    0.25 
  -2   8  -8    2.33    0.44 
   2  -8   8    3.09    0.30 
  -3   8  -8   15.78    0.99 
   3  -8   8   15.29    0.63 
  -4   8  -8   -0.04    0.22 
   4  -8   8   -0.07    0.08 
  -5   8  -8    1.24    0.40 
   5  -8   8    1.55    0.20 
  -7   8  -8   -0.16    0.28 
  -8   8  -8    0.06    0.31 
  -9   8  -8   -0.07    0.36 
 -10   8  -8   -0.07    0.40 
 -14  -7   8    0.57    0.11 
 -14  -7   8   -0.01    0.48 
 -13  -7   8    0.55    0.15 
 -13  -7   8   -0.17    0.51 
 -12  -7   8   -0.09    0.49 
 -12  -7   8    0.28    0.16 
 -11  -7   8    0.13    0.48 
 -11  -7   8    0.32    0.17 
 -10  -7   8    0.13    0.46 
 -10  -7   8    0.33    0.18 
  -9  -7   8    0.07    0.14 
  -9  -7   8   -0.42    0.36 
  -8  -7   8    0.86    0.21 
  -8  -7   8    0.63    0.43 
  -7  -7   8    0.33    0.17 
  -7  -7   8    0.54    0.25 
  -6  -7   8    0.21    0.20 
  -6  -7   8    0.14    0.16 
  -5  -7   8   13.50    0.60 
  -5  -7   8   14.71    0.82 
   2   7  -8   11.15    0.71 
  -2  -7   8    8.96    0.46 
   1   7  -8    7.95    0.59 
  -1  -7   8    7.91    0.40 
   0   7  -8   13.21    0.81 
   0  -7   8   14.47    0.56 
  -1   7  -8    1.02    0.29 
   1  -7   8    1.94    0.22 
  -2   7  -8    0.97    0.30 
   2  -7   8    1.19    0.17 
  -3   7  -8    0.45    0.23 
   3  -7   8    0.33    0.10 
  -4   7  -8    2.66    0.50 
   4  -7   8    2.70    0.26 
  -5   7  -8    0.39    0.31 
   5  -7   8    0.52    0.12 
  -6   7  -8    0.14    0.31 
   6  -7   8   -0.05    0.05 
  -7   7  -8    0.35    0.32 
  -8   7  -8    0.45    0.40 
  -9   7  -8    1.55    0.54 
 -10   7  -8    0.02    0.33 
 -11   7  -8   -0.15    0.40 
 -14  -6   8    0.20    0.44 
 -13  -6   8    0.67    0.17 
 -13  -6   8   -0.32    0.48 
 -12  -6   8    0.44    0.18 
 -12  -6   8   -0.50    0.50 
 -11  -6   8    0.00    0.54 
 -11  -6   8    0.26    0.19 
 -10  -6   8   -0.21    0.14 
 -10  -6   8   -0.39    0.34 
  -9  -6   8    4.99    0.37 
  -8  -6   8    0.80    0.22 
  -8  -6   8    1.30    0.46 
  -7  -6   8    9.58    0.75 
  -7  -6   8    9.58    0.50 
  -6  -6   8    2.52    0.45 
  -6  -6   8    1.55    0.25 
  -5  -6   8    0.35    0.21 
  -5  -6   8    0.11    0.14 
  -4  -6   8   -0.05    0.11 
  -3  -6   8    2.03    0.24 
   2   6  -8    0.92    0.28 
  -2  -6   8    1.07    0.17 
   1   6  -8    2.52    0.37 
  -1  -6   8    1.97    0.22 
   0   6  -8   10.95    0.70 
   0  -6   8   12.23    0.50 
  -1   6  -8    1.34    0.31 
   1  -6   8    1.88    0.21 
  -2   6  -8    4.68    0.53 
   2  -6   8    4.62    0.26 
  -3   6  -8   12.51    0.83 
   3  -6   8   13.04    0.51 
  -4   6  -8    1.79    0.38 
   4  -6   8    1.66    0.19 
  -5   6  -8    7.61    0.78 
   5  -6   8    5.09    0.28 
  -6   6  -8    2.68    0.53 
   6  -6   8    2.40    0.17 
  -7   6  -8    3.84    0.65 
  -8   6  -8    0.54    0.37 
  -9   6  -8    0.10    0.35 
 -10   6  -8   -0.03    0.32 
 -11   6  -8   -0.22    0.33 
 -14  -5   8    0.23    0.49 
 -13  -5   8   -0.02    0.54 
 -13  -5   8    0.69    0.18 
 -12  -5   8    0.66    0.59 
 -12  -5   8    0.23    0.17 
 -11  -5   8    0.24    0.47 
 -11  -5   8   -0.14    0.14 
 -10  -5   8    0.64    0.19 
 -10  -5   8    0.34    0.50 
  -9  -5   8    8.29    0.46 
  -8  -5   8    0.55    0.43 
  -8  -5   8    0.14    0.17 
  -7  -5   8    0.99    0.23 
  -6  -5   8    6.50    0.39 
  -5  -5   8    7.09    0.41 
  -4  -5   8    0.21    0.14 
  -3  -5   8    2.58    0.24 
   2   5  -8    0.85    0.22 
  -2  -5   8    0.72    0.14 
   1   5  -8    4.42    0.45 
  -1  -5   8    4.03    0.25 
   0   5  -8    0.13    0.11 
   0  -5   8    0.03    0.11 
  -1   5  -8    1.00    0.23 
   1  -5   8    1.30    0.18 
  -2   5  -8    8.56    0.62 
  -2   5  -8    8.88    0.43 
   2  -5   8    9.65    0.39 
  -3   5  -8    5.77    0.60 
  -3   5  -8    7.27    0.39 
   3  -5   8    6.51    0.31 
  -4   5  -8    0.22    0.22 
   4  -5   8    0.05    0.05 
  -5   5  -8    0.69    0.31 
   5  -5   8    0.82    0.11 
  -6   5  -8    0.89    0.34 
   6  -5   8    0.59    0.09 
  -7   5  -8   -0.09    0.25 
  -8   5  -8    0.58    0.34 
  -9   5  -8    1.26    0.44 
 -10   5  -8    0.65    0.39 
 -11   5  -8    0.16    0.34 
 -12   5  -8    0.34    0.41 
 -14  -4   8    0.28    0.46 
 -13  -4   8    0.61    0.17 
 -13  -4   8   -0.45    0.52 
 -12  -4   8    0.75    0.21 
 -12  -4   8    0.04    0.51 
 -11  -4   8    0.18    0.17 
 -11  -4   8   -0.13    0.47 
 -10  -4   8    0.18    0.50 
 -10  -4   8    0.52    0.18 
  -9  -4   8    0.44    0.19 
  -8  -4   8    6.62    0.40 
  -7  -4   8    0.13    0.16 
  -6  -4   8    0.77    0.20 
  -5  -4   8    1.88    0.24 
  -4  -4   8    4.86    0.30 
  -3  -4   8    0.47    0.13 
   2   4  -8    0.06    0.10 
  -2  -4   8    0.11    0.09 
   1   4  -8    1.16    0.24 
  -1  -4   8    0.92    0.15 
   0   4  -8   26.93    1.15 
   0  -4   8   26.59    0.82 
  -1   4  -8    4.95    0.41 
  -1   4  -8    4.99    0.33 
   1  -4   8    4.85    0.26 
  -2   4  -8    5.45    0.45 
  -2   4  -8    5.64    0.36 
   2  -4   8    6.02    0.29 
  -3   4  -8   20.92    1.10 
  -3   4  -8   25.66    1.04 
   3  -4   8   25.53    0.76 
  -4   4  -8    0.46    0.16 
  -4   4  -8    0.24    0.20 
  -5   4  -8    3.69    0.55 
  -5   4  -8    3.81    0.37 
   5  -4   8    3.45    0.20 
  -6   4  -8    0.97    0.27 
  -6   4  -8    0.97    0.35 
   6  -4   8    0.85    0.10 
  -7   4  -8    2.99    0.44 
  -7   4  -8    2.56    0.51 
  -8   4  -8    0.85    0.37 
  -9   4  -8    0.29    0.31 
 -10   4  -8    0.39    0.37 
 -11   4  -8   -0.17    0.32 
 -12   4  -8    0.18    0.35 
 -13   4  -8   -0.06    0.38 
 -14  -3   8   -0.23    0.41 
 -13  -3   8   -0.04    0.11 
 -13  -3   8   -0.01    0.50 
 -12  -3   8   -0.18    0.53 
 -12  -3   8    0.63    0.20 
 -11  -3   8    1.72    0.26 
 -11  -3   8    0.82    0.52 
 -10  -3   8    0.57    0.20 
  -9  -3   8    2.81    0.30 
  -8  -3   8    0.47    0.19 
  -7  -3   8    3.42    0.31 
  -6  -3   8   15.92    0.61 
  -5  -3   8    0.84    0.18 
  -4  -3   8    0.16    0.11 
  -3  -3   8   36.15    1.07 
  -2  -3   8    1.83    0.20 
   1   3  -8   43.37    1.63 
  -1  -3   8   44.28    1.24 
   0   3  -8    0.33    0.13 
   0   3  -8    0.23    0.14 
   0  -3   8    0.38    0.10 
  -1   3  -8    4.30    0.37 
  -1   3  -8    3.98    0.33 
   1  -3   8    4.02    0.22 
  -2   3  -8    2.70    0.27 
  -2   3  -8    2.28    0.33 
   2  -3   8    2.58    0.16 
  -3   3  -8   31.12    1.29 
  -3   3  -8   31.87    1.23 
   3  -3   8   24.54    0.82 
  -4   3  -8    3.13    0.34 
  -4   3  -8    2.89    0.41 
   4  -3   8    2.37    0.16 
  -5   3  -8    1.86    0.31 
  -5   3  -8    1.14    0.31 
   5  -3   8    1.67    0.15 
  -6   3  -8    4.84    0.47 
  -6   3  -8    4.59    0.60 
   6  -3   8    4.49    0.21 
  -7   3  -8    3.24    0.48 
  -7   3  -8    2.83    0.52 
  -8   3  -8    6.04    0.59 
  -8   3  -8    5.46    0.72 
  -9   3  -8    2.69    0.56 
  -9   3  -8    2.41    0.54 
 -10   3  -8    0.21    0.35 
 -10   3  -8   -0.23    0.23 
 -11   3  -8   -0.14    0.31 
 -12   3  -8    0.22    0.37 
 -13   3  -8    0.03    0.37 
 -14  -2   8    0.96    0.56 
 -13  -2   8   -0.03    0.50 
 -13  -2   8   -0.21    0.09 
 -12  -2   8    0.59    0.19 
 -12  -2   8    0.47    0.55 
 -11  -2   8    0.21    0.46 
 -11  -2   8    1.61    0.25 
 -10  -2   8    0.06    0.16 
  -9  -2   8    0.33    0.18 
  -8  -2   8   12.22    0.54 
  -7  -2   8    1.53    0.24 
  -6  -2   8    5.01    0.31 
  -5  -2   8    1.40    0.19 
  -4  -2   8    3.84    0.26 
  -3  -2   8  102.70    2.63 
  -2  -2   8    0.35    0.12 
   1   2  -8    2.04    0.29 
  -1  -2   8    2.13    0.19 
   0   2  -8    0.20    0.14 
   0   2  -8    0.18    0.13 
   0  -2   8    0.32    0.09 
  -1   2  -8   22.89    1.05 
  -1   2  -8   23.65    1.01 
   1  -2   8   23.39    0.71 
  -2   2  -8    1.13    0.23 
  -2   2  -8    1.14    0.22 
   2  -2   8    1.19    0.13 
  -3   2  -8   38.21    1.44 
  -3   2  -8   37.33    1.44 
   3  -2   8   29.00    0.92 
  -4   2  -8    0.01    0.12 
  -4   2  -8    0.03    0.11 
   4  -2   8    0.05    0.06 
  -5   2  -8    2.69    0.37 
  -5   2  -8    2.63    0.41 
   5  -2   8    2.39    0.14 
  -6   2  -8    1.53    0.36 
  -6   2  -8    2.28    0.39 
   6  -2   8    2.12    0.12 
  -7   2  -8   -0.10    0.16 
  -7   2  -8    0.31    0.22 
  -8   2  -8    0.32    0.28 
  -8   2  -8    0.29    0.27 
  -9   2  -8    0.60    0.35 
  -9   2  -8    0.67    0.37 
 -10   2  -8    3.45    0.64 
 -10   2  -8    3.26    0.63 
 -11   2  -8    0.10    0.32 
 -11   2  -8    0.20    0.39 
 -12   2  -8    0.21    0.33 
 -12   2  -8    0.21    0.39 
 -13   2  -8    0.26    0.38 
 -14   2  -8    0.17    0.40 
 -13  -1   8    0.36    0.52 
 -12  -1   8    0.15    0.15 
 -12  -1   8    0.31    0.54 
 -11  -1   8    0.21    0.17 
 -10  -1   8    0.13    0.16 
  -9  -1   8    2.82    0.30 
  -8  -1   8    9.49    0.46 
  -7  -1   8    4.84    0.32 
  -6  -1   8   28.35    0.90 
  -5  -1   8    1.62    0.19 
  -4  -1   8    0.13    0.11 
  -3  -1   8    8.53    0.36 
  -2  -1   8   33.05    0.95 
   1   1  -8    0.48    0.20 
   1   1  -8    0.53    0.14 
  -1  -1   8    0.50    0.11 
   0   1  -8   40.75    1.48 
   0   1  -8   40.89    1.74 
   0  -1   8   41.74    1.13 
  -1   1  -8   15.52    0.81 
  -1   1  -8   14.39    0.70 
   1  -1   8   15.23    0.49 
  -2   1  -8    0.87    0.22 
  -2   1  -8    0.86    0.20 
   2  -1   8    0.84    0.11 
  -3   1  -8    6.73    0.47 
  -3   1  -8    6.29    0.46 
   3  -1   8    6.25    0.25 
  -4   1  -8    1.73    0.31 
  -4   1  -8    1.49    0.30 
   4  -1   8    1.47    0.12 
  -5   1  -8   12.32    0.75 
  -5   1  -8   12.02    0.76 
   5  -1   8   12.41    0.39 
  -6   1  -8    4.12    0.53 
  -6   1  -8    4.50    0.52 
   6  -1   8    4.05    0.17 
  -7   1  -8    6.08    0.64 
  -7   1  -8    5.11    0.63 
  -8   1  -8    5.01    0.63 
  -8   1  -8    5.65    0.70 
  -9   1  -8   17.34    1.16 
  -9   1  -8   19.30    1.19 
 -10   1  -8    1.36    0.46 
 -10   1  -8    1.10    0.39 
 -11   1  -8    0.48    0.39 
 -12   1  -8    0.37    0.41 
 -13   1  -8    0.13    0.44 
 -14   1  -8   -0.06    0.49 
 -14   1  -8    0.44    0.42 
 -13   0   8    0.21    0.59 
 -12   0   8    0.53    0.20 
 -12   0   8    0.92    0.62 
 -11   0   8    0.09    0.16 
 -10   0   8    0.21    0.15 
  -9   0   8    0.20    0.15 
  -8   0   8    0.32    0.16 
  -7   0   8    0.69    0.18 
  -6   0   8    2.67    0.25 
  -5   0   8    6.65    0.33 
  -4   0   8    2.29    0.21 
  -3   0   8   23.14    0.72 
  -2   0   8    0.20    0.08 
   1   0  -8    0.54    0.23 
  -1   0   8    0.66    0.11 
   0   0  -8    1.41    0.31 
   0   0  -8    1.15    0.19 
   0   0   8    1.63    0.14 
  -1   0  -8   19.90    0.83 
  -1   0  -8   20.40    1.03 
   1   0   8   20.02    0.60 
  -2   0  -8    3.95    0.31 
  -2   0  -8    4.01    0.44 
   2   0   8    3.94    0.19 
  -3   0  -8   51.09    2.01 
  -3   0  -8   48.99    1.78 
   3   0   8   48.79    1.28 
  -4   0  -8   13.35    0.79 
  -4   0  -8   13.53    0.73 
   4   0   8   13.67    0.41 
  -5   0  -8    3.78    0.45 
  -5   0  -8    5.00    0.52 
  -6   0  -8    3.83    0.47 
  -6   0  -8    4.71    0.53 
   6   0   8    3.70    0.14 
  -7   0  -8    0.30    0.23 
  -7   0  -8    0.22    0.23 
  -8   0  -8    5.43    0.66 
  -8   0  -8    5.53    0.67 
  -9   0  -8    5.06    0.69 
 -10   0  -8    4.01    0.67 
 -11   0  -8    0.74    0.45 
 -12   0  -8    0.51    0.41 
 -13   0  -8   -0.15    0.38 
 -14   0  -8    0.06    0.46 
 -15   0  -8    0.24    0.49 
 -13   1   8   -0.70    0.75 
 -12   1   8   -0.71    0.50 
 -12   1   8    0.11    0.12 
 -11   1   8    0.50    0.17 
 -10   1   8    0.32    0.16 
  -9   1   8    2.47    0.27 
  -8   1   8    5.74    0.35 
  -7   1   8    5.70    0.34 
  -6   1   8    4.55    0.28 
  -5   1   8    5.25    0.29 
  -4   1   8    0.47    0.10 
  -3   1   8    2.91    0.19 
  -2   1   8   23.72    0.71 
   1  -1  -8    2.52    0.44 
  -1   1   8    1.59    0.14 
   0  -1  -8    0.04    0.14 
   0  -1  -8    0.16    0.08 
   0   1   8    0.19    0.05 
  -1  -1  -8   10.21    0.70 
  -1  -1  -8   10.22    0.50 
   1   1   8   10.92    0.36 
  -2  -1  -8    2.26    0.26 
  -2  -1  -8    1.93    0.35 
   2   1   8    2.09    0.13 
  -3  -1  -8    2.37    0.29 
  -3  -1  -8    2.45    0.38 
   3   1   8    2.47    0.14 
  -4  -1  -8    3.66    0.39 
  -4  -1  -8    4.04    0.47 
   4   1   8    3.38    0.15 
  -5  -1  -8    1.64    0.29 
  -5  -1  -8    1.10    0.29 
   5   1   8    1.63    0.08 
  -6  -1  -8   12.38    0.76 
  -6  -1  -8   12.71    0.84 
   6   1   8   13.50    0.37 
  -7  -1  -8    0.79    0.22 
  -7  -1  -8    0.94    0.31 
  -8  -1  -8    9.01    0.77 
  -9  -1  -8   12.65    0.99 
 -10  -1  -8    6.91    0.84 
 -11  -1  -8   -0.15    0.31 
 -12  -1  -8    0.73    0.46 
 -13  -1  -8    1.08    0.55 
 -14  -1  -8    0.53    0.53 
 -15  -1  -8    0.08    0.52 
 -12   2   8   -0.01    0.11 
 -11   2   8    0.00    0.13 
 -10   2   8   -0.01    0.12 
  -9   2   8    0.03    0.13 
  -8   2   8    2.30    0.26 
  -7   2   8    5.33    0.32 
  -6   2   8    0.07    0.10 
  -5   2   8   15.51    0.58 
  -4   2   8    2.22    0.22 
  -3   2   8   23.56    0.74 
  -2   2   8    0.59    0.10 
   1  -2  -8   -0.07    0.16 
  -1   2   8    0.19    0.05 
   0  -2  -8    4.24    0.54 
   0   2   8    3.63    0.19 
  -1  -2  -8    5.06    0.55 
  -1  -2  -8    5.11    0.29 
   1   2   8    4.58    0.21 
  -2  -2  -8    2.15    0.37 
   2   2   8    1.97    0.12 
  -3  -2  -8  117.71    4.11 
  -3  -2  -8  104.02    3.45 
  -4  -2  -8    6.51    0.56 
  -4  -2  -8    6.91    0.44 
   4   2   8    6.66    0.23 
  -5  -2  -8    2.18    0.39 
  -5  -2  -8    1.78    0.29 
   5   2   8    2.12    0.10 
  -6  -2  -8    0.33    0.21 
  -6  -2  -8    0.43    0.15 
  -7  -2  -8    0.96    0.34 
  -8  -2  -8    1.20    0.40 
  -9  -2  -8    4.02    0.65 
 -10  -2  -8    3.41    0.64 
 -11  -2  -8    0.12    0.31 
 -12  -2  -8    2.30    0.61 
 -13  -2  -8    0.05    0.37 
 -14  -2  -8    0.30    0.48 
 -15  -2  -8   -0.04    0.43 
 -12   3   8    0.11    0.12 
 -11   3   8    0.27    0.15 
 -10   3   8    0.02    0.11 
  -9   3   8    0.18    0.12 
  -8   3   8    1.43    0.21 
  -7   3   8    7.38    0.41 
  -6   3   8    0.48    0.15 
  -5   3   8    3.23    0.28 
  -4   3   8    0.19    0.11 
  -3   3   8    0.14    0.07 
  -2   3   8    1.47    0.16 
   1  -3  -8    1.20    0.36 
  -1   3   8    1.44    0.15 
   0  -3  -8    5.36    0.63 
   0   3   8    4.84    0.23 
  -1  -3  -8    3.67    0.22 
  -1  -3  -8    3.41    0.50 
   1   3   8    3.80    0.19 
  -2  -3  -8    5.59    0.54 
  -2  -3  -8    6.07    0.31 
   2   3   8    5.96    0.24 
  -3  -3  -8    0.38    0.22 
  -3  -3  -8    0.63    0.13 
   3   3   8    0.53    0.06 
  -4  -3  -8    0.06    0.05 
  -4  -3  -8    0.13    0.17 
   4   3   8    0.37    0.05 
  -5  -3  -8    1.39    0.24 
  -5  -3  -8    1.29    0.32 
   5   3   8    1.22    0.07 
  -6  -3  -8    4.93    0.61 
   6   3   8    5.76    0.18 
  -7  -3  -8    1.32    0.35 
  -8  -3  -8   28.83    1.56 
  -9  -3  -8    0.36    0.33 
 -10  -3  -8    0.95    0.44 
 -11  -3  -8    0.94    0.46 
 -12  -3  -8    0.64    0.46 
 -13  -3  -8    0.17    0.44 
 -14  -3  -8    0.64    0.51 
 -15  -3  -8   -0.17    0.54 
 -16  -3  -8    0.12    0.54 
 -11   4   8    0.36    0.15 
 -10   4   8    0.05    0.12 
  -9   4   8    1.83    0.25 
  -8   4   8   -0.11    0.09 
  -7   4   8    0.99    0.20 
  -6   4   8    0.19    0.12 
  -5   4   8    0.87    0.18 
  -4   4   8    0.66    0.15 
  -3   4   8   27.88    0.90 
  -2   4   8    3.03    0.20 
   1  -4  -8   15.80    1.07 
  -1   4   8   17.14    0.58 
   0  -4  -8    2.53    0.47 
   0   4   8    3.45    0.20 
  -1  -4  -8    4.14    0.56 
   1   4   8    3.88    0.20 
  -2  -4  -8   13.43    0.88 
  -2  -4  -8   13.60    0.51 
   2   4   8   14.12    0.46 
  -3  -4  -8    0.14    0.06 
  -3  -4  -8    0.00    0.15 
   3   4   8    0.11    0.03 
  -4  -4  -8   -0.28    0.13 
  -4  -4  -8    0.06    0.06 
   4   4   8    0.09    0.03 
  -5  -4  -8   45.67    1.80 
  -5  -4  -8   56.56    2.30 
   5   4   8   55.53    1.35 
  -6  -4  -8    7.33    0.65 
   6   4   8    7.52    0.24 
  -7  -4  -8   -0.07    0.19 
   7   4   8    0.11    0.02 
  -8  -4  -8    2.96    0.55 
  -9  -4  -8   13.05    1.04 
 -10  -4  -8   21.71    1.42 
 -11  -4  -8   -0.38    0.28 
 -12  -4  -8    2.70    0.69 
 -13  -4  -8   -0.01    0.41 
 -14  -4  -8    0.09    0.44 
 -15  -4  -8    0.04    0.48 
 -16  -4  -8   -0.34    0.54 
 -11   5   8    0.22    0.10 
 -10   5   8    0.20    0.14 
  -9   5   8    0.19    0.15 
  -8   5   8    0.72    0.18 
  -7   5   8    0.73    0.19 
  -6   5   8    0.83    0.18 
  -5   5   8    0.93    0.18 
  -4   5   8    4.34    0.31 
  -3   5   8    3.59    0.31 
  -2   5   8    7.25    0.37 
   1  -5  -8    0.75    0.27 
  -1   5   8    0.75    0.12 
   0  -5  -8   18.07    1.16 
   0   5   8   19.21    0.64 
  -1  -5  -8    2.67    0.49 
   1   5   8    2.35    0.17 
  -2  -5  -8    7.27    0.64 
  -2  -5  -8    7.35    0.33 
  -3  -5  -8    7.13    0.32 
  -3  -5  -8    7.26    0.65 
  -3  -5  -8    7.63    0.32 
  -4  -5  -8   27.50    1.48 
  -4  -5  -8   32.46    1.09 
  -4  -5  -8   30.17    0.88 
  -5  -5  -8    5.07    0.34 
  -5  -5  -8    5.63    0.65 
  -6  -5  -8    1.65    0.40 
   6   5   8    1.64    0.09 
  -7  -5  -8    5.03    0.68 
   7   5   8    6.25    0.21 
  -8  -5  -8    4.92    0.69 
  -9  -5  -8    1.04    0.40 
 -10  -5  -8    1.09    0.45 
 -11  -5  -8    0.45    0.37 
 -12  -5  -8    6.87    0.97 
 -13  -5  -8    0.03    0.40 
 -14  -5  -8    0.30    0.49 
 -15  -5  -8    0.88    0.63 
 -16  -5  -8    0.65    0.67 
 -10   6   8    0.61    0.18 
  -9   6   8    0.08    0.12 
  -8   6   8    0.28    0.13 
  -7   6   8    0.06    0.13 
  -6   6   8    0.61    0.17 
  -5   6   8    0.60    0.17 
  -4   6   8    0.03    0.10 
  -3   6   8    7.78    0.41 
  -2   6   8    1.18    0.20 
   1  -6  -8    0.22    0.29 
   1  -6  -8    0.07    0.11 
   0  -6  -8   35.47    1.83 
   0  -6  -8   35.01    1.11 
  -1  -6  -8   14.13    0.99 
  -1  -6  -8   14.21    0.55 
  -2  -6  -8   32.10    1.65 
  -2  -6  -8   32.90    1.00 
  -3  -6  -8    3.36    0.54 
  -3  -6  -8    2.99    0.20 
  -4  -6  -8    0.02    0.04 
  -4  -6  -8   -0.02    0.11 
  -4  -6  -8    0.18    0.05 
  -5  -6  -8   21.60    0.68 
  -5  -6  -8   21.05    1.22 
  -5  -6  -8   22.56    0.86 
  -6  -6  -8    2.11    0.43 
  -6  -6  -8    1.81    0.13 
  -7  -6  -8    4.28    0.64 
  -7  -6  -8    5.50    0.23 
  -8  -6  -8    1.56    0.09 
  -8  -6  -8    1.63    0.45 
  -9  -6  -8    0.54    0.33 
 -10  -6  -8   -0.23    0.29 
 -11  -6  -8    0.91    0.46 
 -12  -6  -8    0.31    0.40 
 -13  -6  -8    0.34    0.50 
 -14  -6  -8    0.53    0.61 
 -15  -6  -8    0.35    0.56 
 -16  -6  -8    0.11    0.67 
 -10   7   8    0.04    0.11 
  -9   7   8    1.01    0.21 
  -8   7   8    0.28    0.14 
  -7   7   8   -0.15    0.09 
  -6   7   8    0.18    0.13 
  -5   7   8    0.93    0.19 
  -4   7   8    3.64    0.35 
  -3   7   8    2.96    0.32 
   2  -7  -8    0.42    0.14 
   1  -7  -8    4.65    0.39 
   1  -7  -8    4.27    0.80 
   0  -7  -8    5.93    0.84 
   0  -7  -8    5.52    0.34 
  -1  -7  -8    0.02    0.25 
  -1  -7  -8    0.00    0.08 
  -2  -7  -8    4.96    0.69 
  -2  -7  -8    5.53    0.31 
  -3  -7  -8   11.21    0.46 
  -3  -7  -8   11.35    0.85 
  -4  -7  -8    4.45    0.64 
  -4  -7  -8    3.95    0.24 
  -5  -7  -8    0.54    0.25 
  -5  -7  -8    0.69    0.11 
  -5  -7  -8    0.79    0.12 
  -6  -7  -8    4.02    0.22 
  -6  -7  -8    4.30    0.65 
  -7  -7  -8    1.68    0.12 
  -7  -7  -8    1.65    0.46 
  -8  -7  -8    0.40    0.33 
  -8  -7  -8    0.67    0.09 
  -9  -7  -8    7.09    0.90 
 -10  -7  -8    0.61    0.40 
 -11  -7  -8    1.22    0.50 
 -12  -7  -8   -0.08    0.37 
 -13  -7  -8   -0.12    0.45 
 -14  -7  -8    0.40    0.60 
 -15  -7  -8    0.44    0.71 
 -16  -7  -8    0.87    0.87 
  -9   8   8    0.21    0.15 
  -8   8   8    0.92    0.18 
  -7   8   8    0.19    0.13 
  -6   8   8    0.08    0.11 
  -5   8   8    0.04    0.13 
  -4   8   8    0.35    0.16 
   3  -8  -8    4.58    0.43 
   2  -8  -8    1.04    0.20 
   1  -8  -8    4.01    0.37 
   0  -8  -8   10.29    1.11 
   0  -8  -8    9.73    0.50 
  -1  -8  -8    1.22    0.43 
  -1  -8  -8    1.33    0.21 
  -2  -8  -8   12.52    0.97 
  -2  -8  -8   12.56    0.54 
  -3  -8  -8    1.23    0.39 
  -3  -8  -8    1.99    0.22 
  -4  -8  -8    1.44    0.43 
  -4  -8  -8    1.33    0.18 
  -5  -8  -8   12.63    0.96 
  -5  -8  -8   12.70    0.49 
  -6  -8  -8    0.99    0.41 
  -6  -8  -8    1.75    0.18 
  -7  -8  -8    0.68    0.11 
  -7  -8  -8    0.47    0.33 
  -8  -8  -8    1.03    0.13 
  -8  -8  -8    1.49    0.47 
  -9  -8  -8    7.28    0.94 
 -10  -8  -8    2.29    0.59 
 -11  -8  -8    3.25    0.71 
 -12  -8  -8    1.38    0.58 
 -13  -8  -8    0.34    0.49 
 -14  -8  -8    0.77    0.72 
 -15  -8  -8   -0.15    0.66 
 -16  -8  -8    0.00    0.69 
  -8   9   8    0.17    0.12 
  -7   9   8    0.05    0.11 
  -6   9   8    0.14    0.12 
  -5   9   8    0.31    0.16 
  -4   9   8   -0.02    0.13 
   3  -9  -8    0.50    0.16 
   2  -9  -8    0.85    0.19 
   1  -9  -8    2.09    0.30 
   0  -9  -8    0.07    0.35 
   0  -9  -8    0.00    0.09 
  -1  -9  -8    0.32    0.15 
  -1  -9  -8    0.10    0.29 
  -2  -9  -8    1.56    0.24 
  -2  -9  -8    1.71    0.52 
  -3  -9  -8   22.00    1.38 
  -3  -9  -8   21.41    0.79 
  -4  -9  -8    2.64    0.28 
  -4  -9  -8    3.29    0.66 
  -5  -9  -8    0.47    0.11 
  -5  -9  -8    0.36    0.31 
  -6  -9  -8    8.64    0.39 
  -6  -9  -8    8.80    0.81 
  -7  -9  -8    0.06    0.05 
  -7  -9  -8    0.24    0.32 
  -8  -9  -8    7.87    0.35 
  -8  -9  -8    7.97    0.94 
  -9  -9  -8   10.08    0.40 
  -9  -9  -8   12.08    1.02 
 -10  -9  -8    1.42    0.54 
 -11  -9  -8    0.14    0.38 
 -12  -9  -8    2.42    0.69 
 -13  -9  -8    0.72    0.57 
 -14  -9  -8    0.70    0.65 
 -15  -9  -8   -0.02    0.53 
 -16  -9  -8   -0.10    0.50 
  -7  10   8    0.73    0.16 
  -6  10   8    0.04    0.13 
  -5  10   8   -0.10    0.12 
   4 -10  -8    0.13    0.12 
   3 -10  -8    2.38    0.30 
   2 -10  -8    0.21    0.14 
   1 -10  -8    1.25    0.24 
   0 -10  -8    8.49    0.49 
   0 -10  -8    9.17    1.17 
  -1 -10  -8    2.63    0.71 
  -1 -10  -8    2.52    0.31 
  -2 -10  -8   10.20    0.96 
  -2 -10  -8    8.94    0.48 
  -3 -10  -8    6.25    0.89 
  -3 -10  -8    5.05    0.34 
  -4 -10  -8    7.40    0.42 
  -4 -10  -8    7.70    0.97 
  -5 -10  -8   -0.12    0.28 
  -5 -10  -8    0.03    0.10 
  -6 -10  -8    4.41    0.30 
  -6 -10  -8    6.30    0.90 
  -7 -10  -8    0.55    0.35 
  -7 -10  -8    0.35    0.10 
  -8 -10  -8    3.62    0.73 
  -8 -10  -8    3.40    0.22 
  -9 -10  -8    0.18    0.07 
  -9 -10  -8    0.09    0.36 
 -10 -10  -8    2.52    0.67 
 -11 -10  -8    0.74    0.48 
 -12 -10  -8    2.84    0.76 
 -13 -10  -8    0.57    0.52 
 -14 -10  -8    0.58    0.51 
 -15 -10  -8    1.13    0.69 
 -16 -10  -8    0.17    0.57 
  -6  11   8    0.26    0.14 
  -5  11   8    0.47    0.19 
   4 -11  -8    0.16    0.10 
   3 -11  -8    0.08    0.11 
   2 -11  -8    0.16    0.12 
   1 -11  -8    0.22    0.12 
   0 -11  -8    0.18    0.14 
  -1 -11  -8    0.78    0.51 
  -1 -11  -8    0.40    0.15 
  -2 -11  -8    1.81    0.27 
  -2 -11  -8    0.52    0.43 
  -3 -11  -8    4.95    0.87 
  -3 -11  -8    3.41    0.36 
  -4 -11  -8    0.40    0.39 
  -4 -11  -8    0.07    0.12 
  -5 -11  -8    6.50    0.92 
  -5 -11  -8    4.93    0.34 
  -6 -11  -8    2.50    0.28 
  -6 -11  -8    2.45    0.64 
  -7 -11  -8    0.55    0.38 
  -7 -11  -8    0.64    0.14 
  -8 -11  -8    0.61    0.45 
  -8 -11  -8    0.99    0.17 
  -9 -11  -8    0.41    0.11 
  -9 -11  -8    0.40    0.43 
 -10 -11  -8    0.91    0.50 
 -11 -11  -8    0.70    0.48 
 -12 -11  -8    1.06    0.56 
 -13 -11  -8    1.17    0.64 
 -14 -11  -8    0.50    0.60 
 -15 -11  -8    0.44    0.53 
 -16 -11  -8    1.62    0.60 
  -5  12   8    0.41    0.17 
   4 -12  -8    0.66    0.16 
   3 -12  -8    1.27    0.23 
   2 -12  -8    0.13    0.15 
   1 -12  -8    2.56    0.34 
   0 -12  -8    0.21    0.15 
  -1 -12  -8    1.23    0.24 
  -1 -12  -8    0.79    0.58 
  -2 -12  -8    0.11    0.11 
  -2 -12  -8    0.51    0.47 
  -3 -12  -8    0.04    0.10 
  -3 -12  -8   -0.19    0.41 
  -4 -12  -8    0.32    0.38 
  -4 -12  -8    0.30    0.14 
  -5 -12  -8    0.24    0.35 
  -5 -12  -8    0.40    0.15 
  -6 -12  -8    1.04    0.53 
  -6 -12  -8    0.65    0.17 
  -7 -12  -8    2.73    0.31 
  -7 -12  -8    2.92    0.71 
  -8 -12  -8    1.14    0.51 
  -8 -12  -8    0.76    0.15 
  -9 -12  -8    1.13    0.52 
  -9 -12  -8    0.99    0.17 
 -10 -12  -8    0.07    0.44 
 -11 -12  -8    0.21    0.42 
 -12 -12  -8    0.41    0.47 
 -13 -12  -8   -0.01    0.57 
 -14 -12  -8    1.45    0.64 
 -15 -12  -8   -0.01    0.50 
   4 -13  -8    0.65    0.18 
   3 -13  -8   -0.27    0.10 
   2 -13  -8    0.04    0.10 
   1 -13  -8    0.12    0.10 
   0 -13  -8   -0.13    0.11 
  -1 -13  -8    1.30    0.68 
  -1 -13  -8    0.99    0.22 
  -2 -13  -8    0.11    0.12 
  -2 -13  -8    0.07    0.53 
  -3 -13  -8    4.02    0.89 
  -3 -13  -8    3.73    0.40 
  -4 -13  -8    0.88    0.54 
  -4 -13  -8    1.31    0.24 
  -5 -13  -8    0.48    0.45 
  -5 -13  -8    0.50    0.17 
  -6 -13  -8    0.29    0.13 
  -6 -13  -8    0.18    0.40 
  -7 -13  -8    0.60    0.52 
  -7 -13  -8    0.91    0.19 
  -8 -13  -8    0.84    0.16 
  -8 -13  -8    1.57    0.62 
  -9 -13  -8    0.86    0.15 
  -9 -13  -8    0.53    0.52 
 -10 -13  -8   -0.15    0.41 
 -11 -13  -8   -0.03    0.47 
 -12 -13  -8    0.75    0.49 
 -13 -13  -8    0.73    0.52 
 -14 -13  -8   -0.04    0.41 
 -15 -13  -8    0.78    0.50 
   2 -14  -8    0.53    0.18 
   1 -14  -8    0.40    0.13 
   0 -14  -8    0.54    0.18 
  -1 -14  -8    0.13    0.14 
  -2 -14  -8    1.01    0.23 
  -2 -14  -8    0.54    0.55 
  -3 -14  -8   -0.20    0.52 
  -3 -14  -8    0.71    0.21 
  -4 -14  -8    0.13    0.44 
  -4 -14  -8    0.21    0.14 
  -5 -14  -8    1.27    0.58 
  -5 -14  -8    0.97    0.19 
  -6 -14  -8   -0.08    0.12 
  -6 -14  -8   -0.07    0.43 
  -7 -14  -8    0.69    0.18 
  -7 -14  -8    0.58    0.44 
  -8 -14  -8   -0.02    0.46 
  -8 -14  -8    0.30    0.13 
  -9 -14  -8    0.59    0.53 
  -9 -14  -8    0.58    0.13 
 -10 -14  -8    0.68    0.51 
 -11 -14  -8    0.24    0.47 
 -12 -14  -8   -0.17    0.50 
 -13 -14  -8    0.60    0.51 
 -14 -14  -8    0.05    0.41 
   1 -15  -8    0.68    0.16 
   0 -15  -8    0.49    0.18 
  -1 -15  -8    0.01    0.15 
  -2 -15  -8    0.74    0.20 
  -3 -15  -8    0.86    0.20 
  -4 -15  -8    0.25    0.15 
  -5 -15  -8    0.03    0.47 
  -5 -15  -8    0.52    0.18 
  -6 -15  -8    0.29    0.14 
  -6 -15  -8   -0.15    0.49 
  -7 -15  -8    0.32    0.54 
  -7 -15  -8    0.67    0.18 
  -8 -15  -8    0.08    0.48 
  -8 -15  -8    0.74    0.18 
  -9 -15  -8    0.87    0.17 
  -9 -15  -8    1.01    0.61 
 -10 -15  -8   -0.29    0.51 
 -11 -15  -8    0.13    0.46 
 -12 -15  -8    0.43    0.49 
 -13 -15  -8    0.27    0.50 
  -1 -16  -8    0.10    0.17 
  -2 -16  -8    0.35    0.18 
  -3 -16  -8   -0.04    0.14 
  -4 -16  -8    0.19    0.14 
  -5 -16  -8    0.07    0.17 
  -6 -16  -8    0.42    0.16 
  -7 -16  -8   -0.02    0.13 
  -9 -16  -8    1.12    0.45 
  -9 -16  -8    1.10    0.18 
 -10 -16  -8    0.67    0.56 
 -11 -16  -8    0.03    0.54 
 -12 -16  -8    0.84    0.50 
  -5 -17  -8    2.51    0.42 
  -6 -17  -8    0.10    0.13 
  -7 -17  -8    0.35    0.16 
  -8 -17  -8    0.12    0.13 
  -9 -17  -8    0.35    0.14 
  -9 -15   9    0.29    0.12 
  -8 -15   9    0.40    0.12 
  -7 -15   9    0.51    0.14 
  -6 -15   9    0.02    0.09 
  -5 -15   9    0.30    0.12 
  -4 -15   9    0.14    0.09 
  -3 -15   9    0.05    0.11 
  -2 -15   9    0.46    0.16 
   1  15  -9   -0.45    0.36 
  -1 -15   9   -0.03    0.09 
 -10 -14   9    0.44    0.14 
  -9 -14   9    0.08    0.12 
  -8 -14   9    0.37    0.14 
  -7 -14   9    0.64    0.17 
  -6 -14   9    0.28    0.12 
  -5 -14   9    0.11    0.09 
  -4 -14   9   -0.03    0.08 
  -3 -14   9    0.25    0.10 
   2  14  -9    0.15    0.34 
  -2 -14   9    0.42    0.13 
   1  14  -9    0.15    0.37 
  -1 -14   9    0.05    0.08 
   0  14  -9    0.35    0.35 
  -1  14  -9   -0.08    0.31 
   1 -14   9   -0.11    0.09 
  -2  14  -9    0.69    0.38 
   2 -14   9    0.13    0.09 
 -11 -13   9    0.61    0.15 
 -10 -13   9    0.52    0.16 
  -9 -13   9    0.79    0.20 
  -8 -13   9    0.69    0.18 
  -7 -13   9    0.45    0.15 
  -6 -13   9    0.46    0.14 
  -5 -13   9    1.37    0.23 
  -4 -13   9    1.02    0.20 
  -3 -13   9    0.09    0.09 
   2  13  -9    0.12    0.30 
  -2 -13   9   -0.03    0.09 
   1  13  -9    0.12    0.31 
  -1 -13   9    0.43    0.11 
   0  13  -9    0.05    0.28 
   0 -13   9   -0.03    0.08 
  -1  13  -9    0.01    0.27 
   1 -13   9    0.19    0.10 
  -2  13  -9    0.14    0.32 
   2 -13   9    0.27    0.11 
  -3  13  -9   -0.11    0.31 
   3 -13   9    0.16    0.09 
 -12 -12   9   -0.01    0.15 
 -11 -12   9    0.02    0.17 
 -10 -12   9    0.11    0.13 
  -9 -12   9    0.39    0.20 
  -8 -12   9    0.20    0.15 
  -7 -12   9    1.53    0.28 
  -6 -12   9    0.21    0.13 
  -5 -12   9    0.39    0.14 
  -4 -12   9    0.09    0.09 
  -3 -12   9    0.78    0.17 
   2  12  -9    0.17    0.29 
  -2 -12   9    0.25    0.10 
   1  12  -9    0.01    0.27 
  -1 -12   9    0.20    0.09 
   0  12  -9    1.21    0.38 
   0 -12   9    1.45    0.23 
  -1  12  -9   -0.10    0.26 
   1 -12   9    0.10    0.10 
  -2  12  -9    0.28    0.30 
   2 -12   9    0.60    0.14 
  -3  12  -9   -0.06    0.29 
   3 -12   9    0.32    0.11 
  -4  12  -9    0.31    0.35 
   4 -12   9    0.93    0.14 
  -5  12  -9    0.11    0.36 
 -13 -11   9    0.48    0.27 
 -12 -11   9   -0.07    0.24 
 -11 -11   9   -0.06    0.18 
 -10 -11   9   -0.07    0.16 
  -9 -11   9   -0.24    0.18 
  -8 -11   9    0.28    0.22 
  -7 -11   9    0.23    0.15 
  -6 -11   9    0.82    0.20 
  -5 -11   9    1.30    0.23 
  -4 -11   9    3.09    0.33 
  -3 -11   9    0.48    0.14 
   2  11  -9    0.10    0.27 
  -2 -11   9    0.05    0.08 
   1  11  -9    2.66    0.50 
  -1 -11   9    3.18    0.33 
   0  11  -9    0.16    0.23 
   0 -11   9    0.25    0.10 
  -1  11  -9    0.24    0.25 
   1 -11   9    0.36    0.11 
  -2  11  -9    0.30    0.29 
   2 -11   9    0.36    0.10 
  -3  11  -9    0.18    0.29 
   3 -11   9    0.32    0.10 
  -4  11  -9    0.26    0.32 
   4 -11   9    0.52    0.12 
  -5  11  -9   -0.08    0.29 
  -6  11  -9    0.29    0.41 
 -13 -10   9    0.21    0.27 
 -12 -10   9    0.42    0.28 
 -11 -10   9   -0.06    0.26 
 -10 -10   9   -0.61    0.26 
  -9 -10   9   -0.61    0.21 
  -8 -10   9    0.29    0.25 
  -7 -10   9    0.57    0.24 
  -6 -10   9    0.88    0.23 
  -5 -10   9    0.62    0.20 
  -4 -10   9    1.14    0.22 
   3  10  -9   -0.07    0.21 
  -3 -10   9   -0.07    0.08 
   2  10  -9    4.99    0.64 
  -2 -10   9    4.04    0.36 
   1  10  -9    0.10    0.22 
  -1 -10   9    0.20    0.10 
   0  10  -9   -0.02    0.20 
   0 -10   9    0.14    0.08 
  -1  10  -9    0.52    0.29 
   1 -10   9    0.42    0.12 
  -2  10  -9    0.08    0.25 
   2 -10   9   -0.01    0.07 
  -3  10  -9   -0.01    0.24 
   3 -10   9   -0.09    0.08 
  -4  10  -9    0.75    0.38 
   4 -10   9    0.84    0.17 
  -5  10  -9    0.04    0.32 
  -6  10  -9   -0.06    0.30 
  -7  10  -9   -0.10    0.38 
 -14  -9   9    0.56    0.12 
 -12  -9   9    0.65    0.18 
 -11  -9   9    0.62    0.17 
 -10  -9   9    0.04    0.13 
  -9  -9   9    0.58    0.20 
  -8  -9   9    0.67    0.17 
  -7  -9   9   -0.02    0.17 
  -6  -9   9   -0.37    0.19 
  -5  -9   9    0.70    0.23 
  -4  -9   9    4.40    0.39 
   3   9  -9    2.20    0.45 
  -3  -9   9    2.15    0.28 
   2   9  -9    2.60    0.46 
  -2  -9   9    3.08    0.31 
   1   9  -9    2.04    0.42 
  -1  -9   9    2.60    0.29 
   0   9  -9    0.06    0.20 
   0  -9   9    0.23    0.10 
  -1   9  -9    0.14    0.24 
   1  -9   9    0.19    0.09 
  -2   9  -9   -0.04    0.20 
   2  -9   9    0.31    0.10 
  -3   9  -9    0.04    0.22 
   3  -9   9    0.54    0.13 
  -4   9  -9    1.10    0.38 
   4  -9   9    1.11    0.19 
  -5   9  -9    0.06    0.30 
   5  -9   9    0.16    0.07 
  -6   9  -9    0.16    0.33 
  -7   9  -9   -0.19    0.28 
  -8   9  -9    0.69    0.46 
  -9   9  -9    0.20    0.44 
 -14  -8   9    0.17    0.47 
 -14  -8   9    0.62    0.14 
 -13  -8   9    0.05    0.47 
 -13  -8   9    0.52    0.17 
 -12  -8   9    0.18    0.53 
 -12  -8   9    0.11    0.12 
 -11  -8   9   -0.67    0.46 
 -11  -8   9    0.26    0.15 
 -10  -8   9   -0.09    0.45 
 -10  -8   9    0.03    0.13 
  -9  -8   9    1.16    0.49 
  -9  -8   9    1.61    0.26 
  -8  -8   9    1.08    0.43 
  -8  -8   9    0.79    0.21 
  -7  -8   9    3.47    0.36 
  -6  -8   9    3.96    0.38 
  -5  -8   9    0.19    0.13 
  -4  -8   9    1.19    0.24 
  -3  -8   9    0.17    0.17 
   2   8  -9    1.76    0.38 
  -2  -8   9    1.40    0.23 
   1   8  -9   16.79    0.96 
  -1  -8   9   16.61    0.67 
   0   8  -9   -0.03    0.17 
   0  -8   9    0.03    0.08 
  -1   8  -9    0.86    0.30 
   1  -8   9    0.76    0.15 
  -2   8  -9    0.12    0.21 
   2  -8   9    0.19    0.08 
  -3   8  -9    0.05    0.23 
   3  -8   9    0.43    0.11 
  -4   8  -9    0.29    0.31 
   4  -8   9    0.65    0.11 
  -5   8  -9    0.04    0.24 
   5  -8   9    0.08    0.07 
  -6   8  -9   -0.04    0.28 
  -7   8  -9   -0.09    0.30 
  -8   8  -9    0.36    0.40 
  -9   8  -9    1.27    0.53 
 -10   8  -9    0.22    0.44 
 -14  -7   9    1.11    0.20 
 -14  -7   9    0.24    0.49 
 -13  -7   9   -0.11    0.52 
 -13  -7   9    0.43    0.17 
 -12  -7   9    0.37    0.59 
 -12  -7   9    0.58    0.18 
 -11  -7   9    0.48    0.20 
 -11  -7   9   -0.35    0.49 
 -10  -7   9    0.01    0.14 
 -10  -7   9    0.93    0.54 
  -9  -7   9    0.53    0.20 
  -9  -7   9    0.21    0.43 
  -8  -7   9    0.86    0.46 
  -8  -7   9    0.54    0.19 
  -7  -7   9    0.86    0.28 
  -7  -7   9    0.76    0.20 
  -6  -7   9    1.72    0.27 
  -6  -7   9    2.44    0.40 
  -5  -7   9    0.84    0.21 
  -4  -7   9    2.18    0.27 
  -3  -7   9    0.44    0.14 
   2   7  -9    0.22    0.20 
  -2  -7   9   -0.09    0.15 
   1   7  -9   -0.03    0.17 
  -1  -7   9    0.00    0.14 
   0   7  -9    0.81    0.27 
   0  -7   9    0.92    0.17 
  -1   7  -9    0.13    0.17 
   1  -7   9    0.33    0.11 
  -2   7  -9    3.30    0.50 
   2  -7   9    3.65    0.25 
  -3   7  -9    0.26    0.24 
   3  -7   9    0.12    0.06 
  -4   7  -9    0.17    0.25 
   4  -7   9    0.21    0.10 
  -5   7  -9    0.83    0.36 
   5  -7   9    1.28    0.17 
  -6   7  -9    0.36    0.32 
  -7   7  -9    0.66    0.39 
  -8   7  -9   -0.04    0.28 
  -9   7  -9    0.03    0.34 
 -10   7  -9   -0.21    0.33 
 -14  -6   9   -0.40    0.42 
 -13  -6   9    0.16    0.55 
 -13  -6   9    0.75    0.19 
 -12  -6   9   -0.13    0.15 
 -12  -6   9    0.07    0.54 
 -11  -6   9    0.20    0.50 
 -11  -6   9    0.89    0.23 
 -10  -6   9    1.88    0.29 
 -10  -6   9    1.30    0.58 
  -9  -6   9    0.20    0.41 
  -9  -6   9    0.10    0.17 
  -8  -6   9    0.94    0.44 
  -8  -6   9    0.98    0.23 
  -7  -6   9    0.56    0.21 
  -7  -6   9    0.64    0.38 
  -6  -6   9    0.36    0.19 
  -5  -6   9    1.84    0.27 
  -4  -6   9    7.92    0.43 
  -3  -6   9    0.52    0.15 
   2   6  -9    6.63    0.58 
  -2  -6   9    7.18    0.38 
   1   6  -9   20.71    1.04 
   0   6  -9   -0.02    0.17 
   0  -6   9   -0.07    0.12 
  -1   6  -9    1.21    0.29 
   1  -6   9    1.18    0.19 
  -2   6  -9    1.84    0.37 
   2  -6   9    1.99    0.21 
  -3   6  -9    0.15    0.20 
   3  -6   9    0.56    0.10 
  -4   6  -9    0.09    0.20 
   4  -6   9    0.09    0.06 
  -5   6  -9    0.67    0.31 
  -6   6  -9    3.18    0.60 
  -7   6  -9    0.12    0.29 
  -8   6  -9   -0.23    0.23 
  -9   6  -9    0.10    0.37 
 -10   6  -9    0.01    0.35 
 -11   6  -9    0.18    0.39 
 -14  -5   9    0.18    0.44 
 -13  -5   9    0.02    0.52 
 -13  -5   9    0.44    0.16 
 -12  -5   9    0.95    0.22 
 -12  -5   9    0.04    0.47 
 -11  -5   9    0.50    0.21 
 -11  -5   9    0.12    0.55 
 -10  -5   9    0.47    0.20 
 -10  -5   9    0.56    0.46 
  -9  -5   9    0.19    0.44 
  -9  -5   9    0.28    0.19 
  -8  -5   9    1.65    0.27 
  -7  -5   9    1.75    0.28 
  -6  -5   9    0.17    0.17 
  -5  -5   9   -0.07    0.14 
  -4  -5   9    0.25    0.15 
  -3  -5   9    0.58    0.16 
   2   5  -9    5.48    0.54 
  -2  -5   9    3.82    0.27 
   1   5  -9    0.26    0.18 
  -1  -5   9    0.34    0.11 
   0   5  -9    0.39    0.20 
   0  -5   9    0.33    0.10 
  -1   5  -9    0.08    0.16 
   1  -5   9    0.17    0.12 
  -2   5  -9   10.69    0.71 
   2  -5   9   10.91    0.44 
  -3   5  -9    0.12    0.18 
   3  -5   9    0.00    0.05 
  -4   5  -9    2.24    0.42 
   4  -5   9    2.31    0.17 
  -5   5  -9    1.61    0.40 
   5  -5   9    1.93    0.19 
  -6   5  -9    2.20    0.49 
   6  -5   9    2.52    0.17 
  -7   5  -9    0.35    0.34 
  -8   5  -9    6.17    0.85 
  -9   5  -9    0.02    0.31 
 -10   5  -9    0.39    0.40 
 -11   5  -9    0.20    0.37 
 -12   5  -9    0.09    0.38 
 -14  -4   9   -0.09    0.44 
 -13  -4   9   -0.06    0.10 
 -13  -4   9    0.13    0.49 
 -12  -4   9    0.64    0.20 
 -12  -4   9    0.56    0.58 
 -11  -4   9    0.49    0.20 
 -11  -4   9   -0.39    0.46 
 -10  -4   9    1.09    0.51 
 -10  -4   9    1.92    0.28 
  -9  -4   9   -0.04    0.14 
  -8  -4   9    2.01    0.28 
  -7  -4   9    2.23    0.29 
  -6  -4   9    1.61    0.25 
  -5  -4   9   -0.01    0.14 
  -4  -4   9    0.20    0.14 
  -3  -4   9   -0.13    0.10 
   2   4  -9    9.47    0.60 
  -2  -4   9    9.15    0.42 
   1   4  -9    4.16    0.44 
  -1  -4   9    3.17    0.23 
   0   4  -9    9.34    0.59 
   0  -4   9    9.06    0.39 
  -1   4  -9    4.00    0.32 
  -1   4  -9    4.10    0.44 
   1  -4   9    4.19    0.24 
  -2   4  -9    3.89    0.47 
  -2   4  -9    5.29    0.37 
   2  -4   9    5.20    0.29 
  -3   4  -9    2.66    0.30 
  -3   4  -9    2.02    0.37 
   3  -4   9    2.71    0.22 
  -4   4  -9    0.29    0.22 
  -4   4  -9    0.98    0.22 
  -5   4  -9    0.25    0.24 
  -5   4  -9    0.16    0.11 
   5  -4   9    0.13    0.05 
  -6   4  -9    3.49    0.57 
  -6   4  -9    4.09    0.38 
   6  -4   9    2.83    0.17 
  -7   4  -9    0.43    0.32 
  -8   4  -9    1.62    0.45 
  -9   4  -9    0.23    0.31 
 -10   4  -9    0.04    0.33 
 -11   4  -9    0.25    0.39 
 -12   4  -9    0.12    0.38 
 -13   4  -9    0.46    0.47 
 -13  -3   9    0.10    0.46 
 -13  -3   9    0.44    0.16 
 -12  -3   9    0.64    0.19 
 -12  -3   9    0.03    0.46 
 -11  -3   9    1.14    0.64 
 -10  -3   9    2.01    0.29 
  -9  -3   9    1.56    0.25 
  -8  -3   9    0.24    0.17 
  -7  -3   9    7.42    0.41 
  -6  -3   9    0.17    0.15 
  -5  -3   9    3.08    0.29 
  -4  -3   9    2.33    0.25 
  -3  -3   9    2.11    0.23 
  -2  -3   9    0.06    0.10 
   1   3  -9    9.76    0.59 
  -1  -3   9    9.46    0.41 
   0   3  -9    0.24    0.13 
   0   3  -9    0.42    0.16 
   0  -3   9    0.56    0.12 
  -1   3  -9    2.08    0.29 
  -1   3  -9    2.01    0.31 
   1  -3   9    1.97    0.18 
  -2   3  -9    7.88    0.55 
  -2   3  -9    7.64    0.51 
   2  -3   9    8.38    0.34 
  -3   3  -9    5.99    0.46 
  -3   3  -9    6.97    0.52 
   3  -3   9    6.88    0.31 
  -4   3  -9   38.41    1.65 
  -4   3  -9   39.84    1.61 
   4  -3   9   36.63    1.07 
  -5   3  -9    0.08    0.15 
  -5   3  -9    0.48    0.24 
   5  -3   9    0.26    0.06 
  -6   3  -9    0.00    0.20 
  -6   3  -9    0.10    0.16 
   6  -3   9   -0.02    0.03 
  -7   3  -9    0.19    0.21 
  -7   3  -9    0.29    0.28 
  -8   3  -9    4.55    0.58 
  -8   3  -9    2.93    0.56 
  -9   3  -9    1.98    0.52 
  -9   3  -9    1.82    0.48 
 -10   3  -9    0.11    0.30 
 -11   3  -9   -0.04    0.29 
 -12   3  -9    0.07    0.35 
 -13   3  -9    0.27    0.41 
 -13  -2   9    0.19    0.50 
 -13  -2   9    0.93    0.19 
 -12  -2   9    0.10    0.16 
 -12  -2   9   -0.44    0.46 
 -11  -2   9    0.30    0.19 
 -10  -2   9    0.34    0.18 
  -9  -2   9    0.56    0.19 
  -8  -2   9    1.63    0.25 
  -7  -2   9    0.90    0.22 
  -6  -2   9    1.59    0.23 
  -5  -2   9    3.31    0.28 
  -4  -2   9    0.32    0.14 
  -3  -2   9    0.31    0.11 
  -2  -2   9    2.24    0.21 
   1   2  -9   10.22    0.59 
  -1  -2   9   10.18    0.41 
   0   2  -9    0.00    0.10 
   0   2  -9    0.19    0.12 
   0  -2   9    0.09    0.09 
  -1   2  -9    3.73    0.41 
  -1   2  -9    3.28    0.37 
   1  -2   9    2.88    0.20 
  -2   2  -9   -0.04    0.10 
  -2   2  -9    0.05    0.10 
   2  -2   9   -0.01    0.05 
  -3   2  -9    1.48    0.28 
  -3   2  -9    1.22    0.26 
  -4   2  -9    8.01    0.59 
  -4   2  -9    8.13    0.57 
   4  -2   9    8.42    0.33 
  -5   2  -9   -0.04    0.12 
  -5   2  -9   -0.09    0.16 
   5  -2   9    0.04    0.04 
  -6   2  -9    0.08    0.17 
  -6   2  -9    0.02    0.18 
   6  -2   9    0.06    0.03 
  -7   2  -9    0.72    0.31 
  -7   2  -9    1.25    0.35 
  -8   2  -9    0.35    0.26 
  -8   2  -9    0.23    0.28 
  -9   2  -9    2.28    0.50 
  -9   2  -9    1.76    0.50 
 -10   2  -9   -0.22    0.30 
 -10   2  -9    0.01    0.28 
 -11   2  -9    0.44    0.39 
 -11   2  -9    0.21    0.36 
 -12   2  -9   -0.06    0.29 
 -13   2  -9    0.02    0.38 
 -14   2  -9    0.07    0.39 
 -13  -1   9    0.31    0.15 
 -13  -1   9   -0.11    0.43 
 -12  -1   9    0.58    0.50 
 -12  -1   9   -0.15    0.12 
 -11  -1   9    1.23    0.23 
 -10  -1   9    1.36    0.25 
  -9  -1   9    0.12    0.15 
  -8  -1   9    0.04    0.15 
  -7  -1   9   11.48    0.51 
  -6  -1   9    0.75    0.18 
  -5  -1   9    1.79    0.22 
  -4  -1   9    5.29    0.30 
  -3  -1   9    0.09    0.09 
  -2  -1   9    8.85    0.37 
   1   1  -9    3.12    0.34 
   1   1  -9    2.84    0.44 
  -1  -1   9    3.11    0.20 
   0   1  -9    0.10    0.09 
   0   1  -9    0.04    0.13 
   0  -1   9    0.12    0.08 
  -1   1  -9    0.92    0.26 
  -1   1  -9    0.73    0.17 
   1  -1   9    1.22    0.14 
  -2   1  -9    1.33    0.28 
  -2   1  -9    1.21    0.24 
   2  -1   9    1.24    0.13 
  -3   1  -9   13.30    0.74 
  -3   1  -9   12.58    0.68 
   3  -1   9   10.47    0.38 
  -4   1  -9   14.26    0.82 
  -4   1  -9   13.55    0.78 
   4  -1   9   14.13    0.44 
  -5   1  -9    5.63    0.50 
  -5   1  -9    6.57    0.54 
   5  -1   9    6.55    0.26 
  -6   1  -9    7.35    0.62 
  -6   1  -9    5.70    0.64 
   6  -1   9    7.43    0.26 
  -7   1  -9    6.19    0.70 
  -7   1  -9    7.24    0.63 
  -8   1  -9    4.86    0.67 
  -8   1  -9    6.13    0.69 
  -9   1  -9    2.83    0.55 
  -9   1  -9    4.57    0.67 
 -10   1  -9    7.95    0.89 
 -10   1  -9    8.01    0.92 
 -11   1  -9   -0.17    0.33 
 -11   1  -9    0.45    0.31 
 -12   1  -9   -0.14    0.34 
 -12   1  -9    0.02    0.27 
 -13   1  -9    0.34    0.47 
 -13   1  -9   -0.01    0.30 
 -14   1  -9    0.04    0.26 
 -13   0   9    0.04    0.41 
 -12   0   9    0.10    0.14 
 -11   0   9   -0.02    0.15 
 -10   0   9   -0.12    0.14 
  -9   0   9   -0.04    0.13 
  -8   0   9    3.88    0.33 
  -7   0   9   11.18    0.50 
  -6   0   9    0.38    0.16 
  -5   0   9    1.88    0.22 
  -4   0   9    8.32    0.38 
  -3   0   9    1.17    0.15 
  -2   0   9    3.65    0.21 
   1   0  -9    0.57    0.25 
  -1   0   9    0.56    0.11 
   0   0  -9    0.54    0.24 
   0   0  -9    0.79    0.16 
   0   0   9    0.78    0.11 
  -1   0  -9    3.32    0.45 
  -1   0  -9    3.16    0.32 
   1   0   9    3.43    0.19 
  -2   0  -9    0.60    0.22 
  -2   0  -9    0.61    0.15 
   2   0   9    0.63    0.10 
  -3   0  -9    1.57    0.26 
  -3   0  -9    1.39    0.30 
   3   0   9    1.67    0.11 
  -4   0  -9    4.69    0.51 
  -4   0  -9    4.71    0.41 
   4   0   9    4.62    0.20 
  -5   0  -9   16.16    0.88 
  -5   0  -9   16.26    0.93 
   5   0   9   16.05    0.47 
  -6   0  -9    0.74    0.23 
   6   0   9    0.88    0.08 
  -7   0  -9    0.20    0.24 
  -7   0  -9   -0.01    0.20 
  -8   0  -9    2.80    0.52 
  -8   0  -9    3.56    0.58 
  -9   0  -9    0.13    0.23 
  -9   0  -9    0.13    0.31 
 -10   0  -9    0.09    0.21 
 -10   0  -9    0.26    0.32 
 -11   0  -9    0.67    0.35 
 -11   0  -9    0.84    0.47 
 -12   0  -9    0.37    0.34 
 -12   0  -9    0.37    0.42 
 -13   0  -9   -0.16    0.33 
 -14   0  -9    0.53    0.50 
 -14   0  -9   -0.05    0.31 
 -15   0  -9   -0.10    0.27 
 -15   0  -9    0.35    0.60 
 -12   1   9    0.00    0.12 
 -11   1   9    0.15    0.15 
 -10   1   9    0.08    0.15 
  -9   1   9   -0.07    0.12 
  -8   1   9    4.96    0.34 
  -7   1   9    6.82    0.37 
  -6   1   9    9.19    0.43 
  -5   1   9    5.11    0.30 
  -4   1   9    0.10    0.10 
  -3   1   9    1.01    0.14 
  -2   1   9    3.93    0.21 
   1  -1  -9    4.96    0.62 
  -1   1   9    4.37    0.22 
   0  -1  -9    2.80    0.46 
   0  -1  -9    2.94    0.25 
   0   1   9    2.63    0.16 
  -1  -1  -9    5.00    0.49 
  -1  -1  -9    4.36    0.31 
   1   1   9    4.72    0.22 
  -2  -1  -9   10.31    0.71 
  -2  -1  -9   10.93    0.56 
   2   1   9   10.78    0.37 
  -3  -1  -9   12.12    0.63 
  -3  -1  -9   11.67    0.78 
  -4  -1  -9   29.77    1.41 
  -4  -1  -9   29.78    1.22 
   4   1   9   29.24    0.80 
  -5  -1  -9   18.48    1.05 
  -5  -1  -9   19.14    0.94 
   5   1   9   18.76    0.53 
  -6  -1  -9    0.29    0.22 
  -6  -1  -9    0.08    0.11 
  -7  -1  -9   18.80    1.11 
  -7  -1  -9   17.42    1.02 
  -8  -1  -9    2.96    0.50 
  -8  -1  -9    3.34    0.56 
  -9  -1  -9    0.12    0.27 
  -9  -1  -9    0.20    0.30 
 -10  -1  -9    1.75    0.51 
 -11  -1  -9    0.59    0.40 
 -12  -1  -9    0.42    0.40 
 -13  -1  -9    0.43    0.50 
 -14  -1  -9    0.21    0.47 
 -15  -1  -9   -0.46    0.47 
 -12   2   9   -0.01    0.12 
 -11   2   9    0.39    0.17 
 -10   2   9    0.25    0.17 
  -9   2   9    0.23    0.15 
  -8   2   9    0.10    0.14 
  -7   2   9    2.72    0.28 
  -6   2   9    3.37    0.28 
  -5   2   9    1.28    0.19 
  -4   2   9   16.07    0.59 
  -3   2   9    0.50    0.12 
  -2   2   9    0.99    0.13 
   1  -2  -9    3.02    0.53 
  -1   2   9    3.43    0.19 
   0  -2  -9   16.59    1.04 
   0   2   9   15.64    0.51 
  -1  -2  -9    8.58    0.43 
  -1  -2  -9    9.11    0.71 
   1   2   9    8.73    0.32 
  -2  -2  -9   48.69    2.07 
   2   2   9   46.53    1.24 
  -3  -2  -9   10.56    0.55 
  -3  -2  -9   11.25    0.77 
  -4  -2  -9    5.24    0.39 
  -4  -2  -9    5.56    0.53 
   4   2   9    5.50    0.21 
  -5  -2  -9   21.61    1.20 
  -5  -2  -9   23.24    1.04 
   5   2   9   23.37    0.63 
  -6  -2  -9    5.21    0.46 
  -6  -2  -9    5.63    0.63 
   6   2   9    5.62    0.19 
  -7  -2  -9   15.83    0.91 
  -7  -2  -9   16.08    1.03 
  -8  -2  -9   12.18    0.92 
  -9  -2  -9    1.17    0.42 
 -10  -2  -9    0.90    0.42 
 -11  -2  -9    0.79    0.44 
 -12  -2  -9    0.16    0.36 
 -13  -2  -9    1.89    0.64 
 -14  -2  -9    1.49    0.62 
 -15  -2  -9   -0.29    0.42 
 -12   3   9    0.09    0.13 
 -11   3   9    0.88    0.20 
 -10   3   9   -0.02    0.11 
  -9   3   9    0.21    0.13 
  -8   3   9    0.23    0.13 
  -7   3   9    1.59    0.23 
  -6   3   9    0.96    0.18 
  -5   3   9    2.95    0.28 
  -4   3   9    2.10    0.24 
  -3   3   9    0.85    0.15 
  -2   3   9    0.30    0.07 
   1  -3  -9    2.63    0.52 
  -1   3   9    2.44    0.17 
   0  -3  -9    3.90    0.59 
   0   3   9    3.26    0.19 
  -1  -3  -9   10.84    0.48 
  -1  -3  -9   11.74    0.84 
   1   3   9   10.82    0.39 
  -2  -3  -9    0.36    0.09 
  -2  -3  -9    0.42    0.22 
   2   3   9    0.65    0.08 
  -3  -3  -9    0.00    0.05 
  -3  -3  -9    0.07    0.16 
   3   3   9    0.09    0.03 
  -4  -3  -9    4.04    0.55 
   4   3   9    3.51    0.16 
  -5  -3  -9    0.00    0.16 
  -5  -3  -9    0.18    0.10 
   5   3   9    0.20    0.03 
  -6  -3  -9    0.78    0.29 
  -6  -3  -9    1.27    0.25 
   6   3   9    1.42    0.08 
  -7  -3  -9   31.08    1.63 
  -7  -3  -9   33.54    1.43 
  -8  -3  -9    0.76    0.33 
  -9  -3  -9    0.31    0.32 
 -10  -3  -9    0.14    0.33 
 -11  -3  -9    3.24    0.66 
 -12  -3  -9   -0.19    0.35 
 -13  -3  -9    0.78    0.50 
 -14  -3  -9    0.51    0.48 
 -15  -3  -9   -0.35    0.47 
 -16  -3  -9    0.27    0.63 
 -11   4   9    0.10    0.12 
 -10   4   9    0.13    0.12 
  -9   4   9    0.53    0.15 
  -8   4   9    0.79    0.17 
  -7   4   9    0.08    0.13 
  -6   4   9    7.70    0.43 
  -5   4   9    1.23    0.21 
  -4   4   9    4.97    0.31 
  -3   4   9    4.02    0.27 
  -2   4   9    4.75    0.28 
   1  -4  -9    0.13    0.21 
  -1   4   9    0.25    0.06 
   0  -4  -9    9.62    0.81 
   0   4   9    9.77    0.39 
  -1  -4  -9    0.17    0.20 
   1   4   9    0.29    0.05 
  -2  -4  -9   26.42    0.90 
  -2  -4  -9   27.28    1.42 
   2   4   9   25.05    0.76 
  -3  -4  -9   18.79    0.72 
  -3  -4  -9   17.08    1.08 
   3   4   9   17.84    0.55 
  -4  -4  -9   13.86    0.63 
  -4  -4  -9   14.07    0.93 
  -5  -4  -9    0.27    0.21 
  -5  -4  -9    0.36    0.12 
   5   4   9    0.18    0.04 
  -6  -4  -9    5.58    0.68 
  -6  -4  -9    6.03    0.45 
   6   4   9    6.36    0.22 
  -7  -4  -9    4.78    0.64 
   7   4   9    5.17    0.17 
  -8  -4  -9    9.28    0.82 
  -9  -4  -9    0.43    0.33 
 -10  -4  -9    2.25    0.56 
 -11  -4  -9   -0.13    0.33 
 -12  -4  -9    0.85    0.48 
 -13  -4  -9    0.65    0.44 
 -14  -4  -9    0.20    0.45 
 -15  -4  -9    0.07    0.49 
 -16  -4  -9    0.87    0.62 
 -11   5   9    0.99    0.20 
 -10   5   9    0.80    0.19 
  -9   5   9    0.00    0.10 
  -8   5   9    0.31    0.16 
  -7   5   9    0.33    0.15 
  -6   5   9   -0.09    0.10 
  -5   5   9    0.48    0.16 
  -4   5   9    0.02    0.10 
  -3   5   9    0.98    0.18 
  -2   5   9    0.13    0.09 
   1  -5  -9    2.77    0.60 
  -1   5   9    3.30    0.23 
   0  -5  -9    2.78    0.56 
   0   5   9    2.54    0.18 
  -1  -5  -9    8.24    0.73 
   1   5   9    7.85    0.34 
  -2  -5  -9    3.26    0.56 
   2   5   9    2.49    0.16 
  -3  -5  -9    3.53    0.20 
  -3  -5  -9    3.76    0.59 
   3   5   9    3.67    0.19 
  -4  -5  -9   45.62    2.15 
  -4  -5  -9   48.48    1.58 
   4   5   9   47.13    1.27 
  -5  -5  -9    1.50    0.21 
  -5  -5  -9    1.28    0.36 
   5   5   9    1.25    0.11 
  -6  -5  -9    1.71    0.26 
  -6  -5  -9    1.19    0.37 
   6   5   9    1.46    0.09 
  -7  -5  -9   14.50    1.03 
   7   5   9   14.40    0.42 
  -8  -5  -9    2.87    0.56 
  -9  -5  -9    1.59    0.47 
 -10  -5  -9    3.30    0.67 
 -11  -5  -9    1.44    0.48 
 -12  -5  -9    3.02    0.74 
 -13  -5  -9    0.10    0.38 
 -14  -5  -9    0.13    0.49 
 -15  -5  -9    0.47    0.56 
 -16  -5  -9    0.49    0.58 
 -10   6   9    0.32    0.14 
  -9   6   9    0.21    0.13 
  -8   6   9    0.30    0.16 
  -7   6   9    0.05    0.13 
  -6   6   9    0.08    0.10 
  -5   6   9    1.83    0.26 
  -4   6   9    0.42    0.15 
  -3   6   9    1.63    0.24 
  -2   6   9    1.06    0.19 
   1  -6  -9    8.19    1.00 
  -1   6   9    7.56    0.39 
   0  -6  -9    3.16    0.65 
   0   6   9    2.91    0.27 
  -1  -6  -9    5.31    0.75 
   1   6   9    4.53    0.26 
  -2  -6  -9    0.11    0.06 
  -2  -6  -9    0.30    0.18 
  -3  -6  -9    0.54    0.22 
  -3  -6  -9    0.71    0.11 
  -3  -6  -9    0.41    0.05 
  -4  -6  -9    1.08    0.33 
  -4  -6  -9    1.50    0.12 
  -4  -6  -9    1.20    0.15 
  -5  -6  -9    0.87    0.15 
  -5  -6  -9    0.73    0.30 
  -5  -6  -9    0.95    0.12 
  -6  -6  -9    3.01    0.27 
  -6  -6  -9    3.03    0.56 
  -7  -6  -9    2.94    0.56 
   7   6   9    3.71    0.17 
  -8  -6  -9    0.57    0.31 
  -9  -6  -9    1.88    0.51 
 -10  -6  -9    0.60    0.38 
 -11  -6  -9    0.55    0.44 
 -12  -6  -9    0.35    0.42 
 -13  -6  -9    0.05    0.43 
 -14  -6  -9    0.67    0.58 
 -15  -6  -9    0.40    0.61 
 -16  -6  -9    0.49    0.70 
  -9   7   9    1.34    0.20 
  -8   7   9    0.23    0.13 
  -7   7   9    0.09    0.13 
  -6   7   9    0.06    0.13 
  -5   7   9    0.48    0.15 
  -4   7   9    0.54    0.17 
  -3   7   9    0.60    0.17 
  -2   7   9    5.68    0.37 
   1  -7  -9    5.07    0.89 
  -1   7   9    4.28    0.35 
   0  -7  -9    1.94    0.55 
   0  -7  -9    2.78    0.31 
  -1  -7  -9   36.45    1.17 
  -1  -7  -9   37.37    1.97 
  -2  -7  -9    3.56    0.64 
  -2  -7  -9    2.74    0.27 
  -3  -7  -9    3.69    0.24 
  -3  -7  -9    3.57    0.63 
  -4  -7  -9   14.47    1.07 
  -4  -7  -9   15.50    0.57 
  -5  -7  -9    2.86    0.19 
  -5  -7  -9    2.65    0.18 
  -5  -7  -9    2.29    0.51 
  -6  -7  -9    1.25    0.15 
  -6  -7  -9    0.99    0.35 
  -6  -7  -9    1.45    0.20 
  -7  -7  -9    0.23    0.06 
  -7  -7  -9   -0.21    0.19 
  -8  -7  -9    0.95    0.38 
  -8  -7  -9    0.91    0.10 
  -9  -7  -9    0.64    0.39 
 -10  -7  -9    1.68    0.53 
 -11  -7  -9    1.36    0.55 
 -12  -7  -9    0.19    0.42 
 -13  -7  -9   -0.52    0.35 
 -14  -7  -9    0.07    0.58 
 -15  -7  -9    0.33    0.67 
 -16  -7  -9    0.22    0.62 
  -8   8   9    0.27    0.14 
  -7   8   9    0.26    0.13 
  -6   8   9    0.01    0.12 
  -5   8   9    1.22    0.23 
  -4   8   9    0.17    0.13 
  -3   8   9    0.52    0.18 
  -2   8   9    0.05    0.12 
   1  -8  -9    2.07    0.30 
   0  -8  -9    0.11    0.10 
   0  -8  -9   -0.26    0.30 
  -1  -8  -9    4.20    0.76 
  -1  -8  -9    4.37    0.32 
  -2  -8  -9    0.19    0.28 
  -2  -8  -9    0.66    0.17 
  -3  -8  -9    1.20    0.44 
  -3  -8  -9    1.20    0.20 
  -4  -8  -9    2.36    0.25 
  -4  -8  -9    2.16    0.54 
  -5  -8  -9    6.09    0.83 
  -5  -8  -9    6.18    0.32 
  -6  -8  -9    0.04    0.05 
  -6  -8  -9    0.02    0.23 
  -7  -8  -9    1.26    0.44 
  -7  -8  -9    1.05    0.13 
  -8  -8  -9    5.47    0.26 
  -8  -8  -9    5.38    0.81 
  -9  -8  -9    2.23    0.60 
 -10  -8  -9    1.27    0.49 
 -11  -8  -9    1.72    0.58 
 -12  -8  -9    1.45    0.59 
 -13  -8  -9   -0.37    0.46 
 -14  -8  -9    0.84    0.69 
 -15  -8  -9   -0.05    0.66 
 -16  -8  -9    0.71    0.81 
  -8   9   9    0.00    0.11 
  -7   9   9    0.47    0.16 
  -6   9   9    0.22    0.12 
  -5   9   9    0.07    0.14 
  -4   9   9    0.07    0.12 
  -3   9   9    0.62    0.20 
   2  -9  -9    1.77    0.28 
   1  -9  -9    0.97    0.21 
   0  -9  -9    0.05    0.13 
   0  -9  -9    0.38    0.43 
  -1  -9  -9   12.78    0.61 
  -1  -9  -9   12.52    1.12 
  -2  -9  -9   29.26    1.73 
  -2  -9  -9   25.62    0.94 
  -3  -9  -9    4.92    0.83 
  -3  -9  -9    3.53    0.34 
  -4  -9  -9    8.84    0.88 
  -4  -9  -9    9.05    0.45 
  -5  -9  -9    3.23    0.69 
  -5  -9  -9    2.63    0.27 
  -6  -9  -9   -0.04    0.28 
  -6  -9  -9    0.05    0.06 
  -7  -9  -9    1.40    0.17 
  -7  -9  -9    1.09    0.46 
  -8  -9  -9   -0.11    0.27 
  -8  -9  -9    0.39    0.09 
  -9  -9  -9    8.02    1.02 
 -10  -9  -9    1.44    0.57 
 -11  -9  -9    0.02    0.39 
 -12  -9  -9    0.08    0.48 
 -13  -9  -9    0.62    0.60 
 -14  -9  -9    1.76    0.72 
 -15  -9  -9    0.37    0.58 
 -16  -9  -9    0.07    0.82 
  -7  10   9    0.08    0.10 
  -6  10   9    0.38    0.17 
  -5  10   9    0.46    0.15 
  -4  10   9    2.25    0.33 
  -3  10   9    1.20    0.24 
   2 -10  -9    0.22    0.12 
   1 -10  -9    0.55    0.18 
   0 -10  -9   -0.16    0.40 
   0 -10  -9    0.17    0.14 
  -1 -10  -9    0.40    0.45 
  -1 -10  -9    0.10    0.13 
  -2 -10  -9    2.16    0.28 
  -2 -10  -9    2.13    0.65 
  -3 -10  -9    5.71    0.89 
  -3 -10  -9    5.30    0.36 
  -4 -10  -9    9.07    1.08 
  -4 -10  -9    7.27    0.42 
  -5 -10  -9    1.42    0.22 
  -5 -10  -9    1.93    0.60 
  -6 -10  -9    0.35    0.37 
  -6 -10  -9    0.84    0.16 
  -7 -10  -9    1.89    0.58 
  -7 -10  -9    1.83    0.22 
  -8 -10  -9    0.48    0.39 
  -8 -10  -9    0.41    0.08 
  -9 -10  -9    0.28    0.38 
 -10 -10  -9    0.05    0.35 
 -11 -10  -9   -0.15    0.37 
 -12 -10  -9    0.80    0.59 
 -13 -10  -9    0.61    0.55 
 -14 -10  -9    0.53    0.59 
 -15 -10  -9   -0.07    0.46 
 -16 -10  -9    0.94    0.59 
  -6  11   9    0.60    0.16 
  -5  11   9    0.00    0.11 
  -4  11   9    0.37    0.18 
   3 -11  -9    0.44    0.13 
   2 -11  -9    1.59    0.26 
   1 -11  -9    0.45    0.18 
   0 -11  -9    3.89    0.42 
  -1 -11  -9    3.97    0.41 
  -1 -11  -9    3.85    0.88 
  -2 -11  -9    0.63    0.19 
  -2 -11  -9    0.16    0.43 
  -3 -11  -9    3.71    0.81 
  -3 -11  -9    2.08    0.28 
  -4 -11  -9    0.08    0.40 
  -4 -11  -9    0.26    0.13 
  -5 -11  -9   -0.04    0.10 
  -5 -11  -9    0.07    0.32 
  -6 -11  -9    0.40    0.47 
  -7 -11  -9    0.72    0.15 
  -7 -11  -9    0.64    0.50 
  -8 -11  -9    0.80    0.15 
  -8 -11  -9    0.63    0.41 
  -9 -11  -9    0.24    0.08 
  -9 -11  -9    0.21    0.38 
 -10 -11  -9    0.33    0.47 
 -11 -11  -9    0.16    0.50 
 -12 -11  -9    0.43    0.54 
 -13 -11  -9    1.18    0.66 
 -14 -11  -9    0.63    0.54 
 -15 -11  -9    0.58    0.55 
 -16 -11  -9    0.32    0.47 
  -5  12   9    1.19    0.25 
  -4  12   9    0.17    0.18 
   3 -12  -9    0.29    0.12 
   2 -12  -9    0.03    0.09 
   1 -12  -9    0.14    0.12 
   0 -12  -9    0.32    0.17 
  -1 -12  -9    2.43    0.33 
  -1 -12  -9    3.40    0.87 
  -2 -12  -9    1.23    0.63 
  -2 -12  -9    0.75    0.21 
  -3 -12  -9    0.53    0.17 
  -3 -12  -9    0.52    0.53 
  -4 -12  -9    2.96    0.74 
  -4 -12  -9    2.56    0.33 
  -5 -12  -9    0.68    0.15 
  -5 -12  -9    0.65    0.51 
  -6 -12  -9    0.68    0.17 
  -6 -12  -9    0.61    0.44 
  -7 -12  -9    4.84    0.89 
  -7 -12  -9    3.10    0.32 
  -8 -12  -9    3.10    0.80 
  -8 -12  -9    4.34    0.36 
  -9 -12  -9    0.25    0.45 
  -9 -12  -9    0.12    0.08 
 -10 -12  -9    1.87    0.65 
 -11 -12  -9    0.05    0.51 
 -12 -12  -9   -0.10    0.43 
 -13 -12  -9    0.09    0.48 
 -14 -12  -9    0.62    0.54 
 -15 -12  -9    0.92    0.63 
   3 -13  -9   -0.08    0.12 
   2 -13  -9    0.16    0.13 
   1 -13  -9    0.33    0.13 
   0 -13  -9    0.35    0.16 
  -1 -13  -9   -0.02    0.16 
  -1 -13  -9   -0.11    0.54 
  -2 -13  -9    2.94    0.39 
  -2 -13  -9    1.09    0.67 
  -3 -13  -9   -0.25    0.36 
  -3 -13  -9   -0.20    0.11 
  -4 -13  -9    4.01    0.42 
  -4 -13  -9    3.52    0.87 
  -5 -13  -9    0.06    0.42 
  -5 -13  -9    0.15    0.11 
  -6 -13  -9    0.35    0.48 
  -6 -13  -9    0.96    0.19 
  -7 -13  -9    0.29    0.13 
  -7 -13  -9   -0.35    0.39 
  -8 -13  -9    0.30    0.52 
  -8 -13  -9    0.22    0.11 
  -9 -13  -9   -0.13    0.41 
  -9 -13  -9    0.14    0.09 
 -10 -13  -9    0.00    0.46 
 -11 -13  -9    0.27    0.51 
 -12 -13  -9    0.21    0.50 
 -13 -13  -9    0.54    0.57 
 -14 -13  -9    0.51    0.52 
 -15 -13  -9    0.72    0.52 
   2 -14  -9    0.18    0.16 
   1 -14  -9   -0.12    0.08 
   0 -14  -9   -0.03    0.12 
  -1 -14  -9   -0.09    0.14 
  -2 -14  -9    0.28    0.17 
  -2 -14  -9   -0.54    0.53 
  -3 -14  -9    0.21    0.16 
  -3 -14  -9    0.51    0.55 
  -4 -14  -9    1.48    0.69 
  -4 -14  -9    0.68    0.18 
  -5 -14  -9    0.72    0.55 
  -6 -14  -9    0.05    0.13 
  -6 -14  -9   -0.13    0.46 
  -7 -14  -9    1.45    0.58 
  -7 -14  -9    2.14    0.30 
  -8 -14  -9    0.73    0.16 
  -8 -14  -9    1.09    0.57 
  -9 -14  -9   -0.16    0.52 
  -9 -14  -9    0.36    0.11 
 -10 -14  -9    0.81    0.56 
 -11 -14  -9    0.46    0.49 
 -12 -14  -9    0.23    0.46 
 -13 -14  -9    0.32    0.42 
 -14 -14  -9    0.24    0.41 
   0 -15  -9    0.23    0.12 
  -1 -15  -9    0.11    0.15 
  -2 -15  -9   -0.04    0.14 
  -3 -15  -9    0.50    0.21 
  -4 -15  -9    0.10    0.12 
  -4 -15  -9    0.44    0.54 
  -5 -15  -9    0.51    0.63 
  -5 -15  -9    0.65    0.19 
  -6 -15  -9   -0.07    0.53 
  -6 -15  -9    0.19    0.12 
  -7 -15  -9   -0.11    0.11 
  -7 -15  -9   -0.13    0.48 
  -8 -15  -9    0.62    0.52 
  -8 -15  -9    0.87    0.18 
  -9 -15  -9    0.41    0.11 
  -9 -15  -9    0.03    0.51 
 -10 -15  -9    0.43    0.61 
 -11 -15  -9    0.61    0.56 
 -12 -15  -9    0.13    0.46 
 -13 -15  -9    0.07    0.48 
  -2 -16  -9   -0.17    0.12 
  -3 -16  -9    0.12    0.16 
  -4 -16  -9    0.39    0.19 
  -5 -16  -9    0.24    0.15 
  -6 -16  -9   -0.01    0.11 
  -8 -16  -9    0.92    0.54 
  -9 -16  -9    0.73    0.58 
  -9 -16  -9    0.99    0.17 
 -10 -16  -9   -0.20    0.48 
 -11 -16  -9    0.09    0.50 
 -12 -16  -9    0.60    0.50 
  -5 -17  -9    0.44    0.16 
  -7 -17  -9    0.11    0.17 
  -8 -17  -9    2.02    0.29 
  -9 -17  -9    0.32    0.13 
  -7 -15  10    0.32    0.14 
  -6 -15  10    0.18    0.09 
  -5 -15  10    0.08    0.13 
  -4 -15  10    0.08    0.14 
  -3 -15  10    0.21    0.14 
  -2 -15  10    0.61    0.15 
  -9 -14  10    0.01    0.11 
  -8 -14  10    0.35    0.11 
  -7 -14  10    0.55    0.17 
  -6 -14  10    0.39    0.15 
  -5 -14  10   -0.08    0.08 
  -4 -14  10   -0.21    0.07 
  -3 -14  10    0.17    0.11 
   2  14 -10    0.88    0.45 
  -2 -14  10    1.88    0.28 
   1  14 -10    0.30    0.37 
  -1 -14  10    0.39    0.14 
   0  14 -10    0.23    0.36 
   0 -14  10    0.15    0.10 
  -1  14 -10    0.04    0.36 
   1 -14  10    0.25    0.10 
 -11 -13  10    0.51    0.18 
 -10 -13  10    0.55    0.15 
  -9 -13  10    0.51    0.18 
  -8 -13  10    0.13    0.13 
  -7 -13  10    0.42    0.15 
  -6 -13  10    1.18    0.22 
  -5 -13  10    0.34    0.13 
  -4 -13  10    0.24    0.11 
  -3 -13  10    0.17    0.08 
   2  13 -10    0.07    0.28 
  -2 -13  10    0.26    0.10 
   1  13 -10    0.11    0.32 
  -1 -13  10    0.26    0.09 
   0  13 -10    0.06    0.29 
   0 -13  10    0.19    0.09 
  -1  13 -10   -0.18    0.29 
   1 -13  10    0.15    0.09 
  -2  13 -10    0.15    0.33 
   2 -13  10   -0.03    0.08 
  -3  13 -10    0.33    0.37 
   3 -13  10    0.43    0.11 
 -12 -12  10    0.10    0.20 
 -11 -12  10    0.28    0.20 
 -10 -12  10    0.04    0.16 
  -9 -12  10    0.24    0.16 
  -8 -12  10   -0.03    0.17 
  -7 -12  10    0.60    0.19 
  -6 -12  10    1.02    0.22 
  -5 -12  10    0.11    0.13 
  -4 -12  10    2.93    0.35 
  -3 -12  10    0.59    0.15 
   2  12 -10    0.00    0.26 
  -2 -12  10   -0.03    0.06 
   1  12 -10    0.36    0.31 
  -1 -12  10    0.37    0.11 
   0  12 -10    1.02    0.36 
   0 -12  10    1.00    0.18 
  -1  12 -10    0.37    0.32 
   1 -12  10    0.47    0.13 
  -2  12 -10    0.17    0.30 
   2 -12  10    0.17    0.09 
  -3  12 -10    0.18    0.35 
   3 -12  10   -0.01    0.08 
  -4  12 -10    0.20    0.39 
 -12 -11  10   -0.04    0.23 
 -11 -11  10    0.06    0.24 
 -10 -11  10    0.22    0.26 
  -9 -11  10    0.51    0.24 
  -8 -11  10   -0.28    0.16 
  -7 -11  10    1.19    0.26 
  -6 -11  10    3.00    0.37 
  -5 -11  10    0.82    0.19 
  -4 -11  10    0.34    0.13 
  -3 -11  10    0.04    0.09 
   2  11 -10    0.50    0.35 
  -2 -11  10    0.45    0.13 
   1  11 -10    0.07    0.23 
  -1 -11  10    0.01    0.09 
   0  11 -10   -0.08    0.24 
   0 -11  10    0.01    0.07 
  -1  11 -10    0.66    0.33 
   1 -11  10    0.92    0.18 
  -2  11 -10   -0.03    0.28 
   2 -11  10    0.14    0.07 
  -3  11 -10    0.46    0.35 
   3 -11  10    0.39    0.11 
  -4  11 -10    0.18    0.32 
   4 -11  10    0.46    0.09 
  -5  11 -10    0.07    0.35 
  -6  11 -10    0.12    0.35 
 -13 -10  10    0.60    0.10 
 -12 -10  10    1.31    0.21 
 -11 -10  10    0.50    0.12 
 -10 -10  10   -0.20    0.22 
  -9 -10  10   -0.75    0.25 
  -8 -10  10   -0.19    0.21 
  -7 -10  10    0.00    0.19 
  -6 -10  10    0.06    0.20 
  -5 -10  10    1.42    0.26 
  -4 -10  10   -0.14    0.10 
  -3 -10  10    1.89    0.26 
   2  10 -10   -0.03    0.21 
  -2 -10  10    0.18    0.09 
   1  10 -10   -0.15    0.20 
  -1 -10  10    0.11    0.08 
   0  10 -10    3.97    0.60 
   0 -10  10    4.48    0.38 
  -1  10 -10   -0.11    0.23 
   1 -10  10    0.20    0.08 
  -2  10 -10    0.16    0.28 
   2 -10  10    0.26    0.09 
  -3  10 -10   -0.21    0.22 
   3 -10  10    0.24    0.08 
  -4  10 -10    0.24    0.34 
   4 -10  10    0.38    0.11 
  -5  10 -10    0.07    0.30 
  -6  10 -10    0.20    0.38 
  -7  10 -10    0.35    0.40 
 -13  -9  10    0.34    0.12 
 -12  -9  10    0.54    0.16 
 -11  -9  10    0.28    0.13 
 -10  -9  10    0.29    0.13 
  -9  -9  10   -0.07    0.13 
  -8  -9  10    0.62    0.19 
  -7  -9  10    0.16    0.11 
  -6  -9  10   -0.48    0.19 
  -5  -9  10    1.20    0.25 
  -4  -9  10   -0.09    0.13 
  -3  -9  10    0.16    0.14 
   2   9 -10    1.69    0.41 
  -2  -9  10    1.47    0.24 
   1   9 -10    4.20    0.59 
  -1  -9  10    4.53    0.31 
   0   9 -10    0.28    0.26 
   0  -9  10    0.53    0.14 
  -1   9 -10    2.25    0.46 
   1  -9  10    3.12    0.31 
  -2   9 -10    0.61    0.30 
   2  -9  10    0.47    0.11 
  -3   9 -10    0.53    0.35 
   3  -9  10    0.13    0.08 
  -4   9 -10   -0.05    0.27 
   4  -9  10    0.08    0.07 
  -5   9 -10    0.56    0.37 
  -6   9 -10    0.52    0.41 
  -7   9 -10   -0.09    0.34 
  -8   9 -10    0.05    0.39 
 -13  -8  10    0.41    0.45 
 -13  -8  10    0.32    0.13 
 -12  -8  10    0.26    0.14 
 -12  -8  10   -0.26    0.46 
 -11  -8  10    0.28    0.15 
 -11  -8  10   -0.44    0.45 
 -10  -8  10    0.84    0.22 
 -10  -8  10    0.15    0.45 
  -9  -8  10   -0.01    0.14 
  -8  -8  10    0.68    0.22 
  -7  -8  10    0.03    0.13 
  -6  -8  10    0.95    0.22 
  -5  -8  10    9.35    0.50 
  -4  -8  10   -0.28    0.17 
   2   8 -10    0.74    0.28 
  -2  -8  10    0.37    0.17 
   1   8 -10    0.53    0.26 
  -1  -8  10    0.72    0.18 
   0   8 -10   12.85    0.85 
   0  -8  10   12.37    0.55 
  -1   8 -10    0.30    0.24 
   1  -8  10    0.11    0.09 
  -2   8 -10    0.89    0.30 
   2  -8  10    1.05    0.17 
  -3   8 -10    3.07    0.54 
   3  -8  10    3.53    0.31 
  -4   8 -10    0.30    0.28 
   4  -8  10    0.37    0.10 
  -5   8 -10    0.16    0.29 
   5  -8  10    0.03    0.06 
  -6   8 -10   -0.13    0.32 
  -7   8 -10    0.00    0.34 
  -8   8 -10    0.46    0.41 
  -9   8 -10   -0.08    0.36 
 -13  -7  10    0.13    0.12 
 -13  -7  10    0.05    0.47 
 -12  -7  10    0.03    0.54 
 -12  -7  10    0.87    0.21 
 -11  -7  10    0.18    0.15 
 -11  -7  10   -0.13    0.47 
 -10  -7  10    0.86    0.54 
 -10  -7  10    0.00    0.16 
  -9  -7  10    0.60    0.20 
  -9  -7  10    0.65    0.49 
  -8  -7  10    3.27    0.37 
  -8  -7  10    3.39    0.68 
  -7  -7  10    0.27    0.28 
  -7  -7  10   -0.04    0.15 
  -5  -7  10    0.12    0.14 
  -4  -7  10    2.20    0.28 
  -3  -7  10    0.20    0.12 
   2   7 -10    2.14    0.42 
  -2  -7  10    0.75    0.22 
   1   7 -10    0.60    0.26 
  -1  -7  10    0.84    0.20 
   0   7 -10    6.72    0.58 
   0  -7  10    6.33    0.37 
  -1   7 -10    0.18    0.21 
   1  -7  10    0.30    0.12 
  -2   7 -10    0.03    0.20 
   2  -7  10   -0.06    0.07 
  -3   7 -10    4.09    0.58 
   3  -7  10    4.07    0.27 
  -4   7 -10    0.88    0.35 
   4  -7  10    0.86    0.15 
  -5   7 -10    0.47    0.32 
   5  -7  10    0.92    0.14 
  -6   7 -10    0.32    0.31 
  -7   7 -10    0.41    0.37 
  -8   7 -10    0.12    0.32 
  -9   7 -10    0.14    0.38 
 -10   7 -10    0.24    0.43 
 -13  -6  10    0.36    0.17 
 -13  -6  10   -0.02    0.43 
 -12  -6  10   -0.14    0.48 
 -12  -6  10    0.77    0.20 
 -11  -6  10    0.03    0.51 
 -11  -6  10    1.46    0.27 
 -10  -6  10    0.24    0.18 
 -10  -6  10    0.67    0.53 
  -9  -6  10   -0.07    0.14 
  -9  -6  10    0.27    0.45 
  -8  -6  10    0.21    0.19 
  -8  -6  10    0.10    0.40 
  -7  -6  10    0.51    0.21 
  -6  -6  10    0.24    0.17 
  -5  -6  10    1.58    0.27 
  -4  -6  10    1.18    0.22 
  -3  -6  10    4.67    0.32 
   2   6 -10    1.13    0.32 
  -2  -6  10    1.08    0.19 
   1   6 -10    9.75    0.69 
  -1  -6  10   10.14    0.46 
   0   6 -10   10.19    0.71 
  -1   6 -10    0.54    0.23 
   1  -6  10    0.86    0.18 
  -2   6 -10    1.26    0.32 
   2  -6  10    1.17    0.18 
  -3   6 -10    1.60    0.38 
   3  -6  10    1.96    0.21 
  -4   6 -10    0.07    0.23 
   4  -6  10   -0.02    0.06 
  -5   6 -10    5.40    0.71 
  -6   6 -10    1.67    0.44 
  -7   6 -10    1.63    0.49 
  -8   6 -10    0.20    0.33 
  -9   6 -10    0.61    0.38 
 -10   6 -10   -0.28    0.31 
 -11   6 -10   -0.07    0.38 
 -13  -5  10    0.03    0.59 
 -13  -5  10    0.65    0.18 
 -12  -5  10    1.44    0.26 
 -12  -5  10   -0.08    0.52 
 -11  -5  10   -0.31    0.48 
 -11  -5  10    0.30    0.18 
 -10  -5  10    2.28    0.31 
 -10  -5  10    0.48    0.56 
  -9  -5  10    1.55    0.28 
  -8  -5  10    0.82    0.23 
  -7  -5  10    0.16    0.18 
  -6  -5  10    0.66    0.22 
  -5  -5  10    0.39    0.19 
  -4  -5  10    1.05    0.22 
  -3  -5  10    6.02    0.36 
   2   5 -10    0.77    0.27 
  -2  -5  10    0.86    0.19 
   1   5 -10    5.90    0.52 
  -1  -5  10    6.57    0.35 
   0   5 -10   12.28    0.74 
   0  -5  10   10.95    0.47 
  -1   5 -10   -0.06    0.14 
   1  -5  10    0.01    0.12 
  -2   5 -10   -0.02    0.16 
   2  -5  10   -0.01    0.08 
  -3   5 -10    9.87    0.73 
   3  -5  10    9.80    0.41 
  -4   5 -10    2.50    0.47 
   4  -5  10    2.42    0.22 
  -5   5 -10    0.22    0.24 
   5  -5  10    0.24    0.06 
  -6   5 -10    2.72    0.57 
  -7   5 -10    1.10    0.40 
  -8   5 -10    0.25    0.31 
  -9   5 -10    0.36    0.37 
 -10   5 -10   -0.33    0.27 
 -11   5 -10    0.34    0.39 
 -12   5 -10    0.15    0.45 
 -13  -4  10    0.09    0.13 
 -13  -4  10    0.82    0.55 
 -12  -4  10   -0.29    0.51 
 -12  -4  10    0.78    0.21 
 -11  -4  10    1.28    0.24 
 -11  -4  10    0.03    0.49 
 -10  -4  10    0.14    0.18 
  -9  -4  10    0.17    0.18 
  -8  -4  10    0.72    0.22 
  -7  -4  10    0.27    0.19 
  -6  -4  10    2.06    0.29 
  -5  -4  10    5.11    0.36 
  -4  -4  10    0.43    0.17 
  -3  -4  10    0.75    0.18 
   2   4 -10    0.83    0.25 
  -2  -4  10    0.66    0.17 
   1   4 -10    5.32    0.47 
  -1  -4  10    5.70    0.32 
   0   4 -10    0.95    0.25 
   0  -4  10    0.88    0.16 
  -1   4 -10    5.03    0.52 
  -1   4 -10    4.67    0.38 
   1  -4  10    4.61    0.27 
  -2   4 -10    3.64    0.48 
  -2   4 -10    3.66    0.34 
  -3   4 -10    7.83    0.50 
  -3   4 -10    7.31    0.60 
   3  -4  10    7.22    0.35 
  -4   4 -10    0.07    0.20 
  -4   4 -10    0.17    0.11 
   4  -4  10    0.08    0.03 
  -5   4 -10    1.15    0.36 
   5  -4  10    1.07    0.13 
  -6   4 -10    0.91    0.37 
  -7   4 -10    4.69    0.70 
  -8   4 -10    1.73    0.47 
  -9   4 -10    0.26    0.35 
 -10   4 -10    0.25    0.35 
 -11   4 -10   -0.04    0.35 
 -12   4 -10    0.17    0.40 
 -13  -3  10    0.36    0.16 
 -13  -3  10    0.59    0.54 
 -12  -3  10    0.29    0.20 
 -12  -3  10   -0.12    0.49 
 -11  -3  10    1.46    0.27 
 -11  -3  10    0.51    0.51 
 -10  -3  10    0.02    0.16 
  -9  -3  10    2.80    0.32 
  -8  -3  10    1.39    0.25 
  -7  -3  10    0.25    0.18 
  -6  -3  10    2.36    0.29 
  -5  -3  10    5.27    0.35 
  -4  -3  10    0.04    0.13 
  -3  -3  10    0.62    0.17 
  -2  -3  10   13.40    0.54 
   1   3 -10    0.21    0.13 
  -1  -3  10    0.30    0.12 
   0   3 -10    2.76    0.39 
   0   3 -10    2.88    0.37 
   0  -3  10    3.05    0.25 
  -1   3 -10    0.31    0.13 
  -1   3 -10    0.51    0.19 
   1  -3  10    0.79    0.14 
  -2   3 -10    4.55    0.40 
  -2   3 -10    3.66    0.44 
   2  -3  10    4.04    0.23 
  -3   3 -10   17.57    0.90 
  -3   3 -10   16.61    0.94 
  -4   3 -10    0.25    0.21 
  -4   3 -10    0.33    0.16 
   4  -3  10    0.50    0.10 
  -5   3 -10    0.23    0.16 
  -5   3 -10    0.25    0.22 
   5  -3  10    0.00    0.04 
  -6   3 -10    1.89    0.43 
  -6   3 -10    2.06    0.36 
  -7   3 -10    9.28    0.69 
  -7   3 -10    9.40    0.83 
  -8   3 -10    0.87    0.27 
  -8   3 -10    0.23    0.30 
  -9   3 -10    0.17    0.30 
 -10   3 -10    0.05    0.28 
 -11   3 -10    0.39    0.38 
 -12   3 -10   -0.13    0.32 
 -13   3 -10    0.46    0.47 
 -13  -2  10    0.14    0.42 
 -13  -2  10   -0.01    0.12 
 -12  -2  10    0.02    0.16 
 -12  -2  10    0.70    0.46 
 -11  -2  10   -0.05    0.15 
 -10  -2  10    0.18    0.17 
  -9  -2  10    2.86    0.32 
  -8  -2  10    0.45    0.18 
  -7  -2  10    5.48    0.37 
  -6  -2  10   11.58    0.53 
  -5  -2  10   11.74    0.52 
  -4  -2  10    1.31    0.21 
  -3  -2  10    1.40    0.20 
  -2  -2  10    0.30    0.12 
   1   2 -10   12.60    0.70 
  -1  -2  10   12.10    0.48 
   0   2 -10    0.13    0.14 
   0   2 -10   -0.08    0.07 
   0  -2  10    0.10    0.10 
  -1   2 -10   19.94    1.06 
  -1   2 -10   21.33    0.98 
   1  -2  10   21.81    0.69 
  -2   2 -10    2.20    0.35 
  -2   2 -10    1.91    0.31 
   2  -2  10    2.22    0.19 
  -3   2 -10    0.07    0.09 
  -3   2 -10    0.28    0.16 
   3  -2  10    0.06    0.03 
  -4   2 -10    6.57    0.52 
  -4   2 -10    5.18    0.56 
  -5   2 -10    3.90    0.47 
  -5   2 -10    3.83    0.53 
   5  -2  10    3.43    0.19 
  -6   2 -10    0.09    0.21 
  -6   2 -10    0.10    0.17 
   6  -2  10    0.08    0.04 
  -7   2 -10    3.81    0.60 
  -7   2 -10    5.03    0.59 
  -8   2 -10    0.60    0.25 
  -8   2 -10    0.35    0.29 
  -9   2 -10    2.61    0.57 
  -9   2 -10    4.11    0.64 
 -10   2 -10    0.02    0.34 
 -10   2 -10   -0.05    0.28 
 -11   2 -10    0.74    0.42 
 -12   2 -10    0.48    0.38 
 -13   2 -10    0.40    0.35 
 -14   2 -10    0.09    0.33 
 -13  -1  10    0.04    0.13 
 -13  -1  10    0.11    0.44 
 -12  -1  10    0.12    0.16 
 -11  -1  10    0.01    0.14 
 -10  -1  10    0.10    0.15 
  -9  -1  10    0.33    0.17 
  -8  -1  10    0.18    0.17 
  -7  -1  10    1.56    0.24 
  -6  -1  10    0.18    0.17 
  -5  -1  10    7.15    0.38 
  -4  -1  10    3.25    0.28 
  -3  -1  10    0.31    0.14 
  -2  -1  10    8.81    0.38 
   1   1 -10    9.09    0.56 
  -1  -1  10    9.01    0.39 
   0   1 -10   24.68    1.05 
   0   1 -10   24.83    1.27 
   0  -1  10   24.61    0.76 
  -1   1 -10    0.60    0.24 
  -1   1 -10    0.85    0.20 
   1  -1  10    1.16    0.15 
  -2   1 -10    4.08    0.48 
  -2   1 -10    3.87    0.41 
   2  -1  10    3.48    0.21 
  -3   1 -10   17.18    0.96 
  -3   1 -10   17.51    0.88 
  -4   1 -10    0.15    0.13 
  -4   1 -10    0.03    0.15 
   4  -1  10    0.35    0.06 
  -5   1 -10    2.04    0.37 
  -5   1 -10    1.95    0.38 
  -6   1 -10    3.13    0.47 
  -6   1 -10    2.67    0.46 
   6  -1  10    2.51    0.14 
  -7   1 -10    6.15    0.61 
  -7   1 -10    5.71    0.69 
  -8   1 -10    0.21    0.26 
  -8   1 -10    0.16    0.30 
  -9   1 -10    0.03    0.22 
  -9   1 -10    0.06    0.29 
 -10   1 -10    0.47    0.32 
 -10   1 -10    0.97    0.44 
 -11   1 -10    1.15    0.50 
 -11   1 -10    0.76    0.38 
 -12   1 -10   -0.06    0.29 
 -12   1 -10   -0.27    0.34 
 -13   1 -10   -0.01    0.29 
 -14   1 -10    0.25    0.34 
 -12   0  10    0.25    0.16 
 -11   0  10    0.11    0.16 
 -10   0  10    0.09    0.16 
  -9   0  10    0.00    0.14 
  -8   0  10   -0.08    0.14 
  -7   0  10    7.67    0.41 
  -6   0  10   27.07    0.90 
  -5   0  10    2.27    0.25 
  -4   0  10   13.12    0.52 
  -3   0  10   15.13    0.55 
  -2   0  10    0.07    0.08 
   1   0 -10   32.73    1.64 
  -1   0  10   33.25    0.97 
   0   0 -10   14.44    0.94 
   0   0 -10   15.08    0.71 
   0   0  10   14.14    0.50 
  -1   0 -10    7.01    0.62 
  -1   0 -10    7.26    0.46 
   1   0  10    8.02    0.32 
  -2   0 -10    4.10    0.51 
  -2   0 -10    3.87    0.34 
   2   0  10    3.79    0.20 
  -3   0 -10    0.13    0.12 
  -3   0 -10    0.37    0.20 
  -4   0 -10    0.19    0.15 
  -4   0 -10    0.06    0.16 
   4   0  10    0.42    0.07 
  -5   0 -10    3.77    0.50 
  -5   0 -10    3.07    0.40 
   5   0  10    3.18    0.15 
  -6   0 -10   17.63    1.04 
  -6   0 -10   16.77    0.99 
   6   0  10   18.24    0.53 
  -7   0 -10    7.38    0.65 
  -7   0 -10    7.14    0.66 
  -8   0 -10   11.26    0.87 
  -8   0 -10   11.39    0.90 
  -9   0 -10    8.52    0.81 
  -9   0 -10    8.08    0.86 
 -10   0 -10    0.07    0.32 
 -10   0 -10    0.07    0.28 
 -11   0 -10    0.23    0.38 
 -11   0 -10    0.08    0.32 
 -12   0 -10    1.97    0.54 
 -12   0 -10    1.87    0.58 
 -13   0 -10   -0.01    0.29 
 -13   0 -10    0.16    0.45 
 -14   0 -10   -0.05    0.50 
 -14   0 -10   -0.07    0.29 
 -15   0 -10   -0.01    0.26 
 -12   1  10   -0.05    0.13 
 -11   1  10   -0.06    0.14 
 -10   1  10   -0.12    0.14 
  -9   1  10    0.69    0.19 
  -8   1  10    0.26    0.16 
  -7   1  10   -0.11    0.12 
  -6   1  10    0.86    0.20 
  -5   1  10    5.70    0.34 
  -4   1  10    0.40    0.14 
  -3   1  10    5.66    0.30 
  -2   1  10   18.97    0.63 
   1  -1 -10    1.36    0.39 
  -1   1  10    1.47    0.16 
   0  -1 -10   17.74    0.78 
   0  -1 -10   17.76    1.09 
   0   1  10   17.06    0.56 
  -1  -1 -10   29.17    1.48 
  -1  -1 -10   29.78    1.14 
   1   1  10   29.19    0.84 
  -2  -1 -10    0.89    0.17 
  -2  -1 -10    0.70    0.26 
   2   1  10    0.75    0.10 
  -3  -1 -10    4.96    0.38 
  -3  -1 -10    4.93    0.58 
  -4  -1 -10    0.45    0.16 
  -4  -1 -10    0.38    0.22 
   4   1  10    0.67    0.09 
  -5  -1 -10    2.94    0.48 
  -5  -1 -10    2.87    0.38 
   5   1  10    2.85    0.14 
  -6  -1 -10    5.81    0.59 
  -6  -1 -10    6.19    0.52 
   6   1  10    6.28    0.22 
  -7  -1 -10    1.63    0.40 
  -7  -1 -10    1.18    0.34 
  -8  -1 -10    0.18    0.23 
  -8  -1 -10    0.31    0.31 
  -9  -1 -10    8.66    0.86 
  -9  -1 -10    7.76    0.86 
 -10  -1 -10    3.17    0.65 
 -10  -1 -10    2.80    0.55 
 -11  -1 -10    1.32    0.50 
 -11  -1 -10    1.72    0.48 
 -12  -1 -10   -0.01    0.30 
 -12  -1 -10    0.13    0.36 
 -13  -1 -10    0.39    0.46 
 -13  -1 -10    0.66    0.38 
 -14  -1 -10   -0.35    0.38 
 -14  -1 -10   -0.05    0.30 
 -15  -1 -10    1.11    0.67 
 -15  -1 -10    0.74    0.35 
 -12   2  10   -0.24    0.12 
 -11   2  10    0.64    0.19 
 -10   2  10    0.10    0.14 
  -9   2  10   -0.13    0.15 
  -8   2  10    0.24    0.14 
  -7   2  10    2.14    0.26 
  -6   2  10    1.48    0.22 
  -5   2  10    0.30    0.13 
  -4   2  10    1.60    0.20 
  -3   2  10    5.54    0.29 
  -2   2  10    0.45    0.11 
   1  -2 -10    1.14    0.37 
  -1   2  10    1.13    0.13 
   0  -2 -10    2.28    0.48 
   0   2  10    2.85    0.16 
  -1  -2 -10    2.37    0.25 
  -1  -2 -10    2.62    0.47 
   1   2  10    2.56    0.15 
  -2  -2 -10   -0.06    0.15 
  -2  -2 -10    0.06    0.05 
   2   2  10    0.10    0.04 
  -3  -2 -10   13.46    0.90 
  -3  -2 -10   13.66    0.66 
   3   2  10   13.00    0.43 
  -4  -2 -10    0.04    0.09 
  -4  -2 -10   -0.14    0.15 
   4   2  10    0.21    0.04 
  -5  -2 -10    5.47    0.45 
  -5  -2 -10    6.33    0.60 
   5   2  10    6.21    0.23 
  -6  -2 -10   27.30    1.42 
  -6  -2 -10   26.29    1.21 
   6   2  10   25.69    0.70 
  -7  -2 -10    3.75    0.50 
  -7  -2 -10    4.29    0.62 
  -8  -2 -10    0.13    0.32 
  -8  -2 -10   -0.03    0.20 
  -9  -2 -10   12.82    0.91 
  -9  -2 -10   11.04    0.96 
 -10  -2 -10    1.07    0.43 
 -10  -2 -10    1.02    0.35 
 -11  -2 -10    0.48    0.40 
 -12  -2 -10    0.51    0.40 
 -13  -2 -10    0.13    0.41 
 -14  -2 -10    0.29    0.45 
 -15  -2 -10   -0.04    0.52 
 -11   3  10    0.13    0.15 
 -10   3  10   -0.15    0.11 
  -9   3  10    0.08    0.14 
  -8   3  10    0.12    0.14 
  -7   3  10    0.29    0.13 
  -6   3  10    0.22    0.11 
  -5   3  10    3.20    0.30 
  -4   3  10    5.03    0.31 
  -3   3  10    9.19    0.42 
  -2   3  10    1.44    0.19 
   1  -3 -10    3.87    0.65 
  -1   3  10    4.21    0.23 
   0  -3 -10    9.51    0.83 
   0   3  10   10.13    0.39 
  -1  -3 -10    7.87    0.41 
  -1  -3 -10    8.81    0.76 
   1   3  10    7.72    0.32 
  -2  -3 -10    0.59    0.12 
  -2  -3 -10    0.37    0.23 
   2   3  10    0.57    0.09 
  -3  -3 -10    1.47    0.38 
  -3  -3 -10    1.21    0.19 
   3   3  10    1.18    0.11 
  -4  -3 -10    7.34    0.68 
   4   3  10    7.33    0.26 
  -5  -3 -10    2.35    0.32 
  -5  -3 -10    3.41    0.53 
   5   3  10    3.05    0.14 
  -6  -3 -10    1.55    0.40 
  -6  -3 -10    2.28    0.34 
   6   3  10    2.05    0.11 
  -7  -3 -10    0.49    0.18 
  -7  -3 -10    0.51    0.30 
  -8  -3 -10   -0.05    0.25 
  -8  -3 -10    0.41    0.22 
  -9  -3 -10   10.88    0.82 
  -9  -3 -10   10.58    0.95 
 -10  -3 -10    3.30    0.66 
 -11  -3 -10    0.20    0.37 
 -12  -3 -10    0.79    0.46 
 -13  -3 -10    0.17    0.42 
 -14  -3 -10    0.47    0.48 
 -15  -3 -10    0.20    0.51 
 -10   4  10    0.37    0.17 
  -9   4  10    0.22    0.14 
  -8   4  10    2.36    0.29 
  -7   4  10    0.25    0.14 
  -6   4  10    0.55    0.17 
  -5   4  10    7.08    0.40 
  -4   4  10    2.23    0.26 
  -3   4  10    2.93    0.28 
  -2   4  10   10.42    0.45 
   1  -4 -10    0.96    0.39 
  -1   4  10    1.39    0.18 
   0  -4 -10    1.16    0.40 
   0   4  10    1.24    0.14 
  -1  -4 -10    2.24    0.51 
   1   4  10    1.99    0.18 
  -2  -4 -10    4.74    0.65 
  -2  -4 -10    3.90    0.24 
   2   4  10    4.61    0.22 
  -3  -4 -10    0.00    0.18 
  -3  -4 -10    0.31    0.08 
   3   4  10    0.32    0.06 
  -4  -4 -10    0.82    0.30 
  -4  -4 -10    0.92    0.16 
  -5  -4 -10    1.10    0.20 
  -5  -4 -10    1.56    0.39 
   5   4  10    1.27    0.09 
  -6  -4 -10   15.19    1.03 
  -6  -4 -10   13.48    0.73 
   6   4  10   14.16    0.42 
  -7  -4 -10    0.09    0.25 
  -7  -4 -10    0.26    0.13 
  -8  -4 -10    0.00    0.23 
  -8  -4 -10    0.34    0.12 
  -9  -4 -10    1.79    0.52 
 -10  -4 -10    0.46    0.36 
 -11  -4 -10    0.22    0.37 
 -12  -4 -10    0.31    0.38 
 -13  -4 -10    0.18    0.41 
 -14  -4 -10    0.41    0.52 
 -15  -4 -10    0.29    0.52 
 -16  -4 -10    0.27    0.61 
 -10   5  10    0.11    0.12 
  -9   5  10   -0.10    0.13 
  -8   5  10    0.29    0.16 
  -7   5  10    1.05    0.22 
  -6   5  10    1.42    0.22 
  -5   5  10    2.17    0.28 
  -4   5  10    1.80    0.25 
  -3   5  10    3.59    0.32 
  -2   5  10    0.28    0.11 
   1  -5 -10    0.69    0.39 
  -1   5  10    0.91    0.16 
   0  -5 -10   24.03    1.51 
   0   5  10   25.37    0.82 
  -1  -5 -10    4.89    0.74 
   1   5  10    5.10    0.27 
  -2  -5 -10    6.32    0.79 
   2   5  10    7.92    0.33 
  -3  -5 -10    1.47    0.40 
  -3  -5 -10    2.16    0.16 
   3   5  10    2.09    0.14 
  -4  -5 -10    1.78    0.20 
  -4  -5 -10    1.06    0.36 
   4   5  10    1.46    0.11 
  -5  -5 -10    1.06    0.17 
  -5  -5 -10    0.44    0.27 
   5   5  10    0.85    0.08 
  -6  -5 -10    6.79    0.79 
  -6  -5 -10    6.44    0.45 
   6   5  10    6.87    0.25 
  -7  -5 -10   -0.07    0.07 
  -7  -5 -10    0.10    0.25 
  -8  -5 -10    0.04    0.27 
  -9  -5 -10    4.35    0.70 
 -10  -5 -10    4.05    0.74 
 -11  -5 -10    1.28    0.48 
 -12  -5 -10    0.21    0.39 
 -13  -5 -10    1.37    0.60 
 -14  -5 -10   -0.25    0.46 
 -15  -5 -10    0.29    0.54 
 -16  -5 -10    0.84    0.68 
  -9   6  10    0.40    0.15 
  -8   6  10   -0.02    0.11 
  -7   6  10    2.37    0.31 
  -6   6  10    1.86    0.28 
  -5   6  10    2.87    0.32 
  -4   6  10    1.62    0.24 
  -3   6  10    1.78    0.25 
  -2   6  10    9.13    0.45 
   1  -6 -10    0.76    0.42 
  -1   6  10    0.67    0.15 
   0  -6 -10    2.76    0.64 
   0   6  10    3.70    0.30 
  -1  -6 -10    0.51    0.30 
   1   6  10    0.28    0.10 
  -2  -6 -10    7.65    0.78 
   2   6  10    8.45    0.37 
  -3  -6 -10   26.36    1.53 
   3   6  10   27.45    0.84 
  -4  -6 -10   -0.15    0.20 
   4   6  10    0.23    0.05 
  -5  -6 -10    6.27    0.77 
   5   6  10    4.22    0.21 
  -6  -6 -10    1.60    0.23 
  -6  -6 -10    0.89    0.36 
   6   6  10    1.40    0.10 
  -7  -6 -10    2.55    0.33 
  -7  -6 -10    1.58    0.45 
   7   6  10    2.27    0.13 
  -8  -6 -10    1.30    0.42 
  -9  -6 -10    2.76    0.59 
 -10  -6 -10    1.22    0.51 
 -11  -6 -10    0.02    0.33 
 -12  -6 -10    2.07    0.64 
 -13  -6 -10    0.17    0.46 
 -14  -6 -10    0.87    0.56 
 -15  -6 -10   -0.17    0.56 
 -16  -6 -10   -0.38    0.69 
  -9   7  10    0.05    0.11 
  -8   7  10    0.25    0.15 
  -7   7  10    0.20    0.16 
  -6   7  10    0.19    0.16 
  -5   7  10   -0.02    0.11 
  -4   7  10    1.60    0.24 
  -3   7  10    2.95    0.33 
  -2   7  10    0.29    0.14 
   1  -7 -10    2.26    0.65 
  -1   7  10    2.16    0.26 
   0  -7 -10   26.82    1.69 
   0   7  10   29.08    0.96 
  -1  -7 -10    1.24    0.44 
   1   7  10    1.09    0.19 
  -2  -7 -10    0.94    0.39 
   2   7  10    0.99    0.18 
  -3  -7 -10    9.52    0.44 
  -3  -7 -10    8.95    0.87 
  -4  -7 -10    3.39    0.64 
  -4  -7 -10    3.60    0.24 
  -5  -7 -10   11.56    0.46 
  -5  -7 -10   10.42    0.92 
  -6  -7 -10   13.45    0.61 
  -6  -7 -10   13.21    1.03 
  -7  -7 -10    1.66    0.25 
  -7  -7 -10    1.15    0.41 
   7   7  10    1.50    0.11 
  -8  -7 -10    0.32    0.29 
  -9  -7 -10   -0.20    0.23 
 -10  -7 -10    8.43    1.04 
 -11  -7 -10    1.97    0.63 
 -12  -7 -10    1.90    0.65 
 -13  -7 -10    1.29    0.64 
 -14  -7 -10    0.51    0.59 
 -15  -7 -10    1.12    0.77 
 -16  -7 -10   -0.37    0.67 
  -8   8  10   -0.16    0.09 
  -7   8  10    0.14    0.13 
  -6   8  10    0.58    0.15 
  -5   8  10   -0.14    0.09 
  -4   8  10    0.53    0.16 
  -3   8  10   -0.18    0.09 
  -2   8  10    0.18    0.13 
  -1   8  10    0.32    0.12 
   0  -8 -10    1.39    0.56 
   0   8  10    1.40    0.23 
  -1  -8 -10    2.98    0.33 
  -1  -8 -10    2.49    0.65 
  -2  -8 -10    2.03    0.58 
  -2  -8 -10    1.96    0.27 
  -3  -8 -10   20.56    1.39 
  -3  -8 -10   22.16    0.79 
  -4  -8 -10   24.80    0.85 
  -4  -8 -10   24.66    1.53 
  -5  -8 -10    0.54    0.34 
  -5  -8 -10    0.16    0.07 
  -6  -8 -10    0.96    0.42 
  -6  -8 -10    1.41    0.16 
  -7  -8 -10    7.12    0.92 
  -7  -8 -10    7.10    0.32 
  -8  -8 -10   -0.13    0.27 
  -8  -8 -10    0.22    0.06 
  -9  -8 -10    3.49    0.75 
 -10  -8 -10    0.98    0.45 
 -11  -8 -10    0.24    0.38 
 -12  -8 -10    0.06    0.47 
 -13  -8 -10    0.08    0.47 
 -14  -8 -10    0.59    0.56 
 -15  -8 -10   -0.10    0.59 
 -16  -8 -10    0.59    0.75 
  -7   9  10    0.14    0.14 
  -6   9  10    0.18    0.13 
  -5   9  10    0.20    0.13 
  -4   9  10    0.32    0.15 
  -3   9  10    0.23    0.14 
  -2   9  10    2.05    0.30 
  -1   9  10    0.12    0.14 
   0  -9 -10    7.98    0.48 
   0  -9 -10    9.12    1.25 
  -1  -9 -10    0.45    0.17 
  -1  -9 -10    0.39    0.47 
  -2  -9 -10    5.05    0.42 
  -2  -9 -10    4.56    0.87 
  -3  -9 -10    1.62    0.26 
  -3  -9 -10    1.62    0.53 
  -4  -9 -10    0.12    0.34 
  -4  -9 -10    0.25    0.14 
  -5  -9 -10    0.48    0.14 
  -5  -9 -10    0.13    0.33 
  -6  -9 -10    0.83    0.44 
  -6  -9 -10    0.62    0.12 
  -7  -9 -10    0.35    0.07 
  -7  -9 -10    0.05    0.31 
  -8  -9 -10    1.99    0.57 
  -8  -9 -10    2.12    0.20 
  -9  -9 -10    0.95    0.47 
 -10  -9 -10    0.33    0.40 
 -11  -9 -10    0.11    0.35 
 -12  -9 -10    1.26    0.55 
 -13  -9 -10    0.05    0.50 
 -14  -9 -10    1.27    0.76 
 -15  -9 -10    1.98    0.86 
 -16  -9 -10    0.75    0.85 
  -6  10  10    0.29    0.14 
  -5  10  10    0.32    0.14 
  -4  10  10    0.12    0.13 
  -3  10  10    0.33    0.15 
  -2  10  10    0.26    0.17 
   1 -10 -10    0.09    0.13 
   0 -10 -10    0.64    0.18 
   0 -10 -10    0.04    0.54 
  -1 -10 -10    2.14    0.31 
  -1 -10 -10    2.31    0.72 
  -2 -10 -10    2.57    0.33 
  -2 -10 -10    2.77    0.73 
  -3 -10 -10    3.52    0.80 
  -3 -10 -10    3.30    0.35 
  -4 -10 -10    0.92    0.51 
  -4 -10 -10    0.49    0.17 
  -5 -10 -10    1.66    0.57 
  -5 -10 -10    1.80    0.24 
  -6 -10 -10    1.57    0.20 
  -6 -10 -10    1.48    0.54 
  -7 -10 -10    1.36    0.58 
  -7 -10 -10    1.80    0.22 
  -8 -10 -10    0.81    0.46 
  -8 -10 -10    1.11    0.16 
  -9 -10 -10    0.82    0.47 
 -10 -10 -10    1.74    0.64 
 -11 -10 -10    0.19    0.41 
 -12 -10 -10    0.06    0.44 
 -13 -10 -10   -0.04    0.52 
 -14 -10 -10   -0.06    0.45 
 -15 -10 -10    0.03    0.57 
 -16 -10 -10    0.75    0.59 
  -5  11  10    0.31    0.17 
  -4  11  10    1.35    0.27 
  -3  11  10    0.79    0.22 
   2 -11 -10   -0.02    0.11 
   1 -11 -10    0.39    0.16 
   0 -11 -10    3.47    0.40 
  -1 -11 -10    0.64    0.53 
  -1 -11 -10    0.25    0.16 
  -2 -11 -10    2.65    0.82 
  -2 -11 -10    1.95    0.29 
  -3 -11 -10    3.20    0.81 
  -3 -11 -10    2.15    0.29 
  -4 -11 -10    1.22    0.56 
  -4 -11 -10    1.47    0.24 
  -5 -11 -10    0.45    0.15 
  -5 -11 -10   -0.09    0.36 
  -6 -11 -10    0.19    0.11 
  -6 -11 -10    0.17    0.40 
  -7 -11 -10    2.65    0.28 
  -7 -11 -10    2.34    0.69 
  -8 -11 -10    0.70    0.51 
  -9 -11 -10   -0.03    0.43 
 -10 -11 -10   -0.01    0.44 
 -11 -11 -10   -0.64    0.36 
 -12 -11 -10    1.07    0.55 
 -13 -11 -10   -0.11    0.41 
 -14 -11 -10    1.03    0.56 
 -15 -11 -10   -0.09    0.42 
  -4  12  10    0.20    0.16 
  -3  12  10   -0.03    0.16 
   2 -12 -10    0.07    0.12 
   1 -12 -10    0.24    0.14 
   0 -12 -10    0.28    0.15 
  -1 -12 -10    0.11    0.57 
  -1 -12 -10    0.02    0.11 
  -2 -12 -10    0.39    0.17 
  -2 -12 -10    0.63    0.57 
  -3 -12 -10    0.11    0.12 
  -3 -12 -10    0.38    0.52 
  -4 -12 -10    1.31    0.26 
  -4 -12 -10    2.20    0.71 
  -5 -12 -10    0.44    0.15 
  -5 -12 -10    0.26    0.49 
  -6 -12 -10    0.97    0.53 
  -6 -12 -10    1.76    0.26 
  -7 -12 -10    0.81    0.18 
  -7 -12 -10    0.39    0.46 
  -8 -12 -10    0.37    0.54 
  -8 -12 -10    0.45    0.14 
  -9 -12 -10    0.94    0.52 
 -10 -12 -10    0.00    0.47 
 -11 -12 -10    0.03    0.52 
 -12 -12 -10    0.62    0.50 
 -13 -12 -10    0.13    0.48 
 -14 -12 -10    0.77    0.61 
 -15 -12 -10    0.09    0.45 
  -3  13  10    0.26    0.20 
   2 -13 -10   -0.01    0.10 
   1 -13 -10    1.50    0.28 
   0 -13 -10    1.62    0.29 
  -1 -13 -10    0.01    0.60 
  -1 -13 -10    0.62    0.23 
  -2 -13 -10    0.65    0.20 
  -2 -13 -10    1.29    0.67 
  -3 -13 -10    0.40    0.17 
  -3 -13 -10    0.38    0.56 
  -4 -13 -10    0.14    0.13 
  -4 -13 -10    0.15    0.52 
  -5 -13 -10    0.28    0.14 
  -5 -13 -10   -0.29    0.47 
  -6 -13 -10    0.40    0.51 
  -6 -13 -10    0.30    0.13 
  -7 -13 -10    0.36    0.13 
  -7 -13 -10    0.34    0.45 
  -8 -13 -10    1.38    0.63 
  -8 -13 -10    2.03    0.25 
  -9 -13 -10    0.79    0.60 
 -10 -13 -10   -0.13    0.50 
 -11 -13 -10   -0.28    0.39 
 -12 -13 -10    1.09    0.61 
 -13 -13 -10    0.49    0.47 
 -14 -13 -10    0.59    0.51 
   1 -14 -10   -0.28    0.10 
   0 -14 -10    0.33    0.15 
  -1 -14 -10    0.54    0.17 
  -2 -14 -10    0.32    0.13 
  -2 -14 -10    0.43    0.69 
  -3 -14 -10    1.48    0.70 
  -3 -14 -10    2.03    0.30 
  -4 -14 -10   -0.47    0.48 
  -4 -14 -10    0.06    0.12 
  -5 -14 -10    0.02    0.48 
  -5 -14 -10    0.04    0.12 
  -6 -14 -10    0.23    0.53 
  -6 -14 -10    0.47    0.16 
  -7 -14 -10    0.50    0.17 
  -7 -14 -10   -0.05    0.45 
  -8 -14 -10    0.41    0.14 
  -8 -14 -10   -0.13    0.43 
  -9 -14 -10    0.02    0.54 
  -9 -14 -10    0.39    0.10 
 -10 -14 -10    0.10    0.54 
 -11 -14 -10    0.71    0.53 
 -12 -14 -10    0.40    0.53 
 -13 -14 -10    0.21    0.47 
 -14 -14 -10    0.16    0.45 
   0 -15 -10    0.07    0.12 
  -1 -15 -10    0.36    0.14 
  -2 -15 -10    0.19    0.17 
  -3 -15 -10   -0.07    0.47 
  -3 -15 -10    0.25    0.14 
  -4 -15 -10    0.55    0.19 
  -4 -15 -10   -0.02    0.54 
  -5 -15 -10    0.05    0.13 
  -5 -15 -10   -0.07    0.55 
  -6 -15 -10    0.02    0.13 
  -6 -15 -10    0.19    0.52 
  -7 -15 -10   -0.07    0.47 
  -7 -15 -10    0.36    0.12 
  -8 -15 -10    2.08    0.27 
  -8 -15 -10    0.46    0.48 
  -9 -15 -10    0.24    0.46 
 -10 -15 -10    0.46    0.55 
 -11 -15 -10    0.54    0.64 
 -12 -15 -10    1.59    0.67 
 -13 -15 -10   -0.42    0.46 
  -3 -16 -10    0.42    0.15 
  -4 -16 -10    0.40    0.15 
  -6 -16 -10    1.26    0.25 
  -7 -16 -10    0.32    0.14 
  -7 -16 -10    0.38    0.57 
  -8 -16 -10    0.56    0.54 
  -8 -16 -10    0.47    0.13 
  -9 -16 -10    0.42    0.10 
  -9 -16 -10    0.58    0.48 
 -10 -16 -10    0.44    0.46 
 -11 -16 -10    0.47    0.53 
  -7 -17 -10    0.10    0.13 
  -8 -17 -10    0.38    0.13 
  -8 -14  11    0.38    0.14 
  -7 -14  11    0.44    0.13 
  -6 -14  11    0.05    0.11 
  -5 -14  11    0.23    0.11 
  -4 -14  11   -0.03    0.08 
  -3 -14  11    0.44    0.13 
   2  14 -11   -0.35    0.31 
  -2 -14  11   -0.16    0.07 
   1  14 -11   -0.28    0.33 
  -1 -14  11   -0.06    0.08 
   0  14 -11   -0.01    0.38 
   0 -14  11    0.08    0.09 
 -10 -13  11    0.38    0.17 
  -9 -13  11    0.67    0.18 
  -8 -13  11    0.09    0.12 
  -7 -13  11    0.28    0.13 
  -6 -13  11    0.11    0.15 
  -5 -13  11    0.15    0.13 
  -4 -13  11    0.26    0.13 
  -3 -13  11   -0.01    0.08 
   2  13 -11    0.32    0.37 
  -2 -13  11    0.38    0.13 
   1  13 -11    0.27    0.38 
  -1 -13  11    0.61    0.12 
   0  13 -11   -0.26    0.26 
   0 -13  11   -0.06    0.08 
  -1  13 -11    0.17    0.34 
   1 -13  11    0.37    0.10 
  -2  13 -11    0.12    0.35 
   2 -13  11    0.65    0.15 
 -11 -12  11    0.15    0.18 
 -10 -12  11    0.13    0.21 
  -9 -12  11   -0.06    0.13 
  -8 -12  11    0.84    0.24 
  -7 -12  11    1.22    0.26 
  -6 -12  11    0.47    0.14 
  -5 -12  11    0.89    0.21 
  -4 -12  11    0.55    0.14 
  -3 -12  11    0.25    0.11 
   2  12 -11   -0.17    0.28 
  -2 -12  11    0.07    0.10 
   1  12 -11    0.13    0.31 
  -1 -12  11    0.20    0.09 
   0  12 -11   -0.07    0.28 
   0 -12  11    0.32    0.10 
  -1  12 -11    0.40    0.35 
   1 -12  11    0.20    0.09 
  -2  12 -11    0.15    0.34 
   2 -12  11    0.34    0.11 
  -3  12 -11   -0.02    0.33 
   3 -12  11    0.84    0.16 
  -4  12 -11    0.70    0.43 
 -11 -11  11   -0.24    0.26 
 -10 -11  11   -0.40    0.22 
  -9 -11  11    0.01    0.21 
  -8 -11  11    0.06    0.19 
  -7 -11  11    1.04    0.27 
  -6 -11  11    1.34    0.28 
  -5 -11  11    0.18    0.12 
  -4 -11  11    0.51    0.15 
  -3 -11  11    0.32    0.13 
   2  11 -11    0.02    0.27 
  -2 -11  11   -0.02    0.08 
   1  11 -11    0.27    0.34 
  -1 -11  11    0.41    0.11 
   0  11 -11    0.52    0.35 
   0 -11  11    0.38    0.10 
  -1  11 -11    0.90    0.40 
   1 -11  11    1.06    0.19 
  -2  11 -11    0.15    0.29 
   2 -11  11    0.08    0.09 
  -3  11 -11    0.17    0.33 
   3 -11  11    0.50    0.13 
  -4  11 -11    0.45    0.37 
  -5  11 -11    0.27    0.40 
 -12 -10  11    0.75    0.14 
 -11 -10  11    1.43    0.23 
 -10 -10  11    0.53    0.15 
  -9 -10  11   -0.08    0.27 
  -8 -10  11    0.03    0.28 
  -7 -10  11   -0.25    0.21 
  -6 -10  11   -0.08    0.19 
  -5 -10  11    0.42    0.18 
  -4 -10  11    0.85    0.21 
  -3 -10  11    0.14    0.12 
   2  10 -11    0.15    0.28 
  -2 -10  11    0.21    0.11 
   1  10 -11   -0.07    0.23 
  -1 -10  11    0.10    0.10 
   0  10 -11    0.12    0.26 
   0 -10  11    0.37    0.11 
  -1  10 -11    0.91    0.34 
   1 -10  11    0.70    0.14 
  -2  10 -11    0.25    0.28 
   2 -10  11    0.46    0.12 
  -3  10 -11   -0.12    0.25 
   3 -10  11    0.07    0.07 
  -4  10 -11    0.06    0.30 
   4 -10  11    0.06    0.06 
  -5  10 -11    0.03    0.35 
  -6  10 -11   -0.08    0.34 
  -7  10 -11    0.28    0.44 
 -12  -9  11    0.37    0.13 
 -11  -9  11    0.31    0.15 
 -10  -9  11    0.33    0.15 
  -9  -9  11    0.19    0.15 
  -8  -9  11    0.03    0.14 
  -7  -9  11    0.31    0.16 
  -6  -9  11    0.89    0.24 
  -5  -9  11   -0.01    0.21 
  -4  -9  11    1.04    0.26 
  -3  -9  11    0.08    0.16 
   2   9 -11   -0.04    0.21 
  -2  -9  11    0.29    0.14 
   1   9 -11    1.10    0.36 
  -1  -9  11    0.86    0.18 
   0   9 -11    0.27    0.26 
   0  -9  11    0.54    0.14 
  -1   9 -11    0.46    0.28 
   1  -9  11    0.71    0.15 
  -2   9 -11    0.17    0.23 
   2  -9  11    0.25    0.08 
  -3   9 -11   -0.03    0.23 
   3  -9  11    0.21    0.08 
  -4   9 -11   -0.08    0.32 
   4  -9  11   -0.08    0.06 
  -5   9 -11    0.50    0.38 
  -6   9 -11   -0.05    0.34 
  -7   9 -11    0.37    0.45 
  -8   9 -11   -0.45    0.36 
 -13  -8  11    0.80    0.16 
 -12  -8  11    0.29    0.13 
 -11  -8  11   -0.14    0.12 
 -10  -8  11    0.36    0.17 
  -9  -8  11    0.22    0.15 
  -8  -8  11    0.20    0.15 
  -7  -8  11    0.18    0.17 
  -6  -8  11    0.74    0.21 
  -5  -8  11    0.28    0.13 
  -4  -8  11    1.16    0.21 
  -3  -8  11    0.11    0.18 
   2   8 -11   -0.27    0.17 
  -2  -8  11    0.03    0.15 
   1   8 -11    2.41    0.44 
  -1  -8  11    3.61    0.35 
   0   8 -11   -0.06    0.19 
   0  -8  11    0.38    0.13 
  -1   8 -11    0.40    0.27 
   1  -8  11    1.28    0.20 
  -2   8 -11    2.05    0.45 
   2  -8  11    3.02    0.30 
  -3   8 -11    5.52    0.72 
   3  -8  11    5.87    0.34 
  -4   8 -11    1.15    0.40 
   4  -8  11    1.71    0.21 
  -5   8 -11    0.26    0.33 
  -6   8 -11    0.38    0.38 
  -7   8 -11    0.31    0.37 
  -8   8 -11    0.52    0.43 
  -9   8 -11   -0.25    0.33 
 -13  -7  11    0.19    0.40 
 -13  -7  11    0.62    0.16 
 -12  -7  11    0.21    0.51 
 -12  -7  11    0.38    0.16 
 -11  -7  11    0.34    0.18 
 -11  -7  11   -0.45    0.47 
 -10  -7  11    0.32    0.17 
 -10  -7  11    0.28    0.51 
  -9  -7  11    0.04    0.15 
  -9  -7  11    0.33    0.46 
  -8  -7  11    0.27    0.43 
  -8  -7  11    0.82    0.24 
  -7  -7  11    0.10    0.16 
  -6  -7  11   -0.06    0.14 
  -5  -7  11    0.31    0.14 
  -4  -7  11    8.36    0.47 
  -3  -7  11   -0.04    0.10 
   2   7 -11   11.65    0.83 
  -2  -7  11   10.97    0.54 
   1   7 -11    8.28    0.68 
   0   7 -11    0.07    0.20 
   0  -7  11    0.14    0.14 
  -1   7 -11   16.19    0.98 
   1  -7  11   15.24    0.63 
  -2   7 -11    0.81    0.30 
   2  -7  11    0.73    0.15 
  -3   7 -11    0.51    0.29 
   3  -7  11    0.42    0.10 
  -4   7 -11    1.32    0.42 
   4  -7  11    1.00    0.15 
  -5   7 -11    1.29    0.46 
  -6   7 -11   -0.13    0.25 
  -7   7 -11    0.27    0.36 
  -8   7 -11    0.02    0.35 
  -9   7 -11    0.57    0.46 
 -10   7 -11   -0.13    0.38 
 -13  -6  11    0.19    0.15 
 -13  -6  11   -0.12    0.41 
 -12  -6  11    0.35    0.61 
 -12  -6  11    0.37    0.18 
 -11  -6  11    0.70    0.62 
 -11  -6  11    0.51    0.19 
 -10  -6  11    1.13    0.26 
 -10  -6  11    0.25    0.50 
  -9  -6  11   -0.61    0.46 
  -9  -6  11    0.03    0.15 
  -8  -6  11    0.72    0.46 
  -8  -6  11    0.57    0.22 
  -7  -6  11    1.06    0.25 
  -6  -6  11    0.21    0.17 
  -5  -6  11    1.12    0.22 
  -4  -6  11    0.19    0.15 
  -3  -6  11    0.53    0.17 
   2   6 -11    0.74    0.28 
  -2  -6  11    0.41    0.16 
   1   6 -11    1.01    0.31 
  -1  -6  11    1.27    0.21 
   0   6 -11    1.70    0.37 
   0  -6  11    0.93    0.22 
  -1   6 -11    1.66    0.38 
   1  -6  11    1.69    0.24 
  -2   6 -11   -0.05    0.17 
   2  -6  11    0.09    0.10 
  -3   6 -11    4.25    0.59 
   3  -6  11    3.69    0.25 
  -4   6 -11    2.31    0.48 
   4  -6  11    2.15    0.22 
  -5   6 -11    0.76    0.34 
  -6   6 -11   -0.06    0.26 
  -7   6 -11    0.14    0.31 
  -8   6 -11    0.52    0.41 
  -9   6 -11    0.12    0.38 
 -10   6 -11    0.07    0.36 
 -11   6 -11   -0.06    0.39 
 -13  -5  11    0.58    0.17 
 -13  -5  11    0.26    0.48 
 -12  -5  11   -0.21    0.48 
 -12  -5  11    0.03    0.14 
 -11  -5  11   -0.10    0.48 
 -11  -5  11    0.64    0.21 
 -10  -5  11    0.12    0.51 
 -10  -5  11    1.05    0.25 
  -9  -5  11    0.70    0.24 
  -8  -5  11    0.36    0.19 
  -7  -5  11    0.56    0.23 
  -6  -5  11    0.32    0.19 
  -5  -5  11    0.44    0.19 
  -4  -5  11    7.71    0.44 
  -3  -5  11    6.03    0.39 
   2   5 -11   10.39    0.73 
  -2  -5  11    9.85    0.49 
   1   5 -11    5.88    0.61 
  -1  -5  11    5.60    0.34 
   0   5 -11    2.14    0.38 
   0  -5  11    2.17    0.25 
  -1   5 -11   18.78    1.02 
  -2   5 -11    1.22    0.33 
   2  -5  11    1.04    0.20 
  -3   5 -11   -0.05    0.20 
   3  -5  11    0.14    0.09 
  -4   5 -11    9.54    0.77 
   4  -5  11    9.65    0.41 
  -5   5 -11    0.58    0.31 
   5  -5  11    0.76    0.10 
  -6   5 -11    0.57    0.33 
  -7   5 -11    0.28    0.31 
  -8   5 -11    1.97    0.55 
  -9   5 -11   -0.25    0.30 
 -10   5 -11    0.44    0.42 
 -11   5 -11    0.36    0.45 
 -13  -4  11    0.31    0.16 
 -13  -4  11   -0.18    0.39 
 -12  -4  11    0.16    0.47 
 -12  -4  11    0.24    0.19 
 -11  -4  11    0.09    0.14 
 -11  -4  11    0.20    0.51 
 -10  -4  11    0.89    0.24 
  -9  -4  11    0.06    0.17 
  -8  -4  11   -0.01    0.16 
  -7  -4  11    3.41    0.35 
  -6  -4  11    0.48    0.20 
  -5  -4  11   -0.01    0.18 
  -4  -4  11    0.52    0.18 
  -3  -4  11   -0.04    0.13 
   2   4 -11    0.12    0.19 
  -2  -4  11    0.46    0.17 
   1   4 -11   -0.09    0.16 
  -1  -4  11    0.11    0.12 
   0   4 -11   16.44    0.90 
   0  -4  11   16.24    0.61 
  -1   4 -11    2.49    0.39 
  -1   4 -11    2.88    0.36 
   1  -4  11    2.75    0.24 
  -2   4 -11    0.52    0.16 
  -2   4 -11    0.33    0.23 
   2  -4  11    0.29    0.08 
  -3   4 -11    4.90    0.58 
   3  -4  11    4.92    0.29 
  -4   4 -11    7.53    0.66 
  -5   4 -11    0.04    0.22 
   5  -4  11    0.17    0.05 
  -6   4 -11    0.86    0.35 
  -7   4 -11    2.15    0.51 
  -8   4 -11    0.05    0.26 
  -9   4 -11   -0.06    0.29 
 -10   4 -11    0.27    0.37 
 -11   4 -11    0.05    0.35 
 -12   4 -11    0.24    0.43 
 -13  -3  11    0.16    0.15 
 -12  -3  11    0.52    0.19 
 -12  -3  11   -0.52    0.39 
 -11  -3  11    0.12    0.16 
 -10  -3  11    0.38    0.18 
  -9  -3  11    0.66    0.21 
  -8  -3  11    0.06    0.16 
  -7  -3  11    0.40    0.19 
  -6  -3  11   -0.04    0.17 
  -5  -3  11    0.88    0.22 
  -4  -3  11    5.56    0.37 
  -3  -3  11    2.67    0.28 
  -2  -3  11    0.04    0.13 
   1   3 -11    1.07    0.29 
  -1  -3  11    0.96    0.18 
   0   3 -11    1.55    0.32 
   0  -3  11    1.52    0.20 
  -1   3 -11    1.61    0.32 
  -1   3 -11    1.49    0.31 
   1  -3  11    1.61    0.20 
  -2   3 -11    2.17    0.39 
  -2   3 -11    1.82    0.33 
   2  -3  11    2.13    0.20 
  -3   3 -11    2.17    0.38 
  -3   3 -11    2.69    0.39 
   3  -3  11    2.46    0.21 
  -4   3 -11    4.21    0.47 
  -4   3 -11    3.88    0.55 
   4  -3  11    2.84    0.20 
  -5   3 -11    2.34    0.37 
  -5   3 -11    2.27    0.45 
   5  -3  11    2.32    0.19 
  -6   3 -11    1.53    0.31 
  -6   3 -11    1.06    0.39 
  -7   3 -11    0.01    0.22 
  -8   3 -11    0.15    0.28 
  -9   3 -11    0.08    0.30 
 -10   3 -11   -0.15    0.28 
 -11   3 -11    0.70    0.40 
 -12   3 -11   -0.02    0.32 
 -13   3 -11    0.19    0.43 
 -13  -2  11    0.16    0.14 
 -12  -2  11    0.26    0.15 
 -12  -2  11    0.18    0.44 
 -11  -2  11   -0.20    0.12 
 -10  -2  11    0.61    0.20 
  -9  -2  11   -0.16    0.16 
  -8  -2  11    0.25    0.17 
  -7  -2  11    3.63    0.35 
  -6  -2  11   -0.03    0.17 
  -5  -2  11    1.16    0.23 
  -4  -2  11    2.37    0.27 
  -3  -2  11    1.08    0.19 
  -2  -2  11   13.63    0.55 
   1   2 -11    4.28    0.45 
  -1  -2  11    3.44    0.25 
   0   2 -11    0.55    0.24 
   0   2 -11    0.72    0.19 
   0  -2  11    0.66    0.15 
  -1   2 -11   25.66    1.13 
  -1   2 -11   24.71    1.27 
   1  -2  11   24.88    0.80 
  -2   2 -11    6.87    0.53 
  -2   2 -11    8.52    0.62 
   2  -2  11    8.25    0.36 
  -3   2 -11    1.69    0.35 
  -3   2 -11    1.23    0.29 
   3  -2  11    2.20    0.18 
  -4   2 -11   20.05    1.05 
  -4   2 -11   16.63    0.98 
   4  -2  11   18.22    0.59 
  -5   2 -11    0.66    0.22 
  -5   2 -11    0.62    0.28 
   5  -2  11    1.09    0.15 
  -6   2 -11    4.20    0.60 
  -6   2 -11    4.59    0.56 
  -7   2 -11   15.18    0.96 
  -7   2 -11   15.62    1.06 
  -8   2 -11    1.12    0.38 
  -8   2 -11    0.95    0.36 
  -9   2 -11    0.23    0.29 
  -9   2 -11    0.24    0.29 
 -10   2 -11    0.24    0.32 
 -11   2 -11    0.07    0.31 
 -12   2 -11    0.51    0.38 
 -13   2 -11   -0.18    0.26 
 -12  -1  11   -0.09    0.16 
 -11  -1  11   -0.30    0.14 
 -10  -1  11   -0.20    0.11 
  -9  -1  11    0.31    0.17 
  -8  -1  11    0.05    0.16 
  -7  -1  11    3.75    0.34 
  -6  -1  11    1.79    0.26 
  -5  -1  11    6.92    0.39 
  -4  -1  11   12.18    0.51 
  -3  -1  11    0.45    0.14 
  -2  -1  11    2.69    0.24 
  -1  -1  11    5.53    0.30 
   0   1 -11    0.51    0.17 
   0   1 -11    0.57    0.24 
   0  -1  11    0.72    0.14 
  -1   1 -11   11.90    0.81 
  -1   1 -11   11.11    0.65 
   1  -1  11   11.73    0.45 
  -2   1 -11   36.95    1.47 
  -2   1 -11   36.40    1.68 
   2  -1  11   36.40    1.05 
  -3   1 -11    0.15    0.16 
  -3   1 -11    0.03    0.09 
   3  -1  11    0.42    0.08 
  -4   1 -11    2.84    0.46 
  -4   1 -11    2.92    0.42 
   4  -1  11    2.49    0.15 
  -5   1 -11    1.31    0.34 
  -5   1 -11    1.66    0.37 
   5  -1  11    1.52    0.14 
  -6   1 -11    2.23    0.44 
  -6   1 -11    2.71    0.46 
  -7   1 -11    1.74    0.40 
  -7   1 -11    2.13    0.48 
  -8   1 -11    1.54    0.45 
  -8   1 -11    1.44    0.41 
  -9   1 -11    0.55    0.34 
  -9   1 -11    0.63    0.33 
 -10   1 -11    0.54    0.36 
 -10   1 -11    0.24    0.38 
 -11   1 -11    0.02    0.27 
 -11   1 -11    0.41    0.40 
 -12   1 -11    0.11    0.31 
 -13   1 -11   -0.13    0.27 
 -14   1 -11    0.08    0.30 
 -12   0  11    0.06    0.17 
 -11   0  11    0.26    0.17 
 -10   0  11    0.39    0.18 
  -9   0  11    0.06    0.15 
  -8   0  11    0.29    0.17 
  -7   0  11    1.03    0.22 
  -6   0  11    0.73    0.20 
  -5   0  11    9.36    0.45 
  -4   0  11    1.96    0.23 
  -3   0  11    0.08    0.11 
  -2   0  11    0.01    0.11 
   1   0 -11    2.15    0.45 
  -1   0  11    1.94    0.20 
   0   0 -11    0.50    0.23 
   0   0 -11    0.18    0.12 
   0   0  11    0.25    0.10 
  -1   0 -11    2.12    0.43 
  -1   0 -11    1.99    0.29 
   1   0  11    1.90    0.19 
  -2   0 -11   11.58    0.80 
  -2   0 -11   10.76    0.62 
   2   0  11   10.62    0.41 
  -3   0 -11    2.19    0.33 
  -3   0 -11    2.54    0.44 
   3   0  11    2.19    0.15 
  -4   0 -11   11.50    0.70 
  -4   0 -11   13.00    0.85 
   4   0  11   12.30    0.43 
  -5   0 -11    5.70    0.59 
  -5   0 -11    6.36    0.59 
   5   0  11    7.61    0.28 
  -6   0 -11    0.82    0.28 
  -6   0 -11    0.92    0.30 
  -7   0 -11   20.54    1.19 
  -7   0 -11   21.21    1.23 
  -8   0 -11   -0.05    0.20 
  -8   0 -11   -0.18    0.24 
  -9   0 -11   -0.21    0.29 
  -9   0 -11    0.11    0.27 
 -10   0 -11   -0.02    0.25 
 -10   0 -11    0.12    0.32 
 -11   0 -11    0.30    0.37 
 -11   0 -11   -0.06    0.27 
 -12   0 -11    0.20    0.34 
 -12   0 -11    0.59    0.45 
 -13   0 -11   -0.20    0.28 
 -13   0 -11    0.08    0.44 
 -14   0 -11    0.69    0.38 
 -14   0 -11    0.67    0.51 
 -12   1  11    3.85    0.40 
 -11   1  11   -0.11    0.15 
 -10   1  11   -0.09    0.11 
  -9   1  11    0.16    0.15 
  -8   1  11    0.14    0.17 
  -7   1  11    0.22    0.15 
  -6   1  11    2.38    0.28 
  -5   1  11    5.24    0.33 
  -4   1  11    0.74    0.17 
  -3   1  11   12.92    0.51 
  -2   1  11    9.83    0.42 
   1  -1 -11    0.22    0.22 
  -1   1  11    0.17    0.08 
   0  -1 -11    0.14    0.21 
   0  -1 -11    0.29    0.10 
   0   1  11    0.21    0.08 
  -1  -1 -11    0.23    0.09 
  -1  -1 -11    0.28    0.21 
   1   1  11    0.15    0.07 
  -2  -1 -11    3.03    0.49 
  -2  -1 -11    3.21    0.34 
   2   1  11    3.39    0.19 
  -3  -1 -11    1.18    0.35 
  -3  -1 -11    0.71    0.19 
   3   1  11    1.12    0.13 
  -4  -1 -11    2.11    0.44 
  -4  -1 -11    2.39    0.34 
   4   1  11    2.05    0.14 
  -5  -1 -11   12.63    0.74 
  -5  -1 -11   12.65    0.87 
   5   1  11   11.79    0.40 
  -6  -1 -11    3.38    0.49 
  -6  -1 -11    3.46    0.56 
   6   1  11    3.65    0.15 
  -7  -1 -11   -0.08    0.23 
  -7  -1 -11    0.26    0.25 
  -8  -1 -11   23.37    1.29 
  -8  -1 -11   24.14    1.41 
  -9  -1 -11    0.30    0.33 
  -9  -1 -11    0.03    0.21 
 -10  -1 -11    0.46    0.35 
 -10  -1 -11    0.19    0.28 
 -11  -1 -11    2.99    0.61 
 -11  -1 -11    3.83    0.73 
 -12  -1 -11    0.81    0.40 
 -12  -1 -11    0.68    0.46 
 -13  -1 -11   -0.07    0.29 
 -13  -1 -11    0.18    0.44 
 -14  -1 -11    0.23    0.35 
 -14  -1 -11    0.01    0.49 
 -15  -1 -11    0.47    0.34 
 -11   2  11    0.62    0.19 
 -10   2  11    0.12    0.16 
  -9   2  11    0.05    0.15 
  -7   2  11    0.32    0.15 
  -6   2  11    0.69    0.18 
  -5   2  11    5.16    0.33 
  -4   2  11    0.62    0.16 
  -3   2  11    2.99    0.26 
  -2   2  11    0.00    0.09 
   1  -2 -11    7.00    0.86 
  -1   2  11    6.92    0.33 
   0  -2 -11    7.27    0.81 
   0   2  11    6.57    0.30 
  -1  -2 -11    8.79    0.77 
   1   2  11    8.96    0.35 
  -2  -2 -11    6.70    0.72 
   2   2  11    6.09    0.27 
  -3  -2 -11    3.33    0.35 
  -3  -2 -11    3.02    0.52 
   3   2  11    3.37    0.18 
  -4  -2 -11    0.89    0.32 
  -4  -2 -11    1.47    0.25 
   4   2  11    1.72    0.12 
  -5  -2 -11   16.57    1.07 
  -5  -2 -11   17.99    0.90 
   5   2  11   18.07    0.54 
  -6  -2 -11    0.42    0.26 
  -6  -2 -11    0.84    0.21 
   6   2  11    0.99    0.07 
  -7  -2 -11   16.86    0.97 
  -7  -2 -11   15.71    1.09 
  -8  -2 -11    0.42    0.27 
  -8  -2 -11    0.57    0.33 
  -9  -2 -11    2.33    0.55 
  -9  -2 -11    2.93    0.53 
 -10  -2 -11    2.09    0.48 
 -10  -2 -11    1.36    0.45 
 -11  -2 -11    0.84    0.38 
 -11  -2 -11    0.68    0.41 
 -12  -2 -11    0.59    0.36 
 -12  -2 -11    0.29    0.41 
 -13  -2 -11    0.21    0.42 
 -13  -2 -11    0.09    0.29 
 -14  -2 -11    0.73    0.39 
 -14  -2 -11    0.35    0.48 
 -15  -2 -11    0.71    0.35 
 -15  -2 -11    0.17    0.59 
 -11   3  11    0.24    0.15 
 -10   3  11    0.54    0.19 
  -9   3  11    0.15    0.14 
  -8   3  11    0.08    0.14 
  -7   3  11    0.80    0.19 
  -6   3  11    0.39    0.14 
  -5   3  11    0.16    0.13 
  -4   3  11    0.53    0.15 
  -3   3  11    0.65    0.15 
  -2   3  11    3.77    0.26 
   1  -3 -11    2.21    0.53 
  -1   3  11    2.09    0.21 
   0  -3 -11    8.52    0.82 
   0   3  11    6.95    0.32 
  -1  -3 -11    7.64    0.75 
   1   3  11    7.93    0.33 
  -2  -3 -11    0.47    0.24 
  -2  -3 -11    0.26    0.09 
   2   3  11    0.38    0.07 
  -3  -3 -11    0.32    0.24 
  -3  -3 -11    0.40    0.12 
   3   3  11    0.36    0.06 
  -4  -3 -11    0.15    0.07 
  -4  -3 -11    0.56    0.29 
   4   3  11    0.32    0.05 
  -5  -3 -11    0.81    0.31 
  -5  -3 -11    0.96    0.21 
   5   3  11    0.94    0.10 
  -6  -3 -11    0.34    0.15 
  -6  -3 -11    0.17    0.23 
   6   3  11    0.52    0.06 
  -7  -3 -11    0.94    0.35 
  -7  -3 -11    0.91    0.23 
  -8  -3 -11    9.39    0.73 
  -8  -3 -11    9.81    0.88 
  -9  -3 -11    0.44    0.28 
  -9  -3 -11    0.36    0.30 
 -10  -3 -11    0.54    0.37 
 -10  -3 -11    0.51    0.32 
 -11  -3 -11    0.38    0.28 
 -11  -3 -11    0.60    0.38 
 -12  -3 -11    0.04    0.30 
 -12  -3 -11   -0.33    0.34 
 -13  -3 -11    0.22    0.46 
 -14  -3 -11    0.11    0.44 
 -15  -3 -11    0.16    0.57 
 -10   4  11    0.14    0.15 
  -9   4  11    0.10    0.14 
  -8   4  11    0.04    0.12 
  -7   4  11   -0.04    0.12 
  -6   4  11   -0.18    0.09 
  -5   4  11    4.26    0.37 
  -4   4  11    0.46    0.16 
  -3   4  11    1.51    0.22 
  -2   4  11    0.10    0.09 
   1  -4 -11    7.49    0.95 
  -1   4  11    7.73    0.38 
   0  -4 -11    7.90    0.94 
   0   4  11    8.69    0.38 
  -1  -4 -11    0.93    0.38 
   1   4  11    0.81    0.11 
  -2  -4 -11    2.91    0.55 
  -2  -4 -11    3.94    0.26 
   2   4  11    3.75    0.21 
  -3  -4 -11    6.15    0.76 
  -3  -4 -11    7.09    0.38 
   3   4  11    6.54    0.28 
  -4  -4 -11    4.83    0.33 
  -4  -4 -11    4.09    0.64 
   4   4  11    3.56    0.18 
  -5  -4 -11    0.66    0.17 
  -5  -4 -11    0.61    0.33 
   5   4  11    1.02    0.10 
  -6  -4 -11    4.72    0.68 
  -6  -4 -11    3.76    0.42 
   6   4  11    5.64    0.21 
  -7  -4 -11    6.01    0.77 
  -7  -4 -11    7.49    0.54 
  -8  -4 -11    0.17    0.22 
  -8  -4 -11   -0.06    0.23 
  -9  -4 -11    7.52    0.75 
  -9  -4 -11    7.53    0.90 
 -10  -4 -11    0.02    0.30 
 -10  -4 -11    0.27    0.24 
 -11  -4 -11   -0.28    0.29 
 -12  -4 -11   -0.08    0.31 
 -13  -4 -11    0.50    0.46 
 -14  -4 -11   -0.16    0.43 
 -15  -4 -11    0.16    0.52 
 -10   5  11    0.50    0.17 
  -9   5  11   -0.10    0.11 
  -8   5  11    0.12    0.12 
  -7   5  11    3.37    0.36 
  -6   5  11    0.93    0.20 
  -5   5  11    2.13    0.28 
  -4   5  11    5.39    0.36 
  -3   5  11    1.03    0.19 
  -2   5  11    1.37    0.20 
   1  -5 -11   12.57    1.10 
  -1   5  11   13.64    0.55 
   0  -5 -11    2.29    0.57 
   0   5  11    2.16    0.23 
  -1  -5 -11   13.86    1.12 
   1   5  11   14.85    0.55 
  -2  -5 -11    1.00    0.37 
   2   5  11    1.45    0.15 
  -3  -5 -11    0.93    0.13 
  -3  -5 -11    0.79    0.37 
   3   5  11    0.80    0.11 
  -4  -5 -11    2.21    0.50 
  -4  -5 -11    2.41    0.20 
   4   5  11    2.01    0.13 
  -5  -5 -11    0.07    0.22 
  -5  -5 -11    0.22    0.09 
   5   5  11    0.10    0.03 
  -6  -5 -11    0.88    0.20 
  -6  -5 -11    0.58    0.32 
   6   5  11    1.10    0.08 
  -7  -5 -11    3.70    0.65 
  -8  -5 -11    1.12    0.41 
  -8  -5 -11    1.76    0.31 
  -9  -5 -11   -0.20    0.25 
  -9  -5 -11    0.12    0.21 
 -10  -5 -11    1.88    0.55 
 -11  -5 -11    0.64    0.40 
 -12  -5 -11    0.14    0.51 
 -13  -5 -11   -0.05    0.39 
 -14  -5 -11   -0.08    0.42 
 -15  -5 -11    0.42    0.56 
  -9   6  11    0.40    0.15 
  -8   6  11    0.09    0.15 
  -7   6  11   -0.11    0.10 
  -6   6  11    0.44    0.16 
  -5   6  11    0.74    0.20 
  -4   6  11    0.18    0.12 
  -3   6  11    0.96    0.20 
  -2   6  11   -0.02    0.07 
   1  -6 -11    5.17    0.89 
  -1   6  11    5.04    0.32 
   0  -6 -11    3.76    0.75 
   0   6  11    3.16    0.28 
  -1  -6 -11   23.35    1.51 
   1   6  11   22.75    0.78 
  -2  -6 -11   19.56    1.35 
   2   6  11   19.60    0.69 
  -3  -6 -11    1.36    0.43 
   3   6  11    1.43    0.16 
  -4  -6 -11   10.42    0.92 
   4   6  11   11.05    0.42 
  -5  -6 -11    0.01    0.25 
  -5  -6 -11    0.75    0.12 
   5   6  11    0.38    0.07 
  -6  -6 -11   19.87    0.86 
  -6  -6 -11   18.77    1.28 
   6   6  11   19.66    0.61 
  -7  -6 -11    4.69    0.37 
  -7  -6 -11    3.87    0.65 
   7   6  11    3.57    0.17 
  -8  -6 -11    0.87    0.21 
  -8  -6 -11    1.38    0.45 
  -9  -6 -11    2.19    0.59 
  -9  -6 -11    2.21    0.41 
 -10  -6 -11    0.80    0.40 
 -11  -6 -11    1.25    0.52 
 -12  -6 -11    1.48    0.60 
 -13  -6 -11    0.35    0.47 
 -14  -6 -11    0.98    0.63 
 -15  -6 -11    0.18    0.55 
 -16  -6 -11    0.25    0.72 
  -8   7  11    0.01    0.13 
  -7   7  11   -0.12    0.10 
  -6   7  11    0.78    0.20 
  -5   7  11    1.37    0.24 
  -4   7  11    3.15    0.34 
  -3   7  11    1.23    0.23 
  -2   7  11    0.39    0.14 
   1  -7 -11   10.36    1.27 
  -1   7  11    9.92    0.49 
   0  -7 -11    0.94    0.49 
   0   7  11    1.31    0.20 
  -1  -7 -11    1.04    0.43 
   1   7  11    1.13    0.19 
  -2  -7 -11    0.21    0.28 
   2   7  11    0.27    0.11 
  -3  -7 -11    0.87    0.41 
   3   7  11    1.17    0.18 
  -4  -7 -11    2.15    0.55 
   4   7  11    2.00    0.20 
  -5  -7 -11    1.09    0.42 
   5   7  11    1.59    0.16 
   6   7  11    4.38    0.22 
  -7  -7 -11    1.28    0.45 
   7   7  11    1.65    0.14 
  -8  -7 -11    5.26    0.40 
  -8  -7 -11    4.59    0.77 
  -9  -7 -11    0.60    0.14 
  -9  -7 -11    0.27    0.32 
 -10  -7 -11    3.00    0.68 
 -11  -7 -11    0.79    0.44 
 -12  -7 -11    1.47    0.60 
 -13  -7 -11    1.08    0.64 
 -14  -7 -11    0.58    0.60 
 -15  -7 -11    0.45    0.61 
 -16  -7 -11    0.45    0.71 
  -8   8  11    0.21    0.12 
  -7   8  11    0.16    0.12 
  -6   8  11    0.14    0.11 
  -5   8  11    0.64    0.19 
  -4   8  11    0.04    0.10 
  -3   8  11    0.77    0.20 
  -2   8  11    0.54    0.17 
  -1   8  11    1.02    0.21 
   0  -8 -11   -0.21    0.34 
   0   8  11    0.05    0.10 
  -1  -8 -11   15.62    1.30 
   1   8  11   17.09    0.68 
  -2  -8 -11    5.90    0.96 
   2   8  11    4.38    0.30 
  -3  -8 -11    1.34    0.51 
   3   8  11    1.26    0.20 
  -4  -8 -11    3.48    0.72 
  -5  -8 -11    4.96    0.83 
  -6  -8 -11    1.09    0.48 
  -7  -8 -11    0.35    0.36 
   7   8  11    0.77    0.10 
  -8  -8 -11    0.26    0.31 
  -9  -8 -11   -0.02    0.30 
 -10  -8 -11   -0.05    0.30 
 -11  -8 -11    0.43    0.44 
 -12  -8 -11    0.98    0.57 
 -13  -8 -11    0.63    0.69 
 -14  -8 -11    2.58    0.84 
 -15  -8 -11    0.01    0.60 
 -16  -8 -11    0.96    0.85 
  -7   9  11   -0.09    0.12 
  -6   9  11    0.05    0.11 
  -5   9  11    0.04    0.11 
  -4   9  11   -0.13    0.10 
  -3   9  11    0.16    0.12 
  -2   9  11   -0.14    0.09 
  -1   9  11    1.72    0.25 
   0  -9 -11    1.12    0.67 
   0   9  11    0.83    0.19 
  -1  -9 -11    1.55    0.68 
   1   9  11    1.71    0.26 
  -2  -9 -11    2.05    0.30 
  -2  -9 -11    2.43    0.68 
  -3  -9 -11    2.45    0.29 
  -3  -9 -11    2.91    0.70 
  -4  -9 -11    7.21    1.02 
  -4  -9 -11    5.06    0.34 
  -5  -9 -11    0.10    0.30 
  -5  -9 -11    0.06    0.11 
  -6  -9 -11    0.27    0.10 
  -6  -9 -11    0.05    0.32 
  -7  -9 -11    0.29    0.37 
  -7  -9 -11    0.06    0.06 
  -8  -9 -11    0.10    0.33 
  -8  -9 -11    0.20    0.06 
  -9  -9 -11    0.64    0.45 
 -10  -9 -11    0.77    0.50 
 -11  -9 -11    0.03    0.41 
 -12  -9 -11   -0.49    0.38 
 -13  -9 -11    0.61    0.66 
 -14  -9 -11    0.69    0.70 
 -15  -9 -11   -0.59    0.64 
 -16  -9 -11   -0.17    0.81 
  -6  10  11    0.35    0.17 
  -5  10  11    0.34    0.17 
  -4  10  11    0.06    0.14 
  -3  10  11    0.15    0.15 
  -2  10  11    1.49    0.24 
  -1  10  11    0.19    0.12 
   0 -10 -11   -0.56    0.45 
   0  10  11    0.09    0.12 
  -1 -10 -11   10.05    1.30 
  -1 -10 -11    8.20    0.50 
  -2 -10 -11    1.19    0.59 
  -2 -10 -11    1.22    0.23 
  -3 -10 -11    1.75    0.63 
  -3 -10 -11    2.03    0.28 
  -4 -10 -11   17.93    0.73 
  -4 -10 -11   17.61    1.36 
  -5 -10 -11    0.13    0.41 
  -5 -10 -11    0.20    0.11 
  -6 -10 -11    0.33    0.43 
  -6 -10 -11    0.08    0.10 
  -7 -10 -11    0.19    0.39 
  -7 -10 -11    0.08    0.08 
  -8 -10 -11    1.36    0.17 
  -8 -10 -11    1.13    0.56 
  -9 -10 -11   -0.26    0.40 
 -10 -10 -11    3.63    0.87 
 -11 -10 -11    0.18    0.48 
 -12 -10 -11    0.08    0.46 
 -13 -10 -11    0.68    0.54 
 -14 -10 -11    0.77    0.61 
 -15 -10 -11    0.67    0.62 
  -5  11  11    1.48    0.28 
  -4  11  11    1.11    0.24 
  -3  11  11    0.07    0.14 
  -2  11  11    0.40    0.19 
  -1  11  11    0.31    0.16 
   0 -11 -11    0.25    0.14 
  -1 -11 -11    3.46    0.92 
  -1 -11 -11    3.33    0.38 
  -2 -11 -11    0.65    0.18 
  -2 -11 -11    0.41    0.59 
  -3 -11 -11   -0.02    0.44 
  -3 -11 -11    0.28    0.13 
  -4 -11 -11    1.82    0.27 
  -4 -11 -11    1.24    0.59 
  -5 -11 -11    0.09    0.12 
  -5 -11 -11    0.17    0.38 
  -6 -11 -11    1.98    0.68 
  -6 -11 -11    1.09    0.20 
  -7 -11 -11    0.78    0.54 
  -7 -11 -11    0.47    0.12 
  -8 -11 -11    1.99    0.73 
  -8 -11 -11    1.62    0.20 
  -9 -11 -11    0.65    0.54 
 -10 -11 -11    0.28    0.51 
 -11 -11 -11    0.82    0.59 
 -12 -11 -11    0.08    0.46 
 -13 -11 -11    1.14    0.61 
 -14 -11 -11    0.04    0.54 
 -15 -11 -11    1.11    0.60 
  -4  12  11   -0.03    0.14 
  -3  12  11    0.49    0.20 
  -2  12  11    0.08    0.17 
   1 -12 -11    0.15    0.15 
   0 -12 -11    1.60    0.28 
  -1 -12 -11   -0.06    0.63 
  -1 -12 -11    0.43    0.16 
  -2 -12 -11   -0.35    0.52 
  -2 -12 -11    0.25    0.15 
  -3 -12 -11    0.61    0.19 
  -3 -12 -11    0.29    0.51 
  -4 -12 -11    6.05    1.06 
  -4 -12 -11    4.88    0.45 
  -5 -12 -11    0.54    0.50 
  -5 -12 -11    0.75    0.18 
  -6 -12 -11    0.87    0.51 
  -6 -12 -11    1.24    0.21 
  -7 -12 -11    0.37    0.13 
  -7 -12 -11    0.51    0.52 
  -8 -12 -11    0.04    0.45 
  -8 -12 -11    0.34    0.10 
  -9 -12 -11    0.51    0.59 
 -10 -12 -11    0.68    0.58 
 -11 -12 -11    0.27    0.54 
 -12 -12 -11    0.31    0.44 
 -13 -12 -11    0.01    0.45 
 -14 -12 -11    0.68    0.56 
 -15 -12 -11    0.82    0.52 
  -2  13  11   -0.10    0.16 
   1 -13 -11    0.53    0.18 
   0 -13 -11    0.54    0.17 
  -1 -13 -11    0.82    0.20 
  -2 -13 -11    1.50    0.75 
  -2 -13 -11    1.55    0.28 
  -3 -13 -11   -0.56    0.53 
  -3 -13 -11    0.08    0.11 
  -4 -13 -11    0.85    0.66 
  -4 -13 -11    0.74    0.19 
  -5 -13 -11    0.88    0.62 
  -5 -13 -11    1.35    0.23 
  -6 -13 -11    0.31    0.14 
  -6 -13 -11    0.07    0.43 
  -7 -13 -11    1.37    0.22 
  -7 -13 -11    0.59    0.47 
  -8 -13 -11    2.79    0.29 
  -9 -13 -11    0.53    0.59 
 -10 -13 -11   -0.10    0.50 
 -11 -13 -11   -0.13    0.49 
 -12 -13 -11    0.60    0.57 
 -13 -13 -11    0.54    0.50 
 -14 -13 -11    0.17    0.41 
   1 -14 -11    0.81    0.23 
   0 -14 -11    0.14    0.14 
  -1 -14 -11    0.90    0.22 
  -2 -14 -11    0.07    0.15 
  -2 -14 -11   -0.05    0.60 
  -3 -14 -11   -0.21    0.57 
  -3 -14 -11   -0.29    0.11 
  -4 -14 -11   -0.04    0.12 
  -4 -14 -11   -0.35    0.44 
  -5 -14 -11    0.74    0.18 
  -5 -14 -11    1.70    0.73 
  -6 -14 -11    0.02    0.13 
  -6 -14 -11   -0.28    0.48 
  -7 -14 -11    0.03    0.47 
  -7 -14 -11    0.12    0.10 
  -8 -14 -11    0.67    0.16 
  -8 -14 -11    0.63    0.55 
  -9 -14 -11    0.60    0.53 
 -10 -14 -11    0.20    0.54 
 -11 -14 -11   -0.52    0.55 
 -12 -14 -11   -0.21    0.54 
 -13 -14 -11    0.01    0.46 
  -1 -15 -11    0.36    0.17 
  -2 -15 -11   -0.13    0.12 
  -3 -15 -11   -0.21    0.55 
  -3 -15 -11   -0.11    0.14 
  -4 -15 -11    0.07    0.15 
  -4 -15 -11   -0.03    0.53 
  -5 -15 -11   -0.08    0.55 
  -5 -15 -11    0.20    0.13 
  -6 -15 -11    0.40    0.18 
  -6 -15 -11    0.51    0.56 
  -7 -15 -11    0.08    0.41 
  -7 -15 -11    0.79    0.18 
  -8 -15 -11    2.17    0.26 
  -8 -15 -11    0.35    0.49 
  -9 -15 -11   -0.01    0.40 
 -10 -15 -11    0.27    0.57 
 -11 -15 -11    0.02    0.49 
 -12 -15 -11    0.15    0.52 
  -4 -16 -11    0.36    0.16 
  -5 -16 -11    2.63    0.48 
  -6 -16 -11   -0.07    0.13 
  -6 -16 -11    0.15    0.48 
  -7 -16 -11    0.46    0.51 
  -7 -16 -11   -0.03    0.13 
  -8 -16 -11    0.37    0.12 
  -8 -16 -11    0.30    0.49 
  -9 -16 -11    0.34    0.46 
 -10 -16 -11   -0.12    0.39 
  -6 -14  12    0.67    0.19 
  -5 -14  12    0.25    0.12 
  -4 -14  12    0.03    0.11 
  -3 -14  12    0.20    0.10 
  -2 -14  12    0.08    0.09 
  -8 -13  12    0.66    0.17 
  -7 -13  12    0.11    0.12 
  -6 -13  12    0.02    0.09 
  -5 -13  12    0.29    0.11 
  -4 -13  12   -0.04    0.15 
  -3 -13  12    0.34    0.11 
   2  13 -12   -0.17    0.29 
  -2 -13  12   -0.09    0.09 
   1  13 -12    0.02    0.33 
  -1 -13  12    0.27    0.10 
   0  13 -12   -0.12    0.31 
   0 -13  12    0.25    0.12 
  -1  13 -12    0.07    0.34 
   1 -13  12    0.09    0.08 
 -10 -12  12   -0.14    0.22 
  -9 -12  12    0.03    0.16 
  -8 -12  12    0.78    0.22 
  -7 -12  12    0.14    0.15 
  -6 -12  12    0.84    0.19 
  -5 -12  12    0.33    0.14 
  -4 -12  12    0.25    0.09 
  -3 -12  12    0.51    0.16 
   2  12 -12    0.34    0.34 
  -2 -12  12    0.45    0.13 
   1  12 -12    0.39    0.39 
  -1 -12  12    0.40    0.11 
   0  12 -12    0.46    0.37 
   0 -12  12    0.55    0.11 
  -1  12 -12    0.35    0.33 
   1 -12  12    0.09    0.09 
  -2  12 -12    0.46    0.40 
   2 -12  12    0.86    0.20 
  -3  12 -12    1.33    0.50 
   3 -12  12    1.51    0.19 
 -11 -11  12    0.23    0.28 
 -10 -11  12   -0.24    0.25 
  -9 -11  12   -0.17    0.24 
  -8 -11  12   -0.07    0.22 
  -7 -11  12    1.26    0.33 
  -6 -11  12    0.39    0.19 
  -5 -11  12    0.21    0.14 
  -4 -11  12    0.19    0.11 
  -3 -11  12    1.16    0.19 
   2  11 -12    1.90    0.49 
  -2 -11  12    1.57    0.24 
   1  11 -12   -0.14    0.26 
  -1 -11  12    0.08    0.08 
   0  11 -12    0.35    0.33 
   0 -11  12    0.69    0.14 
  -1  11 -12    0.10    0.27 
   1 -11  12    0.39    0.13 
  -2  11 -12   -0.04    0.28 
   2 -11  12    0.40    0.11 
  -3  11 -12    0.08    0.34 
   3 -11  12    0.01    0.08 
  -4  11 -12    0.29    0.36 
  -5  11 -12   -0.16    0.37 
 -10 -10  12    0.32    0.13 
  -9 -10  12    0.55    0.20 
  -8 -10  12    0.03    0.30 
  -7 -10  12   -0.03    0.27 
  -6 -10  12    0.69    0.25 
  -5 -10  12    0.59    0.22 
  -4 -10  12    1.01    0.23 
  -3 -10  12    0.62    0.19 
   2  10 -12    0.62    0.33 
  -2 -10  12    0.80    0.19 
   1  10 -12    0.00    0.26 
  -1 -10  12    0.10    0.08 
   0  10 -12    0.99    0.35 
   0 -10  12    1.21    0.23 
  -1  10 -12    0.08    0.27 
   1 -10  12    0.02    0.09 
  -2  10 -12    0.15    0.28 
   2 -10  12    0.08    0.08 
  -3  10 -12    0.24    0.30 
   3 -10  12    0.12    0.07 
  -4  10 -12    0.08    0.30 
  -5  10 -12    0.52    0.41 
  -6  10 -12    0.09    0.40 
 -12  -9  12    0.68    0.15 
 -11  -9  12    0.74    0.19 
 -10  -9  12    0.51    0.19 
  -9  -9  12    0.39    0.19 
  -8  -9  12    0.09    0.14 
  -7  -9  12    0.18    0.14 
  -6  -9  12    0.09    0.08 
  -5  -9  12   -0.03    0.24 
  -4  -9  12    0.35    0.22 
  -3  -9  12    0.28    0.18 
   2   9 -12    2.39    0.51 
  -2  -9  12    1.41    0.25 
   1   9 -12    0.02    0.24 
  -1  -9  12    0.05    0.12 
   0   9 -12    0.83    0.34 
   0  -9  12    1.38    0.22 
  -1   9 -12    0.05    0.23 
   1  -9  12    0.19    0.09 
  -2   9 -12   -0.10    0.23 
   2  -9  12    0.06    0.07 
  -3   9 -12    0.13    0.28 
   3  -9  12    0.17    0.08 
  -4   9 -12    0.27    0.33 
   4  -9  12    0.33    0.07 
  -5   9 -12    0.01    0.29 
  -6   9 -12    0.08    0.36 
  -7   9 -12    0.23    0.44 
 -12  -8  12    0.59    0.18 
 -11  -8  12    0.28    0.17 
 -10  -8  12    0.29    0.18 
  -9  -8  12    0.27    0.15 
  -8  -8  12    0.71    0.23 
  -7  -8  12    0.10    0.16 
  -6  -8  12    0.34    0.16 
  -5  -8  12    0.16    0.11 
  -4  -8  12    0.95    0.19 
  -3  -8  12   -0.09    0.20 
   2   8 -12    0.56    0.31 
  -2  -8  12    0.37    0.20 
   1   8 -12    0.84    0.33 
  -1  -8  12    1.45    0.26 
   0   8 -12    0.04    0.20 
   0  -8  12    0.23    0.12 
  -1   8 -12    0.19    0.25 
   1  -8  12    0.28    0.10 
  -2   8 -12    1.97    0.46 
   2  -8  12    2.18    0.26 
  -3   8 -12    0.07    0.25 
   3  -8  12    0.05    0.06 
  -4   8 -12    0.39    0.32 
   4  -8  12    0.29    0.07 
  -5   8 -12    0.13    0.32 
  -6   8 -12    0.19    0.33 
  -7   8 -12    0.15    0.36 
  -8   8 -12    1.61    0.58 
 -12  -7  12    0.61    0.15 
  -9  -7  12    0.32    0.18 
  -8  -7  12    0.03    0.14 
  -7  -7  12    0.11    0.18 
  -6  -7  12   -0.04    0.15 
  -5  -7  12    1.60    0.26 
  -4  -7  12    0.12    0.12 
  -3  -7  12    0.81    0.19 
   2   7 -12    0.83    0.31 
  -2  -7  12    1.48    0.22 
   1   7 -12    1.25    0.35 
  -1  -7  12    0.62    0.22 
   0   7 -12    0.23    0.23 
   0  -7  12    0.57    0.20 
  -1   7 -12    0.22    0.23 
   1  -7  12    0.66    0.16 
  -2   7 -12    0.11    0.23 
   2  -7  12    0.12    0.10 
  -3   7 -12    0.04    0.26 
   3  -7  12    0.07    0.06 
  -4   7 -12    1.16    0.40 
   4  -7  12    1.23    0.18 
  -5   7 -12    0.19    0.31 
  -6   7 -12    0.97    0.46 
  -7   7 -12   -0.30    0.29 
  -8   7 -12    0.02    0.33 
  -9   7 -12    0.26    0.44 
 -12  -6  12    1.01    0.24 
 -12  -6  12   -0.48    0.40 
 -11  -6  12    0.30    0.19 
 -11  -6  12    0.88    0.55 
 -10  -6  12    0.07    0.57 
 -10  -6  12    0.62    0.19 
  -9  -6  12    0.49    0.20 
  -9  -6  12    0.78    0.54 
  -8  -6  12    0.68    0.22 
  -7  -6  12    1.11    0.26 
  -6  -6  12    0.76    0.23 
  -5  -6  12   -0.10    0.13 
  -4  -6  12    0.79    0.20 
  -3  -6  12    4.76    0.35 
   2   6 -12    1.52    0.38 
  -2  -6  12    1.77    0.24 
   1   6 -12    8.97    0.71 
  -1  -6  12    8.83    0.46 
   0   6 -12   14.31    0.90 
  -1   6 -12    1.16    0.33 
   1  -6  12    1.17    0.22 
  -2   6 -12    4.65    0.60 
   2  -6  12    3.99    0.29 
  -3   6 -12    1.55    0.40 
   3  -6  12    1.83    0.22 
  -4   6 -12    0.80    0.35 
   4  -6  12    0.88    0.15 
  -5   6 -12    0.39    0.31 
  -6   6 -12    4.06    0.70 
  -7   6 -12    0.27    0.35 
  -8   6 -12    0.31    0.38 
  -9   6 -12    0.26    0.40 
 -10   6 -12    0.05    0.41 
 -12  -5  12    0.10    0.49 
 -12  -5  12   -0.01    0.14 
 -11  -5  12   -0.17    0.51 
 -11  -5  12    0.08    0.15 
 -10  -5  12    0.74    0.55 
 -10  -5  12    0.16    0.16 
  -9  -5  12    0.09    0.19 
  -8  -5  12   -0.21    0.15 
  -7  -5  12    0.52    0.20 
  -6  -5  12    1.19    0.26 
  -5  -5  12    1.63    0.27 
  -4  -5  12    0.10    0.15 
  -3  -5  12    0.01    0.14 
   2   5 -12    1.86    0.39 
  -2  -5  12    1.96    0.27 
   1   5 -12    3.49    0.50 
  -1  -5  12    3.32    0.32 
   0   5 -12    8.83    0.68 
   0  -5  12    9.13    0.44 
  -1   5 -12    0.30    0.22 
   1  -5  12    0.22    0.10 
  -2   5 -12    3.43    0.50 
   2  -5  12    2.79    0.28 
  -3   5 -12    1.39    0.38 
   3  -5  12    1.34    0.20 
  -4   5 -12    4.65    0.65 
   4  -5  12    5.23    0.29 
  -5   5 -12    7.61    0.84 
  -6   5 -12    0.34    0.31 
  -7   5 -12    0.00    0.29 
  -8   5 -12   -0.01    0.33 
  -9   5 -12    0.14    0.33 
 -10   5 -12    0.00    0.33 
 -11   5 -12    0.17    0.39 
 -12  -4  12    0.23    0.17 
 -12  -4  12    0.22    0.39 
 -11  -4  12    0.58    0.53 
 -11  -4  12    0.13    0.16 
 -10  -4  12    0.38    0.20 
  -9  -4  12    1.43    0.27 
  -8  -4  12    1.23    0.26 
  -7  -4  12    0.67    0.22 
  -6  -4  12    2.28    0.31 
  -5  -4  12   -0.07    0.14 
  -4  -4  12    1.11    0.24 
  -3  -4  12    0.28    0.17 
  -2  -4  12   11.62    0.55 
   1   4 -12    1.63    0.36 
  -1  -4  12    1.76    0.24 
   0   4 -12    0.67    0.25 
   0  -4  12    0.62    0.16 
  -1   4 -12    1.11    0.24 
  -1   4 -12    0.52    0.24 
   1  -4  12    0.84    0.16 
  -2   4 -12    8.02    0.64 
   2  -4  12    8.32    0.39 
  -3   4 -12    2.01    0.39 
   3  -4  12    1.99    0.23 
  -4   4 -12    0.11    0.22 
   4  -4  12    0.22    0.07 
  -5   4 -12    0.11    0.24 
   5  -4  12    0.23    0.08 
  -6   4 -12    0.78    0.34 
  -7   4 -12    3.36    0.62 
  -8   4 -12    0.00    0.28 
  -9   4 -12    0.41    0.38 
 -10   4 -12   -0.11    0.28 
 -11   4 -12    0.07    0.36 
 -12   4 -12    0.25    0.44 
 -12  -3  12    0.45    0.45 
 -12  -3  12   -0.07    0.15 
 -11  -3  12    0.71    0.21 
 -10  -3  12   -0.33    0.12 
  -9  -3  12    0.09    0.17 
  -8  -3  12    0.19    0.18 
  -7  -3  12   -0.06    0.16 
  -6  -3  12    4.95    0.40 
  -5  -3  12    0.13    0.16 
  -4  -3  12    9.66    0.49 
  -3  -3  12    4.48    0.36 
  -2  -3  12    1.27    0.22 
   1   3 -12    1.79    0.37 
  -1  -3  12    2.48    0.27 
   0   3 -12    1.15    0.29 
   0  -3  12    1.29    0.21 
  -1   3 -12    0.01    0.14 
  -1   3 -12    0.04    0.14 
   1  -3  12    0.11    0.11 
  -2   3 -12   -0.10    0.15 
  -2   3 -12   -0.11    0.13 
   2  -3  12    0.11    0.08 
  -3   3 -12    3.44    0.49 
  -3   3 -12    4.56    0.51 
   3  -3  12    3.88    0.23 
  -4   3 -12    0.16    0.22 
  -4   3 -12    0.06    0.13 
   4  -3  12    0.44    0.11 
  -5   3 -12    0.30    0.25 
   5  -3  12    0.54    0.11 
  -6   3 -12    0.23    0.24 
  -7   3 -12   -0.06    0.25 
  -8   3 -12    0.20    0.30 
  -9   3 -12    0.31    0.37 
 -10   3 -12    0.59    0.41 
 -11   3 -12    0.44    0.37 
 -12   3 -12    0.70    0.39 
 -12  -2  12   -0.02    0.13 
 -11  -2  12    0.47    0.20 
 -10  -2  12    1.08    0.24 
  -9  -2  12    0.40    0.19 
  -8  -2  12   -0.09    0.16 
  -7  -2  12    1.34    0.24 
  -6  -2  12    1.05    0.23 
  -5  -2  12    1.56    0.25 
  -4  -2  12    4.16    0.34 
  -3  -2  12    0.09    0.14 
  -2  -2  12    1.06    0.20 
   1   2 -12    3.12    0.44 
  -1  -2  12    3.55    0.29 
   0   2 -12    0.10    0.18 
   0   2 -12    0.28    0.18 
   0  -2  12    0.17    0.12 
  -1   2 -12    0.45    0.21 
  -1   2 -12    0.16    0.17 
   1  -2  12    0.40    0.13 
  -2   2 -12    2.49    0.43 
  -2   2 -12    1.73    0.34 
   2  -2  12    2.11    0.22 
  -3   2 -12    5.24    0.56 
  -3   2 -12    5.00    0.57 
   3  -2  12    4.20    0.24 
  -4   2 -12   12.25    0.81 
  -4   2 -12   10.97    0.77 
   4  -2  12   11.12    0.42 
  -5   2 -12   -0.15    0.16 
  -5   2 -12   -0.16    0.16 
   5  -2  12    0.30    0.13 
  -6   2 -12   13.93    0.89 
  -6   2 -12   12.30    0.90 
  -7   2 -12    8.15    0.87 
  -7   2 -12    8.99    0.70 
  -8   2 -12    0.09    0.29 
  -8   2 -12   -0.01    0.23 
  -9   2 -12    0.14    0.28 
 -10   2 -12    0.95    0.43 
 -11   2 -12    0.58    0.39 
 -12   2 -12   -0.10    0.33 
 -13   2 -12   -0.04    0.24 
 -12  -1  12   -0.03    0.12 
 -11  -1  12    0.34    0.18 
 -10  -1  12    0.19    0.17 
  -9  -1  12    0.05    0.17 
  -8  -1  12   -0.01    0.15 
  -7  -1  12    0.27    0.18 
  -6  -1  12    1.59    0.26 
  -5  -1  12    2.22    0.28 
  -4  -1  12    2.70    0.28 
  -3  -1  12    1.48    0.22 
  -2  -1  12    0.33    0.15 
  -1  -1  12    0.21    0.14 
   0   1 -12    0.86    0.31 
   0   1 -12    0.80    0.20 
   0  -1  12    0.83    0.17 
  -1   1 -12    2.36    0.34 
  -1   1 -12    2.71    0.48 
   1  -1  12    3.01    0.25 
  -2   1 -12    2.37    0.45 
  -2   1 -12    2.18    0.33 
   2  -1  12    2.18    0.21 
  -3   1 -12    0.29    0.20 
  -3   1 -12    0.12    0.19 
   3  -1  12    0.34    0.10 
  -4   1 -12    7.08    0.59 
  -4   1 -12    7.34    0.65 
   4  -1  12    7.11    0.30 
  -5   1 -12    4.90    0.57 
  -5   1 -12    4.15    0.56 
   5  -1  12    3.72    0.19 
  -6   1 -12   11.41    0.83 
  -6   1 -12   11.21    0.82 
  -7   1 -12    6.75    0.65 
  -7   1 -12    7.25    0.79 
  -8   1 -12    2.86    0.55 
  -8   1 -12    2.41    0.51 
  -9   1 -12   -0.18    0.26 
  -9   1 -12    0.25    0.33 
 -10   1 -12    0.09    0.27 
 -10   1 -12    0.16    0.39 
 -11   1 -12    2.70    0.61 
 -12   1 -12    0.52    0.40 
 -13   1 -12    0.10    0.32 
 -11   0  12    0.26    0.17 
 -10   0  12    0.09    0.16 
  -9   0  12   -0.03    0.13 
  -8   0  12    0.51    0.21 
  -7   0  12    0.55    0.19 
  -6   0  12    0.59    0.19 
  -5   0  12    2.11    0.27 
  -4   0  12    1.88    0.24 
  -3   0  12    1.39    0.21 
  -2   0  12    0.00    0.11 
  -1   0  12    2.60    0.24 
   0   0 -12    9.56    0.78 
   0   0 -12   10.56    0.60 
   0   0  12    7.30    0.37 
  -1   0 -12    7.55    0.68 
  -1   0 -12    7.02    0.48 
   1   0  12    7.34    0.34 
  -2   0 -12    0.36    0.14 
  -2   0 -12    0.32    0.23 
   2   0  12    0.56    0.12 
  -3   0 -12    1.40    0.26 
  -3   0 -12    1.79    0.38 
   3   0  12    1.90    0.18 
  -4   0 -12    0.90    0.31 
  -4   0 -12    0.67    0.25 
   4   0  12    1.20    0.14 
  -5   0 -12    0.90    0.30 
  -5   0 -12    1.00    0.31 
   5   0  12    1.17    0.12 
  -6   0 -12   15.60    0.95 
  -6   0 -12   15.35    0.99 
  -7   0 -12    1.15    0.40 
  -7   0 -12    0.30    0.24 
  -8   0 -12    0.47    0.30 
  -8   0 -12    0.12    0.28 
  -9   0 -12    0.31    0.29 
  -9   0 -12    0.55    0.35 
 -10   0 -12   -0.24    0.28 
 -10   0 -12    0.10    0.31 
 -11   0 -12    0.12    0.38 
 -11   0 -12    0.06    0.33 
 -12   0 -12    0.02    0.38 
 -12   0 -12    0.03    0.31 
 -13   0 -12    0.32    0.45 
 -13   0 -12   -0.16    0.28 
 -14   0 -12    0.15    0.26 
 -11   1  12    0.10    0.17 
 -10   1  12    0.10    0.16 
  -9   1  12   -0.01    0.16 
  -8   1  12   -0.04    0.14 
  -7   1  12    3.30    0.35 
  -6   1  12    3.65    0.34 
  -5   1  12    0.60    0.19 
  -4   1  12    9.56    0.45 
  -3   1  12    5.89    0.33 
  -2   1  12    0.14    0.12 
   1  -1 -12    1.64    0.47 
  -1   1  12    1.07    0.17 
   0  -1 -12    1.46    0.42 
   0   1  12    2.06    0.21 
  -1  -1 -12    0.34    0.20 
  -1  -1 -12    0.05    0.08 
   1   1  12    0.56    0.12 
  -2  -1 -12    0.27    0.21 
  -2  -1 -12    0.24    0.12 
   2   1  12    0.33    0.09 
  -3  -1 -12    2.12    0.43 
  -3  -1 -12    2.55    0.34 
   3   1  12    2.39    0.19 
  -4  -1 -12    1.14    0.34 
  -4  -1 -12    0.78    0.20 
   4   1  12    0.82    0.11 
  -5  -1 -12    7.50    0.57 
  -5  -1 -12    7.93    0.71 
   5   1  12    8.49    0.32 
  -6  -1 -12   11.33    0.76 
  -6  -1 -12    8.84    0.78 
  -7  -1 -12   19.83    1.12 
  -7  -1 -12   17.26    1.18 
  -8  -1 -12    1.64    0.41 
  -8  -1 -12    2.11    0.49 
  -9  -1 -12    0.04    0.24 
  -9  -1 -12    0.11    0.29 
 -10  -1 -12   -0.06    0.34 
 -10  -1 -12    0.05    0.28 
 -11  -1 -12    1.93    0.59 
 -11  -1 -12    2.44    0.58 
 -12  -1 -12    0.87    0.53 
 -12  -1 -12    0.68    0.39 
 -13  -1 -12    0.59    0.40 
 -13  -1 -12    0.38    0.46 
 -14  -1 -12    0.06    0.33 
 -14  -1 -12    0.06    0.46 
 -11   2  12    0.26    0.17 
 -10   2  12    0.17    0.18 
  -9   2  12   -0.11    0.14 
  -8   2  12    0.49    0.19 
  -7   2  12   -0.07    0.15 
  -6   2  12    0.34    0.17 
  -5   2  12    1.18    0.21 
  -4   2  12    0.19    0.14 
  -3   2  12    0.08    0.10 
  -2   2  12    1.51    0.20 
   1  -2 -12    0.40    0.32 
  -1   2  12    0.48    0.13 
   0  -2 -12    1.06    0.39 
   0   2  12    0.98    0.15 
  -1  -2 -12    1.06    0.39 
   1   2  12    1.97    0.18 
  -2  -2 -12    1.37    0.38 
  -2  -2 -12    1.15    0.21 
   2   2  12    1.54    0.16 
  -3  -2 -12    0.05    0.08 
  -3  -2 -12   -0.09    0.15 
   3   2  12    0.12    0.06 
  -4  -2 -12    0.59    0.30 
  -4  -2 -12    0.27    0.12 
   4   2  12    0.33    0.06 
  -5  -2 -12    0.10    0.12 
  -5  -2 -12    0.22    0.23 
   5   2  12    0.23    0.06 
  -6  -2 -12    0.49    0.30 
  -6  -2 -12    0.78    0.26 
  -7  -2 -12    2.45    0.45 
  -7  -2 -12    2.67    0.55 
  -8  -2 -12    3.32    0.61 
  -8  -2 -12    3.33    0.53 
  -9  -2 -12    0.46    0.35 
  -9  -2 -12    0.72    0.33 
 -10  -2 -12    2.92    0.64 
 -10  -2 -12    3.11    0.58 
 -11  -2 -12    0.25    0.34 
 -11  -2 -12    0.61    0.42 
 -12  -2 -12    0.15    0.39 
 -12  -2 -12    0.34    0.34 
 -13  -2 -12   -0.16    0.26 
 -13  -2 -12    0.45    0.45 
 -14  -2 -12    0.32    0.35 
 -14  -2 -12    0.37    0.51 
 -15  -2 -12    0.57    0.39 
 -10   3  12    0.68    0.21 
  -9   3  12   -0.08    0.14 
  -8   3  12    0.32    0.18 
  -7   3  12    1.06    0.21 
  -6   3  12    0.45    0.17 
  -5   3  12    2.63    0.29 
  -4   3  12    5.30    0.33 
  -3   3  12    3.09    0.28 
  -2   3  12    1.76    0.21 
   1  -3 -12   -0.12    0.27 
  -1   3  12    0.00    0.07 
   0  -3 -12    5.70    0.80 
   0   3  12    3.95    0.24 
  -1  -3 -12    2.66    0.57 
   1   3  12    1.71    0.17 
  -2  -3 -12    0.19    0.26 
  -2  -3 -12    0.39    0.11 
   2   3  12    0.43    0.09 
  -3  -3 -12    4.73    0.34 
  -3  -3 -12    4.26    0.64 
   3   3  12    3.84    0.20 
  -4  -3 -12    2.48    0.53 
  -5  -3 -12    1.44    0.25 
  -5  -3 -12    1.14    0.39 
   5   3  12    1.77    0.12 
  -6  -3 -12    8.37    0.57 
  -6  -3 -12    8.37    0.79 
   6   3  12    8.12    0.29 
  -7  -3 -12    9.43    0.70 
  -7  -3 -12   10.02    0.89 
  -8  -3 -12    8.51    0.70 
  -8  -3 -12    8.04    0.91 
  -9  -3 -12    4.73    0.75 
  -9  -3 -12    3.85    0.60 
 -10  -3 -12    2.44    0.59 
 -10  -3 -12    2.80    0.55 
 -11  -3 -12    0.18    0.37 
 -11  -3 -12    0.52    0.36 
 -12  -3 -12    1.46    0.56 
 -12  -3 -12    0.70    0.41 
 -13  -3 -12    0.53    0.45 
 -13  -3 -12    1.08    0.45 
 -14  -3 -12    0.47    0.35 
 -14  -3 -12    0.29    0.47 
 -15  -3 -12    0.44    0.56 
 -15  -3 -12    0.44    0.31 
 -10   4  12    0.06    0.14 
  -9   4  12    0.44    0.20 
  -8   4  12    0.04    0.13 
  -7   4  12    0.12    0.15 
  -6   4  12    0.38    0.15 
  -5   4  12    0.03    0.11 
  -4   4  12   -0.02    0.12 
  -3   4  12    0.25    0.12 
  -2   4  12    4.36    0.29 
   1  -4 -12    0.11    0.28 
  -1   4  12    0.10    0.09 
   0  -4 -12   14.61    1.15 
   0   4  12   14.33    0.55 
  -1  -4 -12    7.54    0.90 
   1   4  12    7.94    0.36 
  -2  -4 -12    0.07    0.06 
  -2  -4 -12    0.05    0.24 
   2   4  12    0.17    0.05 
  -3  -4 -12    1.04    0.18 
  -3  -4 -12    1.37    0.44 
   3   4  12    1.44    0.15 
  -4  -4 -12    9.80    0.53 
  -4  -4 -12    9.44    0.84 
   4   4  12    8.88    0.34 
  -5  -4 -12    0.15    0.25 
  -5  -4 -12    0.06    0.09 
   5   4  12    0.15    0.04 
  -6  -4 -12    0.19    0.26 
  -6  -4 -12    0.05    0.08 
   6   4  12    0.38    0.06 
  -7  -4 -12    6.08    0.48 
  -7  -4 -12    5.81    0.78 
  -8  -4 -12    1.52    0.35 
  -8  -4 -12    1.34    0.46 
  -9  -4 -12    4.15    0.58 
  -9  -4 -12    2.93    0.62 
 -10  -4 -12    2.85    0.53 
 -10  -4 -12    3.20    0.69 
 -11  -4 -12   -0.06    0.24 
 -11  -4 -12    0.10    0.33 
 -12  -4 -12    0.05    0.42 
 -12  -4 -12    0.00    0.29 
 -13  -4 -12    0.14    0.45 
 -13  -4 -12    0.17    0.35 
 -14  -4 -12    0.15    0.32 
 -14  -4 -12    0.17    0.45 
 -15  -4 -12   -0.09    0.52 
 -15  -4 -12    0.70    0.42 
  -9   5  12    0.07    0.13 
  -8   5  12    0.10    0.12 
  -7   5  12    0.45    0.16 
  -6   5  12    0.05    0.13 
  -5   5  12    1.47    0.25 
  -4   5  12    2.64    0.30 
  -3   5  12    1.94    0.25 
  -2   5  12    0.54    0.14 
   1  -5 -12   -0.13    0.28 
  -1   5  12    0.01    0.08 
   0  -5 -12    0.58    0.36 
   0   5  12    0.60    0.14 
  -1  -5 -12    2.16    0.56 
   1   5  12    1.97    0.22 
  -2  -5 -12    1.15    0.45 
   2   5  12    0.80    0.14 
  -3  -5 -12   22.11    0.84 
  -3  -5 -12   21.03    1.41 
   3   5  12   22.69    0.71 
  -4  -5 -12    4.28    0.73 
  -4  -5 -12    4.69    0.30 
   4   5  12    4.03    0.22 
  -5  -5 -12    4.65    0.73 
  -5  -5 -12    5.23    0.36 
  -6  -5 -12    2.96    0.35 
  -6  -5 -12    2.42    0.54 
   6   5  12    2.01    0.12 
  -7  -5 -12    0.01    0.07 
  -7  -5 -12   -0.11    0.22 
  -8  -5 -12    6.07    0.50 
  -8  -5 -12    5.10    0.79 
  -9  -5 -12    6.96    0.69 
  -9  -5 -12    6.40    0.90 
 -10  -5 -12   -0.26    0.29 
 -10  -5 -12    0.07    0.23 
 -11  -5 -12    1.36    0.43 
 -11  -5 -12    1.12    0.47 
 -12  -5 -12    2.39    0.67 
 -12  -5 -12    2.76    0.56 
 -13  -5 -12    0.42    0.44 
 -13  -5 -12    0.21    0.32 
 -14  -5 -12    0.19    0.50 
 -15  -5 -12    0.27    0.52 
  -8   6  12    0.16    0.15 
  -7   6  12    0.27    0.15 
  -6   6  12    0.79    0.21 
  -5   6  12    0.20    0.14 
  -4   6  12    0.83    0.20 
  -3   6  12    1.14    0.21 
  -2   6  12    4.17    0.36 
   1  -6 -12    5.11    0.95 
  -1   6  12    4.70    0.32 
   0  -6 -12   26.39    1.72 
   0   6  12   25.75    0.89 
  -1  -6 -12    9.33    1.09 
   1   6  12    8.92    0.42 
  -2  -6 -12    3.45    0.69 
   2   6  12    3.41    0.24 
  -3  -6 -12    1.37    0.47 
   3   6  12    1.00    0.14 
  -4  -6 -12    7.25    0.90 
   4   6  12    8.25    0.35 
  -5  -6 -12    1.35    0.47 
   5   6  12    1.78    0.16 
  -6  -6 -12    9.71    0.94 
  -6  -6 -12    9.60    0.52 
   6   6  12    9.03    0.35 
  -7  -6 -12    0.14    0.09 
  -7  -6 -12   -0.20    0.24 
  -8  -6 -12    2.23    0.57 
  -8  -6 -12    2.40    0.33 
  -9  -6 -12    0.09    0.22 
  -9  -6 -12    0.34    0.37 
 -10  -6 -12    0.07    0.25 
 -10  -6 -12   -0.04    0.30 
 -11  -6 -12    0.21    0.24 
 -11  -6 -12   -0.20    0.32 
 -12  -6 -12    0.93    0.53 
 -13  -6 -12    1.49    0.65 
 -14  -6 -12    0.14    0.53 
 -15  -6 -12    1.63    0.75 
  -8   7  12    0.27    0.15 
  -7   7  12    0.38    0.17 
  -6   7  12    0.40    0.17 
  -5   7  12    0.37    0.16 
  -4   7  12    0.01    0.12 
  -3   7  12    0.06    0.10 
  -2   7  12    0.35    0.13 
  -1   7  12    0.06    0.09 
   0  -7 -12    1.43    0.57 
   0   7  12    1.35    0.21 
  -1  -7 -12   -0.14    0.28 
   1   7  12    0.18    0.10 
  -2  -7 -12    0.12    0.32 
   2   7  12    0.20    0.09 
  -3  -7 -12    4.28    0.76 
   3   7  12    4.07    0.26 
  -4  -7 -12    1.91    0.53 
   4   7  12    2.21    0.22 
  -5  -7 -12    4.80    0.81 
   5   7  12    4.38    0.24 
  -6  -7 -12    0.78    0.42 
  -7  -7 -12    0.20    0.30 
   7   7  12    0.47    0.05 
  -8  -7 -12    2.43    0.59 
  -9  -7 -12    0.03    0.34 
 -10  -7 -12    1.64    0.55 
 -10  -7 -12    1.26    0.35 
 -11  -7 -12    0.06    0.23 
 -11  -7 -12    0.04    0.36 
 -12  -7 -12    0.23    0.42 
 -13  -7 -12   -0.10    0.44 
 -14  -7 -12   -0.16    0.46 
 -15  -7 -12   -0.07    0.57 
  -7   8  12    0.10    0.11 
  -6   8  12    0.23    0.14 
  -5   8  12   -0.21    0.10 
  -4   8  12    0.16    0.12 
  -3   8  12    0.26    0.13 
  -2   8  12    0.60    0.15 
  -1   8  12    0.50    0.14 
   0  -8 -12    5.45    1.06 
   0   8  12    4.42    0.32 
  -1  -8 -12    0.30    0.41 
   1   8  12    0.07    0.11 
  -2  -8 -12    2.61    0.69 
   2   8  12    2.19    0.25 
  -3  -8 -12    0.62    0.39 
   3   8  12    0.87    0.16 
  -4  -8 -12    4.82    0.86 
   4   8  12    5.18    0.31 
  -5  -8 -12    0.95    0.44 
   5   8  12    0.82    0.14 
  -6  -8 -12    0.60    0.42 
   6   8  12    1.05    0.14 
  -7  -8 -12    1.86    0.56 
   7   8  12    2.28    0.15 
  -8  -8 -12    1.52    0.57 
  -9  -8 -12    0.69    0.44 
 -10  -8 -12    0.81    0.48 
 -11  -8 -12    0.03    0.39 
 -12  -8 -12    0.69    0.52 
 -13  -8 -12   -0.14    0.51 
 -14  -8 -12    0.97    0.69 
 -15  -8 -12    0.95    0.75 
  -6   9  12    1.11    0.24 
  -5   9  12    0.17    0.16 
  -4   9  12    0.14    0.14 
  -3   9  12   -0.04    0.11 
  -2   9  12    0.33    0.12 
  -1   9  12    0.15    0.09 
   0  -9 -12    2.44    0.85 
   0   9  12    3.14    0.33 
  -1  -9 -12    5.52    1.04 
   1   9  12    4.74    0.34 
  -2  -9 -12    0.03    0.39 
   2   9  12    0.19    0.12 
  -3  -9 -12   17.32    1.37 
   3   9  12   16.97    0.68 
  -4  -9 -12    1.27    0.57 
   4   9  12    0.88    0.17 
  -5  -9 -12    8.15    1.12 
   5   9  12    9.14    0.44 
  -6  -9 -12    4.29    0.85 
   6   9  12    3.40    0.25 
  -7  -9 -12    1.94    0.62 
   7   9  12    1.40    0.17 
  -8  -9 -12    2.01    0.62 
  -9  -9 -12    3.14    0.73 
 -10  -9 -12    0.04    0.39 
 -11  -9 -12   -0.07    0.43 
 -12  -9 -12    0.50    0.56 
 -13  -9 -12    0.05    0.59 
 -14  -9 -12    1.82    0.75 
 -15  -9 -12    0.35    0.78 
  -5  10  12    0.91    0.21 
  -4  10  12    0.21    0.16 
  -3  10  12    0.53    0.18 
  -2  10  12    0.66    0.18 
  -1  10  12    0.06    0.08 
   0 -10 -12    2.50    0.87 
   0  10  12    2.59    0.31 
  -1 -10 -12   -0.18    0.48 
   1  10  12    0.26    0.15 
  -2 -10 -12    1.95    0.71 
   2  10  12    1.13    0.21 
  -3 -10 -12    2.06    0.30 
  -3 -10 -12    2.69    0.78 
  -4 -10 -12    2.33    0.31 
  -4 -10 -12    2.13    0.67 
  -5 -10 -12   -0.11    0.41 
  -5 -10 -12   -0.17    0.10 
  -6 -10 -12    2.68    0.72 
  -6 -10 -12    2.83    0.31 
  -7 -10 -12    0.02    0.43 
  -7 -10 -12    0.20    0.11 
  -8 -10 -12    2.93    0.81 
  -9 -10 -12    0.31    0.46 
 -10 -10 -12   -0.01    0.43 
 -11 -10 -12    0.07    0.50 
 -12 -10 -12    0.15    0.52 
 -13 -10 -12    0.53    0.58 
 -14 -10 -12    0.19    0.67 
 -15 -10 -12    0.59    0.80 
  -4  11  12    0.40    0.17 
  -3  11  12    0.21    0.15 
  -2  11  12    0.28    0.13 
  -1  11  12    0.68    0.16 
   0  11  12   -0.05    0.10 
  -1 -11 -12   -0.15    0.62 
   1  11  12   -0.01    0.11 
  -2 -11 -12    0.63    0.59 
  -3 -11 -12    1.91    0.27 
  -3 -11 -12    2.41    0.79 
  -4 -11 -12    0.95    0.57 
  -4 -11 -12    0.75    0.19 
  -5 -11 -12    2.94    0.78 
  -5 -11 -12    2.79    0.32 
  -6 -11 -12    4.50    0.31 
  -6 -11 -12    2.86    0.79 
  -7 -11 -12    1.67    0.22 
  -7 -11 -12    0.66    0.56 
  -8 -11 -12    0.27    0.52 
  -9 -11 -12    2.12    0.79 
 -10 -11 -12    0.40    0.57 
 -11 -11 -12   -0.12    0.46 
 -12 -11 -12    1.40    0.63 
 -13 -11 -12    0.14    0.52 
 -14 -11 -12    0.14    0.52 
 -15 -11 -12    0.62    0.51 
  -3  12  12    1.40    0.28 
  -2  12  12    0.23    0.14 
  -1  12  12    0.14    0.11 
   0  12  12    1.84    0.29 
  -1 -12 -12    0.15    0.13 
  -1 -12 -12   -0.06    0.60 
  -2 -12 -12    0.53    0.20 
  -2 -12 -12    0.34    0.65 
  -3 -12 -12    0.60    0.64 
  -3 -12 -12    0.96    0.20 
  -4 -12 -12    0.01    0.53 
  -4 -12 -12   -0.05    0.12 
  -5 -12 -12    0.22    0.12 
  -5 -12 -12   -0.34    0.39 
  -6 -12 -12    0.01    0.41 
  -6 -12 -12    0.10    0.11 
  -7 -12 -12    0.79    0.55 
  -7 -12 -12    0.99    0.18 
  -8 -12 -12    0.98    0.15 
  -8 -12 -12    0.34    0.47 
  -9 -12 -12    0.59    0.65 
 -10 -12 -12    0.43    0.60 
 -11 -12 -12    1.01    0.64 
 -12 -12 -12    0.18    0.45 
 -13 -12 -12    0.54    0.50 
 -14 -12 -12    0.49    0.48 
  -2  13  12    0.00    0.17 
  -1  13  12    0.16    0.14 
   0  13  12    0.16    0.13 
  -1 -13 -12   -0.05    0.11 
  -2 -13 -12    0.99    0.72 
  -2 -13 -12    0.29    0.14 
  -3 -13 -12    0.61    0.60 
  -3 -13 -12    0.28    0.13 
  -4 -13 -12   -0.26    0.56 
  -4 -13 -12   -0.14    0.10 
  -5 -13 -12    0.79    0.19 
  -5 -13 -12    1.34    0.70 
  -6 -13 -12    0.46    0.51 
  -6 -13 -12    0.54    0.17 
  -7 -13 -12    0.60    0.17 
  -7 -13 -12   -0.20    0.43 
  -8 -13 -12    0.32    0.11 
  -8 -13 -12    0.32    0.46 
  -9 -13 -12   -0.10    0.55 
 -10 -13 -12    0.37    0.62 
 -11 -13 -12    0.06    0.47 
 -12 -13 -12    0.25    0.56 
 -13 -13 -12    0.23    0.44 
 -14 -13 -12    1.04    0.50 
   0  14  12    0.14    0.15 
  -1 -14 -12    0.22    0.18 
  -2 -14 -12    0.01    0.14 
  -2 -14 -12    0.01    0.60 
  -3 -14 -12    0.51    0.18 
  -3 -14 -12   -0.33    0.52 
  -4 -14 -12    0.33    0.16 
  -4 -14 -12    0.44    0.60 
  -5 -14 -12    2.23    0.90 
  -6 -14 -12    0.14    0.49 
  -6 -14 -12    0.73    0.17 
  -7 -14 -12    1.04    0.20 
  -7 -14 -12    0.15    0.45 
  -8 -14 -12    0.51    0.11 
  -8 -14 -12   -0.12    0.52 
  -9 -14 -12    0.95    0.59 
 -10 -14 -12    0.41    0.59 
 -11 -14 -12    0.33    0.68 
 -12 -14 -12    0.43    0.48 
 -13 -14 -12    0.33    0.37 
  -2 -15 -12    0.66    0.19 
  -3 -15 -12   -1.06    0.45 
  -3 -15 -12    0.13    0.13 
  -4 -15 -12   -0.15    0.55 
  -4 -15 -12    0.45    0.17 
  -5 -15 -12   -0.08    0.54 
  -5 -15 -12    0.42    0.14 
  -6 -15 -12    0.78    0.18 
  -6 -15 -12    0.88    0.65 
  -7 -15 -12    0.02    0.12 
  -7 -15 -12    0.58    0.55 
  -8 -15 -12    0.15    0.46 
  -8 -15 -12    0.20    0.11 
  -9 -15 -12   -0.37    0.50 
 -10 -15 -12   -0.06    0.39 
 -11 -15 -12    0.05    0.49 
  -5 -16 -12    0.34    0.15 
  -6 -16 -12    0.11    0.11 
  -7 -16 -12    0.02    0.51 
  -7 -16 -12    0.02    0.12 
  -8 -16 -12    0.87    0.18 
  -8 -16 -12    0.71    0.45 
  -7 -13  13    0.06    0.11 
  -6 -13  13    0.14    0.13 
  -5 -13  13    0.46    0.16 
  -4 -13  13    0.21    0.13 
  -3 -13  13   -0.06    0.09 
  -2 -13  13   -0.20    0.06 
   1  13 -13    0.03    0.36 
  -1 -13  13   -0.03    0.09 
  -8 -12  13    0.07    0.15 
  -7 -12  13    1.12    0.26 
  -6 -12  13    0.47    0.18 
  -5 -12  13    0.06    0.12 
  -4 -12  13    0.23    0.13 
  -3 -12  13    0.15    0.10 
   2  12 -13    0.11    0.33 
  -2 -12  13    0.30    0.09 
   1  12 -13    0.41    0.37 
   0  12 -13    0.05    0.36 
   0 -12  13    0.27    0.10 
  -1  12 -13   -0.19    0.30 
   1 -12  13    0.04    0.08 
  -2  12 -13    0.08    0.35 
   2 -12  13    0.35    0.08 
 -10 -11  13   -0.40    0.28 
  -9 -11  13   -0.38    0.24 
  -8 -11  13   -0.06    0.22 
  -7 -11  13   -0.03    0.22 
  -6 -11  13    0.49    0.21 
  -5 -11  13    0.51    0.19 
  -4 -11  13    0.87    0.22 
  -3 -11  13    0.15    0.10 
   2  11 -13    0.28    0.34 
  -2 -11  13    0.29    0.10 
   1  11 -13    0.10    0.31 
  -1 -11  13    0.03    0.07 
   0  11 -13    0.01    0.27 
   0 -11  13    0.59    0.15 
  -1  11 -13    0.13    0.30 
   1 -11  13    0.46    0.11 
  -2  11 -13    0.03    0.34 
   2 -11  13    0.37    0.09 
  -3  11 -13   -0.01    0.35 
   3 -11  13    0.23    0.07 
  -4  11 -13    0.78    0.47 
 -10 -10  13    0.16    0.12 
  -9 -10  13    1.69    0.26 
  -8 -10  13    0.16    0.32 
  -7 -10  13   -0.09    0.27 
  -6 -10  13    0.28    0.24 
  -5 -10  13    0.04    0.21 
  -4 -10  13    0.11    0.15 
  -3 -10  13    0.48    0.17 
   2  10 -13    0.97    0.43 
  -2 -10  13    0.85    0.18 
   1  10 -13    1.45    0.46 
  -1 -10  13    1.57    0.22 
   0  10 -13    0.09    0.32 
   0 -10  13    0.00    0.09 
  -1  10 -13    2.37    0.54 
   1 -10  13    1.92    0.26 
  -2  10 -13    0.54    0.34 
   2 -10  13    0.80    0.14 
  -3  10 -13   -0.02    0.30 
   3 -10  13    0.12    0.07 
  -4  10 -13    0.42    0.40 
  -5  10 -13    0.04    0.39 
 -11  -9  13    0.82    0.19 
 -10  -9  13    0.09    0.14 
  -9  -9  13    0.18    0.14 
  -8  -9  13   -0.12    0.14 
  -7  -9  13    2.26    0.34 
  -6  -9  13    0.22    0.09 
  -5  -9  13    0.45    0.28 
  -4  -9  13    0.86    0.27 
  -3  -9  13    0.26    0.19 
   2   9 -13    0.94    0.38 
  -2  -9  13    0.61    0.20 
   1   9 -13    3.15    0.57 
  -1  -9  13    2.99    0.33 
   0   9 -13    1.11    0.39 
   0  -9  13    1.21    0.21 
  -1   9 -13    0.80    0.34 
   1  -9  13    0.93    0.18 
  -2   9 -13    0.36    0.33 
   2  -9  13    0.26    0.09 
  -3   9 -13    0.09    0.30 
   3  -9  13    0.16    0.07 
  -4   9 -13   -0.02    0.30 
  -5   9 -13   -0.14    0.30 
  -6   9 -13   -0.01    0.36 
  -7   9 -13    0.22    0.43 
 -11  -8  13    0.90    0.20 
 -10  -8  13    0.32    0.17 
  -9  -8  13   -0.08    0.11 
  -8  -8  13    0.38    0.19 
  -7  -8  13   -0.10    0.15 
  -6  -8  13    0.40    0.13 
  -5  -8  13    0.35    0.13 
  -4  -8  13   -0.07    0.08 
  -3  -8  13    0.04    0.24 
   2   8 -13    0.25    0.27 
  -2  -8  13    0.59    0.22 
   1   8 -13    0.68    0.33 
  -1  -8  13    0.38    0.19 
   0   8 -13    0.33    0.29 
   0  -8  13    0.52    0.17 
  -1   8 -13    4.06    0.62 
   1  -8  13    4.96    0.33 
  -2   8 -13    0.51    0.31 
   2  -8  13    0.80    0.15 
  -3   8 -13    0.35    0.34 
   3  -8  13    0.76    0.14 
  -4   8 -13    0.50    0.37 
  -5   8 -13    0.15    0.35 
  -6   8 -13   -0.40    0.28 
  -7   8 -13    0.06    0.36 
  -8   8 -13    0.12    0.40 
 -11  -7  13    1.13    0.27 
 -10  -7  13    0.16    0.17 
  -9  -7  13    0.46    0.20 
  -8  -7  13    0.15    0.17 
  -7  -7  13    2.02    0.33 
  -6  -7  13    0.32    0.15 
  -5  -7  13    0.98    0.22 
  -4  -7  13    2.67    0.32 
  -3  -7  13    0.96    0.18 
   2   7 -13    0.34    0.27 
  -2  -7  13    0.39    0.13 
   1   7 -13    1.00    0.33 
  -1  -7  13    0.32    0.22 
   0   7 -13    0.43    0.27 
   0  -7  13    0.42    0.19 
  -1   7 -13    0.69    0.30 
   1  -7  13    0.63    0.17 
  -2   7 -13    0.56    0.30 
   2  -7  13    1.03    0.17 
  -3   7 -13    0.39    0.27 
   3  -7  13    0.39    0.10 
  -4   7 -13   -0.12    0.24 
   4  -7  13    0.02    0.06 
  -5   7 -13    0.39    0.34 
  -6   7 -13    0.65    0.40 
  -7   7 -13    0.22    0.40 
  -8   7 -13    0.21    0.39 
  -9   7 -13    0.42    0.45 
 -12  -6  13    0.38    0.17 
 -11  -6  13    0.40    0.40 
 -11  -6  13    0.44    0.19 
 -10  -6  13    0.49    0.48 
 -10  -6  13    0.20    0.20 
  -9  -6  13    0.64    0.47 
  -9  -6  13    0.46    0.21 
  -8  -6  13    0.19    0.21 
  -7  -6  13    0.60    0.24 
  -6  -6  13    0.44    0.21 
  -5  -6  13   -0.14    0.11 
  -4  -6  13    1.53    0.26 
  -3  -6  13    0.04    0.11 
   2   6 -13    0.12    0.23 
  -2  -6  13    0.45    0.16 
   1   6 -13    3.40    0.55 
  -1  -6  13    3.04    0.32 
   0   6 -13    1.99    0.42 
   0  -6  13    2.87    0.30 
  -1   6 -13    3.20    0.52 
   1  -6  13    3.14    0.31 
  -2   6 -13    1.95    0.44 
   2  -6  13    2.56    0.28 
  -3   6 -13    0.01    0.24 
   3  -6  13    0.26    0.09 
  -4   6 -13    4.37    0.65 
   4  -6  13    4.65    0.28 
  -5   6 -13    0.18    0.27 
  -6   6 -13    0.37    0.32 
  -7   6 -13    0.25    0.33 
  -8   6 -13   -0.01    0.36 
  -9   6 -13   -0.35    0.32 
 -10   6 -13    0.08    0.51 
 -12  -5  13    0.25    0.16 
 -11  -5  13   -0.17    0.43 
 -11  -5  13    0.02    0.17 
 -10  -5  13    0.32    0.21 
  -9  -5  13    0.00    0.16 
  -8  -5  13    0.59    0.23 
  -7  -5  13    0.92    0.25 
  -6  -5  13    2.78    0.36 
  -5  -5  13   -0.10    0.14 
  -4  -5  13    0.54    0.19 
  -3  -5  13    2.06    0.28 
  -2  -5  13   -0.07    0.11 
   1   5 -13    3.53    0.56 
  -1  -5  13    3.63    0.34 
   0   5 -13    4.68    0.59 
   0  -5  13    4.48    0.31 
  -1   5 -13    1.96    0.41 
   1  -5  13    2.28    0.25 
  -2   5 -13   -0.02    0.20 
   2  -5  13    0.19    0.18 
  -3   5 -13    0.63    0.33 
   3  -5  13    0.75    0.17 
  -4   5 -13    2.17    0.48 
   4  -5  13    2.75    0.25 
  -5   5 -13    0.81    0.35 
  -6   5 -13    0.25    0.29 
  -7   5 -13    1.09    0.42 
  -8   5 -13    0.05    0.28 
  -9   5 -13   -0.21    0.25 
 -10   5 -13    1.48    0.58 
 -12  -4  13    0.23    0.17 
 -11  -4  13    0.04    0.18 
 -11  -4  13    0.26    0.51 
 -10  -4  13    0.07    0.14 
  -9  -4  13    0.16    0.18 
  -8  -4  13   -0.03    0.17 
  -7  -4  13    0.47    0.21 
  -6  -4  13   -0.02    0.16 
  -5  -4  13    5.62    0.39 
  -4  -4  13    5.04    0.41 
  -3  -4  13    1.66    0.27 
  -2  -4  13    1.44    0.25 
   1   4 -13    8.14    0.66 
  -1  -4  13    7.81    0.43 
   0   4 -13    1.74    0.39 
   0  -4  13    1.42    0.22 
  -1   4 -13   16.44    0.97 
   1  -4  13   17.18    0.65 
  -2   4 -13    4.90    0.60 
   2  -4  13    5.33    0.31 
  -3   4 -13    0.32    0.24 
   3  -4  13    0.68    0.19 
  -4   4 -13    3.13    0.52 
   4  -4  13    3.47    0.24 
  -5   4 -13    0.08    0.25 
  -6   4 -13    0.06    0.29 
  -7   4 -13   -0.20    0.25 
  -8   4 -13    0.93    0.42 
  -9   4 -13    0.78    0.40 
 -10   4 -13    0.16    0.36 
 -11   4 -13    0.42    0.34 
 -12  -3  13    0.66    0.23 
 -11  -3  13   -0.04    0.16 
 -10  -3  13    0.09    0.18 
  -9  -3  13   -0.05    0.15 
  -8  -3  13    1.86    0.31 
  -7  -3  13    1.70    0.28 
  -6  -3  13    0.73    0.22 
  -5  -3  13    8.98    0.49 
  -4  -3  13    0.48    0.18 
  -3  -3  13    0.26    0.16 
  -2  -3  13    2.75    0.30 
   1   3 -13    1.51    0.34 
  -1  -3  13    1.60    0.24 
   0   3 -13    0.01    0.20 
   0  -3  13   -0.09    0.13 
  -1   3 -13    0.52    0.23 
  -1   3 -13    0.37    0.20 
   1  -3  13    0.19    0.13 
  -2   3 -13    0.15    0.20 
  -2   3 -13    0.08    0.16 
   2  -3  13    0.16    0.12 
  -3   3 -13    3.84    0.49 
  -3   3 -13    3.05    0.49 
   3  -3  13    2.64    0.23 
  -4   3 -13    0.14    0.22 
   4  -3  13    0.78    0.14 
  -5   3 -13    2.31    0.48 
  -6   3 -13    3.27    0.59 
  -7   3 -13    0.58    0.34 
  -8   3 -13    0.05    0.31 
  -9   3 -13    0.63    0.41 
 -10   3 -13    0.08    0.34 
 -11   3 -13    0.17    0.35 
 -12   3 -13    0.46    0.37 
 -11  -2  13    0.37    0.18 
 -10  -2  13    0.15    0.17 
  -9  -2  13   -0.20    0.14 
  -8  -2  13   -0.12    0.16 
  -7  -2  13    0.24    0.20 
  -6  -2  13   -0.15    0.16 
  -5  -2  13    4.66    0.38 
  -4  -2  13    0.76    0.19 
  -3  -2  13    3.93    0.33 
  -2  -2  13    2.02    0.26 
   1   2 -13    5.66    0.59 
  -1  -2  13    4.54    0.33 
   0   2 -13    1.21    0.31 
   0   2 -13    1.27    0.35 
   0  -2  13    0.92    0.19 
  -1   2 -13    0.79    0.25 
  -1   2 -13    0.72    0.27 
   1  -2  13    0.86    0.18 
  -2   2 -13   11.84    0.75 
  -2   2 -13   12.32    0.85 
   2  -2  13    9.86    0.46 
  -3   2 -13    1.71    0.35 
  -3   2 -13    1.95    0.41 
   3  -2  13    1.96    0.20 
  -4   2 -13    3.60    0.51 
  -4   2 -13    5.16    0.60 
   4  -2  13    3.17    0.18 
  -5   2 -13    4.35    0.60 
  -5   2 -13    4.41    0.59 
  -6   2 -13    0.92    0.28 
  -6   2 -13    0.87    0.33 
  -7   2 -13    1.94    0.48 
  -8   2 -13    1.38    0.44 
  -9   2 -13    0.16    0.34 
 -10   2 -13    0.87    0.40 
 -11   2 -13    1.18    0.49 
 -12   2 -13    0.25    0.36 
 -11  -1  13    0.00    0.15 
 -10  -1  13    0.14    0.19 
  -9  -1  13    0.08    0.18 
  -8  -1  13    0.25    0.17 
  -7  -1  13    0.38    0.19 
  -6  -1  13    0.19    0.17 
  -5  -1  13    3.18    0.33 
  -4  -1  13    1.05    0.21 
  -3  -1  13    4.60    0.36 
  -2  -1  13    0.20    0.15 
  -1  -1  13    0.17    0.14 
   0   1 -13    2.92    0.54 
   0   1 -13    2.30    0.38 
   0  -1  13    2.51    0.25 
  -1   1 -13    0.00    0.19 
  -1   1 -13   -0.06    0.14 
   1  -1  13   -0.22    0.11 
  -2   1 -13    6.25    0.53 
  -2   1 -13    7.45    0.69 
   2  -1  13    7.23    0.35 
  -3   1 -13    4.49    0.52 
  -3   1 -13    5.01    0.64 
   3  -1  13    4.40    0.26 
  -4   1 -13    7.39    0.66 
  -4   1 -13    6.05    0.63 
   4  -1  13    6.59    0.29 
  -5   1 -13   20.41    1.15 
  -5   1 -13   23.34    1.28 
   5  -1  13   20.82    0.66 
  -6   1 -13    0.86    0.34 
  -6   1 -13    0.70    0.30 
  -7   1 -13    1.12    0.42 
  -7   1 -13    1.12    0.38 
  -8   1 -13    2.05    0.53 
  -8   1 -13    2.58    0.54 
  -9   1 -13    0.18    0.31 
  -9   1 -13    0.08    0.34 
 -10   1 -13    0.27    0.34 
 -11   1 -13    1.06    0.45 
 -12   1 -13   -0.09    0.29 
 -13   1 -13   -0.09    0.24 
 -11   0  13    0.01    0.14 
 -10   0  13    0.26    0.21 
  -9   0  13    0.24    0.17 
  -8   0  13    0.32    0.18 
  -7   0  13    0.02    0.15 
  -6   0  13   -0.19    0.15 
  -5   0  13    5.77    0.37 
  -4   0  13    1.19    0.21 
  -3   0  13    1.90    0.24 
  -2   0  13    0.92    0.19 
  -1   0  13    3.59    0.29 
   0   0 -13    3.96    0.66 
   0   0 -13    3.85    0.43 
   0   0  13    3.78    0.27 
  -1   0 -13    5.68    0.44 
  -1   0 -13    6.27    0.77 
   1   0  13    5.65    0.32 
  -2   0 -13    0.35    0.22 
  -2   0 -13    0.39    0.16 
   2   0  13    0.38    0.12 
  -3   0 -13    0.03    0.15 
  -3   0 -13    0.12    0.20 
   3   0  13    0.14    0.08 
  -4   0 -13   -0.02    0.17 
  -4   0 -13   -0.08    0.16 
   4   0  13    0.42    0.07 
  -5   0 -13    2.59    0.50 
  -5   0 -13    2.50    0.45 
   5   0  13    3.00    0.17 
  -6   0 -13    0.25    0.31 
  -6   0 -13    0.47    0.27 
  -7   0 -13    2.60    0.49 
  -7   0 -13    2.49    0.52 
  -8   0 -13    0.82    0.34 
  -8   0 -13    1.29    0.42 
  -9   0 -13    1.75    0.48 
  -9   0 -13    1.16    0.47 
 -10   0 -13    1.16    0.45 
 -10   0 -13    0.73    0.40 
 -11   0 -13    0.00    0.37 
 -11   0 -13    0.07    0.31 
 -12   0 -13    0.85    0.41 
 -13   0 -13    0.60    0.37 
 -14   0 -13    0.36    0.31 
 -11   1  13    0.01    0.15 
 -10   1  13    0.66    0.24 
  -9   1  13   -0.01    0.14 
  -8   1  13   -0.02    0.15 
  -7   1  13    1.50    0.26 
  -6   1  13    0.53    0.20 
  -5   1  13    2.25    0.29 
  -4   1  13    2.34    0.27 
  -3   1  13    0.30    0.13 
  -2   1  13    0.40    0.14 
  -1   1  13    3.49    0.28 
   0  -1 -13    2.76    0.58 
   0   1  13    2.39    0.23 
  -1  -1 -13    0.95    0.20 
  -1  -1 -13    1.21    0.40 
   1   1  13    0.83    0.16 
  -2  -1 -13    1.81    0.28 
  -2  -1 -13    1.03    0.40 
   2   1  13    1.70    0.19 
  -3  -1 -13    2.55    0.33 
  -3  -1 -13    2.69    0.51 
   3   1  13    2.50    0.21 
  -4  -1 -13    5.77    0.47 
  -4  -1 -13    5.17    0.69 
   4   1  13    3.55    0.20 
  -5  -1 -13    2.60    0.42 
  -5  -1 -13    3.06    0.59 
   5   1  13    2.67    0.16 
  -6  -1 -13    0.05    0.28 
  -6  -1 -13    0.29    0.21 
  -7  -1 -13   15.33    0.98 
  -7  -1 -13   15.47    1.09 
  -8  -1 -13   -0.13    0.24 
  -8  -1 -13    0.00    0.26 
  -9  -1 -13    1.68    0.46 
  -9  -1 -13    1.71    0.51 
 -10  -1 -13    1.77    0.48 
 -10  -1 -13    1.26    0.47 
 -11  -1 -13    0.33    0.38 
 -11  -1 -13    0.49    0.34 
 -12  -1 -13    1.48    0.50 
 -12  -1 -13    2.34    0.65 
 -13  -1 -13    0.95    0.58 
 -13  -1 -13    0.29    0.35 
 -14  -1 -13    0.21    0.36 
 -10   2  13    0.95    0.26 
  -9   2  13    0.31    0.19 
  -8   2  13    0.06    0.16 
  -7   2  13    0.27    0.17 
  -6   2  13    1.92    0.28 
  -5   2  13    5.10    0.35 
  -4   2  13    5.69    0.35 
  -3   2  13    1.95    0.23 
  -2   2  13    0.91    0.17 
   1  -2 -13    2.57    0.61 
  -1   2  13    2.46    0.25 
   0  -2 -13    0.02    0.24 
   0   2  13    0.30    0.12 
  -1  -2 -13   10.81    0.93 
   1   2  13    8.84    0.39 
  -2  -2 -13    0.22    0.29 
  -2  -2 -13    0.31    0.12 
   2   2  13    0.37    0.09 
  -3  -2 -13    0.45    0.15 
  -3  -2 -13    0.25    0.29 
   3   2  13    0.25    0.08 
  -4  -2 -13    3.42    0.60 
  -4  -2 -13    3.30    0.39 
  -5  -2 -13    0.00    0.26 
  -5  -2 -13    0.21    0.12 
   5   2  13    0.25    0.07 
  -6  -2 -13    0.57    0.26 
  -6  -2 -13    0.70    0.37 
  -7  -2 -13    0.03    0.25 
  -7  -2 -13    0.15    0.21 
  -8  -2 -13    3.35    0.55 
  -8  -2 -13    3.91    0.68 
  -9  -2 -13   -0.22    0.28 
  -9  -2 -13    0.00    0.27 
 -10  -2 -13    1.37    0.49 
 -10  -2 -13    1.18    0.40 
 -11  -2 -13    0.85    0.44 
 -11  -2 -13    0.54    0.36 
 -12  -2 -13    0.02    0.29 
 -12  -2 -13   -0.16    0.34 
 -13  -2 -13    0.05    0.43 
 -13  -2 -13    0.31    0.33 
 -14  -2 -13    0.00    0.33 
 -14  -2 -13    0.02    0.46 
 -10   3  13    0.44    0.18 
  -9   3  13    0.14    0.17 
  -8   3  13    0.88    0.22 
  -7   3  13    0.85    0.21 
  -6   3  13    0.02    0.13 
  -5   3  13    1.10    0.22 
  -4   3  13    8.41    0.44 
  -3   3  13    0.11    0.11 
  -2   3  13    3.17    0.28 
   1  -3 -13    2.35    0.58 
  -1   3  13    1.65    0.21 
   0  -3 -13    0.07    0.29 
   0   3  13    0.12    0.10 
  -1  -3 -13    0.56    0.36 
   1   3  13    0.82    0.15 
  -2  -3 -13    2.77    0.30 
  -2  -3 -13    2.33    0.54 
   2   3  13    2.67    0.22 
  -3  -3 -13    4.25    0.34 
  -3  -3 -13    4.54    0.73 
   3   3  13    4.78    0.24 
  -4  -3 -13    5.17    0.75 
   4   3  13    5.19    0.25 
  -5  -3 -13    0.75    0.18 
  -5  -3 -13    0.59    0.35 
   5   3  13    0.73    0.10 
  -6  -3 -13    1.59    0.46 
  -6  -3 -13    1.22    0.25 
  -7  -3 -13    8.17    0.65 
  -7  -3 -13    7.91    0.90 
  -8  -3 -13    9.58    0.76 
  -8  -3 -13    9.88    0.93 
  -9  -3 -13    1.38    0.41 
  -9  -3 -13    1.42    0.49 
 -10  -3 -13    0.74    0.44 
 -10  -3 -13    0.22    0.27 
 -11  -3 -13    0.68    0.43 
 -11  -3 -13    0.43    0.31 
 -12  -3 -13    0.13    0.38 
 -12  -3 -13   -0.01    0.32 
 -13  -3 -13    0.14    0.30 
 -13  -3 -13   -0.04    0.39 
 -14  -3 -13    0.21    0.46 
 -14  -3 -13    0.41    0.40 
 -15  -3 -13    0.08    0.29 
  -9   4  13    0.38    0.17 
  -8   4  13    0.05    0.13 
  -7   4  13    0.04    0.15 
  -6   4  13    0.26    0.16 
  -5   4  13    0.41    0.15 
  -4   4  13    7.27    0.41 
  -3   4  13    0.44    0.13 
  -2   4  13    7.54    0.40 
   1  -4 -13   21.61    1.50 
  -1   4  13   19.81    0.72 
   0  -4 -13    0.57    0.38 
   0   4  13    0.77    0.16 
  -1  -4 -13    3.19    0.67 
   1   4  13    3.15    0.26 
  -2  -4 -13    6.71    0.89 
  -2  -4 -13    5.03    0.33 
   2   4  13    4.96    0.27 
  -3  -4 -13    0.79    0.39 
  -3  -4 -13    0.96    0.16 
   3   4  13    1.40    0.14 
  -4  -4 -13    0.25    0.09 
  -4  -4 -13   -0.09    0.21 
   4   4  13    0.38    0.07 
  -5  -4 -13    5.75    0.42 
  -5  -4 -13    6.14    0.83 
   5   4  13    5.59    0.25 
  -6  -4 -13    4.57    0.74 
   6   4  13    4.65    0.21 
  -7  -4 -13    0.42    0.23 
  -7  -4 -13    0.07    0.31 
  -8  -4 -13   14.48    1.15 
  -8  -4 -13   16.39    0.98 
  -9  -4 -13    0.04    0.22 
  -9  -4 -13   -0.18    0.28 
 -10  -4 -13    2.35    0.62 
 -10  -4 -13    1.67    0.47 
 -11  -4 -13    6.58    0.81 
 -11  -4 -13    5.89    0.92 
 -12  -4 -13    1.18    0.44 
 -12  -4 -13    1.22    0.56 
 -13  -4 -13   -0.25    0.31 
 -13  -4 -13   -0.07    0.43 
 -14  -4 -13    0.29    0.52 
 -14  -4 -13    0.98    0.43 
 -15  -4 -13    0.70    0.60 
 -15  -4 -13   -0.04    0.34 
  -9   5  13    0.02    0.13 
  -8   5  13    0.17    0.15 
  -7   5  13    0.15    0.13 
  -6   5  13    0.09    0.15 
  -5   5  13    0.78    0.21 
  -4   5  13    0.24    0.15 
  -3   5  13    1.55    0.23 
  -2   5  13    0.53    0.15 
   1  -5 -13    2.18    0.64 
  -1   5  13    3.60    0.32 
   0  -5 -13    1.69    0.57 
   0   5  13    2.55    0.26 
  -1  -5 -13    8.87    1.07 
   1   5  13    9.17    0.42 
  -2  -5 -13    6.87    0.93 
   2   5  13    5.71    0.31 
  -3  -5 -13    9.87    0.96 
   3   5  13   11.10    0.44 
  -4  -5 -13    4.21    0.72 
   4   5  13    3.89    0.22 
  -5  -5 -13   14.02    0.68 
  -5  -5 -13   13.49    1.12 
  -6  -5 -13    4.74    0.36 
  -6  -5 -13    5.08    0.79 
   6   5  13    4.35    0.21 
  -7  -5 -13    5.08    0.80 
  -7  -5 -13    4.07    0.36 
  -8  -5 -13    0.32    0.24 
  -8  -5 -13    0.28    0.32 
  -9  -5 -13    0.31    0.36 
  -9  -5 -13    0.60    0.31 
 -10  -5 -13    0.99    0.48 
 -10  -5 -13    1.44    0.40 
 -11  -5 -13    0.22    0.41 
 -11  -5 -13    0.10    0.27 
 -12  -5 -13   -0.31    0.26 
 -12  -5 -13    0.35    0.43 
 -13  -5 -13    0.36    0.48 
 -13  -5 -13   -0.04    0.30 
 -14  -5 -13    0.05    0.33 
 -14  -5 -13   -0.10    0.49 
 -15  -5 -13    0.58    0.37 
 -15  -5 -13    0.55    0.57 
  -8   6  13    0.15    0.12 
  -7   6  13    0.07    0.13 
  -6   6  13   -0.12    0.11 
  -5   6  13    0.19    0.15 
  -4   6  13    0.68    0.18 
  -3   6  13    0.10    0.10 
  -2   6  13    0.58    0.15 
  -1   6  13   10.19    0.50 
   0  -6 -13    5.55    0.95 
   0   6  13    5.50    0.34 
  -1  -6 -13    2.25    0.64 
   1   6  13    1.10    0.17 
  -2  -6 -13    0.70    0.43 
   2   6  13    0.62    0.14 
  -3  -6 -13    2.12    0.59 
   3   6  13    1.85    0.21 
  -4  -6 -13    4.60    0.77 
   4   6  13    4.64    0.26 
  -5  -6 -13    7.02    0.93 
   5   6  13    6.72    0.30 
  -6  -6 -13    0.45    0.34 
   6   6  13    0.33    0.05 
  -7  -6 -13    0.07    0.26 
  -8  -6 -13    3.66    0.42 
  -8  -6 -13    4.80    0.80 
  -9  -6 -13    0.56    0.43 
  -9  -6 -13    0.72    0.27 
 -10  -6 -13    0.72    0.32 
 -10  -6 -13    1.02    0.48 
 -11  -6 -13    2.13    0.50 
 -11  -6 -13    2.48    0.67 
 -12  -6 -13   -0.31    0.34 
 -12  -6 -13   -0.02    0.28 
 -13  -6 -13    0.94    0.41 
 -13  -6 -13    0.36    0.49 
 -14  -6 -13    0.89    0.41 
 -14  -6 -13    0.84    0.58 
 -15  -6 -13    0.21    0.55 
 -15  -6 -13    0.10    0.31 
  -7   7  13    0.12    0.15 
  -6   7  13    0.13    0.12 
  -5   7  13    0.36    0.16 
  -4   7  13    0.01    0.12 
  -3   7  13    0.27    0.12 
  -2   7  13    0.59    0.15 
  -1   7  13    0.20    0.11 
   0  -7 -13    0.28    0.43 
   0   7  13   -0.01    0.08 
  -1  -7 -13    6.15    1.02 
   1   7  13    5.72    0.34 
  -2  -7 -13    3.19    0.73 
   2   7  13    2.58    0.26 
  -3  -7 -13    1.22    0.46 
   3   7  13    1.28    0.18 
  -4  -7 -13   13.55    1.18 
   4   7  13   14.83    0.56 
  -5  -7 -13    0.86    0.41 
   5   7  13    0.79    0.12 
  -6  -7 -13    8.26    1.08 
  -7  -7 -13    1.48    0.54 
  -8  -7 -13   -0.17    0.30 
  -9  -7 -13    0.64    0.41 
 -10  -7 -13    0.75    0.45 
 -11  -7 -13   -0.24    0.35 
 -12  -7 -13    0.95    0.37 
 -12  -7 -13    1.70    0.64 
 -13  -7 -13    0.34    0.49 
 -13  -7 -13    0.26    0.29 
 -14  -7 -13    0.66    0.35 
 -14  -7 -13    1.58    0.71 
 -15  -7 -13    0.16    0.63 
 -15  -7 -13    0.57    0.34 
  -6   8  13   -0.02    0.14 
  -5   8  13    0.98    0.22 
  -4   8  13    0.60    0.18 
  -3   8  13   -0.19    0.09 
  -2   8  13    1.04    0.19 
  -1   8  13    0.83    0.17 
   0  -8 -13    1.66    0.66 
   0   8  13    1.02    0.19 
  -1  -8 -13    7.40    1.18 
   1   8  13    6.36    0.38 
  -2  -8 -13    1.38    0.60 
   2   8  13    2.08    0.25 
  -3  -8 -13    2.07    0.63 
   3   8  13    1.77    0.22 
  -4  -8 -13    1.30    0.50 
   4   8  13    1.58    0.19 
  -5  -8 -13    0.44    0.39 
   5   8  13    0.38    0.09 
  -6  -8 -13    0.61    0.43 
   6   8  13    1.21    0.15 
  -7  -8 -13    0.08    0.35 
   7   8  13    0.20    0.04 
  -8  -8 -13    1.01    0.52 
  -9  -8 -13    0.37    0.41 
 -10  -8 -13   -0.03    0.39 
 -11  -8 -13    2.49    0.75 
 -12  -8 -13   -0.04    0.46 
 -13  -8 -13    0.64    0.60 
 -14  -8 -13    0.63    0.68 
 -15  -8 -13   -0.08    0.63 
  -6   9  13    0.11    0.14 
  -5   9  13    1.22    0.24 
  -4   9  13   -0.07    0.11 
  -3   9  13    0.46    0.14 
  -2   9  13    0.47    0.14 
  -1   9  13    0.26    0.12 
   0  -9 -13    0.17    0.58 
   0   9  13    1.20    0.21 
  -1  -9 -13    0.30    0.56 
   1   9  13   -0.06    0.09 
  -2  -9 -13   -0.11    0.39 
   2   9  13    0.33    0.12 
  -3  -9 -13    0.01    0.41 
   3   9  13    0.27    0.11 
  -4  -9 -13    1.35    0.57 
   4   9  13    1.01    0.17 
  -5  -9 -13    0.74    0.54 
   5   9  13    0.75    0.16 
  -6  -9 -13    3.03    0.75 
   6   9  13    2.83    0.26 
  -7  -9 -13    0.67    0.51 
   7   9  13    0.81    0.12 
  -8  -9 -13    0.20    0.42 
  -9  -9 -13    0.07    0.38 
 -10  -9 -13    0.37    0.47 
 -11  -9 -13   -0.36    0.45 
 -12  -9 -13    0.30    0.52 
 -13  -9 -13   -0.03    0.66 
 -14  -9 -13    0.88    0.72 
 -15  -9 -13   -0.03    0.77 
  -5  10  13    1.84    0.29 
  -4  10  13    0.30    0.15 
  -3  10  13   -0.12    0.13 
  -2  10  13    0.13    0.10 
  -1  10  13    0.19    0.10 
   0  10  13    0.32    0.11 
  -1 -10 -13    0.68    0.57 
   1  10  13    0.61    0.16 
  -2 -10 -13   -0.09    0.55 
   2  10  13   -0.17    0.09 
  -3 -10 -13    0.28    0.53 
   3  10  13    0.58    0.16 
  -4 -10 -13    0.15    0.42 
   4  10  13    0.36    0.13 
  -5 -10 -13    0.76    0.56 
   5  10  13    0.69    0.16 
  -6 -10 -13    2.98    0.81 
   6  10  13    3.15    0.29 
  -7 -10 -13   -0.40    0.34 
   7  10  13    0.00    0.07 
  -8 -10 -13    1.73    0.68 
  -9 -10 -13   -0.02    0.47 
 -10 -10 -13    0.88    0.54 
 -11 -10 -13    1.44    0.60 
 -12 -10 -13    1.14    0.66 
 -13 -10 -13    0.63    0.71 
 -14 -10 -13    0.38    0.67 
  -3  11  13    0.12    0.17 
  -2  11  13    0.64    0.15 
  -1  11  13    1.18    0.21 
   0  11  13    0.19    0.10 
  -1 -11 -13    0.60    0.69 
   1  11  13    0.95    0.20 
  -2 -11 -13    0.92    0.62 
   2  11  13    1.01    0.21 
  -3 -11 -13    0.30    0.57 
   3  11  13    0.63    0.18 
  -4 -11 -13    1.92    0.78 
   4  11  13    2.09    0.28 
  -5 -11 -13    2.93    0.81 
  -6 -11 -13    0.14    0.41 
  -7 -11 -13    0.40    0.57 
  -8 -11 -13    0.50    0.56 
  -9 -11 -13    0.01    0.57 
 -10 -11 -13    0.23    0.53 
 -11 -11 -13    0.13    0.48 
 -12 -11 -13   -0.23    0.44 
 -13 -11 -13    0.76    0.53 
 -14 -11 -13    0.46    0.52 
  -2  12  13   -0.04    0.10 
  -1  12  13    0.03    0.11 
   0  12  13    0.13    0.12 
  -1 -12 -13   -0.73    0.61 
   1  12  13    0.22    0.12 
  -2 -12 -13    0.41    0.65 
  -3 -12 -13    0.14    0.60 
  -4 -12 -13    0.07    0.55 
  -4 -12 -13    0.13    0.13 
  -5 -12 -13    1.00    0.66 
  -5 -12 -13    0.44    0.15 
  -6 -12 -13    0.02    0.09 
  -6 -12 -13    0.06    0.54 
  -7 -12 -13    1.46    0.22 
  -7 -12 -13    1.06    0.59 
  -8 -12 -13    1.26    0.63 
  -9 -12 -13    0.05    0.57 
 -10 -12 -13    1.71    0.72 
 -11 -12 -13    0.24    0.52 
 -12 -12 -13    0.31    0.53 
 -13 -12 -13    1.04    0.52 
 -14 -12 -13    0.90    0.55 
  -1  13  13    0.78    0.18 
   0  13  13    0.89    0.20 
   1  13  13    0.88    0.21 
  -2 -13 -13    0.29    0.62 
   2  13  13    0.01    0.11 
  -3 -13 -13    0.14    0.58 
  -3 -13 -13    0.45    0.17 
  -4 -13 -13    1.47    0.26 
  -4 -13 -13    0.87    0.72 
  -5 -13 -13    0.43    0.15 
  -5 -13 -13    0.12    0.52 
  -6 -13 -13    0.12    0.53 
  -6 -13 -13    0.26    0.12 
  -7 -13 -13    0.48    0.46 
  -7 -13 -13    1.15    0.23 
  -8 -13 -13    0.38    0.43 
  -9 -13 -13    0.50    0.53 
 -10 -13 -13    0.62    0.62 
 -11 -13 -13    0.64    0.64 
 -12 -13 -13    0.13    0.59 
 -13 -13 -13    0.69    0.52 
   1  14  13   -0.05    0.12 
  -2 -14 -13    0.09    0.13 
  -2 -14 -13    0.26    0.64 
  -3 -14 -13    0.23    0.64 
  -3 -14 -13    0.26    0.15 
  -4 -14 -13   -0.50    0.52 
  -4 -14 -13    0.09    0.14 
  -5 -14 -13    0.21    0.14 
  -5 -14 -13    0.12    0.59 
  -6 -14 -13    0.06    0.57 
  -6 -14 -13    0.29    0.14 
  -7 -14 -13    0.60    0.56 
  -7 -14 -13    1.53    0.22 
  -8 -14 -13    0.05    0.51 
  -9 -14 -13    0.11    0.48 
 -10 -14 -13    0.08    0.53 
 -11 -14 -13    0.14    0.49 
 -12 -14 -13    0.36    0.52 
  -3 -15 -13    0.19    0.15 
  -4 -15 -13    0.26    0.12 
  -4 -15 -13    0.67    0.60 
  -5 -15 -13    0.19    0.15 
  -5 -15 -13    0.45    0.61 
  -6 -15 -13    0.68    0.16 
  -6 -15 -13   -0.04    0.61 
  -7 -15 -13   -0.47    0.47 
  -7 -15 -13    0.04    0.10 
  -8 -15 -13    0.23    0.42 
  -9 -15 -13   -0.13    0.43 
 -10 -15 -13    0.53    0.46 
  -7 -12  14    0.11    0.19 
  -6 -12  14    0.03    0.16 
  -5 -12  14    0.35    0.14 
  -4 -12  14    0.10    0.11 
  -3 -12  14    0.18    0.11 
  -2 -12  14    0.02    0.08 
   1  12 -14    0.07    0.36 
  -1 -12  14   -0.05    0.09 
   0  12 -14   -0.24    0.36 
   0 -12  14    0.03    0.09 
  -1  12 -14    0.22    0.37 
   1 -12  14   -0.11    0.08 
  -8 -11  14   -0.12    0.24 
  -7 -11  14    0.40    0.25 
  -6 -11  14    0.50    0.23 
  -5 -11  14    0.42    0.20 
  -4 -11  14    0.07    0.14 
  -3 -11  14    0.33    0.13 
   2  11 -14    0.01    0.33 
  -2 -11  14    0.29    0.12 
   1  11 -14   -0.15    0.30 
  -1 -11  14    0.26    0.10 
   0  11 -14    0.01    0.31 
   0 -11  14    0.37    0.10 
  -1  11 -14    0.09    0.29 
   1 -11  14    0.25    0.11 
  -2  11 -14   -0.15    0.33 
   2 -11  14    0.07    0.09 
  -3  11 -14    0.22    0.40 
  -9 -10  14    0.71    0.14 
  -8 -10  14    0.13    0.26 
  -7 -10  14    0.46    0.32 
  -6 -10  14    0.31    0.28 
  -5 -10  14    0.37    0.23 
  -4 -10  14    0.40    0.20 
  -3 -10  14    0.12    0.14 
   2  10 -14   -0.16    0.26 
  -2 -10  14    0.51    0.15 
   1  10 -14   -0.06    0.31 
  -1 -10  14    0.24    0.10 
   0  10 -14    0.56    0.36 
   0 -10  14    0.46    0.13 
  -1  10 -14    0.14    0.28 
   1 -10  14    0.35    0.11 
  -2  10 -14   -0.18    0.30 
   2 -10  14   -0.04    0.08 
  -3  10 -14   -0.08    0.32 
  -4  10 -14    0.64    0.42 
  -5  10 -14    0.34    0.41 
 -10  -9  14    0.41    0.19 
  -9  -9  14    0.78    0.18 
  -8  -9  14    0.86    0.21 
  -7  -9  14    0.37    0.19 
  -6  -9  14    0.23    0.09 
  -5  -9  14    0.06    0.24 
  -4  -9  14    0.22    0.25 
  -3  -9  14    0.07    0.20 
   2   9 -14   -0.23    0.27 
  -2  -9  14    0.02    0.14 
   1   9 -14    0.74    0.39 
  -1  -9  14    0.49    0.19 
   0   9 -14    0.07    0.29 
   0  -9  14    0.52    0.15 
  -1   9 -14   -0.09    0.26 
   1  -9  14    0.32    0.10 
  -2   9 -14    0.68    0.37 
   2  -9  14    0.90    0.17 
  -3   9 -14    0.91    0.43 
   3  -9  14    0.90    0.16 
  -4   9 -14    0.10    0.32 
  -5   9 -14    0.00    0.38 
  -6   9 -14    0.14    0.39 
 -10  -8  14    0.98    0.25 
  -9  -8  14    0.11    0.15 
  -8  -8  14    0.09    0.17 
  -7  -8  14    0.49    0.18 
  -6  -8  14    0.92    0.16 
  -5  -8  14    0.24    0.09 
  -4  -8  14    0.21    0.09 
  -3  -8  14    2.05    0.32 
   2   8 -14    1.20    0.39 
  -2  -8  14    0.55    0.25 
   1   8 -14    1.58    0.44 
  -1  -8  14    1.80    0.29 
   0   8 -14    0.81    0.36 
   0  -8  14    1.51    0.24 
  -1   8 -14    0.05    0.27 
   1  -8  14    0.93    0.18 
  -2   8 -14    0.41    0.32 
   2  -8  14    0.28    0.10 
  -3   8 -14   -0.03    0.29 
   3  -8  14   -0.07    0.07 
  -4   8 -14    0.19    0.34 
  -5   8 -14    0.06    0.32 
  -6   8 -14   -0.02    0.32 
  -7   8 -14    0.18    0.44 
 -11  -7  14    0.58    0.18 
 -10  -7  14    0.04    0.14 
  -9  -7  14    0.36    0.19 
  -8  -7  14    0.51    0.22 
  -7  -7  14    0.40    0.21 
  -6  -7  14    0.19    0.12 
  -5  -7  14    0.11    0.10 
  -4  -7  14    0.77    0.16 
  -3  -7  14    0.26    0.12 
   2   7 -14    0.04    0.24 
  -2  -7  14   -0.05    0.09 
   1   7 -14    0.44    0.30 
  -1  -7  14    0.15    0.21 
   0   7 -14   -0.06    0.27 
   0  -7  14    0.10    0.19 
  -1   7 -14    0.53    0.30 
   1  -7  14    0.88    0.22 
  -2   7 -14    1.27    0.38 
   2  -7  14    1.83    0.24 
  -3   7 -14    0.08    0.24 
   3  -7  14    0.35    0.10 
  -4   7 -14    0.19    0.30 
  -5   7 -14    0.17    0.28 
  -6   7 -14    0.35    0.38 
  -7   7 -14    0.10    0.37 
  -8   7 -14   -0.05    0.37 
 -11  -6  14    2.20    0.37 
 -10  -6  14    0.18    0.17 
  -9  -6  14    0.29    0.21 
  -8  -6  14    0.09    0.18 
  -7  -6  14    0.06    0.20 
  -6  -6  14    1.58    0.26 
  -5  -6  14    0.12    0.13 
  -4  -6  14    0.68    0.20 
  -3  -6  14    0.32    0.13 
  -2  -6  14    0.10    0.10 
   1   6 -14    0.42    0.27 
  -1  -6  14    0.85    0.18 
   0   6 -14    6.49    0.74 
   0  -6  14    7.06    0.40 
  -1   6 -14   -0.22    0.21 
   1  -6  14    0.05    0.18 
  -2   6 -14    1.75    0.42 
   2  -6  14    1.98    0.27 
  -3   6 -14   -0.10    0.19 
   3  -6  14    0.24    0.10 
  -4   6 -14   -0.11    0.22 
  -5   6 -14    0.29    0.32 
  -6   6 -14    1.13    0.46 
  -7   6 -14    0.54    0.36 
  -8   6 -14   -0.12    0.35 
  -9   6 -14    0.79    0.51 
 -11  -5  14    1.34    0.50 
 -11  -5  14    0.21    0.19 
 -10  -5  14    0.15    0.17 
  -9  -5  14    0.45    0.21 
  -8  -5  14   -0.07    0.16 
  -7  -5  14    0.09    0.18 
  -6  -5  14    1.68    0.27 
  -5  -5  14    0.27    0.18 
  -4  -5  14   -0.08    0.12 
  -3  -5  14    3.77    0.37 
  -2  -5  14   -0.12    0.10 
   1   5 -14    0.96    0.33 
  -1  -5  14    0.74    0.18 
   0   5 -14    4.26    0.60 
   0  -5  14    4.35    0.31 
  -1   5 -14    0.38    0.27 
   1  -5  14    0.38    0.12 
  -2   5 -14    0.94    0.32 
   2  -5  14    1.04    0.23 
  -3   5 -14    2.59    0.49 
   3  -5  14    3.38    0.32 
  -4   5 -14    0.20    0.30 
   4  -5  14    0.33    0.11 
  -5   5 -14    1.91    0.46 
  -6   5 -14    0.69    0.38 
  -7   5 -14   -0.17    0.26 
  -8   5 -14    0.71    0.40 
  -9   5 -14    0.17    0.31 
 -10   5 -14    0.29    0.31 
 -11  -4  14    0.11    0.15 
 -10  -4  14    0.32    0.20 
  -9  -4  14   -0.10    0.17 
  -8  -4  14    0.05    0.20 
  -7  -4  14    0.64    0.22 
  -6  -4  14    0.24    0.19 
  -5  -4  14    1.94    0.30 
  -4  -4  14    0.39    0.18 
  -3  -4  14    2.20    0.30 
  -2  -4  14    0.85    0.22 
   1   4 -14    0.95    0.33 
  -1  -4  14    0.89    0.20 
   0   4 -14    4.16    0.57 
   0  -4  14    4.66    0.37 
  -1   4 -14    0.14    0.23 
   1  -4  14    0.21    0.11 
  -2   4 -14    0.36    0.26 
   2  -4  14    0.22    0.08 
  -3   4 -14    4.44    0.61 
  -4   4 -14    1.79    0.42 
   4  -4  14    2.30    0.26 
  -5   4 -14    2.36    0.50 
  -6   4 -14    0.04    0.28 
  -7   4 -14   -0.15    0.27 
  -8   4 -14    0.05    0.27 
  -9   4 -14   -0.01    0.29 
 -10   4 -14   -0.27    0.26 
 -11   4 -14    1.64    0.52 
 -11  -3  14   -0.06    0.16 
 -10  -3  14    0.15    0.18 
  -9  -3  14    0.82    0.23 
  -8  -3  14    0.16    0.20 
  -7  -3  14    0.01    0.18 
  -6  -3  14    0.30    0.20 
  -5  -3  14    0.07    0.16 
  -4  -3  14    0.83    0.22 
  -3  -3  14    3.03    0.33 
  -2  -3  14    0.15    0.13 
   1   3 -14    3.29    0.53 
  -1  -3  14    3.25    0.32 
   0   3 -14   21.43    1.12 
   0  -3  14   19.80    0.76 
  -1   3 -14    1.11    0.32 
  -1   3 -14    1.40    0.34 
   1  -3  14    1.45    0.22 
  -2   3 -14    0.96    0.31 
   2  -3  14    0.80    0.16 
  -3   3 -14    1.31    0.35 
   3  -3  14    1.91    0.21 
  -4   3 -14    9.80    0.78 
  -5   3 -14    0.22    0.27 
  -6   3 -14    1.68    0.46 
  -7   3 -14    0.96    0.36 
  -8   3 -14    0.52    0.36 
  -9   3 -14   -0.10    0.32 
 -10   3 -14   -0.01    0.32 
 -11   3 -14    0.01    0.26 
 -11  -2  14    0.18    0.18 
 -10  -2  14    0.63    0.24 
  -9  -2  14    0.00    0.17 
  -8  -2  14    0.09    0.19 
  -7  -2  14    0.22    0.18 
  -6  -2  14    0.64    0.22 
  -5  -2  14   -0.01    0.13 
  -4  -2  14    1.41    0.24 
  -3  -2  14    0.94    0.22 
  -2  -2  14    2.15    0.28 
  -1  -2  14    0.12    0.15 
   0   2 -14    0.09    0.20 
   0  -2  14    0.05    0.14 
  -1   2 -14   -0.11    0.16 
  -1   2 -14    0.06    0.18 
   1  -2  14    0.69    0.17 
  -2   2 -14    8.46    0.73 
  -2   2 -14    7.55    0.62 
   2  -2  14    8.37    0.41 
  -3   2 -14    0.33    0.23 
  -3   2 -14    1.53    0.37 
   3  -2  14    1.32    0.18 
  -4   2 -14    0.08    0.19 
  -4   2 -14    0.15    0.18 
  -5   2 -14    0.41    0.27 
  -6   2 -14    0.42    0.30 
  -7   2 -14    2.36    0.51 
  -8   2 -14   -0.07    0.28 
  -9   2 -14    0.24    0.30 
 -10   2 -14    0.38    0.35 
 -11   2 -14    0.40    0.36 
 -12   2 -14   -0.03    0.27 
 -10  -1  14    0.22    0.19 
  -9  -1  14    0.00    0.14 
  -8  -1  14    0.16    0.20 
  -7  -1  14   -0.10    0.16 
  -6  -1  14    2.32    0.32 
  -5  -1  14    0.32    0.18 
  -4  -1  14    1.16    0.22 
  -3  -1  14    0.43    0.17 
  -2  -1  14   -0.21    0.12 
  -1  -1  14    0.63    0.18 
   0   1 -14    5.27    0.56 
   0   1 -14    4.63    0.73 
   0  -1  14    4.52    0.32 
  -1   1 -14    0.53    0.28 
  -1   1 -14    0.43    0.22 
   1  -1  14    0.66    0.16 
  -2   1 -14    2.91    0.43 
  -2   1 -14    2.54    0.51 
   2  -1  14    2.77    0.26 
  -3   1 -14    6.59    0.55 
  -3   1 -14    6.17    0.61 
   3  -1  14    4.84    0.30 
  -4   1 -14    9.95    0.74 
  -4   1 -14   10.81    0.84 
  -5   1 -14    1.45    0.40 
  -5   1 -14    1.06    0.34 
  -6   1 -14   -0.10    0.30 
  -6   1 -14    0.01    0.21 
  -7   1 -14   -0.02    0.23 
  -7   1 -14    0.14    0.30 
  -8   1 -14    0.56    0.34 
  -8   1 -14    0.20    0.34 
  -9   1 -14    0.17    0.33 
 -10   1 -14   -0.31    0.25 
 -11   1 -14    0.23    0.39 
 -12   1 -14    0.10    0.36 
 -13   1 -14    0.71    0.35 
 -10   0  14    0.68    0.23 
  -9   0  14    0.06    0.17 
  -8   0  14   -0.12    0.17 
  -7   0  14    0.11    0.18 
  -6   0  14    0.26    0.17 
  -5   0  14    2.81    0.31 
  -4   0  14    5.52    0.36 
  -3   0  14   -0.04    0.12 
  -2   0  14    3.96    0.33 
  -1   0  14    0.19    0.15 
   0   0 -14    2.40    0.39 
   0   0 -14    2.38    0.57 
   0   0  14    2.69    0.27 
  -1   0 -14    1.43    0.31 
  -1   0 -14    1.77    0.49 
   1   0  14    1.83    0.23 
  -2   0 -14    0.31    0.21 
  -2   0 -14    0.31    0.32 
   2   0  14    0.39    0.14 
  -3   0 -14   11.02    0.72 
  -3   0 -14   10.57    0.90 
   3   0  14   10.19    0.43 
  -4   0 -14    0.93    0.29 
  -4   0 -14    0.70    0.34 
  -5   0 -14    0.32    0.25 
  -5   0 -14    0.20    0.32 
   5   0  14    0.75    0.09 
  -6   0 -14    4.32    0.60 
  -6   0 -14    4.88    0.75 
  -7   0 -14    0.42    0.27 
  -7   0 -14    0.60    0.36 
  -8   0 -14   -0.12    0.27 
  -8   0 -14    0.05    0.25 
  -9   0 -14    1.22    0.44 
  -9   0 -14    2.15    0.58 
 -10   0 -14    0.91    0.43 
 -10   0 -14    1.19    0.50 
 -11   0 -14   -0.21    0.29 
 -12   0 -14    0.53    0.43 
 -13   0 -14    0.19    0.37 
 -10   1  14   -0.03    0.15 
  -9   1  14    0.21    0.17 
  -8   1  14    0.15    0.18 
  -7   1  14    0.10    0.19 
  -6   1  14    0.69    0.21 
  -5   1  14    0.05    0.15 
  -4   1  14    3.59    0.33 
  -3   1  14    0.46    0.16 
  -2   1  14    0.41    0.16 
  -1   1  14    3.96    0.31 
   0  -1 -14    0.67    0.37 
   0   1  14    0.68    0.17 
  -1  -1 -14    5.50    0.44 
  -1  -1 -14    4.80    0.76 
   1   1  14    4.98    0.30 
  -2  -1 -14    0.14    0.29 
  -2  -1 -14    0.14    0.14 
   2   1  14    0.06    0.12 
  -3  -1 -14    0.15    0.28 
  -3  -1 -14    0.06    0.18 
   3   1  14    0.13    0.10 
  -4  -1 -14    6.84    0.57 
  -4  -1 -14    8.02    0.79 
  -5  -1 -14    0.91    0.30 
  -5  -1 -14    1.59    0.47 
   5   1  14    1.78    0.13 
  -6  -1 -14    8.92    0.71 
  -6  -1 -14    9.11    0.90 
  -7  -1 -14    0.11    0.30 
  -7  -1 -14    0.32    0.26 
  -8  -1 -14    0.04    0.28 
  -8  -1 -14    0.06    0.24 
  -9  -1 -14    0.86    0.44 
  -9  -1 -14    0.94    0.39 
 -10  -1 -14    0.72    0.44 
 -10  -1 -14    0.58    0.36 
 -11  -1 -14   -0.19    0.31 
 -11  -1 -14    0.25    0.42 
 -12  -1 -14    0.32    0.32 
 -12  -1 -14    0.19    0.41 
 -13  -1 -14   -0.07    0.31 
  -9   2  14    0.09    0.18 
  -8   2  14    0.22    0.16 
  -7   2  14    0.79    0.22 
  -6   2  14    0.19    0.17 
  -5   2  14    0.24    0.17 
  -4   2  14    5.87    0.37 
  -3   2  14    1.17    0.22 
  -2   2  14   11.02    0.50 
  -1   2  14    0.00    0.11 
   0  -2 -14    3.19    0.67 
   0   2  14    3.59    0.29 
  -1  -2 -14    6.44    0.88 
   1   2  14    5.72    0.32 
  -2  -2 -14    0.16    0.31 
  -2  -2 -14    0.24    0.12 
   2   2  14    0.11    0.11 
  -3  -2 -14    2.64    0.59 
  -3  -2 -14    2.78    0.35 
   3   2  14    2.33    0.22 
  -4  -2 -14    0.80    0.37 
  -4  -2 -14    0.46    0.18 
   4   2  14    0.59    0.10 
  -5  -2 -14    6.33    0.84 
  -5  -2 -14    6.53    0.55 
   5   2  14    7.12    0.30 
  -6  -2 -14   10.91    0.98 
  -6  -2 -14   11.73    0.78 
  -7  -2 -14    3.49    0.53 
  -7  -2 -14    3.67    0.68 
  -8  -2 -14    6.00    0.70 
  -8  -2 -14    5.34    0.78 
  -9  -2 -14    2.98    0.55 
  -9  -2 -14    2.62    0.63 
 -10  -2 -14    1.17    0.48 
 -10  -2 -14    1.63    0.45 
 -11  -2 -14    0.97    0.40 
 -11  -2 -14    0.57    0.43 
 -12  -2 -14    0.32    0.43 
 -12  -2 -14    0.71    0.39 
 -13  -2 -14    0.70    0.47 
 -13  -2 -14    0.29    0.38 
 -14  -2 -14   -0.17    0.51 
 -14  -2 -14    0.02    0.29 
  -9   3  14    0.28    0.16 
  -8   3  14    0.30    0.20 
  -7   3  14    0.17    0.18 
  -6   3  14    0.33    0.17 
  -5   3  14    0.01    0.13 
  -4   3  14    0.12    0.14 
  -3   3  14   -0.12    0.09 
  -2   3  14    2.14    0.25 
  -1   3  14    1.97    0.23 
   0  -3 -14   32.21    1.92 
   0   3  14   34.04    1.03 
  -1  -3 -14    2.39    0.60 
   1   3  14    1.80    0.21 
  -2  -3 -14    2.04    0.29 
  -2  -3 -14    1.53    0.50 
   2   3  14    2.50    0.23 
  -3  -3 -14    0.77    0.38 
  -3  -3 -14    0.83    0.18 
   3   3  14    0.81    0.15 
  -4  -3 -14    0.19    0.32 
  -4  -3 -14    0.08    0.07 
   4   3  14    0.60    0.10 
  -5  -3 -14    2.43    0.34 
  -5  -3 -14    1.50    0.48 
   5   3  14    2.68    0.17 
  -6  -3 -14    6.47    0.56 
  -6  -3 -14    6.42    0.88 
  -7  -3 -14    7.80    0.93 
  -7  -3 -14    7.00    0.62 
  -8  -3 -14    1.42    0.46 
  -8  -3 -14    0.76    0.34 
  -9  -3 -14    0.18    0.29 
  -9  -3 -14    0.31    0.35 
 -10  -3 -14    0.00    0.34 
 -10  -3 -14    0.00    0.29 
 -11  -3 -14    0.61    0.35 
 -11  -3 -14    0.38    0.43 
 -12  -3 -14   -0.04    0.42 
 -12  -3 -14    0.03    0.30 
 -13  -3 -14    0.54    0.38 
 -13  -3 -14    0.70    0.48 
 -14  -3 -14    0.15    0.49 
 -14  -3 -14    0.22    0.36 
  -8   4  14    0.03    0.16 
  -7   4  14    0.48    0.19 
  -6   4  14    0.88    0.22 
  -5   4  14    0.23    0.15 
  -4   4  14    2.02    0.26 
  -3   4  14    6.16    0.36 
  -2   4  14    0.03    0.11 
  -1   4  14    2.85    0.27 
   0  -4 -14    0.58    0.42 
   0   4  14    0.63    0.15 
  -1  -4 -14    0.51    0.39 
   1   4  14    0.25    0.10 
  -2  -4 -14    1.95    0.57 
   2   4  14    2.31    0.22 
  -3  -4 -14    0.89    0.41 
  -3  -4 -14    0.91    0.15 
   3   4  14    0.63    0.13 
  -4  -4 -14    3.20    0.66 
  -4  -4 -14    4.21    0.31 
   4   4  14    2.63    0.19 
  -5  -4 -14    2.35    0.57 
  -5  -4 -14    2.04    0.29 
   5   4  14    2.19    0.14 
  -6  -4 -14    0.17    0.31 
  -6  -4 -14   -0.08    0.07 
  -7  -4 -14    2.16    0.55 
  -7  -4 -14    2.12    0.41 
  -8  -4 -14    0.55    0.39 
  -8  -4 -14    0.18    0.24 
  -9  -4 -14    2.25    0.47 
  -9  -4 -14    1.62    0.57 
 -10  -4 -14    0.08    0.26 
 -10  -4 -14    0.25    0.37 
 -11  -4 -14    0.36    0.44 
 -11  -4 -14    0.80    0.36 
 -12  -4 -14    1.02    0.44 
 -12  -4 -14    1.30    0.56 
 -13  -4 -14    0.71    0.43 
 -13  -4 -14   -0.17    0.39 
 -14  -4 -14    0.01    0.48 
 -14  -4 -14    0.00    0.31 
  -8   5  14    0.65    0.20 
  -7   5  14   -0.25    0.11 
  -6   5  14    0.66    0.21 
  -5   5  14    0.18    0.14 
  -4   5  14    0.41    0.13 
  -3   5  14    0.40    0.14 
  -2   5  14    0.22    0.12 
  -1   5  14    0.12    0.11 
   0  -5 -14   14.56    1.30 
   0   5  14   14.53    0.59 
  -1  -5 -14    0.68    0.42 
   1   5  14    1.37    0.21 
  -2  -5 -14   -0.01    0.31 
   2   5  14   -0.03    0.08 
  -3  -5 -14    0.07    0.26 
   3   5  14    0.22    0.09 
  -4  -5 -14    0.06    0.30 
   4   5  14    0.00    0.06 
  -5  -5 -14    1.62    0.52 
  -6  -5 -14    0.42    0.41 
   6   5  14    0.61    0.07 
  -7  -5 -14    2.09    0.29 
  -7  -5 -14    1.62    0.54 
  -8  -5 -14    0.28    0.34 
  -8  -5 -14    0.11    0.19 
  -9  -5 -14    0.49    0.27 
  -9  -5 -14    0.08    0.29 
 -10  -5 -14    0.61    0.31 
 -10  -5 -14    0.63    0.40 
 -11  -5 -14    0.79    0.37 
 -11  -5 -14    0.65    0.46 
 -12  -5 -14    1.09    0.55 
 -12  -5 -14    0.42    0.37 
 -13  -5 -14    0.16    0.45 
 -13  -5 -14    0.10    0.33 
 -14  -5 -14   -0.02    0.29 
 -14  -5 -14    0.07    0.53 
 -15  -5 -14    0.31    0.31 
  -7   6  14    0.23    0.15 
  -6   6  14    0.11    0.14 
  -5   6  14   -0.02    0.12 
  -4   6  14    0.09    0.16 
  -3   6  14    0.07    0.11 
  -2   6  14    0.41    0.14 
  -1   6  14    1.11    0.19 
   0  -6 -14   -0.03    0.35 
   0   6  14   -0.03    0.09 
  -1  -6 -14    4.29    0.87 
   1   6  14    4.35    0.29 
  -2  -6 -14    0.52    0.40 
   2   6  14    0.45    0.13 
  -3  -6 -14    6.16    0.97 
   3   6  14    6.75    0.34 
  -4  -6 -14    0.24    0.36 
   4   6  14    0.32    0.09 
  -5  -6 -14    8.30    1.04 
   5   6  14    9.35    0.39 
  -6  -6 -14   -0.01    0.30 
   6   6  14    0.07    0.05 
  -7  -6 -14    0.70    0.41 
  -8  -6 -14    2.51    0.63 
  -9  -6 -14    0.55    0.40 
 -10  -6 -14    0.10    0.23 
 -10  -6 -14   -0.27    0.36 
 -11  -6 -14    1.16    0.54 
 -11  -6 -14    1.08    0.37 
 -12  -6 -14    1.57    0.65 
 -12  -6 -14    1.30    0.44 
 -13  -6 -14    0.03    0.43 
 -13  -6 -14    0.05    0.31 
 -14  -6 -14    0.02    0.49 
 -14  -6 -14    0.18    0.30 
 -15  -6 -14    0.42    0.33 
  -7   7  14    0.09    0.16 
  -6   7  14   -0.04    0.13 
  -5   7  14   -0.28    0.14 
  -4   7  14    0.08    0.15 
  -3   7  14    0.93    0.19 
  -2   7  14    0.74    0.16 
  -1   7  14    0.27    0.12 
   0  -7 -14    9.90    1.37 
   0   7  14   11.18    0.53 
  -1  -7 -14   -0.11    0.39 
   1   7  14    0.23    0.12 
  -2  -7 -14    4.87    0.93 
   2   7  14    5.13    0.32 
  -3  -7 -14    4.90    0.91 
   3   7  14    4.32    0.28 
  -4  -7 -14    0.77    0.43 
   4   7  14    0.45    0.11 
  -5  -7 -14    0.21    0.32 
   5   7  14    0.11    0.07 
  -6  -7 -14    0.31    0.36 
  -7  -7 -14    2.29    0.65 
  -8  -7 -14    2.26    0.62 
  -9  -7 -14    0.09    0.37 
 -10  -7 -14    0.02    0.34 
 -11  -7 -14   -0.14    0.53 
 -12  -7 -14    2.14    0.68 
 -13  -7 -14    1.38    0.68 
 -14  -7 -14    0.26    0.54 
  -6   8  14    1.16    0.26 
  -5   8  14    0.58    0.20 
  -4   8  14    0.28    0.15 
  -3   8  14    0.87    0.18 
  -2   8  14    0.52    0.15 
  -1   8  14    0.59    0.15 
   0  -8 -14    0.41    0.49 
   0   8  14    0.45    0.13 
  -1  -8 -14   -0.08    0.41 
   1   8  14    0.21    0.10 
  -2  -8 -14    4.70    0.94 
   2   8  14    4.70    0.31 
  -3  -8 -14    1.39    0.62 
   3   8  14    1.21    0.19 
  -4  -8 -14   -0.10    0.33 
   4   8  14    0.32    0.10 
  -5  -8 -14    5.52    0.99 
   5   8  14    5.38    0.30 
  -6  -8 -14    0.43    0.42 
   6   8  14    0.17    0.08 
  -7  -8 -14   -0.28    0.36 
  -8  -8 -14    4.37    0.89 
  -9  -8 -14    0.40    0.46 
 -10  -8 -14   -0.31    0.34 
 -11  -8 -14    1.56    0.69 
 -12  -8 -14    0.11    0.56 
 -13  -8 -14    0.52    0.62 
 -14  -8 -14   -0.02    0.60 
  -5   9  14    0.12    0.16 
  -4   9  14    1.01    0.24 
  -3   9  14    1.10    0.21 
  -2   9  14    0.15    0.11 
  -1   9  14    0.48    0.12 
   0  -9 -14    2.97    0.90 
   0   9  14    3.32    0.35 
  -1  -9 -14    0.55    0.59 
   1   9  14    0.64    0.15 
  -2  -9 -14    5.50    1.11 
   2   9  14    5.84    0.37 
  -3  -9 -14    5.24    1.06 
   3   9  14    5.86    0.36 
  -4  -9 -14    1.04    0.63 
   4   9  14    1.26    0.18 
  -5  -9 -14    0.33    0.51 
   5   9  14    0.70    0.12 
  -6  -9 -14    1.21    0.59 
   6   9  14    2.12    0.22 
  -7  -9 -14    1.05    0.59 
  -8  -9 -14    0.00    0.46 
  -9  -9 -14   -0.12    0.44 
 -10  -9 -14   -0.23    0.38 
 -11  -9 -14   -0.25    0.43 
 -12  -9 -14    0.65    0.69 
 -13  -9 -14    2.04    0.91 
 -14  -9 -14   -0.09    0.63 
  -4  10  14   -0.33    0.10 
  -3  10  14    0.08    0.10 
  -2  10  14    0.17    0.11 
  -1  10  14    0.01    0.08 
   0  10  14    0.21    0.10 
  -1 -10 -14   -0.34    0.57 
   1  10  14    0.14    0.09 
  -2 -10 -14    0.83    0.65 
   2  10  14    0.70    0.16 
  -3 -10 -14    0.35    0.48 
   3  10  14    0.46    0.12 
  -4 -10 -14   -0.06    0.50 
   4  10  14    0.29    0.10 
  -5 -10 -14    2.02    0.74 
   5  10  14    2.53    0.27 
  -6 -10 -14    2.55    0.83 
   6  10  14    3.68    0.31 
  -7 -10 -14    1.84    0.70 
  -8 -10 -14   -0.08    0.48 
  -9 -10 -14    0.77    0.62 
 -10 -10 -14    0.30    0.52 
 -11 -10 -14   -0.06    0.55 
 -12 -10 -14    0.08    0.52 
 -13 -10 -14    0.34    0.77 
 -14 -10 -14   -0.12    0.81 
  -3  11  14    0.18    0.14 
  -2  11  14    0.14    0.12 
  -1  11  14    0.70    0.15 
   0  11  14    0.17    0.09 
  -1 -11 -14   -0.20    0.56 
   1  11  14    0.23    0.11 
  -2 -11 -14    0.18    0.64 
   2  11  14    0.51    0.15 
  -3 -11 -14    1.18    0.70 
   3  11  14    0.98    0.18 
  -4 -11 -14    0.00    0.55 
   4  11  14   -0.12    0.09 
  -5 -11 -14    0.68    0.61 
   5  11  14    1.13    0.19 
  -6 -11 -14    0.01    0.48 
   6  11  14    0.28    0.10 
  -7 -11 -14    0.34    0.56 
   7  11  14    0.42    0.10 
  -8 -11 -14   -0.25    0.50 
  -9 -11 -14    0.53    0.63 
 -10 -11 -14    0.18    0.50 
 -11 -11 -14   -0.09    0.52 
 -12 -11 -14    1.64    0.73 
 -13 -11 -14    0.26    0.50 
 -14 -11 -14    0.88    0.87 
  -1  12  14    0.89    0.19 
   0  12  14    1.16    0.23 
  -1 -12 -14   -0.07    0.59 
   1  12  14    0.26    0.12 
  -2 -12 -14    0.11    0.58 
   2  12  14    0.14    0.09 
  -3 -12 -14    0.45    0.63 
   3  12  14    0.44    0.15 
  -4 -12 -14    0.35    0.66 
   4  12  14    0.26    0.13 
  -5 -12 -14    0.51    0.66 
   5  12  14    0.52    0.14 
   6  12  14    3.85    0.36 
  -7 -12 -14    1.02    0.62 
   7  12  14    1.71    0.21 
  -8 -12 -14   -0.33    0.50 
  -9 -12 -14    1.04    0.59 
 -10 -12 -14    0.59    0.64 
 -11 -12 -14   -0.11    0.51 
 -12 -12 -14    0.19    0.51 
 -13 -12 -14    0.62    0.57 
   0  13  14    0.28    0.13 
   1  13  14    0.11    0.13 
  -2 -13 -14    0.46    0.58 
   2  13  14    0.13    0.13 
  -3 -13 -14    0.34    0.62 
   3  13  14    0.70    0.17 
  -4 -13 -14    0.21    0.58 
   4  13  14   -0.17    0.09 
  -5 -13 -14    0.06    0.62 
   5  13  14   -0.03    0.09 
  -6 -13 -14   -0.31    0.50 
   6  13  14   -0.13    0.10 
  -7 -13 -14   -0.14    0.52 
  -8 -13 -14    0.52    0.52 
  -9 -13 -14    0.42    0.56 
 -10 -13 -14    0.44    0.57 
 -11 -13 -14    0.01    0.51 
 -12 -13 -14    0.64    0.52 
   2  14  14    0.11    0.14 
  -3 -14 -14    0.56    0.58 
   3  14  14   -0.08    0.12 
  -4 -14 -14    0.29    0.69 
   4  14  14   -0.03    0.13 
  -5 -14 -14    1.34    0.72 
  -5 -14 -14    0.45    0.14 
  -6 -14 -14    1.33    0.22 
  -6 -14 -14    0.59    0.57 
  -7 -14 -14   -0.02    0.10 
  -7 -14 -14    0.73    0.60 
  -8 -14 -14    0.22    0.40 
  -9 -14 -14    0.16    0.42 
 -10 -14 -14    0.31    0.47 
 -11 -14 -14    0.32    0.55 
  -5 -15 -14    0.57    0.20 
  -6 -15 -14    0.63    0.23 
  -7 -15 -14    1.17    0.64 
  -7 -15 -14    0.70    0.15 
  -4 -12  15    0.18    0.14 
  -3 -12  15    0.20    0.12 
  -2 -12  15    0.42    0.12 
  -7 -11  15    0.79    0.31 
  -6 -11  15    0.65    0.26 
  -5 -11  15    0.35    0.19 
  -4 -11  15    0.62    0.21 
  -3 -11  15    0.50    0.16 
  -2 -11  15    0.20    0.10 
   1  11 -15   -0.13    0.32 
  -1 -11  15    0.09    0.10 
   0  11 -15   -0.04    0.36 
   0 -11  15    0.08    0.09 
  -1  11 -15    0.04    0.37 
   1 -11  15   -0.14    0.08 
  -8 -10  15    0.15    0.25 
  -7 -10  15    1.07    0.39 
  -6 -10  15   -0.01    0.25 
  -5 -10  15    0.59    0.29 
  -4 -10  15    0.44    0.21 
  -3 -10  15    0.46    0.18 
  -2 -10  15    0.34    0.12 
   1  10 -15    0.47    0.40 
  -1 -10  15    0.49    0.13 
   0  10 -15    0.79    0.47 
   0 -10  15    0.41    0.12 
  -1  10 -15    0.26    0.33 
   1 -10  15    0.32    0.09 
  -2  10 -15    0.12    0.32 
   2 -10  15   -0.03    0.06 
  -3  10 -15   -0.30    0.29 
  -9  -9  15    0.36    0.15 
  -8  -9  15    0.12    0.12 
  -7  -9  15    0.71    0.13 
  -6  -9  15    0.20    0.10 
  -5  -9  15    0.46    0.20 
  -4  -9  15    0.67    0.31 
  -3  -9  15    0.16    0.26 
  -2  -9  15    0.49    0.19 
   1   9 -15    0.59    0.36 
  -1  -9  15    0.66    0.18 
   0   9 -15    0.00    0.29 
   0  -9  15    0.36    0.17 
  -1   9 -15    0.14    0.32 
   1  -9  15    0.41    0.12 
  -2   9 -15    0.18    0.33 
   2  -9  15    0.34    0.11 
  -3   9 -15    0.06    0.30 
  -4   9 -15    0.06    0.33 
  -5   9 -15    0.19    0.40 
  -9  -8  15    0.28    0.17 
  -8  -8  15    0.33    0.16 
  -7  -8  15    0.86    0.19 
  -6  -8  15    0.44    0.12 
  -5  -8  15    1.35    0.21 
  -4  -8  15    1.85    0.26 
  -3  -8  15    0.60    0.14 
  -2  -8  15    0.57    0.27 
   1   8 -15    1.31    0.43 
  -1  -8  15    0.85    0.24 
   0   8 -15   -0.03    0.21 
   0  -8  15    0.54    0.19 
  -1   8 -15    0.32    0.32 
   1  -8  15    0.35    0.14 
  -2   8 -15    0.00    0.24 
   2  -8  15    0.12    0.09 
  -3   8 -15   -0.01    0.25 
   3  -8  15   -0.23    0.06 
  -4   8 -15    0.14    0.34 
  -5   8 -15    0.19    0.35 
  -6   8 -15    0.17    0.40 
 -10  -7  15    0.40    0.20 
  -9  -7  15    0.75    0.20 
  -8  -7  15    0.48    0.18 
  -7  -7  15    0.06    0.14 
  -6  -7  15    0.48    0.13 
  -5  -7  15    0.33    0.11 
  -4  -7  15    0.15    0.09 
  -3  -7  15    0.43    0.12 
  -2  -7  15    0.36    0.11 
   1   7 -15    0.56    0.31 
  -1  -7  15    0.04    0.24 
   0   7 -15   -0.03    0.23 
   0  -7  15    0.17    0.19 
  -1   7 -15   -0.04    0.25 
   1  -7  15    0.89    0.20 
  -2   7 -15    1.26    0.41 
   2  -7  15    1.47    0.22 
  -3   7 -15    0.12    0.26 
   3  -7  15    0.20    0.09 
  -4   7 -15    0.17    0.25 
  -5   7 -15    0.35    0.33 
  -6   7 -15   -0.07    0.32 
  -7   7 -15    0.19    0.40 
 -10  -6  15   -0.33    0.15 
  -9  -6  15    0.00    0.19 
  -8  -6  15    0.45    0.22 
  -7  -6  15    0.75    0.25 
  -6  -6  15    0.36    0.13 
  -5  -6  15    0.27    0.12 
  -4  -6  15    0.50    0.18 
  -3  -6  15    0.20    0.11 
  -2  -6  15    0.18    0.11 
   1   6 -15    1.69    0.43 
  -1  -6  15    2.30    0.27 
   0   6 -15    1.16    0.37 
   0  -6  15    1.13    0.19 
  -1   6 -15    0.12    0.21 
   1  -6  15    0.09    0.20 
  -2   6 -15    0.17    0.27 
   2  -6  15    0.58    0.19 
  -3   6 -15    0.64    0.33 
   3  -6  15    0.62    0.14 
  -4   6 -15    0.28    0.28 
  -5   6 -15    0.32    0.34 
  -6   6 -15   -0.21    0.25 
  -7   6 -15    0.66    0.40 
  -8   6 -15   -0.09    0.25 
 -10  -5  15    0.10    0.19 
  -9  -5  15    0.26    0.20 
  -8  -5  15    0.84    0.25 
  -7  -5  15    0.08    0.18 
  -6  -5  15    0.43    0.17 
  -5  -5  15    0.03    0.13 
  -4  -5  15    0.15    0.14 
  -3  -5  15    0.14    0.14 
  -2  -5  15    0.90    0.19 
   1   5 -15    5.12    0.67 
  -1  -5  15    4.77    0.34 
   0   5 -15    0.17    0.24 
   0  -5  15    0.29    0.11 
  -1   5 -15    4.21    0.60 
   1  -5  15    4.23    0.29 
  -2   5 -15    0.54    0.28 
   2  -5  15    0.45    0.22 
  -3   5 -15    0.13    0.25 
   3  -5  15    0.68    0.19 
  -4   5 -15    0.28    0.28 
  -5   5 -15    0.29    0.29 
  -6   5 -15    0.07    0.29 
  -7   5 -15    0.28    0.33 
  -8   5 -15    0.13    0.35 
  -9   5 -15   -0.06    0.25 
 -10  -4  15    0.02    0.22 
  -9  -4  15    0.44    0.20 
  -8  -4  15    0.33    0.21 
  -7  -4  15    1.34    0.29 
  -6  -4  15    0.39    0.20 
  -5  -4  15    1.00    0.21 
  -4  -4  15    1.46    0.25 
  -3  -4  15    0.21    0.14 
  -2  -4  15    0.32    0.16 
   1   4 -15    1.61    0.44 
  -1  -4  15    2.10    0.28 
   0   4 -15    1.49    0.39 
   0  -4  15    2.37    0.29 
  -1   4 -15    0.63    0.30 
   1  -4  15    0.98    0.19 
  -2   4 -15    0.72    0.34 
   2  -4  15    0.22    0.08 
  -3   4 -15    0.65    0.29 
   3  -4  15    0.75    0.21 
  -4   4 -15    0.36    0.30 
  -5   4 -15    0.26    0.28 
  -6   4 -15    1.25    0.42 
  -7   4 -15    0.45    0.34 
  -8   4 -15    0.41    0.33 
  -9   4 -15    0.59    0.39 
 -10   4 -15    0.08    0.25 
 -10  -3  15    0.02    0.18 
  -9  -3  15    0.46    0.23 
  -8  -3  15    1.15    0.27 
  -7  -3  15    0.50    0.22 
  -6  -3  15    0.08    0.17 
  -5  -3  15    1.59    0.26 
  -4  -3  15    0.04    0.14 
  -3  -3  15    1.43    0.25 
  -2  -3  15    0.01    0.12 
  -1  -3  15    0.82    0.20 
   0   3 -15   -0.10    0.21 
   0  -3  15    0.07    0.13 
  -1   3 -15    9.24    0.73 
   1  -3  15    9.09    0.45 
  -2   3 -15   -0.06    0.22 
   2  -3  15    0.23    0.10 
  -3   3 -15    2.66    0.51 
   3  -3  15    3.10    0.22 
  -4   3 -15    7.42    0.78 
  -5   3 -15    0.14    0.27 
  -6   3 -15    0.15    0.29 
  -7   3 -15    0.00    0.27 
  -8   3 -15   -0.04    0.30 
  -9   3 -15    0.29    0.34 
 -10   3 -15    0.12    0.42 
 -11   3 -15    0.58    0.41 
 -10  -2  15   -0.02    0.17 
  -9  -2  15    0.02    0.18 
  -8  -2  15    0.74    0.23 
  -7  -2  15    0.23    0.18 
  -6  -2  15    0.16    0.18 
  -5  -2  15    1.40    0.25 
  -4  -2  15    1.69    0.28 
  -3  -2  15    0.04    0.13 
  -2  -2  15   -0.05    0.12 
  -1  -2  15    0.11    0.14 
   0   2 -15    0.07    0.22 
   0  -2  15    0.22    0.14 
  -1   2 -15    0.87    0.33 
  -1   2 -15    0.62    0.28 
   1  -2  15    0.80    0.18 
  -2   2 -15    1.11    0.30 
  -2   2 -15    0.57    0.27 
   2  -2  15    0.47    0.15 
  -3   2 -15    8.02    0.68 
  -3   2 -15   10.50    0.81 
   3  -2  15    9.21    0.42 
  -4   2 -15    6.73    0.71 
  -5   2 -15    5.08    0.67 
  -6   2 -15    1.03    0.37 
  -7   2 -15    2.01    0.49 
  -8   2 -15   -0.05    0.26 
  -9   2 -15   -0.07    0.32 
 -10   2 -15    0.07    0.34 
 -11   2 -15    0.16    0.35 
 -10  -1  15    0.04    0.16 
  -9  -1  15    0.23    0.19 
  -8  -1  15   -0.28    0.15 
  -7  -1  15    0.15    0.17 
  -6  -1  15    0.16    0.17 
  -5  -1  15    1.05    0.22 
  -4  -1  15    0.36    0.18 
  -3  -1  15    0.17    0.14 
  -2  -1  15   -0.06    0.12 
  -1  -1  15    4.35    0.35 
   0   1 -15    0.13    0.20 
   0  -1  15   -0.08    0.11 
  -1   1 -15    8.35    0.65 
  -1   1 -15    8.14    0.92 
   1  -1  15    7.51    0.41 
  -2   1 -15    0.14    0.33 
  -2   1 -15   -0.01    0.19 
   2  -1  15    0.07    0.11 
  -3   1 -15    0.27    0.22 
  -3   1 -15    0.41    0.35 
   3  -1  15    0.48    0.14 
  -4   1 -15    3.38    0.53 
  -4   1 -15    3.64    0.66 
  -5   1 -15    1.24    0.46 
  -5   1 -15    0.57    0.28 
  -6   1 -15    1.27    0.49 
  -6   1 -15    0.52    0.32 
  -7   1 -15    2.62    0.53 
  -8   1 -15    0.25    0.30 
  -9   1 -15   -0.03    0.29 
 -10   1 -15   -0.14    0.28 
 -11   1 -15    0.17    0.31 
 -12   1 -15    0.28    0.33 
 -10   0  15   -0.24    0.13 
  -9   0  15    0.31    0.20 
  -8   0  15    0.19    0.17 
  -7   0  15    0.52    0.21 
  -6   0  15    0.03    0.17 
  -5   0  15    3.42    0.36 
  -4   0  15    1.31    0.23 
  -3   0  15    0.20    0.14 
  -2   0  15    1.89    0.26 
  -1   0  15   -0.05    0.13 
   0   0 -15   -0.01    0.30 
   0   0  15    0.12    0.13 
  -1   0 -15    0.73    0.38 
  -1   0 -15    0.47    0.24 
   1   0  15    0.47    0.15 
  -2   0 -15    1.83    0.51 
  -2   0 -15    1.85    0.35 
   2   0  15    1.38    0.21 
  -3   0 -15    0.57    0.23 
  -3   0 -15    0.31    0.35 
   3   0  15    0.66    0.15 
  -4   0 -15    1.58    0.52 
  -4   0 -15    1.96    0.41 
  -5   0 -15    4.15    0.56 
  -5   0 -15    4.07    0.68 
  -6   0 -15   -0.10    0.33 
  -6   0 -15    0.08    0.23 
  -7   0 -15    2.31    0.59 
  -7   0 -15    2.22    0.49 
  -8   0 -15    1.22    0.47 
  -8   0 -15    0.99    0.39 
  -9   0 -15    0.23    0.32 
  -9   0 -15    0.68    0.41 
 -10   0 -15    0.19    0.30 
 -11   0 -15   -0.05    0.31 
 -12   0 -15    0.35    0.40 
 -13   0 -15    0.09    0.30 
  -9   1  15    0.14    0.22 
  -8   1  15   -0.21    0.13 
  -7   1  15   -0.01    0.20 
  -6   1  15    0.75    0.23 
  -5   1  15    1.18    0.22 
  -4   1  15    0.08    0.14 
  -3   1  15    2.56    0.29 
  -2   1  15    1.35    0.22 
  -1   1  15    4.52    0.32 
   0  -1 -15    2.34    0.60 
   0   1  15    2.70    0.27 
  -1  -1 -15    0.58    0.23 
  -1  -1 -15    0.44    0.39 
   1   1  15    0.78    0.16 
  -2  -1 -15    1.36    0.31 
  -2  -1 -15    1.76    0.51 
   2   1  15    1.53    0.21 
  -3  -1 -15    0.11    0.18 
  -3  -1 -15    1.13    0.46 
   3   1  15    0.61    0.15 
  -4  -1 -15    0.30    0.22 
  -4  -1 -15    0.35    0.36 
   4   1  15    0.27    0.11 
  -5  -1 -15    0.16    0.30 
  -5  -1 -15    0.17    0.21 
  -6  -1 -15    0.02    0.35 
  -6  -1 -15   -0.11    0.21 
  -7  -1 -15    1.28    0.38 
  -7  -1 -15    1.08    0.46 
  -8  -1 -15    2.52    0.52 
  -8  -1 -15    2.77    0.64 
  -9  -1 -15    1.12    0.50 
  -9  -1 -15    1.35    0.45 
 -10  -1 -15    1.43    0.57 
 -10  -1 -15    1.25    0.47 
 -11  -1 -15   -0.07    0.32 
 -11  -1 -15    0.23    0.43 
 -12  -1 -15    0.97    0.45 
 -13  -1 -15   -0.01    0.27 
  -9   2  15    0.02    0.17 
  -8   2  15   -0.04    0.16 
  -7   2  15    0.69    0.23 
  -6   2  15    0.83    0.23 
  -5   2  15    0.89    0.19 
  -4   2  15    0.41    0.15 
  -3   2  15    2.27    0.28 
  -2   2  15    4.01    0.34 
  -1   2  15    0.50    0.17 
   0  -2 -15    0.15    0.34 
   0   2  15    0.04    0.10 
  -1  -2 -15    0.15    0.38 
   1   2  15    0.21    0.12 
  -2  -2 -15    6.67    0.51 
  -2  -2 -15    6.91    0.93 
   2   2  15    6.61    0.35 
  -3  -2 -15    6.08    0.86 
  -3  -2 -15    6.15    0.50 
   3   2  15    5.79    0.32 
  -4  -2 -15    1.61    0.34 
  -4  -2 -15    1.13    0.46 
   4   2  15    1.72    0.20 
  -5  -2 -15   14.19    0.85 
  -5  -2 -15   13.42    1.11 
   5   2  15   13.82    0.49 
  -6  -2 -15    0.16    0.32 
  -6  -2 -15   -0.06    0.21 
  -7  -2 -15    2.52    0.63 
  -7  -2 -15    3.08    0.50 
  -8  -2 -15    3.12    0.66 
  -8  -2 -15    2.28    0.49 
  -9  -2 -15    0.23    0.30 
  -9  -2 -15   -0.05    0.33 
 -10  -2 -15    0.65    0.34 
 -10  -2 -15    0.79    0.49 
 -11  -2 -15    0.00    0.30 
 -11  -2 -15    0.03    0.41 
 -12  -2 -15    0.24    0.46 
 -12  -2 -15   -0.07    0.30 
 -13  -2 -15    0.42    0.49 
 -13  -2 -15    0.03    0.35 
  -8   3  15    0.14    0.19 
  -7   3  15   -0.29    0.14 
  -6   3  15    0.93    0.22 
  -5   3  15    0.10    0.18 
  -4   3  15    0.98    0.20 
  -3   3  15    0.12    0.12 
  -2   3  15    2.65    0.28 
  -1   3  15   18.96    0.70 
   0  -3 -15    0.60    0.44 
   0   3  15    0.36    0.14 
  -1  -3 -15    3.63    0.75 
   1   3  15    2.95    0.27 
  -2  -3 -15    0.73    0.44 
  -2  -3 -15    0.61    0.15 
   2   3  15    0.48    0.14 
  -3  -3 -15    2.39    0.30 
  -3  -3 -15    2.24    0.59 
   3   3  15    2.20    0.22 
  -4  -3 -15    0.13    0.08 
  -4  -3 -15    0.36    0.33 
   4   3  15    0.47    0.13 
  -5  -3 -15    1.91    0.37 
  -5  -3 -15    1.72    0.51 
   5   3  15    2.05    0.18 
  -6  -3 -15   -0.21    0.17 
  -6  -3 -15   -0.01    0.31 
  -7  -3 -15    2.56    0.46 
  -7  -3 -15    2.34    0.60 
  -8  -3 -15    1.30    0.38 
  -8  -3 -15    1.58    0.52 
  -9  -3 -15   -0.07    0.32 
  -9  -3 -15    0.10    0.28 
 -10  -3 -15    1.00    0.50 
 -10  -3 -15    1.74    0.46 
 -11  -3 -15    0.16    0.40 
 -11  -3 -15    0.43    0.35 
 -12  -3 -15    0.12    0.31 
 -12  -3 -15   -0.20    0.36 
 -13  -3 -15    1.11    0.57 
 -13  -3 -15    0.47    0.37 
 -14  -3 -15    0.49    0.33 
  -8   4  15    0.43    0.21 
  -7   4  15    0.89    0.24 
  -6   4  15    0.37    0.21 
  -5   4  15   -0.01    0.15 
  -4   4  15   -0.01    0.10 
  -3   4  15    0.44    0.15 
  -2   4  15    1.19    0.20 
  -1   4  15    4.84    0.32 
   0  -4 -15   -0.09    0.32 
   0   4  15    0.12    0.11 
  -1  -4 -15    1.70    0.57 
   1   4  15    1.16    0.19 
  -2  -4 -15    2.55    0.67 
   2   4  15    2.60    0.24 
  -3  -4 -15    1.53    0.53 
   3   4  15    1.71    0.20 
  -4  -4 -15    0.18    0.33 
   4   4  15    0.54    0.12 
  -5  -4 -15    2.69    0.63 
  -5  -4 -15    3.17    0.35 
  -6  -4 -15    0.46    0.38 
  -6  -4 -15    0.08    0.13 
  -7  -4 -15    0.07    0.22 
  -7  -4 -15    0.09    0.36 
  -8  -4 -15    2.39    0.44 
  -8  -4 -15    2.36    0.63 
  -9  -4 -15    2.69    0.65 
  -9  -4 -15    2.72    0.51 
 -10  -4 -15    3.45    0.75 
 -10  -4 -15    4.37    0.67 
 -11  -4 -15    0.15    0.36 
 -11  -4 -15   -0.03    0.27 
 -12  -4 -15    0.59    0.49 
 -12  -4 -15    0.87    0.41 
 -13  -4 -15    0.21    0.33 
 -13  -4 -15    0.09    0.50 
 -14  -4 -15   -0.10    0.30 
 -14  -4 -15    0.39    0.53 
  -7   5  15    0.16    0.15 
  -6   5  15    0.09    0.15 
  -5   5  15    0.84    0.22 
  -4   5  15    0.31    0.12 
  -3   5  15    0.37    0.14 
  -2   5  15   -0.06    0.09 
  -1   5  15    1.24    0.21 
   0  -5 -15    0.80    0.49 
   0   5  15    0.97    0.17 
  -1  -5 -15    2.11    0.66 
   1   5  15    2.21    0.25 
  -2  -5 -15    0.26    0.29 
   2   5  15    0.26    0.09 
  -3  -5 -15   -0.13    0.33 
   3   5  15    0.02    0.07 
  -4  -5 -15    0.78    0.44 
   4   5  15    0.90    0.14 
  -5  -5 -15    0.62    0.42 
   5   5  15    0.40    0.09 
  -6  -5 -15    1.04    0.48 
  -7  -5 -15    2.35    0.63 
  -8  -5 -15    0.74    0.44 
  -9  -5 -15    0.07    0.26 
  -9  -5 -15   -0.08    0.33 
 -10  -5 -15    1.73    0.43 
 -10  -5 -15    1.29    0.51 
 -11  -5 -15    1.34    0.44 
 -11  -5 -15    1.91    0.66 
 -12  -5 -15    0.38    0.35 
 -12  -5 -15    0.01    0.44 
 -13  -5 -15    0.52    0.51 
 -13  -5 -15    0.21    0.32 
 -14  -5 -15   -0.07    0.51 
 -14  -5 -15    0.15    0.30 
  -7   6  15    0.38    0.19 
  -6   6  15   -0.25    0.12 
  -5   6  15    0.08    0.14 
  -4   6  15    0.39    0.14 
  -3   6  15    0.00    0.09 
  -2   6  15    0.94    0.18 
  -1   6  15    0.23    0.11 
   0  -6 -15    0.59    0.49 
   0   6  15    0.56    0.14 
  -1  -6 -15    2.74    0.75 
   1   6  15    3.00    0.28 
  -2  -6 -15    0.33    0.43 
   2   6  15    0.07    0.09 
  -3  -6 -15    0.26    0.39 
   3   6  15    0.25    0.09 
  -4  -6 -15    4.55    0.86 
   4   6  15    6.24    0.32 
  -5  -6 -15    0.65    0.48 
   5   6  15    0.91    0.13 
  -6  -6 -15    1.25    0.52 
  -7  -6 -15    1.38    0.58 
  -8  -6 -15    0.32    0.41 
  -9  -6 -15    0.13    0.45 
 -10  -6 -15    0.57    0.44 
 -11  -6 -15    0.63    0.54 
 -12  -6 -15    0.54    0.52 
 -13  -6 -15   -0.14    0.49 
 -14  -6 -15    0.55    0.60 
  -6   7  15   -0.34    0.12 
  -5   7  15    0.49    0.20 
  -4   7  15    0.18    0.11 
  -3   7  15    0.42    0.13 
  -2   7  15    0.59    0.14 
  -1   7  15    0.73    0.18 
   0  -7 -15   -0.13    0.42 
   0   7  15    0.15    0.11 
  -1  -7 -15    0.57    0.45 
   1   7  15    0.26    0.11 
  -2  -7 -15   -0.21    0.34 
   2   7  15    0.07    0.11 
  -3  -7 -15    0.25    0.44 
   3   7  15    0.07    0.08 
  -4  -7 -15    1.00    0.49 
   4   7  15    1.25    0.17 
  -5  -7 -15    0.37    0.42 
   5   7  15    0.44    0.10 
  -6  -7 -15    0.33    0.39 
   6   7  15    0.22    0.05 
  -7  -7 -15    0.88    0.49 
  -8  -7 -15    0.41    0.42 
  -9  -7 -15    0.17    0.44 
 -10  -7 -15    1.65    0.62 
 -11  -7 -15    1.80    0.65 
 -12  -7 -15    0.36    0.56 
 -13  -7 -15    0.30    0.59 
 -14  -7 -15    1.50    0.71 
  -5   8  15    0.05    0.15 
  -4   8  15    0.35    0.16 
  -3   8  15    0.50    0.15 
  -2   8  15    0.62    0.16 
  -1   8  15    0.03    0.09 
   0  -8 -15    1.97    0.79 
   0   8  15    1.92    0.26 
  -1  -8 -15    1.43    0.65 
   1   8  15    1.44    0.22 
  -2  -8 -15    0.00    0.43 
   2   8  15    0.44    0.14 
  -3  -8 -15   -0.27    0.39 
   3   8  15    0.11    0.09 
  -4  -8 -15    3.44    0.83 
   4   8  15    3.63    0.31 
  -5  -8 -15    0.73    0.55 
   5   8  15    0.72    0.13 
  -6  -8 -15    0.28    0.46 
   6   8  15    0.11    0.06 
  -7  -8 -15    0.41    0.45 
  -8  -8 -15    0.44    0.52 
  -9  -8 -15    0.18    0.48 
 -10  -8 -15    0.44    0.51 
 -11  -8 -15    0.15    0.43 
 -12  -8 -15    0.03    0.44 
 -13  -8 -15    0.07    0.62 
 -14  -8 -15    0.24    0.66 
  -4   9  15    0.76    0.21 
  -3   9  15    0.09    0.11 
  -2   9  15    0.67    0.18 
  -1   9  15    0.56    0.16 
   0   9  15    0.58    0.14 
  -1  -9 -15    0.20    0.50 
   1   9  15    0.26    0.08 
  -2  -9 -15    0.19    0.53 
   2   9  15    0.24    0.10 
  -3  -9 -15    3.08    0.87 
   3   9  15    3.05    0.30 
  -4  -9 -15   -0.30    0.36 
   4   9  15    0.47    0.11 
  -5  -9 -15    0.44    0.47 
   5   9  15    0.24    0.09 
  -6  -9 -15    0.23    0.49 
   6   9  15    0.11    0.06 
  -7  -9 -15    2.12    0.75 
  -8  -9 -15    1.39    0.63 
  -9  -9 -15   -0.10    0.43 
 -10  -9 -15    0.03    0.46 
 -11  -9 -15    0.21    0.51 
 -12  -9 -15    0.08    0.44 
 -13  -9 -15    0.14    0.67 
 -14  -9 -15   -0.19    0.74 
  -3  10  15   -0.04    0.12 
  -2  10  15    0.91    0.19 
  -1  10  15    1.08    0.20 
   0  10  15    0.24    0.12 
  -1 -10 -15    0.37    0.65 
   1  10  15    0.49    0.14 
  -2 -10 -15    0.13    0.57 
   2  10  15    0.98    0.17 
  -3 -10 -15    0.53    0.54 
   3  10  15    0.57    0.15 
  -4 -10 -15    3.13    0.94 
   4  10  15    2.59    0.28 
  -5 -10 -15    1.07    0.60 
   5  10  15    1.82    0.23 
  -6 -10 -15    0.02    0.56 
   6  10  15    0.73    0.12 
  -7 -10 -15    3.04    0.89 
  -8 -10 -15   -0.13    0.44 
  -9 -10 -15    0.28    0.53 
 -10 -10 -15    0.75    0.63 
 -11 -10 -15    0.58    0.66 
 -12 -10 -15    0.70    0.67 
 -13 -10 -15   -0.22    0.45 
  -2  11  15    0.37    0.15 
  -1  11  15    0.15    0.11 
   0  11  15    0.26    0.12 
  -1 -11 -15   -0.51    0.52 
   1  11  15    0.16    0.12 
  -2 -11 -15    0.48    0.67 
   2  11  15    0.82    0.14 
  -3 -11 -15   -0.51    0.61 
   3  11  15    0.47    0.12 
  -4 -11 -15   -0.18    0.47 
   4  11  15    0.45    0.13 
  -5 -11 -15    0.56    0.67 
   5  11  15    0.50    0.12 
  -6 -11 -15    0.42    0.60 
   6  11  15    0.39    0.11 
  -7 -11 -15    0.50    0.61 
  -8 -11 -15    2.67    0.81 
  -9 -11 -15    1.06    0.66 
 -10 -11 -15    0.38    0.56 
 -11 -11 -15    1.41    0.75 
 -12 -11 -15    0.54    0.64 
 -13 -11 -15    0.27    0.73 
   0  12  15    0.33    0.13 
   1  12  15    0.74    0.14 
  -2 -12 -15    0.81    0.71 
  -3 -12 -15    0.67    0.61 
   3  12  15    0.19    0.09 
  -4 -12 -15    0.64    0.71 
   4  12  15    0.89    0.18 
  -5 -12 -15    0.73    0.69 
   5  12  15    1.08    0.19 
  -6 -12 -15   -0.21    0.47 
   6  12  15    0.38    0.11 
  -7 -12 -15    0.22    0.51 
  -8 -12 -15    0.53    0.62 
  -9 -12 -15    0.35    0.59 
 -10 -12 -15    0.44    0.70 
 -11 -12 -15   -0.27    0.58 
 -12 -12 -15   -0.04    0.55 
   1  13  15    0.08    0.11 
  -2 -13 -15   -0.21    0.56 
   2  13  15    0.82    0.16 
  -3 -13 -15    0.42    0.73 
   3  13  15    0.10    0.12 
  -4 -13 -15    0.53    0.73 
   4  13  15    0.12    0.12 
  -5 -13 -15   -0.19    0.50 
   5  13  15    0.21    0.10 
  -6 -13 -15   -0.32    0.56 
   6  13  15   -0.07    0.09 
  -7 -13 -15    1.07    0.62 
  -8 -13 -15    1.42    0.67 
  -9 -13 -15   -0.30    0.46 
 -10 -13 -15   -0.19    0.36 
 -11 -13 -15    0.65    0.72 
   4  14  15    0.41    0.14 
  -5 -14 -15    0.67    0.61 
   5  14  15    1.18    0.21 
  -6 -14 -15   -0.01    0.54 
   6  14  15    0.10    0.11 
  -7 -14 -15    0.18    0.50 
  -8 -14 -15    0.24    0.49 
  -9 -14 -15    0.06    0.46 
  -4 -11  16    0.26    0.16 
  -3 -11  16    0.39    0.15 
  -2 -11  16    0.33    0.13 
   1  11 -16    0.18    0.38 
  -1 -11  16   -0.03    0.08 
  -6 -10  16    0.38    0.32 
  -5 -10  16    0.75    0.28 
  -4 -10  16    0.61    0.25 
  -3 -10  16    1.13    0.26 
  -2 -10  16    0.53    0.18 
   1  10 -16   -0.02    0.30 
  -1 -10  16    0.00    0.09 
   0  10 -16    0.45    0.42 
   0 -10  16    0.69    0.15 
  -1  10 -16   -0.14    0.32 
   1 -10  16    0.16    0.08 
  -2  10 -16    0.49    0.40 
  -7  -9  16    0.53    0.11 
  -6  -9  16    1.07    0.18 
  -5  -9  16    0.44    0.20 
  -4  -9  16    0.63    0.31 
  -3  -9  16    0.49    0.25 
  -2  -9  16    0.57    0.23 
   1   9 -16    0.37    0.29 
  -1  -9  16    0.31    0.15 
   0   9 -16    0.48    0.35 
   0  -9  16    0.91    0.19 
  -1   9 -16    0.07    0.33 
   1  -9  16    0.34    0.10 
  -2   9 -16    0.17    0.31 
   2  -9  16    0.05    0.07 
  -3   9 -16    0.12    0.37 
  -4   9 -16   -0.22    0.35 
  -8  -8  16    0.44    0.16 
  -7  -8  16    0.42    0.11 
  -6  -8  16    0.27    0.10 
  -5  -8  16    0.50    0.10 
  -4  -8  16    0.72    0.14 
  -3  -8  16    0.81    0.16 
  -2  -8  16    0.20    0.25 
   1   8 -16    0.61    0.34 
  -1  -8  16    0.60    0.23 
   0   8 -16    0.05    0.25 
   0  -8  16    0.34    0.18 
  -1   8 -16   -0.04    0.24 
   1  -8  16    0.26    0.14 
  -2   8 -16    1.27    0.39 
   2  -8  16    1.21    0.20 
  -3   8 -16    0.00    0.24 
  -4   8 -16    0.12    0.25 
  -5   8 -16    0.32    0.34 
  -9  -7  16    0.14    0.14 
  -8  -7  16    0.24    0.16 
  -7  -7  16    0.72    0.15 
  -6  -7  16    0.98    0.15 
  -5  -7  16    0.62    0.14 
  -4  -7  16    2.02    0.26 
  -3  -7  16    1.85    0.25 
  -2  -7  16    0.52    0.11 
   1   7 -16    0.45    0.33 
  -1  -7  16    0.70    0.28 
   0   7 -16    0.94    0.35 
   0  -7  16    0.97    0.27 
  -1   7 -16    0.42    0.30 
   1  -7  16    0.60    0.21 
  -2   7 -16    0.58    0.33 
   2  -7  16    0.83    0.19 
  -3   7 -16    0.02    0.25 
  -4   7 -16    0.16    0.27 
  -5   7 -16    0.18    0.27 
  -6   7 -16    0.36    0.30 
  -7   7 -16    0.39    0.32 
  -9  -6  16    0.32    0.19 
  -8  -6  16   -0.01    0.16 
  -7  -6  16    0.19    0.15 
  -6  -6  16    0.42    0.15 
  -5  -6  16    0.33    0.12 
  -4  -6  16    0.29    0.11 
  -3  -6  16    0.13    0.11 
  -2  -6  16    0.22    0.10 
   1   6 -16   -0.18    0.26 
  -1  -6  16    0.44    0.09 
   0   6 -16    1.33    0.41 
   0  -6  16    1.06    0.18 
  -1   6 -16   -0.08    0.25 
   1  -6  16    0.53    0.24 
  -2   6 -16    0.25    0.28 
   2  -6  16    0.51    0.19 
  -3   6 -16    0.88    0.36 
   3  -6  16    1.36    0.22 
  -4   6 -16    0.02    0.23 
  -5   6 -16   -0.04    0.23 
  -6   6 -16    0.17    0.32 
  -7   6 -16    0.44    0.32 
  -8   6 -16    0.41    0.32 
  -9  -5  16    0.22    0.19 
  -8  -5  16    0.51    0.22 
  -7  -5  16   -0.03    0.18 
  -6  -5  16    0.35    0.15 
  -5  -5  16    1.41    0.24 
  -4  -5  16    0.64    0.17 
  -3  -5  16    2.50    0.32 
  -2  -5  16    2.25    0.30 
   1   5 -16   -0.07    0.24 
  -1  -5  16    0.25    0.10 
   0   5 -16    2.51    0.52 
   0  -5  16    2.45    0.28 
  -1   5 -16    2.01    0.45 
   1  -5  16    2.33    0.27 
  -2   5 -16    0.27    0.26 
   2  -5  16    0.34    0.23 
  -3   5 -16    0.00    0.24 
   3  -5  16    0.21    0.18 
  -4   5 -16    0.87    0.36 
  -5   5 -16   -0.15    0.26 
  -6   5 -16   -0.10    0.27 
  -7   5 -16    0.10    0.33 
  -8   5 -16    0.45    0.34 
  -9   5 -16    1.01    0.40 
  -9  -4  16    0.19    0.19 
  -8  -4  16    0.11    0.20 
  -7  -4  16    0.83    0.24 
  -6  -4  16    0.26    0.11 
  -5  -4  16    0.38    0.15 
  -4  -4  16    1.63    0.26 
  -3  -4  16    0.70    0.19 
  -2  -4  16    0.08    0.12 
  -1  -4  16    0.35    0.13 
   0   4 -16    3.58    0.59 
   0  -4  16    2.79    0.30 
  -1   4 -16    1.39    0.40 
   1  -4  16    1.69    0.24 
  -2   4 -16    0.80    0.32 
   2  -4  16    1.09    0.16 
  -3   4 -16    3.32    0.55 
  -4   4 -16    0.66    0.32 
  -5   4 -16    0.51    0.34 
  -6   4 -16    0.15    0.32 
  -7   4 -16    0.23    0.34 
  -8   4 -16   -0.05    0.29 
  -9   4 -16    0.40    0.34 
  -9  -3  16    0.43    0.22 
  -8  -3  16    0.47    0.21 
  -7  -3  16    0.36    0.21 
  -6  -3  16    0.92    0.23 
  -5  -3  16    0.51    0.17 
  -4  -3  16    0.74    0.19 
  -3  -3  16    1.81    0.28 
  -2  -3  16    0.23    0.15 
  -1  -3  16    0.18    0.13 
   0   3 -16    1.00    0.35 
   0  -3  16    0.60    0.17 
  -1   3 -16    0.50    0.30 
   1  -3  16    1.25    0.21 
  -2   3 -16    0.72    0.31 
   2  -3  16    0.96    0.16 
  -3   3 -16   -0.20    0.22 
   3  -3  16    0.32    0.08 
  -4   3 -16    0.01    0.26 
  -5   3 -16    1.20    0.39 
  -6   3 -16    0.57    0.35 
  -7   3 -16    0.36    0.32 
  -8   3 -16    0.65    0.38 
  -9   3 -16    0.22    0.30 
 -10   3 -16    0.61    0.36 
  -9  -2  16    0.20    0.19 
  -8  -2  16    0.08    0.17 
  -7  -2  16    0.57    0.23 
  -6  -2  16   -0.08    0.11 
  -5  -2  16    0.68    0.18 
  -4  -2  16    1.40    0.25 
  -3  -2  16    1.15    0.23 
  -2  -2  16    0.39    0.18 
  -1  -2  16    0.46    0.16 
   0   2 -16    5.13    0.63 
   0  -2  16    4.58    0.33 
  -1   2 -16    0.27    0.38 
  -1   2 -16    0.27    0.25 
   1  -2  16   -0.03    0.11 
  -2   2 -16    1.65    0.39 
   2  -2  16    2.18    0.26 
  -3   2 -16    6.74    0.70 
   3  -2  16    6.07    0.34 
  -4   2 -16    1.69    0.40 
  -5   2 -16    3.59    0.60 
  -6   2 -16    0.70    0.35 
  -7   2 -16   -0.03    0.26 
  -8   2 -16    0.33    0.32 
  -9   2 -16   -0.01    0.29 
 -10   2 -16    0.55    0.40 
 -11   2 -16    0.03    0.34 
  -9  -1  16   -0.20    0.15 
  -8  -1  16    0.13    0.21 
  -7  -1  16    0.44    0.22 
  -6  -1  16    0.23    0.15 
  -5  -1  16    0.07    0.14 
  -4  -1  16    0.67    0.19 
  -3  -1  16    2.85    0.32 
  -2  -1  16    1.06    0.22 
  -1  -1  16    0.43    0.16 
   0  -1  16    1.33    0.23 
  -1   1 -16    0.16    0.35 
  -1   1 -16    0.20    0.23 
   1  -1  16    0.23    0.13 
  -2   1 -16    0.06    0.20 
  -2   1 -16    0.14    0.37 
   2  -1  16    0.22    0.12 
  -3   1 -16    1.17    0.34 
  -3   1 -16    1.07    0.49 
   3  -1  16    1.56    0.21 
  -4   1 -16    0.57    0.42 
  -4   1 -16    0.53    0.27 
   4  -1  16    0.76    0.11 
  -5   1 -16    1.78    0.43 
  -5   1 -16    1.69    0.53 
  -6   1 -16   -0.19    0.24 
  -7   1 -16    0.02    0.25 
  -8   1 -16    0.03    0.28 
  -9   1 -16    0.17    0.28 
 -10   1 -16    0.62    0.39 
 -11   1 -16    0.83    0.38 
  -9   0  16    0.01    0.20 
  -8   0  16    0.19    0.20 
  -7   0  16    0.08    0.18 
  -6   0  16    0.11    0.17 
  -5   0  16    0.48    0.16 
  -4   0  16    0.73    0.18 
  -3   0  16    0.05    0.14 
  -2   0  16    0.08    0.13 
  -1   0  16    4.96    0.38 
   0   0 -16    8.93    1.09 
   0   0  16    8.86    0.45 
  -1   0 -16   -0.08    0.20 
  -1   0 -16   -0.01    0.35 
   1   0  16   -0.11    0.11 
  -2   0 -16    0.17    0.36 
  -2   0 -16    0.18    0.21 
   2   0  16    0.09    0.12 
  -3   0 -16   -0.24    0.27 
  -3   0 -16   -0.01    0.20 
   3   0  16   -0.19    0.09 
  -4   0 -16    3.98    0.73 
  -4   0 -16    3.80    0.53 
   4   0  16    3.93    0.25 
  -5   0 -16    4.91    0.63 
  -5   0 -16    5.74    0.86 
  -6   0 -16    0.39    0.29 
  -6   0 -16    0.65    0.42 
  -7   0 -16   -0.06    0.25 
  -7   0 -16    0.11    0.38 
  -8   0 -16    0.31    0.33 
  -9   0 -16    0.19    0.35 
 -10   0 -16    0.39    0.37 
 -11   0 -16   -0.12    0.29 
 -12   0 -16    0.11    0.31 
  -8   1  16    0.18    0.19 
  -7   1  16   -0.14    0.17 
  -6   1  16    0.64    0.22 
  -5   1  16    0.63    0.17 
  -4   1  16    0.92    0.20 
  -3   1  16    3.41    0.35 
  -2   1  16    1.57    0.23 
  -1   1  16   -0.03    0.12 
   0  -1 -16   -0.02    0.35 
   0   1  16    0.04    0.13 
  -1  -1 -16    2.11    0.60 
  -1  -1 -16    2.07    0.39 
   1   1  16    2.14    0.26 
  -2  -1 -16    0.84    0.43 
  -2  -1 -16    0.57    0.25 
   2   1  16    0.72    0.17 
  -3  -1 -16    0.52    0.44 
  -3  -1 -16    0.48    0.24 
   3   1  16    0.24    0.12 
  -4  -1 -16    3.50    0.50 
  -4  -1 -16    4.15    0.74 
   4   1  16    4.02    0.26 
  -5  -1 -16    2.04    0.58 
  -5  -1 -16    1.58    0.37 
  -6  -1 -16    0.06    0.33 
  -6  -1 -16   -0.08    0.21 
  -7  -1 -16    1.14    0.38 
  -7  -1 -16    1.10    0.50 
  -8  -1 -16    1.20    0.40 
  -8  -1 -16    1.24    0.52 
  -9  -1 -16    1.95    0.56 
  -9  -1 -16    2.10    0.52 
 -10  -1 -16    0.19    0.41 
 -10  -1 -16   -0.14    0.30 
 -11  -1 -16    1.45    0.49 
 -12  -1 -16    0.20    0.32 
  -8   2  16   -0.03    0.19 
  -7   2  16   -0.04    0.17 
  -6   2  16   -0.15    0.14 
  -5   2  16    0.28    0.16 
  -4   2  16    0.85    0.18 
  -3   2  16    0.20    0.15 
  -2   2  16    0.33    0.15 
  -1   2  16    0.06    0.12 
   0  -2 -16    5.62    0.93 
   0   2  16    4.83    0.32 
  -1  -2 -16    0.70    0.46 
   1   2  16    0.34    0.15 
  -2  -2 -16    2.64    0.66 
  -2  -2 -16    2.35    0.40 
   2   2  16    2.46    0.25 
  -3  -2 -16    5.15    0.87 
  -3  -2 -16    3.62    0.46 
   3   2  16    3.78    0.26 
  -4  -2 -16    1.91    0.58 
  -4  -2 -16    2.27    0.40 
   4   2  16    1.98    0.22 
  -5  -2 -16    0.65    0.44 
  -5  -2 -16    0.43    0.25 
  -6  -2 -16    0.95    0.33 
  -6  -2 -16    0.91    0.48 
  -7  -2 -16    0.12    0.24 
  -7  -2 -16    0.11    0.37 
  -8  -2 -16    0.13    0.25 
  -8  -2 -16   -0.16    0.35 
  -9  -2 -16    0.24    0.43 
  -9  -2 -16    0.09    0.32 
 -10  -2 -16    0.40    0.43 
 -10  -2 -16    0.43    0.35 
 -11  -2 -16    0.09    0.31 
 -11  -2 -16    0.11    0.44 
 -12  -2 -16    0.75    0.38 
 -12  -2 -16    0.09    0.47 
 -13  -2 -16    0.57    0.35 
  -8   3  16    0.13    0.18 
  -7   3  16    0.43    0.21 
  -6   3  16    0.10    0.21 
  -5   3  16    0.44    0.15 
  -4   3  16    0.09    0.11 
  -3   3  16    3.38    0.34 
  -2   3  16    2.38    0.29 
  -1   3  16    0.84    0.18 
   0  -3 -16    0.06    0.39 
   0   3  16    0.27    0.13 
  -1  -3 -16    6.81    1.02 
   1   3  16    5.16    0.31 
  -2  -3 -16    1.56    0.58 
   2   3  16    1.88    0.22 
  -3  -3 -16    4.07    0.46 
  -3  -3 -16    5.09    0.89 
   3   3  16    3.70    0.26 
  -4  -3 -16    6.16    0.92 
   4   3  16    5.82    0.31 
  -5  -3 -16    0.15    0.20 
  -5  -3 -16    0.31    0.35 
  -6  -3 -16    0.42    0.41 
  -6  -3 -16   -0.10    0.20 
  -7  -3 -16    0.18    0.40 
  -7  -3 -16   -0.18    0.21 
  -8  -3 -16    0.36    0.41 
  -8  -3 -16    0.26    0.27 
  -9  -3 -16    1.08    0.38 
  -9  -3 -16    0.62    0.44 
 -10  -3 -16    0.68    0.47 
 -10  -3 -16    0.62    0.37 
 -11  -3 -16    0.17    0.32 
 -11  -3 -16    0.41    0.46 
 -12  -3 -16   -0.05    0.30 
 -12  -3 -16    0.13    0.44 
 -13  -3 -16    0.22    0.53 
 -13  -3 -16    0.28    0.33 
  -7   4  16   -0.03    0.17 
  -6   4  16    0.19    0.18 
  -5   4  16    0.19    0.13 
  -4   4  16   -0.08    0.10 
  -3   4  16    1.76    0.25 
  -2   4  16    0.80    0.18 
  -1   4  16    0.17    0.12 
   0  -4 -16    1.92    0.65 
   0   4  16    2.15    0.26 
  -1  -4 -16    3.70    0.83 
   1   4  16    1.89    0.24 
  -2  -4 -16    1.46    0.57 
   2   4  16    1.36    0.20 
  -3  -4 -16    0.66    0.47 
   3   4  16    1.35    0.19 
  -4  -4 -16    0.00    0.35 
   4   4  16    0.53    0.11 
  -5  -4 -16    1.37    0.52 
  -6  -4 -16    0.11    0.35 
  -7  -4 -16    1.24    0.57 
  -7  -4 -16    1.34    0.33 
  -8  -4 -16    0.33    0.26 
  -8  -4 -16    0.33    0.41 
  -9  -4 -16    0.45    0.41 
  -9  -4 -16   -0.04    0.24 
 -10  -4 -16    0.27    0.39 
 -10  -4 -16   -0.32    0.23 
 -11  -4 -16   -0.22    0.26 
 -11  -4 -16    0.08    0.39 
 -12  -4 -16    0.92    0.58 
 -12  -4 -16    0.56    0.35 
 -13  -4 -16    1.11    0.65 
 -13  -4 -16    0.51    0.35 
  -6   5  16    0.83    0.23 
  -5   5  16   -0.03    0.16 
  -4   5  16    0.83    0.18 
  -3   5  16    0.91    0.18 
  -2   5  16    0.93    0.18 
  -1   5  16    1.84    0.24 
   0  -5 -16   -0.18    0.35 
   0   5  16    0.23    0.11 
  -1  -5 -16    0.38    0.41 
  -2  -5 -16    0.33    0.41 
   2   5  16    0.07    0.08 
  -3  -5 -16    4.12    0.85 
   3   5  16    3.13    0.23 
  -4  -5 -16    1.81    0.60 
   4   5  16    1.30    0.17 
  -5  -5 -16    0.23    0.42 
   5   5  16    0.64    0.12 
  -6  -5 -16    6.34    0.98 
  -7  -5 -16    0.25    0.41 
  -8  -5 -16    1.38    0.55 
  -9  -5 -16    3.06    0.75 
 -10  -5 -16    0.97    0.53 
 -11  -5 -16    1.16    0.52 
 -12  -5 -16    0.76    0.52 
 -12  -5 -16    1.30    0.41 
 -13  -5 -16    0.14    0.29 
 -13  -5 -16    0.00    0.46 
  -6   6  16    0.22    0.19 
  -5   6  16    0.07    0.15 
  -4   6  16   -0.07    0.08 
  -3   6  16    0.06    0.11 
  -2   6  16    0.46    0.14 
  -1   6  16    0.12    0.10 
   0  -6 -16    5.07    1.07 
   0   6  16    4.71    0.32 
  -1  -6 -16   -0.04    0.43 
   1   6  16    0.23    0.11 
  -2  -6 -16    0.55    0.51 
   2   6  16    0.15    0.11 
  -3  -6 -16    1.35    0.60 
   3   6  16    1.68    0.20 
  -4  -6 -16    0.02    0.33 
   4   6  16   -0.11    0.07 
  -5  -6 -16    1.90    0.65 
   5   6  16    1.31    0.16 
  -6  -6 -16   -0.27    0.36 
  -7  -6 -16    1.15    0.56 
  -8  -6 -16    0.48    0.43 
  -9  -6 -16   -0.20    0.34 
 -10  -6 -16    0.69    0.49 
 -11  -6 -16   -0.10    0.43 
 -12  -6 -16    1.86    0.66 
 -13  -6 -16    1.09    0.66 
  -5   7  16   -0.02    0.13 
  -4   7  16    0.72    0.17 
  -3   7  16    0.51    0.14 
  -2   7  16    0.38    0.14 
  -1   7  16    2.30    0.28 
   0  -7 -16    1.51    0.70 
   0   7  16    1.80    0.24 
  -1  -7 -16   -0.12    0.46 
   1   7  16    0.06    0.08 
  -2  -7 -16   -0.20    0.39 
   2   7  16    0.06    0.09 
  -3  -7 -16    0.16    0.46 
   3   7  16    0.31    0.11 
  -4  -7 -16    0.86    0.57 
   4   7  16    1.56    0.21 
  -5  -7 -16    1.91    0.68 
   5   7  16    1.74    0.20 
  -6  -7 -16    1.07    0.56 
  -7  -7 -16    0.16    0.43 
  -8  -7 -16   -0.13    0.35 
  -9  -7 -16    0.85    0.54 
 -10  -7 -16    0.61    0.54 
 -11  -7 -16    0.19    0.50 
 -12  -7 -16    0.39    0.48 
 -13  -7 -16    0.02    0.55 
  -4   8  16    0.43    0.14 
  -3   8  16    0.73    0.17 
  -2   8  16    0.13    0.08 
  -1   8  16    0.68    0.15 
   0   8  16    1.58    0.21 
  -1  -8 -16    0.48    0.62 
   1   8  16    0.04    0.10 
  -2  -8 -16   -0.44    0.48 
   2   8  16    0.11    0.11 
  -3  -8 -16    2.37    0.81 
   3   8  16    2.36    0.27 
  -4  -8 -16    1.11    0.59 
   4   8  16    1.49    0.20 
  -5  -8 -16    0.15    0.46 
   5   8  16   -0.06    0.07 
  -6  -8 -16    0.19    0.49 
  -7  -8 -16    0.57    0.52 
  -8  -8 -16    0.70    0.55 
  -9  -8 -16    0.18    0.50 
 -10  -8 -16    1.06    0.60 
 -11  -8 -16    0.08    0.45 
 -12  -8 -16    1.35    0.64 
 -13  -8 -16    0.08    0.51 
  -3   9  16    0.17    0.13 
  -2   9  16    0.19    0.13 
  -1   9  16    0.10    0.11 
   0   9  16   -0.15    0.09 
  -1  -9 -16   -0.13    0.45 
   1   9  16    0.05    0.09 
  -2  -9 -16   -0.02    0.53 
   2   9  16    0.21    0.11 
  -3  -9 -16    0.28    0.55 
   3   9  16    0.51    0.14 
  -4  -9 -16    0.62    0.63 
   4   9  16    0.41    0.12 
  -5  -9 -16    0.68    0.60 
   5   9  16    0.31    0.11 
  -6  -9 -16    0.27    0.58 
  -7  -9 -16    0.57    0.61 
  -8  -9 -16    0.65    0.58 
  -9  -9 -16    1.06    0.69 
 -10  -9 -16    0.23    0.56 
 -11  -9 -16    0.25    0.51 
 -12  -9 -16    1.09    0.62 
 -13  -9 -16    0.08    0.54 
  -2  10  16    0.39    0.14 
  -1  10  16    0.10    0.11 
   0  10  16    0.24    0.13 
  -1 -10 -16   -0.05    0.60 
   1  10  16    0.16    0.10 
  -2 -10 -16    2.63    0.94 
   2  10  16    2.37    0.28 
  -3 -10 -16    2.39    0.92 
   3  10  16    1.85    0.24 
  -4 -10 -16    0.05    0.55 
   4  10  16    0.12    0.09 
  -5 -10 -16    0.73    0.70 
   5  10  16    1.00    0.17 
  -6 -10 -16    0.09    0.60 
   6  10  16    0.14    0.07 
  -7 -10 -16    0.54    0.54 
  -8 -10 -16    0.36    0.63 
  -9 -10 -16    0.51    0.64 
 -10 -10 -16    1.22    0.74 
 -11 -10 -16   -0.28    0.53 
 -12 -10 -16    0.28    0.64 
 -13 -10 -16   -0.04    0.64 
  -1  11  16    0.03    0.10 
   0  11  16    0.72    0.16 
  -1 -11 -16   -0.24    0.60 
   1  11  16    0.17    0.11 
  -2 -11 -16    0.23    0.71 
   2  11  16    1.05    0.18 
  -3 -11 -16    0.21    0.66 
  -4 -11 -16    0.60    0.56 
   4  11  16    0.63    0.13 
  -5 -11 -16    0.84    0.65 
   5  11  16    0.73    0.14 
  -6 -11 -16    4.66    1.06 
   6  11  16    4.03    0.27 
  -7 -11 -16    0.57    0.64 
  -8 -11 -16    1.33    0.70 
  -9 -11 -16   -0.16    0.55 
 -10 -11 -16    0.06    0.63 
 -11 -11 -16    1.41    0.93 
 -12 -11 -16   -0.10    0.74 
   1  12  16    0.85    0.17 
  -2 -12 -16   -0.18    0.54 
   2  12  16    0.22    0.11 
  -3 -12 -16    1.45    0.73 
   3  12  16    0.80    0.16 
  -4 -12 -16   -0.29    0.58 
   4  12  16    0.29    0.10 
  -5 -12 -16    1.37    0.83 
   5  12  16    1.19    0.19 
  -6 -12 -16    0.86    0.70 
  -7 -12 -16    0.32    0.59 
  -8 -12 -16   -0.29    0.49 
  -9 -12 -16    0.45    0.53 
 -10 -12 -16    0.94    0.60 
 -11 -12 -16    0.32    0.66 
   3  13  16    0.51    0.12 
  -4 -13 -16    0.43    0.68 
   4  13  16    0.68    0.16 
  -5 -13 -16    0.23    0.62 
   5  13  16   -0.20    0.09 
  -6 -13 -16    2.11    0.81 
   6  13  16    3.12    0.31 
  -7 -13 -16    1.22    0.58 
  -8 -13 -16    0.18    0.42 
  -9 -13 -16   -0.06    0.48 
  -4 -10  17    0.58    0.27 
  -3 -10  17    0.46    0.21 
  -2 -10  17    0.12    0.14 
   1  10 -17   -0.02    0.25 
  -1 -10  17    0.32    0.14 
  -6  -9  17    0.42    0.12 
  -5  -9  17    0.58    0.24 
  -4  -9  17    0.50    0.32 
  -3  -9  17    0.59    0.30 
  -2  -9  17    0.51    0.24 
   1   9 -17    0.23    0.28 
  -1  -9  17    0.17    0.16 
   0   9 -17   -0.03    0.25 
   0  -9  17    0.70    0.17 
  -1   9 -17    0.42    0.28 
   1  -9  17    0.42    0.11 
  -2   9 -17    0.06    0.24 
  -7  -8  17    0.58    0.12 
  -6  -8  17    0.63    0.13 
  -5  -8  17    0.75    0.13 
  -4  -8  17    0.46    0.08 
  -3  -8  17    0.33    0.09 
  -2  -8  17    0.71    0.29 
   1   8 -17    0.11    0.27 
  -1  -8  17    0.63    0.25 
   0   8 -17    0.11    0.29 
   0  -8  17    0.85    0.24 
  -1   8 -17   -0.29    0.21 
   1  -8  17    0.33    0.14 
  -2   8 -17    0.13    0.23 
   2  -8  17   -0.01    0.08 
  -3   8 -17    0.24    0.26 
  -4   8 -17    0.03    0.26 
  -7  -7  17    0.84    0.15 
  -6  -7  17    0.28    0.09 
  -5  -7  17    0.66    0.12 
  -4  -7  17    0.83    0.14 
  -3  -7  17    0.63    0.12 
  -2  -7  17    0.57    0.12 
   1   7 -17    0.13    0.27 
  -1  -7  17    0.66    0.26 
   0   7 -17   -0.03    0.24 
   0  -7  17    0.51    0.25 
  -1   7 -17    0.05    0.28 
   1  -7  17    0.49    0.18 
  -2   7 -17   -0.03    0.26 
   2  -7  17   -0.12    0.13 
  -3   7 -17    0.12    0.26 
  -4   7 -17    0.79    0.35 
  -5   7 -17    0.88    0.37 
  -6   7 -17    0.20    0.26 
  -8  -6  17    1.15    0.26 
  -7  -6  17    0.50    0.12 
  -6  -6  17    0.25    0.11 
  -5  -6  17    0.74    0.14 
  -4  -6  17    0.50    0.13 
  -3  -6  17    0.45    0.16 
  -2  -6  17    0.58    0.11 
  -1  -6  17    1.05    0.21 
   0   6 -17   -0.11    0.27 
   0  -6  17    0.36    0.09 
  -1   6 -17    1.20    0.41 
   1  -6  17    0.84    0.28 
  -2   6 -17    0.52    0.33 
   2  -6  17    1.17    0.25 
  -3   6 -17    0.02    0.28 
  -4   6 -17   -0.03    0.21 
  -5   6 -17    0.31    0.31 
  -6   6 -17   -0.20    0.22 
  -7   6 -17    0.04    0.27 
  -8  -5  17    0.66    0.23 
  -7  -5  17    0.31    0.14 
  -6  -5  17    0.70    0.17 
  -5  -5  17    0.44    0.13 
  -4  -5  17    1.47    0.23 
  -3  -5  17    0.29    0.11 
  -2  -5  17    0.36    0.12 
  -1  -5  17    0.22    0.09 
   0   5 -17    0.95    0.37 
   0  -5  17    1.22    0.20 
  -1   5 -17    0.14    0.29 
   1  -5  17    0.50    0.10 
  -2   5 -17    0.55    0.32 
   2  -5  17    0.73    0.26 
  -3   5 -17    0.19    0.26 
  -4   5 -17    0.39    0.30 
  -5   5 -17    0.79    0.36 
  -6   5 -17    0.05    0.28 
  -7   5 -17   -0.31    0.23 
  -8   5 -17    0.37    0.35 
  -8  -4  17    0.56    0.21 
  -7  -4  17    0.11    0.17 
  -6  -4  17    0.35    0.16 
  -5  -4  17    0.10    0.10 
  -4  -4  17    1.20    0.23 
  -3  -4  17    0.05    0.15 
  -2  -4  17    0.39    0.15 
  -1  -4  17    0.94    0.18 
   0   4 -17    0.04    0.22 
   0  -4  17    0.25    0.10 
  -1   4 -17    0.94    0.38 
   1  -4  17    0.93    0.15 
  -2   4 -17    0.44    0.29 
   2  -4  17    1.36    0.16 
  -3   4 -17    0.07    0.26 
   3  -4  17    0.51    0.17 
  -4   4 -17    0.14    0.24 
  -5   4 -17    0.04    0.28 
  -6   4 -17    0.80    0.40 
  -7   4 -17    0.40    0.35 
  -8   4 -17    0.10    0.27 
  -9   4 -17    0.49    0.32 
  -8  -3  17    0.79    0.23 
  -7  -3  17    0.16    0.21 
  -6  -3  17    0.20    0.14 
  -5  -3  17    0.51    0.15 
  -4  -3  17   -0.02    0.11 
  -3  -3  17    0.97    0.19 
  -2  -3  17    0.20    0.14 
  -1  -3  17    0.25    0.15 
   0   3 -17    0.18    0.27 
   0  -3  17    0.35    0.12 
  -1   3 -17    0.06    0.24 
   1  -3  17    0.41    0.13 
  -2   3 -17    0.00    0.24 
   2  -3  17    0.23    0.08 
  -3   3 -17    1.13    0.37 
   3  -3  17    1.13    0.15 
  -4   3 -17    0.21    0.26 
  -5   3 -17   -0.06    0.26 
  -6   3 -17    0.13    0.28 
  -7   3 -17    1.72    0.50 
  -8   3 -17    0.57    0.38 
  -9   3 -17    0.03    0.25 
  -8  -2  17   -0.14    0.16 
  -7  -2  17    0.13    0.20 
  -6  -2  17    0.35    0.16 
  -5  -2  17   -0.05    0.12 
  -4  -2  17    0.27    0.15 
  -3  -2  17    0.14    0.14 
  -2  -2  17    0.53    0.17 
  -1  -2  17    2.77    0.32 
   0  -2  17    0.21    0.13 
  -1   2 -17    0.93    0.35 
   1  -2  17    1.05    0.20 
  -2   2 -17    0.38    0.27 
   2  -2  17    0.61    0.15 
  -3   2 -17    0.24    0.29 
   3  -2  17    1.15    0.16 
  -4   2 -17    0.71    0.32 
  -5   2 -17    1.44    0.41 
  -6   2 -17    1.11    0.39 
  -7   2 -17    0.06    0.29 
  -8   2 -17    0.13    0.30 
  -9   2 -17    0.41    0.39 
 -10   2 -17    0.48    0.34 
  -8  -1  17    0.16    0.19 
  -7  -1  17    0.21    0.17 
  -6  -1  17   -0.20    0.13 
  -5  -1  17    0.53    0.16 
  -4  -1  17    0.32    0.14 
  -3  -1  17    0.63    0.19 
  -2  -1  17    0.21    0.16 
  -1  -1  17    0.23    0.15 
   0  -1  17    2.05    0.27 
  -1   1 -17    2.40    0.66 
  -1   1 -17    3.27    0.53 
   1  -1  17    3.42    0.33 
  -2   1 -17    0.27    0.41 
  -2   1 -17    0.18    0.22 
   2  -1  17    0.56    0.15 
  -3   1 -17    1.41    0.36 
  -3   1 -17    1.84    0.60 
   3  -1  17    1.67    0.22 
  -4   1 -17    1.25    0.37 
  -5   1 -17    0.31    0.29 
  -6   1 -17    0.14    0.28 
  -7   1 -17    1.80    0.49 
  -8   1 -17   -0.06    0.31 
  -9   1 -17   -0.12    0.27 
 -10   1 -17    0.21    0.34 
 -11   1 -17    0.33    0.35 
  -8   0  17    0.27    0.20 
  -7   0  17    0.36    0.22 
  -6   0  17    0.11    0.15 
  -5   0  17   -0.02    0.11 
  -4   0  17   -0.04    0.11 
  -3   0  17    0.14    0.13 
  -2   0  17    2.39    0.30 
  -1   0  17    3.83    0.35 
   0   0  17   -0.02    0.13 
  -1   0 -17    0.54    0.28 
  -1   0 -17    0.59    0.45 
   1   0  17    0.44    0.16 
  -2   0 -17    1.61    0.37 
  -2   0 -17    1.74    0.57 
   2   0  17    1.70    0.24 
  -3   0 -17   -0.17    0.38 
  -3   0 -17    0.25    0.28 
   3   0  17    0.29    0.12 
  -4   0 -17    0.27    0.25 
  -4   0 -17   -0.23    0.38 
  -5   0 -17    1.57    0.38 
  -5   0 -17    2.42    0.64 
  -6   0 -17    0.02    0.24 
  -6   0 -17   -0.12    0.41 
  -7   0 -17    0.21    0.29 
  -8   0 -17    0.08    0.30 
  -9   0 -17    0.38    0.35 
 -10   0 -17    0.79    0.38 
 -11   0 -17   -0.18    0.32 
  -8   1  17   -0.05    0.17 
  -7   1  17    0.26    0.21 
  -6   1  17    0.24    0.18 
  -5   1  17    0.08    0.15 
  -4   1  17    1.46    0.24 
  -3   1  17    1.18    0.21 
  -2   1  17   -0.02    0.13 
  -1   1  17    0.00    0.15 
   0   1  17    0.55    0.16 
  -1  -1 -17    0.34    0.45 
   1   1  17    0.85    0.20 
  -2  -1 -17    0.09    0.43 
  -2  -1 -17    0.17    0.22 
   2   1  17    0.21    0.13 
  -3  -1 -17    2.61    0.67 
  -3  -1 -17    2.18    0.41 
   3   1  17    2.38    0.26 
  -4  -1 -17    2.95    0.69 
  -4  -1 -17    2.09    0.41 
   4   1  17    3.40    0.23 
  -5  -1 -17    5.80    0.65 
  -5  -1 -17    6.10    0.92 
  -6  -1 -17   -0.10    0.21 
  -6  -1 -17   -0.10    0.36 
  -7  -1 -17    0.64    0.44 
  -7  -1 -17    0.55    0.32 
  -8  -1 -17    2.65    0.73 
  -8  -1 -17    2.52    0.54 
  -9  -1 -17   -0.14    0.27 
 -10  -1 -17    0.21    0.30 
 -11  -1 -17    0.40    0.33 
 -12  -1 -17    0.28    0.34 
  -7   2  17   -0.02    0.17 
  -6   2  17   -0.31    0.17 
  -5   2  17    0.03    0.11 
  -4   2  17    0.25    0.14 
  -3   2  17    0.13    0.12 
  -2   2  17    0.66    0.18 
  -1   2  17    3.27    0.33 
   0  -2 -17    0.20    0.43 
   0   2  17   -0.08    0.11 
  -1  -2 -17    0.50    0.47 
   1   2  17    0.44    0.15 
  -2  -2 -17    0.32    0.46 
  -2  -2 -17    0.05    0.18 
   2   2  17    0.01    0.11 
  -3  -2 -17    0.21    0.21 
  -3  -2 -17   -0.02    0.37 
   3   2  17    0.18    0.10 
  -4  -2 -17    0.51    0.44 
  -4  -2 -17    0.06    0.20 
   4   2  17    0.32    0.10 
  -5  -2 -17   -0.03    0.19 
  -5  -2 -17    0.12    0.36 
  -6  -2 -17    0.64    0.30 
  -6  -2 -17    0.29    0.41 
  -7  -2 -17    0.13    0.27 
  -7  -2 -17    0.19    0.40 
  -8  -2 -17    0.67    0.51 
  -8  -2 -17    0.93    0.40 
  -9  -2 -17    0.32    0.45 
  -9  -2 -17    0.57    0.35 
 -10  -2 -17    0.04    0.43 
 -10  -2 -17   -0.03    0.30 
 -11  -2 -17   -0.06    0.49 
 -11  -2 -17    0.13    0.31 
 -12  -2 -17    0.31    0.35 
  -7   3  17    0.19    0.20 
  -6   3  17    0.01    0.15 
  -5   3  17    0.48    0.16 
  -4   3  17    0.77    0.19 
  -3   3  17   -0.06    0.11 
  -2   3  17    0.86    0.18 
  -1   3  17    1.17    0.20 
   0  -3 -17    0.17    0.45 
   0   3  17   -0.07    0.09 
  -1  -3 -17    2.69    0.72 
   1   3  17    2.60    0.27 
  -2  -3 -17   -0.28    0.38 
   2   3  17    0.09    0.11 
  -3  -3 -17    0.48    0.46 
   3   3  17    0.61    0.15 
  -4  -3 -17    3.93    0.83 
   4   3  17    3.83    0.25 
  -5  -3 -17    0.83    0.50 
  -6  -3 -17   -0.02    0.35 
  -6  -3 -17    0.36    0.24 
  -7  -3 -17    3.03    0.71 
  -7  -3 -17    2.62    0.47 
  -8  -3 -17    1.44    0.41 
  -8  -3 -17    1.46    0.57 
  -9  -3 -17   -0.23    0.25 
  -9  -3 -17   -0.30    0.37 
 -10  -3 -17    0.42    0.44 
 -10  -3 -17    0.96    0.41 
 -11  -3 -17    0.00    0.28 
 -11  -3 -17    0.63    0.50 
 -12  -3 -17    0.12    0.31 
 -12  -3 -17   -0.11    0.40 
  -6   4  17   -0.42    0.15 
  -5   4  17    0.32    0.16 
  -4   4  17    0.41    0.15 
  -3   4  17    0.79    0.18 
  -2   4  17    2.29    0.29 
  -1   4  17    0.70    0.18 
   0  -4 -17    1.34    0.60 
   0   4  17    1.91    0.25 
  -1  -4 -17    1.15    0.57 
   1   4  17    0.86    0.19 
  -2  -4 -17    0.26    0.46 
   2   4  17    0.13    0.09 
  -3  -4 -17    0.19    0.38 
   3   4  17    0.25    0.11 
  -4  -4 -17    0.13    0.41 
   4   4  17   -0.05    0.08 
  -5  -4 -17    1.51    0.56 
  -6  -4 -17    0.26    0.40 
  -7  -4 -17    0.10    0.36 
  -8  -4 -17    0.61    0.53 
  -9  -4 -17   -0.14    0.41 
 -10  -4 -17    0.55    0.47 
 -10  -4 -17    0.81    0.35 
 -11  -4 -17    1.08    0.39 
 -11  -4 -17    0.48    0.50 
 -12  -4 -17   -0.27    0.37 
 -12  -4 -17    0.53    0.34 
 -13  -4 -17    0.39    0.31 
  -6   5  17   -0.20    0.14 
  -5   5  17    0.25    0.13 
  -4   5  17    0.15    0.13 
  -3   5  17   -0.07    0.08 
  -2   5  17    0.21    0.13 
  -1   5  17    0.36    0.12 
   0  -5 -17    0.18    0.49 
   0   5  17    0.26    0.12 
  -1  -5 -17    0.23    0.44 
   1   5  17    0.24    0.11 
  -2  -5 -17    0.95    0.58 
   2   5  17    0.44    0.13 
  -3  -5 -17    0.28    0.44 
   3   5  17    0.00    0.08 
   4   5  17    2.60    0.26 
  -5  -5 -17   -0.04    0.43 
  -6  -5 -17    0.02    0.37 
  -7  -5 -17    3.07    0.72 
  -8  -5 -17    0.35    0.44 
  -9  -5 -17    0.42    0.47 
 -10  -5 -17    2.37    0.71 
 -11  -5 -17    0.02    0.46 
  -5   6  17    0.61    0.18 
  -4   6  17    0.23    0.13 
  -3   6  17    0.14    0.11 
  -2   6  17    1.58    0.24 
  -1   6  17    2.18    0.27 
   0  -6 -17    0.19    0.57 
   0   6  17    0.59    0.16 
  -1  -6 -17    2.00    0.71 
   1   6  17    2.23    0.26 
  -2  -6 -17    2.34    0.77 
   2   6  17    3.23    0.30 
  -3  -6 -17    0.20    0.52 
   3   6  17    0.42    0.12 
  -4  -6 -17    0.10    0.44 
   4   6  17    0.10    0.09 
  -5  -6 -17    0.01    0.40 
   5   6  17   -0.04    0.05 
  -6  -6 -17    1.31    0.61 
  -7  -6 -17    1.88    0.65 
  -8  -6 -17   -0.24    0.34 
  -9  -6 -17   -0.04    0.42 
 -10  -6 -17    0.70    0.55 
 -11  -6 -17    1.38    0.60 
 -12  -6 -17    0.20    0.47 
 -13  -6 -17    0.36    0.50 
  -4   7  17    0.13    0.14 
  -3   7  17    0.24    0.12 
  -2   7  17    0.21    0.13 
  -1   7  17    1.25    0.21 
   0   7  17    0.21    0.11 
  -1  -7 -17    3.00    0.92 
   1   7  17    2.55    0.29 
  -2  -7 -17    0.18    0.53 
   2   7  17    0.37    0.12 
  -3  -7 -17    0.39    0.49 
   3   7  17    1.20    0.21 
  -4  -7 -17    1.41    0.61 
   4   7  17    1.31    0.19 
  -5  -7 -17   -0.02    0.50 
   5   7  17    0.20    0.08 
  -6  -7 -17   -0.18    0.42 
  -7  -7 -17    0.17    0.49 
  -8  -7 -17    0.12    0.41 
  -9  -7 -17   -0.16    0.45 
 -10  -7 -17   -0.15    0.39 
 -11  -7 -17    0.71    0.49 
 -12  -7 -17    0.36    0.54 
  -3   8  17    0.09    0.11 
  -2   8  17   -0.01    0.12 
  -1   8  17   -0.03    0.09 
   0   8  17   -0.03    0.08 
  -1  -8 -17   -0.21    0.61 
   1   8  17    0.09    0.09 
  -2  -8 -17    2.42    0.89 
   2   8  17    2.26    0.27 
  -3  -8 -17    0.81    0.63 
   3   8  17    0.66    0.14 
  -4  -8 -17    0.47    0.61 
   4   8  17    0.48    0.11 
  -5  -8 -17    0.96    0.64 
   5   8  17    1.15    0.17 
  -6  -8 -17   -0.05    0.47 
  -7  -8 -17    0.46    0.53 
  -8  -8 -17    0.05    0.49 
  -9  -8 -17   -0.12    0.54 
 -10  -8 -17    0.24    0.53 
 -11  -8 -17    1.15    0.66 
 -12  -8 -17    0.02    0.47 
  -2   9  17    0.83    0.20 
  -1   9  17    0.21    0.14 
   0   9  17    0.06    0.10 
  -1  -9 -17    1.47    0.74 
   1   9  17    1.79    0.25 
  -2  -9 -17    0.50    0.64 
   2   9  17    1.37    0.22 
  -3  -9 -17    0.10    0.63 
   3   9  17    0.01    0.10 
  -4  -9 -17    5.84    1.22 
   4   9  17    4.90    0.32 
  -5  -9 -17    2.07    0.82 
   5   9  17    2.45    0.26 
  -6  -9 -17   -0.11    0.49 
  -7  -9 -17    0.59    0.60 
  -8  -9 -17    0.98    0.61 
  -9  -9 -17    0.25    0.56 
 -10  -9 -17    0.51    0.62 
 -11  -9 -17    0.24    0.53 
 -12  -9 -17   -0.17    0.55 
  -1  10  17    0.27    0.15 
   0  10  17    0.02    0.09 
  -1 -10 -17    0.38    0.62 
   1  10  17    0.06    0.09 
  -2 -10 -17    0.10    0.59 
   2  10  17    0.12    0.09 
  -3 -10 -17    0.16    0.59 
   3  10  17    0.52    0.13 
  -4 -10 -17   -0.42    0.43 
   4  10  17    0.28    0.11 
  -5 -10 -17    0.14    0.62 
   5  10  17    0.43    0.13 
  -6 -10 -17   -0.46    0.53 
  -7 -10 -17    2.44    0.97 
  -8 -10 -17    0.55    0.70 
  -9 -10 -17    0.99    0.78 
 -10 -10 -17    1.08    0.72 
 -11 -10 -17    0.82    0.73 
 -12 -10 -17    0.60    0.72 
   1  11  17   -0.18    0.09 
  -2 -11 -17    0.98    0.73 
  -3 -11 -17    0.39    0.54 
   3  11  17   -0.02    0.10 
  -4 -11 -17    1.17    0.73 
   4  11  17    1.39    0.19 
  -5 -11 -17    1.35    0.75 
   5  11  17    2.13    0.26 
  -6 -11 -17    0.08    0.51 
  -7 -11 -17    0.35    0.64 
  -8 -11 -17    0.07    0.56 
  -9 -11 -17    1.26    0.76 
 -10 -11 -17    0.21    0.79 
 -11 -11 -17    0.24    0.81 
   2  12  17    0.31    0.12 
  -3 -12 -17    0.46    0.67 
   3  12  17    0.81    0.16 
  -4 -12 -17    0.71    0.65 
   4  12  17    0.22    0.10 
  -5 -12 -17    1.10    0.74 
   5  12  17    0.36    0.13 
  -6 -12 -17    0.22    0.54 
  -7 -12 -17    0.71    0.59 
  -8 -12 -17    0.92    0.62 
  -9 -12 -17   -0.09    0.50 
   5  13  17    0.28    0.11 
  -2  -9  18    0.66    0.27 
  -1  -9  18    0.33    0.15 
  -4  -8  18    0.60    0.14 
  -3  -8  18    0.47    0.16 
  -2  -8  18    0.73    0.33 
  -1  -8  18    0.95    0.29 
   0   8 -18    0.62    0.33 
   0  -8  18    0.42    0.19 
  -1   8 -18    0.11    0.26 
   1  -8  18    0.24    0.12 
  -2   8 -18    0.15    0.24 
  -6  -7  18    0.97    0.18 
  -5  -7  18    1.05    0.15 
  -3  -7  18    0.96    0.20 
  -2  -7  18    0.38    0.10 
  -1  -7  18    0.65    0.29 
   0   7 -18    0.17    0.31 
   0  -7  18    0.99    0.28 
  -1   7 -18   -0.05    0.23 
   1  -7  18    0.29    0.19 
  -2   7 -18    0.12    0.26 
  -3   7 -18    0.07    0.22 
  -4   7 -18    0.49    0.30 
  -6  -6  18    0.91    0.19 
  -5  -6  18    0.72    0.13 
  -4  -6  18    0.51    0.10 
  -3  -6  18    0.87    0.17 
  -2  -6  18    1.03    0.15 
  -1  -6  18    0.58    0.14 
   0   6 -18    0.35    0.29 
   0  -6  18    0.57    0.10 
  -1   6 -18    0.11    0.26 
   1  -6  18    0.67    0.29 
  -2   6 -18    0.14    0.33 
   2  -6  18    0.96    0.25 
  -3   6 -18   -0.02    0.24 
  -4   6 -18    0.28    0.28 
  -5   6 -18    0.19    0.27 
  -6   6 -18    0.00    0.22 
  -7  -5  18    0.72    0.16 
  -6  -5  18    0.51    0.15 
  -5  -5  18    0.38    0.13 
  -4  -5  18    0.36    0.10 
  -3  -5  18    0.25    0.09 
  -2  -5  18    0.34    0.11 
  -1  -5  18    0.85    0.16 
   0   5 -18    0.00    0.27 
  -1   5 -18   -0.11    0.25 
   1  -5  18    0.40    0.09 
  -2   5 -18    0.31    0.27 
   2  -5  18    1.52    0.31 
  -3   5 -18    0.11    0.27 
  -4   5 -18    0.36    0.31 
  -5   5 -18    0.01    0.28 
  -6   5 -18    0.20    0.29 
  -7   5 -18    0.20    0.26 
  -7  -4  18    1.33    0.24 
  -6  -4  18    1.26    0.22 
  -5  -4  18    0.41    0.17 
  -4  -4  18    0.95    0.19 
  -3  -4  18    2.37    0.31 
  -2  -4  18    1.34    0.21 
  -1  -4  18    0.32    0.15 
   0   4 -18    3.49    0.63 
   0  -4  18    3.89    0.37 
  -1   4 -18    2.28    0.51 
   1  -4  18    2.02    0.24 
  -2   4 -18    0.33    0.32 
   2  -4  18    1.04    0.15 
  -3   4 -18    0.59    0.32 
  -4   4 -18   -0.12    0.23 
  -5   4 -18    0.04    0.27 
  -6   4 -18    0.70    0.36 
  -7   4 -18    0.08    0.28 
  -8   4 -18    0.00    0.24 
  -7  -3  18    0.42    0.16 
  -6  -3  18    0.25    0.15 
  -5  -3  18    0.57    0.17 
  -4  -3  18    0.22    0.14 
  -3  -3  18    0.09    0.14 
  -2  -3  18    0.18    0.11 
  -1  -3  18    0.38    0.15 
   0  -3  18    1.01    0.20 
  -1   3 -18    0.13    0.28 
   1  -3  18    0.19    0.10 
  -2   3 -18    0.53    0.34 
   2  -3  18    1.47    0.19 
  -3   3 -18    0.15    0.28 
  -4   3 -18   -0.13    0.23 
  -5   3 -18    0.83    0.38 
  -6   3 -18   -0.02    0.29 
  -7   3 -18    0.31    0.33 
  -8   3 -18    0.57    0.34 
  -7  -2  18    0.34    0.21 
  -6  -2  18   -0.06    0.12 
  -5  -2  18    0.36    0.16 
  -4  -2  18    1.55    0.26 
  -3  -2  18    3.33    0.37 
  -2  -2  18    0.63    0.17 
  -1  -2  18    0.53    0.16 
   0  -2  18    1.01    0.21 
  -1   2 -18    0.69    0.35 
   1  -2  18    0.77    0.16 
  -2   2 -18    0.16    0.26 
   2  -2  18    0.76    0.12 
  -3   2 -18    0.07    0.28 
  -4   2 -18    0.08    0.26 
  -5   2 -18    0.25    0.27 
  -6   2 -18    0.58    0.33 
  -7   2 -18   -0.04    0.31 
  -8   2 -18    0.34    0.32 
  -9   2 -18    1.32    0.44 
  -7  -1  18    0.25    0.20 
  -6  -1  18    0.38    0.17 
  -5  -1  18    0.78    0.20 
  -4  -1  18    0.27    0.17 
  -3  -1  18    0.67    0.19 
  -2  -1  18    0.15    0.13 
  -1  -1  18    0.14    0.13 
   0  -1  18    3.27    0.34 
  -1   1 -18    0.47    0.30 
   1  -1  18    1.14    0.20 
  -2   1 -18    1.93    0.43 
   2  -1  18    1.53    0.21 
  -3   1 -18    2.95    0.52 
   3  -1  18    3.38    0.31 
  -4   1 -18    0.78    0.33 
  -5   1 -18    0.34    0.30 
  -6   1 -18    0.19    0.26 
  -7   1 -18    0.14    0.28 
  -8   1 -18    0.04    0.27 
  -9   1 -18    0.37    0.32 
 -10   1 -18   -0.13    0.22 
  -7   0  18    0.11    0.21 
  -6   0  18    0.05    0.15 
  -5   0  18    0.27    0.18 
  -4   0  18    0.09    0.12 
  -3   0  18    0.07    0.13 
  -2   0  18    1.67    0.25 
  -1   0  18    0.38    0.14 
   0   0  18    0.12    0.12 
  -1   0 -18    0.11    0.43 
   1   0  18    0.21    0.14 
  -2   0 -18    2.10    0.72 
  -2   0 -18    0.51    0.30 
   2   0  18    0.93    0.18 
  -3   0 -18    0.06    0.45 
  -3   0 -18    0.45    0.28 
   3   0  18    0.24    0.10 
  -4   0 -18    0.83    0.34 
  -4   0 -18    0.97    0.57 
  -5   0 -18    0.22    0.27 
  -6   0 -18    0.08    0.27 
  -7   0 -18    0.14    0.33 
  -8   0 -18    0.20    0.29 
  -9   0 -18    0.11    0.28 
 -10   0 -18    0.24    0.30 
  -7   1  18   -0.44    0.13 
  -6   1  18    0.23    0.14 
  -5   1  18    0.13    0.16 
  -4   1  18    0.25    0.14 
  -3   1  18    0.09    0.14 
  -2   1  18    0.34    0.14 
  -1   1  18    0.65    0.18 
   0   1  18    1.23    0.22 
  -1  -1 -18    1.49    0.62 
   1   1  18    1.80    0.24 
  -2  -1 -18   -0.20    0.38 
  -2  -1 -18    0.21    0.22 
   2   1  18    0.07    0.11 
  -3  -1 -18    5.57    0.94 
  -3  -1 -18    4.70    0.60 
   3   1  18    4.52    0.31 
  -4  -1 -18    1.03    0.53 
  -4  -1 -18    0.60    0.28 
  -5  -1 -18   -0.11    0.41 
  -5  -1 -18   -0.05    0.22 
  -6  -1 -18    1.31    0.39 
  -6  -1 -18    1.41    0.60 
  -7  -1 -18    0.36    0.30 
  -7  -1 -18    1.02    0.58 
  -8  -1 -18   -0.03    0.24 
  -9  -1 -18    0.41    0.34 
 -10  -1 -18   -0.01    0.30 
 -11  -1 -18    0.71    0.37 
  -6   2  18    0.14    0.13 
  -5   2  18    1.02    0.21 
  -4   2  18    0.09    0.12 
  -3   2  18    1.58    0.25 
  -2   2  18    0.17    0.13 
  -1   2  18    1.92    0.26 
   0   2  18    0.04    0.12 
  -1  -2 -18    0.27    0.48 
   1   2  18    0.39    0.14 
  -2  -2 -18    0.07    0.39 
   2   2  18    0.50    0.15 
  -3  -2 -18    1.39    0.61 
   3   2  18    1.63    0.22 
  -4  -2 -18    2.19    0.71 
  -4  -2 -18    1.90    0.37 
  -5  -2 -18    0.04    0.22 
  -5  -2 -18   -0.09    0.40 
  -6  -2 -18    1.99    0.43 
  -6  -2 -18    1.43    0.61 
  -7  -2 -18    0.59    0.33 
  -7  -2 -18    1.62    0.64 
  -8  -2 -18   -0.05    0.25 
  -8  -2 -18    0.24    0.47 
  -9  -2 -18    0.63    0.35 
  -9  -2 -18    0.43    0.55 
 -10  -2 -18   -0.03    0.30 
 -11  -2 -18   -0.18    0.26 
  -6   3  18   -0.29    0.15 
  -5   3  18    0.20    0.15 
  -4   3  18    0.07    0.12 
  -3   3  18    0.51    0.18 
  -2   3  18   -0.08    0.10 
  -1   3  18    0.38    0.15 
   0   3  18    1.08    0.21 
  -1  -3 -18   -0.44    0.36 
   1   3  18    0.19    0.12 
  -2  -3 -18    0.08    0.43 
   2   3  18    0.29    0.12 
  -3  -3 -18    2.72    0.75 
   3   3  18    2.78    0.27 
  -4  -3 -18   -0.09    0.38 
   4   3  18    0.64    0.14 
  -5  -3 -18   -0.14    0.40 
  -6  -3 -18    0.09    0.41 
  -7  -3 -18    0.65    0.50 
  -8  -3 -18    0.08    0.45 
  -9  -3 -18    0.15    0.45 
  -9  -3 -18    0.44    0.30 
 -10  -3 -18    0.01    0.27 
 -10  -3 -18   -0.03    0.49 
 -11  -3 -18    0.38    0.50 
 -11  -3 -18    0.37    0.25 
 -12  -3 -18    0.26    0.29 
  -5   4  18    0.13    0.13 
  -4   4  18    0.14    0.15 
  -3   4  18    0.10    0.11 
  -2   4  18    0.10    0.11 
  -1   4  18    1.26    0.21 
   0   4  18    0.41    0.16 
  -1  -4 -18   -0.26    0.46 
   1   4  18    0.33    0.13 
  -2  -4 -18    0.28    0.44 
   2   4  18    0.88    0.20 
  -3  -4 -18    0.66    0.52 
   3   4  18    0.63    0.14 
  -4  -4 -18    1.18    0.58 
   4   4  18    1.18    0.17 
  -5  -4 -18   -0.08    0.40 
  -6  -4 -18    2.34    0.74 
  -7  -4 -18    1.60    0.61 
  -8  -4 -18   -0.06    0.42 
  -9  -4 -18    5.23    0.98 
 -10  -4 -18    1.43    0.66 
 -11  -4 -18    0.18    0.48 
 -12  -4 -18   -0.10    0.49 
  -4   5  18    0.27    0.16 
  -3   5  18    0.12    0.13 
  -2   5  18    0.15    0.12 
  -1   5  18   -0.20    0.08 
   0   5  18    0.48    0.14 
  -1  -5 -18    0.26    0.47 
   1   5  18   -0.26    0.07 
  -2  -5 -18    0.19    0.43 
   2   5  18    0.33    0.12 
  -3  -5 -18    4.01    0.90 
   3   5  18    4.33    0.29 
  -4  -5 -18   -0.03    0.45 
   4   5  18    0.40    0.11 
  -5  -5 -18    0.23    0.40 
  -6  -5 -18    0.47    0.50 
  -7  -5 -18    0.24    0.46 
  -8  -5 -18    0.26    0.46 
  -9  -5 -18   -0.27    0.42 
 -10  -5 -18    0.27    0.47 
 -11  -5 -18   -0.26    0.47 
 -12  -5 -18    0.80    0.62 
  -4   6  18   -0.04    0.14 
  -3   6  18    0.68    0.18 
  -2   6  18   -0.08    0.10 
  -1   6  18    0.37    0.13 
   0   6  18    0.08    0.11 
  -1  -6 -18    0.20    0.50 
   1   6  18   -0.01    0.12 
  -2  -6 -18    0.25    0.49 
   2   6  18    0.08    0.09 
  -3  -6 -18    0.06    0.47 
   3   6  18    0.12    0.10 
  -4  -6 -18    0.13    0.50 
   4   6  18    0.14    0.09 
  -5  -6 -18    0.67    0.53 
  -6  -6 -18    0.60    0.54 
  -7  -6 -18    0.09    0.43 
  -8  -6 -18    0.38    0.48 
  -9  -6 -18    1.42    0.62 
 -10  -6 -18    0.12    0.49 
 -11  -6 -18    0.35    0.60 
 -12  -6 -18    0.54    0.59 
  -3   7  18    0.19    0.15 
  -2   7  18    0.40    0.16 
  -1   7  18    0.00    0.09 
   0   7  18   -0.12    0.10 
  -1  -7 -18   -0.40    0.51 
   1   7  18    0.04    0.09 
  -2  -7 -18   -0.09    0.43 
   2   7  18   -0.06    0.08 
  -3  -7 -18    2.81    0.87 
   3   7  18    2.44    0.27 
  -4  -7 -18    0.57    0.53 
   4   7  18    0.22    0.10 
  -5  -7 -18    0.11    0.41 
  -6  -7 -18    0.27    0.43 
  -7  -7 -18    1.36    0.65 
  -8  -7 -18    0.08    0.51 
  -9  -7 -18    0.32    0.51 
 -10  -7 -18    0.07    0.55 
 -11  -7 -18   -0.29    0.45 
 -12  -7 -18    0.17    0.55 
  -2   8  18    0.07    0.12 
  -1   8  18    0.36    0.12 
   0   8  18    0.12    0.10 
  -1  -8 -18    0.54    0.71 
   1   8  18    0.28    0.12 
  -2  -8 -18   -0.24    0.59 
   2   8  18    0.05    0.10 
  -3  -8 -18   -0.53    0.46 
   3   8  18    0.21    0.13 
  -4  -8 -18   -0.18    0.52 
   4   8  18    0.48    0.12 
  -5  -8 -18    0.16    0.53 
  -6  -8 -18    1.42    0.68 
  -7  -8 -18    0.11    0.52 
  -8  -8 -18    0.40    0.59 
  -9  -8 -18   -0.17    0.48 
 -10  -8 -18   -0.03    0.50 
 -11  -8 -18    0.25    0.57 
  -1   9  18   -0.02    0.12 
   0   9  18    0.48    0.15 
  -1  -9 -18    1.04    0.78 
  -2  -9 -18    0.23    0.59 
   2   9  18    0.02    0.09 
  -3  -9 -18    1.65    0.86 
   3   9  18    2.16    0.25 
  -4  -9 -18    0.21    0.61 
   4   9  18    0.17    0.11 
  -5  -9 -18    1.52    0.82 
   5   9  18    2.04    0.23 
  -6  -9 -18    0.31    0.53 
  -7  -9 -18    0.03    0.52 
  -8  -9 -18    0.14    0.55 
  -9  -9 -18    0.67    0.64 
 -10  -9 -18    0.54    0.65 
 -11  -9 -18    0.36    0.68 
   0  10  18    0.00    0.12 
   1  10  18    0.55    0.13 
  -2 -10 -18    0.05    0.54 
   2  10  18    0.04    0.10 
  -3 -10 -18    0.84    0.57 
  -4 -10 -18   -0.11    0.54 
   4  10  18    0.31    0.12 
  -5 -10 -18   -0.10    0.64 
   5  10  18    0.48    0.11 
  -6 -10 -18    1.74    0.89 
  -7 -10 -18    0.07    0.70 
  -8 -10 -18    0.91    0.72 
  -9 -10 -18    0.74    0.73 
 -10 -10 -18   -0.19    0.62 
   2  11  18    0.41    0.14 
  -3 -11 -18    0.25    0.67 
   3  11  18    0.25    0.12 
  -4 -11 -18    0.66    0.69 
   4  11  18    0.66    0.15 
  -5 -11 -18    0.05    0.52 
   5  11  18   -0.08    0.07 
  -6 -11 -18    0.57    0.57 
  -7 -11 -18   -0.20    0.54 
  -8 -11 -18   -0.03    0.71 
  -9 -11 -18    0.23    0.81 
   5  12  18    0.16    0.09 
  -4  -7  19    0.76    0.13 
  -2  -7  19    0.06    0.07 
  -1  -7  19    1.03    0.36 
   0   7 -19    0.32    0.29 
   0  -7  19    0.73    0.29 
  -1   7 -19    0.29    0.28 
   1  -7  19    0.37    0.22 
  -2   7 -19    0.12    0.23 
  -4  -6  19    0.56    0.13 
  -3  -6  19    0.67    0.16 
  -2  -6  19    0.61    0.11 
  -1  -6  19    0.59    0.10 
   0   6 -19    0.20    0.30 
   0  -6  19    0.23    0.09 
  -1   6 -19    0.39    0.33 
   1  -6  19    1.81    0.36 
  -2   6 -19   -0.08    0.23 
  -3   6 -19    0.01    0.21 
  -4   6 -19    0.40    0.26 
  -5  -5  19    0.61    0.15 
  -4  -5  19    0.58    0.13 
  -3  -5  19    0.67    0.19 
  -2  -5  19    0.61    0.12 
  -1  -5  19    1.13    0.17 
   0   5 -19    0.47    0.35 
   0  -5  19    0.96    0.15 
  -1   5 -19    0.37    0.33 
   1  -5  19    0.11    0.07 
  -2   5 -19    0.85    0.38 
  -3   5 -19    0.38    0.30 
  -4   5 -19    0.19    0.26 
  -5   5 -19    0.10    0.29 
  -6  -4  19    0.52    0.15 
  -5  -4  19    0.45    0.13 
  -4  -4  19    0.66    0.16 
  -3  -4  19    0.70    0.15 
  -2  -4  19    0.40    0.10 
  -1  -4  19    0.56    0.16 
   0  -4  19    0.77    0.13 
  -1   4 -19    0.23    0.26 
   1  -4  19    0.17    0.07 
  -2   4 -19    0.11    0.30 
  -3   4 -19   -0.04    0.22 
  -4   4 -19   -0.26    0.25 
  -5   4 -19   -0.10    0.28 
  -6   4 -19   -0.04    0.22 
  -6  -3  19    0.15    0.14 
  -5  -3  19    0.53    0.16 
  -4  -3  19    0.47    0.15 
  -3  -3  19    0.42    0.15 
  -2  -3  19    4.58    0.43 
   0  -3  19    0.64    0.13 
  -1   3 -19    2.04    0.50 
   1  -3  19    2.93    0.31 
  -2   3 -19    0.98    0.39 
   2  -3  19    1.43    0.18 
  -3   3 -19    0.46    0.28 
  -4   3 -19    0.65    0.34 
  -5   3 -19    0.13    0.27 
  -6   3 -19    0.18    0.27 
  -7   3 -19   -0.07    0.23 
  -6  -2  19   -0.01    0.15 
  -5  -2  19    0.40    0.17 
  -4  -2  19    0.98    0.20 
  -3  -2  19    0.95    0.19 
  -2  -2  19    0.44    0.14 
  -1  -2  19    0.42    0.13 
   0  -2  19    0.53    0.14 
  -1   2 -19    0.02    0.26 
   1  -2  19    0.65    0.14 
  -2   2 -19   -0.10    0.24 
   2  -2  19    0.19    0.08 
  -3   2 -19    0.41    0.32 
  -4   2 -19    0.42    0.30 
  -5   2 -19    0.13    0.25 
  -6   2 -19    0.04    0.26 
  -7   2 -19    0.43    0.31 
  -8   2 -19   -0.06    0.25 
  -6  -1  19    0.48    0.19 
  -5  -1  19    0.02    0.15 
  -4  -1  19    0.37    0.17 
  -3  -1  19    0.50    0.16 
  -2  -1  19    0.97    0.20 
  -1  -1  19    0.12    0.11 
   0  -1  19    0.25    0.12 
   1  -1  19    1.77    0.24 
  -2   1 -19    0.36    0.30 
   2  -1  19    0.43    0.12 
  -3   1 -19   -0.12    0.23 
  -4   1 -19    1.92    0.44 
  -5   1 -19    0.04    0.25 
  -6   1 -19    0.18    0.27 
  -7   1 -19   -0.05    0.27 
  -8   1 -19   -0.08    0.26 
  -9   1 -19    0.20    0.30 
  -6   0  19    0.67    0.22 
  -5   0  19    0.29    0.16 
  -4   0  19    0.60    0.18 
  -3   0  19    0.52    0.17 
  -2   0  19    0.33    0.12 
  -1   0  19    0.02    0.11 
   0   0  19    0.19    0.14 
   1   0  19    0.91    0.20 
  -2   0 -19    1.34    0.64 
  -2   0 -19    1.32    0.39 
   2   0  19    1.48    0.21 
  -3   0 -19    0.08    0.26 
   3   0  19    0.11    0.07 
  -4   0 -19    0.75    0.33 
  -5   0 -19    0.17    0.27 
  -6   0 -19    0.03    0.27 
  -7   0 -19    0.10    0.30 
  -8   0 -19    0.91    0.39 
  -9   0 -19    0.21    0.30 
  -5   1  19   -0.11    0.13 
  -4   1  19    1.13    0.24 
  -3   1  19    0.06    0.13 
  -2   1  19    0.59    0.16 
  -1   1  19    1.26    0.20 
   0   1  19    1.17    0.22 
  -1  -1 -19    0.70    0.61 
   1   1  19    0.59    0.16 
  -2  -1 -19    0.28    0.47 
   2   1  19   -0.08    0.09 
  -3  -1 -19    0.53    0.28 
  -3  -1 -19    0.11    0.51 
   3   1  19    0.68    0.12 
  -4  -1 -19    2.15    0.69 
  -4  -1 -19    1.83    0.43 
  -5  -1 -19    0.13    0.52 
  -5  -1 -19    0.00    0.24 
  -6  -1 -19   -0.08    0.25 
  -7  -1 -19    0.42    0.31 
  -8  -1 -19   -0.18    0.23 
  -9  -1 -19   -0.17    0.28 
 -10  -1 -19    0.52    0.35 
  -5   2  19    0.32    0.18 
  -4   2  19    0.14    0.13 
  -3   2  19    0.17    0.12 
  -2   2  19    0.52    0.16 
  -1   2  19    0.07    0.13 
   0   2  19    0.11    0.13 
  -1  -2 -19    1.05    0.61 
   1   2  19    1.04    0.19 
  -2  -2 -19    2.14    0.73 
   2   2  19    1.41    0.22 
  -3  -2 -19   -0.25    0.48 
   3   2  19    0.26    0.12 
  -4  -2 -19    1.89    0.72 
  -5  -2 -19    0.21    0.50 
  -6  -2 -19    0.19    0.48 
  -7  -2 -19    2.71    0.78 
  -7  -2 -19    2.50    0.46 
  -8  -2 -19    1.10    0.63 
  -8  -2 -19    1.10    0.35 
  -9  -2 -19    0.07    0.26 
 -10  -2 -19    0.62    0.32 
  -5   3  19    0.56    0.16 
  -4   3  19    0.22    0.14 
  -3   3  19   -0.01    0.13 
  -2   3  19    1.18    0.21 
  -1   3  19    1.23    0.20 
   0   3  19    1.54    0.24 
  -1  -3 -19    0.38    0.50 
   1   3  19    1.22    0.21 
  -2  -3 -19    0.21    0.48 
   2   3  19    0.28    0.12 
  -3  -3 -19    1.20    0.64 
   3   3  19    1.37    0.21 
  -4  -3 -19   -0.14    0.42 
  -5  -3 -19    0.02    0.45 
  -6  -3 -19    0.08    0.43 
  -7  -3 -19    0.15    0.50 
  -8  -3 -19    0.20    0.49 
  -9  -3 -19    0.03    0.49 
 -10  -3 -19   -0.36    0.44 
  -4   4  19    0.04    0.14 
  -3   4  19   -0.05    0.12 
  -2   4  19    0.30    0.14 
  -1   4  19   -0.09    0.11 
   0   4  19    0.21    0.11 
  -1  -4 -19   -0.04    0.45 
   1   4  19    0.12    0.11 
  -2  -4 -19   -0.47    0.42 
   2   4  19    0.12    0.11 
  -3  -4 -19   -0.17    0.45 
   3   4  19    0.19    0.12 
  -4  -4 -19    1.45    0.65 
  -5  -4 -19    0.02    0.48 
  -6  -4 -19   -0.49    0.39 
  -7  -4 -19    0.90    0.55 
  -8  -4 -19    0.68    0.58 
  -9  -4 -19    0.03    0.44 
 -10  -4 -19    0.13    0.51 
 -11  -4 -19   -0.01    0.51 
  -3   5  19    0.00    0.14 
  -2   5  19    1.18    0.21 
  -1   5  19    0.59    0.17 
   0   5  19    0.52    0.15 
  -1  -5 -19    0.37    0.55 
   1   5  19    0.43    0.13 
  -2  -5 -19    0.74    0.59 
   2   5  19    0.27    0.12 
  -3  -5 -19    0.41    0.57 
   3   5  19    0.41    0.13 
  -4  -5 -19   -0.09    0.41 
   4   5  19   -0.03    0.06 
  -5  -5 -19    0.17    0.49 
  -6  -5 -19   -0.04    0.45 
  -7  -5 -19    0.78    0.55 
  -8  -5 -19    0.10    0.47 
  -9  -5 -19    0.47    0.54 
 -10  -5 -19    0.41    0.56 
 -11  -5 -19    0.60    0.62 
  -3   6  19   -0.33    0.09 
  -2   6  19   -0.02    0.11 
  -1   6  19    0.56    0.15 
   0   6  19    0.42    0.13 
  -1  -6 -19   -0.07    0.49 
   1   6  19    0.18    0.12 
  -2  -6 -19    0.12    0.57 
   2   6  19    0.28    0.11 
  -3  -6 -19   -0.40    0.49 
   3   6  19   -0.18    0.08 
  -4  -6 -19    1.93    0.76 
   4   6  19    2.56    0.27 
  -5  -6 -19   -0.26    0.44 
  -6  -6 -19    1.00    0.63 
  -7  -6 -19    0.30    0.52 
  -8  -6 -19    0.36    0.47 
  -9  -6 -19    0.64    0.56 
 -10  -6 -19   -0.01    0.53 
 -11  -6 -19    0.20    0.54 
  -2   7  19    0.76    0.20 
  -1   7  19    0.00    0.11 
   0   7  19   -0.06    0.10 
  -1  -7 -19    0.25    0.67 
   1   7  19    0.28    0.11 
  -2  -7 -19    0.26    0.59 
   2   7  19    0.61    0.14 
  -3  -7 -19   -0.10    0.48 
   3   7  19    0.31    0.11 
  -4  -7 -19   -0.08    0.45 
   4   7  19    0.16    0.09 
  -5  -7 -19    0.12    0.54 
  -6  -7 -19    0.35    0.52 
  -7  -7 -19    1.12    0.60 
  -8  -7 -19   -0.17    0.50 
  -9  -7 -19    0.19    0.54 
 -10  -7 -19    0.31    0.56 
  -1   8  19    0.22    0.14 
   0   8  19    0.61    0.14 
  -1  -8 -19    0.09    0.66 
   1   8  19    0.27    0.12 
  -2  -8 -19   -0.21    0.60 
   2   8  19   -0.11    0.09 
  -3  -8 -19   -0.07    0.55 
   3   8  19   -0.18    0.08 
  -4  -8 -19    2.65    0.91 
   4   8  19    2.53    0.27 
  -5  -8 -19    1.35    0.78 
  -6  -8 -19    0.49    0.60 
  -7  -8 -19    1.53    0.75 
  -8  -8 -19    0.34    0.57 
  -9  -8 -19    1.32    0.67 
 -10  -8 -19    0.09    0.63 
   1   9  19    0.40    0.15 
  -2  -9 -19    1.93    0.98 
   2   9  19    2.53    0.30 
  -3  -9 -19    0.16    0.63 
   3   9  19   -0.07    0.08 
  -4  -9 -19    0.01    0.62 
   4   9  19    0.11    0.10 
  -5  -9 -19    0.18    0.68 
  -6  -9 -19    0.51    0.66 
  -7  -9 -19    0.03    0.62 
  -8  -9 -19   -0.02    0.57 
  -9  -9 -19    0.05    0.58 
   2  10  19   -0.14    0.09 
  -3 -10 -19   -0.39    0.69 
   3  10  19   -0.17    0.09 
  -4 -10 -19    0.09    0.75 
   4  10  19    0.35    0.11 
  -5 -10 -19    0.08    0.63 
  -6 -10 -19   -0.40    0.69 
  -7 -10 -19   -0.13    0.60 
  -8 -10 -19    0.08    0.72 
  -1  -6  20    0.55    0.09 
   0  -6  20    0.03    0.09 
   1  -6  20    3.47    0.43 
  -3  -5  20    0.61    0.15 
  -2  -5  20    0.33    0.11 
  -1  -5  20    0.27    0.10 
   0  -5  20    0.75    0.11 
  -1   5 -20    0.04    0.28 
   1  -5  20    0.12    0.07 
  -2   5 -20    0.06    0.23 
  -3   5 -20    0.22    0.26 
  -4  -4  20    0.32    0.11 
  -2  -4  20    0.51    0.17 
  -1  -4  20    0.58    0.13 
   0  -4  20    0.81    0.12 
  -1   4 -20    0.43    0.34 
   1  -4  20    1.37    0.15 
  -2   4 -20    0.33    0.29 
  -3   4 -20    0.71    0.39 
  -4   4 -20    0.18    0.26 
  -5   4 -20   -0.20    0.23 
  -4  -3  20    0.18    0.12 
  -3  -3  20    1.29    0.25 
  -2  -3  20    1.22    0.21 
  -1  -3  20    0.58    0.13 
   0  -3  20    0.97    0.16 
  -1   3 -20    0.25    0.33 
   1  -3  20    0.33    0.08 
  -2   3 -20   -0.17    0.24 
  -3   3 -20    0.57    0.33 
  -4   3 -20    0.13    0.26 
  -5   3 -20   -0.13    0.25 
  -6   3 -20    0.37    0.30 
  -4  -2  20    0.46    0.17 
  -3  -2  20    0.47    0.14 
  -2  -2  20    0.45    0.12 
  -1  -2  20    0.31    0.13 
   0  -2  20    0.66    0.18 
   1  -2  20    0.50    0.12 
  -2   2 -20   -0.10    0.26 
  -3   2 -20    1.06    0.39 
  -4   2 -20    0.18    0.28 
  -5   2 -20    0.84    0.34 
  -6   2 -20    0.27    0.27 
  -7   2 -20    0.00    0.28 
  -4  -1  20    0.46    0.16 
  -3  -1  20    0.49    0.15 
  -2  -1  20    1.02    0.21 
  -1  -1  20    0.34    0.14 
   0  -1  20    1.46    0.23 
   1  -1  20    0.37    0.10 
  -2   1 -20    0.00    0.25 
   2  -1  20    0.22    0.08 
  -3   1 -20    0.03    0.27 
  -4   1 -20   -0.01    0.26 
  -5   1 -20    0.19    0.29 
  -6   1 -20    0.23    0.27 
  -7   1 -20   -0.03    0.26 
  -8   1 -20    0.07    0.25 
  -4   0  20    0.71    0.19 
  -3   0  20    0.18    0.12 
  -2   0  20    0.46    0.14 
  -1   0  20    0.34    0.14 
   0   0  20    0.40    0.13 
   1   0  20    0.50    0.14 
  -2   0 -20    0.35    0.25 
   2   0  20    0.43    0.12 
  -3   0 -20    0.25    0.29 
  -4   0 -20    0.11    0.27 
  -5   0 -20    0.41    0.32 
  -6   0 -20    0.45    0.25 
  -7   0 -20    0.51    0.30 
  -8   0 -20    0.38    0.30 
  -4   1  20   -0.31    0.12 
  -3   1  20    0.61    0.17 
  -2   1  20    0.06    0.13 
  -1   1  20    0.32    0.15 
   0   1  20    0.87    0.17 
   1   1  20    0.18    0.12 
  -2  -1 -20    0.01    0.57 
   2   1  20    0.26    0.13 
  -3  -1 -20    0.08    0.52 
  -4  -1 -20    0.46    0.56 
  -6  -1 -20    0.52    0.29 
  -7  -1 -20    0.20    0.22 
  -8  -1 -20    0.77    0.29 
  -9  -1 -20    0.67    0.30 
  -4   2  20    0.13    0.15 
  -3   2  20    0.20    0.14 
  -2   2  20    0.22    0.18 
  -1   2  20    0.32    0.13 
   0   2  20    1.38    0.23 
   1   2  20    0.78    0.17 
  -2  -2 -20    0.66    0.58 
   2   2  20    0.95    0.18 
  -3  -2 -20    2.35    0.76 
   3   2  20    3.12    0.29 
  -4  -2 -20    0.84    0.63 
  -5  -2 -20   -0.07    0.53 
  -6  -2 -20    0.12    0.54 
  -3   3  20    0.28    0.15 
  -2   3  20    0.17    0.14 
  -1   3  20    0.48    0.16 
   0   3  20    0.82    0.17 
  -1  -3 -20    0.29    0.55 
   1   3  20    0.25    0.11 
  -2  -3 -20    0.04    0.51 
   2   3  20    0.33    0.13 
  -3  -3 -20    0.07    0.48 
   3   3  20   -0.12    0.07 
  -4  -3 -20    0.23    0.49 
  -5  -3 -20    0.77    0.62 
  -6  -3 -20    1.13    0.61 
  -7  -3 -20    0.38    0.56 
  -8  -3 -20    1.56    0.74 
  -9  -3 -20    0.84    0.66 
  -3   4  20    0.07    0.13 
  -2   4  20   -0.01    0.12 
  -1   4  20    0.35    0.15 
   0   4  20    0.71    0.16 
  -1  -4 -20   -0.02    0.47 
   1   4  20   -0.03    0.12 
  -2  -4 -20    0.15    0.49 
   2   4  20    0.06    0.11 
  -3  -4 -20    2.43    0.79 
   3   4  20    2.59    0.27 
  -4  -4 -20   -0.16    0.45 
  -5  -4 -20    0.09    0.51 
  -6  -4 -20    0.10    0.43 
  -7  -4 -20    2.30    0.75 
  -8  -4 -20   -0.25    0.46 
  -9  -4 -20    0.51    0.69 
  -2   5  20   -0.27    0.11 
  -1   5  20    0.17    0.11 
   0   5  20    0.24    0.12 
  -1  -5 -20    0.06    0.53 
   1   5  20   -0.24    0.10 
  -2  -5 -20    0.27    0.63 
   2   5  20    0.13    0.12 
  -3  -5 -20    0.14    0.51 
   3   5  20   -0.17    0.08 
  -4  -5 -20    0.31    0.51 
  -5  -5 -20   -0.39    0.42 
  -6  -5 -20    0.64    0.63 
  -7  -5 -20    0.34    0.56 
  -8  -5 -20   -0.29    0.48 
  -9  -5 -20    0.35    0.52 
  -1   6  20    0.13    0.14 
   0   6  20    0.15    0.14 
  -1  -6 -20   -0.20    0.51 
   1   6  20   -0.06    0.09 
  -2  -6 -20    0.53    0.64 
   2   6  20    0.41    0.11 
  -3  -6 -20    1.82    0.75 
   3   6  20    1.57    0.23 
  -4  -6 -20    0.60    0.67 
  -5  -6 -20    0.14    0.58 
  -6  -6 -20   -0.05    0.51 
  -7  -6 -20    0.03    0.50 
  -8  -6 -20   -0.24    0.49 
  -9  -6 -20    0.45    0.57 
   0   7  20    0.50    0.15 
   1   7  20    0.43    0.13 
  -2  -7 -20    0.21    0.64 
   2   7  20   -0.15    0.09 
  -3  -7 -20    0.36    0.66 
   3   7  20    0.24    0.11 
  -4  -7 -20    0.60    0.64 
  -5  -7 -20    0.25    0.61 
  -6  -7 -20    2.07    0.82 
  -7  -7 -20    1.28    0.71 
  -8  -7 -20    0.71    0.70 
  -9  -7 -20    1.24    0.70 
   1   8  20    0.78    0.17 
  -2  -8 -20    0.02    0.67 
   2   8  20    0.22    0.13 
  -3  -8 -20    1.41    0.81 
   3   8  20    1.73    0.22 
  -4  -8 -20    1.09    0.78 
  -5  -8 -20   -0.22    0.56 
  -6  -8 -20   -0.07    0.53 
  -7  -8 -20    0.17    0.66 
  -8  -8 -20    0.58    0.65 
   3   9  20   -0.08    0.08 
   4   9  20   -0.12    0.08 
  -5  -9 -20    0.01    0.65 
  -6  -9 -20    0.55    0.75 
   0  -4  21    0.47    0.11 
   1  -4  21    1.43    0.10 
  -2  -3  21    0.00    0.10 
  -1  -3  21    0.55    0.15 
   0  -3  21    0.60    0.12 
  -2   3 -21    0.58    0.33 
  -3   3 -21   -0.15    0.25 
  -4   3 -21    0.35    0.25 
  -2  -2  21    0.74    0.17 
  -1  -2  21    0.97    0.17 
   0  -2  21    0.41    0.11 
   1  -2  21    0.86    0.15 
  -2   2 -21    0.44    0.31 
  -3   2 -21   -0.06    0.26 
  -4   2 -21    0.75    0.34 
  -5   2 -21   -0.02    0.24 
  -2  -1  21    0.87    0.18 
  -1  -1  21    0.15    0.11 
   0  -1  21    0.71    0.13 
   1  -1  21    0.50    0.11 
  -2   1 -21    0.07    0.25 
  -3   1 -21    0.15    0.24 
  -4   1 -21    0.44    0.29 
  -5   1 -21   -0.05    0.22 
  -6   1 -21    0.27    0.27 
  -2   0  21    0.64    0.16 
  -1   0  21    1.11    0.24 
   0   0  21    0.39    0.14 
   1   0  21    2.26    0.27 
   2   0  21    0.64    0.10 
  -5   0 -21    0.14    0.21 
  -6   0 -21    0.39    0.27 
  -7   0 -21    0.19    0.23 
  -2   1  21    0.37    0.15 
  -1   1  21    0.05    0.14 
   0   1  21    0.23    0.14 
   1   1  21   -0.02    0.10 
   2   1  21    0.52    0.10 
  -2   2  21    0.23    0.15 
  -1   2  21    0.23    0.13 
   0   2  21    0.29    0.14 
   1   2  21    1.47    0.21 
  -2  -2 -21    0.28    0.58 
   2   2  21    0.12    0.09 
  -3  -2 -21    0.29    0.61 
  -4  -2 -21    0.51    0.60 
  -5  -2 -21    0.16    0.55 
  -1   3  21    0.23    0.15 
   0   3  21   -0.26    0.11 
   1   3  21    0.84    0.19 
  -2  -3 -21    0.78    0.68 
   2   3  21    1.18    0.19 
  -3  -3 -21   -0.45    0.49 
  -4  -3 -21    0.65    0.64 
  -5  -3 -21    0.99    0.64 
  -6  -3 -21    1.29    0.73 
  -7  -3 -21   -0.02    0.61 
  -1   4  21    0.01    0.12 
   0   4  21    0.25    0.13 
   1   4  21    0.08    0.10 
  -2  -4 -21   -0.03    0.56 
   2   4  21    0.21    0.10 
  -3  -4 -21    0.32    0.62 
  -4  -4 -21    0.10    0.67 
  -5  -4 -21    0.36    0.63 
  -6  -4 -21    0.28    0.61 
  -7  -4 -21   -0.10    0.53 
   0   5  21    0.20    0.13 
   1   5  21    0.32    0.13 
  -2  -5 -21    0.44    0.61 
   2   5  21    0.24    0.13 
  -3  -5 -21   -0.06    0.54 
   3   5  21   -0.12    0.08 
  -4  -5 -21    1.38    0.73 
  -5  -5 -21    0.75    0.62 
  -6  -5 -21    0.15    0.55 
  -7  -5 -21    1.61    0.74 
   1   6  21    1.00    0.18 
  -2  -6 -21    3.13    1.01 
  -3  -6 -21    0.23    0.57 
   3   6  21    0.32    0.09 
  -4  -6 -21    0.07    0.52 
  -5  -6 -21    0.52    0.70 
  -6  -6 -21   -0.10    0.53 
  -7  -6 -21   -0.12    0.59 
   3   7  21    0.02    0.08 
  -4  -7 -21   -0.02    0.58 
  -5  -7 -21    0.93    0.68 
   1   0  22    0.73    0.13 
   1   1  22    0.24    0.10 
   1   2  22    0.46    0.11 
   2   3  22    0.68    0.15 
   0   0   0    0.00    0.00 
;
_shelx_hkl_checksum              37564
loop_
_space_group_symop_operation_xyz
'x, y, z'
'-x, -y, -z'
loop_
_atom_site_label
_atom_site_type_symbol
_atom_site_fract_x
_atom_site_fract_y
_atom_site_fract_z
_atom_site_U_iso_or_equiv
_atom_site_adp_type
_atom_site_occupancy
_atom_site_site_symmetry_order
_atom_site_calc_flag
_atom_site_refinement_flags_posn
_atom_site_refinement_flags_adp
S1 S 0.79874(9) 0.73741(8) 1.13029(5) 0.0578(3) Uani 1 1 d . .
S2 S 0.13157(9) 0.74025(7) 0.63109(5) 0.0566(3) Uani 1 1 d . .
N1 N 0.7422(2) 0.6780(2) 1.08124(15) 0.0467(7) Uani 1 1 d . .
N2 N 0.2134(2) 0.8000(2) 0.58384(16) 0.0516(7) Uani 1 1 d . .
O1 O 0.8870(3) 0.6473(2) 0.74729(15) 0.0747(8) Uani 1 1 d . .
O2 O 0.4324(3) 0.9206(4) 0.9910(2) 0.152(2) Uani 1 1 d . U
O3 O 0.5034(2) 0.8137(2) 0.88851(17) 0.0757(8) Uani 1 1 d . .
O4 O 0.7045(2) 0.8208(2) 1.17276(16) 0.0771(8) Uani 1 1 d . .
O5 O 0.8803(3) 0.6542(2) 1.17299(16) 0.0773(8) Uani 1 1 d . .
O6 O 0.1191(2) 0.8649(2) 0.27012(16) 0.0712(8) Uani 1 1 d . .
O7 O 0.5677(3) 0.5738(4) 0.5008(2) 0.152(2) Uani 1 1 d . U
O8 O 0.5277(2) 0.6732(2) 0.39044(18) 0.0841(9) Uani 1 1 d . .
O9 O 0.2054(3) 0.6475(2) 0.67116(15) 0.0715(8) Uani 1 1 d . .
O10 O 0.0369(2) 0.8200(2) 0.67699(15) 0.0730(8) Uani 1 1 d . .
F1 F 0.4599(3) 0.7195(3) 1.0931(2) 0.1313(13) Uani 1 1 d . .
F2 F 0.4769(2) 0.8333(2) 1.15802(18) 0.1148(10) Uani 1 1 d . .
F3 F 0.5663(3) 0.6727(3) 1.18435(18) 0.1267(12) Uani 1 1 d . .
F4 F 0.3381(3) 0.7843(2) 0.69525(17) 0.1211(12) Uani 1 1 d . .
F5 F 0.4471(3) 0.6273(2) 0.66089(16) 0.1096(10) Uani 1 1 d . .
F6 F 0.4860(3) 0.7583(3) 0.6063(2) 0.1366(13) Uani 1 1 d . .
C1 C 0.6317(3) 0.7394(3) 1.0594(2) 0.0486(8) Uani 1 1 d . .
C2 C 0.5323(4) 0.7418(3) 1.1228(3) 0.0697(11) Uani 1 1 d . .
C3 C 0.6164(3) 0.7853(3) 0.9870(2) 0.0535(9) Uani 1 1 d . .
H3 H 0.6819 0.7779 0.9503 0.064 Uiso 1 1 calc R U
C4 C 0.5060(4) 0.8478(3) 0.9572(3) 0.0696(11) Uani 1 1 d . .
C5 C 0.4021(4) 0.8737(4) 0.8499(3) 0.0988(17) Uani 1 1 d . .
H5A H 0.3363 0.8705 0.8849 0.148 Uiso 1 1 calc R U
H5B H 0.4105 0.8425 0.7987 0.148 Uiso 1 1 calc R U
H5C H 0.3928 0.9476 0.8407 0.148 Uiso 1 1 calc R U
C6 C 0.8173(3) 0.5767(2) 1.03908(19) 0.0448(8) Uani 1 1 d . .
H6 H 0.8812 0.5398 1.0700 0.054 Uiso 1 1 calc R U
C7 C 0.8667(3) 0.5950(2) 0.9553(2) 0.0476(8) Uani 1 1 d . .
C8 C 0.9086(3) 0.6074(3) 0.8886(2) 0.0537(9) Uani 1 1 d . .
C9 C 0.9618(4) 0.6220(3) 0.8055(2) 0.0668(11) Uani 1 1 d . .
H9A H 0.9882 0.6795 0.8047 0.080 Uiso 1 1 calc R U
H9B H 1.0280 0.5561 0.7904 0.080 Uiso 1 1 calc R U
C10 C 0.7991(4) 0.7470(3) 0.7489(2) 0.0631(10) Uani 1 1 d . .
C11 C 0.7814(4) 0.8258(3) 0.8002(2) 0.0662(11) Uani 1 1 d . .
H11 H 0.8311 0.8135 0.8377 0.079 Uiso 1 1 calc R U
C12 C 0.6896(4) 0.9243(3) 0.7967(3) 0.0819(13) Uani 1 1 d . .
H12 H 0.6773 0.9772 0.8328 0.098 Uiso 1 1 calc R U
C13 C 0.6172(5) 0.9448(4) 0.7416(4) 0.0985(16) Uani 1 1 d . .
H13 H 0.5556 1.0111 0.7399 0.118 Uiso 1 1 calc R U
C14 C 0.6359(5) 0.8668(5) 0.6889(3) 0.0972(16) Uani 1 1 d . .
H14 H 0.5875 0.8809 0.6501 0.117 Uiso 1 1 calc R U
C15 C 0.7264(5) 0.7665(4) 0.6920(3) 0.0879(14) Uani 1 1 d . .
H15 H 0.7380 0.7133 0.6563 0.106 Uiso 1 1 calc R U
C16 C 0.7537(3) 0.5051(2) 1.0448(2) 0.0466(8) Uani 1 1 d . .
C17 C 0.7331(4) 0.4548(3) 1.1186(2) 0.0684(11) Uani 1 1 d . .
H17 H 0.7619 0.4631 1.1637 0.082 Uiso 1 1 calc R U
C18 C 0.6712(4) 0.3933(4) 1.1262(3) 0.0879(14) Uani 1 1 d . .
H18 H 0.6576 0.3599 1.1762 0.105 Uiso 1 1 calc R U
C19 C 0.6291(4) 0.3809(4) 1.0602(4) 0.0932(15) Uani 1 1 d . .
H19 H 0.5851 0.3404 1.0656 0.112 Uiso 1 1 calc R U
C20 C 0.6509(4) 0.4274(4) 0.9865(3) 0.0822(13) Uani 1 1 d . .
H20 H 0.6239 0.4168 0.9413 0.099 Uiso 1 1 calc R U
C21 C 0.7125(3) 0.4895(3) 0.9789(2) 0.0605(10) Uani 1 1 d . .
H21 H 0.7266 0.5216 0.9285 0.073 Uiso 1 1 calc R U
C22 C 0.8718(3) 0.7959(3) 1.0571(2) 0.0548(9) Uani 1 1 d . .
C23 C 0.8128(3) 0.8923(3) 1.0181(3) 0.0639(10) Uani 1 1 d . .
H23 H 0.7340 0.9267 1.0314 0.077 Uiso 1 1 calc R U
C24 C 0.8699(4) 0.9372(3) 0.9600(3) 0.0701(11) Uani 1 1 d . .
H24 H 0.8290 1.0025 0.9344 0.084 Uiso 1 1 calc R U
C25 C 0.9867(4) 0.8886(4) 0.9379(2) 0.0699(11) Uani 1 1 d . .
C26 C 1.0432(4) 0.7926(4) 0.9787(3) 0.0786(13) Uani 1 1 d . .
H26 H 1.1221 0.7582 0.9657 0.094 Uiso 1 1 calc R U
C27 C 0.9877(4) 0.7460(3) 1.0373(3) 0.0697(11) Uani 1 1 d . .
H27 H 1.0284 0.6812 1.0635 0.084 Uiso 1 1 calc R U
C28 C 1.0504(5) 0.9365(5) 0.8735(3) 0.1040(17) Uani 1 1 d . .
H28A H 0.9987 1.0058 0.8554 0.156 Uiso 1 1 calc R U
H28B H 1.0835 0.8895 0.8281 0.156 Uiso 1 1 calc R U
H28C H 1.1097 0.9448 0.8957 0.156 Uiso 1 1 calc R U
C29 C 0.3329(3) 0.7384(3) 0.5647(2) 0.0527(9) Uani 1 1 d . .
C30 C 0.4025(5) 0.7267(4) 0.6318(3) 0.0831(14) Uani 1 1 d . .
C31 C 0.3787(3) 0.7001(3) 0.4927(2) 0.0580(9) Uani 1 1 d . .
H31 H 0.3289 0.7103 0.4558 0.070 Uiso 1 1 calc R U
C32 C 0.5019(4) 0.6419(4) 0.4632(3) 0.0773(13) Uani 1 1 d . .
C33 C 0.6472(4) 0.6243(5) 0.3545(3) 0.1109(19) Uani 1 1 d . .
H33A H 0.6944 0.6237 0.3932 0.166 Uiso 1 1 calc R U
H33B H 0.6604 0.6653 0.3063 0.166 Uiso 1 1 calc R U
H33C H 0.6658 0.5515 0.3404 0.166 Uiso 1 1 calc R U
C34 C 0.1606(3) 0.9107(2) 0.54797(19) 0.0495(8) Uani 1 1 d . .
H34 H 0.0799 0.9402 0.5720 0.059 Uiso 1 1 calc R U
C35 C 0.1642(3) 0.9121(2) 0.4590(2) 0.0503(8) Uani 1 1 d . .
C36 C 0.1665(3) 0.9160(3) 0.3876(2) 0.0545(9) Uani 1 1 d . .
C37 C 0.1672(4) 0.9270(3) 0.2990(2) 0.0682(11) Uani 1 1 d . .
H37A H 0.1255 1.0024 0.2844 0.082 Uiso 1 1 calc R U
H37B H 0.2454 0.9059 0.2722 0.082 Uiso 1 1 calc R U
C38 C 0.1817(4) 0.7555(3) 0.2646(2) 0.0568(9) Uani 1 1 d . .
C39 C 0.1284(4) 0.7001(4) 0.2361(2) 0.0786(13) Uani 1 1 d . .
H39 H 0.0550 0.7363 0.2230 0.094 Uiso 1 1 calc R U
C40 C 0.1839(6) 0.5924(5) 0.2272(3) 0.1031(18) Uani 1 1 d . .
H40 H 0.1486 0.5544 0.2076 0.124 Uiso 1 1 calc R U
C41 C 0.2906(7) 0.5391(4) 0.2468(3) 0.106(2) Uani 1 1 d . .
H41 H 0.3279 0.4648 0.2406 0.128 Uiso 1 1 calc R U
C42 C 0.3431(5) 0.5934(4) 0.2752(3) 0.0875(15) Uani 1 1 d . .
H42 H 0.4161 0.5562 0.2889 0.105 Uiso 1 1 calc R U
C43 C 0.2896(4) 0.7022(3) 0.2840(2) 0.0657(11) Uani 1 1 d . .
H43 H 0.3260 0.7398 0.3030 0.079 Uiso 1 1 calc R U
C44 C 0.2128(3) 0.9803(3) 0.5744(2) 0.0524(9) Uani 1 1 d . .
C45 C 0.1753(4) 1.0199(3) 0.6519(2) 0.0754(12) Uani 1 1 d . .
H45 H 0.1156 1.0071 0.6843 0.090 Uiso 1 1 calc R U
C46 C 0.2235(6) 1.0767(4) 0.6819(3) 0.0999(17) Uani 1 1 d . .
H46 H 0.1971 1.1028 0.7344 0.120 Uiso 1 1 calc R U
C47 C 0.3108(5) 1.0959(4) 0.6350(4) 0.0974(17) Uani 1 1 d . .
H47 H 0.3456 1.1334 0.6560 0.117 Uiso 1 1 calc R U
C48 C 0.3477(4) 1.0600(4) 0.5569(4) 0.0893(15) Uani 1 1 d . .
H48 H 0.4059 1.0749 0.5244 0.107 Uiso 1 1 calc R U
C49 C 0.2984(4) 1.0016(3) 0.5264(3) 0.0693(11) Uani 1 1 d . .
H49 H 0.3234 0.9769 0.4734 0.083 Uiso 1 1 calc R U
C50 C 0.0808(3) 0.6993(3) 0.5559(2) 0.0514(9) Uani 1 1 d . .
C51 C -0.0299(4) 0.7543(3) 0.5427(3) 0.0729(12) Uani 1 1 d . .
H51 H -0.0782 0.8145 0.5727 0.088 Uiso 1 1 calc R U
C52 C -0.0686(4) 0.7189(4) 0.4841(3) 0.0822(13) Uani 1 1 d . .
H52 H -0.1438 0.7565 0.4749 0.099 Uiso 1 1 calc R U
C53 C -0.0002(4) 0.6302(3) 0.4390(2) 0.0673(11) Uani 1 1 d . .
C54 C 0.1120(4) 0.5783(3) 0.4526(2) 0.0661(11) Uani 1 1 d . .
H54 H 0.1612 0.5194 0.4216 0.079 Uiso 1 1 calc R U
C55 C 0.1523(3) 0.6115(3) 0.5105(2) 0.0602(10) Uani 1 1 d . .
H55 H 0.2279 0.5749 0.5191 0.072 Uiso 1 1 calc R U
C56 C -0.0463(4) 0.5916(4) 0.3778(3) 0.0923(15) Uani 1 1 d . .
H56A H -0.1234 0.6008 0.3985 0.138 Uiso 1 1 calc R U
H56B H -0.0001 0.5165 0.3685 0.138 Uiso 1 1 calc R U
H56C H -0.0448 0.6327 0.3274 0.138 Uiso 1 1 calc R U
loop_
_atom_site_aniso_label
_atom_site_aniso_U_11
_atom_site_aniso_U_22
_atom_site_aniso_U_33
_atom_site_aniso_U_23
_atom_site_aniso_U_13
_atom_site_aniso_U_12
S1 0.0648(7) 0.0620(6) 0.0501(5) -0.0124(4) -0.0183(5) -0.0225(5)
S2 0.0718(7) 0.0544(5) 0.0429(5) -0.0035(4) -0.0023(4) -0.0265(5)
N1 0.0429(17) 0.0461(15) 0.0453(15) -0.0097(12) -0.0126(13) -0.0076(13)
N2 0.0559(19) 0.0461(15) 0.0498(16) 0.0004(12) -0.0104(14) -0.0167(14)
O1 0.099(2) 0.0661(17) 0.0521(15) -0.0090(12) -0.0092(15) -0.0252(16)
O2 0.103(3) 0.148(3) 0.124(3) -0.054(3) -0.059(2) 0.060(3)
O3 0.0692(19) 0.0816(19) 0.0763(19) -0.0028(15) -0.0336(15) -0.0212(15)
O4 0.084(2) 0.0861(19) 0.0645(16) -0.0374(14) -0.0022(15) -0.0328(16)
O5 0.094(2) 0.0831(19) 0.0668(17) 0.0087(14) -0.0478(16) -0.0357(17)
O6 0.0783(19) 0.0665(17) 0.0657(16) -0.0071(13) -0.0305(14) -0.0168(15)
O7 0.079(3) 0.177(4) 0.108(3) 0.039(3) -0.002(2) 0.029(3)
O8 0.0568(18) 0.094(2) 0.0745(19) 0.0149(16) -0.0020(15) -0.0096(15)
O9 0.102(2) 0.0657(16) 0.0525(14) 0.0114(12) -0.0264(15) -0.0364(16)
O10 0.087(2) 0.0725(17) 0.0574(15) -0.0202(13) 0.0178(14) -0.0369(15)
F1 0.091(2) 0.218(4) 0.122(2) -0.049(2) 0.0186(19) -0.102(3)
F2 0.0849(19) 0.117(2) 0.112(2) -0.0569(18) 0.0299(16) -0.0159(17)
F3 0.092(2) 0.147(3) 0.093(2) 0.0296(19) 0.0194(16) -0.0198(19)
F4 0.141(3) 0.113(2) 0.0924(19) -0.0346(17) -0.068(2) -0.007(2)
F5 0.117(2) 0.0954(19) 0.0874(18) 0.0121(15) -0.0557(17) -0.0008(17)
F6 0.119(3) 0.168(3) 0.169(3) 0.028(3) -0.084(3) -0.086(3)
C1 0.045(2) 0.0466(18) 0.0496(19) -0.0144(15) -0.0067(16) -0.0109(16)
C2 0.058(3) 0.070(3) 0.067(3) -0.006(2) -0.002(2) -0.013(2)
C3 0.047(2) 0.0534(19) 0.054(2) -0.0066(16) -0.0122(17) -0.0110(17)
C4 0.059(3) 0.067(2) 0.067(3) -0.004(2) -0.019(2) -0.005(2)
C5 0.083(4) 0.115(4) 0.103(4) 0.005(3) -0.061(3) -0.028(3)
C6 0.042(2) 0.0428(17) 0.0444(17) -0.0053(13) -0.0116(15) -0.0084(15)
C7 0.044(2) 0.0436(18) 0.052(2) -0.0065(15) -0.0086(17) -0.0127(15)
C8 0.051(2) 0.0472(19) 0.059(2) -0.0053(16) -0.0038(18) -0.0160(16)
C9 0.067(3) 0.061(2) 0.060(2) -0.0011(18) 0.002(2) -0.018(2)
C10 0.079(3) 0.067(2) 0.051(2) 0.0080(18) -0.011(2) -0.039(2)
C11 0.079(3) 0.059(2) 0.066(2) 0.0080(19) -0.015(2) -0.034(2)
C12 0.092(4) 0.057(2) 0.097(3) 0.009(2) -0.017(3) -0.032(2)
C13 0.101(4) 0.078(3) 0.122(4) 0.021(3) -0.037(4) -0.038(3)
C14 0.106(4) 0.104(4) 0.098(4) 0.032(3) -0.052(3) -0.052(4)
C15 0.119(4) 0.096(4) 0.073(3) 0.011(2) -0.030(3) -0.064(3)
C16 0.042(2) 0.0415(17) 0.0481(18) -0.0041(14) -0.0059(15) -0.0082(15)
C17 0.081(3) 0.060(2) 0.059(2) 0.0003(18) -0.007(2) -0.025(2)
C18 0.101(4) 0.075(3) 0.084(3) 0.010(2) 0.007(3) -0.043(3)
C19 0.083(4) 0.080(3) 0.129(5) 0.002(3) -0.005(3) -0.050(3)
C20 0.080(3) 0.074(3) 0.106(4) -0.003(3) -0.025(3) -0.040(3)
C21 0.064(3) 0.057(2) 0.063(2) 0.0015(17) -0.014(2) -0.0256(19)
C22 0.049(2) 0.054(2) 0.063(2) -0.0168(17) -0.0213(18) -0.0130(17)
C23 0.051(2) 0.056(2) 0.083(3) -0.009(2) -0.022(2) -0.0135(19)
C24 0.067(3) 0.062(2) 0.087(3) 0.004(2) -0.034(2) -0.022(2)
C25 0.077(3) 0.077(3) 0.067(3) -0.008(2) -0.019(2) -0.038(2)
C26 0.052(3) 0.084(3) 0.093(3) -0.017(3) -0.010(2) -0.017(2)
C27 0.055(3) 0.061(2) 0.083(3) -0.006(2) -0.020(2) -0.009(2)
C28 0.106(4) 0.140(5) 0.086(3) 0.007(3) -0.017(3) -0.071(4)
C29 0.059(2) 0.0470(18) 0.051(2) 0.0022(15) -0.0165(18) -0.0181(17)
C30 0.090(4) 0.074(3) 0.082(3) -0.006(2) -0.040(3) -0.017(3)
C31 0.050(2) 0.058(2) 0.055(2) 0.0033(17) -0.0134(18) -0.0100(17)
C32 0.061(3) 0.072(3) 0.076(3) 0.006(2) -0.017(2) -0.003(2)
C33 0.061(3) 0.122(4) 0.110(4) 0.015(3) 0.014(3) -0.011(3)
C34 0.050(2) 0.0464(18) 0.0489(19) -0.0039(15) -0.0079(16) -0.0151(16)
C35 0.051(2) 0.0413(17) 0.058(2) -0.0014(15) -0.0107(17) -0.0170(16)
C36 0.064(3) 0.0465(19) 0.052(2) 0.0004(15) -0.0152(18) -0.0188(17)
C37 0.090(3) 0.056(2) 0.055(2) 0.0037(17) -0.021(2) -0.023(2)
C38 0.069(3) 0.065(2) 0.0378(17) -0.0046(16) -0.0064(17) -0.028(2)
C39 0.084(3) 0.106(4) 0.062(2) -0.025(2) -0.006(2) -0.051(3)
C40 0.138(5) 0.113(5) 0.084(3) -0.041(3) 0.015(4) -0.079(4)
C41 0.150(6) 0.066(3) 0.087(4) -0.020(3) 0.021(4) -0.038(4)
C42 0.099(4) 0.066(3) 0.076(3) -0.008(2) -0.005(3) -0.013(3)
C43 0.069(3) 0.067(2) 0.058(2) -0.0042(18) -0.014(2) -0.023(2)
C44 0.055(2) 0.0415(17) 0.059(2) -0.0056(15) -0.0153(18) -0.0135(16)
C45 0.099(3) 0.073(3) 0.062(2) -0.017(2) -0.015(2) -0.036(3)
C46 0.128(5) 0.088(3) 0.090(4) -0.029(3) -0.029(4) -0.037(3)
C47 0.103(4) 0.072(3) 0.132(5) -0.026(3) -0.059(4) -0.027(3)
C48 0.071(3) 0.073(3) 0.137(5) -0.012(3) -0.018(3) -0.039(3)
C49 0.067(3) 0.061(2) 0.082(3) -0.016(2) -0.009(2) -0.025(2)
C50 0.051(2) 0.0508(19) 0.0494(19) -0.0004(15) -0.0009(16) -0.0204(17)
C51 0.065(3) 0.066(2) 0.081(3) -0.017(2) -0.008(2) -0.017(2)
C52 0.067(3) 0.086(3) 0.093(3) -0.003(3) -0.026(3) -0.025(3)
C53 0.074(3) 0.075(3) 0.061(2) 0.002(2) -0.014(2) -0.038(2)
C54 0.071(3) 0.065(2) 0.062(2) -0.0146(19) -0.004(2) -0.026(2)
C55 0.060(2) 0.058(2) 0.061(2) -0.0080(18) -0.0090(19) -0.0203(19)
C56 0.107(4) 0.124(4) 0.081(3) -0.005(3) -0.027(3) -0.075(3)
loop_
_atom_type_symbol
_atom_type_description
_atom_type_scat_dispersion_real
_atom_type_scat_dispersion_imag
_atom_type_scat_source
C C 0.0033 0.0016 'International Tables Vol C Tables 4.2.6.8 and 6.1.1.4'
H H 0.0000 0.0000 'International Tables Vol C Tables 4.2.6.8 and 6.1.1.4'
N N 0.0061 0.0033 'International Tables Vol C Tables 4.2.6.8 and 6.1.1.4'
O O 0.0106 0.0060 'International Tables Vol C Tables 4.2.6.8 and 6.1.1.4'
F F 0.0171 0.0103 'International Tables Vol C Tables 4.2.6.8 and 6.1.1.4'
S S 0.1246 0.1234 'International Tables Vol C Tables 4.2.6.8 and 6.1.1.4'
loop_
_geom_angle_atom_site_label_1
_geom_angle_atom_site_label_2
_geom_angle_atom_site_label_3
_geom_angle
O4 S1 O5 120.97(18)
O4 S1 N1 104.91(16)
O5 S1 N1 106.50(15)
O4 S1 C22 108.60(18)
O5 S1 C22 107.97(18)
N1 S1 C22 107.11(15)
O9 S2 O10 120.20(17)
O9 S2 N2 105.15(17)
O10 S2 N2 106.91(15)
O9 S2 C50 109.06(16)
O10 S2 C50 107.91(18)
N2 S2 C50 106.87(15)
C1 N1 C6 119.6(2)
C1 N1 S1 118.5(2)
C6 N1 S1 119.2(2)
C29 N2 C34 120.1(3)
C29 N2 S2 119.2(2)
C34 N2 S2 119.6(2)
C10 O1 C9 118.1(3)
C4 O3 C5 116.7(3)
C38 O6 C37 118.3(3)
C32 O8 C33 116.6(3)
C3 C1 N1 122.5(3)
C3 C1 C2 121.4(4)
N1 C1 C2 116.0(3)
F1 C2 F2 107.3(4)
F1 C2 F3 107.8(4)
F2 C2 F3 103.2(4)
F1 C2 C1 112.3(3)
F2 C2 C1 114.0(4)
F3 C2 C1 111.7(4)
C1 C3 C4 126.9(4)
C1 C3 H3 116.6
C4 C3 H3 116.6
O2 C4 O3 124.8(4)
O2 C4 C3 123.7(4)
O3 C4 C3 111.5(3)
O3 C5 H5A 109.5
O3 C5 H5B 109.5
H5A C5 H5B 109.5
O3 C5 H5C 109.5
H5A C5 H5C 109.5
H5B C5 H5C 109.5
C7 C6 N1 113.3(3)
C7 C6 C16 113.8(3)
N1 C6 C16 108.9(3)
C7 C6 H6 106.8
N1 C6 H6 106.8
C16 C6 H6 106.8
C8 C7 C6 178.4(4)
C7 C8 C9 179.4(4)
O1 C9 C8 112.9(3)
O1 C9 H9A 109.0
C8 C9 H9A 109.0
O1 C9 H9B 109.0
C8 C9 H9B 109.0
H9A C9 H9B 107.8
C11 C10 O1 124.6(4)
C11 C10 C15 119.7(4)
O1 C10 C15 115.7(4)
C10 C11 C12 120.1(4)
C10 C11 H11 119.9
C12 C11 H11 119.9
C13 C12 C11 121.1(5)
C13 C12 H12 119.5
C11 C12 H12 119.5
C12 C13 C14 119.1(5)
C12 C13 H13 120.5
C14 C13 H13 120.5
C13 C14 C15 121.0(5)
C13 C14 H14 119.5
C15 C14 H14 119.5
C10 C15 C14 119.1(5)
C10 C15 H15 120.5
C14 C15 H15 120.5
C21 C16 C17 118.3(4)
C21 C16 C6 121.8(3)
C17 C16 C6 119.8(3)
C18 C17 C16 120.9(4)
C18 C17 H17 119.6
C16 C17 H17 119.6
C17 C18 C19 119.7(4)
C17 C18 H18 120.2
C19 C18 H18 120.2
C20 C19 C18 120.4(5)
C20 C19 H19 119.8
C18 C19 H19 119.8
C19 C20 C21 119.9(5)
C19 C20 H20 120.0
C21 C20 H20 120.0
C20 C21 C16 120.7(4)
C20 C21 H21 119.6
C16 C21 H21 119.6
C27 C22 C23 119.6(4)
C27 C22 S1 120.2(3)
C23 C22 S1 120.1(3)
C24 C23 C22 120.1(4)
C24 C23 H23 120.0
C22 C23 H23 120.0
C23 C24 C25 121.9(4)
C23 C24 H24 119.1
C25 C24 H24 119.1
C24 C25 C26 116.5(4)
C24 C25 C28 122.5(4)
C26 C25 C28 121.0(5)
C27 C26 C25 122.6(4)
C27 C26 H26 118.7
C25 C26 H26 118.7
C22 C27 C26 119.3(4)
C22 C27 H27 120.4
C26 C27 H27 120.4
C25 C28 H28A 109.5
C25 C28 H28B 109.5
H28A C28 H28B 109.5
C25 C28 H28C 109.5
H28A C28 H28C 109.5
H28B C28 H28C 109.5
C31 C29 N2 121.5(3)
C31 C29 C30 122.7(4)
N2 C29 C30 115.6(3)
F6 C30 F5 107.8(4)
F6 C30 F4 108.3(4)
F5 C30 F4 105.1(4)
F6 C30 C29 111.5(4)
F5 C30 C29 112.8(4)
F4 C30 C29 111.0(4)
C29 C31 C32 127.0(4)
C29 C31 H31 116.5
C32 C31 H31 116.5
O7 C32 O8 124.1(4)
O7 C32 C31 125.0(4)
O8 C32 C31 110.9(3)
O8 C33 H33A 109.5
O8 C33 H33B 109.5
H33A C33 H33B 109.5
O8 C33 H33C 109.5
H33A C33 H33C 109.5
H33B C33 H33C 109.5
C35 C34 N2 112.8(3)
C35 C34 C44 113.8(3)
N2 C34 C44 109.2(3)
C35 C34 H34 106.9
N2 C34 H34 106.9
C44 C34 H34 106.9
C36 C35 C34 178.3(3)
C35 C36 C37 177.0(4)
O6 C37 C36 113.5(3)
O6 C37 H37A 108.9
C36 C37 H37A 108.9
O6 C37 H37B 108.9
C36 C37 H37B 108.9
H37A C37 H37B 107.7
C43 C38 C39 120.4(4)
C43 C38 O6 124.8(4)
C39 C38 O6 114.8(4)
C40 C39 C38 119.2(5)
C40 C39 H39 120.4
C38 C39 H39 120.4
C39 C40 C41 120.6(5)
C39 C40 H40 119.7
C41 C40 H40 119.7
C42 C41 C40 120.2(5)
C42 C41 H41 119.9
C40 C41 H41 119.9
C41 C42 C43 120.4(5)
C41 C42 H42 119.8
C43 C42 H42 119.8
C42 C43 C38 119.1(4)
C42 C43 H43 120.5
C38 C43 H43 120.5
C49 C44 C45 119.2(4)
C49 C44 C34 122.8(3)
C45 C44 C34 117.9(4)
C46 C45 C44 121.3(5)
C46 C45 H45 119.3
C44 C45 H45 119.3
C45 C46 C47 119.7(5)
C45 C46 H46 120.1
C47 C46 H46 120.1
C46 C47 C48 120.1(5)
C46 C47 H47 120.0
C48 C47 H47 120.0
C47 C48 C49 120.0(5)
C47 C48 H48 120.0
C49 C48 H48 120.0
C44 C49 C48 119.6(4)
C44 C49 H49 120.2
C48 C49 H49 120.2
C51 C50 C55 120.4(4)
C51 C50 S2 119.9(3)
C55 C50 S2 119.7(3)
C50 C51 C52 118.8(4)
C50 C51 H51 120.6
C52 C51 H51 120.6
C53 C52 C51 122.3(4)
C53 C52 H52 118.9
C51 C52 H52 118.9
C52 C53 C54 117.2(4)
C52 C53 C56 120.9(4)
C54 C53 C56 121.9(4)
C55 C54 C53 121.6(4)
C55 C54 H54 119.2
C53 C54 H54 119.2
C54 C55 C50 119.7(4)
C54 C55 H55 120.2
C50 C55 H55 120.2
C53 C56 H56A 109.5
C53 C56 H56B 109.5
H56A C56 H56B 109.5
C53 C56 H56C 109.5
H56A C56 H56C 109.5
H56B C56 H56C 109.5
loop_
_geom_bond_atom_site_label_1
_geom_bond_atom_site_label_2
_geom_bond_distance
S1 O4 1.415(3)
S1 O5 1.422(3)
S1 N1 1.638(3)
S1 C22 1.739(4)
S2 O9 1.418(3)
S2 O10 1.420(3)
S2 N2 1.638(3)
S2 C50 1.743(4)
N1 C1 1.424(4)
N1 C6 1.481(4)
N2 C29 1.423(4)
N2 C34 1.484(4)
O1 C10 1.366(5)
O1 C9 1.410(5)
O2 C4 1.165(5)
O3 C4 1.286(5)
O3 C5 1.454(5)
O6 C38 1.374(4)
O6 C37 1.397(5)
O7 C32 1.183(5)
O8 C32 1.275(5)
O8 C33 1.455(5)
F1 C2 1.283(5)
F2 C2 1.293(4)
F3 C2 1.322(5)
F4 C30 1.322(5)
F5 C30 1.310(5)
F6 C30 1.311(6)
C1 C3 1.306(5)
C1 C2 1.507(5)
C3 C4 1.479(5)
C3 H3 0.9300
C5 H5A 0.9600
C5 H5B 0.9600
C5 H5C 0.9600
C6 C7 1.471(5)
C6 C16 1.499(5)
C6 H6 0.9800
C7 C8 1.175(5)
C8 C9 1.465(5)
C9 H9A 0.9700
C9 H9B 0.9700
C10 C11 1.357(5)
C10 C15 1.382(6)
C11 C12 1.383(6)
C11 H11 0.9300
C12 C13 1.355(6)
C12 H12 0.9300
C13 C14 1.361(7)
C13 H13 0.9300
C14 C15 1.391(7)
C14 H14 0.9300
C15 H15 0.9300
C16 C21 1.372(5)
C16 C17 1.380(5)
C17 C18 1.360(6)
C17 H17 0.9300
C18 C19 1.362(7)
C18 H18 0.9300
C19 C20 1.360(7)
C19 H19 0.9300
C20 C21 1.363(6)
C20 H20 0.9300
C21 H21 0.9300
C22 C27 1.367(5)
C22 C23 1.378(5)
C23 C24 1.361(6)
C23 H23 0.9300
C24 C25 1.380(6)
C24 H24 0.9300
C25 C26 1.382(6)
C25 C28 1.496(6)
C26 C27 1.368(6)
C26 H26 0.9300
C27 H27 0.9300
C28 H28A 0.9600
C28 H28B 0.9600
C28 H28C 0.9600
C29 C31 1.297(5)
C29 C30 1.513(6)
C31 C32 1.480(6)
C31 H31 0.9300
C33 H33A 0.9600
C33 H33B 0.9600
C33 H33C 0.9600
C34 C35 1.471(5)
C34 C44 1.503(5)
C34 H34 0.9800
C35 C36 1.179(5)
C36 C37 1.465(5)
C37 H37A 0.9700
C37 H37B 0.9700
C38 C43 1.367(5)
C38 C39 1.373(6)
C39 C40 1.350(7)
C39 H39 0.9300
C40 C41 1.355(8)
C40 H40 0.9300
C41 C42 1.351(7)
C41 H41 0.9300
C42 C43 1.362(6)
C42 H42 0.9300
C43 H43 0.9300
C44 C49 1.363(5)
C44 C45 1.377(5)
C45 C46 1.348(7)
C45 H45 0.9300
C46 C47 1.361(7)
C46 H46 0.9300
C47 C48 1.369(7)
C47 H47 0.9300
C48 C49 1.381(6)
C48 H48 0.9300
C49 H49 0.9300
C50 C51 1.367(5)
C50 C55 1.373(5)
C51 C52 1.378(6)
C51 H51 0.9300
C52 C53 1.371(6)
C52 H52 0.9300
C53 C54 1.382(6)
C53 C56 1.498(6)
C54 C55 1.365(5)
C54 H54 0.9300
C55 H55 0.9300
C56 H56A 0.9600
C56 H56B 0.9600
C56 H56C 0.9600
loop_
_geom_hbond_atom_site_label_D
_geom_hbond_atom_site_label_H
_geom_hbond_atom_site_label_A
_geom_hbond_distance_DH
_geom_hbond_distance_HA
_geom_hbond_distance_DA
_geom_hbond_angle_DHA
_geom_hbond_site_symmetry_A
C55 H55 O7 0.93 2.58 3.455(5) 156.7 2_666
C37 H37A O10 0.97 2.52 3.381(5) 147.9 2_576
C34 H34 O10 0.98 2.42 2.928(4) 111.9 .
C33 H33C O9 0.96 2.54 3.422(6) 153.7 2_666
C33 H33B F3 0.96 2.52 3.106(7) 119.5 1_554
C23 H23 O2 0.93 2.36 3.174(5) 146.3 2_677
C9 H9B O5 0.97 2.66 3.474(5) 142.3 2_767
C6 H6 O5 0.98 2.42 2.926(4) 111.3 .
C5 H5B F4 0.96 2.43 3.317(5) 152.9 .
loop_
_geom_torsion_atom_site_label_1
_geom_torsion_atom_site_label_2
_geom_torsion_atom_site_label_3
_geom_torsion_atom_site_label_4
_geom_torsion
O4 S1 N1 C1 27.0(3)
O5 S1 N1 C1 156.4(3)
C22 S1 N1 C1 -88.3(3)
O4 S1 N1 C6 -171.7(2)
O5 S1 N1 C6 -42.3(3)
C22 S1 N1 C6 73.0(3)
O9 S2 N2 C29 22.7(3)
O10 S2 N2 C29 151.5(3)
C50 S2 N2 C29 -93.1(3)
O9 S2 N2 C34 -168.8(2)
O10 S2 N2 C34 -39.9(3)
C50 S2 N2 C34 75.4(3)
C6 N1 C1 C3 -64.5(4)
S1 N1 C1 C3 96.7(3)
C6 N1 C1 C2 111.2(3)
S1 N1 C1 C2 -87.6(3)
C3 C1 C2 F1 45.4(5)
N1 C1 C2 F1 -130.3(4)
C3 C1 C2 F2 -76.9(5)
N1 C1 C2 F2 107.4(4)
C3 C1 C2 F3 166.7(4)
N1 C1 C2 F3 -9.0(5)
N1 C1 C3 C4 178.0(3)
C2 C1 C3 C4 2.6(6)
C5 O3 C4 O2 2.2(7)
C5 O3 C4 C3 -175.7(4)
C1 C3 C4 O2 53.2(7)
C1 C3 C4 O3 -128.8(4)
C1 N1 C6 C7 74.1(4)
S1 N1 C6 C7 -86.9(3)
C1 N1 C6 C16 -53.6(4)
S1 N1 C6 C16 145.3(2)
C10 O1 C9 C8 70.4(4)
C9 O1 C10 C11 3.3(5)
C9 O1 C10 C15 -178.2(4)
O1 C10 C11 C12 179.9(4)
C15 C10 C11 C12 1.5(6)
C10 C11 C12 C13 -1.2(7)
C11 C12 C13 C14 -0.2(8)
C12 C13 C14 C15 1.3(8)
C11 C10 C15 C14 -0.4(6)
O1 C10 C15 C14 -178.9(4)
C13 C14 C15 C10 -1.0(8)
C7 C6 C16 C21 -21.1(4)
N1 C6 C16 C21 106.3(3)
C7 C6 C16 C17 160.4(3)
N1 C6 C16 C17 -72.1(4)
C21 C16 C17 C18 -1.5(6)
C6 C16 C17 C18 177.0(4)
C16 C17 C18 C19 0.1(7)
C17 C18 C19 C20 1.6(8)
C18 C19 C20 C21 -2.0(7)
C19 C20 C21 C16 0.6(7)
C17 C16 C21 C20 1.1(5)
C6 C16 C21 C20 -177.3(3)
O4 S1 C22 C27 146.6(3)
O5 S1 C22 C27 13.7(3)
N1 S1 C22 C27 -100.6(3)
O4 S1 C22 C23 -34.1(3)
O5 S1 C22 C23 -167.0(3)
N1 S1 C22 C23 78.7(3)
C27 C22 C23 C24 0.3(6)
S1 C22 C23 C24 -179.1(3)
C22 C23 C24 C25 0.4(6)
C23 C24 C25 C26 -0.9(6)
C23 C24 C25 C28 179.3(4)
C24 C25 C26 C27 0.8(6)
C28 C25 C26 C27 -179.5(4)
C23 C22 C27 C26 -0.4(6)
S1 C22 C27 C26 178.9(3)
C25 C26 C27 C22 -0.2(7)
C34 N2 C29 C31 -70.6(5)
S2 N2 C29 C31 97.9(4)
C34 N2 C29 C30 106.0(4)
S2 N2 C29 C30 -85.5(4)
C31 C29 C30 F6 51.0(6)
N2 C29 C30 F6 -125.5(4)
C31 C29 C30 F5 -70.5(6)
N2 C29 C30 F5 113.0(4)
C31 C29 C30 F4 171.8(4)
N2 C29 C30 F4 -4.7(6)
N2 C29 C31 C32 175.3(4)
C30 C29 C31 C32 -1.0(7)
C33 O8 C32 O7 -3.0(8)
C33 O8 C32 C31 178.5(4)
C29 C31 C32 O7 43.3(8)
C29 C31 C32 O8 -138.2(4)
C29 N2 C34 C35 67.0(4)
S2 N2 C34 C35 -101.5(3)
C29 N2 C34 C44 -60.7(4)
S2 N2 C34 C44 130.9(3)
C38 O6 C37 C36 -75.7(4)
C37 O6 C38 C43 -1.2(5)
C37 O6 C38 C39 179.7(3)
C43 C38 C39 C40 -0.2(6)
O6 C38 C39 C40 179.0(4)
C38 C39 C40 C41 0.5(7)
C39 C40 C41 C42 -0.2(8)
C40 C41 C42 C43 -0.5(8)
C41 C42 C43 C38 0.8(7)
C39 C38 C43 C42 -0.4(6)
O6 C38 C43 C42 -179.5(4)
C35 C34 C44 C49 -28.7(5)
N2 C34 C44 C49 98.3(4)
C35 C34 C44 C45 154.2(3)
N2 C34 C44 C45 -78.7(4)
C49 C44 C45 C46 -1.7(6)
C34 C44 C45 C46 175.5(4)
C44 C45 C46 C47 0.0(8)
C45 C46 C47 C48 1.7(8)
C46 C47 C48 C49 -1.8(8)
C45 C44 C49 C48 1.5(6)
C34 C44 C49 C48 -175.5(4)
C47 C48 C49 C44 0.2(7)
O9 S2 C50 C51 141.3(3)
O10 S2 C50 C51 9.2(4)
N2 S2 C50 C51 -105.5(3)
O9 S2 C50 C55 -38.4(3)
O10 S2 C50 C55 -170.6(3)
N2 S2 C50 C55 74.7(3)
C55 C50 C51 C52 1.1(6)
S2 C50 C51 C52 -178.6(3)
C50 C51 C52 C53 0.3(7)
C51 C52 C53 C54 -1.9(7)
C51 C52 C53 C56 177.8(4)
C52 C53 C54 C55 2.2(6)
C56 C53 C54 C55 -177.6(4)
C53 C54 C55 C50 -0.8(6)
C51 C50 C55 C54 -0.9(6)
S2 C50 C55 C54 178.9(3)
